
 OpenBabel03262523253D

 40 43  0  0  1  0  0  0  0  0999 V2000
   39.6360   33.1040   44.6530 C   0  0  0  0  0  0  0  0  0  0  0  0
   40.5330   32.1110   44.2710 C   0  0  0  0  0  0  0  0  0  0  0  0
   40.6190   30.9800   45.0570 C   0  0  0  0  0  0  0  0  0  0  0  0
   39.8200   30.9050   46.1580 N   0  0  0  0  0  0  0  0  0  0  0  0
   38.9600   31.8840   46.5020 C   0  0  0  0  0  0  0  0  0  0  0  0
   38.8670   32.9750   45.7570 N   0  0  0  0  0  0  0  0  0  0  0  0
   38.1500   31.7210   47.6920 N   0  0  0  0  0  0  0  0  0  0  0  0
   37.9980   32.8170   48.6110 C   0  0  0  0  0  0  0  0  0  0  0  0
   37.7890   32.3680   50.0370 C   0  0  0  0  0  0  0  0  0  0  0  0
   38.3220   30.9650   50.1670 C   0  0  0  0  0  0  0  0  0  0  0  0
   37.3950   30.0770   49.3720 C   0  0  0  0  0  0  0  0  0  0  0  0
   37.5020   30.4280   47.9320 C   0  0  1  0  0  0  0  0  0  0  0  0
   39.4960   34.0200   44.1050 H   0  0  0  0  0  0  0  0  0  0  0  0
   41.1330   32.2500   43.3770 H   0  0  0  0  0  0  0  0  0  0  0  0
   41.3010   30.1840   44.7990 H   0  0  0  0  0  0  0  0  0  0  0  0
   37.1380   33.4510   48.3040 H   0  0  0  0  0  0  0  0  0  0  0  0
   38.9010   33.4640   48.5040 H   0  0  0  0  0  0  0  0  0  0  0  0
   38.2040   33.0810   50.7700 H   0  0  0  0  0  0  0  0  0  0  0  0
   36.6880   32.2960   50.2330 H   0  0  0  0  0  0  0  0  0  0  0  0
   38.3100   30.6890   51.2310 H   0  0  0  0  0  0  0  0  0  0  0  0
   39.3340   30.9450   49.7050 H   0  0  0  0  0  0  0  0  0  0  0  0
   36.4180   30.1270   49.8350 H   0  0  0  0  0  0  0  0  0  0  0  0
   37.7640   29.0270   49.5630 H   0  0  0  0  0  0  0  0  0  0  0  0
   38.2090   29.6960   47.4410 H   0  0  0  0  0  0  0  0  0  0  0  0
   36.2360   30.3170   47.1970 C   0  0  0  0  0  0  0  0  0  0  0  0
   34.9540   30.1970   47.7310 C   0  0  0  0  0  0  0  0  0  0  0  0
   33.8800   30.1030   46.8940 C   0  0  0  0  0  0  0  0  0  0  0  0
   34.1610   30.1370   45.4850 C   0  0  0  0  0  0  0  0  0  0  0  0
   36.0450   30.3100   45.4850 S   0  0  0  0  0  0  0  0  0  0  0  0
   34.7170   30.1710   48.7880 H   0  0  0  0  0  0  0  0  0  0  0  0
   32.8420   30.0070   47.0570 H   0  0  0  0  0  0  0  0  0  0  0  0
   31.8990   32.1690   45.2170 Cl  0  0  0  0  0  0  0  0  0  0  0  0
   32.3810   30.9450   44.0610 C   0  0  0  0  0  0  0  0  0  0  0  0
   33.4150   30.0760   44.2730 C   0  0  0  0  0  0  0  0  0  0  0  0
   33.8480   29.0950   43.4160 C   0  0  0  0  0  0  0  0  0  0  0  0
   34.6670   28.4260   43.6150 H   0  0  0  0  0  0  0  0  0  0  0  0
   33.1700   28.9620   42.1980 C   0  0  0  0  0  0  0  0  0  0  0  0
   33.4520   28.2130   41.4710 H   0  0  0  0  0  0  0  0  0  0  0  0
   32.1020   29.8160   41.9130 C   0  0  0  0  0  0  0  0  0  0  0  0
   31.7200   30.7920   42.8360 C   0  0  0  0  0  0  0  0  0  0  0  0
  1  6  1  0  0  0  0
  2  1  2  0  0  0  0
  2  3  1  0  0  0  0
  3  4  2  0  0  0  0
  4  5  1  0  0  0  0
  5  7  1  0  0  0  0
  6  5  2  0  0  0  0
  7 12  1  0  0  0  0
  7  8  1  0  0  0  0
  8  9  1  0  0  0  0
  9 10  1  0  0  0  0
  9 19  1  0  0  0  0
  9 18  1  0  0  0  0
 10 20  1  0  0  0  0
 11 23  1  0  0  0  0
 11 22  1  0  0  0  0
 11 10  1  0  0  0  0
 12 24  1  6  0  0  0
 12 11  1  0  0  0  0
 13  1  1  0  0  0  0
 14  2  1  0  0  0  0
 15  3  1  0  0  0  0
 16  8  1  0  0  0  0
 17  8  1  0  0  0  0
 21 10  1  0  0  0  0
 25 26  2  0  0  0  0
 25 12  1  0  0  0  0
 26 30  1  0  0  0  0
 27 31  1  0  0  0  0
 27 26  1  0  0  0  0
 28 27  2  0  0  0  0
 29 28  1  0  0  0  0
 29 25  1  0  0  0  0
 33 34  1  0  0  0  0
 33 32  1  0  0  0  0
 34 28  1  0  0  0  0
 35 36  1  0  0  0  0
 35 34  2  0  0  0  0
 37 35  1  0  0  0  0
 38 37  1  0  0  0  0
 39 37  2  0  0  0  0
 39 40  1  0  0  0  0
 40 33  2  0  0  0  0
M  END
>  <minimizedAffinity>
-5.72374487

>  <minimizedRMSD>
0.313807458

$$$$
