
 OpenBabel03272504513D

 42 45  0  0  1  0  0  0  0  0999 V2000
   41.5520   24.0960   35.3130 N   0  0  0  0  0  0  0  0  0  0  0  0
   42.8880   24.6190   35.5940 C   0  0  0  0  0  0  0  0  0  0  0  0
   43.7540   23.6850   36.3600 C   0  0  0  0  0  0  0  0  0  0  0  0
   43.4230   22.2320   36.0270 C   0  0  0  0  0  0  0  0  0  0  0  0
   42.0290   22.0450   36.5470 C   0  0  0  0  0  0  0  0  0  0  0  0
   41.0330   22.8460   35.7550 C   0  0  1  0  0  0  0  0  0  0  0  0
   43.3330   24.7930   34.5750 H   0  0  0  0  0  0  0  0  0  0  0  0
   42.8660   25.6070   36.0840 H   0  0  0  0  0  0  0  0  0  0  0  0
   43.6790   23.7940   37.4610 H   0  0  0  0  0  0  0  0  0  0  0  0
   44.8090   23.8470   35.9980 H   0  0  0  0  0  0  0  0  0  0  0  0
   43.3910   22.1220   34.9080 H   0  0  0  0  0  0  0  0  0  0  0  0
   44.1620   21.5670   36.4650 H   0  0  0  0  0  0  0  0  0  0  0  0
   41.6990   20.9930   36.6150 H   0  0  0  0  0  0  0  0  0  0  0  0
   42.0290   22.4970   37.5790 H   0  0  0  0  0  0  0  0  0  0  0  0
   40.8380   22.2490   34.8390 H   0  0  0  0  0  0  0  0  0  0  0  0
   38.3310   22.0680   34.4190 Cl  0  0  0  0  0  0  0  0  0  0  0  0
   38.4760   22.6290   36.0630 C   0  0  0  0  0  0  0  0  0  0  0  0
   39.7430   22.9210   36.4930 C   0  0  0  0  0  0  0  0  0  0  0  0
   39.7720   23.3670   37.8240 C   0  0  0  0  0  0  0  0  0  0  0  0
   40.7530   23.6240   38.2490 H   0  0  0  0  0  0  0  0  0  0  0  0
   38.6990   23.5190   38.6620 C   0  0  0  0  0  0  0  0  0  0  0  0
   38.8240   23.8640   39.6600 H   0  0  0  0  0  0  0  0  0  0  0  0
   37.4630   23.2060   38.1640 C   0  0  0  0  0  3  0  0  0  0  0  0
   37.3630   22.7630   36.8630 C   0  0  0  0  0  3  0  0  0  0  0  0
   40.2220   26.1300   35.0070 C   0  0  0  0  0  0  0  0  0  0  0  0
   40.7310   24.9350   34.5160 C   0  0  0  0  0  0  0  0  0  0  0  0
   40.4000   24.6080   33.2130 C   0  0  0  0  0  0  0  0  0  0  0  0
   39.6100   25.4460   32.4870 N   0  0  0  0  0  0  0  0  0  0  0  0
   39.1330   26.5930   32.9890 C   0  0  0  0  0  0  0  0  0  0  0  0
   39.4490   26.9240   34.2560 N   0  0  0  0  0  0  0  0  0  0  0  0
   40.4190   26.4780   36.0040 H   0  0  0  0  0  0  0  0  0  0  0  0
   40.7420   23.7120   32.7250 H   0  0  0  0  0  0  0  0  0  0  0  0
   38.2960   27.4670   32.1960 C   0  0  0  0  0  0  0  0  0  0  0  0
   37.1160   27.9390   32.6850 C   0  0  0  0  0  0  0  0  0  0  0  0
   36.2800   28.7720   31.9810 C   0  0  0  0  0  0  0  0  0  0  0  0
   36.7180   29.1040   30.7350 C   0  0  0  0  0  0  0  0  0  0  0  0
   37.9190   28.6510   30.1810 C   0  0  0  0  0  0  0  0  0  0  0  0
   38.7040   27.8170   30.9490 N   0  0  0  0  0  0  0  0  0  0  0  0
   36.8360   27.6250   33.6970 H   0  0  0  0  0  0  0  0  0  0  0  0
   35.3530   29.1250   32.4020 H   0  0  0  0  0  0  0  0  0  0  0  0
   36.1180   29.7600   30.1070 H   0  0  0  0  0  0  0  0  0  0  0  0
   38.2400   28.9320   29.1870 H   0  0  0  0  0  0  0  0  0  0  0  0
  1  2  1  0  0  0  0
  1  6  1  0  0  0  0
  2  8  1  0  0  0  0
  2  3  1  0  0  0  0
  3  9  1  0  0  0  0
  4  3  1  0  0  0  0
  4 12  1  0  0  0  0
  4  5  1  0  0  0  0
  5 13  1  0  0  0  0
  5 14  1  0  0  0  0
  6 15  1  6  0  0  0
  6 18  1  0  0  0  0
  6  5  1  0  0  0  0
  7  2  1  0  0  0  0
 10  3  1  0  0  0  0
 11  4  1  0  0  0  0
 16 17  1  0  0  0  0
 17 18  2  0  0  0  0
 17 24  1  0  0  0  0
 18 19  1  0  0  0  0
 19 20  1  0  0  0  0
 19 21  2  0  0  0  0
 21 22  1  0  0  0  0
 23 21  1  0  0  0  0
 24 23  2  0  0  0  0
 25 31  1  0  0  0  0
 26 25  1  0  0  0  0
 26  1  1  0  0  0  0
 27 26  2  0  0  0  0
 28 29  2  0  0  0  0
 28 27  1  0  0  0  0
 29 30  1  0  0  0  0
 30 25  2  0  0  0  0
 32 27  1  0  0  0  0
 33 34  1  0  0  0  0
 33 29  1  0  0  0  0
 34 39  1  0  0  0  0
 35 40  1  0  0  0  0
 35 34  2  0  0  0  0
 36 35  1  0  0  0  0
 37 36  2  0  0  0  0
 37 38  1  0  0  0  0
 38 33  2  0  0  0  0
 41 36  1  0  0  0  0
 42 37  1  0  0  0  0
M  END
>  <minimizedAffinity>
-5.72719669

$$$$

 OpenBabel03272504513D

 42 45  0  0  1  0  0  0  0  0999 V2000
   36.5120   29.1590   32.2450 N   0  0  0  0  0  0  0  0  0  0  0  0
   36.9450   28.9870   30.8590 C   0  0  0  0  0  0  0  0  0  0  0  0
   36.6580   30.1560   29.9870 C   0  0  0  0  0  0  0  0  0  0  0  0
   36.7180   31.4600   30.7800 C   0  0  0  0  0  0  0  0  0  0  0  0
   35.5740   31.3560   31.7440 C   0  0  0  0  0  0  0  0  0  0  0  0
   35.8150   30.2840   32.7710 C   0  0  1  0  0  0  0  0  0  0  0  0
   38.0590   28.8420   30.9360 H   0  0  0  0  0  0  0  0  0  0  0  0
   36.5550   28.0640   30.4000 H   0  0  0  0  0  0  0  0  0  0  0  0
   35.6670   30.1210   29.4900 H   0  0  0  0  0  0  0  0  0  0  0  0
   37.4960   30.2180   29.2370 H   0  0  0  0  0  0  0  0  0  0  0  0
   37.6710   31.4700   31.3750 H   0  0  0  0  0  0  0  0  0  0  0  0
   36.6660   32.3120   30.1080 H   0  0  0  0  0  0  0  0  0  0  0  0
   35.3050   32.3030   32.2440 H   0  0  0  0  0  0  0  0  0  0  0  0
   34.6960   30.9990   31.1350 H   0  0  0  0  0  0  0  0  0  0  0  0
   36.4890   30.7440   33.5240 H   0  0  0  0  0  0  0  0  0  0  0  0
   35.3570   31.0670   35.7480 Cl  0  0  0  0  0  0  0  0  0  0  0  0
   34.1820   30.2270   34.7730 C   0  0  0  0  0  0  0  0  0  0  0  0
   34.5450   29.9670   33.4790 C   0  0  0  0  0  0  0  0  0  0  0  0
   33.5450   29.2870   32.7640 C   0  0  0  0  0  0  0  0  0  0  0  0
   33.7560   29.0380   31.7140 H   0  0  0  0  0  0  0  0  0  0  0  0
   32.3210   28.8950   33.2370 C   0  0  0  0  0  0  0  0  0  0  0  0
   31.6280   28.3830   32.6150 H   0  0  0  0  0  0  0  0  0  0  0  0
   32.0270   29.1900   34.5410 C   0  0  0  0  0  3  0  0  0  0  0  0
   32.9650   29.8560   35.3000 C   0  0  0  0  0  3  0  0  0  0  0  0
   37.2300   28.3200   34.4310 C   0  0  0  0  0  0  0  0  0  0  0  0
   36.8440   28.0900   33.1170 C   0  0  0  0  0  0  0  0  0  0  0  0
   36.7980   26.7700   32.7050 C   0  0  0  0  0  0  0  0  0  0  0  0
   37.1250   25.7790   33.5790 N   0  0  0  0  0  0  0  0  0  0  0  0
   37.4940   26.0320   34.8420 C   0  0  0  0  0  0  0  0  0  0  0  0
   37.5420   27.3130   35.2560 N   0  0  0  0  0  0  0  0  0  0  0  0
   37.2970   29.3060   34.8520 H   0  0  0  0  0  0  0  0  0  0  0  0
   36.5080   26.4720   31.7130 H   0  0  0  0  0  0  0  0  0  0  0  0
   37.8350   24.9610   35.7520 C   0  0  0  0  0  0  0  0  0  0  0  0
   37.8380   25.1600   37.0990 C   0  0  0  0  0  0  0  0  0  0  0  0
   38.1510   24.1830   38.0130 C   0  0  0  0  0  0  0  0  0  0  0  0
   38.4660   22.9730   37.4720 C   0  0  0  0  0  0  0  0  0  0  0  0
   38.4800   22.7090   36.0990 C   0  0  0  0  0  0  0  0  0  0  0  0
   38.1530   23.7410   35.2450 N   0  0  0  0  0  0  0  0  0  0  0  0
   37.5730   26.1630   37.4540 H   0  0  0  0  0  0  0  0  0  0  0  0
   38.1430   24.3790   39.0730 H   0  0  0  0  0  0  0  0  0  0  0  0
   38.7270   22.1400   38.1230 H   0  0  0  0  0  0  0  0  0  0  0  0
   38.7340   21.7370   35.7000 H   0  0  0  0  0  0  0  0  0  0  0  0
  1  6  1  0  0  0  0
  1 26  1  0  0  0  0
  2  7  1  0  0  0  0
  2  1  1  0  0  0  0
  3  4  1  0  0  0  0
  3  2  1  0  0  0  0
  4 11  1  0  0  0  0
  4  5  1  0  0  0  0
  5 13  1  0  0  0  0
  5  6  1  0  0  0  0
  6 18  1  0  0  0  0
  6 15  1  1  0  0  0
  8  2  1  0  0  0  0
  9  3  1  0  0  0  0
 10  3  1  0  0  0  0
 12  4  1  0  0  0  0
 14  5  1  0  0  0  0
 17 24  1  0  0  0  0
 17 16  1  0  0  0  0
 18 17  2  0  0  0  0
 19 21  2  0  0  0  0
 19 18  1  0  0  0  0
 20 19  1  0  0  0  0
 21 23  1  0  0  0  0
 22 21  1  0  0  0  0
 23 24  2  0  0  0  0
 25 31  1  0  0  0  0
 25 30  1  0  0  0  0
 26 25  2  0  0  0  0
 27 26  1  0  0  0  0
 27 28  2  0  0  0  0
 28 29  1  0  0  0  0
 29 30  2  0  0  0  0
 29 33  1  0  0  0  0
 32 27  1  0  0  0  0
 33 34  1  0  0  0  0
 34 39  1  0  0  0  0
 34 35  2  0  0  0  0
 35 40  1  0  0  0  0
 36 35  1  0  0  0  0
 36 41  1  0  0  0  0
 37 36  2  0  0  0  0
 38 33  2  0  0  0  0
 38 37  1  0  0  0  0
 42 37  1  0  0  0  0
M  END
>  <minimizedAffinity>
-5.59675884

$$$$

 OpenBabel03272504513D

 42 45  0  0  1  0  0  0  0  0999 V2000
   32.7050   30.5680   33.2410 N   0  0  0  0  0  0  0  0  0  0  0  0
   32.4170   30.9100   31.8490 C   0  0  0  0  0  0  0  0  0  0  0  0
   31.1720   31.6990   31.6650 C   0  0  0  0  0  0  0  0  0  0  0  0
   30.9090   32.5990   32.8700 C   0  0  0  0  0  0  0  0  0  0  0  0
   30.6450   31.6400   33.9930 C   0  0  0  0  0  0  0  0  0  0  0  0
   31.8820   30.8700   34.3640 C   0  0  1  0  0  0  0  0  0  0  0  0
   33.3030   31.5270   31.5300 H   0  0  0  0  0  0  0  0  0  0  0  0
   32.4120   30.0300   31.1840 H   0  0  0  0  0  0  0  0  0  0  0  0
   30.2610   31.0850   31.5110 H   0  0  0  0  0  0  0  0  0  0  0  0
   31.3520   32.3970   30.7990 H   0  0  0  0  0  0  0  0  0  0  0  0
   31.8560   33.1570   33.1100 H   0  0  0  0  0  0  0  0  0  0  0  0
   30.0930   33.2830   32.6590 H   0  0  0  0  0  0  0  0  0  0  0  0
   30.2000   32.0970   34.8950 H   0  0  0  0  0  0  0  0  0  0  0  0
   29.9280   30.8770   33.5760 H   0  0  0  0  0  0  0  0  0  0  0  0
   32.4730   31.5560   35.0060 H   0  0  0  0  0  0  0  0  0  0  0  0
   32.5180   30.7990   37.4100 Cl  0  0  0  0  0  0  0  0  0  0  0  0
   31.7270   29.5050   36.5520 C   0  0  0  0  0  0  0  0  0  0  0  0
   31.5180   29.7050   35.2140 C   0  0  0  0  0  0  0  0  0  0  0  0
   30.8790   28.6160   34.5980 C   0  0  0  0  0  0  0  0  0  0  0  0
   30.6730   28.6950   33.5210 H   0  0  0  0  0  0  0  0  0  0  0  0
   30.4780   27.4530   35.1990 C   0  0  0  0  0  0  0  0  0  0  0  0
   29.9990   26.6830   34.6450 H   0  0  0  0  0  0  0  0  0  0  0  0
   30.7190   27.3230   36.5410 C   0  0  0  0  0  3  0  0  0  0  0  0
   31.3440   28.3550   37.2070 C   0  0  0  0  0  3  0  0  0  0  0  0
   34.3590   28.8830   32.5900 C   0  0  0  0  0  0  0  0  0  0  0  0
   33.9280   29.8820   33.4530 C   0  0  0  0  0  0  0  0  0  0  0  0
   34.7530   30.1750   34.5260 C   0  0  0  0  0  0  0  0  0  0  0  0
   35.9190   29.4910   34.6870 N   0  0  0  0  0  0  0  0  0  0  0  0
   36.3070   28.5310   33.8370 C   0  0  0  0  0  0  0  0  0  0  0  0
   35.5150   28.2360   32.7890 N   0  0  0  0  0  0  0  0  0  0  0  0
   33.7960   28.5790   31.7280 H   0  0  0  0  0  0  0  0  0  0  0  0
   34.5250   30.9330   35.2540 H   0  0  0  0  0  0  0  0  0  0  0  0
   37.5520   27.8180   34.0300 C   0  0  0  0  0  0  0  0  0  0  0  0
   38.0420   27.5930   35.2800 C   0  0  0  0  0  0  0  0  0  0  0  0
   39.2160   26.9220   35.5270 C   0  0  0  0  0  0  0  0  0  0  0  0
   39.8730   26.4870   34.4160 C   0  0  0  0  0  0  0  0  0  0  0  0
   39.4180   26.6890   33.1090 C   0  0  0  0  0  0  0  0  0  0  0  0
   38.2310   27.3710   32.9420 N   0  0  0  0  0  0  0  0  0  0  0  0
   37.4540   27.9760   36.1220 H   0  0  0  0  0  0  0  0  0  0  0  0
   39.5730   26.7630   36.5320 H   0  0  0  0  0  0  0  0  0  0  0  0
   40.8110   25.9460   34.5180 H   0  0  0  0  0  0  0  0  0  0  0  0
   39.9610   26.3300   32.2460 H   0  0  0  0  0  0  0  0  0  0  0  0
  1 26  1  0  0  0  0
  1  6  1  0  0  0  0
  2  1  1  0  0  0  0
  3  2  1  0  0  0  0
  3  4  1  0  0  0  0
  4 11  1  0  0  0  0
  4  5  1  0  0  0  0
  5  6  1  0  0  0  0
  5 13  1  0  0  0  0
  6 15  1  1  0  0  0
  6 18  1  0  0  0  0
  7  2  1  0  0  0  0
  8  2  1  0  0  0  0
  9  3  1  0  0  0  0
 10  3  1  0  0  0  0
 12  4  1  0  0  0  0
 14  5  1  0  0  0  0
 17 24  1  0  0  0  0
 17 16  1  0  0  0  0
 18 17  2  0  0  0  0
 19 21  2  0  0  0  0
 19 18  1  0  0  0  0
 20 19  1  0  0  0  0
 21 23  1  0  0  0  0
 22 21  1  0  0  0  0
 23 24  2  0  0  0  0
 25 30  2  0  0  0  0
 25 26  1  0  0  0  0
 26 27  2  0  0  0  0
 27 28  1  0  0  0  0
 27 32  1  0  0  0  0
 29 33  1  0  0  0  0
 29 28  2  0  0  0  0
 30 29  1  0  0  0  0
 31 25  1  0  0  0  0
 33 34  1  0  0  0  0
 34 35  2  0  0  0  0
 34 39  1  0  0  0  0
 35 40  1  0  0  0  0
 36 41  1  0  0  0  0
 36 35  1  0  0  0  0
 37 36  2  0  0  0  0
 38 37  1  0  0  0  0
 38 33  2  0  0  0  0
 42 37  1  0  0  0  0
M  END
>  <minimizedAffinity>
-5.56169081

$$$$

 OpenBabel03272504513D

 42 45  0  0  1  0  0  0  0  0999 V2000
   37.0720   25.7190   32.4940 N   0  0  0  0  0  0  0  0  0  0  0  0
   36.1230   25.0690   31.5910 C   0  0  0  0  0  0  0  0  0  0  0  0
   36.5320   23.7060   31.1650 C   0  0  0  0  0  0  0  0  0  0  0  0
   37.3360   23.0060   32.2590 C   0  0  0  0  0  0  0  0  0  0  0  0
   38.5940   23.8160   32.3630 C   0  0  0  0  0  0  0  0  0  0  0  0
   38.3230   25.1870   32.9180 C   0  0  1  0  0  0  0  0  0  0  0  0
   35.1730   25.0050   32.1920 H   0  0  0  0  0  0  0  0  0  0  0  0
   35.8780   25.6870   30.7110 H   0  0  0  0  0  0  0  0  0  0  0  0
   37.1460   23.6820   30.2410 H   0  0  0  0  0  0  0  0  0  0  0  0
   35.5870   23.1020   31.0500 H   0  0  0  0  0  0  0  0  0  0  0  0
   36.7780   23.1090   33.2300 H   0  0  0  0  0  0  0  0  0  0  0  0
   37.4900   21.9620   32.0040 H   0  0  0  0  0  0  0  0  0  0  0  0
   39.4070   23.3320   32.9330 H   0  0  0  0  0  0  0  0  0  0  0  0
   38.9360   23.9810   31.3030 H   0  0  0  0  0  0  0  0  0  0  0  0
   38.2460   25.0500   34.0170 H   0  0  0  0  0  0  0  0  0  0  0  0
   39.0420   26.2460   30.0800 Cl  0  0  0  0  0  0  0  0  0  0  0  0
   39.9600   26.6130   31.5150 C   0  0  0  0  0  0  0  0  0  0  0  0
   39.4980   26.0690   32.6840 C   0  0  0  0  0  0  0  0  0  0  0  0
   40.2940   26.4100   33.7900 C   0  0  0  0  0  0  0  0  0  0  0  0
   39.9930   26.0140   34.7700 H   0  0  0  0  0  0  0  0  0  0  0  0
   41.4180   27.1930   33.7820 C   0  0  0  0  0  0  0  0  0  0  0  0
   41.9550   27.3960   34.6760 H   0  0  0  0  0  0  0  0  0  0  0  0
   41.8200   27.7030   32.5760 C   0  0  0  0  0  3  0  0  0  0  0  0
   41.0840   27.4060   31.4500 C   0  0  0  0  0  3  0  0  0  0  0  0
   36.7580   27.3140   34.3260 C   0  0  0  0  0  0  0  0  0  0  0  0
   36.6690   26.9900   32.9790 C   0  0  0  0  0  0  0  0  0  0  0  0
   36.1710   27.9690   32.1370 C   0  0  0  0  0  0  0  0  0  0  0  0
   35.7990   29.1740   32.6480 N   0  0  0  0  0  0  0  0  0  0  0  0
   35.8970   29.4570   33.9550 C   0  0  0  0  0  0  0  0  0  0  0  0
   36.3800   28.5140   34.7850 N   0  0  0  0  0  0  0  0  0  0  0  0
   37.1310   26.6280   35.0640 H   0  0  0  0  0  0  0  0  0  0  0  0
   36.0630   27.8340   31.0750 H   0  0  0  0  0  0  0  0  0  0  0  0
   35.4950   30.7460   34.4740 C   0  0  0  0  0  0  0  0  0  0  0  0
   35.9410   31.1830   35.6840 C   0  0  0  0  0  0  0  0  0  0  0  0
   35.5970   32.3970   36.2290 C   0  0  0  0  0  0  0  0  0  0  0  0
   34.7620   33.1530   35.4630 C   0  0  0  0  0  0  0  0  0  0  0  0
   34.2720   32.7570   34.2150 C   0  0  0  0  0  0  0  0  0  0  0  0
   34.6630   31.5250   33.7350 N   0  0  0  0  0  0  0  0  0  0  0  0
   36.6110   30.5150   36.2380 H   0  0  0  0  0  0  0  0  0  0  0  0
   35.9700   32.7080   37.1910 H   0  0  0  0  0  0  0  0  0  0  0  0
   34.4370   34.1290   35.8170 H   0  0  0  0  0  0  0  0  0  0  0  0
   33.6100   33.3800   33.6300 H   0  0  0  0  0  0  0  0  0  0  0  0
  1  6  1  0  0  0  0
  1 26  1  0  0  0  0
  2  7  1  0  0  0  0
  2  1  1  0  0  0  0
  3  2  1  0  0  0  0
  3  4  1  0  0  0  0
  4  5  1  0  0  0  0
  4 11  1  0  0  0  0
  5  6  1  0  0  0  0
  5 13  1  0  0  0  0
  6 15  1  1  0  0  0
  8  2  1  0  0  0  0
  9  3  1  0  0  0  0
 10  3  1  0  0  0  0
 12  4  1  0  0  0  0
 14  5  1  0  0  0  0
 16 17  1  0  0  0  0
 17 18  1  0  0  0  0
 18  6  1  0  0  0  0
 18 19  2  0  0  0  0
 19 20  1  0  0  0  0
 21 19  1  0  0  0  0
 21 22  1  0  0  0  0
 23 21  2  0  0  0  0
 24 17  2  0  0  0  0
 24 23  1  0  0  0  0
 25 30  1  0  0  0  0
 25 31  1  0  0  0  0
 26 25  2  0  0  0  0
 27 28  2  0  0  0  0
 27 26  1  0  0  0  0
 28 29  1  0  0  0  0
 29 33  1  0  0  0  0
 29 30  2  0  0  0  0
 32 27  1  0  0  0  0
 33 34  1  0  0  0  0
 34 35  2  0  0  0  0
 34 39  1  0  0  0  0
 35 40  1  0  0  0  0
 36 41  1  0  0  0  0
 36 35  1  0  0  0  0
 37 36  2  0  0  0  0
 38 37  1  0  0  0  0
 38 33  2  0  0  0  0
 42 37  1  0  0  0  0
M  END
>  <minimizedAffinity>
-5.39016104

$$$$

 OpenBabel03272504513D

 42 45  0  0  1  0  0  0  0  0999 V2000
   37.5620   26.5000   30.8130 N   0  0  0  0  0  0  0  0  0  0  0  0
   36.4080   27.3510   30.5260 C   0  0  0  0  0  0  0  0  0  0  0  0
   36.7580   28.7630   30.2220 C   0  0  0  0  0  0  0  0  0  0  0  0
   38.1190   28.8540   29.5340 C   0  0  0  0  0  0  0  0  0  0  0  0
   39.0900   28.3900   30.5790 C   0  0  0  0  0  0  0  0  0  0  0  0
   38.9190   26.9260   30.8780 C   0  0  1  0  0  0  0  0  0  0  0  0
   35.9370   26.8780   29.6200 H   0  0  0  0  0  0  0  0  0  0  0  0
   35.6400   27.3110   31.3170 H   0  0  0  0  0  0  0  0  0  0  0  0
   36.7950   29.4250   31.1100 H   0  0  0  0  0  0  0  0  0  0  0  0
   36.0100   29.1290   29.4630 H   0  0  0  0  0  0  0  0  0  0  0  0
   38.1410   28.1130   28.6900 H   0  0  0  0  0  0  0  0  0  0  0  0
   38.2920   29.8640   29.1740 H   0  0  0  0  0  0  0  0  0  0  0  0
   40.1480   28.6090   30.3550 H   0  0  0  0  0  0  0  0  0  0  0  0
   38.7950   28.9270   31.5250 H   0  0  0  0  0  0  0  0  0  0  0  0
   39.4510   26.3960   30.0590 H   0  0  0  0  0  0  0  0  0  0  0  0
   41.4340   25.0910   30.8900 Cl  0  0  0  0  0  0  0  0  0  0  0  0
   40.7350   25.7900   32.3250 C   0  0  0  0  0  0  0  0  0  0  0  0
   39.6320   26.5800   32.1370 C   0  0  0  0  0  0  0  0  0  0  0  0
   39.1290   27.1010   33.3410 C   0  0  0  0  0  0  0  0  0  0  0  0
   38.2420   27.7470   33.2800 H   0  0  0  0  0  0  0  0  0  0  0  0
   39.6300   26.8900   34.5980 C   0  0  0  0  0  0  0  0  0  0  0  0
   39.1770   27.3310   35.4530 H   0  0  0  0  0  0  0  0  0  0  0  0
   40.7360   26.0900   34.7090 C   0  0  0  0  0  3  0  0  0  0  0  0
   41.2790   25.5450   33.5660 C   0  0  0  0  0  3  0  0  0  0  0  0
   36.2020   24.7390   31.8360 C   0  0  0  0  0  0  0  0  0  0  0  0
   37.2620   25.1310   31.0300 C   0  0  0  0  0  0  0  0  0  0  0  0
   38.0070   24.1200   30.4490 C   0  0  0  0  0  0  0  0  0  0  0  0
   37.6810   22.8190   30.6850 N   0  0  0  0  0  0  0  0  0  0  0  0
   36.6510   22.4730   31.4690 C   0  0  0  0  0  0  0  0  0  0  0  0
   35.9170   23.4470   32.0400 N   0  0  0  0  0  0  0  0  0  0  0  0
   35.5600   25.4430   32.3330 H   0  0  0  0  0  0  0  0  0  0  0  0
   38.8470   24.3040   29.8010 H   0  0  0  0  0  0  0  0  0  0  0  0
   36.3230   21.0830   31.7040 C   0  0  0  0  0  0  0  0  0  0  0  0
   35.7920   20.6810   32.8920 C   0  0  0  0  0  0  0  0  0  0  0  0
   35.4600   19.3770   33.1730 C   0  0  0  0  0  0  0  0  0  0  0  0
   35.7000   18.4940   32.1650 C   0  0  0  0  0  0  0  0  0  0  0  0
   36.2420   18.8480   30.9270 C   0  0  0  0  0  0  0  0  0  0  0  0
   36.5500   20.1760   30.7190 N   0  0  0  0  0  0  0  0  0  0  0  0
   35.6290   21.4530   33.6510 H   0  0  0  0  0  0  0  0  0  0  0  0
   35.0410   19.0960   34.1260 H   0  0  0  0  0  0  0  0  0  0  0  0
   35.4660   17.4390   32.3020 H   0  0  0  0  0  0  0  0  0  0  0  0
   36.4220   18.1230   30.1450 H   0  0  0  0  0  0  0  0  0  0  0  0
  1  6  1  0  0  0  0
  1 26  1  0  0  0  0
  2  1  1  0  0  0  0
  2  8  1  0  0  0  0
  3  2  1  0  0  0  0
  3  9  1  0  0  0  0
  4  3  1  0  0  0  0
  4  5  1  0  0  0  0
  5  6  1  0  0  0  0
  5 14  1  0  0  0  0
  6 15  1  6  0  0  0
  6 18  1  0  0  0  0
  7  2  1  0  0  0  0
 10  3  1  0  0  0  0
 11  4  1  0  0  0  0
 12  4  1  0  0  0  0
 13  5  1  0  0  0  0
 16 17  1  0  0  0  0
 17 24  1  0  0  0  0
 18 17  2  0  0  0  0
 18 19  1  0  0  0  0
 19 21  2  0  0  0  0
 20 19  1  0  0  0  0
 21 23  1  0  0  0  0
 21 22  1  0  0  0  0
 24 23  2  0  0  0  0
 25 30  1  0  0  0  0
 25 31  1  0  0  0  0
 26 25  2  0  0  0  0
 27 28  2  0  0  0  0
 27 26  1  0  0  0  0
 28 29  1  0  0  0  0
 29 33  1  0  0  0  0
 29 30  2  0  0  0  0
 32 27  1  0  0  0  0
 33 34  1  0  0  0  0
 34 35  2  0  0  0  0
 34 39  1  0  0  0  0
 35 40  1  0  0  0  0
 36 41  1  0  0  0  0
 36 35  1  0  0  0  0
 37 36  2  0  0  0  0
 38 37  1  0  0  0  0
 38 33  2  0  0  0  0
 42 37  1  0  0  0  0
M  END
>  <minimizedAffinity>
-5.36909103

$$$$

 OpenBabel03272504513D

 42 45  0  0  1  0  0  0  0  0999 V2000
   38.5320   23.2910   35.3380 N   0  0  0  0  0  0  0  0  0  0  0  0
   39.0100   22.5010   36.4710 C   0  0  0  0  0  0  0  0  0  0  0  0
   39.0100   23.2360   37.7630 C   0  0  0  0  0  0  0  0  0  0  0  0
   37.8780   24.2600   37.8110 C   0  0  0  0  0  0  0  0  0  0  0  0
   38.2420   25.2590   36.7520 C   0  0  0  0  0  0  0  0  0  0  0  0
   38.1470   24.6610   35.3750 C   0  0  1  0  0  0  0  0  0  0  0  0
   38.2880   21.6400   36.5300 H   0  0  0  0  0  0  0  0  0  0  0  0
   40.0000   22.0490   36.2910 H   0  0  0  0  0  0  0  0  0  0  0  0
   39.9520   23.7800   37.9790 H   0  0  0  0  0  0  0  0  0  0  0  0
   38.7720   22.4840   38.5670 H   0  0  0  0  0  0  0  0  0  0  0  0
   36.9260   23.7530   37.4940 H   0  0  0  0  0  0  0  0  0  0  0  0
   37.7870   24.6750   38.8110 H   0  0  0  0  0  0  0  0  0  0  0  0
   37.6710   26.2030   36.7940 H   0  0  0  0  0  0  0  0  0  0  0  0
   39.3350   25.4820   36.9100 H   0  0  0  0  0  0  0  0  0  0  0  0
   37.0670   24.6880   35.1180 H   0  0  0  0  0  0  0  0  0  0  0  0
   36.8010   25.5040   32.6980 Cl  0  0  0  0  0  0  0  0  0  0  0  0
   38.4020   25.9980   33.1780 C   0  0  0  0  0  0  0  0  0  0  0  0
   38.8370   25.5410   34.3940 C   0  0  0  0  0  0  0  0  0  0  0  0
   40.1340   25.9810   34.7040 C   0  0  0  0  0  0  0  0  0  0  0  0
   40.5610   25.6580   35.6640 H   0  0  0  0  0  0  0  0  0  0  0  0
   40.9370   26.7780   33.9320 C   0  0  0  0  0  0  0  0  0  0  0  0
   41.9090   27.0590   34.2550 H   0  0  0  0  0  0  0  0  0  0  0  0
   40.4350   27.1980   32.7290 C   0  0  0  0  0  3  0  0  0  0  0  0
   39.1670   26.8010   32.3630 C   0  0  0  0  0  3  0  0  0  0  0  0
   37.2460   22.0640   33.6520 C   0  0  0  0  0  0  0  0  0  0  0  0
   38.4480   22.5900   34.1070 C   0  0  0  0  0  0  0  0  0  0  0  0
   39.5550   22.3970   33.3000 C   0  0  0  0  0  0  0  0  0  0  0  0
   39.4250   21.7190   32.1260 N   0  0  0  0  0  0  0  0  0  0  0  0
   38.2500   21.2240   31.7140 C   0  0  0  0  0  0  0  0  0  0  0  0
   37.1650   21.4040   32.4900 N   0  0  0  0  0  0  0  0  0  0  0  0
   36.3270   22.1590   34.2010 H   0  0  0  0  0  0  0  0  0  0  0  0
   40.5360   22.7650   33.5460 H   0  0  0  0  0  0  0  0  0  0  0  0
   38.1370   20.5070   30.4620 C   0  0  0  0  0  0  0  0  0  0  0  0
   37.0430   19.7450   30.1880 C   0  0  0  0  0  0  0  0  0  0  0  0
   36.8780   19.0430   29.0180 C   0  0  0  0  0  0  0  0  0  0  0  0
   37.9030   19.1630   28.1290 C   0  0  0  0  0  0  0  0  0  0  0  0
   39.0490   19.9300   28.3550 C   0  0  0  0  0  0  0  0  0  0  0  0
   39.1420   20.6060   29.5530 N   0  0  0  0  0  0  0  0  0  0  0  0
   36.2630   19.7010   30.9560 H   0  0  0  0  0  0  0  0  0  0  0  0
   35.9970   18.4490   28.8370 H   0  0  0  0  0  0  0  0  0  0  0  0
   37.8560   18.6410   27.1750 H   0  0  0  0  0  0  0  0  0  0  0  0
   39.8470   20.0060   27.6280 H   0  0  0  0  0  0  0  0  0  0  0  0
  1  6  1  0  0  0  0
  1  2  1  0  0  0  0
  2  7  1  0  0  0  0
  2  3  1  0  0  0  0
  3  4  1  0  0  0  0
  3  9  1  0  0  0  0
  3 10  1  0  0  0  0
  4 12  1  0  0  0  0
  5 13  1  0  0  0  0
  5 14  1  0  0  0  0
  5  4  1  0  0  0  0
  6 15  1  6  0  0  0
  6  5  1  0  0  0  0
  8  2  1  0  0  0  0
 11  4  1  0  0  0  0
 16 17  1  0  0  0  0
 17 18  1  0  0  0  0
 18 19  2  0  0  0  0
 18  6  1  0  0  0  0
 19 20  1  0  0  0  0
 21 22  1  0  0  0  0
 21 19  1  0  0  0  0
 23 21  2  0  0  0  0
 24 23  1  0  0  0  0
 24 17  2  0  0  0  0
 25 26  1  0  0  0  0
 25 31  1  0  0  0  0
 26  1  1  0  0  0  0
 27 32  1  0  0  0  0
 27 26  2  0  0  0  0
 28 27  1  0  0  0  0
 29 28  2  0  0  0  0
 29 30  1  0  0  0  0
 30 25  2  0  0  0  0
 33 29  1  0  0  0  0
 34 33  1  0  0  0  0
 34 39  1  0  0  0  0
 35 34  2  0  0  0  0
 36 37  2  0  0  0  0
 36 35  1  0  0  0  0
 37 38  1  0  0  0  0
 38 33  2  0  0  0  0
 40 35  1  0  0  0  0
 41 36  1  0  0  0  0
 42 37  1  0  0  0  0
M  END
>  <minimizedAffinity>
-5.34502077

$$$$

 OpenBabel03272504513D

 42 45  0  0  1  0  0  0  0  0999 V2000
   37.0430   25.8050   32.4540 N   0  0  0  0  0  0  0  0  0  0  0  0
   36.0590   25.1460   31.5970 C   0  0  0  0  0  0  0  0  0  0  0  0
   36.4510   23.7780   31.1680 C   0  0  0  0  0  0  0  0  0  0  0  0
   37.2980   23.0900   32.2360 C   0  0  0  0  0  0  0  0  0  0  0  0
   38.5600   23.9010   32.2810 C   0  0  0  0  0  0  0  0  0  0  0  0
   38.3100   25.2780   32.8320 C   0  0  1  0  0  0  0  0  0  0  0  0
   35.1340   25.0880   32.2370 H   0  0  0  0  0  0  0  0  0  0  0  0
   35.7780   25.7540   30.7210 H   0  0  0  0  0  0  0  0  0  0  0  0
   37.0270   23.7450   30.2210 H   0  0  0  0  0  0  0  0  0  0  0  0
   35.5030   23.1730   31.0980 H   0  0  0  0  0  0  0  0  0  0  0  0
   36.7810   23.2020   33.2280 H   0  0  0  0  0  0  0  0  0  0  0  0
   37.4430   22.0430   31.9850 H   0  0  0  0  0  0  0  0  0  0  0  0
   39.3960   23.4230   32.8220 H   0  0  0  0  0  0  0  0  0  0  0  0
   38.8580   24.0550   31.2060 H   0  0  0  0  0  0  0  0  0  0  0  0
   38.2780   25.1510   33.9350 H   0  0  0  0  0  0  0  0  0  0  0  0
   40.0370   26.5180   35.1050 Cl  0  0  0  0  0  0  0  0  0  0  0  0
   40.3280   26.7870   33.4080 C   0  0  0  0  0  0  0  0  0  0  0  0
   39.4750   26.1570   32.5420 C   0  0  0  0  0  0  0  0  0  0  0  0
   39.7760   26.4270   31.1960 C   0  0  0  0  0  0  0  0  0  0  0  0
   39.1370   25.9590   30.4330 H   0  0  0  0  0  0  0  0  0  0  0  0
   40.7900   27.2180   30.7250 C   0  0  0  0  0  0  0  0  0  0  0  0
   40.9380   27.3610   29.6820 H   0  0  0  0  0  0  0  0  0  0  0  0
   41.6040   27.8140   31.6500 C   0  0  0  0  0  3  0  0  0  0  0  0
   41.3630   27.5920   32.9880 C   0  0  0  0  0  3  0  0  0  0  0  0
   36.7110   27.3850   34.2960 C   0  0  0  0  0  0  0  0  0  0  0  0
   36.6590   27.0810   32.9420 C   0  0  0  0  0  0  0  0  0  0  0  0
   36.2190   28.0840   32.0970 C   0  0  0  0  0  0  0  0  0  0  0  0
   35.8630   29.2930   32.6120 N   0  0  0  0  0  0  0  0  0  0  0  0
   35.9240   29.5560   33.9240 C   0  0  0  0  0  0  0  0  0  0  0  0
   36.3510   28.5890   34.7580 N   0  0  0  0  0  0  0  0  0  0  0  0
   37.0390   26.6800   35.0370 H   0  0  0  0  0  0  0  0  0  0  0  0
   36.1440   27.9650   31.0300 H   0  0  0  0  0  0  0  0  0  0  0  0
   35.5410   30.8500   34.4470 C   0  0  0  0  0  0  0  0  0  0  0  0
   35.9250   31.2430   35.6920 C   0  0  0  0  0  0  0  0  0  0  0  0
   35.5950   32.4580   36.2420 C   0  0  0  0  0  0  0  0  0  0  0  0
   34.8400   33.2630   35.4430 C   0  0  0  0  0  0  0  0  0  0  0  0
   34.4170   32.9140   34.1580 C   0  0  0  0  0  0  0  0  0  0  0  0
   34.7890   31.6770   33.6750 N   0  0  0  0  0  0  0  0  0  0  0  0
   36.5310   30.5370   36.2720 H   0  0  0  0  0  0  0  0  0  0  0  0
   35.9180   32.7350   37.2330 H   0  0  0  0  0  0  0  0  0  0  0  0
   34.5330   34.2450   35.7990 H   0  0  0  0  0  0  0  0  0  0  0  0
   33.8180   33.5750   33.5460 H   0  0  0  0  0  0  0  0  0  0  0  0
  1  6  1  0  0  0  0
  1 26  1  0  0  0  0
  2  7  1  0  0  0  0
  2  1  1  0  0  0  0
  3  2  1  0  0  0  0
  3  4  1  0  0  0  0
  4  5  1  0  0  0  0
  4 11  1  0  0  0  0
  5 13  1  0  0  0  0
  5  6  1  0  0  0  0
  6 15  1  1  0  0  0
  8  2  1  0  0  0  0
  9  3  1  0  0  0  0
 10  3  1  0  0  0  0
 12  4  1  0  0  0  0
 14  5  1  0  0  0  0
 17 16  1  0  0  0  0
 18  6  1  0  0  0  0
 18 17  2  0  0  0  0
 19 18  1  0  0  0  0
 20 19  1  0  0  0  0
 21 19  2  0  0  0  0
 21 23  1  0  0  0  0
 22 21  1  0  0  0  0
 23 24  2  0  0  0  0
 24 17  1  0  0  0  0
 25 30  1  0  0  0  0
 25 31  1  0  0  0  0
 26 25  2  0  0  0  0
 27 28  2  0  0  0  0
 27 26  1  0  0  0  0
 28 29  1  0  0  0  0
 29 33  1  0  0  0  0
 29 30  2  0  0  0  0
 32 27  1  0  0  0  0
 33 34  1  0  0  0  0
 34 35  2  0  0  0  0
 34 39  1  0  0  0  0
 35 40  1  0  0  0  0
 36 41  1  0  0  0  0
 36 35  1  0  0  0  0
 37 36  2  0  0  0  0
 38 37  1  0  0  0  0
 38 33  2  0  0  0  0
 42 37  1  0  0  0  0
M  END
>  <minimizedAffinity>
-5.30814409

$$$$

 OpenBabel03272504513D

 42 45  0  0  1  0  0  0  0  0999 V2000
   39.4660   25.5710   30.8450 N   0  0  0  0  0  0  0  0  0  0  0  0
   39.6600   25.9190   29.4390 C   0  0  0  0  0  0  0  0  0  0  0  0
   40.5110   27.1180   29.2240 C   0  0  0  0  0  0  0  0  0  0  0  0
   41.5650   27.2460   30.3220 C   0  0  0  0  0  0  0  0  0  0  0  0
   40.7690   27.5050   31.5670 C   0  0  0  0  0  0  0  0  0  0  0  0
   39.9600   26.3010   31.9640 C   0  0  1  0  0  0  0  0  0  0  0  0
   40.1680   25.0150   29.0000 H   0  0  0  0  0  0  0  0  0  0  0  0
   38.7090   26.0230   28.8890 H   0  0  0  0  0  0  0  0  0  0  0  0
   39.9520   28.0750   29.1950 H   0  0  0  0  0  0  0  0  0  0  0  0
   41.0860   26.9450   28.2710 H   0  0  0  0  0  0  0  0  0  0  0  0
   42.0770   26.2520   30.4410 H   0  0  0  0  0  0  0  0  0  0  0  0
   42.2780   28.0260   30.0710 H   0  0  0  0  0  0  0  0  0  0  0  0
   41.3620   27.8620   32.4270 H   0  0  0  0  0  0  0  0  0  0  0  0
   40.0170   28.2950   31.2850 H   0  0  0  0  0  0  0  0  0  0  0  0
   40.6730   25.6270   32.4850 H   0  0  0  0  0  0  0  0  0  0  0  0
   40.0770   25.2850   34.9040 Cl  0  0  0  0  0  0  0  0  0  0  0  0
   38.8290   26.3330   34.2870 C   0  0  0  0  0  0  0  0  0  0  0  0
   38.9350   26.6900   32.9690 C   0  0  0  0  0  0  0  0  0  0  0  0
   37.8910   27.5310   32.5510 C   0  0  0  0  0  0  0  0  0  0  0  0
   37.9000   27.8650   31.5040 H   0  0  0  0  0  0  0  0  0  0  0  0
   36.8490   27.9880   33.3150 C   0  0  0  0  0  0  0  0  0  0  0  0
   36.1040   28.6260   32.9060 H   0  0  0  0  0  0  0  0  0  0  0  0
   36.8090   27.5910   34.6250 C   0  0  0  0  0  3  0  0  0  0  0  0
   37.8030   26.7640   35.1000 C   0  0  0  0  0  3  0  0  0  0  0  0
   39.2920   23.2810   31.6980 C   0  0  0  0  0  0  0  0  0  0  0  0
   38.7230   24.3850   31.0760 C   0  0  0  0  0  0  0  0  0  0  0  0
   37.3970   24.2690   30.6980 C   0  0  0  0  0  0  0  0  0  0  0  0
   36.7230   23.1110   30.9420 N   0  0  0  0  0  0  0  0  0  0  0  0
   37.3010   22.0630   31.5440 C   0  0  0  0  0  0  0  0  0  0  0  0
   38.5910   22.1620   31.9180 N   0  0  0  0  0  0  0  0  0  0  0  0
   40.3130   23.2660   32.0320 H   0  0  0  0  0  0  0  0  0  0  0  0
   36.8500   25.0600   30.2150 H   0  0  0  0  0  0  0  0  0  0  0  0
   36.5640   20.8430   31.7940 C   0  0  0  0  0  0  0  0  0  0  0  0
   35.2130   20.8640   31.9670 C   0  0  0  0  0  0  0  0  0  0  0  0
   34.4590   19.7410   32.2050 C   0  0  0  0  0  0  0  0  0  0  0  0
   35.1650   18.5770   32.2580 C   0  0  0  0  0  0  0  0  0  0  0  0
   36.5500   18.4940   32.0870 C   0  0  0  0  0  0  0  0  0  0  0  0
   37.2380   19.6650   31.8520 N   0  0  0  0  0  0  0  0  0  0  0  0
   34.7200   21.8410   31.9100 H   0  0  0  0  0  0  0  0  0  0  0  0
   33.3900   19.7970   32.3370 H   0  0  0  0  0  0  0  0  0  0  0  0
   34.6470   17.6370   32.4410 H   0  0  0  0  0  0  0  0  0  0  0  0
   37.0830   17.5540   32.1350 H   0  0  0  0  0  0  0  0  0  0  0  0
  1 26  1  0  0  0  0
  1  6  1  0  0  0  0
  2  1  1  0  0  0  0
  3  2  1  0  0  0  0
  3  4  1  0  0  0  0
  4 11  1  0  0  0  0
  4  5  1  0  0  0  0
  5  6  1  0  0  0  0
  5 13  1  0  0  0  0
  6 15  1  1  0  0  0
  6 18  1  0  0  0  0
  7  2  1  0  0  0  0
  8  2  1  0  0  0  0
  9  3  1  0  0  0  0
 10  3  1  0  0  0  0
 12  4  1  0  0  0  0
 14  5  1  0  0  0  0
 17 16  1  0  0  0  0
 17 24  1  0  0  0  0
 18 17  2  0  0  0  0
 19 18  1  0  0  0  0
 19 21  2  0  0  0  0
 20 19  1  0  0  0  0
 21 23  1  0  0  0  0
 22 21  1  0  0  0  0
 23 24  2  0  0  0  0
 25 30  1  0  0  0  0
 25 31  1  0  0  0  0
 26 25  2  0  0  0  0
 27 28  2  0  0  0  0
 27 26  1  0  0  0  0
 28 29  1  0  0  0  0
 29 33  1  0  0  0  0
 29 30  2  0  0  0  0
 32 27  1  0  0  0  0
 33 38  2  0  0  0  0
 33 34  1  0  0  0  0
 34 35  2  0  0  0  0
 35 36  1  0  0  0  0
 35 40  1  0  0  0  0
 36 41  1  0  0  0  0
 37 42  1  0  0  0  0
 37 36  2  0  0  0  0
 38 37  1  0  0  0  0
 39 34  1  0  0  0  0
M  END
>  <minimizedAffinity>
-5.27830696

$$$$

 OpenBabel03272504513D

 42 45  0  0  1  0  0  0  0  0999 V2000
   37.4830   26.3670   30.8840 N   0  0  0  0  0  0  0  0  0  0  0  0
   36.3250   27.1680   30.4920 C   0  0  0  0  0  0  0  0  0  0  0  0
   36.6380   28.5980   30.2360 C   0  0  0  0  0  0  0  0  0  0  0  0
   38.0540   28.7600   29.6870 C   0  0  0  0  0  0  0  0  0  0  0  0
   38.9370   28.3260   30.8200 C   0  0  0  0  0  0  0  0  0  0  0  0
   38.8060   26.8520   31.0870 C   0  0  1  0  0  0  0  0  0  0  0  0
   35.9680   26.6860   29.5400 H   0  0  0  0  0  0  0  0  0  0  0  0
   35.4850   27.0830   31.2020 H   0  0  0  0  0  0  0  0  0  0  0  0
   36.5560   29.2500   31.1290 H   0  0  0  0  0  0  0  0  0  0  0  0
   35.9520   28.9400   29.4100 H   0  0  0  0  0  0  0  0  0  0  0  0
   38.1940   28.0310   28.8430 H   0  0  0  0  0  0  0  0  0  0  0  0
   38.2150   29.7810   29.3550 H   0  0  0  0  0  0  0  0  0  0  0  0
   40.0020   28.5960   30.7030 H   0  0  0  0  0  0  0  0  0  0  0  0
   38.5260   28.8380   31.7360 H   0  0  0  0  0  0  0  0  0  0  0  0
   39.4400   26.3570   30.3210 H   0  0  0  0  0  0  0  0  0  0  0  0
   37.4080   27.6150   33.7610 Cl  0  0  0  0  0  0  0  0  0  0  0  0
   38.9380   26.7870   33.6680 C   0  0  0  0  0  0  0  0  0  0  0  0
   39.4060   26.5230   32.4080 C   0  0  0  0  0  0  0  0  0  0  0  0
   40.6430   25.8570   32.4200 C   0  0  0  0  0  0  0  0  0  0  0  0
   41.0910   25.6060   31.4480 H   0  0  0  0  0  0  0  0  0  0  0  0
   41.3620   25.4810   33.5240 C   0  0  0  0  0  0  0  0  0  0  0  0
   42.2930   24.9780   33.4300 H   0  0  0  0  0  0  0  0  0  0  0  0
   40.8310   25.7780   34.7510 C   0  0  0  0  0  3  0  0  0  0  0  0
   39.6190   26.4310   34.8100 C   0  0  0  0  0  3  0  0  0  0  0  0
   36.1280   24.5330   31.7790 C   0  0  0  0  0  0  0  0  0  0  0  0
   37.2270   24.9820   31.0590 C   0  0  0  0  0  0  0  0  0  0  0  0
   38.0560   24.0130   30.5210 C   0  0  0  0  0  0  0  0  0  0  0  0
   37.7690   22.6970   30.7140 N   0  0  0  0  0  0  0  0  0  0  0  0
   36.6990   22.2940   31.4140 C   0  0  0  0  0  0  0  0  0  0  0  0
   35.8850   23.2260   31.9430 N   0  0  0  0  0  0  0  0  0  0  0  0
   35.4220   25.2010   32.2370 H   0  0  0  0  0  0  0  0  0  0  0  0
   38.9320   24.2430   29.9400 H   0  0  0  0  0  0  0  0  0  0  0  0
   36.4150   20.8880   31.6050 C   0  0  0  0  0  0  0  0  0  0  0  0
   35.2060   20.4760   32.0760 C   0  0  0  0  0  0  0  0  0  0  0  0
   34.8770   19.1570   32.2760 C   0  0  0  0  0  0  0  0  0  0  0  0
   35.8610   18.2670   31.9660 C   0  0  0  0  0  0  0  0  0  0  0  0
   37.1190   18.6310   31.4790 C   0  0  0  0  0  0  0  0  0  0  0  0
   37.3750   19.9750   31.3040 N   0  0  0  0  0  0  0  0  0  0  0  0
   34.4690   21.2540   32.3020 H   0  0  0  0  0  0  0  0  0  0  0  0
   33.9080   18.8690   32.6510 H   0  0  0  0  0  0  0  0  0  0  0  0
   35.6860   17.2010   32.0940 H   0  0  0  0  0  0  0  0  0  0  0  0
   37.8810   17.9010   31.2410 H   0  0  0  0  0  0  0  0  0  0  0  0
  1 26  1  0  0  0  0
  1  6  1  0  0  0  0
  2  1  1  0  0  0  0
  2  8  1  0  0  0  0
  3  2  1  0  0  0  0
  3  9  1  0  0  0  0
  4  3  1  0  0  0  0
  4  5  1  0  0  0  0
  5  6  1  0  0  0  0
  5 14  1  0  0  0  0
  6 15  1  6  0  0  0
  6 18  1  0  0  0  0
  7  2  1  0  0  0  0
 10  3  1  0  0  0  0
 11  4  1  0  0  0  0
 12  4  1  0  0  0  0
 13  5  1  0  0  0  0
 17 16  1  0  0  0  0
 17 24  1  0  0  0  0
 18 19  1  0  0  0  0
 18 17  2  0  0  0  0
 19 21  2  0  0  0  0
 20 19  1  0  0  0  0
 21 23  1  0  0  0  0
 22 21  1  0  0  0  0
 23 24  2  0  0  0  0
 25 30  1  0  0  0  0
 25 31  1  0  0  0  0
 26 25  2  0  0  0  0
 27 28  2  0  0  0  0
 27 26  1  0  0  0  0
 28 29  1  0  0  0  0
 29 33  1  0  0  0  0
 29 30  2  0  0  0  0
 32 27  1  0  0  0  0
 33 34  1  0  0  0  0
 34 35  2  0  0  0  0
 34 39  1  0  0  0  0
 35 40  1  0  0  0  0
 36 41  1  0  0  0  0
 36 35  1  0  0  0  0
 37 36  2  0  0  0  0
 38 37  1  0  0  0  0
 38 33  2  0  0  0  0
 42 37  1  0  0  0  0
M  END
>  <minimizedAffinity>
-5.24843884

$$$$
