
 OpenBabel03262522103D

 29 31  0  0  0  0  0  0  0  0999 V2000
   36.7210   30.5140   47.4310 C   0  0  0  0  0  0  0  0  0  0  0  0
   37.1310   30.7180   46.1320 C   0  0  0  0  0  0  0  0  0  0  0  0
   36.2840   30.3780   45.0840 C   0  0  0  0  0  0  0  0  0  0  0  0
   35.0440   29.8360   45.4700 C   0  0  0  0  0  0  0  0  0  0  0  0
   34.6640   29.6430   46.7710 C   0  0  0  0  0  0  0  0  0  0  0  0
   35.5170   29.9880   47.7620 N   0  0  0  0  0  0  0  0  0  0  0  0
   38.1010   31.1410   45.9100 H   0  0  0  0  0  0  0  0  0  0  0  0
   36.5560   30.5180   44.0640 H   0  0  0  0  0  0  0  0  0  0  0  0
   34.4150   29.5840   44.6260 H   0  0  0  0  0  0  0  0  0  0  0  0
   34.6790   27.9240   49.1620 Cl  0  0  0  0  0  0  0  0  0  0  0  0
   33.2410   28.2430   48.2120 C   0  0  0  0  0  0  0  0  0  0  0  0
   33.3610   29.0760   47.0990 C   0  0  0  0  0  0  0  0  0  0  0  0
   32.2130   29.2850   46.4040 C   0  0  0  0  0  0  0  0  0  0  0  0
   32.2310   29.9090   45.5440 H   0  0  0  0  0  0  0  0  0  0  0  0
   31.0140   28.6960   46.7970 C   0  0  0  0  0  0  0  0  0  0  0  0
   30.1300   28.9100   46.1880 H   0  0  0  0  0  0  0  0  0  0  0  0
   30.9360   27.8830   47.8990 C   0  0  0  0  0  0  0  0  0  0  0  0
   32.0790   27.6390   48.6400 C   0  0  0  0  0  0  0  0  0  0  0  0
   37.6570   30.9010   48.4870 C   0  0  0  0  0  0  0  0  0  0  0  0
   37.8090   30.2310   49.5090 O   0  0  0  0  0  0  0  0  0  0  0  0
   39.1660   32.3870   47.1960 C   0  0  0  0  0  0  0  0  0  0  0  0
   38.4740   32.1230   48.3810 C   0  0  0  0  0  0  0  0  0  0  0  0
   38.5880   33.0370   49.4260 C   0  0  0  0  0  0  0  0  0  0  0  0
   39.3630   34.1480   49.2530 N   0  0  0  0  0  0  0  0  0  0  0  0
   40.0200   34.3760   48.0960 C   0  0  0  0  0  0  0  0  0  0  0  0
   39.9210   33.5180   47.1000 N   0  0  0  0  0  0  0  0  0  0  0  0
   39.0880   31.6850   46.3770 H   0  0  0  0  0  0  0  0  0  0  0  0
   38.0620   32.8440   50.3330 H   0  0  0  0  0  0  0  0  0  0  0  0
   40.6410   35.2250   47.9030 H   0  0  0  0  0  0  0  0  0  0  0  0
  1  6  1  0  0  0  0
  1 19  1  0  0  0  0
  2  1  2  0  0  0  0
  3  4  2  0  0  0  0
  3  2  1  0  0  0  0
  4  5  1  0  0  0  0
  5 12  1  0  0  0  0
  5  6  2  0  0  0  0
  7  2  1  0  0  0  0
  8  3  1  0  0  0  0
  9  4  1  0  0  0  0
 11 18  1  0  0  0  0
 11 10  1  0  0  0  0
 12 11  2  0  0  0  0
 13 15  2  0  0  0  0
 13 12  1  0  0  0  0
 14 13  1  0  0  0  0
 15 17  1  0  0  0  0
 16 15  1  0  0  0  0
 17 18  2  0  0  0  0
 19 20  2  0  0  0  0
 21 22  1  0  0  0  0
 22 19  1  0  0  0  0
 22 23  2  0  0  0  0
 23 28  1  0  0  0  0
 24 23  1  0  0  0  0
 25 24  2  0  0  0  0
 26 21  2  0  0  0  0
 26 25  1  0  0  0  0
 27 21  1  0  0  0  0
 29 25  1  0  0  0  0
M  END
>  <minimizedAffinity>
-5.57076168

>  <minimizedRMSD>
7.87260294

$$$$
