
 OpenBabel03272510333D

 28 30  0  0  0  0  0  0  0  0999 V2000
   36.0380   30.1820   47.1820 C   0  0  0  0  0  0  0  0  0  0  0  0
   35.4240   30.1720   45.9600 C   0  0  0  0  0  0  0  0  0  0  0  0
   34.3380   29.3490   45.7000 C   0  0  0  0  0  0  0  0  0  0  0  0
   33.8830   28.5270   46.7130 C   0  0  0  0  0  0  0  0  0  0  0  0
   34.4860   28.5150   47.9630 C   0  0  0  0  0  0  0  0  0  0  0  0
   35.5670   29.3500   48.1830 C   0  0  0  0  0  0  0  0  0  0  0  0
   35.7790   30.8160   45.1610 H   0  0  0  0  0  0  0  0  0  0  0  0
   33.8880   29.3820   44.7130 H   0  0  0  0  0  0  0  0  0  0  0  0
   33.0330   27.9010   46.4680 H   0  0  0  0  0  0  0  0  0  0  0  0
   34.0870   27.8470   48.7290 H   0  0  0  0  0  0  0  0  0  0  0  0
   38.0900   32.8140   48.6230 C   0  0  0  0  0  0  0  0  0  0  0  0
   39.2350   32.8450   47.8280 C   0  0  0  0  0  0  0  0  0  0  0  0
   39.2920   31.9150   46.7540 C   0  0  0  0  0  0  0  0  0  0  0  0
   38.2470   31.0580   46.5580 N   0  0  0  0  0  0  0  0  0  0  0  0
   37.1660   31.0750   47.3600 C   0  0  0  0  0  0  0  0  0  0  0  0
   37.1000   31.9560   48.3850 N   0  0  0  0  0  0  0  0  0  0  0  0
   38.0790   33.5340   49.4290 H   0  0  0  0  0  0  0  0  0  0  0  0
   40.0700   33.4940   47.9450 H   0  0  0  0  0  0  0  0  0  0  0  0
   40.1240   31.8290   46.0560 H   0  0  0  0  0  0  0  0  0  0  0  0
   33.6510   29.7890   50.3820 Cl  0  0  0  0  0  0  0  0  0  0  0  0
   35.3860   29.5550   50.5710 C   0  0  0  0  0  0  0  0  0  0  0  0
   36.2170   29.3550   49.4900 C   0  0  0  0  0  0  0  0  0  0  0  0
   37.5850   29.1720   49.6680 C   0  0  0  0  0  0  0  0  0  0  0  0
   38.1760   29.0220   48.7860 H   0  0  0  0  0  0  0  0  0  0  0  0
   38.0740   29.1980   50.9460 C   0  0  0  0  0  0  0  0  0  0  0  0
   39.1290   29.0590   51.1190 H   0  0  0  0  0  0  0  0  0  0  0  0
   37.2820   29.3920   52.0340 C   0  0  0  0  0  3  0  0  0  0  0  0
   35.9180   29.5740   51.8480 C   0  0  0  0  0  3  0  0  0  0  0  0
  1 15  1  0  0  0  0
  1  6  1  0  0  0  0
  2  1  2  0  0  0  0
  3  2  1  0  0  0  0
  3  4  2  0  0  0  0
  4  5  1  0  0  0  0
  5  6  2  0  0  0  0
  5 10  1  0  0  0  0
  6 22  1  0  0  0  0
  7  2  1  0  0  0  0
  8  3  1  0  0  0  0
  9  4  1  0  0  0  0
 11 17  1  0  0  0  0
 12 18  1  0  0  0  0
 12 11  2  0  0  0  0
 13 12  1  0  0  0  0
 14 13  2  0  0  0  0
 14 15  1  0  0  0  0
 15 16  2  0  0  0  0
 16 11  1  0  0  0  0
 19 13  1  0  0  0  0
 20 21  1  0  0  0  0
 21 28  1  0  0  0  0
 22 23  1  0  0  0  0
 22 21  2  0  0  0  0
 23 25  2  0  0  0  0
 24 23  1  0  0  0  0
 25 26  1  0  0  0  0
 25 27  1  0  0  0  0
 28 27  2  0  0  0  0
M  END
>  <minimizedAffinity>
-4.84760046

>  <minimizedRMSD>
1.59294021

$$$$
