REMARK  Name = 
REMARK  2 active torsions:
REMARK  status: ('A' for Active; 'I' for Inactive)
REMARK    1  A    between atoms: C_2  and  C_12
REMARK    2  A    between atoms: C_6  and  C_25
REMARK                            x       y       z     vdW  Elec       q    Type
REMARK                         _______ _______ _______ _____ _____    ______ ____
ROOT
ATOM      1  C   UNL     1      37.044  30.733  46.776  0.00  0.00    +0.000 A 
ATOM      2  C   UNL     1      37.701  31.147  47.926  0.00  0.00    +0.000 A 
ATOM      3  C   UNL     1      38.721  32.053  47.830  0.00  0.00    +0.000 A 
ATOM      4  C   UNL     1      39.071  32.534  46.579  0.00  0.00    +0.000 A 
ATOM      5  N   UNL     1      40.038  33.428  46.240  0.00  0.00    +0.000 N 
ATOM      6  C   UNL     1      39.999  33.581  44.910  0.00  0.00    +0.000 A 
ATOM      7  N   UNL     1      39.039  32.814  44.392  0.00  0.00    +0.000 NA
ATOM      8  C   UNL     1      38.438  32.146  45.404  0.00  0.00    +0.000 A 
ATOM      9  C   UNL     1      37.408  31.228  45.521  0.00  0.00    +0.000 A 
ATOM     10  H   UNL     1      36.230  30.022  46.768  0.00  0.00    +0.000 HD
ATOM     11  H   UNL     1      39.231  32.377  48.702  0.00  0.00    +0.000 HD
ATOM     12  H   UNL     1      40.695  33.908  46.913  0.00  0.00    +0.000 HD
ATOM     13  H   UNL     1      36.904  30.913  44.623  0.00  0.00    +0.000 HD
ENDROOT
BRANCH   2  16
ATOM     14  C   UNL     1      37.374  30.186  51.545  0.00  0.00    +0.000 A 
ATOM     15  C   UNL     1      37.877  30.777  50.382  0.00  0.00    +0.000 A 
ATOM     16  C   UNL     1      37.241  30.569  49.173  0.00  0.00    +0.000 A 
ATOM     17  N   UNL     1      36.140  29.789  49.170  0.00  0.00    +0.000 NA
ATOM     18  C   UNL     1      35.658  29.218  50.307  0.00  0.00    +0.000 A 
ATOM     19  N   UNL     1      36.262  29.410  51.480  0.00  0.00    +0.000 NA
ATOM     20  H   UNL     1      37.866  30.340  52.511  0.00  0.00    +0.000 HD
ATOM     21  H   UNL     1      38.762  31.396  50.428  0.00  0.00    +0.000 HD
ATOM     22  H   UNL     1      34.768  28.614  50.169  0.00  0.00    +0.000 HD
ENDBRANCH   2  16
BRANCH   6  25
ATOM     23 CL   UNL     1      39.501  33.559  41.957  0.00  0.00    +0.000 Cl
ATOM     24  C   UNL     1      40.747  34.542  42.729  0.00  0.00    +0.000 A 
ATOM     25  C   UNL     1      40.853  34.443  44.094  0.00  0.00    +0.000 A 
ATOM     26  C   UNL     1      41.828  35.209  44.707  0.00  0.00    +0.000 A 
ATOM     27  H   UNL     1      41.980  35.192  45.778  0.00  0.00    +0.000 HD
ATOM     28  C   UNL     1      42.660  36.043  43.952  0.00  0.00    +0.000 A 
ATOM     29  H   UNL     1      43.438  36.666  44.365  0.00  0.00    +0.000 HD
ATOM     30  C   UNL     1      42.506  36.102  42.570  0.00  0.00    +0.000 A 
ATOM     31  C   UNL     1      41.527  35.336  41.927  0.00  0.00    +0.000 A 
ENDBRANCH   6  25
TORSDOF 2
