
 OpenBabel03272510333D

 28 30  0  0  0  0  0  0  0  0999 V2000
   37.4220   31.6210   46.4370 C   0  0  0  0  0  0  0  0  0  0  0  0
   37.7900   31.8970   45.1500 C   0  0  0  0  0  0  0  0  0  0  0  0
   37.2610   31.1940   44.0770 C   0  0  0  0  0  0  0  0  0  0  0  0
   36.3440   30.1950   44.3380 C   0  0  0  0  0  0  0  0  0  0  0  0
   35.9510   29.8920   45.6340 C   0  0  0  0  0  0  0  0  0  0  0  0
   36.5000   30.6160   46.6770 C   0  0  0  0  0  0  0  0  0  0  0  0
   38.5110   32.6820   44.9390 H   0  0  0  0  0  0  0  0  0  0  0  0
   37.5890   31.4550   43.0750 H   0  0  0  0  0  0  0  0  0  0  0  0
   35.9570   29.6710   43.4720 H   0  0  0  0  0  0  0  0  0  0  0  0
   35.2230   29.0930   45.7860 H   0  0  0  0  0  0  0  0  0  0  0  0
   37.7620   33.3390   49.6230 C   0  0  0  0  0  0  0  0  0  0  0  0
   39.0400   33.8940   49.5910 C   0  0  0  0  0  0  0  0  0  0  0  0
   39.8080   33.6590   48.4180 C   0  0  0  0  0  0  0  0  0  0  0  0
   39.2680   32.9200   47.4040 N   0  0  0  0  0  0  0  0  0  0  0  0
   38.0270   32.4090   47.4930 C   0  0  0  0  0  0  0  0  0  0  0  0
   37.2850   32.6260   48.6050 N   0  0  0  0  0  0  0  0  0  0  0  0
   37.2060   33.5360   50.5280 H   0  0  0  0  0  0  0  0  0  0  0  0
   39.4990   34.4740   50.3560 H   0  0  0  0  0  0  0  0  0  0  0  0
   40.8190   34.0330   48.2580 H   0  0  0  0  0  0  0  0  0  0  0  0
   38.7430   29.5790   48.2870 Cl  0  0  0  0  0  0  0  0  0  0  0  0
   37.0980   29.8250   48.8670 C   0  0  0  0  0  0  0  0  0  0  0  0
   36.1030   30.3150   48.0490 C   0  0  0  0  0  0  0  0  0  0  0  0
   34.8110   30.5000   48.5330 C   0  0  0  0  0  0  0  0  0  0  0  0
   34.0830   30.8840   47.8450 H   0  0  0  0  0  0  0  0  0  0  0  0
   34.5640   30.1790   49.8400 C   0  0  0  0  0  0  0  0  0  0  0  0
   33.5730   30.3110   50.2470 H   0  0  0  0  0  0  0  0  0  0  0  0
   35.5230   29.6940   50.6740 C   0  0  0  0  0  3  0  0  0  0  0  0
   36.8080   29.5130   50.1820 C   0  0  0  0  0  3  0  0  0  0  0  0
  1  6  1  0  0  0  0
  1 15  1  0  0  0  0
  2  1  2  0  0  0  0
  3  4  2  0  0  0  0
  3  2  1  0  0  0  0
  4  5  1  0  0  0  0
  5 10  1  0  0  0  0
  5  6  2  0  0  0  0
  6 22  1  0  0  0  0
  7  2  1  0  0  0  0
  8  3  1  0  0  0  0
  9  4  1  0  0  0  0
 11 17  1  0  0  0  0
 12 11  1  0  0  0  0
 12 18  1  0  0  0  0
 13 12  2  0  0  0  0
 14 15  2  0  0  0  0
 14 13  1  0  0  0  0
 15 16  1  0  0  0  0
 16 11  2  0  0  0  0
 19 13  1  0  0  0  0
 20 21  1  0  0  0  0
 21 28  1  0  0  0  0
 22 23  1  0  0  0  0
 22 21  2  0  0  0  0
 23 25  2  0  0  0  0
 24 23  1  0  0  0  0
 25 26  1  0  0  0  0
 25 27  1  0  0  0  0
 28 27  2  0  0  0  0
M  END
>  <minimizedAffinity>
-2.64197803

>  <minimizedRMSD>
3.18992901

$$$$
