
     RDKit          3D

 33 36  0  0  0  0  0  0  0  0999 V2000
   37.0435   30.7327   46.7758 C   0  0  0  0  0  0  0  0  0  0  0  0
   37.7014   31.1470   47.9259 C   0  0  0  0  0  0  0  0  0  0  0  0
   38.7214   32.0530   47.8296 C   0  0  0  0  0  0  0  0  0  0  0  0
   39.0705   32.5340   46.5788 C   0  0  0  0  0  0  0  0  0  0  0  0
   40.0375   33.4276   46.2400 N   0  0  0  0  0  0  0  0  0  0  0  0
   39.9992   33.5808   44.9102 C   0  0  0  0  0  0  0  0  0  0  0  0
   39.0394   32.8136   44.3918 N   0  0  0  0  0  0  0  0  0  0  0  0
   38.4384   32.1457   45.4042 C   0  0  0  0  0  0  0  0  0  0  0  0
   37.4081   31.2278   45.5212 C   0  0  0  0  0  0  0  0  0  0  0  0
   37.3736   30.1855   51.5454 C   0  0  0  0  0  0  0  0  0  0  0  0
   37.8766   30.7766   50.3823 C   0  0  0  0  0  0  0  0  0  0  0  0
   37.2412   30.5694   49.1727 C   0  0  0  0  0  0  0  0  0  0  0  0
   36.1401   29.7886   49.1699 N   0  0  0  0  0  0  0  0  0  0  0  0
   35.6583   29.2178   50.3069 C   0  0  0  0  0  0  0  0  0  0  0  0
   36.2620   29.4099   51.4801 N   0  0  0  0  0  0  0  0  0  0  0  0
   36.2297   30.0218   46.7678 H   0  0  0  0  0  0  0  0  0  0  0  0
   39.2310   32.3765   48.7016 H   0  0  0  0  0  0  0  0  0  0  0  0
   40.6950   33.9085   46.9131 H   0  0  0  0  0  0  0  0  0  0  0  0
   36.9038   30.9126   44.6234 H   0  0  0  0  0  0  0  0  0  0  0  0
   37.8659   30.3404   52.5109 H   0  0  0  0  0  0  0  0  0  0  0  0
   38.7622   31.3959   50.4279 H   0  0  0  0  0  0  0  0  0  0  0  0
   34.7684   28.6141   50.1686 H   0  0  0  0  0  0  0  0  0  0  0  0
   39.5009   33.5593   41.9574 Cl  0  0  0  0  0  0  0  0  0  0  0  0
   40.7474   34.5417   42.7288 C   0  0  0  0  0  0  0  0  0  0  0  0
   40.8534   34.4427   44.0937 C   0  0  0  0  0  0  0  0  0  0  0  0
   41.8282   35.2093   44.7072 C   0  0  0  0  0  0  0  0  0  0  0  0
   41.9800   35.1918   45.7781 H   0  0  0  0  0  0  0  0  0  0  0  0
   42.6596   36.0428   43.9517 C   0  0  0  0  0  0  0  0  0  0  0  0
   43.4381   36.6659   44.3651 H   0  0  0  0  0  0  0  0  0  0  0  0
   42.5056   36.1020   42.5704 C   0  0  0  0  0  0  0  0  0  0  0  0
   41.5271   35.3364   41.9270 C   0  0  0  0  0  0  0  0  0  0  0  0
   43.1028   36.7172   41.9106 H   0  0  0  0  0  0  0  0  0  0  0  0
   41.3874   35.3667   40.8402 H   0  0  0  0  0  0  0  0  0  0  0  0
  1  2  2  0
  2 12  1  0
  3  2  1  0
  4  3  2  0
  5  4  1  0
  6  5  1  0
  7  6  2  0
  7  8  1  0
  8  9  2  0
  8  4  1  0
  9  1  1  0
 11 10  2  0
 12 11  1  0
 13 12  2  0
 13 14  1  0
 14 15  2  0
 15 10  1  0
  1 16  1  0
  3 17  1  0
  5 18  1  0
  9 19  1  0
 10 20  1  0
 11 21  1  0
 14 22  1  0
 23 24  1  0
 24 25  2  0
 25 26  1  0
 26 27  1  0
 26 28  2  0
 28 29  1  0
 28 30  1  0
 30 31  2  0
 31 24  1  0
 30 32  1  0
 31 33  1  0
  6 25  1  0
M  ISO  8  16  14  17  14  18   9  19  14  20  14  21  14  22  14  27  15
M  ISO  1  29  16
M  END
>  <DihAtoms>  (1) 
4,5,24,23

>  <DihDeg>  (1) 
-179.99949890727862

$$$$
