
 OpenBabel03272502433D

 28 30  0  0  0  0  0  0  0  0999 V2000
   36.5740   29.3990   31.5740 C   0  0  0  0  0  0  0  0  0  0  0  0
   35.9260   30.2110   32.5300 C   0  0  0  0  0  0  0  0  0  0  0  0
   35.7640   29.6800   33.8150 C   0  0  0  0  0  0  0  0  0  0  0  0
   36.2340   28.4340   34.0560 N   0  0  0  0  0  0  0  0  0  0  0  0
   36.8480   27.6850   33.1180 C   0  0  0  0  0  0  0  0  0  0  0  0
   37.0220   28.1690   31.8670 N   0  0  0  0  0  0  0  0  0  0  0  0
   36.6800   29.8540   30.5830 H   0  0  0  0  0  0  0  0  0  0  0  0
   35.5810   31.1790   32.2780 H   0  0  0  0  0  0  0  0  0  0  0  0
   38.4510   27.5480   35.6040 Cl  0  0  0  0  0  0  0  0  0  0  0  0
   38.0750   26.1780   34.6050 C   0  0  0  0  0  0  0  0  0  0  0  0
   37.3220   26.3560   33.4690 C   0  0  0  0  0  0  0  0  0  0  0  0
   37.0010   25.2930   32.6470 C   0  0  0  0  0  0  0  0  0  0  0  0
   37.4320   24.0120   32.9480 C   0  0  0  0  0  0  0  0  0  0  0  0
   38.1860   23.8050   34.0770 C   0  0  0  0  0  0  0  0  0  0  0  0
   38.8200   22.2530   34.6210 Cl  0  0  0  0  0  0  0  0  0  0  0  0
   38.4930   24.8950   34.8860 C   0  0  0  0  0  0  0  0  0  0  0  0
   36.4130   25.3990   31.7500 H   0  0  0  0  0  0  0  0  0  0  0  0
   37.2200   23.1480   32.3570 H   0  0  0  0  0  0  0  0  0  0  0  0
   39.0870   24.7900   35.7940 H   0  0  0  0  0  0  0  0  0  0  0  0
   32.8560   29.2700   33.9540 Cl  0  0  0  0  0  0  0  0  0  0  0  0
   33.7470   30.3250   35.0340 C   0  0  0  0  0  0  0  0  0  0  0  0
   35.1100   30.4370   34.8720 C   0  0  0  0  0  0  0  0  0  0  0  0
   35.7500   31.2730   35.7430 C   0  0  0  0  0  0  0  0  0  0  0  0
   36.8100   31.4030   35.6700 H   0  0  0  0  0  0  0  0  0  0  0  0
   35.0850   31.9730   36.7350 C   0  0  0  0  0  0  0  0  0  0  0  0
   35.6500   32.6260   37.3990 H   0  0  0  0  0  0  0  0  0  0  0  0
   33.7200   31.8480   36.8810 C   0  0  0  0  0  3  0  0  0  0  0  0
   33.0570   31.0100   36.0130 C   0  0  0  0  0  3  0  0  0  0  0  0
  1  6  2  0  0  0  0
  1  2  1  0  0  0  0
  2  3  2  0  0  0  0
  3  4  1  0  0  0  0
  3 22  1  0  0  0  0
  5 11  1  0  0  0  0
  5  4  2  0  0  0  0
  6  5  1  0  0  0  0
  7  1  1  0  0  0  0
  8  2  1  0  0  0  0
 10 16  1  0  0  0  0
 10  9  1  0  0  0  0
 11 10  2  0  0  0  0
 12 13  2  0  0  0  0
 12 11  1  0  0  0  0
 13 14  1  0  0  0  0
 14 15  1  0  0  0  0
 14 16  2  0  0  0  0
 16 19  1  0  0  0  0
 17 12  1  0  0  0  0
 18 13  1  0  0  0  0
 20 21  1  0  0  0  0
 21 28  1  0  0  0  0
 22 21  2  0  0  0  0
 22 23  1  0  0  0  0
 23 25  2  0  0  0  0
 24 23  1  0  0  0  0
 25 27  1  0  0  0  0
 25 26  1  0  0  0  0
 28 27  2  0  0  0  0
M  END
>  <minimizedAffinity>
-5.78096676

$$$$

 OpenBabel03272502433D

 28 30  0  0  0  0  0  0  0  0999 V2000
   36.2550   30.1300   30.8020 C   0  0  0  0  0  0  0  0  0  0  0  0
   35.8150   30.7860   31.9730 C   0  0  0  0  0  0  0  0  0  0  0  0
   35.5040   29.9830   33.0760 C   0  0  0  0  0  0  0  0  0  0  0  0
   35.6430   28.6430   32.9520 N   0  0  0  0  0  0  0  0  0  0  0  0
   36.0660   28.0490   31.8180 C   0  0  0  0  0  0  0  0  0  0  0  0
   36.3750   28.7950   30.7330 N   0  0  0  0  0  0  0  0  0  0  0  0
   36.4880   30.7960   29.9640 H   0  0  0  0  0  0  0  0  0  0  0  0
   35.7280   31.8400   32.0050 H   0  0  0  0  0  0  0  0  0  0  0  0
   38.4950   26.9610   33.1150 Cl  0  0  0  0  0  0  0  0  0  0  0  0
   37.2740   25.9890   32.3510 C   0  0  0  0  0  0  0  0  0  0  0  0
   36.1850   26.6010   31.7780 C   0  0  0  0  0  0  0  0  0  0  0  0
   35.1930   25.8640   31.1590 C   0  0  0  0  0  0  0  0  0  0  0  0
   35.2700   24.4830   31.1010 C   0  0  0  0  0  0  0  0  0  0  0  0
   36.3470   23.8460   31.6660 C   0  0  0  0  0  0  0  0  0  0  0  0
   36.6160   22.1040   31.6920 Cl  0  0  0  0  0  0  0  0  0  0  0  0
   37.3320   24.6140   32.2820 C   0  0  0  0  0  0  0  0  0  0  0  0
   34.3260   26.3120   30.7010 H   0  0  0  0  0  0  0  0  0  0  0  0
   34.5390   23.8560   30.6400 H   0  0  0  0  0  0  0  0  0  0  0  0
   38.2080   24.1630   32.7470 H   0  0  0  0  0  0  0  0  0  0  0  0
   32.6280   29.6220   33.5720 Cl  0  0  0  0  0  0  0  0  0  0  0  0
   33.7120   30.4550   34.6690 C   0  0  0  0  0  0  0  0  0  0  0  0
   35.0420   30.5620   34.3290 C   0  0  0  0  0  0  0  0  0  0  0  0
   35.8380   31.2220   35.2240 C   0  0  0  0  0  0  0  0  0  0  0  0
   36.8810   31.3390   35.0170 H   0  0  0  0  0  0  0  0  0  0  0  0
   35.3540   31.7560   36.4050 C   0  0  0  0  0  0  0  0  0  0  0  0
   36.0370   32.2720   37.0780 H   0  0  0  0  0  0  0  0  0  0  0  0
   34.0180   31.6390   36.7280 C   0  0  0  0  0  3  0  0  0  0  0  0
   33.2010   30.9780   35.8390 C   0  0  0  0  0  3  0  0  0  0  0  0
  1  2  1  0  0  0  0
  2  8  1  0  0  0  0
  2  3  2  0  0  0  0
  3 22  1  0  0  0  0
  4  3  1  0  0  0  0
  5  4  2  0  0  0  0
  6  1  2  0  0  0  0
  6  5  1  0  0  0  0
  7  1  1  0  0  0  0
 10  9  1  0  0  0  0
 11  5  1  0  0  0  0
 11 10  2  0  0  0  0
 12 11  1  0  0  0  0
 13 12  2  0  0  0  0
 13 14  1  0  0  0  0
 14 15  1  0  0  0  0
 14 16  2  0  0  0  0
 16 10  1  0  0  0  0
 16 19  1  0  0  0  0
 17 12  1  0  0  0  0
 18 13  1  0  0  0  0
 20 21  1  0  0  0  0
 21 28  1  0  0  0  0
 22 21  2  0  0  0  0
 22 23  1  0  0  0  0
 23 25  2  0  0  0  0
 24 23  1  0  0  0  0
 25 27  1  0  0  0  0
 25 26  1  0  0  0  0
 28 27  2  0  0  0  0
M  END
>  <minimizedAffinity>
-5.75700426

$$$$

 OpenBabel03272502433D

 28 30  0  0  0  0  0  0  0  0999 V2000
   36.0010   29.6730   31.8910 C   0  0  0  0  0  0  0  0  0  0  0  0
   35.1010   30.2700   32.8010 C   0  0  0  0  0  0  0  0  0  0  0  0
   35.0530   29.7380   34.0940 C   0  0  0  0  0  0  0  0  0  0  0  0
   35.8640   28.6960   34.3880 N   0  0  0  0  0  0  0  0  0  0  0  0
   36.7130   28.1490   33.4940 C   0  0  0  0  0  0  0  0  0  0  0  0
   36.7840   28.6400   32.2360 N   0  0  0  0  0  0  0  0  0  0  0  0
   36.0070   30.1210   30.8910 H   0  0  0  0  0  0  0  0  0  0  0  0
   34.4930   31.0850   32.5080 H   0  0  0  0  0  0  0  0  0  0  0  0
   36.1690   25.6070   32.0770 Cl  0  0  0  0  0  0  0  0  0  0  0  0
   37.3800   25.8030   33.3060 C   0  0  0  0  0  0  0  0  0  0  0  0
   37.5470   27.0300   33.9010 C   0  0  0  0  0  0  0  0  0  0  0  0
   38.4990   27.2270   34.8830 C   0  0  0  0  0  0  0  0  0  0  0  0
   39.3130   26.1870   35.2960 C   0  0  0  0  0  0  0  0  0  0  0  0
   39.1680   24.9500   34.7190 C   0  0  0  0  0  0  0  0  0  0  0  0
   40.1110   23.5130   35.1120 Cl  0  0  0  0  0  0  0  0  0  0  0  0
   38.2010   24.7810   33.7320 C   0  0  0  0  0  0  0  0  0  0  0  0
   38.6550   28.1760   35.3690 H   0  0  0  0  0  0  0  0  0  0  0  0
   40.0670   26.2720   36.0490 H   0  0  0  0  0  0  0  0  0  0  0  0
   38.0420   23.8220   33.2390 H   0  0  0  0  0  0  0  0  0  0  0  0
   36.2830   31.8020   35.7890 Cl  0  0  0  0  0  0  0  0  0  0  0  0
   34.6250   31.2580   35.9600 C   0  0  0  0  0  0  0  0  0  0  0  0
   34.1590   30.2830   35.1050 C   0  0  0  0  0  0  0  0  0  0  0  0
   32.8590   29.9000   35.2860 C   0  0  0  0  0  0  0  0  0  0  0  0
   32.4380   29.1460   34.6550 H   0  0  0  0  0  0  0  0  0  0  0  0
   32.0450   30.4480   36.2630 C   0  0  0  0  0  0  0  0  0  0  0  0
   31.0180   30.1000   36.3590 H   0  0  0  0  0  0  0  0  0  0  0  0
   32.5310   31.4220   37.1080 C   0  0  0  0  0  3  0  0  0  0  0  0
   33.8380   31.8220   36.9420 C   0  0  0  0  0  3  0  0  0  0  0  0
  1  6  2  0  0  0  0
  1  2  1  0  0  0  0
  2  3  2  0  0  0  0
  3  4  1  0  0  0  0
  3 22  1  0  0  0  0
  5 11  1  0  0  0  0
  5  4  2  0  0  0  0
  6  5  1  0  0  0  0
  7  1  1  0  0  0  0
  8  2  1  0  0  0  0
  9 10  1  0  0  0  0
 10 16  2  0  0  0  0
 10 11  1  0  0  0  0
 11 12  2  0  0  0  0
 12 13  1  0  0  0  0
 12 17  1  0  0  0  0
 13 18  1  0  0  0  0
 14 15  1  0  0  0  0
 14 13  2  0  0  0  0
 16 14  1  0  0  0  0
 19 16  1  0  0  0  0
 20 21  1  0  0  0  0
 21 28  1  0  0  0  0
 22 23  1  0  0  0  0
 22 21  2  0  0  0  0
 23 25  2  0  0  0  0
 24 23  1  0  0  0  0
 25 26  1  0  0  0  0
 25 27  1  0  0  0  0
 28 27  2  0  0  0  0
M  END
>  <minimizedAffinity>
-5.67926645

$$$$

 OpenBabel03272502433D

 28 30  0  0  0  0  0  0  0  0999 V2000
   36.5080   29.6980   30.6120 C   0  0  0  0  0  0  0  0  0  0  0  0
   36.6380   28.2930   30.5610 C   0  0  0  0  0  0  0  0  0  0  0  0
   36.2120   27.5700   31.6800 C   0  0  0  0  0  0  0  0  0  0  0  0
   35.7060   28.2570   32.7310 N   0  0  0  0  0  0  0  0  0  0  0  0
   35.5960   29.6010   32.7470 C   0  0  0  0  0  0  0  0  0  0  0  0
   35.9980   30.3290   31.6810 N   0  0  0  0  0  0  0  0  0  0  0  0
   36.8530   30.2230   29.7150 H   0  0  0  0  0  0  0  0  0  0  0  0
   37.0430   27.8150   29.7070 H   0  0  0  0  0  0  0  0  0  0  0  0
   32.6390   29.7510   32.8060 Cl  0  0  0  0  0  0  0  0  0  0  0  0
   33.6760   30.3770   34.0510 C   0  0  0  0  0  0  0  0  0  0  0  0
   35.0390   30.2530   33.9210 C   0  0  0  0  0  0  0  0  0  0  0  0
   35.8990   30.7380   34.8880 C   0  0  0  0  0  0  0  0  0  0  0  0
   35.4070   31.3640   36.0200 C   0  0  0  0  0  0  0  0  0  0  0  0
   34.0500   31.5010   36.1770 C   0  0  0  0  0  0  0  0  0  0  0  0
   33.2420   32.2650   37.5450 Cl  0  0  0  0  0  0  0  0  0  0  0  0
   33.2080   31.0030   35.1850 C   0  0  0  0  0  0  0  0  0  0  0  0
   36.9710   30.6570   34.8160 H   0  0  0  0  0  0  0  0  0  0  0  0
   36.0150   31.7600   36.8040 H   0  0  0  0  0  0  0  0  0  0  0  0
   32.1240   31.0840   35.2570 H   0  0  0  0  0  0  0  0  0  0  0  0
   38.5770   26.5670   33.1100 Cl  0  0  0  0  0  0  0  0  0  0  0  0
   37.3700   25.5320   32.3700 C   0  0  0  0  0  0  0  0  0  0  0  0
   36.3030   26.1180   31.7260 C   0  0  0  0  0  0  0  0  0  0  0  0
   35.3950   25.2610   31.1700 C   0  0  0  0  0  0  0  0  0  0  0  0
   34.5430   25.6540   30.6550 H   0  0  0  0  0  0  0  0  0  0  0  0
   35.5240   23.8840   31.2400 C   0  0  0  0  0  0  0  0  0  0  0  0
   34.7680   23.2530   30.7750 H   0  0  0  0  0  0  0  0  0  0  0  0
   36.6000   23.3170   31.8880 C   0  0  0  0  0  3  0  0  0  0  0  0
   37.5250   24.1640   32.4560 C   0  0  0  0  0  3  0  0  0  0  0  0
  1  6  1  0  0  0  0
  2  1  2  0  0  0  0
  2  3  1  0  0  0  0
  3 22  1  0  0  0  0
  3  4  2  0  0  0  0
  4  5  1  0  0  0  0
  5 11  1  0  0  0  0
  6  5  2  0  0  0  0
  7  1  1  0  0  0  0
  8  2  1  0  0  0  0
  9 10  1  0  0  0  0
 10 16  1  0  0  0  0
 11 10  2  0  0  0  0
 11 12  1  0  0  0  0
 12 13  2  0  0  0  0
 13 14  1  0  0  0  0
 13 18  1  0  0  0  0
 14 15  1  0  0  0  0
 16 19  1  0  0  0  0
 16 14  2  0  0  0  0
 17 12  1  0  0  0  0
 21 28  1  0  0  0  0
 21 20  1  0  0  0  0
 22 21  2  0  0  0  0
 23 25  2  0  0  0  0
 23 22  1  0  0  0  0
 24 23  1  0  0  0  0
 25 27  1  0  0  0  0
 26 25  1  0  0  0  0
 27 28  2  0  0  0  0
M  END
>  <minimizedAffinity>
-5.54014587

$$$$

 OpenBabel03272502433D

 28 30  0  0  0  0  0  0  0  0999 V2000
   36.2110   30.8620   31.8100 C   0  0  0  0  0  0  0  0  0  0  0  0
   35.4160   31.3270   32.8810 C   0  0  0  0  0  0  0  0  0  0  0  0
   34.9010   30.3660   33.7580 C   0  0  0  0  0  0  0  0  0  0  0  0
   35.1950   29.0650   33.5270 N   0  0  0  0  0  0  0  0  0  0  0  0
   35.9580   28.6560   32.4940 C   0  0  0  0  0  0  0  0  0  0  0  0
   36.4720   29.5590   31.6280 N   0  0  0  0  0  0  0  0  0  0  0  0
   36.5940   31.6470   31.1490 H   0  0  0  0  0  0  0  0  0  0  0  0
   35.2230   32.3600   33.0070 H   0  0  0  0  0  0  0  0  0  0  0  0
   37.8610   27.4990   34.4450 Cl  0  0  0  0  0  0  0  0  0  0  0  0
   37.0890   26.5970   33.1780 C   0  0  0  0  0  0  0  0  0  0  0  0
   36.2210   27.2360   32.3250 C   0  0  0  0  0  0  0  0  0  0  0  0
   35.5880   26.5550   31.3030 C   0  0  0  0  0  0  0  0  0  0  0  0
   35.8120   25.2020   31.1110 C   0  0  0  0  0  0  0  0  0  0  0  0
   36.6740   24.5380   31.9480 C   0  0  0  0  0  0  0  0  0  0  0  0
   37.0800   22.8250   31.8600 Cl  0  0  0  0  0  0  0  0  0  0  0  0
   37.2980   25.2510   32.9690 C   0  0  0  0  0  0  0  0  0  0  0  0
   34.9020   27.0260   30.6180 H   0  0  0  0  0  0  0  0  0  0  0  0
   35.3550   24.6180   30.3420 H   0  0  0  0  0  0  0  0  0  0  0  0
   37.9910   24.7760   33.6620 H   0  0  0  0  0  0  0  0  0  0  0  0
   36.3610   31.7530   35.9000 Cl  0  0  0  0  0  0  0  0  0  0  0  0
   34.6450   31.3990   35.9580 C   0  0  0  0  0  0  0  0  0  0  0  0
   34.0700   30.7420   34.8920 C   0  0  0  0  0  0  0  0  0  0  0  0
   32.7300   30.4940   34.9950 C   0  0  0  0  0  0  0  0  0  0  0  0
   32.2240   29.9870   34.2000 H   0  0  0  0  0  0  0  0  0  0  0  0
   31.9790   30.8720   36.0950 C   0  0  0  0  0  0  0  0  0  0  0  0
   30.9150   30.6450   36.1190 H   0  0  0  0  0  0  0  0  0  0  0  0
   32.5740   31.5280   37.1520 C   0  0  0  0  0  3  0  0  0  0  0  0
   33.9230   31.7880   37.0670 C   0  0  0  0  0  3  0  0  0  0  0  0
  1  2  1  0  0  0  0
  2  8  1  0  0  0  0
  2  3  2  0  0  0  0
  3 22  1  0  0  0  0
  4  3  1  0  0  0  0
  5  4  2  0  0  0  0
  6  1  2  0  0  0  0
  6  5  1  0  0  0  0
  7  1  1  0  0  0  0
 10  9  1  0  0  0  0
 11  5  1  0  0  0  0
 11 10  2  0  0  0  0
 12 11  1  0  0  0  0
 13 12  2  0  0  0  0
 13 14  1  0  0  0  0
 14 16  2  0  0  0  0
 15 14  1  0  0  0  0
 16 10  1  0  0  0  0
 16 19  1  0  0  0  0
 17 12  1  0  0  0  0
 18 13  1  0  0  0  0
 20 21  1  0  0  0  0
 21 28  1  0  0  0  0
 22 23  1  0  0  0  0
 22 21  2  0  0  0  0
 23 25  2  0  0  0  0
 24 23  1  0  0  0  0
 25 26  1  0  0  0  0
 25 27  1  0  0  0  0
 28 27  2  0  0  0  0
M  END
>  <minimizedAffinity>
-5.53485155

$$$$

 OpenBabel03272502433D

 28 30  0  0  0  0  0  0  0  0999 V2000
   39.5700   25.9620   32.0330 C   0  0  0  0  0  0  0  0  0  0  0  0
   38.8580   27.1370   32.3580 C   0  0  0  0  0  0  0  0  0  0  0  0
   37.5100   26.9930   32.7020 C   0  0  0  0  0  0  0  0  0  0  0  0
   36.9780   25.7490   32.7000 N   0  0  0  0  0  0  0  0  0  0  0  0
   37.6880   24.6460   32.3840 C   0  0  0  0  0  0  0  0  0  0  0  0
   38.9940   24.7510   32.0490 N   0  0  0  0  0  0  0  0  0  0  0  0
   40.6220   26.1210   31.7710 H   0  0  0  0  0  0  0  0  0  0  0  0
   39.3330   28.0830   32.3410 H   0  0  0  0  0  0  0  0  0  0  0  0
   35.2570   24.4420   30.7070 Cl  0  0  0  0  0  0  0  0  0  0  0  0
   35.8950   23.1440   31.6670 C   0  0  0  0  0  0  0  0  0  0  0  0
   37.0320   23.3490   32.4110 C   0  0  0  0  0  0  0  0  0  0  0  0
   37.5720   22.3420   33.1890 C   0  0  0  0  0  0  0  0  0  0  0  0
   36.9770   21.0930   33.2390 C   0  0  0  0  0  0  0  0  0  0  0  0
   35.8400   20.8600   32.5060 C   0  0  0  0  0  0  0  0  0  0  0  0
   34.9490   19.3410   32.4440 Cl  0  0  0  0  0  0  0  0  0  0  0  0
   35.3190   21.8930   31.7320 C   0  0  0  0  0  0  0  0  0  0  0  0
   38.4620   22.4710   33.7830 H   0  0  0  0  0  0  0  0  0  0  0  0
   37.3420   20.2730   33.8190 H   0  0  0  0  0  0  0  0  0  0  0  0
   34.4200   21.7650   31.1300 H   0  0  0  0  0  0  0  0  0  0  0  0
   36.4890   28.4860   30.3840 Cl  0  0  0  0  0  0  0  0  0  0  0  0
   36.1550   28.9200   32.0490 C   0  0  0  0  0  0  0  0  0  0  0  0
   36.6890   28.1430   33.0530 C   0  0  0  0  0  0  0  0  0  0  0  0
   36.3940   28.5290   34.3300 C   0  0  0  0  0  0  0  0  0  0  0  0
   36.7790   27.9670   35.1550 H   0  0  0  0  0  0  0  0  0  0  0  0
   35.6070   29.6320   34.6170 C   0  0  0  0  0  0  0  0  0  0  0  0
   35.4080   29.8910   35.6560 H   0  0  0  0  0  0  0  0  0  0  0  0
   35.0820   30.3970   33.5970 C   0  0  0  0  0  3  0  0  0  0  0  0
   35.3670   30.0230   32.3040 C   0  0  0  0  0  3  0  0  0  0  0  0
  1  6  2  0  0  0  0
  1  2  1  0  0  0  0
  2  3  2  0  0  0  0
  3 22  1  0  0  0  0
  4  3  1  0  0  0  0
  5 11  1  0  0  0  0
  5  4  2  0  0  0  0
  6  5  1  0  0  0  0
  7  1  1  0  0  0  0
  8  2  1  0  0  0  0
  9 10  1  0  0  0  0
 10 16  2  0  0  0  0
 10 11  1  0  0  0  0
 11 12  2  0  0  0  0
 12 13  1  0  0  0  0
 12 17  1  0  0  0  0
 13 18  1  0  0  0  0
 14 13  2  0  0  0  0
 15 14  1  0  0  0  0
 16 14  1  0  0  0  0
 19 16  1  0  0  0  0
 20 21  1  0  0  0  0
 21 28  2  0  0  0  0
 21 22  1  0  0  0  0
 22 23  2  0  0  0  0
 23 25  1  0  0  0  0
 23 24  1  0  0  0  0
 25 26  1  0  0  0  0
 27 25  2  0  0  0  0
 28 27  1  0  0  0  0
M  END
>  <minimizedAffinity>
-5.37368393

$$$$

 OpenBabel03272502433D

 28 30  0  0  0  0  0  0  0  0999 V2000
   35.7800   29.8250   31.9240 C   0  0  0  0  0  0  0  0  0  0  0  0
   34.6920   30.3230   32.6740 C   0  0  0  0  0  0  0  0  0  0  0  0
   34.4820   29.7680   33.9420 C   0  0  0  0  0  0  0  0  0  0  0  0
   35.3270   28.7990   34.3640 N   0  0  0  0  0  0  0  0  0  0  0  0
   36.3570   28.3460   33.6210 C   0  0  0  0  0  0  0  0  0  0  0  0
   36.5880   28.8620   32.3920 N   0  0  0  0  0  0  0  0  0  0  0  0
   35.9070   30.2880   30.9390 H   0  0  0  0  0  0  0  0  0  0  0  0
   34.0670   31.0840   32.2860 H   0  0  0  0  0  0  0  0  0  0  0  0
   36.3060   25.7960   32.1180 Cl  0  0  0  0  0  0  0  0  0  0  0  0
   37.2670   26.0770   33.5370 C   0  0  0  0  0  0  0  0  0  0  0  0
   37.2140   27.3020   34.1580 C   0  0  0  0  0  0  0  0  0  0  0  0
   37.9620   27.5650   35.2890 C   0  0  0  0  0  0  0  0  0  0  0  0
   38.7900   26.5960   35.8300 C   0  0  0  0  0  0  0  0  0  0  0  0
   38.8640   25.3640   35.2290 C   0  0  0  0  0  0  0  0  0  0  0  0
   39.8590   24.0130   35.7700 Cl  0  0  0  0  0  0  0  0  0  0  0  0
   38.0980   25.1270   34.0910 C   0  0  0  0  0  0  0  0  0  0  0  0
   37.9430   28.5140   35.8000 H   0  0  0  0  0  0  0  0  0  0  0  0
   39.3940   26.7350   36.7000 H   0  0  0  0  0  0  0  0  0  0  0  0
   38.1170   24.1680   33.5730 H   0  0  0  0  0  0  0  0  0  0  0  0
   31.8540   28.7010   33.1660 Cl  0  0  0  0  0  0  0  0  0  0  0  0
   32.1090   29.7770   34.5260 C   0  0  0  0  0  0  0  0  0  0  0  0
   33.3890   30.2130   34.7930 C   0  0  0  0  0  0  0  0  0  0  0  0
   33.5250   31.0490   35.8660 C   0  0  0  0  0  0  0  0  0  0  0  0
   34.4940   31.4230   36.1250 H   0  0  0  0  0  0  0  0  0  0  0  0
   32.4540   31.4450   36.6480 C   0  0  0  0  0  0  0  0  0  0  0  0
   32.6260   32.1140   37.4900 H   0  0  0  0  0  0  0  0  0  0  0  0
   31.1810   30.9980   36.3650 C   0  0  0  0  0  3  0  0  0  0  0  0
   31.0230   30.1540   35.2890 C   0  0  0  0  0  3  0  0  0  0  0  0
  1  6  2  0  0  0  0
  1  2  1  0  0  0  0
  2  3  2  0  0  0  0
  3  4  1  0  0  0  0
  3 22  1  0  0  0  0
  5 11  1  0  0  0  0
  5  4  2  0  0  0  0
  6  5  1  0  0  0  0
  7  1  1  0  0  0  0
  8  2  1  0  0  0  0
  9 10  1  0  0  0  0
 10 16  2  0  0  0  0
 10 11  1  0  0  0  0
 11 12  2  0  0  0  0
 12 17  1  0  0  0  0
 12 13  1  0  0  0  0
 13 18  1  0  0  0  0
 14 15  1  0  0  0  0
 14 13  2  0  0  0  0
 16 14  1  0  0  0  0
 19 16  1  0  0  0  0
 20 21  1  0  0  0  0
 21 22  2  0  0  0  0
 21 28  1  0  0  0  0
 22 23  1  0  0  0  0
 23 24  1  0  0  0  0
 23 25  2  0  0  0  0
 25 26  1  0  0  0  0
 27 25  1  0  0  0  0
 28 27  2  0  0  0  0
M  END
>  <minimizedAffinity>
-5.37191725

$$$$

 OpenBabel03272502433D

 28 30  0  0  0  0  0  0  0  0999 V2000
   39.2610   25.8340   31.4000 C   0  0  0  0  0  0  0  0  0  0  0  0
   38.5340   26.9840   31.7780 C   0  0  0  0  0  0  0  0  0  0  0  0
   37.2570   26.7860   32.3150 C   0  0  0  0  0  0  0  0  0  0  0  0
   36.8040   25.5160   32.4370 N   0  0  0  0  0  0  0  0  0  0  0  0
   37.5250   24.4390   32.0660 C   0  0  0  0  0  0  0  0  0  0  0  0
   38.7630   24.5960   31.5440 N   0  0  0  0  0  0  0  0  0  0  0  0
   40.2550   26.0350   30.9860 H   0  0  0  0  0  0  0  0  0  0  0  0
   38.9460   27.9520   31.6570 H   0  0  0  0  0  0  0  0  0  0  0  0
   38.3000   23.0600   34.5690 Cl  0  0  0  0  0  0  0  0  0  0  0  0
   37.2500   22.3830   33.3620 C   0  0  0  0  0  0  0  0  0  0  0  0
   36.9570   23.1120   32.2350 C   0  0  0  0  0  0  0  0  0  0  0  0
   36.1260   22.6090   31.2520 C   0  0  0  0  0  0  0  0  0  0  0  0
   35.5650   21.3500   31.3770 C   0  0  0  0  0  0  0  0  0  0  0  0
   35.8400   20.5990   32.4930 C   0  0  0  0  0  0  0  0  0  0  0  0
   35.2190   18.9840   32.8270 Cl  0  0  0  0  0  0  0  0  0  0  0  0
   36.6810   21.1320   33.4680 C   0  0  0  0  0  0  0  0  0  0  0  0
   35.8770   23.1550   30.3570 H   0  0  0  0  0  0  0  0  0  0  0  0
   34.9160   20.9030   30.6550 H   0  0  0  0  0  0  0  0  0  0  0  0
   36.9330   20.5820   34.3730 H   0  0  0  0  0  0  0  0  0  0  0  0
   37.5050   27.4520   35.1680 Cl  0  0  0  0  0  0  0  0  0  0  0  0
   36.4610   28.3100   34.0510 C   0  0  0  0  0  0  0  0  0  0  0  0
   36.4280   27.9060   32.7350 C   0  0  0  0  0  0  0  0  0  0  0  0
   35.5960   28.6130   31.9120 C   0  0  0  0  0  0  0  0  0  0  0  0
   35.5260   28.3480   30.8780 H   0  0  0  0  0  0  0  0  0  0  0  0
   34.8260   29.6740   32.3570 C   0  0  0  0  0  0  0  0  0  0  0  0
   34.1810   30.1980   31.6530 H   0  0  0  0  0  0  0  0  0  0  0  0
   34.8720   30.0620   33.6790 C   0  0  0  0  0  3  0  0  0  0  0  0
   35.7050   29.3630   34.5230 C   0  0  0  0  0  3  0  0  0  0  0  0
  1  6  2  0  0  0  0
  1  2  1  0  0  0  0
  2  3  2  0  0  0  0
  3  4  1  0  0  0  0
  3 22  1  0  0  0  0
  5 11  1  0  0  0  0
  5  4  2  0  0  0  0
  6  5  1  0  0  0  0
  7  1  1  0  0  0  0
  8  2  1  0  0  0  0
 10 16  1  0  0  0  0
 10  9  1  0  0  0  0
 11 10  2  0  0  0  0
 12 13  2  0  0  0  0
 12 11  1  0  0  0  0
 13 14  1  0  0  0  0
 14 15  1  0  0  0  0
 14 16  2  0  0  0  0
 16 19  1  0  0  0  0
 17 12  1  0  0  0  0
 18 13  1  0  0  0  0
 21 28  1  0  0  0  0
 21 20  1  0  0  0  0
 22 21  2  0  0  0  0
 23 25  2  0  0  0  0
 23 22  1  0  0  0  0
 24 23  1  0  0  0  0
 25 27  1  0  0  0  0
 26 25  1  0  0  0  0
 27 28  2  0  0  0  0
M  END
>  <minimizedAffinity>
-5.37068176

$$$$

 OpenBabel03272502433D

 28 30  0  0  0  0  0  0  0  0999 V2000
   39.0480   24.7860   31.0830 C   0  0  0  0  0  0  0  0  0  0  0  0
   38.4180   23.5340   31.2580 C   0  0  0  0  0  0  0  0  0  0  0  0
   37.2130   23.5170   31.9670 C   0  0  0  0  0  0  0  0  0  0  0  0
   36.7300   24.6920   32.4360 N   0  0  0  0  0  0  0  0  0  0  0  0
   37.3570   25.8710   32.2520 C   0  0  0  0  0  0  0  0  0  0  0  0
   38.5250   25.9220   31.5700 N   0  0  0  0  0  0  0  0  0  0  0  0
   39.9880   24.7520   30.5220 H   0  0  0  0  0  0  0  0  0  0  0  0
   38.8480   22.6500   30.8650 H   0  0  0  0  0  0  0  0  0  0  0  0
   37.9360   26.3760   35.1110 Cl  0  0  0  0  0  0  0  0  0  0  0  0
   36.9690   27.4140   34.1100 C   0  0  0  0  0  0  0  0  0  0  0  0
   36.7640   27.0820   32.7920 C   0  0  0  0  0  0  0  0  0  0  0  0
   36.0000   27.8810   31.9620 C   0  0  0  0  0  0  0  0  0  0  0  0
   35.4180   29.0440   32.4400 C   0  0  0  0  0  0  0  0  0  0  0  0
   35.6070   29.4000   33.7520 C   0  0  0  0  0  0  0  0  0  0  0  0
   34.9510   30.8370   34.5340 Cl  0  0  0  0  0  0  0  0  0  0  0  0
   36.3820   28.5750   34.5650 C   0  0  0  0  0  0  0  0  0  0  0  0
   35.8200   27.6500   30.9250 H   0  0  0  0  0  0  0  0  0  0  0  0
   34.8180   29.7040   31.8530 H   0  0  0  0  0  0  0  0  0  0  0  0
   36.5650   28.8080   35.6130 H   0  0  0  0  0  0  0  0  0  0  0  0
   37.7620   22.2840   34.5790 Cl  0  0  0  0  0  0  0  0  0  0  0  0
   36.6630   21.6090   33.3920 C   0  0  0  0  0  0  0  0  0  0  0  0
   36.4860   22.2780   32.2010 C   0  0  0  0  0  0  0  0  0  0  0  0
   35.6180   21.7040   31.3150 C   0  0  0  0  0  0  0  0  0  0  0  0
   35.4370   22.1750   30.3710 H   0  0  0  0  0  0  0  0  0  0  0  0
   34.9480   20.5220   31.5810 C   0  0  0  0  0  0  0  0  0  0  0  0
   34.2690   20.1130   30.8350 H   0  0  0  0  0  0  0  0  0  0  0  0
   35.1390   19.8670   32.7790 C   0  0  0  0  0  3  0  0  0  0  0  0
   36.0090   20.4310   33.6850 C   0  0  0  0  0  3  0  0  0  0  0  0
  1  2  2  0  0  0  0
  1  6  1  0  0  0  0
  2  3  1  0  0  0  0
  3 22  1  0  0  0  0
  3  4  2  0  0  0  0
  5  4  1  0  0  0  0
  5 11  1  0  0  0  0
  6  5  2  0  0  0  0
  7  1  1  0  0  0  0
  8  2  1  0  0  0  0
 10 16  1  0  0  0  0
 10  9  1  0  0  0  0
 11 10  2  0  0  0  0
 12 13  2  0  0  0  0
 12 11  1  0  0  0  0
 13 14  1  0  0  0  0
 14 15  1  0  0  0  0
 14 16  2  0  0  0  0
 16 19  1  0  0  0  0
 17 12  1  0  0  0  0
 18 13  1  0  0  0  0
 21 28  1  0  0  0  0
 21 20  1  0  0  0  0
 22 21  2  0  0  0  0
 23 25  2  0  0  0  0
 23 22  1  0  0  0  0
 24 23  1  0  0  0  0
 25 27  1  0  0  0  0
 26 25  1  0  0  0  0
 27 28  2  0  0  0  0
M  END
>  <minimizedAffinity>
-5.31241846

$$$$
