
     RDKit          3D

 30 32  0  0  0  0  0  0  0  0999 V2000
   38.0067   33.1034   49.4865 C   0  0  0  0  0  0  0  0  0  0  0  0
   38.9678   33.2186   48.4833 C   0  0  0  0  0  0  0  0  0  0  0  0
   38.9499   32.2283   47.4637 C   0  0  0  0  0  0  0  0  0  0  0  0
   38.0137   31.2351   47.5157 N   0  0  0  0  0  0  0  0  0  0  0  0
   37.1096   31.1752   48.5106 C   0  0  0  0  0  0  0  0  0  0  0  0
   37.1171   32.1130   49.4869 N   0  0  0  0  0  0  0  0  0  0  0  0
   36.1016   30.1365   48.5980 C   0  0  0  0  0  0  0  0  0  0  0  0
   35.2886   29.9501   47.5150 C   0  0  0  0  0  0  0  0  0  0  0  0
   34.2974   28.9802   47.5101 C   0  0  0  0  0  0  0  0  0  0  0  0
   34.1452   28.1954   48.6363 C   0  0  0  0  0  0  0  0  0  0  0  0
   34.9547   28.3611   49.7505 C   0  0  0  0  0  0  0  0  0  0  0  0
   35.9326   29.3392   49.7174 C   0  0  0  0  0  0  0  0  0  0  0  0
   38.0488   33.8718   50.2444 H   0  0  0  0  0  0  0  0  0  0  0  0
   39.7140   33.9741   48.4043 H   0  0  0  0  0  0  0  0  0  0  0  0
   39.6412   32.1966   46.6222 H   0  0  0  0  0  0  0  0  0  0  0  0
   35.4046   30.5650   46.6273 H   0  0  0  0  0  0  0  0  0  0  0  0
   33.6804   28.8763   46.6235 H   0  0  0  0  0  0  0  0  0  0  0  0
   33.3588   27.4495   48.5898 H   0  0  0  0  0  0  0  0  0  0  0  0
   34.7934   27.7140   50.6155 H   0  0  0  0  0  0  0  0  0  0  0  0
   37.9220   27.1806   49.9974 Cl  0  0  0  0  0  0  0  0  0  0  0  0
   37.7555   28.5619   51.0769 C   0  0  0  0  0  0  0  0  0  0  0  0
   36.7966   29.5321   50.8774 C   0  0  0  0  0  0  0  0  0  0  0  0
   36.6876   30.6134   51.7464 C   0  0  0  0  0  0  0  0  0  0  0  0
   35.9208   31.3326   51.5355 H   0  0  0  0  0  0  0  0  0  0  0  0
   37.5586   30.6807   52.7993 C   0  0  0  0  0  0  0  0  0  0  0  0
   37.5009   31.5063   53.4916 H   0  0  0  0  0  0  0  0  0  0  0  0
   38.5157   29.7408   53.0252 C   0  0  0  0  0  0  0  0  0  0  0  0
   38.6177   28.6654   52.1533 C   0  0  0  0  0  0  0  0  0  0  0  0
   39.1948   29.8248   53.8753 H   0  0  0  0  0  0  0  0  0  0  0  0
   39.3726   27.9015   52.3101 H   0  0  0  0  0  0  0  0  0  0  0  0
  1  6  2  0
  2  1  1  0
  3  4  1  0
  3  2  2  0
  4  5  2  0
  5  7  1  0
  5  6  1  0
  7 12  1  0
  8  7  2  0
  9  8  1  0
  9 10  2  0
 10 11  1  0
 12 11  2  0
  1 13  1  0
  2 14  1  0
  3 15  1  0
  8 16  1  0
  9 17  1  0
 10 18  1  0
 11 19  1  0
 20 21  1  0
 21 22  2  0
 22 23  1  0
 23 24  1  0
 23 25  2  0
 25 26  1  0
 25 27  1  0
 27 28  2  0
 28 21  1  0
 27 29  1  0
 28 30  1  0
 12 22  1  0
M  ISO  8  13  14  14  14  15  14  16  14  17  14  18  14  19  14  24  15
M  ISO  1  26  16
M  END
>  <DihAtoms>  (1) 
6,11,21,20

>  <DihDeg>  (1) 
118.46697156370143

$$$$
