
 OpenBabel03262521333D

 25 27  0  0  1  0  0  0  0  0999 V2000
   37.1950   29.9540   47.7230 C   0  0  1  0  0  0  0  0  0  0  0  0
   36.2370   30.4010   46.7430 C   0  0  0  0  0  0  0  0  0  0  0  0
   37.2500   31.4330   47.2610 C   0  0  2  0  0  0  0  0  0  0  0  0
   38.1100   29.3690   47.4160 H   0  0  0  0  0  0  0  0  0  0  0  0
   36.3700   30.0320   45.7070 H   0  0  0  0  0  0  0  0  0  0  0  0
   35.1680   30.5500   46.9980 H   0  0  0  0  0  0  0  0  0  0  0  0
   36.8800   32.2080   47.9450 H   0  0  0  0  0  0  0  0  0  0  0  0
   37.5770   30.0950   51.4370 C   0  0  0  0  0  0  0  0  0  0  0  0
   37.8920   30.2450   50.0810 C   0  0  0  0  0  0  0  0  0  0  0  0
   36.9180   29.8400   49.1690 C   0  0  0  0  0  0  0  0  0  0  0  0
   35.7330   29.3280   49.6510 N   0  0  0  0  0  0  0  0  0  0  0  0
   35.4770   29.2030   50.9680 C   0  0  0  0  0  0  0  0  0  0  0  0
   36.4100   29.5920   51.8800 N   0  0  0  0  0  0  0  0  0  0  0  0
   38.2950   30.3940   52.2190 H   0  0  0  0  0  0  0  0  0  0  0  0
   38.8330   30.6490   49.8050 H   0  0  0  0  0  0  0  0  0  0  0  0
   34.4910   28.7800   51.0930 H   0  0  0  0  0  0  0  0  0  0  0  0
   39.0540   33.3520   48.5790 Cl  0  0  0  0  0  0  0  0  0  0  0  0
   39.2230   32.6910   46.9530 C   0  0  0  0  0  0  0  0  0  0  0  0
   38.3560   31.7810   46.3440 C   0  0  0  0  0  0  0  0  0  0  0  0
   38.6350   31.3630   45.0600 C   0  0  0  0  0  0  0  0  0  0  0  0
   37.8940   30.6630   44.7010 H   0  0  0  0  0  0  0  0  0  0  0  0
   39.7490   31.8430   44.4080 C   0  0  0  0  0  0  0  0  0  0  0  0
   39.8830   31.4550   43.4020 H   0  0  0  0  0  0  0  0  0  0  0  0
   40.6060   32.7430   45.0080 C   0  0  0  0  0  0  0  0  0  0  0  0
   40.3540   33.1800   46.2940 C   0  0  0  0  0  0  0  0  0  0  0  0
  1  4  1  6  0  0  0
  1 10  1  0  0  0  0
  2  6  1  0  0  0  0
  2  3  1  0  0  0  0
  2  1  1  0  0  0  0
  3  1  1  0  0  0  0
  3  7  1  1  0  0  0
  5  2  1  0  0  0  0
  8 13  1  0  0  0  0
  8 14  1  0  0  0  0
  9  8  2  0  0  0  0
 10 11  2  0  0  0  0
 10  9  1  0  0  0  0
 11 12  1  0  0  0  0
 12 16  1  0  0  0  0
 12 13  2  0  0  0  0
 15  9  1  0  0  0  0
 18 17  1  0  0  0  0
 19 18  1  0  0  0  0
 19  3  1  0  0  0  0
 20 19  2  0  0  0  0
 21 20  1  0  0  0  0
 22 24  2  0  0  0  0
 22 20  1  0  0  0  0
 23 22  1  0  0  0  0
 24 25  1  0  0  0  0
 25 18  2  0  0  0  0
M  END
>  <minimizedAffinity>
-5.17459011

>  <minimizedRMSD>
2.0317564

$$$$
