REMARK  Name = 
REMARK  6 active torsions:
REMARK  status: ('A' for Active; 'I' for Inactive)
REMARK    1  A    between atoms: C_3  and  C_9
REMARK    2  A    between atoms: C_5  and  O_14
REMARK    3  A    between atoms: O_14  and  C_15
REMARK    4  A    between atoms: C_15  and  C_16
REMARK    5  A    between atoms: C_16  and  C_17
REMARK    6  A    between atoms: C_21  and  C_37
REMARK                            x       y       z     vdW  Elec       q    Type
REMARK                         _______ _______ _______ _____ _____    ______ ____
ROOT
ATOM      1  C   UNL     1      34.442  28.663  48.169  0.00  0.00    +0.000 C 
ATOM      2  H   UNL     1      35.296  28.873  47.494  0.00  0.00    +0.000 HD
ATOM      3  H   UNL     1      33.863  29.624  48.236  0.00  0.00    +0.000 HD
ENDROOT
BRANCH   1   4
ATOM      4  C   UNL     1      33.565  27.534  47.707  0.00  0.00    +0.000 C 
ATOM      5  H   UNL     1      33.826  27.360  46.625  0.00  0.00    +0.000 HD
ATOM      6  H   UNL     1      33.739  26.579  48.215  0.00  0.00    +0.000 HD
BRANCH   4   7
ATOM      7  C   UNL     1      32.129  27.900  47.702  0.00  0.00    +0.000 A 
ATOM      8  C   UNL     1      31.351  27.523  48.780  0.00  0.00    +0.000 A 
ATOM      9  C   UNL     1      30.023  27.808  48.877  0.00  0.00    +0.000 A 
ATOM     10  N   UNL     1      29.439  28.484  47.884  0.00  0.00    +0.000 NA
ATOM     11  C   UNL     1      30.198  28.855  46.825  0.00  0.00    +0.000 A 
ATOM     12  N   UNL     1      31.520  28.590  46.695  0.00  0.00    +0.000 NA
ATOM     13  H   UNL     1      31.782  26.965  49.624  0.00  0.00    +0.000 HD
ATOM     14  H   UNL     1      29.426  27.506  49.729  0.00  0.00    +0.000 HD
BRANCH  11  17
ATOM     15 CL   UNL     1      27.238  28.221  46.432  0.00  0.00    +0.000 Cl
ATOM     16  C   UNL     1      28.169  29.377  45.500  0.00  0.00    +0.000 A 
ATOM     17  C   UNL     1      29.521  29.593  45.761  0.00  0.00    +0.000 A 
ATOM     18  C   UNL     1      30.223  30.511  45.007  0.00  0.00    +0.000 A 
ATOM     19  H   UNL     1      31.274  30.691  45.196  0.00  0.00    +0.000 HD
ATOM     20  C   UNL     1      29.600  31.225  43.989  0.00  0.00    +0.000 A 
ATOM     21  H   UNL     1      30.205  31.931  43.433  0.00  0.00    +0.000 HD
ATOM     22  C   UNL     1      28.265  31.043  43.696  0.00  0.00    +0.000 A 
ATOM     23  C   UNL     1      27.627  30.124  44.475  0.00  0.00    +0.000 A 
ENDBRANCH  11  17
ENDBRANCH   4   7
ENDBRANCH   1   4
BRANCH   1  24
ATOM     24  O   UNL     1      34.996  28.363  49.448  0.00  0.00    +0.000 OA
BRANCH  24  29
ATOM     25  C   UNL     1      37.333  30.178  51.516  0.00  0.00    +0.000 A 
ATOM     26  C   UNL     1      38.067  30.858  50.521  0.00  0.00    +0.000 A 
ATOM     27  C   UNL     1      37.717  30.654  49.190  0.00  0.00    +0.000 A 
ATOM     28  N   UNL     1      36.664  29.789  48.970  0.00  0.00    +0.000 NA
ATOM     29  C   UNL     1      35.992  29.163  49.920  0.00  0.00    +0.000 A 
ATOM     30  N   UNL     1      36.332  29.361  51.218  0.00  0.00    +0.000 NA
ATOM     31  H   UNL     1      37.682  30.403  52.503  0.00  0.00    +0.000 HD
ATOM     32  H   UNL     1      38.881  31.530  50.640  0.00  0.00    +0.000 HD
BRANCH  27  35
ATOM     33  F   UNL     1      38.944  33.265  49.009  0.00  0.00    +0.000 F 
ATOM     34  C   UNL     1      38.919  32.473  47.935  0.00  0.00    +0.000 A 
ATOM     35  C   UNL     1      38.336  31.249  48.044  0.00  0.00    +0.000 A 
ATOM     36  C   UNL     1      38.371  30.520  46.866  0.00  0.00    +0.000 A 
ATOM     37  C   UNL     1      38.938  30.985  45.701  0.00  0.00    +0.000 A 
ATOM     38  C   UNL     1      39.514  32.230  45.643  0.00  0.00    +0.000 A 
ATOM     39  C   UNL     1      39.500  32.989  46.797  0.00  0.00    +0.000 A 
ATOM     40  H   UNL     1      37.957  29.525  46.761  0.00  0.00    +0.000 HD
ATOM     41  H   UNL     1      38.969  30.422  44.777  0.00  0.00    +0.000 HD
ATOM     42  H   UNL     1      39.964  32.624  44.755  0.00  0.00    +0.000 HD
ATOM     43  H   UNL     1      39.948  33.972  46.776  0.00  0.00    +0.000 HD
ENDBRANCH  27  35
ENDBRANCH  24  29
ENDBRANCH   1  24
TORSDOF 6
