
     RDKit          3D

 45 48  0  0  0  0  0  0  0  0999 V2000
   37.3333   30.1778   51.5161 C   0  0  0  0  0  0  0  0  0  0  0  0
   38.0670   30.8578   50.5212 C   0  0  0  0  0  0  0  0  0  0  0  0
   37.7165   30.6542   49.1899 C   0  0  0  0  0  0  0  0  0  0  0  0
   36.6638   29.7890   48.9700 N   0  0  0  0  0  0  0  0  0  0  0  0
   35.9917   29.1635   49.9205 C   0  0  0  0  0  0  0  0  0  0  0  0
   36.3318   29.3607   51.2177 N   0  0  0  0  0  0  0  0  0  0  0  0
   38.9439   33.2646   49.0088 F   0  0  0  0  0  0  0  0  0  0  0  0
   38.9188   32.4729   47.9348 C   0  0  0  0  0  0  0  0  0  0  0  0
   38.3358   31.2488   48.0439 C   0  0  0  0  0  0  0  0  0  0  0  0
   38.3712   30.5204   46.8657 C   0  0  0  0  0  0  0  0  0  0  0  0
   38.9377   30.9850   45.7014 C   0  0  0  0  0  0  0  0  0  0  0  0
   39.5144   32.2299   45.6429 C   0  0  0  0  0  0  0  0  0  0  0  0
   39.5002   32.9887   46.7971 C   0  0  0  0  0  0  0  0  0  0  0  0
   34.9961   28.3631   49.4480 O   0  0  0  0  0  0  0  0  0  0  0  0
   34.4416   28.6635   48.1685 C   0  0  0  0  0  0  0  0  0  0  0  0
   33.5651   27.5339   47.7070 C   0  0  0  0  0  0  0  0  0  0  0  0
   32.1285   27.8999   47.7024 C   0  0  0  0  0  0  0  0  0  0  0  0
   31.3508   27.5232   48.7803 C   0  0  0  0  0  0  0  0  0  0  0  0
   30.0230   27.8078   48.8770 C   0  0  0  0  0  0  0  0  0  0  0  0
   29.4389   28.4839   47.8841 N   0  0  0  0  0  0  0  0  0  0  0  0
   30.1981   28.8554   46.8247 C   0  0  0  0  0  0  0  0  0  0  0  0
   31.5197   28.5899   46.6951 N   0  0  0  0  0  0  0  0  0  0  0  0
   37.6822   30.4033   52.5029 H   0  0  0  0  0  0  0  0  0  0  0  0
   38.8813   31.5305   50.6404 H   0  0  0  0  0  0  0  0  0  0  0  0
   37.9567   29.5250   46.7605 H   0  0  0  0  0  0  0  0  0  0  0  0
   38.9692   30.4219   44.7771 H   0  0  0  0  0  0  0  0  0  0  0  0
   39.9644   32.6241   44.7551 H   0  0  0  0  0  0  0  0  0  0  0  0
   39.9480   33.9723   46.7765 H   0  0  0  0  0  0  0  0  0  0  0  0
   35.2959   28.8729   47.4937 H   0  0  0  0  0  0  0  0  0  0  0  0
   33.8633   29.6244   48.2364 H   0  0  0  0  0  0  0  0  0  0  0  0
   33.8257   27.3601   46.6246 H   0  0  0  0  0  0  0  0  0  0  0  0
   33.7389   26.5794   48.2153 H   0  0  0  0  0  0  0  0  0  0  0  0
   31.7819   26.9652   49.6240 H   0  0  0  0  0  0  0  0  0  0  0  0
   29.4263   27.5056   49.7287 H   0  0  0  0  0  0  0  0  0  0  0  0
   27.2383   28.2214   46.4316 Cl  0  0  0  0  0  0  0  0  0  0  0  0
   28.1693   29.3765   45.5004 C   0  0  0  0  0  0  0  0  0  0  0  0
   29.5211   29.5926   45.7611 C   0  0  0  0  0  0  0  0  0  0  0  0
   30.2226   30.5106   45.0070 C   0  0  0  0  0  0  0  0  0  0  0  0
   31.2738   30.6909   45.1961 H   0  0  0  0  0  0  0  0  0  0  0  0
   29.5998   31.2250   43.9885 C   0  0  0  0  0  0  0  0  0  0  0  0
   30.2050   31.9309   43.4328 H   0  0  0  0  0  0  0  0  0  0  0  0
   28.2648   31.0432   43.6961 C   0  0  0  0  0  0  0  0  0  0  0  0
   27.6274   30.1241   44.4753 C   0  0  0  0  0  0  0  0  0  0  0  0
   27.7634   31.5861   42.9118 H   0  0  0  0  0  0  0  0  0  0  0  0
   26.5581   29.9128   44.3135 H   0  0  0  0  0  0  0  0  0  0  0  0
  2  1  2  0
  3  2  1  0
  4  3  2  0
  4  5  1  0
  5  6  2  0
  6  1  1  0
  8  9  2  0
  8  7  1  0
  9  3  1  0
 10  9  1  0
 11 10  2  0
 12 11  1  0
 12 13  2  0
 13  8  1  0
 14  5  1  0
 15 14  1  0
 16 15  1  0
 17 16  1  0
 17 18  2  0
 18 19  1  0
 20 19  2  0
 21 20  1  0
 22 21  2  0
 22 17  1  0
  1 23  1  0
  2 24  1  0
 10 25  1  0
 11 26  1  0
 12 27  1  0
 13 28  1  0
 15 29  1  0
 15 30  1  0
 16 31  1  0
 16 32  1  0
 18 33  1  0
 19 34  1  0
 35 36  1  0
 36 37  2  0
 37 38  1  0
 38 39  1  0
 38 40  2  0
 40 41  1  0
 40 42  1  0
 42 43  2  0
 43 36  1  0
 42 44  1  0
 43 45  1  0
 21 37  1  0
M  ISO  8  23  14  24  14  25  14  26  14  27  14  28  14  29   8  30   8
M  ISO  6  31   8  32   8  33  14  34  14  39  15  41  16
M  END
>  <DihAtoms>  (1) 
19,20,36,35

>  <DihDeg>  (1) 
179.99456738951554

$$$$
