
 OpenBabel03272509533D

 43 46  0  0  0  0  0  0  0  0999 V2000
   34.4570   28.5790   48.1580 C   0  0  0  0  0  0  0  0  0  0  0  0
   35.3160   28.7370   47.4750 H   0  0  0  0  0  0  0  0  0  0  0  0
   33.9060   29.5580   48.1870 H   0  0  0  0  0  0  0  0  0  0  0  0
   33.5470   27.4580   47.7420 C   0  0  0  0  0  0  0  0  0  0  0  0
   33.7780   27.2570   46.6580 H   0  0  0  0  0  0  0  0  0  0  0  0
   33.7140   26.5110   48.2660 H   0  0  0  0  0  0  0  0  0  0  0  0
   32.1190   27.8530   47.7630 C   0  0  0  0  0  0  0  0  0  0  0  0
   31.3580   27.5090   48.8650 C   0  0  0  0  0  0  0  0  0  0  0  0
   30.0390   27.8220   48.9870 C   0  0  0  0  0  0  0  0  0  0  0  0
   29.4460   28.4940   47.9970 N   0  0  0  0  0  0  0  0  0  0  0  0
   30.1870   28.8330   46.9150 C   0  0  0  0  0  0  0  0  0  0  0  0
   31.5010   28.5400   46.7600 N   0  0  0  0  0  0  0  0  0  0  0  0
   31.7970   26.9550   49.7070 H   0  0  0  0  0  0  0  0  0  0  0  0
   29.4560   27.5450   49.8570 H   0  0  0  0  0  0  0  0  0  0  0  0
   31.7690   31.0960   45.6140 Cl  0  0  0  0  0  0  0  0  0  0  0  0
   30.1360   30.6200   45.1970 C   0  0  0  0  0  0  0  0  0  0  0  0
   29.5010   29.5680   45.8550 C   0  0  0  0  0  0  0  0  0  0  0  0
   28.2130   29.2210   45.5010 C   0  0  0  0  0  0  0  0  0  0  0  0
   27.7050   28.4050   46.0020 H   0  0  0  0  0  0  0  0  0  0  0  0
   27.5390   29.9040   44.4950 C   0  0  0  0  0  0  0  0  0  0  0  0
   26.5310   29.5830   44.2630 H   0  0  0  0  0  0  0  0  0  0  0  0
   28.1300   30.9510   43.8180 C   0  0  0  0  0  3  0  0  0  0  0  0
   29.4000   31.2450   44.2130 C   0  0  0  0  0  3  0  0  0  0  0  0
   35.0040   28.3140   49.4480 O   0  0  0  0  0  0  0  0  0  0  0  0
   37.3190   30.1890   51.4870 C   0  0  0  0  0  0  0  0  0  0  0  0
   38.0490   30.8570   50.4810 C   0  0  0  0  0  0  0  0  0  0  0  0
   37.7040   30.6250   49.1530 C   0  0  0  0  0  0  0  0  0  0  0  0
   36.6600   29.7460   48.9470 N   0  0  0  0  0  0  0  0  0  0  0  0
   35.9910   29.1320   49.9070 C   0  0  0  0  0  0  0  0  0  0  0  0
   36.3260   29.3570   51.2020 N   0  0  0  0  0  0  0  0  0  0  0  0
   37.6630   30.4350   52.4700 H   0  0  0  0  0  0  0  0  0  0  0  0
   38.8560   31.5380   50.5890 H   0  0  0  0  0  0  0  0  0  0  0  0
   38.9770   33.2120   48.9480 F   0  0  0  0  0  0  0  0  0  0  0  0
   38.9250   32.4160   47.8770 C   0  0  0  0  0  0  0  0  0  0  0  0
   38.3210   31.2040   47.9980 C   0  0  0  0  0  0  0  0  0  0  0  0
   38.3280   30.4700   46.8220 C   0  0  0  0  0  0  0  0  0  0  0  0
   38.8900   30.9200   45.6490 C   0  0  0  0  0  0  0  0  0  0  0  0
   39.4880   32.1540   45.5790 C   0  0  0  0  0  0  0  0  0  0  0  0
   39.5020   32.9170   46.7310 C   0  0  0  0  0  0  0  0  0  0  0  0
   37.8940   29.4820   46.7260 H   0  0  0  0  0  0  0  0  0  0  0  0
   38.8990   30.3530   44.7270 H   0  0  0  0  0  0  0  0  0  0  0  0
   39.9350   32.5360   44.6850 H   0  0  0  0  0  0  0  0  0  0  0  0
   39.9680   33.8910   46.7000 H   0  0  0  0  0  0  0  0  0  0  0  0
  1  3  1  0  0  0  0
  1 24  1  0  0  0  0
  2  1  1  0  0  0  0
  4  7  1  0  0  0  0
  4  1  1  0  0  0  0
  4  6  1  0  0  0  0
  5  4  1  0  0  0  0
  7  8  1  0  0  0  0
  8  9  2  0  0  0  0
  8 13  1  0  0  0  0
  9 14  1  0  0  0  0
 10  9  1  0  0  0  0
 11 10  2  0  0  0  0
 12 11  1  0  0  0  0
 12  7  2  0  0  0  0
 16 15  1  0  0  0  0
 16 17  1  0  0  0  0
 17 11  1  0  0  0  0
 18 17  2  0  0  0  0
 18 19  1  0  0  0  0
 20 18  1  0  0  0  0
 21 20  1  0  0  0  0
 22 23  1  0  0  0  0
 22 20  2  0  0  0  0
 23 16  2  0  0  0  0
 24 29  1  0  0  0  0
 25 31  1  0  0  0  0
 26 32  1  0  0  0  0
 26 25  2  0  0  0  0
 27 26  1  0  0  0  0
 28 27  2  0  0  0  0
 28 29  1  0  0  0  0
 29 30  2  0  0  0  0
 30 25  1  0  0  0  0
 34 35  1  0  0  0  0
 34 33  1  0  0  0  0
 35 27  1  0  0  0  0
 36 35  2  0  0  0  0
 37 36  1  0  0  0  0
 38 37  2  0  0  0  0
 38 39  1  0  0  0  0
 39 34  2  0  0  0  0
 40 36  1  0  0  0  0
 41 37  1  0  0  0  0
 42 38  1  0  0  0  0
 43 39  1  0  0  0  0
M  END
>  <minimizedAffinity>
-6.7536459

>  <minimizedRMSD>
0.134332284

$$$$
