
 OpenBabel03262523293D

 31 34  0  0  0  0  0  0  0  0999 V2000
   37.1280   29.3600   50.5530 C   0  0  0  0  0  0  0  0  0  0  0  0
   37.7570   30.1330   49.5740 C   0  0  0  0  0  0  0  0  0  0  0  0
   37.1660   30.2270   48.3200 C   0  0  0  0  0  0  0  0  0  0  0  0
   35.9960   29.5600   48.0900 N   0  0  0  0  0  0  0  0  0  0  0  0
   35.4190   28.8200   49.0690 C   0  0  0  0  0  0  0  0  0  0  0  0
   35.9710   28.7190   50.2800 N   0  0  0  0  0  0  0  0  0  0  0  0
   37.6100   29.3070   51.5140 H   0  0  0  0  0  0  0  0  0  0  0  0
   38.6950   30.6730   49.7440 H   0  0  0  0  0  0  0  0  0  0  0  0
   37.2050   30.7700   45.9600 C   0  0  0  0  0  0  0  0  0  0  0  0
   37.7240   31.0000   47.2210 C   0  0  0  0  0  0  0  0  0  0  0  0
   38.7210   31.9250   47.3890 C   0  0  0  0  0  0  0  0  0  0  0  0
   39.1780   32.6060   46.2710 C   0  0  0  0  0  0  0  0  0  0  0  0
   40.1510   33.5580   46.2020 N   0  0  0  0  0  0  0  0  0  0  0  0
   40.2460   33.9270   44.9090 C   0  0  0  0  0  0  0  0  0  0  0  0
   39.3640   33.2380   44.1560 N   0  0  0  0  0  0  0  0  0  0  0  0
   38.6900   32.4100   44.9900 C   0  0  0  0  0  0  0  0  0  0  0  0
   37.6810   31.4680   44.8450 C   0  0  0  0  0  0  0  0  0  0  0  0
   36.4170   30.0540   45.7610 H   0  0  0  0  0  0  0  0  0  0  0  0
   39.1260   32.1040   48.3770 H   0  0  0  0  0  0  0  0  0  0  0  0
   40.7490   33.9700   46.9690 H   0  0  0  0  0  0  0  0  0  0  0  0
   40.9020   34.6610   44.4350 H   0  0  0  0  0  0  0  0  0  0  0  0
   37.2900   31.3030   43.8590 H   0  0  0  0  0  0  0  0  0  0  0  0
   33.0840   29.7430   50.6320 Cl  0  0  0  0  0  0  0  0  0  0  0  0
   33.0060   28.4650   49.4230 C   0  0  0  0  0  0  0  0  0  0  0  0
   34.1670   28.1290   48.7640 C   0  0  0  0  0  0  0  0  0  0  0  0
   34.1360   27.1310   47.8120 C   0  0  0  0  0  0  0  0  0  0  0  0
   35.0560   26.8920   47.3160 H   0  0  0  0  0  0  0  0  0  0  0  0
   32.9270   26.5180   47.5710 C   0  0  0  0  0  0  0  0  0  0  0  0
   32.9540   25.7370   46.8100 H   0  0  0  0  0  0  0  0  0  0  0  0
   31.7530   26.8500   48.2290 C   0  0  0  0  0  0  0  0  0  0  0  0
   31.7940   27.8560   49.1860 C   0  0  0  0  0  0  0  0  0  0  0  0
  1  7  1  0  0  0  0
  2  8  1  0  0  0  0
  2  1  2  0  0  0  0
  3  2  1  0  0  0  0
  4  3  2  0  0  0  0
  4  5  1  0  0  0  0
  5  6  2  0  0  0  0
  6  1  1  0  0  0  0
  9 10  1  0  0  0  0
 10 11  2  0  0  0  0
 10  3  1  0  0  0  0
 11 19  1  0  0  0  0
 12 11  1  0  0  0  0
 13 12  1  0  0  0  0
 13 20  1  0  0  0  0
 14 13  1  0  0  0  0
 15 14  2  0  0  0  0
 15 16  1  0  0  0  0
 16 12  2  0  0  0  0
 17 16  1  0  0  0  0
 17  9  2  0  0  0  0
 18  9  1  0  0  0  0
 21 14  1  0  0  0  0
 22 17  1  0  0  0  0
 24 23  1  0  0  0  0
 25  5  1  0  0  0  0
 25 24  2  0  0  0  0
 26 25  1  0  0  0  0
 27 26  1  0  0  0  0
 28 26  2  0  0  0  0
 28 30  1  0  0  0  0
 29 28  1  0  0  0  0
 30 31  2  0  0  0  0
 31 24  1  0  0  0  0
M  END
>  <minimizedAffinity>
-6.29295111

>  <minimizedRMSD>
1.27687538

$$$$
