
 OpenBabel03272504503D

 42 45  0  0  1  0  0  0  0  0999 V2000
   37.1850   31.0910   48.4700 N   0  0  0  0  0  0  0  0  0  0  0  0
   37.8640   31.1560   49.7630 C   0  0  0  0  0  0  0  0  0  0  0  0
   38.9790   32.1370   49.8120 C   0  0  0  0  0  0  0  0  0  0  0  0
   38.7050   33.3260   48.8940 C   0  0  0  0  0  0  0  0  0  0  0  0
   38.7150   32.7360   47.5150 C   0  0  0  0  0  0  0  0  0  0  0  0
   37.5430   31.8190   47.3000 C   0  0  1  0  0  0  0  0  0  0  0  0
   37.0560   31.4720   50.4810 H   0  0  0  0  0  0  0  0  0  0  0  0
   38.2070   30.1700   50.1160 H   0  0  0  0  0  0  0  0  0  0  0  0
   39.9650   31.7200   49.5220 H   0  0  0  0  0  0  0  0  0  0  0  0
   38.9990   32.5580   50.8570 H   0  0  0  0  0  0  0  0  0  0  0  0
   37.6650   33.7010   49.1000 H   0  0  0  0  0  0  0  0  0  0  0  0
   39.4430   34.1060   49.0570 H   0  0  0  0  0  0  0  0  0  0  0  0
   38.7720   33.4750   46.6980 H   0  0  0  0  0  0  0  0  0  0  0  0
   39.6270   32.0750   47.4770 H   0  0  0  0  0  0  0  0  0  0  0  0
   36.6850   32.4870   47.0740 H   0  0  0  0  0  0  0  0  0  0  0  0
   40.4000   31.0260   46.3520 Cl  0  0  0  0  0  0  0  0  0  0  0  0
   38.9390   30.5630   45.5240 C   0  0  0  0  0  0  0  0  0  0  0  0
   37.7650   30.9920   46.0830 C   0  0  0  0  0  0  0  0  0  0  0  0
   36.6370   30.5790   45.3540 C   0  0  0  0  0  0  0  0  0  0  0  0
   35.6510   30.8820   45.7350 H   0  0  0  0  0  0  0  0  0  0  0  0
   36.6300   29.8300   44.2070 C   0  0  0  0  0  0  0  0  0  0  0  0
   35.7190   29.5670   43.7270 H   0  0  0  0  0  0  0  0  0  0  0  0
   37.8420   29.4360   43.7070 C   0  0  0  0  0  0  0  0  0  0  0  0
   38.9890   29.8080   44.3730 C   0  0  0  0  0  0  0  0  0  0  0  0
   36.0760   28.9880   49.0600 C   0  0  0  0  0  0  0  0  0  0  0  0
   36.0660   30.2200   48.4190 C   0  0  0  0  0  0  0  0  0  0  0  0
   34.9110   30.5540   47.7340 C   0  0  0  0  0  0  0  0  0  0  0  0
   33.8630   29.6870   47.7150 N   0  0  0  0  0  0  0  0  0  0  0  0
   33.9030   28.5030   48.3430 C   0  0  0  0  0  0  0  0  0  0  0  0
   35.0200   28.1660   49.0140 N   0  0  0  0  0  0  0  0  0  0  0  0
   36.9210   28.6320   49.6200 H   0  0  0  0  0  0  0  0  0  0  0  0
   34.7870   31.4840   47.2070 H   0  0  0  0  0  0  0  0  0  0  0  0
   32.7740   27.5990   48.3080 C   0  0  0  0  0  0  0  0  0  0  0  0
   32.8430   26.4200   47.6300 C   0  0  0  0  0  0  0  0  0  0  0  0
   31.8070   25.5200   47.5620 C   0  0  0  0  0  0  0  0  0  0  0  0
   30.6800   25.8910   48.2320 C   0  0  0  0  0  0  0  0  0  0  0  0
   30.5520   27.0860   48.9450 C   0  0  0  0  0  0  0  0  0  0  0  0
   31.6360   27.9390   48.9670 N   0  0  0  0  0  0  0  0  0  0  0  0
   33.7840   26.1960   47.1170 H   0  0  0  0  0  0  0  0  0  0  0  0
   31.8980   24.5960   47.0140 H   0  0  0  0  0  0  0  0  0  0  0  0
   29.8100   25.2380   48.2320 H   0  0  0  0  0  0  0  0  0  0  0  0
   29.6440   27.3530   49.4690 H   0  0  0  0  0  0  0  0  0  0  0  0
  1  2  1  0  0  0  0
  2  3  1  0  0  0  0
  2  8  1  0  0  0  0
  2  7  1  0  0  0  0
  3 10  1  0  0  0  0
  4 12  1  0  0  0  0
  4 11  1  0  0  0  0
  4  3  1  0  0  0  0
  5  4  1  0  0  0  0
  6 15  1  6  0  0  0
  6  5  1  0  0  0  0
  6  1  1  0  0  0  0
  9  3  1  0  0  0  0
 13  5  1  0  0  0  0
 14  5  1  0  0  0  0
 17 18  1  0  0  0  0
 17 16  1  0  0  0  0
 18  6  1  0  0  0  0
 19 20  1  0  0  0  0
 19 18  2  0  0  0  0
 21 19  1  0  0  0  0
 22 21  1  0  0  0  0
 23 21  2  0  0  0  0
 23 24  1  0  0  0  0
 24 17  2  0  0  0  0
 25 31  1  0  0  0  0
 26  1  1  0  0  0  0
 26 25  2  0  0  0  0
 27 26  1  0  0  0  0
 28 27  2  0  0  0  0
 28 29  1  0  0  0  0
 29 30  2  0  0  0  0
 30 25  1  0  0  0  0
 32 27  1  0  0  0  0
 33 29  1  0  0  0  0
 33 38  1  0  0  0  0
 34 33  2  0  0  0  0
 35 34  1  0  0  0  0
 35 36  2  0  0  0  0
 36 37  1  0  0  0  0
 37 38  2  0  0  0  0
 37 42  1  0  0  0  0
 39 34  1  0  0  0  0
 40 35  1  0  0  0  0
 41 36  1  0  0  0  0
M  END
>  <minimizedAffinity>
-5.81354189

>  <minimizedRMSD>
1.15951419

$$$$
