
 OpenBabel03262521343D

 25 27  0  0  1  0  0  0  0  0999 V2000
   38.3200   26.8730   34.6980 C   0  0  1  0  0  0  0  0  0  0  0  0
   38.5570   27.0950   36.1030 C   0  0  0  0  0  0  0  0  0  0  0  0
   37.8340   25.7990   35.7050 C   0  0  2  0  0  0  0  0  0  0  0  0
   39.1410   26.4950   34.0230 H   0  0  0  0  0  0  0  0  0  0  0  0
   39.6030   27.0070   36.4550 H   0  0  0  0  0  0  0  0  0  0  0  0
   37.9860   27.8510   36.6780 H   0  0  0  0  0  0  0  0  0  0  0  0
   36.7590   25.7310   35.9180 H   0  0  0  0  0  0  0  0  0  0  0  0
   35.8760   27.6120   31.9700 C   0  0  0  0  0  0  0  0  0  0  0  0
   36.9410   27.0030   32.6460 C   0  0  0  0  0  0  0  0  0  0  0  0
   37.1990   27.4600   33.9380 C   0  0  0  0  0  0  0  0  0  0  0  0
   36.4050   28.4610   34.4560 N   0  0  0  0  0  0  0  0  0  0  0  0
   35.3910   29.0160   33.7640 C   0  0  0  0  0  0  0  0  0  0  0  0
   35.1170   28.5880   32.5010 N   0  0  0  0  0  0  0  0  0  0  0  0
   35.6100   27.3050   30.9450 H   0  0  0  0  0  0  0  0  0  0  0  0
   37.4970   26.2400   32.1640 H   0  0  0  0  0  0  0  0  0  0  0  0
   34.9230   29.7720   34.3780 H   0  0  0  0  0  0  0  0  0  0  0  0
   37.8460   24.7580   38.4610 Cl  0  0  0  0  0  0  0  0  0  0  0  0
   38.6530   24.0500   37.0620 C   0  0  0  0  0  0  0  0  0  0  0  0
   38.6360   24.5580   35.7620 C   0  0  0  0  0  0  0  0  0  0  0  0
   39.3230   23.8770   34.7790 C   0  0  0  0  0  0  0  0  0  0  0  0
   39.2340   24.3680   33.8210 H   0  0  0  0  0  0  0  0  0  0  0  0
   40.0050   22.7230   35.0920 C   0  0  0  0  0  0  0  0  0  0  0  0
   40.5140   22.2600   34.2510 H   0  0  0  0  0  0  0  0  0  0  0  0
   40.0240   22.2190   36.3760 C   0  0  0  0  0  3  0  0  0  0  0  0
   39.3450   22.8790   37.3830 C   0  0  0  0  0  3  0  0  0  0  0  0
  1  4  1  6  0  0  0
  1  3  1  0  0  0  0
  1  2  1  0  0  0  0
  2  5  1  0  0  0  0
  2  6  1  0  0  0  0
  3 19  1  0  0  0  0
  3  7  1  1  0  0  0
  3  2  1  0  0  0  0
  8 13  2  0  0  0  0
  8  9  1  0  0  0  0
  9 10  2  0  0  0  0
 10 11  1  0  0  0  0
 10  1  1  0  0  0  0
 12 16  1  0  0  0  0
 12 11  2  0  0  0  0
 13 12  1  0  0  0  0
 14  8  1  0  0  0  0
 15  9  1  0  0  0  0
 18 25  1  0  0  0  0
 18 17  1  0  0  0  0
 19 18  2  0  0  0  0
 20 22  2  0  0  0  0
 20 19  1  0  0  0  0
 21 20  1  0  0  0  0
 22 24  1  0  0  0  0
 23 22  1  0  0  0  0
 24 25  2  0  0  0  0
M  END
>  <minimizedAffinity>
-4.82914448

$$$$

 OpenBabel03262521343D

 25 27  0  0  1  0  0  0  0  0999 V2000
   38.0950   25.8500   35.3390 C   0  0  1  0  0  0  0  0  0  0  0  0
   37.9980   27.2570   35.6370 C   0  0  0  0  0  0  0  0  0  0  0  0
   39.2640   26.7740   34.9120 C   0  0  2  0  0  0  0  0  0  0  0  0
   37.5500   25.4040   34.4570 H   0  0  0  0  0  0  0  0  0  0  0  0
   37.2680   27.8460   35.0480 H   0  0  0  0  0  0  0  0  0  0  0  0
   38.1080   27.6430   36.6700 H   0  0  0  0  0  0  0  0  0  0  0  0
   40.1970   26.7360   35.4900 H   0  0  0  0  0  0  0  0  0  0  0  0
   38.4170   23.7960   38.4430 C   0  0  0  0  0  0  0  0  0  0  0  0
   37.9470   24.7840   37.5690 C   0  0  0  0  0  0  0  0  0  0  0  0
   38.5310   24.8210   36.3030 C   0  0  0  0  0  0  0  0  0  0  0  0
   39.5130   23.9010   36.0000 N   0  0  0  0  0  0  0  0  0  0  0  0
   39.9310   22.9690   36.8780 C   0  0  0  0  0  0  0  0  0  0  0  0
   39.3780   22.9100   38.1210 N   0  0  0  0  0  0  0  0  0  0  0  0
   38.0040   23.7020   39.4610 H   0  0  0  0  0  0  0  0  0  0  0  0
   37.1870   25.4480   37.8920 H   0  0  0  0  0  0  0  0  0  0  0  0
   40.7020   22.3720   36.4120 H   0  0  0  0  0  0  0  0  0  0  0  0
   42.0910   26.8650   34.0890 Cl  0  0  0  0  0  0  0  0  0  0  0  0
   40.6830   27.1290   33.0600 C   0  0  0  0  0  0  0  0  0  0  0  0
   39.3490   27.0820   33.4680 C   0  0  0  0  0  0  0  0  0  0  0  0
   38.3640   27.3120   32.5310 C   0  0  0  0  0  0  0  0  0  0  0  0
   37.3780   27.2490   32.9680 H   0  0  0  0  0  0  0  0  0  0  0  0
   38.7090   27.5820   31.2260 C   0  0  0  0  0  0  0  0  0  0  0  0
   37.8630   27.7490   30.5630 H   0  0  0  0  0  0  0  0  0  0  0  0
   40.0260   27.6290   30.8200 C   0  0  0  0  0  3  0  0  0  0  0  0
   41.0360   27.4020   31.7360 C   0  0  0  0  0  3  0  0  0  0  0  0
  1  4  1  6  0  0  0
  1  2  1  0  0  0  0
  1 10  1  0  0  0  0
  2  6  1  0  0  0  0
  3  1  1  0  0  0  0
  3  7  1  1  0  0  0
  3  2  1  0  0  0  0
  5  2  1  0  0  0  0
  8 14  1  0  0  0  0
  9 15  1  0  0  0  0
  9  8  2  0  0  0  0
 10  9  1  0  0  0  0
 11 10  2  0  0  0  0
 11 12  1  0  0  0  0
 12 13  2  0  0  0  0
 13  8  1  0  0  0  0
 16 12  1  0  0  0  0
 18 19  1  0  0  0  0
 18 17  1  0  0  0  0
 19  3  1  0  0  0  0
 20 21  1  0  0  0  0
 20 19  2  0  0  0  0
 22 20  1  0  0  0  0
 23 22  1  0  0  0  0
 24 22  2  0  0  0  0
 24 25  1  0  0  0  0
 25 18  2  0  0  0  0
M  END
>  <minimizedAffinity>
-4.78450155

$$$$

 OpenBabel03262521343D

 25 27  0  0  1  0  0  0  0  0999 V2000
   35.9260   29.2660   32.9630 C   0  0  1  0  0  0  0  0  0  0  0  0
   34.8580   30.0210   32.3550 C   0  0  0  0  0  0  0  0  0  0  0  0
   34.6130   29.4630   33.7650 C   0  0  2  0  0  0  0  0  0  0  0  0
   36.8070   29.7870   33.4380 H   0  0  0  0  0  0  0  0  0  0  0  0
   35.0070   31.1140   32.2580 H   0  0  0  0  0  0  0  0  0  0  0  0
   34.2530   29.6080   31.5230 H   0  0  0  0  0  0  0  0  0  0  0  0
   33.9280   28.6110   33.8640 H   0  0  0  0  0  0  0  0  0  0  0  0
   37.2690   25.7920   33.2420 C   0  0  0  0  0  0  0  0  0  0  0  0
   37.0360   27.1360   33.5600 C   0  0  0  0  0  0  0  0  0  0  0  0
   36.1980   27.8410   32.6960 C   0  0  0  0  0  0  0  0  0  0  0  0
   35.6640   27.1830   31.6090 N   0  0  0  0  0  0  0  0  0  0  0  0
   35.9200   25.8860   31.3460 C   0  0  0  0  0  0  0  0  0  0  0  0
   36.7340   25.1740   32.1720 N   0  0  0  0  0  0  0  0  0  0  0  0
   37.9200   25.1670   33.8760 H   0  0  0  0  0  0  0  0  0  0  0  0
   37.4920   27.5560   34.4190 H   0  0  0  0  0  0  0  0  0  0  0  0
   35.3910   25.6020   30.4470 H   0  0  0  0  0  0  0  0  0  0  0  0
   31.9690   29.6700   35.0460 Cl  0  0  0  0  0  0  0  0  0  0  0  0
   33.4300   30.5500   35.4940 C   0  0  0  0  0  0  0  0  0  0  0  0
   34.6760   30.4390   34.8750 C   0  0  0  0  0  0  0  0  0  0  0  0
   35.7200   31.2030   35.3530 C   0  0  0  0  0  0  0  0  0  0  0  0
   36.6270   31.0280   34.7920 H   0  0  0  0  0  0  0  0  0  0  0  0
   35.5190   32.0510   36.4180 C   0  0  0  0  0  0  0  0  0  0  0  0
   36.4010   32.6090   36.7210 H   0  0  0  0  0  0  0  0  0  0  0  0
   34.2880   32.1620   37.0320 C   0  0  0  0  0  3  0  0  0  0  0  0
   33.2230   31.4100   36.5760 C   0  0  0  0  0  3  0  0  0  0  0  0
  1  4  1  1  0  0  0
  1  3  1  0  0  0  0
  2  1  1  0  0  0  0
  2  3  1  0  0  0  0
  3  7  1  1  0  0  0
  3 19  1  0  0  0  0
  5  2  1  0  0  0  0
  6  2  1  0  0  0  0
  8  9  1  0  0  0  0
  8 14  1  0  0  0  0
  9 15  1  0  0  0  0
 10  1  1  0  0  0  0
 10  9  2  0  0  0  0
 11 10  1  0  0  0  0
 12 11  2  0  0  0  0
 12 13  1  0  0  0  0
 13  8  2  0  0  0  0
 16 12  1  0  0  0  0
 17 18  1  0  0  0  0
 18 25  1  0  0  0  0
 19 20  1  0  0  0  0
 19 18  2  0  0  0  0
 20 22  2  0  0  0  0
 21 20  1  0  0  0  0
 22 23  1  0  0  0  0
 22 24  1  0  0  0  0
 25 24  2  0  0  0  0
M  END
>  <minimizedAffinity>
-4.68819904

$$$$

 OpenBabel03262521343D

 25 27  0  0  1  0  0  0  0  0999 V2000
   38.1960   25.6040   34.9570 C   0  0  1  0  0  0  0  0  0  0  0  0
   39.0440   26.3520   34.0630 C   0  0  0  0  0  0  0  0  0  0  0  0
   38.3730   25.0880   33.5060 C   0  0  2  0  0  0  0  0  0  0  0  0
   37.1400   25.9390   35.1720 H   0  0  0  0  0  0  0  0  0  0  0  0
   38.6620   27.3290   33.7090 H   0  0  0  0  0  0  0  0  0  0  0  0
   40.1470   26.3490   34.1680 H   0  0  0  0  0  0  0  0  0  0  0  0
   39.0070   24.2070   33.3390 H   0  0  0  0  0  0  0  0  0  0  0  0
   38.4540   23.4670   38.0110 C   0  0  0  0  0  0  0  0  0  0  0  0
   37.9280   24.3900   37.0980 C   0  0  0  0  0  0  0  0  0  0  0  0
   38.6850   24.6280   35.9510 C   0  0  0  0  0  0  0  0  0  0  0  0
   39.8770   23.9550   35.7930 N   0  0  0  0  0  0  0  0  0  0  0  0
   40.3410   23.0750   36.7020 C   0  0  0  0  0  0  0  0  0  0  0  0
   39.6230   22.8230   37.8310 N   0  0  0  0  0  0  0  0  0  0  0  0
   37.9150   23.2240   38.9410 H   0  0  0  0  0  0  0  0  0  0  0  0
   37.0020   24.8600   37.3070 H   0  0  0  0  0  0  0  0  0  0  0  0
   41.2860   22.6820   36.3560 H   0  0  0  0  0  0  0  0  0  0  0  0
   37.2360   22.4850   32.7250 Cl  0  0  0  0  0  0  0  0  0  0  0  0
   36.6710   24.0770   32.2190 C   0  0  0  0  0  0  0  0  0  0  0  0
   37.2230   25.3010   32.6000 C   0  0  0  0  0  0  0  0  0  0  0  0
   36.6570   26.4610   32.1120 C   0  0  0  0  0  0  0  0  0  0  0  0
   37.1720   27.3370   32.4780 H   0  0  0  0  0  0  0  0  0  0  0  0
   35.5720   26.3920   31.2680 C   0  0  0  0  0  0  0  0  0  0  0  0
   35.1980   27.3570   30.9380 H   0  0  0  0  0  0  0  0  0  0  0  0
   35.0250   25.1830   30.8900 C   0  0  0  0  0  3  0  0  0  0  0  0
   35.5690   24.0040   31.3630 C   0  0  0  0  0  3  0  0  0  0  0  0
  1  4  1  1  0  0  0
  1 10  1  0  0  0  0
  2  6  1  0  0  0  0
  2  1  1  0  0  0  0
  3  7  1  6  0  0  0
  3  2  1  0  0  0  0
  3  1  1  0  0  0  0
  5  2  1  0  0  0  0
  8 14  1  0  0  0  0
  9 15  1  0  0  0  0
  9  8  2  0  0  0  0
 10  9  1  0  0  0  0
 11 10  2  0  0  0  0
 11 12  1  0  0  0  0
 12 13  2  0  0  0  0
 13  8  1  0  0  0  0
 16 12  1  0  0  0  0
 18 19  1  0  0  0  0
 18 17  1  0  0  0  0
 19  3  1  0  0  0  0
 20 21  1  0  0  0  0
 20 19  2  0  0  0  0
 22 20  1  0  0  0  0
 23 22  1  0  0  0  0
 24 22  2  0  0  0  0
 24 25  1  0  0  0  0
 25 18  2  0  0  0  0
M  END
>  <minimizedAffinity>
-4.65180874

$$$$

 OpenBabel03262521343D

 25 27  0  0  1  0  0  0  0  0999 V2000
   38.6860   26.6010   35.3850 C   0  0  1  0  0  0  0  0  0  0  0  0
   39.5190   27.1340   34.3360 C   0  0  0  0  0  0  0  0  0  0  0  0
   38.1140   26.6520   33.9450 C   0  0  2  0  0  0  0  0  0  0  0  0
   38.1360   27.2850   36.0940 H   0  0  0  0  0  0  0  0  0  0  0  0
   39.6980   28.2270   34.3440 H   0  0  0  0  0  0  0  0  0  0  0  0
   40.3890   26.5730   33.9400 H   0  0  0  0  0  0  0  0  0  0  0  0
   38.0380   25.7130   33.3790 H   0  0  0  0  0  0  0  0  0  0  0  0
   37.9190   23.4350   37.2150 C   0  0  0  0  0  0  0  0  0  0  0  0
   37.7740   24.7490   36.7510 C   0  0  0  0  0  0  0  0  0  0  0  0
   38.7700   25.2180   35.8950 C   0  0  0  0  0  0  0  0  0  0  0  0
   39.8100   24.3760   35.5670 N   0  0  0  0  0  0  0  0  0  0  0  0
   39.9050   23.1190   36.0400 C   0  0  0  0  0  0  0  0  0  0  0  0
   38.9470   22.6340   36.8770 N   0  0  0  0  0  0  0  0  0  0  0  0
   37.1730   22.9920   37.8950 H   0  0  0  0  0  0  0  0  0  0  0  0
   36.9370   25.3220   37.0600 H   0  0  0  0  0  0  0  0  0  0  0  0
   40.8010   22.6630   35.6430 H   0  0  0  0  0  0  0  0  0  0  0  0
   38.0220   27.2420   31.0600 Cl  0  0  0  0  0  0  0  0  0  0  0  0
   37.0500   27.9970   32.3240 C   0  0  0  0  0  0  0  0  0  0  0  0
   37.1080   27.7040   33.6870 C   0  0  0  0  0  0  0  0  0  0  0  0
   36.2740   28.3910   34.5450 C   0  0  0  0  0  0  0  0  0  0  0  0
   36.4130   28.0750   35.5690 H   0  0  0  0  0  0  0  0  0  0  0  0
   35.4110   29.3410   34.0490 C   0  0  0  0  0  0  0  0  0  0  0  0
   34.7960   29.8260   34.8020 H   0  0  0  0  0  0  0  0  0  0  0  0
   35.3520   29.6330   32.7010 C   0  0  0  0  0  3  0  0  0  0  0  0
   36.1750   28.9610   31.8170 C   0  0  0  0  0  3  0  0  0  0  0  0
  1 10  1  0  0  0  0
  1  4  1  1  0  0  0
  2  5  1  0  0  0  0
  2  1  1  0  0  0  0
  3  7  1  6  0  0  0
  3  2  1  0  0  0  0
  3  1  1  0  0  0  0
  6  2  1  0  0  0  0
  8 14  1  0  0  0  0
  9 15  1  0  0  0  0
  9  8  2  0  0  0  0
 10  9  1  0  0  0  0
 11 10  2  0  0  0  0
 11 12  1  0  0  0  0
 12 13  2  0  0  0  0
 13  8  1  0  0  0  0
 16 12  1  0  0  0  0
 17 18  1  0  0  0  0
 18 19  1  0  0  0  0
 19  3  1  0  0  0  0
 19 20  2  0  0  0  0
 20 21  1  0  0  0  0
 22 20  1  0  0  0  0
 22 23  1  0  0  0  0
 24 22  2  0  0  0  0
 25 18  2  0  0  0  0
 25 24  1  0  0  0  0
M  END
>  <minimizedAffinity>
-4.58998489

$$$$

 OpenBabel03262521343D

 25 27  0  0  1  0  0  0  0  0999 V2000
   38.9020   26.8630   34.9170 C   0  0  1  0  0  0  0  0  0  0  0  0
   37.4800   26.8130   35.1480 C   0  0  0  0  0  0  0  0  0  0  0  0
   38.2170   25.4740   34.9930 C   0  0  2  0  0  0  0  0  0  0  0  0
   39.6230   27.0380   35.7670 H   0  0  0  0  0  0  0  0  0  0  0  0
   37.1270   27.0850   36.1620 H   0  0  0  0  0  0  0  0  0  0  0  0
   36.7520   27.0980   34.3630 H   0  0  0  0  0  0  0  0  0  0  0  0
   38.0640   24.9150   34.0600 H   0  0  0  0  0  0  0  0  0  0  0  0
   41.4460   27.4040   32.2340 C   0  0  0  0  0  0  0  0  0  0  0  0
   40.9160   27.1620   33.5080 C   0  0  0  0  0  0  0  0  0  0  0  0
   39.5260   27.0970   33.5990 C   0  0  0  0  0  0  0  0  0  0  0  0
   38.7790   27.2700   32.4540 N   0  0  0  0  0  0  0  0  0  0  0  0
   39.3370   27.5010   31.2500 C   0  0  0  0  0  0  0  0  0  0  0  0
   40.6910   27.5690   31.1310 N   0  0  0  0  0  0  0  0  0  0  0  0
   42.5350   27.4690   32.0800 H   0  0  0  0  0  0  0  0  0  0  0  0
   41.5720   27.0420   34.3320 H   0  0  0  0  0  0  0  0  0  0  0  0
   38.5510   27.6020   30.5150 H   0  0  0  0  0  0  0  0  0  0  0  0
   40.4470   23.5930   34.5870 Cl  0  0  0  0  0  0  0  0  0  0  0  0
   39.5050   23.8090   36.0620 C   0  0  0  0  0  0  0  0  0  0  0  0
   38.4500   24.7070   36.2360 C   0  0  0  0  0  0  0  0  0  0  0  0
   37.8160   24.7510   37.4600 C   0  0  0  0  0  0  0  0  0  0  0  0
   37.0210   25.4820   37.4690 H   0  0  0  0  0  0  0  0  0  0  0  0
   38.2290   23.9180   38.4760 C   0  0  0  0  0  0  0  0  0  0  0  0
   37.6680   24.0270   39.4010 H   0  0  0  0  0  0  0  0  0  0  0  0
   39.2700   23.0300   38.3060 C   0  0  0  0  0  3  0  0  0  0  0  0
   39.9260   22.9640   37.0910 C   0  0  0  0  0  3  0  0  0  0  0  0
  1  3  1  0  0  0  0
  1  2  1  0  0  0  0
  1  4  1  1  0  0  0
  2  5  1  0  0  0  0
  3  7  1  6  0  0  0
  3  2  1  0  0  0  0
  3 19  1  0  0  0  0
  6  2  1  0  0  0  0
  8  9  1  0  0  0  0
  9 10  2  0  0  0  0
  9 15  1  0  0  0  0
 10  1  1  0  0  0  0
 11 10  1  0  0  0  0
 12 11  2  0  0  0  0
 13 12  1  0  0  0  0
 13  8  2  0  0  0  0
 14  8  1  0  0  0  0
 16 12  1  0  0  0  0
 17 18  1  0  0  0  0
 18 19  2  0  0  0  0
 18 25  1  0  0  0  0
 19 20  1  0  0  0  0
 20 21  1  0  0  0  0
 20 22  2  0  0  0  0
 22 23  1  0  0  0  0
 24 22  1  0  0  0  0
 25 24  2  0  0  0  0
M  END
>  <minimizedAffinity>
-4.58002234

$$$$

 OpenBabel03262521343D

 25 27  0  0  1  0  0  0  0  0999 V2000
   37.8110   24.5770   33.6210 C   0  0  1  0  0  0  0  0  0  0  0  0
   38.4980   23.3130   33.5210 C   0  0  0  0  0  0  0  0  0  0  0  0
   39.0820   24.3600   34.4820 C   0  0  2  0  0  0  0  0  0  0  0  0
   36.8770   24.6820   34.2460 H   0  0  0  0  0  0  0  0  0  0  0  0
   37.9980   22.4330   33.9710 H   0  0  0  0  0  0  0  0  0  0  0  0
   39.0920   23.0420   32.6260 H   0  0  0  0  0  0  0  0  0  0  0  0
   40.0090   24.8650   34.1800 H   0  0  0  0  0  0  0  0  0  0  0  0
   37.6060   27.9520   32.0340 C   0  0  0  0  0  0  0  0  0  0  0  0
   37.4330   26.9390   32.9850 C   0  0  0  0  0  0  0  0  0  0  0  0
   37.9740   25.6930   32.6700 C   0  0  0  0  0  0  0  0  0  0  0  0
   38.6310   25.5420   31.4670 N   0  0  0  0  0  0  0  0  0  0  0  0
   38.7710   26.5500   30.5840 C   0  0  0  0  0  0  0  0  0  0  0  0
   38.2530   27.7770   30.8660 N   0  0  0  0  0  0  0  0  0  0  0  0
   37.2080   28.9650   32.2100 H   0  0  0  0  0  0  0  0  0  0  0  0
   36.9110   27.1500   33.8830 H   0  0  0  0  0  0  0  0  0  0  0  0
   39.3170   26.1870   29.7250 H   0  0  0  0  0  0  0  0  0  0  0  0
   41.1300   22.5140   35.5180 Cl  0  0  0  0  0  0  0  0  0  0  0  0
   39.8160   23.2530   36.4330 C   0  0  0  0  0  0  0  0  0  0  0  0
   38.8540   24.1260   35.9240 C   0  0  0  0  0  0  0  0  0  0  0  0
   37.8900   24.6170   36.7800 C   0  0  0  0  0  0  0  0  0  0  0  0
   37.2060   25.2800   36.2690 H   0  0  0  0  0  0  0  0  0  0  0  0
   37.8930   24.2410   38.1040 C   0  0  0  0  0  0  0  0  0  0  0  0
   37.0950   24.6800   38.6970 H   0  0  0  0  0  0  0  0  0  0  0  0
   38.8420   23.3770   38.6090 C   0  0  0  0  0  3  0  0  0  0  0  0
   39.8210   22.8700   37.7760 C   0  0  0  0  0  3  0  0  0  0  0  0
  1  4  1  1  0  0  0
  1  3  1  0  0  0  0
  2  1  1  0  0  0  0
  2  5  1  0  0  0  0
  2  3  1  0  0  0  0
  3  7  1  6  0  0  0
  3 19  1  0  0  0  0
  6  2  1  0  0  0  0
  8 14  1  0  0  0  0
  8  9  1  0  0  0  0
  9 15  1  0  0  0  0
 10  9  2  0  0  0  0
 10  1  1  0  0  0  0
 11 10  1  0  0  0  0
 12 13  1  0  0  0  0
 12 11  2  0  0  0  0
 13  8  2  0  0  0  0
 16 12  1  0  0  0  0
 17 18  1  0  0  0  0
 18 25  1  0  0  0  0
 19 18  2  0  0  0  0
 19 20  1  0  0  0  0
 20 22  2  0  0  0  0
 21 20  1  0  0  0  0
 22 24  1  0  0  0  0
 22 23  1  0  0  0  0
 25 24  2  0  0  0  0
M  END
>  <minimizedAffinity>
-4.39761353

$$$$

 OpenBabel03262521343D

 25 27  0  0  1  0  0  0  0  0999 V2000
   40.2800   26.6600   34.9190 C   0  0  1  0  0  0  0  0  0  0  0  0
   38.9470   26.5800   34.3740 C   0  0  0  0  0  0  0  0  0  0  0  0
   39.6280   25.2610   34.7700 C   0  0  2  0  0  0  0  0  0  0  0  0
   40.4500   26.9450   35.9970 H   0  0  0  0  0  0  0  0  0  0  0  0
   38.1200   26.9390   35.0180 H   0  0  0  0  0  0  0  0  0  0  0  0
   38.7460   26.7580   33.2990 H   0  0  0  0  0  0  0  0  0  0  0  0
   39.9760   24.6060   33.9600 H   0  0  0  0  0  0  0  0  0  0  0  0
   42.6600   27.5850   32.1910 C   0  0  0  0  0  0  0  0  0  0  0  0
   41.4680   27.5210   32.9250 C   0  0  0  0  0  0  0  0  0  0  0  0
   41.5070   26.7830   34.1080 C   0  0  0  0  0  0  0  0  0  0  0  0
   42.6910   26.1780   34.4710 N   0  0  0  0  0  0  0  0  0  0  0  0
   43.8120   26.2700   33.7300 C   0  0  0  0  0  0  0  0  0  0  0  0
   43.8030   26.9840   32.5710 N   0  0  0  0  0  0  0  0  0  0  0  0
   42.7090   28.1500   31.2460 H   0  0  0  0  0  0  0  0  0  0  0  0
   40.6050   28.0190   32.5640 H   0  0  0  0  0  0  0  0  0  0  0  0
   44.6000   25.7150   34.2190 H   0  0  0  0  0  0  0  0  0  0  0  0
   41.4360   23.0540   35.5020 Cl  0  0  0  0  0  0  0  0  0  0  0  0
   40.0030   23.5820   36.3850 C   0  0  0  0  0  0  0  0  0  0  0  0
   39.1570   24.6310   36.0220 C   0  0  0  0  0  0  0  0  0  0  0  0
   38.0750   24.9150   36.8290 C   0  0  0  0  0  0  0  0  0  0  0  0
   37.5000   25.7440   36.4420 H   0  0  0  0  0  0  0  0  0  0  0  0
   37.8490   24.1680   37.9620 C   0  0  0  0  0  0  0  0  0  0  0  0
   36.9730   24.4680   38.5310 H   0  0  0  0  0  0  0  0  0  0  0  0
   38.6840   23.1300   38.3230 C   0  0  0  0  0  3  0  0  0  0  0  0
   39.7770   22.8220   37.5360 C   0  0  0  0  0  3  0  0  0  0  0  0
  1  4  1  1  0  0  0
  2  3  1  0  0  0  0
  2  1  1  0  0  0  0
  2  5  1  0  0  0  0
  3  7  1  6  0  0  0
  3  1  1  0  0  0  0
  3 19  1  0  0  0  0
  6  2  1  0  0  0  0
  8 13  2  0  0  0  0
  8  9  1  0  0  0  0
  9 10  2  0  0  0  0
 10 11  1  0  0  0  0
 10  1  1  0  0  0  0
 12 16  1  0  0  0  0
 12 11  2  0  0  0  0
 13 12  1  0  0  0  0
 14  8  1  0  0  0  0
 15  9  1  0  0  0  0
 17 18  1  0  0  0  0
 18 25  1  0  0  0  0
 19 18  2  0  0  0  0
 19 20  1  0  0  0  0
 20 22  2  0  0  0  0
 21 20  1  0  0  0  0
 22 24  1  0  0  0  0
 22 23  1  0  0  0  0
 25 24  2  0  0  0  0
M  END
>  <minimizedAffinity>
-4.36312628

$$$$

 OpenBabel03262521343D

 25 27  0  0  1  0  0  0  0  0999 V2000
   37.1860   24.8330   32.6760 C   0  0  1  0  0  0  0  0  0  0  0  0
   37.7390   24.4380   31.4050 C   0  0  0  0  0  0  0  0  0  0  0  0
   37.7630   23.4000   32.5370 C   0  0  2  0  0  0  0  0  0  0  0  0
   36.0710   24.8360   32.8490 H   0  0  0  0  0  0  0  0  0  0  0  0
   37.0230   24.2710   30.5760 H   0  0  0  0  0  0  0  0  0  0  0  0
   38.7090   24.8330   31.0430 H   0  0  0  0  0  0  0  0  0  0  0  0
   38.7320   23.1790   33.0040 H   0  0  0  0  0  0  0  0  0  0  0  0
   39.6550   27.1100   34.3130 C   0  0  0  0  0  0  0  0  0  0  0  0
   38.9980   26.4000   33.3000 C   0  0  0  0  0  0  0  0  0  0  0  0
   37.9110   25.6210   33.6930 C   0  0  0  0  0  0  0  0  0  0  0  0
   37.5590   25.5990   35.0250 N   0  0  0  0  0  0  0  0  0  0  0  0
   38.2240   26.3000   35.9640 C   0  0  0  0  0  0  0  0  0  0  0  0
   39.2890   27.0700   35.6090 N   0  0  0  0  0  0  0  0  0  0  0  0
   40.5230   27.7490   34.0820 H   0  0  0  0  0  0  0  0  0  0  0  0
   39.3430   26.4790   32.3010 H   0  0  0  0  0  0  0  0  0  0  0  0
   37.7630   26.1210   36.9250 H   0  0  0  0  0  0  0  0  0  0  0  0
   37.6690   21.9390   35.0930 Cl  0  0  0  0  0  0  0  0  0  0  0  0
   36.7090   21.6060   33.6510 C   0  0  0  0  0  0  0  0  0  0  0  0
   36.7680   22.3100   32.4470 C   0  0  0  0  0  0  0  0  0  0  0  0
   35.9440   21.9170   31.4130 C   0  0  0  0  0  0  0  0  0  0  0  0
   36.0820   22.5380   30.5390 H   0  0  0  0  0  0  0  0  0  0  0  0
   35.0900   20.8510   31.5830 C   0  0  0  0  0  0  0  0  0  0  0  0
   34.4830   20.6190   30.7120 H   0  0  0  0  0  0  0  0  0  0  0  0
   35.0310   20.1540   32.7720 C   0  0  0  0  0  3  0  0  0  0  0  0
   35.8430   20.5230   33.8260 C   0  0  0  0  0  3  0  0  0  0  0  0
  1  4  1  1  0  0  0
  1 10  1  0  0  0  0
  2  3  1  0  0  0  0
  2  1  1  0  0  0  0
  3  1  1  0  0  0  0
  3  7  1  1  0  0  0
  5  2  1  0  0  0  0
  6  2  1  0  0  0  0
  8 13  1  0  0  0  0
  9 10  1  0  0  0  0
  9  8  2  0  0  0  0
 10 11  2  0  0  0  0
 11 12  1  0  0  0  0
 12 16  1  0  0  0  0
 13 12  2  0  0  0  0
 14  8  1  0  0  0  0
 15  9  1  0  0  0  0
 18 25  1  0  0  0  0
 18 17  1  0  0  0  0
 19  3  1  0  0  0  0
 19 18  2  0  0  0  0
 20 22  2  0  0  0  0
 20 19  1  0  0  0  0
 21 20  1  0  0  0  0
 22 24  1  0  0  0  0
 23 22  1  0  0  0  0
 24 25  2  0  0  0  0
M  END
>  <minimizedAffinity>
-4.28715515

$$$$
