
 OpenBabel03272501353D

 36 39  0  0  1  0  0  0  0  0999 V2000
   38.7930   32.1240   47.4950 C   0  0  2  0  0  0  0  0  0  0  0  0
   39.4490   33.1880   47.8280 O   0  0  0  0  0  0  0  0  0  0  0  0
   37.5410   30.6520   50.6830 C   0  0  0  0  0  0  0  0  0  0  0  0
   38.2860   31.3440   49.7550 C   0  0  0  0  0  0  0  0  0  0  0  0
   37.9380   31.4010   48.3890 C   0  0  0  0  0  0  0  0  0  0  0  0
   36.8570   30.7570   48.0380 N   0  0  0  0  0  0  0  0  0  0  0  0
   36.1180   30.0660   48.9790 C   0  0  0  0  0  0  0  0  0  0  0  0
   36.4400   30.0090   50.2600 N   0  0  0  0  0  0  0  0  0  0  0  0
   37.8930   30.6690   51.7060 H   0  0  0  0  0  0  0  0  0  0  0  0
   39.1910   31.8750   50.0880 H   0  0  0  0  0  0  0  0  0  0  0  0
   35.5780   30.1300   45.9740 Cl  0  0  0  0  0  0  0  0  0  0  0  0
   34.5730   29.3310   47.1680 C   0  0  0  0  0  0  0  0  0  0  0  0
   34.9260   29.3750   48.5010 C   0  0  0  0  0  0  0  0  0  0  0  0
   34.0850   28.7230   49.3860 C   0  0  0  0  0  0  0  0  0  0  0  0
   34.3700   28.7600   50.4420 H   0  0  0  0  0  0  0  0  0  0  0  0
   32.9310   28.0360   49.0510 C   0  0  0  0  0  0  0  0  0  0  0  0
   32.3620   27.5680   49.8400 H   0  0  0  0  0  0  0  0  0  0  0  0
   32.6340   28.0270   47.7220 C   0  0  0  0  0  0  0  0  0  0  0  0
   33.4160   28.6530   46.7700 C   0  0  0  0  0  0  0  0  0  0  0  0
   38.9350   31.6000   46.0850 C   0  0  2  0  0  0  0  0  0  0  0  0
   40.4690   31.1970   45.8950 C   0  0  0  0  0  0  0  0  0  0  0  0
   39.7510   32.2840   45.1380 C   0  0  1  0  0  0  0  0  0  0  0  0
   38.3170   30.6930   45.8130 H   0  0  0  0  0  0  0  0  0  0  0  0
   40.6260   30.2300   45.3620 H   0  0  0  0  0  0  0  0  0  0  0  0
   41.1720   31.5240   46.6470 H   0  0  0  0  0  0  0  0  0  0  0  0
   40.0370   33.3500   45.4180 H   0  0  0  0  0  0  0  0  0  0  0  0
   39.7050   32.1170   43.6820 C   0  0  0  0  0  0  0  0  0  0  0  0
   39.0000   33.0400   42.9530 C   0  0  0  0  0  0  0  0  0  0  0  0
   38.9570   32.8850   41.5880 C   0  0  0  0  0  0  0  0  0  0  0  0
   39.6010   31.8340   40.9510 C   0  0  0  0  0  0  0  0  0  0  0  0
   40.2950   30.9330   41.7130 C   0  0  0  0  0  0  0  0  0  0  0  0
   40.3290   31.0950   43.0470 N   0  0  0  0  0  0  0  0  0  0  0  0
   38.4770   33.8800   43.3700 H   0  0  0  0  0  0  0  0  0  0  0  0
   38.4120   33.5920   40.9820 H   0  0  0  0  0  0  0  0  0  0  0  0
   39.5210   31.7780   39.8660 H   0  0  0  0  0  0  0  0  0  0  0  0
   40.8060   30.1010   41.2260 H   0  0  0  0  0  0  0  0  0  0  0  0
  1  2  1  1  0  0  0
  1  5  1  0  0  0  0
  3  9  1  0  0  0  0
  4 10  1  0  0  0  0
  4  3  2  0  0  0  0
  5  4  1  0  0  0  0
  6  5  2  0  0  0  0
  6  7  1  0  0  0  0
  7  8  2  0  0  0  0
  8  3  1  0  0  0  0
 11 12  1  0  0  0  0
 12 13  1  0  0  0  0
 13  7  1  0  0  0  0
 13 14  2  0  0  0  0
 14 15  1  0  0  0  0
 16 14  1  0  0  0  0
 16 17  1  0  0  0  0
 18 16  2  0  0  0  0
 19 12  2  0  0  0  0
 19 18  1  0  0  0  0
 20 23  1  6  0  0  0
 20  1  1  0  0  0  0
 21 20  1  0  0  0  0
 21 25  1  0  0  0  0
 22 26  1  1  0  0  0
 22 21  1  0  0  0  0
 22 20  1  0  0  0  0
 24 21  1  0  0  0  0
 27 22  1  0  0  0  0
 28 33  1  0  0  0  0
 28 27  2  0  0  0  0
 29 28  1  0  0  0  0
 30 29  2  0  0  0  0
 30 31  1  0  0  0  0
 31 32  2  0  0  0  0
 32 27  1  0  0  0  0
 34 29  1  0  0  0  0
 35 30  1  0  0  0  0
 36 31  1  0  0  0  0
M  END
>  <minimizedAffinity>
-6.45272303

>  <minimizedRMSD>
1.87269175

$$$$
