
     RDKit          3D

 42 46  0  0  0  0  0  0  0  0999 V2000
   35.5460   29.6957   49.8090 C   0  0  0  0  0  0  0  0  0  0  0  0
   36.5385   29.5331   50.7538 C   0  0  0  0  0  0  0  0  0  0  0  0
   37.6675   30.0796   50.1447 C   0  0  0  0  0  0  0  0  0  0  0  0
   37.3210   30.5380   48.8905 C   0  0  0  0  0  0  0  0  0  0  0  0
   36.0418   30.2884   48.7298 O   0  0  0  0  0  0  0  0  0  0  0  0
   38.6209   32.4651   48.1329 C   0  0  0  0  0  0  0  0  0  0  0  0
   38.1929   31.1748   47.9258 C   0  0  0  0  0  0  0  0  0  0  0  0
   38.5838   30.4547   46.7934 C   0  0  0  0  0  0  0  0  0  0  0  0
   39.4160   31.0341   45.8529 C   0  0  0  0  0  0  0  0  0  0  0  0
   39.9586   30.6198   44.6883 N   0  0  0  0  0  0  0  0  0  0  0  0
   40.6860   31.6217   44.2111 N   0  0  0  0  0  0  0  0  0  0  0  0
   40.6168   32.6700   45.0525 C   0  0  0  0  0  0  0  0  0  0  0  0
   39.8102   32.3257   46.1154 C   0  0  0  0  0  0  0  0  0  0  0  0
   39.4679   33.0921   47.2016 C   0  0  0  0  0  0  0  0  0  0  0  0
   34.1727   29.2744   49.9892 C   0  0  0  0  0  0  0  0  0  0  0  0
   33.5027   29.8074   50.9033 O   0  0  0  0  0  0  0  0  0  0  0  0
   31.6917   27.1603   48.3600 C   0  0  0  0  0  0  0  0  0  0  0  0
   32.4595   26.3694   47.5242 C   0  0  0  0  0  0  0  0  0  0  0  0
   33.8297   26.5378   47.4975 C   0  0  0  0  0  0  0  0  0  0  0  0
   34.3552   27.4820   48.3030 N   0  0  0  0  0  0  0  0  0  0  0  0
   33.5955   28.2479   49.1147 C   0  0  0  0  0  0  0  0  0  0  0  0
   32.2680   28.0762   49.1326 N   0  0  0  0  0  0  0  0  0  0  0  0
   36.5324   29.1032   51.7396 H   0  0  0  0  0  0  0  0  0  0  0  0
   38.6847   30.1671   50.5278 H   0  0  0  0  0  0  0  0  0  0  0  0
   38.3119   33.0218   49.0195 H   0  0  0  0  0  0  0  0  0  0  0  0
   38.2721   29.4319   46.5846 H   0  0  0  0  0  0  0  0  0  0  0  0
   39.7883   29.6669   44.3001 H   0  0  0  0  0  0  0  0  0  0  0  0
   41.1257   33.6350   44.9025 H   0  0  0  0  0  0  0  0  0  0  0  0
   39.8269   34.1043   47.3266 H   0  0  0  0  0  0  0  0  0  0  0  0
   30.6072   27.0719   48.4228 H   0  0  0  0  0  0  0  0  0  0  0  0
   31.9716   25.6374   46.9104 H   0  0  0  0  0  0  0  0  0  0  0  0
   33.8030   27.2800   44.6332 Cl  0  0  0  0  0  0  0  0  0  0  0  0
   34.7597   25.9998   45.2964 C   0  0  0  0  0  0  0  0  0  0  0  0
   34.6981   25.7375   46.6435 C   0  0  0  0  0  0  0  0  0  0  0  0
   35.4934   24.7036   47.0867 C   0  0  0  0  0  0  0  0  0  0  0  0
   35.4870   24.4506   48.1375 H   0  0  0  0  0  0  0  0  0  0  0  0
   36.3020   23.9705   46.2531 C   0  0  0  0  0  0  0  0  0  0  0  0
   36.9216   23.1561   46.6330 H   0  0  0  0  0  0  0  0  0  0  0  0
   36.3363   24.2640   44.9074 C   0  0  0  0  0  0  0  0  0  0  0  0
   35.5611   25.2874   44.4126 C   0  0  0  0  0  0  0  0  0  0  0  0
   36.9902   23.6592   44.2808 H   0  0  0  0  0  0  0  0  0  0  0  0
   35.5783   25.5295   43.3550 H   0  0  0  0  0  0  0  0  0  0  0  0
  1 15  1  0
  1  2  2  0
  3  2  1  0
  4  3  2  0
  5  4  1  0
  5  1  1  0
  7  6  2  0
  7  4  1  0
  8  7  1  0
  9 13  1  0
  9  8  2  0
 10  9  1  0
 11 10  1  0
 11 12  2  0
 12 13  1  0
 13 14  2  0
 14  6  1  0
 15 16  2  0
 17 22  2  0
 18 17  1  0
 19 18  2  0
 19 20  1  0
 20 21  2  0
 21 22  1  0
 21 15  1  0
  2 23  1  0
  3 24  1  0
  6 25  1  0
  8 26  1  0
 10 27  1  0
 12 28  1  0
 14 29  1  0
 17 30  1  0
 18 31  1  0
 32 33  1  0
 33 34  2  0
 34 35  1  0
 35 36  1  0
 35 37  2  0
 37 38  1  0
 37 39  1  0
 39 40  2  0
 40 33  1  0
 39 41  1  0
 40 42  1  0
 19 34  1  0
M  ISO  8  23  14  24  14  25  14  26  14  27   9  28  14  29  14  30  14
M  ISO  3  31  14  36  15  38  16
M  END
>  <DihAtoms>  (1) 
17,18,33,32

>  <DihDeg>  (1) 
-179.1516563104551

$$$$
