
 OpenBabel03272510203D

 36 39  0  0  0  0  0  0  0  0999 V2000
   37.2330   29.2580   50.9940 Br  0  0  0  0  0  0  0  0  0  0  0  0
   35.9120   29.3150   49.6300 C   0  0  0  0  0  0  0  0  0  0  0  0
   35.9550   30.2910   48.6380 C   0  0  0  0  0  0  0  0  0  0  0  0
   34.9650   30.2680   47.6850 C   0  0  0  0  0  0  0  0  0  0  0  0
   33.9470   29.3450   47.6590 C   0  0  0  0  0  0  0  0  0  0  0  0
   33.9280   28.3930   48.6490 C   0  0  0  0  0  0  0  0  0  0  0  0
   34.9080   28.3880   49.6210 C   0  0  0  0  0  0  0  0  0  0  0  0
   35.0090   31.0280   46.9240 H   0  0  0  0  0  0  0  0  0  0  0  0
   33.1370   27.6470   48.6580 H   0  0  0  0  0  0  0  0  0  0  0  0
   34.8290   27.6040   50.3730 H   0  0  0  0  0  0  0  0  0  0  0  0
   37.9130   33.2100   49.5990 C   0  0  0  0  0  0  0  0  0  0  0  0
   38.9800   33.2190   48.6540 C   0  0  0  0  0  0  0  0  0  0  0  0
   38.9980   32.2110   47.7010 C   0  0  0  0  0  0  0  0  0  0  0  0
   38.0080   31.2790   47.7220 N   0  0  0  0  0  0  0  0  0  0  0  0
   37.0120   31.2910   48.6220 C   0  0  0  0  0  0  0  0  0  0  0  0
   36.9670   32.2640   49.5660 N   0  0  0  0  0  0  0  0  0  0  0  0
   37.8890   33.9890   50.3430 H   0  0  0  0  0  0  0  0  0  0  0  0
   39.7250   33.9960   48.7110 H   0  0  0  0  0  0  0  0  0  0  0  0
   39.7930   32.1810   46.9650 H   0  0  0  0  0  0  0  0  0  0  0  0
   32.8970   29.3200   46.6490 C   0  0  0  0  0  0  0  0  0  0  0  0
   32.0650   28.2460   46.4080 C   0  0  0  0  0  0  0  0  0  0  0  0
   31.0780   28.2770   45.4320 C   0  0  0  0  0  0  0  0  0  0  0  0
   30.9190   29.3860   44.6870 N   0  0  0  0  0  0  0  0  0  0  0  0
   31.7320   30.4350   44.9200 C   0  0  0  0  0  0  0  0  0  0  0  0
   32.6710   30.3910   45.8580 N   0  0  0  0  0  0  0  0  0  0  0  0
   32.2000   27.3570   47.0130 H   0  0  0  0  0  0  0  0  0  0  0  0
   30.4840   27.3710   45.3340 H   0  0  0  0  0  0  0  0  0  0  0  0
   28.9300   31.6490   44.8580 Cl  0  0  0  0  0  0  0  0  0  0  0  0
   30.3210   32.2630   43.9940 C   0  0  0  0  0  0  0  0  0  0  0  0
   31.5420   31.6280   44.0990 C   0  0  0  0  0  0  0  0  0  0  0  0
   32.6330   32.1430   43.3980 C   0  0  0  0  0  0  0  0  0  0  0  0
   33.6080   31.6980   43.4360 H   0  0  0  0  0  0  0  0  0  0  0  0
   32.3990   33.2740   42.6360 C   0  0  0  0  0  0  0  0  0  0  0  0
   33.2310   33.7010   42.0750 H   0  0  0  0  0  0  0  0  0  0  0  0
   31.1800   33.9110   42.5290 C   0  0  0  0  0  3  0  0  0  0  0  0
   30.0900   33.3910   43.2330 C   0  0  0  0  0  3  0  0  0  0  0  0
  2  1  1  0  0  0  0
  3  2  2  0  0  0  0
  4  3  1  0  0  0  0
  5  4  2  0  0  0  0
  5  6  1  0  0  0  0
  6  9  1  0  0  0  0
  6  7  2  0  0  0  0
  7  2  1  0  0  0  0
  7 10  1  0  0  0  0
  8  4  1  0  0  0  0
 11 17  1  0  0  0  0
 12 18  1  0  0  0  0
 12 11  2  0  0  0  0
 13 14  2  0  0  0  0
 13 12  1  0  0  0  0
 14 15  1  0  0  0  0
 15  3  1  0  0  0  0
 15 16  2  0  0  0  0
 16 11  1  0  0  0  0
 19 13  1  0  0  0  0
 20  5  1  0  0  0  0
 21 20  1  0  0  0  0
 21 26  1  0  0  0  0
 22 21  2  0  0  0  0
 23 24  2  0  0  0  0
 23 22  1  0  0  0  0
 24 25  1  0  0  0  0
 25 20  2  0  0  0  0
 27 22  1  0  0  0  0
 29 30  1  0  0  0  0
 29 28  1  0  0  0  0
 30 24  1  0  0  0  0
 31 32  1  0  0  0  0
 31 30  2  0  0  0  0
 33 31  1  0  0  0  0
 34 33  1  0  0  0  0
 35 33  2  0  0  0  0
 35 36  1  0  0  0  0
 36 29  2  0  0  0  0
M  END
>  <minimizedAffinity>
-6.47404099

>  <minimizedRMSD>
0.659481347

$$$$
