
 OpenBabel03272503573D

 34 37  0  0  0  0  0  0  0  0999 V2000
   36.0500   29.6880   31.5730 C   0  0  0  0  0  0  0  0  0  0  0  0
   35.4720   30.4310   32.6210 C   0  0  0  0  0  0  0  0  0  0  0  0
   35.4300   29.7970   33.8350 C   0  0  0  0  0  0  0  0  0  0  0  0
   35.9210   28.5780   33.9080 N   0  0  0  0  0  0  0  0  0  0  0  0
   36.4640   27.8460   32.9760 C   0  0  0  0  0  0  0  0  0  0  0  0
   36.5020   28.4660   31.8050 N   0  0  0  0  0  0  0  0  0  0  0  0
   35.1530   31.3860   32.3020 H   0  0  0  0  0  0  0  0  0  0  0  0
   37.0380   26.5100   32.9200 C   0  0  0  0  0  0  0  0  0  0  0  0
   36.4550   25.4820   32.2470 N   0  0  0  0  0  0  0  0  0  0  0  0
   36.9980   24.2660   32.1970 C   0  0  0  0  0  0  0  0  0  0  0  0
   38.1550   23.9380   32.7930 N   0  0  0  0  0  0  0  0  0  0  0  0
   38.7810   24.9020   33.4710 C   0  0  0  0  0  0  0  0  0  0  0  0
   39.9690   24.5840   34.0900 C   0  0  0  0  0  0  0  0  0  0  0  0
   40.6660   25.5470   34.8100 C   0  0  0  0  0  0  0  0  0  0  0  0
   40.1080   26.8050   34.8690 C   0  0  0  0  0  0  0  0  0  0  0  0
   38.9200   27.0810   34.2380 C   0  0  0  0  0  0  0  0  0  0  0  0
   38.2140   26.1620   33.5220 C   0  0  0  0  0  0  0  0  0  0  0  0
   36.4210   23.5340   31.6210 H   0  0  0  0  0  0  0  0  0  0  0  0
   40.3600   23.5650   34.0060 H   0  0  0  0  0  0  0  0  0  0  0  0
   41.5910   25.2950   35.2900 H   0  0  0  0  0  0  0  0  0  0  0  0
   40.6850   27.5190   35.4400 H   0  0  0  0  0  0  0  0  0  0  0  0
   38.5990   28.0710   34.3790 H   0  0  0  0  0  0  0  0  0  0  0  0
   32.4550   29.4050   34.6470 Cl  0  0  0  0  0  0  0  0  0  0  0  0
   33.5930   30.4960   35.3980 C   0  0  0  0  0  0  0  0  0  0  0  0
   34.8860   30.5560   34.9250 C   0  0  0  0  0  0  0  0  0  0  0  0
   35.6590   31.4410   35.6470 C   0  0  0  0  0  0  0  0  0  0  0  0
   36.6960   31.6400   35.4410 H   0  0  0  0  0  0  0  0  0  0  0  0
   35.1940   32.1750   36.7090 C   0  0  0  0  0  0  0  0  0  0  0  0
   35.8150   32.8760   37.2770 H   0  0  0  0  0  0  0  0  0  0  0  0
   33.8950   32.0760   37.1380 C   0  0  0  0  0  3  0  0  0  0  0  0
   33.0790   31.2100   36.4580 C   0  0  0  0  0  3  0  0  0  0  0  0
   36.1950   30.2380   30.2250 N   0  0  0  0  0  0  0  0  0  0  0  0
   35.3510   29.9270   29.7050 H   0  0  0  0  0  0  0  0  0  0  0  0
   37.0700   30.7920   30.0910 H   0  0  0  0  0  0  0  0  0  0  0  0
  1  6  2  0  0  0  0
  1  2  1  0  0  0  0
  2  3  2  0  0  0  0
  3  4  1  0  0  0  0
  3 25  1  0  0  0  0
  5  4  2  0  0  0  0
  6  5  1  0  0  0  0
  7  2  1  0  0  0  0
  8  5  1  0  0  0  0
  8 17  1  0  0  0  0
  9  8  2  0  0  0  0
 10  9  1  0  0  0  0
 10 11  2  0  0  0  0
 11 12  1  0  0  0  0
 12 17  2  0  0  0  0
 12 13  1  0  0  0  0
 13 14  2  0  0  0  0
 14 15  1  0  0  0  0
 14 20  1  0  0  0  0
 15 21  1  0  0  0  0
 16 22  1  0  0  0  0
 16 15  2  0  0  0  0
 17 16  1  0  0  0  0
 18 10  1  0  0  0  0
 19 13  1  0  0  0  0
 23 24  1  0  0  0  0
 24 31  1  0  0  0  0
 25 24  2  0  0  0  0
 25 26  1  0  0  0  0
 26 28  2  0  0  0  0
 27 26  1  0  0  0  0
 28 30  1  0  0  0  0
 28 29  1  0  0  0  0
 31 30  2  0  0  0  0
 32  1  1  0  0  0  0
 33 32  1  0  0  0  0
 34 32  1  0  0  0  0
M  END
>  <minimizedAffinity>
-6.49031067

$$$$

 OpenBabel03272503573D

 34 37  0  0  0  0  0  0  0  0999 V2000
   36.8410   28.1280   30.8140 C   0  0  0  0  0  0  0  0  0  0  0  0
   37.8600   27.4030   31.4640 C   0  0  0  0  0  0  0  0  0  0  0  0
   37.7500   27.3310   32.8280 C   0  0  0  0  0  0  0  0  0  0  0  0
   36.7250   27.9340   33.3940 N   0  0  0  0  0  0  0  0  0  0  0  0
   35.7590   28.6150   32.8450 C   0  0  0  0  0  0  0  0  0  0  0  0
   35.8710   28.6800   31.5260 N   0  0  0  0  0  0  0  0  0  0  0  0
   38.5690   27.0170   30.7830 H   0  0  0  0  0  0  0  0  0  0  0  0
   34.5860   29.3200   33.3410 C   0  0  0  0  0  0  0  0  0  0  0  0
   33.3380   29.1260   32.8360 N   0  0  0  0  0  0  0  0  0  0  0  0
   32.2720   29.7710   33.3080 C   0  0  0  0  0  0  0  0  0  0  0  0
   32.3180   30.6610   34.3110 N   0  0  0  0  0  0  0  0  0  0  0  0
   33.5140   30.8990   34.8530 C   0  0  0  0  0  0  0  0  0  0  0  0
   33.5830   31.8090   35.8840 C   0  0  0  0  0  0  0  0  0  0  0  0
   34.8010   32.0980   36.4870 C   0  0  0  0  0  0  0  0  0  0  0  0
   35.9080   31.4360   36.0020 C   0  0  0  0  0  0  0  0  0  0  0  0
   35.7970   30.5350   34.9720 C   0  0  0  0  0  0  0  0  0  0  0  0
   34.6190   30.2280   34.3610 C   0  0  0  0  0  0  0  0  0  0  0  0
   31.3300   29.5180   32.8070 H   0  0  0  0  0  0  0  0  0  0  0  0
   32.6660   32.3020   36.2240 H   0  0  0  0  0  0  0  0  0  0  0  0
   34.8490   32.8070   37.2900 H   0  0  0  0  0  0  0  0  0  0  0  0
   36.8310   31.6940   36.5020 H   0  0  0  0  0  0  0  0  0  0  0  0
   36.7190   30.1190   34.6880 H   0  0  0  0  0  0  0  0  0  0  0  0
   37.4710   24.2390   32.9630 Cl  0  0  0  0  0  0  0  0  0  0  0  0
   38.7670   25.1880   33.6470 C   0  0  0  0  0  0  0  0  0  0  0  0
   38.7530   26.5580   33.5020 C   0  0  0  0  0  0  0  0  0  0  0  0
   39.8620   27.1490   34.0720 C   0  0  0  0  0  0  0  0  0  0  0  0
   40.0430   28.2100   34.0710 H   0  0  0  0  0  0  0  0  0  0  0  0
   40.8590   26.4540   34.7080 C   0  0  0  0  0  0  0  0  0  0  0  0
   41.7360   26.9320   35.1580 H   0  0  0  0  0  0  0  0  0  0  0  0
   40.8220   25.0880   34.8240 C   0  0  0  0  0  3  0  0  0  0  0  0
   39.7430   24.4450   34.2760 C   0  0  0  0  0  3  0  0  0  0  0  0
   36.8020   28.2700   29.3600 N   0  0  0  0  0  0  0  0  0  0  0  0
   37.2870   29.1660   29.1530 H   0  0  0  0  0  0  0  0  0  0  0  0
   36.3190   27.4820   28.8740 H   0  0  0  0  0  0  0  0  0  0  0  0
  1  2  2  0  0  0  0
  1  6  1  0  0  0  0
  2  3  1  0  0  0  0
  3  4  2  0  0  0  0
  3 25  1  0  0  0  0
  5  8  1  0  0  0  0
  5  4  1  0  0  0  0
  6  5  2  0  0  0  0
  7  2  1  0  0  0  0
  8 17  1  0  0  0  0
  9 10  1  0  0  0  0
  9  8  2  0  0  0  0
 10 11  2  0  0  0  0
 11 12  1  0  0  0  0
 12 13  1  0  0  0  0
 13 19  1  0  0  0  0
 13 14  2  0  0  0  0
 14 20  1  0  0  0  0
 15 14  1  0  0  0  0
 15 21  1  0  0  0  0
 16 15  2  0  0  0  0
 17 12  2  0  0  0  0
 17 16  1  0  0  0  0
 18 10  1  0  0  0  0
 22 16  1  0  0  0  0
 23 24  1  0  0  0  0
 24 31  1  0  0  0  0
 25 24  2  0  0  0  0
 25 26  1  0  0  0  0
 26 28  2  0  0  0  0
 27 26  1  0  0  0  0
 28 30  1  0  0  0  0
 28 29  1  0  0  0  0
 31 30  2  0  0  0  0
 32  1  1  0  0  0  0
 33 32  1  0  0  0  0
 34 32  1  0  0  0  0
M  END
>  <minimizedAffinity>
-6.47965527

$$$$

 OpenBabel03272503573D

 34 37  0  0  0  0  0  0  0  0999 V2000
   36.1750   29.7140   31.5550 C   0  0  0  0  0  0  0  0  0  0  0  0
   35.5180   30.4030   32.5950 C   0  0  0  0  0  0  0  0  0  0  0  0
   35.5470   29.7840   33.8170 C   0  0  0  0  0  0  0  0  0  0  0  0
   36.1720   28.6290   33.9060 N   0  0  0  0  0  0  0  0  0  0  0  0
   36.7930   27.9500   32.9830 C   0  0  0  0  0  0  0  0  0  0  0  0
   36.7620   28.5540   31.8040 N   0  0  0  0  0  0  0  0  0  0  0  0
   35.0940   31.3110   32.2630 H   0  0  0  0  0  0  0  0  0  0  0  0
   37.5130   26.6860   32.9450 C   0  0  0  0  0  0  0  0  0  0  0  0
   38.7460   26.5200   33.4940 N   0  0  0  0  0  0  0  0  0  0  0  0
   39.3890   25.3530   33.4590 C   0  0  0  0  0  0  0  0  0  0  0  0
   38.8950   24.2430   32.8900 N   0  0  0  0  0  0  0  0  0  0  0  0
   37.6870   24.3360   32.3300 C   0  0  0  0  0  0  0  0  0  0  0  0
   37.1630   23.2070   31.7410 C   0  0  0  0  0  0  0  0  0  0  0  0
   35.9090   23.2440   31.1430 C   0  0  0  0  0  0  0  0  0  0  0  0
   35.2400   24.4490   31.1730 C   0  0  0  0  0  0  0  0  0  0  0  0
   35.7980   25.5510   31.7710 C   0  0  0  0  0  0  0  0  0  0  0  0
   37.0220   25.5490   32.3680 C   0  0  0  0  0  0  0  0  0  0  0  0
   40.3740   25.3630   33.9400 H   0  0  0  0  0  0  0  0  0  0  0  0
   37.7450   22.2800   31.7510 H   0  0  0  0  0  0  0  0  0  0  0  0
   35.5050   22.3620   30.6860 H   0  0  0  0  0  0  0  0  0  0  0  0
   34.2710   24.4280   30.6950 H   0  0  0  0  0  0  0  0  0  0  0  0
   35.1920   26.4070   31.7050 H   0  0  0  0  0  0  0  0  0  0  0  0
   32.5230   29.3500   34.3930 Cl  0  0  0  0  0  0  0  0  0  0  0  0
   33.5990   30.4090   35.2720 C   0  0  0  0  0  0  0  0  0  0  0  0
   34.9230   30.4930   34.8970 C   0  0  0  0  0  0  0  0  0  0  0  0
   35.6370   31.3470   35.7120 C   0  0  0  0  0  0  0  0  0  0  0  0
   36.6850   31.5560   35.5910 H   0  0  0  0  0  0  0  0  0  0  0  0
   35.0920   32.0310   36.7700 C   0  0  0  0  0  0  0  0  0  0  0  0
   35.6670   32.7070   37.4110 H   0  0  0  0  0  0  0  0  0  0  0  0
   33.7660   31.9100   37.0980 C   0  0  0  0  0  3  0  0  0  0  0  0
   33.0060   31.0740   36.3230 C   0  0  0  0  0  3  0  0  0  0  0  0
   36.2580   30.2580   30.2000 N   0  0  0  0  0  0  0  0  0  0  0  0
   35.4530   29.8480   29.6860 H   0  0  0  0  0  0  0  0  0  0  0  0
   37.0650   30.9040   30.0560 H   0  0  0  0  0  0  0  0  0  0  0  0
  1  6  2  0  0  0  0
  1  2  1  0  0  0  0
  2  3  2  0  0  0  0
  3  4  1  0  0  0  0
  3 25  1  0  0  0  0
  5  4  2  0  0  0  0
  6  5  1  0  0  0  0
  7  2  1  0  0  0  0
  8  5  1  0  0  0  0
  8  9  1  0  0  0  0
 10  9  2  0  0  0  0
 10 18  1  0  0  0  0
 11 10  1  0  0  0  0
 12 17  1  0  0  0  0
 12 11  2  0  0  0  0
 13 19  1  0  0  0  0
 13 12  1  0  0  0  0
 14 15  1  0  0  0  0
 14 13  2  0  0  0  0
 15 16  2  0  0  0  0
 16 17  1  0  0  0  0
 17  8  2  0  0  0  0
 20 14  1  0  0  0  0
 21 15  1  0  0  0  0
 22 16  1  0  0  0  0
 23 24  1  0  0  0  0
 24 31  1  0  0  0  0
 25 24  2  0  0  0  0
 25 26  1  0  0  0  0
 26 28  2  0  0  0  0
 27 26  1  0  0  0  0
 28 30  1  0  0  0  0
 28 29  1  0  0  0  0
 31 30  2  0  0  0  0
 32  1  1  0  0  0  0
 33 32  1  0  0  0  0
 34 32  1  0  0  0  0
M  END
>  <minimizedAffinity>
-6.42399502

$$$$

 OpenBabel03272503573D

 34 37  0  0  0  0  0  0  0  0999 V2000
   36.4830   23.4790   31.9420 C   0  0  0  0  0  0  0  0  0  0  0  0
   36.2050   24.8290   31.6450 C   0  0  0  0  0  0  0  0  0  0  0  0
   36.9760   25.7460   32.3100 C   0  0  0  0  0  0  0  0  0  0  0  0
   37.8830   25.2920   33.1480 N   0  0  0  0  0  0  0  0  0  0  0  0
   38.1810   24.0630   33.4620 C   0  0  0  0  0  0  0  0  0  0  0  0
   37.4330   23.1810   32.8140 N   0  0  0  0  0  0  0  0  0  0  0  0
   35.4280   24.9270   30.9370 H   0  0  0  0  0  0  0  0  0  0  0  0
   39.1430   23.4320   34.3540 C   0  0  0  0  0  0  0  0  0  0  0  0
   40.2540   22.7870   33.9070 N   0  0  0  0  0  0  0  0  0  0  0  0
   41.1300   22.2230   34.7370 C   0  0  0  0  0  0  0  0  0  0  0  0
   41.0100   22.2330   36.0730 N   0  0  0  0  0  0  0  0  0  0  0  0
   39.9400   22.8500   36.5800 C   0  0  0  0  0  0  0  0  0  0  0  0
   39.7980   22.8710   37.9490 C   0  0  0  0  0  0  0  0  0  0  0  0
   38.7050   23.4990   38.5330 C   0  0  0  0  0  0  0  0  0  0  0  0
   37.7930   24.0820   37.6800 C   0  0  0  0  0  0  0  0  0  0  0  0
   37.9710   24.0390   36.3200 C   0  0  0  0  0  0  0  0  0  0  0  0
   39.0310   23.4340   35.7150 C   0  0  0  0  0  0  0  0  0  0  0  0
   41.9780   21.7370   34.2400 H   0  0  0  0  0  0  0  0  0  0  0  0
   40.5590   22.3890   38.5720 H   0  0  0  0  0  0  0  0  0  0  0  0
   38.5990   23.5130   39.6000 H   0  0  0  0  0  0  0  0  0  0  0  0
   36.9610   24.5570   38.1800 H   0  0  0  0  0  0  0  0  0  0  0  0
   37.1940   24.5030   35.7870 H   0  0  0  0  0  0  0  0  0  0  0  0
   36.4410   27.7910   34.5890 Cl  0  0  0  0  0  0  0  0  0  0  0  0
   36.4850   28.1410   32.8780 C   0  0  0  0  0  0  0  0  0  0  0  0
   36.7380   27.1230   31.9850 C   0  0  0  0  0  0  0  0  0  0  0  0
   36.7680   27.5750   30.6820 C   0  0  0  0  0  0  0  0  0  0  0  0
   36.9480   26.9420   29.8310 H   0  0  0  0  0  0  0  0  0  0  0  0
   36.5690   28.8840   30.3210 C   0  0  0  0  0  0  0  0  0  0  0  0
   36.5950   29.2340   29.2830 H   0  0  0  0  0  0  0  0  0  0  0  0
   36.3190   29.8580   31.2530 C   0  0  0  0  0  3  0  0  0  0  0  0
   36.2780   29.4680   32.5660 C   0  0  0  0  0  3  0  0  0  0  0  0
   35.7680   22.3820   31.2920 N   0  0  0  0  0  0  0  0  0  0  0  0
   34.9800   22.1470   31.9280 H   0  0  0  0  0  0  0  0  0  0  0  0
   36.1840   22.0920   30.3800 H   0  0  0  0  0  0  0  0  0  0  0  0
  1  6  1  0  0  0  0
  2  1  2  0  0  0  0
  2  3  1  0  0  0  0
  3  4  2  0  0  0  0
  4  5  1  0  0  0  0
  5  8  1  0  0  0  0
  6  5  2  0  0  0  0
  7  2  1  0  0  0  0
  8 17  1  0  0  0  0
  9  8  2  0  0  0  0
  9 10  1  0  0  0  0
 10 11  2  0  0  0  0
 11 12  1  0  0  0  0
 12 13  1  0  0  0  0
 13 14  2  0  0  0  0
 13 19  1  0  0  0  0
 14 20  1  0  0  0  0
 15 21  1  0  0  0  0
 15 14  1  0  0  0  0
 16 15  2  0  0  0  0
 17 16  1  0  0  0  0
 17 12  2  0  0  0  0
 18 10  1  0  0  0  0
 22 16  1  0  0  0  0
 24 23  1  0  0  0  0
 25  3  1  0  0  0  0
 25 24  2  0  0  0  0
 26 25  1  0  0  0  0
 27 26  1  0  0  0  0
 28 26  2  0  0  0  0
 28 30  1  0  0  0  0
 29 28  1  0  0  0  0
 30 31  2  0  0  0  0
 31 24  1  0  0  0  0
 32 33  1  0  0  0  0
 32  1  1  0  0  0  0
 34 32  1  0  0  0  0
M  END
>  <minimizedAffinity>
-6.38057566

$$$$

 OpenBabel03272503573D

 34 37  0  0  0  0  0  0  0  0999 V2000
   35.3360   30.2730   31.6690 C   0  0  0  0  0  0  0  0  0  0  0  0
   34.6870   30.8240   32.7920 C   0  0  0  0  0  0  0  0  0  0  0  0
   34.7150   30.0510   33.9230 C   0  0  0  0  0  0  0  0  0  0  0  0
   35.3330   28.8900   33.8570 N   0  0  0  0  0  0  0  0  0  0  0  0
   35.9460   28.3340   32.8510 C   0  0  0  0  0  0  0  0  0  0  0  0
   35.9150   29.0870   31.7610 N   0  0  0  0  0  0  0  0  0  0  0  0
   34.2680   31.7710   32.5830 H   0  0  0  0  0  0  0  0  0  0  0  0
   36.6580   27.0810   32.6440 C   0  0  0  0  0  0  0  0  0  0  0  0
   36.3590   26.2170   31.6370 N   0  0  0  0  0  0  0  0  0  0  0  0
   37.0260   25.0790   31.4560 C   0  0  0  0  0  0  0  0  0  0  0  0
   38.0440   24.6750   32.2320 N   0  0  0  0  0  0  0  0  0  0  0  0
   38.3900   25.4770   33.2410 C   0  0  0  0  0  0  0  0  0  0  0  0
   39.4320   25.0800   34.0490 C   0  0  0  0  0  0  0  0  0  0  0  0
   39.8360   25.8740   35.1140 C   0  0  0  0  0  0  0  0  0  0  0  0
   39.1480   27.0510   35.3100 C   0  0  0  0  0  0  0  0  0  0  0  0
   38.1150   27.4110   34.4820 C   0  0  0  0  0  0  0  0  0  0  0  0
   37.6950   26.6580   33.4280 C   0  0  0  0  0  0  0  0  0  0  0  0
   36.6780   24.4790   30.6060 H   0  0  0  0  0  0  0  0  0  0  0  0
   39.9380   24.1310   33.8410 H   0  0  0  0  0  0  0  0  0  0  0  0
   40.6490   25.5600   35.7410 H   0  0  0  0  0  0  0  0  0  0  0  0
   39.4990   27.6340   36.1510 H   0  0  0  0  0  0  0  0  0  0  0  0
   37.6650   28.3200   34.7550 H   0  0  0  0  0  0  0  0  0  0  0  0
   36.3770   31.8910   35.7980 Cl  0  0  0  0  0  0  0  0  0  0  0  0
   34.7020   31.4430   36.0120 C   0  0  0  0  0  0  0  0  0  0  0  0
   34.0990   30.6160   35.0890 C   0  0  0  0  0  0  0  0  0  0  0  0
   32.7720   30.3880   35.3890 C   0  0  0  0  0  0  0  0  0  0  0  0
   32.1210   29.7690   34.7980 H   0  0  0  0  0  0  0  0  0  0  0  0
   32.1310   30.9220   36.4780 C   0  0  0  0  0  0  0  0  0  0  0  0
   31.0760   30.7350   36.7090 H   0  0  0  0  0  0  0  0  0  0  0  0
   32.7800   31.7390   37.3670 C   0  0  0  0  0  3  0  0  0  0  0  0
   34.1020   32.0030   37.1190 C   0  0  0  0  0  3  0  0  0  0  0  0
   35.4180   30.9890   30.3960 N   0  0  0  0  0  0  0  0  0  0  0  0
   34.6090   30.6550   29.8350 H   0  0  0  0  0  0  0  0  0  0  0  0
   36.2290   31.6440   30.3350 H   0  0  0  0  0  0  0  0  0  0  0  0
  1  6  2  0  0  0  0
  1  2  1  0  0  0  0
  2  3  2  0  0  0  0
  3 25  1  0  0  0  0
  4  3  1  0  0  0  0
  5  4  2  0  0  0  0
  6  5  1  0  0  0  0
  7  2  1  0  0  0  0
  8  5  1  0  0  0  0
  8 17  1  0  0  0  0
  9  8  2  0  0  0  0
 10  9  1  0  0  0  0
 10 11  2  0  0  0  0
 11 12  1  0  0  0  0
 12 17  2  0  0  0  0
 12 13  1  0  0  0  0
 13 14  2  0  0  0  0
 14 15  1  0  0  0  0
 14 20  1  0  0  0  0
 15 21  1  0  0  0  0
 16 22  1  0  0  0  0
 16 15  2  0  0  0  0
 17 16  1  0  0  0  0
 18 10  1  0  0  0  0
 19 13  1  0  0  0  0
 23 24  1  0  0  0  0
 24 31  1  0  0  0  0
 25 26  1  0  0  0  0
 25 24  2  0  0  0  0
 26 28  2  0  0  0  0
 27 26  1  0  0  0  0
 28 29  1  0  0  0  0
 28 30  1  0  0  0  0
 31 30  2  0  0  0  0
 32  1  1  0  0  0  0
 33 32  1  0  0  0  0
 34 32  1  0  0  0  0
M  END
>  <minimizedAffinity>
-6.32279205

$$$$

 OpenBabel03272503573D

 34 37  0  0  0  0  0  0  0  0999 V2000
   36.5900   24.3110   32.0240 C   0  0  0  0  0  0  0  0  0  0  0  0
   36.2380   25.6690   31.8930 C   0  0  0  0  0  0  0  0  0  0  0  0
   36.9590   26.5380   32.6700 C   0  0  0  0  0  0  0  0  0  0  0  0
   37.8910   26.0350   33.4510 N   0  0  0  0  0  0  0  0  0  0  0  0
   38.2570   24.7940   33.6120 C   0  0  0  0  0  0  0  0  0  0  0  0
   37.5570   23.9600   32.8570 N   0  0  0  0  0  0  0  0  0  0  0  0
   35.4550   25.8120   31.1990 H   0  0  0  0  0  0  0  0  0  0  0  0
   39.2530   24.1120   34.4240 C   0  0  0  0  0  0  0  0  0  0  0  0
   40.4410   23.6770   33.9260 N   0  0  0  0  0  0  0  0  0  0  0  0
   41.3480   23.0620   34.6850 C   0  0  0  0  0  0  0  0  0  0  0  0
   41.1850   22.8140   35.9930 N   0  0  0  0  0  0  0  0  0  0  0  0
   40.0390   23.2150   36.5470 C   0  0  0  0  0  0  0  0  0  0  0  0
   39.8530   22.9700   37.8890 C   0  0  0  0  0  0  0  0  0  0  0  0
   38.6790   23.3650   38.5200 C   0  0  0  0  0  0  0  0  0  0  0  0
   37.7360   23.9990   37.7400 C   0  0  0  0  0  0  0  0  0  0  0  0
   37.9600   24.2250   36.4050 C   0  0  0  0  0  0  0  0  0  0  0  0
   39.0990   23.8530   35.7570 C   0  0  0  0  0  0  0  0  0  0  0  0
   42.2590   22.7650   34.1530 H   0  0  0  0  0  0  0  0  0  0  0  0
   40.6410   22.4620   38.4540 H   0  0  0  0  0  0  0  0  0  0  0  0
   38.5390   23.1720   39.5650 H   0  0  0  0  0  0  0  0  0  0  0  0
   36.8420   24.2860   38.2740 H   0  0  0  0  0  0  0  0  0  0  0  0
   37.1540   24.6970   35.9250 H   0  0  0  0  0  0  0  0  0  0  0  0
   37.9070   28.0520   30.1260 Cl  0  0  0  0  0  0  0  0  0  0  0  0
   36.9970   28.7330   31.4520 C   0  0  0  0  0  0  0  0  0  0  0  0
   36.6450   27.9300   32.5160 C   0  0  0  0  0  0  0  0  0  0  0  0
   35.9050   28.6150   33.4570 C   0  0  0  0  0  0  0  0  0  0  0  0
   35.5330   28.1730   34.3650 H   0  0  0  0  0  0  0  0  0  0  0  0
   35.5610   29.9380   33.3460 C   0  0  0  0  0  0  0  0  0  0  0  0
   34.9730   30.4740   34.1000 H   0  0  0  0  0  0  0  0  0  0  0  0
   35.9390   30.6920   32.2650 C   0  0  0  0  0  3  0  0  0  0  0  0
   36.6760   30.0640   31.2950 C   0  0  0  0  0  3  0  0  0  0  0  0
   35.9340   23.2640   31.2400 N   0  0  0  0  0  0  0  0  0  0  0  0
   35.1620   22.9100   31.8390 H   0  0  0  0  0  0  0  0  0  0  0  0
   36.3650   23.1120   30.3010 H   0  0  0  0  0  0  0  0  0  0  0  0
  1  6  1  0  0  0  0
  2  1  2  0  0  0  0
  2  3  1  0  0  0  0
  3  4  2  0  0  0  0
  4  5  1  0  0  0  0
  5  8  1  0  0  0  0
  6  5  2  0  0  0  0
  7  2  1  0  0  0  0
  8 17  1  0  0  0  0
  9  8  2  0  0  0  0
  9 10  1  0  0  0  0
 10 11  2  0  0  0  0
 11 12  1  0  0  0  0
 12 13  1  0  0  0  0
 13 19  1  0  0  0  0
 13 14  2  0  0  0  0
 14 20  1  0  0  0  0
 15 21  1  0  0  0  0
 15 14  1  0  0  0  0
 16 15  2  0  0  0  0
 17 16  1  0  0  0  0
 17 12  2  0  0  0  0
 18 10  1  0  0  0  0
 22 16  1  0  0  0  0
 23 24  1  0  0  0  0
 24 25  1  0  0  0  0
 25  3  1  0  0  0  0
 25 26  2  0  0  0  0
 26 27  1  0  0  0  0
 28 26  1  0  0  0  0
 28 29  1  0  0  0  0
 30 28  2  0  0  0  0
 31 24  2  0  0  0  0
 31 30  1  0  0  0  0
 32 33  1  0  0  0  0
 32  1  1  0  0  0  0
 34 32  1  0  0  0  0
M  END
>  <minimizedAffinity>
-6.29660797

$$$$

 OpenBabel03272503573D

 34 37  0  0  0  0  0  0  0  0999 V2000
   35.5710   29.7140   31.8100 C   0  0  0  0  0  0  0  0  0  0  0  0
   34.8320   30.3170   32.8480 C   0  0  0  0  0  0  0  0  0  0  0  0
   34.9470   29.7180   34.0740 C   0  0  0  0  0  0  0  0  0  0  0  0
   35.7210   28.6570   34.1690 N   0  0  0  0  0  0  0  0  0  0  0  0
   36.4240   28.0600   33.2480 C   0  0  0  0  0  0  0  0  0  0  0  0
   36.3080   28.6450   32.0650 N   0  0  0  0  0  0  0  0  0  0  0  0
   34.2890   31.1580   32.5110 H   0  0  0  0  0  0  0  0  0  0  0  0
   37.3060   26.9030   33.2160 C   0  0  0  0  0  0  0  0  0  0  0  0
   38.5070   26.8700   33.8540 N   0  0  0  0  0  0  0  0  0  0  0  0
   39.2990   25.7990   33.8230 C   0  0  0  0  0  0  0  0  0  0  0  0
   39.0000   24.6650   33.1720 N   0  0  0  0  0  0  0  0  0  0  0  0
   37.8350   24.6290   32.5220 C   0  0  0  0  0  0  0  0  0  0  0  0
   37.5090   23.4730   31.8480 C   0  0  0  0  0  0  0  0  0  0  0  0
   36.3090   23.3780   31.1550 C   0  0  0  0  0  0  0  0  0  0  0  0
   35.4860   24.4830   31.1800 C   0  0  0  0  0  0  0  0  0  0  0  0
   35.8470   25.6170   31.8640 C   0  0  0  0  0  0  0  0  0  0  0  0
   37.0140   25.7420   32.5560 C   0  0  0  0  0  0  0  0  0  0  0  0
   40.2360   25.9110   34.3800 H   0  0  0  0  0  0  0  0  0  0  0  0
   38.2080   22.6300   31.8660 H   0  0  0  0  0  0  0  0  0  0  0  0
   36.0610   22.4760   30.6310 H   0  0  0  0  0  0  0  0  0  0  0  0
   34.5660   24.3620   30.6260 H   0  0  0  0  0  0  0  0  0  0  0  0
   35.1400   26.3890   31.7860 H   0  0  0  0  0  0  0  0  0  0  0  0
   36.3420   31.9370   35.7450 Cl  0  0  0  0  0  0  0  0  0  0  0  0
   34.7190   31.3360   35.9800 C   0  0  0  0  0  0  0  0  0  0  0  0
   34.2380   30.3450   35.1520 C   0  0  0  0  0  0  0  0  0  0  0  0
   32.9340   30.0100   35.4530 C   0  0  0  0  0  0  0  0  0  0  0  0
   32.3710   29.2570   34.9290 H   0  0  0  0  0  0  0  0  0  0  0  0
   32.2050   30.5940   36.4580 C   0  0  0  0  0  0  0  0  0  0  0  0
   31.1700   30.3210   36.6900 H   0  0  0  0  0  0  0  0  0  0  0  0
   32.7350   31.5770   37.2530 C   0  0  0  0  0  3  0  0  0  0  0  0
   34.0290   31.9530   37.0000 C   0  0  0  0  0  3  0  0  0  0  0  0
   35.5760   30.2530   30.4510 N   0  0  0  0  0  0  0  0  0  0  0  0
   34.8310   29.7350   29.9430 H   0  0  0  0  0  0  0  0  0  0  0  0
   36.2890   31.0010   30.2990 H   0  0  0  0  0  0  0  0  0  0  0  0
  1  6  2  0  0  0  0
  1  2  1  0  0  0  0
  2  3  2  0  0  0  0
  3  4  1  0  0  0  0
  3 25  1  0  0  0  0
  5  4  2  0  0  0  0
  6  5  1  0  0  0  0
  7  2  1  0  0  0  0
  8  5  1  0  0  0  0
  8  9  1  0  0  0  0
 10  9  2  0  0  0  0
 10 18  1  0  0  0  0
 11 10  1  0  0  0  0
 12 17  1  0  0  0  0
 12 11  2  0  0  0  0
 13 19  1  0  0  0  0
 13 12  1  0  0  0  0
 14 15  1  0  0  0  0
 14 13  2  0  0  0  0
 15 16  2  0  0  0  0
 16 17  1  0  0  0  0
 17  8  2  0  0  0  0
 20 14  1  0  0  0  0
 21 15  1  0  0  0  0
 22 16  1  0  0  0  0
 23 24  1  0  0  0  0
 24 31  1  0  0  0  0
 25 26  1  0  0  0  0
 25 24  2  0  0  0  0
 26 28  2  0  0  0  0
 27 26  1  0  0  0  0
 28 29  1  0  0  0  0
 28 30  1  0  0  0  0
 31 30  2  0  0  0  0
 32  1  1  0  0  0  0
 33 32  1  0  0  0  0
 34 32  1  0  0  0  0
M  END
>  <minimizedAffinity>
-6.2551198

$$$$

 OpenBabel03272503573D

 34 37  0  0  0  0  0  0  0  0999 V2000
   35.6480   24.5350   31.2350 C   0  0  0  0  0  0  0  0  0  0  0  0
   35.6000   23.1340   31.0910 C   0  0  0  0  0  0  0  0  0  0  0  0
   36.4520   22.4320   31.9020 C   0  0  0  0  0  0  0  0  0  0  0  0
   37.2200   23.1160   32.7240 N   0  0  0  0  0  0  0  0  0  0  0  0
   37.3060   24.4040   32.8980 C   0  0  0  0  0  0  0  0  0  0  0  0
   36.4790   25.0770   32.1110 N   0  0  0  0  0  0  0  0  0  0  0  0
   34.8980   22.8340   30.3610 H   0  0  0  0  0  0  0  0  0  0  0  0
   38.0960   25.2770   33.7550 C   0  0  0  0  0  0  0  0  0  0  0  0
   37.7340   25.5870   35.0290 N   0  0  0  0  0  0  0  0  0  0  0  0
   38.4720   26.3800   35.8040 C   0  0  0  0  0  0  0  0  0  0  0  0
   39.6280   26.9420   35.4170 N   0  0  0  0  0  0  0  0  0  0  0  0
   40.0420   26.6790   34.1750 C   0  0  0  0  0  0  0  0  0  0  0  0
   41.2250   27.2460   33.7590 C   0  0  0  0  0  0  0  0  0  0  0  0
   41.7060   27.0070   32.4770 C   0  0  0  0  0  0  0  0  0  0  0  0
   40.9460   26.1910   31.6690 C   0  0  0  0  0  0  0  0  0  0  0  0
   39.7710   25.6440   32.1220 C   0  0  0  0  0  0  0  0  0  0  0  0
   39.2730   25.8560   33.3720 C   0  0  0  0  0  0  0  0  0  0  0  0
   38.0610   26.5450   36.8070 H   0  0  0  0  0  0  0  0  0  0  0  0
   41.7830   27.8870   34.4500 H   0  0  0  0  0  0  0  0  0  0  0  0
   42.6280   27.4520   32.1570 H   0  0  0  0  0  0  0  0  0  0  0  0
   41.3600   26.0360   30.6820 H   0  0  0  0  0  0  0  0  0  0  0  0
   39.2820   25.0600   31.3990 H   0  0  0  0  0  0  0  0  0  0  0  0
   35.5460   20.7600   34.3610 Cl  0  0  0  0  0  0  0  0  0  0  0  0
   36.0060   20.1300   32.7980 C   0  0  0  0  0  0  0  0  0  0  0  0
   36.3840   21.0020   31.8010 C   0  0  0  0  0  0  0  0  0  0  0  0
   36.6840   20.3440   30.6260 C   0  0  0  0  0  0  0  0  0  0  0  0
   37.0040   20.8390   29.7260 H   0  0  0  0  0  0  0  0  0  0  0  0
   36.6150   18.9820   30.4720 C   0  0  0  0  0  0  0  0  0  0  0  0
   36.8560   18.4690   29.5340 H   0  0  0  0  0  0  0  0  0  0  0  0
   36.2320   18.1600   31.5000 C   0  0  0  0  0  3  0  0  0  0  0  0
   35.9200   18.7580   32.6930 C   0  0  0  0  0  3  0  0  0  0  0  0
   34.7790   25.4210   30.4620 N   0  0  0  0  0  0  0  0  0  0  0  0
   35.3320   25.6950   29.6260 H   0  0  0  0  0  0  0  0  0  0  0  0
   33.8430   25.5760   30.8980 H   0  0  0  0  0  0  0  0  0  0  0  0
  1  6  1  0  0  0  0
  2  1  2  0  0  0  0
  2  3  1  0  0  0  0
  3  4  2  0  0  0  0
  4  5  1  0  0  0  0
  5  8  1  0  0  0  0
  6  5  2  0  0  0  0
  7  2  1  0  0  0  0
  8  9  1  0  0  0  0
  9 10  2  0  0  0  0
 10 18  1  0  0  0  0
 11 10  1  0  0  0  0
 12 11  2  0  0  0  0
 13 12  1  0  0  0  0
 13 19  1  0  0  0  0
 14 13  2  0  0  0  0
 15 16  2  0  0  0  0
 15 14  1  0  0  0  0
 16 17  1  0  0  0  0
 17  8  2  0  0  0  0
 17 12  1  0  0  0  0
 20 14  1  0  0  0  0
 21 15  1  0  0  0  0
 22 16  1  0  0  0  0
 24 23  1  0  0  0  0
 25  3  1  0  0  0  0
 25 24  2  0  0  0  0
 26 25  1  0  0  0  0
 27 26  1  0  0  0  0
 28 26  2  0  0  0  0
 28 30  1  0  0  0  0
 29 28  1  0  0  0  0
 30 31  2  0  0  0  0
 31 24  1  0  0  0  0
 32 34  1  0  0  0  0
 32  1  1  0  0  0  0
 33 32  1  0  0  0  0
M  END
>  <minimizedAffinity>
-6.24708033

$$$$

 OpenBabel03272503573D

 34 37  0  0  0  0  0  0  0  0999 V2000
   37.2100   22.8020   32.5690 C   0  0  0  0  0  0  0  0  0  0  0  0
   37.5560   22.6380   33.9250 C   0  0  0  0  0  0  0  0  0  0  0  0
   38.1770   23.7120   34.5070 C   0  0  0  0  0  0  0  0  0  0  0  0
   38.3900   24.7750   33.7600 N   0  0  0  0  0  0  0  0  0  0  0  0
   38.0950   24.9810   32.5080 C   0  0  0  0  0  0  0  0  0  0  0  0
   37.4930   23.9390   31.9520 N   0  0  0  0  0  0  0  0  0  0  0  0
   37.2750   21.6880   34.2940 H   0  0  0  0  0  0  0  0  0  0  0  0
   38.2690   26.0870   31.5780 C   0  0  0  0  0  0  0  0  0  0  0  0
   39.1420   26.0470   30.5350 N   0  0  0  0  0  0  0  0  0  0  0  0
   39.2830   27.0640   29.6860 C   0  0  0  0  0  0  0  0  0  0  0  0
   38.5900   28.2100   29.7700 N   0  0  0  0  0  0  0  0  0  0  0  0
   37.7150   28.3170   30.7710 C   0  0  0  0  0  0  0  0  0  0  0  0
   36.9950   29.4860   30.8740 C   0  0  0  0  0  0  0  0  0  0  0  0
   36.0690   29.6530   31.8960 C   0  0  0  0  0  0  0  0  0  0  0  0
   35.9200   28.6070   32.7800 C   0  0  0  0  0  0  0  0  0  0  0  0
   36.6580   27.4570   32.6430 C   0  0  0  0  0  0  0  0  0  0  0  0
   37.5710   27.2590   31.6520 C   0  0  0  0  0  0  0  0  0  0  0  0
   40.0210   26.8950   28.8940 H   0  0  0  0  0  0  0  0  0  0  0  0
   37.1590   30.2810   30.1400 H   0  0  0  0  0  0  0  0  0  0  0  0
   35.5100   30.5660   31.9720 H   0  0  0  0  0  0  0  0  0  0  0  0
   35.1910   28.7840   33.5570 H   0  0  0  0  0  0  0  0  0  0  0  0
   36.4610   26.7490   33.3940 H   0  0  0  0  0  0  0  0  0  0  0  0
   40.8050   22.2850   35.3530 Cl  0  0  0  0  0  0  0  0  0  0  0  0
   39.6130   22.9730   36.4280 C   0  0  0  0  0  0  0  0  0  0  0  0
   38.4940   23.5790   35.9000 C   0  0  0  0  0  0  0  0  0  0  0  0
   37.6740   24.0950   36.8810 C   0  0  0  0  0  0  0  0  0  0  0  0
   36.7480   24.6060   36.6830 H   0  0  0  0  0  0  0  0  0  0  0  0
   37.9420   24.0130   38.2250 C   0  0  0  0  0  0  0  0  0  0  0  0
   37.2850   24.4270   38.9970 H   0  0  0  0  0  0  0  0  0  0  0  0
   39.0730   23.3970   38.6960 C   0  0  0  0  0  3  0  0  0  0  0  0
   39.9270   22.8660   37.7660 C   0  0  0  0  0  3  0  0  0  0  0  0
   36.5160   21.7580   31.8170 N   0  0  0  0  0  0  0  0  0  0  0  0
   37.2630   21.2090   31.3470 H   0  0  0  0  0  0  0  0  0  0  0  0
   35.4770   21.7940   31.9120 H   0  0  0  0  0  0  0  0  0  0  0  0
  1  2  1  0  0  0  0
  2  7  1  0  0  0  0
  2  3  2  0  0  0  0
  3 25  1  0  0  0  0
  4  3  1  0  0  0  0
  5  4  2  0  0  0  0
  6  5  1  0  0  0  0
  6  1  2  0  0  0  0
  8 17  1  0  0  0  0
  8  5  1  0  0  0  0
  9  8  2  0  0  0  0
 10 11  2  0  0  0  0
 10  9  1  0  0  0  0
 11 12  1  0  0  0  0
 12 13  2  0  0  0  0
 12 17  1  0  0  0  0
 13 14  1  0  0  0  0
 14 20  1  0  0  0  0
 14 15  2  0  0  0  0
 15 21  1  0  0  0  0
 16 15  1  0  0  0  0
 16 22  1  0  0  0  0
 17 16  2  0  0  0  0
 18 10  1  0  0  0  0
 19 13  1  0  0  0  0
 23 24  1  0  0  0  0
 24 31  1  0  0  0  0
 25 24  2  0  0  0  0
 25 26  1  0  0  0  0
 26 28  2  0  0  0  0
 27 26  1  0  0  0  0
 28 30  1  0  0  0  0
 28 29  1  0  0  0  0
 31 30  2  0  0  0  0
 32 34  1  0  0  0  0
 32  1  1  0  0  0  0
 33 32  1  0  0  0  0
M  END
>  <minimizedAffinity>
-5.97416019

$$$$
