
     RDKit          3D

 32 34  0  0  0  0  0  0  0  0999 V2000
   38.0922   33.1448   49.4909 C   0  0  0  0  0  0  0  0  0  0  0  0
   38.9452   33.0648   48.3609 C   0  0  0  0  0  0  0  0  0  0  0  0
   38.7053   32.0448   47.4386 C   0  0  0  0  0  0  0  0  0  0  0  0
   37.6801   31.1983   47.6753 N   0  0  0  0  0  0  0  0  0  0  0  0
   36.8817   31.2873   48.7497 C   0  0  0  0  0  0  0  0  0  0  0  0
   37.0852   32.2557   49.6548 N   0  0  0  0  0  0  0  0  0  0  0  0
   35.8211   30.3446   48.9148 N   0  0  0  0  0  0  0  0  0  0  0  0
   34.7438   30.1926   47.9431 C   0  0  0  0  0  0  0  0  0  0  0  0
   34.0198   28.9603   48.3584 C   0  0  0  0  0  0  0  0  0  0  0  0
   34.8685   28.3121   49.4304 C   0  0  0  0  0  0  0  0  0  0  0  0
   35.6582   29.4347   50.0221 C   0  0  0  0  0  0  0  0  0  0  0  0
   38.2727   33.9395   50.2174 H   0  0  0  0  0  0  0  0  0  0  0  0
   39.2935   31.9054   46.5592 H   0  0  0  0  0  0  0  0  0  0  0  0
   34.1603   31.1254   47.9634 H   0  0  0  0  0  0  0  0  0  0  0  0
   35.2627   30.0582   46.9542 H   0  0  0  0  0  0  0  0  0  0  0  0
   34.0275   28.2289   47.4992 H   0  0  0  0  0  0  0  0  0  0  0  0
   32.9910   29.1990   48.7021 H   0  0  0  0  0  0  0  0  0  0  0  0
   34.1838   27.9131   50.2117 H   0  0  0  0  0  0  0  0  0  0  0  0
   35.5133   27.4933   49.0309 H   0  0  0  0  0  0  0  0  0  0  0  0
   35.1917   29.8981   50.9056 H   0  0  0  0  0  0  0  0  0  0  0  0
   36.6711   29.0512   50.2890 H   0  0  0  0  0  0  0  0  0  0  0  0
   41.4240   32.1115   46.8525 Cl  0  0  0  0  0  0  0  0  0  0  0  0
   41.2130   33.7137   47.4837 C   0  0  0  0  0  0  0  0  0  0  0  0
   40.0420   33.9989   48.1417 C   0  0  0  0  0  0  0  0  0  0  0  0
   39.8599   35.2667   48.6484 C   0  0  0  0  0  0  0  0  0  0  0  0
   39.0011   35.6473   49.1875 H   0  0  0  0  0  0  0  0  0  0  0  0
   40.8232   36.2297   48.5030 C   0  0  0  0  0  0  0  0  0  0  0  0
   40.7626   37.2646   48.8742 H   0  0  0  0  0  0  0  0  0  0  0  0
   42.0096   35.9681   47.8455 C   0  0  0  0  0  0  0  0  0  0  0  0
   42.1827   34.6962   47.3416 C   0  0  0  0  0  0  0  0  0  0  0  0
   42.8344   36.6559   47.6758 H   0  0  0  0  0  0  0  0  0  0  0  0
   43.0669   34.3719   46.8089 H   0  0  0  0  0  0  0  0  0  0  0  0
  1  6  2  0
  2  1  1  0
  3  4  1  0
  3  2  2  0
  4  5  2  0
  5  7  1  0
  5  6  1  0
  7 11  1  0
  8  9  1  0
  8  7  1  0
  9 10  1  0
 10 11  1  0
  1 12  1  0
  3 13  1  0
  8 14  1  0
  8 15  1  0
  9 16  1  0
  9 17  1  0
 10 18  1  0
 10 19  1  0
 11 20  1  0
 11 21  1  0
 22 23  1  0
 23 24  2  0
 24 25  1  0
 25 26  1  0
 25 27  2  0
 27 28  1  0
 27 29  1  0
 29 30  2  0
 30 23  1  0
 29 31  1  0
 30 32  1  0
  2 24  1  0
M  ISO  8  12  14  13  14  14  13  15  13  16  13  17  13  18  13  19  13
M  ISO  4  20  13  21  13  26  15  28  16
M  END
>  <DihAtoms>  (1) 
0,1,23,22

>  <DihDeg>  (1) 
-134.99968174153014

$$$$
