
 OpenBabel03272510203D

 36 39  0  0  0  0  0  0  0  0999 V2000
   37.4190   29.1340   50.8000 Br  0  0  0  0  0  0  0  0  0  0  0  0
   36.0270   29.3010   49.5170 C   0  0  0  0  0  0  0  0  0  0  0  0
   36.0270   30.3460   48.5980 C   0  0  0  0  0  0  0  0  0  0  0  0
   34.9870   30.4000   47.7010 C   0  0  0  0  0  0  0  0  0  0  0  0
   33.9590   29.4890   47.6630 C   0  0  0  0  0  0  0  0  0  0  0  0
   33.9830   28.4670   48.5810 C   0  0  0  0  0  0  0  0  0  0  0  0
   35.0140   28.3840   49.4950 C   0  0  0  0  0  0  0  0  0  0  0  0
   34.9980   31.2130   46.9970 H   0  0  0  0  0  0  0  0  0  0  0  0
   33.1850   27.7280   48.5780 H   0  0  0  0  0  0  0  0  0  0  0  0
   34.9670   27.5470   50.1910 H   0  0  0  0  0  0  0  0  0  0  0  0
   38.0070   33.2360   49.6010 C   0  0  0  0  0  0  0  0  0  0  0  0
   39.0760   33.2480   48.6590 C   0  0  0  0  0  0  0  0  0  0  0  0
   39.0880   32.2520   47.6940 C   0  0  0  0  0  0  0  0  0  0  0  0
   38.0900   31.3280   47.7000 N   0  0  0  0  0  0  0  0  0  0  0  0
   37.0930   31.3380   48.5970 C   0  0  0  0  0  0  0  0  0  0  0  0
   37.0530   32.2990   49.5540 N   0  0  0  0  0  0  0  0  0  0  0  0
   37.9880   34.0060   50.3550 H   0  0  0  0  0  0  0  0  0  0  0  0
   39.8280   34.0190   48.7280 H   0  0  0  0  0  0  0  0  0  0  0  0
   39.8860   32.2250   46.9590 H   0  0  0  0  0  0  0  0  0  0  0  0
   32.8570   29.5460   46.7130 C   0  0  0  0  0  0  0  0  0  0  0  0
   31.8840   28.5740   46.5790 C   0  0  0  0  0  0  0  0  0  0  0  0
   30.8540   28.6800   45.6550 C   0  0  0  0  0  0  0  0  0  0  0  0
   30.7890   29.7600   44.8560 N   0  0  0  0  0  0  0  0  0  0  0  0
   31.7370   30.7090   44.9850 C   0  0  0  0  0  0  0  0  0  0  0  0
   32.7180   30.5940   45.8740 N   0  0  0  0  0  0  0  0  0  0  0  0
   31.9450   27.7070   47.2270 H   0  0  0  0  0  0  0  0  0  0  0  0
   30.1470   27.8530   45.6420 H   0  0  0  0  0  0  0  0  0  0  0  0
   32.7540   30.3770   42.1240 Cl  0  0  0  0  0  0  0  0  0  0  0  0
   32.0750   31.8430   42.7970 C   0  0  0  0  0  0  0  0  0  0  0  0
   31.6470   31.8720   44.1080 C   0  0  0  0  0  0  0  0  0  0  0  0
   31.1100   33.0560   44.6150 C   0  0  0  0  0  0  0  0  0  0  0  0
   30.7580   33.1490   45.6260 H   0  0  0  0  0  0  0  0  0  0  0  0
   31.0470   34.1300   43.7440 C   0  0  0  0  0  0  0  0  0  0  0  0
   30.6320   35.0690   44.1080 H   0  0  0  0  0  0  0  0  0  0  0  0
   31.4730   34.1020   42.4320 C   0  0  0  0  0  3  0  0  0  0  0  0
   32.0110   32.9130   41.9300 C   0  0  0  0  0  3  0  0  0  0  0  0
  2  1  1  0  0  0  0
  3  2  2  0  0  0  0
  4  3  1  0  0  0  0
  5  4  2  0  0  0  0
  5  6  1  0  0  0  0
  6  7  2  0  0  0  0
  7  2  1  0  0  0  0
  7 10  1  0  0  0  0
  8  4  1  0  0  0  0
  9  6  1  0  0  0  0
 11 17  1  0  0  0  0
 12 18  1  0  0  0  0
 12 11  2  0  0  0  0
 13 14  2  0  0  0  0
 13 12  1  0  0  0  0
 14 15  1  0  0  0  0
 15  3  1  0  0  0  0
 15 16  2  0  0  0  0
 16 11  1  0  0  0  0
 19 13  1  0  0  0  0
 20  5  1  0  0  0  0
 21 20  1  0  0  0  0
 21 26  1  0  0  0  0
 22 21  2  0  0  0  0
 23 24  2  0  0  0  0
 23 22  1  0  0  0  0
 24 25  1  0  0  0  0
 25 20  2  0  0  0  0
 27 22  1  0  0  0  0
 28 29  1  0  0  0  0
 29 30  1  0  0  0  0
 30 31  2  0  0  0  0
 30 24  1  0  0  0  0
 31 32  1  0  0  0  0
 33 34  1  0  0  0  0
 33 31  1  0  0  0  0
 35 33  2  0  0  0  0
 36 35  1  0  0  0  0
 36 29  2  0  0  0  0
M  END
>  <minimizedAffinity>
-6.46418667

>  <minimizedRMSD>
0.696217

$$$$
