
 OpenBabel03272510203D

 36 39  0  0  0  0  0  0  0  0999 V2000
   37.2340   29.2540   50.9680 Br  0  0  0  0  0  0  0  0  0  0  0  0
   35.8980   29.3010   49.6180 C   0  0  0  0  0  0  0  0  0  0  0  0
   35.9430   30.2550   48.6060 C   0  0  0  0  0  0  0  0  0  0  0  0
   34.9410   30.2260   47.6640 C   0  0  0  0  0  0  0  0  0  0  0  0
   33.9110   29.3160   47.6690 C   0  0  0  0  0  0  0  0  0  0  0  0
   33.8910   28.3860   48.6790 C   0  0  0  0  0  0  0  0  0  0  0  0
   34.8820   28.3880   49.6400 C   0  0  0  0  0  0  0  0  0  0  0  0
   34.9870   30.9680   46.8870 H   0  0  0  0  0  0  0  0  0  0  0  0
   33.0900   27.6510   48.7130 H   0  0  0  0  0  0  0  0  0  0  0  0
   34.8010   27.6210   50.4090 H   0  0  0  0  0  0  0  0  0  0  0  0
   37.9580   33.1600   49.4890 C   0  0  0  0  0  0  0  0  0  0  0  0
   39.0070   33.1400   48.5250 C   0  0  0  0  0  0  0  0  0  0  0  0
   38.9940   32.1190   47.5870 C   0  0  0  0  0  0  0  0  0  0  0  0
   37.9920   31.2010   47.6390 N   0  0  0  0  0  0  0  0  0  0  0  0
   37.0130   31.2400   48.5560 C   0  0  0  0  0  0  0  0  0  0  0  0
   36.9980   32.2270   49.4860 N   0  0  0  0  0  0  0  0  0  0  0  0
   37.9580   33.9500   50.2220 H   0  0  0  0  0  0  0  0  0  0  0  0
   39.7640   33.9080   48.5580 H   0  0  0  0  0  0  0  0  0  0  0  0
   39.7760   32.0680   46.8370 H   0  0  0  0  0  0  0  0  0  0  0  0
   32.8490   29.2850   46.6730 C   0  0  0  0  0  0  0  0  0  0  0  0
   32.0130   28.2090   46.4490 C   0  0  0  0  0  0  0  0  0  0  0  0
   31.0150   28.2340   45.4850 C   0  0  0  0  0  0  0  0  0  0  0  0
   30.8470   29.3370   44.7330 N   0  0  0  0  0  0  0  0  0  0  0  0
   31.6630   30.3880   44.9490 C   0  0  0  0  0  0  0  0  0  0  0  0
   32.6140   30.3500   45.8770 N   0  0  0  0  0  0  0  0  0  0  0  0
   32.1560   27.3240   47.0590 H   0  0  0  0  0  0  0  0  0  0  0  0
   30.4190   27.3270   45.4000 H   0  0  0  0  0  0  0  0  0  0  0  0
   28.8620   31.6030   44.9120 Cl  0  0  0  0  0  0  0  0  0  0  0  0
   30.2420   32.2100   44.0270 C   0  0  0  0  0  0  0  0  0  0  0  0
   31.4630   31.5750   44.1230 C   0  0  0  0  0  0  0  0  0  0  0  0
   32.5480   32.0840   43.4050 C   0  0  0  0  0  0  0  0  0  0  0  0
   33.5230   31.6390   43.4340 H   0  0  0  0  0  0  0  0  0  0  0  0
   32.3050   33.2100   42.6370 C   0  0  0  0  0  0  0  0  0  0  0  0
   33.1300   33.6330   42.0650 H   0  0  0  0  0  0  0  0  0  0  0  0
   31.0850   33.8480   42.5410 C   0  0  0  0  0  3  0  0  0  0  0  0
   30.0040   33.3330   43.2620 C   0  0  0  0  0  3  0  0  0  0  0  0
  2  7  1  0  0  0  0
  2  1  1  0  0  0  0
  3  2  2  0  0  0  0
  4  5  2  0  0  0  0
  4  3  1  0  0  0  0
  5  6  1  0  0  0  0
  6  9  1  0  0  0  0
  6  7  2  0  0  0  0
  7 10  1  0  0  0  0
  8  4  1  0  0  0  0
 11 17  1  0  0  0  0
 12 18  1  0  0  0  0
 12 11  2  0  0  0  0
 13 14  2  0  0  0  0
 13 12  1  0  0  0  0
 14 15  1  0  0  0  0
 15  3  1  0  0  0  0
 15 16  2  0  0  0  0
 16 11  1  0  0  0  0
 19 13  1  0  0  0  0
 20  5  1  0  0  0  0
 21 20  1  0  0  0  0
 21 26  1  0  0  0  0
 22 21  2  0  0  0  0
 23 24  2  0  0  0  0
 23 22  1  0  0  0  0
 24 25  1  0  0  0  0
 25 20  2  0  0  0  0
 27 22  1  0  0  0  0
 29 30  1  0  0  0  0
 29 28  1  0  0  0  0
 30 24  1  0  0  0  0
 31 32  1  0  0  0  0
 31 30  2  0  0  0  0
 33 31  1  0  0  0  0
 34 33  1  0  0  0  0
 35 33  2  0  0  0  0
 35 36  1  0  0  0  0
 36 29  2  0  0  0  0
M  END
>  <minimizedAffinity>
-6.47877455

>  <minimizedRMSD>
0.686319172

$$$$
