
 OpenBabel03272510203D

 36 39  0  0  0  0  0  0  0  0999 V2000
   37.3300   29.2050   50.8730 Br  0  0  0  0  0  0  0  0  0  0  0  0
   35.9910   29.3060   49.5290 C   0  0  0  0  0  0  0  0  0  0  0  0
   36.0190   30.3170   48.5720 C   0  0  0  0  0  0  0  0  0  0  0  0
   35.0150   30.3250   47.6320 C   0  0  0  0  0  0  0  0  0  0  0  0
   34.0000   29.4010   47.5860 C   0  0  0  0  0  0  0  0  0  0  0  0
   33.9970   28.4140   48.5420 C   0  0  0  0  0  0  0  0  0  0  0  0
   34.9900   28.3780   49.5000 C   0  0  0  0  0  0  0  0  0  0  0  0
   35.0480   31.1120   46.8980 H   0  0  0  0  0  0  0  0  0  0  0  0
   33.2070   27.6660   48.5350 H   0  0  0  0  0  0  0  0  0  0  0  0
   34.9220   27.5670   50.2240 H   0  0  0  0  0  0  0  0  0  0  0  0
   37.9630   33.2260   49.5890 C   0  0  0  0  0  0  0  0  0  0  0  0
   39.0350   33.2520   48.6500 C   0  0  0  0  0  0  0  0  0  0  0  0
   39.0610   32.2600   47.6820 C   0  0  0  0  0  0  0  0  0  0  0  0
   38.0740   31.3250   47.6830 N   0  0  0  0  0  0  0  0  0  0  0  0
   37.0730   31.3200   48.5770 C   0  0  0  0  0  0  0  0  0  0  0  0
   37.0200   32.2780   49.5360 N   0  0  0  0  0  0  0  0  0  0  0  0
   37.9330   33.9940   50.3450 H   0  0  0  0  0  0  0  0  0  0  0  0
   39.7780   34.0310   48.7240 H   0  0  0  0  0  0  0  0  0  0  0  0
   39.8610   32.2430   46.9500 H   0  0  0  0  0  0  0  0  0  0  0  0
   32.9370   29.4090   46.5900 C   0  0  0  0  0  0  0  0  0  0  0  0
   31.7880   28.6470   46.6620 C   0  0  0  0  0  0  0  0  0  0  0  0
   30.8050   28.6940   45.6830 C   0  0  0  0  0  0  0  0  0  0  0  0
   30.9660   29.5060   44.6220 N   0  0  0  0  0  0  0  0  0  0  0  0
   32.0870   30.2500   44.5510 C   0  0  0  0  0  0  0  0  0  0  0  0
   33.0190   30.1940   45.4960 N   0  0  0  0  0  0  0  0  0  0  0  0
   31.6670   27.9950   47.5200 H   0  0  0  0  0  0  0  0  0  0  0  0
   29.9450   28.0490   45.8470 H   0  0  0  0  0  0  0  0  0  0  0  0
   31.5290   33.2240   44.9650 Cl  0  0  0  0  0  0  0  0  0  0  0  0
   32.0150   32.4840   43.4560 C   0  0  0  0  0  0  0  0  0  0  0  0
   32.2400   31.1240   43.3910 C   0  0  0  0  0  0  0  0  0  0  0  0
   32.6270   30.5630   42.1720 C   0  0  0  0  0  0  0  0  0  0  0  0
   32.8180   29.5140   42.0530 H   0  0  0  0  0  0  0  0  0  0  0  0
   32.7590   31.4340   41.1050 C   0  0  0  0  0  0  0  0  0  0  0  0
   33.0600   31.0290   40.1410 H   0  0  0  0  0  0  0  0  0  0  0  0
   32.5340   32.7940   41.1690 C   0  0  0  0  0  3  0  0  0  0  0  0
   32.1470   33.3500   42.3910 C   0  0  0  0  0  3  0  0  0  0  0  0
  2  1  1  0  0  0  0
  3 15  1  0  0  0  0
  3  2  2  0  0  0  0
  4  3  1  0  0  0  0
  5  4  2  0  0  0  0
  5  6  1  0  0  0  0
  6  7  2  0  0  0  0
  7  2  1  0  0  0  0
  7 10  1  0  0  0  0
  8  4  1  0  0  0  0
  9  6  1  0  0  0  0
 11 17  1  0  0  0  0
 12 18  1  0  0  0  0
 12 11  2  0  0  0  0
 13 14  2  0  0  0  0
 13 12  1  0  0  0  0
 14 15  1  0  0  0  0
 15 16  2  0  0  0  0
 16 11  1  0  0  0  0
 19 13  1  0  0  0  0
 20 21  1  0  0  0  0
 20  5  1  0  0  0  0
 21 26  1  0  0  0  0
 22 27  1  0  0  0  0
 22 21  2  0  0  0  0
 23 22  1  0  0  0  0
 24 23  2  0  0  0  0
 24 25  1  0  0  0  0
 25 20  2  0  0  0  0
 29 28  1  0  0  0  0
 30 29  1  0  0  0  0
 30 24  1  0  0  0  0
 31 30  2  0  0  0  0
 32 31  1  0  0  0  0
 33 35  2  0  0  0  0
 33 31  1  0  0  0  0
 34 33  1  0  0  0  0
 35 36  1  0  0  0  0
 36 29  2  0  0  0  0
M  END
>  <minimizedAffinity>
-6.28814507

>  <minimizedRMSD>
1.40011752

$$$$
