REMARK  Name = 
REMARK  1 active torsions:
REMARK  status: ('A' for Active; 'I' for Inactive)
REMARK    1  A    between atoms: C_2  and  C_24
REMARK                            x       y       z     vdW  Elec       q    Type
REMARK                         _______ _______ _______ _____ _____    ______ ____
ROOT
ATOM      1  C   UNL     1      38.092  33.145  49.491  0.00  0.00    +0.000 A 
ATOM      2  C   UNL     1      38.945  33.065  48.361  0.00  0.00    +0.000 A 
ATOM      3  C   UNL     1      38.705  32.045  47.439  0.00  0.00    +0.000 A 
ATOM      4  N   UNL     1      37.680  31.198  47.675  0.00  0.00    +0.000 NA
ATOM      5  C   UNL     1      36.882  31.287  48.750  0.00  0.00    +0.000 A 
ATOM      6  N   UNL     1      37.085  32.256  49.655  0.00  0.00    +0.000 NA
ATOM      7  N   UNL     1      35.821  30.345  48.915  0.00  0.00    +0.000 N 
ATOM      8  C   UNL     1      34.744  30.193  47.943  0.00  0.00    +0.000 C 
ATOM      9  C   UNL     1      34.020  28.960  48.358  0.00  0.00    +0.000 C 
ATOM     10  C   UNL     1      34.868  28.312  49.430  0.00  0.00    +0.000 C 
ATOM     11  C   UNL     1      35.658  29.435  50.022  0.00  0.00    +0.000 C 
ATOM     12  H   UNL     1      38.273  33.940  50.217  0.00  0.00    +0.000 HD
ATOM     13  H   UNL     1      39.294  31.905  46.559  0.00  0.00    +0.000 HD
ATOM     14  H   UNL     1      34.160  31.125  47.963  0.00  0.00    +0.000 HD
ATOM     15  H   UNL     1      35.263  30.058  46.954  0.00  0.00    +0.000 HD
ATOM     16  H   UNL     1      34.028  28.229  47.499  0.00  0.00    +0.000 HD
ATOM     17  H   UNL     1      32.991  29.199  48.702  0.00  0.00    +0.000 HD
ATOM     18  H   UNL     1      34.184  27.913  50.212  0.00  0.00    +0.000 HD
ATOM     19  H   UNL     1      35.513  27.493  49.031  0.00  0.00    +0.000 HD
ATOM     20  H   UNL     1      35.192  29.898  50.906  0.00  0.00    +0.000 HD
ATOM     21  H   UNL     1      36.671  29.051  50.289  0.00  0.00    +0.000 HD
ENDROOT
BRANCH   2  24
ATOM     22 CL   UNL     1      41.424  32.111  46.852  0.00  0.00    +0.000 Cl
ATOM     23  C   UNL     1      41.213  33.714  47.484  0.00  0.00    +0.000 A 
ATOM     24  C   UNL     1      40.042  33.999  48.142  0.00  0.00    +0.000 A 
ATOM     25  C   UNL     1      39.860  35.267  48.648  0.00  0.00    +0.000 A 
ATOM     26  H   UNL     1      39.001  35.647  49.188  0.00  0.00    +0.000 HD
ATOM     27  C   UNL     1      40.823  36.230  48.503  0.00  0.00    +0.000 A 
ATOM     28  H   UNL     1      40.763  37.265  48.874  0.00  0.00    +0.000 HD
ATOM     29  C   UNL     1      42.010  35.968  47.846  0.00  0.00    +0.000 A 
ATOM     30  C   UNL     1      42.183  34.696  47.342  0.00  0.00    +0.000 A 
ENDBRANCH   2  24
TORSDOF 1
