
 OpenBabel03272505563D

 34 36  0  0  1  0  0  0  0  0999 V2000
   37.8490   26.2930   33.3030 C   0  0  2  0  0  0  0  0  0  0  0  0
   38.7370   25.2530   33.9440 C   0  0  0  0  0  0  0  0  0  0  0  0
   38.4830   25.1080   35.4190 C   0  0  2  0  0  0  0  0  0  0  0  0
   38.5420   26.3830   36.1920 C   0  0  0  0  0  0  0  0  0  0  0  0
   37.9350   27.5610   35.4530 C   0  0  0  0  0  0  0  0  0  0  0  0
   37.0870   27.1180   34.2810 C   0  0  0  0  0  0  0  0  0  0  0  0
   38.4910   26.9080   32.6430 H   0  0  0  0  0  0  0  0  0  0  0  0
   39.8060   25.4870   33.7850 H   0  0  0  0  0  0  0  0  0  0  0  0
   38.6010   24.2270   33.5120 H   0  0  0  0  0  0  0  0  0  0  0  0
   37.5000   24.5700   35.5880 H   0  0  0  0  0  0  0  0  0  0  0  0
   39.5470   26.6420   36.5210 H   0  0  0  0  0  0  0  0  0  0  0  0
   37.8700   26.2240   37.0880 H   0  0  0  0  0  0  0  0  0  0  0  0
   38.7720   28.2070   35.0790 H   0  0  0  0  0  0  0  0  0  0  0  0
   37.3360   28.1860   36.1120 H   0  0  0  0  0  0  0  0  0  0  0  0
   36.8260   28.0710   33.7420 H   0  0  0  0  0  0  0  0  0  0  0  0
   36.1700   26.6260   34.6470 H   0  0  0  0  0  0  0  0  0  0  0  0
   36.8680   25.6290   32.4030 C   0  0  0  0  0  0  0  0  0  0  0  0
   36.9950   24.2320   32.2720 C   0  0  0  0  0  0  0  0  0  0  0  0
   36.0790   23.6030   31.4050 C   0  0  0  0  0  0  0  0  0  0  0  0
   35.1310   24.3570   30.7460 N   0  0  0  0  0  0  0  0  0  0  0  0
   35.0580   25.7010   30.9120 C   0  0  0  0  0  0  0  0  0  0  0  0
   35.9250   26.3110   31.7360 N   0  0  0  0  0  0  0  0  0  0  0  0
   37.7240   23.6160   32.7720 H   0  0  0  0  0  0  0  0  0  0  0  0
   36.0710   22.5400   31.2190 H   0  0  0  0  0  0  0  0  0  0  0  0
   34.3290   26.3070   30.4100 H   0  0  0  0  0  0  0  0  0  0  0  0
   37.6420   23.4010   37.6690 Cl  0  0  0  0  0  0  0  0  0  0  0  0
   39.2720   23.3470   36.9860 C   0  0  0  0  0  0  0  0  0  0  0  0
   39.5460   24.2070   35.9290 C   0  0  0  0  0  0  0  0  0  0  0  0
   40.8390   24.0800   35.4760 C   0  0  0  0  0  0  0  0  0  0  0  0
   41.1560   24.6970   34.6510 H   0  0  0  0  0  0  0  0  0  0  0  0
   41.7460   23.1970   36.0200 C   0  0  0  0  0  0  0  0  0  0  0  0
   42.7570   23.1720   35.5860 H   0  0  0  0  0  0  0  0  0  0  0  0
   41.3940   22.3760   37.0700 C   0  0  0  0  0  3  0  0  0  0  0  0
   40.1140   22.4540   37.5700 C   0  0  0  0  0  3  0  0  0  0  0  0
  1  7  1  6  0  0  0
  1  2  1  0  0  0  0
  1  6  1  0  0  0  0
  2  3  1  0  0  0  0
  3 10  1  1  0  0  0
  3 28  1  0  0  0  0
  3  4  1  0  0  0  0
  4 11  1  0  0  0  0
  4 12  1  0  0  0  0
  5 14  1  0  0  0  0
  5  4  1  0  0  0  0
  6 16  1  0  0  0  0
  6  5  1  0  0  0  0
  8  2  1  0  0  0  0
  9  2  1  0  0  0  0
 13  5  1  0  0  0  0
 15  6  1  0  0  0  0
 17  1  1  0  0  0  0
 18 17  1  0  0  0  0
 18 23  1  0  0  0  0
 19 18  2  0  0  0  0
 20 21  2  0  0  0  0
 20 19  1  0  0  0  0
 21 22  1  0  0  0  0
 22 17  2  0  0  0  0
 24 19  1  0  0  0  0
 25 21  1  0  0  0  0
 27 34  1  0  0  0  0
 27 26  1  0  0  0  0
 28 27  2  0  0  0  0
 29 28  1  0  0  0  0
 29 31  2  0  0  0  0
 30 29  1  0  0  0  0
 31 33  1  0  0  0  0
 32 31  1  0  0  0  0
 33 34  2  0  0  0  0
M  END
>  <minimizedAffinity>
-5.66295958

$$$$

 OpenBabel03272505563D

 34 36  0  0  1  0  0  0  0  0999 V2000
   37.4880   26.9830   33.1700 C   0  0  2  0  0  0  0  0  0  0  0  0
   38.9740   26.7110   33.1570 C   0  0  0  0  0  0  0  0  0  0  0  0
   39.4940   26.2920   34.5050 C   0  0  2  0  0  0  0  0  0  0  0  0
   39.1480   27.2170   35.6240 C   0  0  0  0  0  0  0  0  0  0  0  0
   37.7450   27.7840   35.5210 C   0  0  0  0  0  0  0  0  0  0  0  0
   36.8940   27.0140   34.5350 C   0  0  0  0  0  0  0  0  0  0  0  0
   37.3250   27.9270   32.6170 H   0  0  0  0  0  0  0  0  0  0  0  0
   39.5400   27.5970   32.8130 H   0  0  0  0  0  0  0  0  0  0  0  0
   39.2680   25.8910   32.4520 H   0  0  0  0  0  0  0  0  0  0  0  0
   39.1640   25.2320   34.7310 H   0  0  0  0  0  0  0  0  0  0  0  0
   39.8600   28.0330   35.7440 H   0  0  0  0  0  0  0  0  0  0  0  0
   39.1350   26.5740   36.5540 H   0  0  0  0  0  0  0  0  0  0  0  0
   37.8230   28.8520   35.1850 H   0  0  0  0  0  0  0  0  0  0  0  0
   37.2450   27.8030   36.4870 H   0  0  0  0  0  0  0  0  0  0  0  0
   35.9480   27.6180   34.4440 H   0  0  0  0  0  0  0  0  0  0  0  0
   36.6680   26.0120   34.9370 H   0  0  0  0  0  0  0  0  0  0  0  0
   36.7800   25.9330   32.3870 C   0  0  0  0  0  0  0  0  0  0  0  0
   35.7590   26.3830   31.5290 C   0  0  0  0  0  0  0  0  0  0  0  0
   35.0750   25.3890   30.8010 C   0  0  0  0  0  0  0  0  0  0  0  0
   35.4240   24.0630   30.9560 N   0  0  0  0  0  0  0  0  0  0  0  0
   36.4190   23.6910   31.8000 C   0  0  0  0  0  0  0  0  0  0  0  0
   37.0770   24.6290   32.4970 N   0  0  0  0  0  0  0  0  0  0  0  0
   35.4630   27.4090   31.3850 H   0  0  0  0  0  0  0  0  0  0  0  0
   34.2730   25.6030   30.1100 H   0  0  0  0  0  0  0  0  0  0  0  0
   36.7070   22.6660   31.9360 H   0  0  0  0  0  0  0  0  0  0  0  0
   40.7410   23.8800   35.6500 Cl  0  0  0  0  0  0  0  0  0  0  0  0
   41.6780   25.1620   34.8720 C   0  0  0  0  0  0  0  0  0  0  0  0
   40.9720   26.2530   34.3760 C   0  0  0  0  0  0  0  0  0  0  0  0
   41.7980   27.1850   33.7930 C   0  0  0  0  0  0  0  0  0  0  0  0
   41.3520   28.0700   33.3680 H   0  0  0  0  0  0  0  0  0  0  0  0
   43.1660   27.0410   33.7190 C   0  0  0  0  0  0  0  0  0  0  0  0
   43.7390   27.8460   33.2320 H   0  0  0  0  0  0  0  0  0  0  0  0
   43.7910   25.9260   34.2360 C   0  0  0  0  0  3  0  0  0  0  0  0
   43.0200   24.9550   34.8330 C   0  0  0  0  0  3  0  0  0  0  0  0
  1  7  1  6  0  0  0
  1  6  1  0  0  0  0
  2  1  1  0  0  0  0
  2  3  1  0  0  0  0
  3 10  1  1  0  0  0
  3  4  1  0  0  0  0
  4 11  1  0  0  0  0
  4 12  1  0  0  0  0
  5  4  1  0  0  0  0
  5 14  1  0  0  0  0
  6 16  1  0  0  0  0
  6  5  1  0  0  0  0
  8  2  1  0  0  0  0
  9  2  1  0  0  0  0
 13  5  1  0  0  0  0
 15  6  1  0  0  0  0
 17 22  1  0  0  0  0
 17  1  1  0  0  0  0
 18 17  2  0  0  0  0
 19 20  2  0  0  0  0
 19 18  1  0  0  0  0
 20 21  1  0  0  0  0
 21 25  1  0  0  0  0
 21 22  2  0  0  0  0
 23 18  1  0  0  0  0
 24 19  1  0  0  0  0
 27 26  1  0  0  0  0
 28  3  1  0  0  0  0
 28 27  2  0  0  0  0
 29 28  1  0  0  0  0
 30 29  1  0  0  0  0
 31 29  2  0  0  0  0
 31 33  1  0  0  0  0
 32 31  1  0  0  0  0
 33 34  2  0  0  0  0
 34 27  1  0  0  0  0
M  END
>  <minimizedAffinity>
-5.35867214

$$$$

 OpenBabel03272505563D

 34 36  0  0  1  0  0  0  0  0999 V2000
   38.9850   25.5130   32.3350 C   0  0  2  0  0  0  0  0  0  0  0  0
   39.3500   24.5110   33.4050 C   0  0  0  0  0  0  0  0  0  0  0  0
   39.5260   25.1500   34.7550 C   0  0  2  0  0  0  0  0  0  0  0  0
   40.4730   26.3020   34.7840 C   0  0  0  0  0  0  0  0  0  0  0  0
   40.3730   27.1900   33.5580 C   0  0  0  0  0  0  0  0  0  0  0  0
   39.1060   26.9310   32.7730 C   0  0  0  0  0  0  0  0  0  0  0  0
   39.6120   25.2890   31.4510 H   0  0  0  0  0  0  0  0  0  0  0  0
   40.2750   23.9650   33.1420 H   0  0  0  0  0  0  0  0  0  0  0  0
   38.5750   23.7130   33.5470 H   0  0  0  0  0  0  0  0  0  0  0  0
   38.5150   25.4370   35.1790 H   0  0  0  0  0  0  0  0  0  0  0  0
   41.5110   26.0040   34.9300 H   0  0  0  0  0  0  0  0  0  0  0  0
   40.1310   26.9530   35.6430 H   0  0  0  0  0  0  0  0  0  0  0  0
   41.2610   26.9840   32.9040 H   0  0  0  0  0  0  0  0  0  0  0  0
   40.4230   28.2450   33.8190 H   0  0  0  0  0  0  0  0  0  0  0  0
   39.2270   27.5350   31.8300 H   0  0  0  0  0  0  0  0  0  0  0  0
   38.2320   27.2890   33.3430 H   0  0  0  0  0  0  0  0  0  0  0  0
   37.5800   25.2890   31.8970 C   0  0  0  0  0  0  0  0  0  0  0  0
   37.1300   23.9550   31.9220 C   0  0  0  0  0  0  0  0  0  0  0  0
   35.8060   23.7370   31.4900 C   0  0  0  0  0  0  0  0  0  0  0  0
   35.0360   24.8040   31.0760 N   0  0  0  0  0  0  0  0  0  0  0  0
   35.5260   26.0680   31.0740 C   0  0  0  0  0  0  0  0  0  0  0  0
   36.7850   26.2880   31.4840 N   0  0  0  0  0  0  0  0  0  0  0  0
   37.7050   23.1000   32.2390 H   0  0  0  0  0  0  0  0  0  0  0  0
   35.3430   22.7620   31.4610 H   0  0  0  0  0  0  0  0  0  0  0  0
   34.9460   26.9130   30.7570 H   0  0  0  0  0  0  0  0  0  0  0  0
   37.8030   24.5130   37.0590 Cl  0  0  0  0  0  0  0  0  0  0  0  0
   39.3390   23.6900   36.7590 C   0  0  0  0  0  0  0  0  0  0  0  0
   40.0630   24.0860   35.6400 C   0  0  0  0  0  0  0  0  0  0  0  0
   41.2370   23.3820   35.5050 C   0  0  0  0  0  0  0  0  0  0  0  0
   41.8740   23.6040   34.6630 H   0  0  0  0  0  0  0  0  0  0  0  0
   41.6350   22.4010   36.3870 C   0  0  0  0  0  0  0  0  0  0  0  0
   42.5940   21.8960   36.1890 H   0  0  0  0  0  0  0  0  0  0  0  0
   40.8580   22.0670   37.4750 C   0  0  0  0  0  3  0  0  0  0  0  0
   39.6700   22.7350   37.6670 C   0  0  0  0  0  3  0  0  0  0  0  0
  1  7  1  6  0  0  0
  1  6  1  0  0  0  0
  1  2  1  0  0  0  0
  2  9  1  0  0  0  0
  2  3  1  0  0  0  0
  3  4  1  0  0  0  0
  3 10  1  1  0  0  0
  3 28  1  0  0  0  0
  4 11  1  0  0  0  0
  4 12  1  0  0  0  0
  5 14  1  0  0  0  0
  5  4  1  0  0  0  0
  6 16  1  0  0  0  0
  6  5  1  0  0  0  0
  8  2  1  0  0  0  0
 13  5  1  0  0  0  0
 15  6  1  0  0  0  0
 17 18  1  0  0  0  0
 17  1  1  0  0  0  0
 18 23  1  0  0  0  0
 19 18  2  0  0  0  0
 20 19  1  0  0  0  0
 21 20  2  0  0  0  0
 21 22  1  0  0  0  0
 22 17  2  0  0  0  0
 24 19  1  0  0  0  0
 25 21  1  0  0  0  0
 27 26  1  0  0  0  0
 27 34  1  0  0  0  0
 28 27  2  0  0  0  0
 29 28  1  0  0  0  0
 29 31  2  0  0  0  0
 30 29  1  0  0  0  0
 31 33  1  0  0  0  0
 32 31  1  0  0  0  0
 33 34  2  0  0  0  0
M  END
>  <minimizedAffinity>
-5.33768225

$$$$

 OpenBabel03272505563D

 34 36  0  0  1  0  0  0  0  0999 V2000
   37.0230   27.9860   31.9300 C   0  0  2  0  0  0  0  0  0  0  0  0
   36.3990   28.6140   33.1540 C   0  0  0  0  0  0  0  0  0  0  0  0
   35.3320   29.6150   32.8070 C   0  0  2  0  0  0  0  0  0  0  0  0
   35.7570   30.6740   31.8450 C   0  0  0  0  0  0  0  0  0  0  0  0
   36.6640   30.1550   30.7460 C   0  0  0  0  0  0  0  0  0  0  0  0
   36.6350   28.6450   30.6530 C   0  0  0  0  0  0  0  0  0  0  0  0
   38.1190   27.9840   32.0880 H   0  0  0  0  0  0  0  0  0  0  0  0
   37.1630   29.1060   33.7850 H   0  0  0  0  0  0  0  0  0  0  0  0
   35.9050   27.8680   33.8310 H   0  0  0  0  0  0  0  0  0  0  0  0
   34.4040   29.0770   32.4430 H   0  0  0  0  0  0  0  0  0  0  0  0
   36.2260   31.5310   32.3270 H   0  0  0  0  0  0  0  0  0  0  0  0
   34.8120   30.9960   31.3150 H   0  0  0  0  0  0  0  0  0  0  0  0
   37.7110   30.4900   30.9690 H   0  0  0  0  0  0  0  0  0  0  0  0
   36.4070   30.5780   29.7770 H   0  0  0  0  0  0  0  0  0  0  0  0
   37.4470   28.3900   29.9160 H   0  0  0  0  0  0  0  0  0  0  0  0
   35.6560   28.3120   30.2690 H   0  0  0  0  0  0  0  0  0  0  0  0
   36.6270   26.5540   31.8440 C   0  0  0  0  0  0  0  0  0  0  0  0
   35.4670   26.2760   31.0970 C   0  0  0  0  0  0  0  0  0  0  0  0
   35.0790   24.9220   31.0300 C   0  0  0  0  0  0  0  0  0  0  0  0
   35.8290   23.9620   31.6770 N   0  0  0  0  0  0  0  0  0  0  0  0
   36.9390   24.2920   32.3830 C   0  0  0  0  0  0  0  0  0  0  0  0
   37.3180   25.5770   32.4530 N   0  0  0  0  0  0  0  0  0  0  0  0
   34.8600   27.0020   30.5810 H   0  0  0  0  0  0  0  0  0  0  0  0
   34.2100   24.5790   30.4900 H   0  0  0  0  0  0  0  0  0  0  0  0
   37.5370   23.5620   32.8940 H   0  0  0  0  0  0  0  0  0  0  0  0
   32.4950   29.3090   33.5410 Cl  0  0  0  0  0  0  0  0  0  0  0  0
   33.6510   30.1940   34.5450 C   0  0  0  0  0  0  0  0  0  0  0  0
   34.9610   30.2720   34.0850 C   0  0  0  0  0  0  0  0  0  0  0  0
   35.7710   30.9800   34.9430 C   0  0  0  0  0  0  0  0  0  0  0  0
   36.8120   31.0950   34.6850 H   0  0  0  0  0  0  0  0  0  0  0  0
   35.3190   31.5430   36.1160 C   0  0  0  0  0  0  0  0  0  0  0  0
   36.0490   32.0910   36.7330 H   0  0  0  0  0  0  0  0  0  0  0  0
   34.0010   31.4200   36.5010 C   0  0  0  0  0  3  0  0  0  0  0  0
   33.1380   30.7220   35.6870 C   0  0  0  0  0  3  0  0  0  0  0  0
  1  7  1  1  0  0  0
  1  2  1  0  0  0  0
  2  8  1  0  0  0  0
  2  9  1  0  0  0  0
  3 10  1  6  0  0  0
  3  2  1  0  0  0  0
  3 28  1  0  0  0  0
  4 11  1  0  0  0  0
  4  3  1  0  0  0  0
  5 13  1  0  0  0  0
  5  4  1  0  0  0  0
  6  5  1  0  0  0  0
  6  1  1  0  0  0  0
 12  4  1  0  0  0  0
 14  5  1  0  0  0  0
 15  6  1  0  0  0  0
 16  6  1  0  0  0  0
 17  1  1  0  0  0  0
 17 22  1  0  0  0  0
 18 17  2  0  0  0  0
 19 18  1  0  0  0  0
 19 20  2  0  0  0  0
 20 21  1  0  0  0  0
 21 22  2  0  0  0  0
 21 25  1  0  0  0  0
 23 18  1  0  0  0  0
 24 19  1  0  0  0  0
 26 27  1  0  0  0  0
 27 34  1  0  0  0  0
 28 27  2  0  0  0  0
 28 29  1  0  0  0  0
 29 31  2  0  0  0  0
 30 29  1  0  0  0  0
 31 33  1  0  0  0  0
 31 32  1  0  0  0  0
 34 33  2  0  0  0  0
M  END
>  <minimizedAffinity>
-5.25532007

$$$$

 OpenBabel03272505563D

 34 36  0  0  1  0  0  0  0  0999 V2000
   35.0480   31.8170   36.3160 C   0  0  2  0  0  0  0  0  0  0  0  0
   35.8440   30.8290   35.4960 C   0  0  0  0  0  0  0  0  0  0  0  0
   35.0530   30.2640   34.3480 C   0  0  2  0  0  0  0  0  0  0  0  0
   33.7350   29.6750   34.7260 C   0  0  0  0  0  0  0  0  0  0  0  0
   33.0110   30.4670   35.7990 C   0  0  0  0  0  0  0  0  0  0  0  0
   33.5990   31.8500   35.9750 C   0  0  0  0  0  0  0  0  0  0  0  0
   35.2250   31.5740   37.3810 H   0  0  0  0  0  0  0  0  0  0  0  0
   36.2140   29.9960   36.1220 H   0  0  0  0  0  0  0  0  0  0  0  0
   36.7650   31.2750   35.0370 H   0  0  0  0  0  0  0  0  0  0  0  0
   34.9370   31.0490   33.5390 H   0  0  0  0  0  0  0  0  0  0  0  0
   33.8000   28.6310   35.0290 H   0  0  0  0  0  0  0  0  0  0  0  0
   33.0860   29.7720   33.8050 H   0  0  0  0  0  0  0  0  0  0  0  0
   33.0960   29.9040   36.7660 H   0  0  0  0  0  0  0  0  0  0  0  0
   31.9480   30.5540   35.5870 H   0  0  0  0  0  0  0  0  0  0  0  0
   33.0790   32.2650   36.8840 H   0  0  0  0  0  0  0  0  0  0  0  0
   33.3710   32.4690   35.0920 H   0  0  0  0  0  0  0  0  0  0  0  0
   35.5950   33.1870   36.1200 C   0  0  0  0  0  0  0  0  0  0  0  0
   36.8100   33.2730   35.4140 C   0  0  0  0  0  0  0  0  0  0  0  0
   37.3400   34.5680   35.2430 C   0  0  0  0  0  0  0  0  0  0  0  0
   36.6680   35.6570   35.7580 N   0  0  0  0  0  0  0  0  0  0  0  0
   35.4990   35.5100   36.4290 C   0  0  0  0  0  0  0  0  0  0  0  0
   34.9840   34.2820   36.5970 N   0  0  0  0  0  0  0  0  0  0  0  0
   37.3600   32.4430   35.0000 H   0  0  0  0  0  0  0  0  0  0  0  0
   38.2640   34.7680   34.7220 H   0  0  0  0  0  0  0  0  0  0  0  0
   34.9580   36.3420   36.8380 H   0  0  0  0  0  0  0  0  0  0  0  0
   35.3920   30.4390   31.4260 Cl  0  0  0  0  0  0  0  0  0  0  0  0
   36.1340   29.1620   32.3990 C   0  0  0  0  0  0  0  0  0  0  0  0
   35.8930   29.1870   33.7680 C   0  0  0  0  0  0  0  0  0  0  0  0
   36.5170   28.1510   34.4240 C   0  0  0  0  0  0  0  0  0  0  0  0
   36.4020   28.0790   35.4940 H   0  0  0  0  0  0  0  0  0  0  0  0
   37.2870   27.2050   33.7820 C   0  0  0  0  0  0  0  0  0  0  0  0
   37.7440   26.4150   34.3990 H   0  0  0  0  0  0  0  0  0  0  0  0
   37.4760   27.2520   32.4180 C   0  0  0  0  0  3  0  0  0  0  0  0
   36.8790   28.2650   31.7020 C   0  0  0  0  0  3  0  0  0  0  0  0
  1  7  1  1  0  0  0
  2  8  1  0  0  0  0
  2  1  1  0  0  0  0
  3 10  1  6  0  0  0
  3  4  1  0  0  0  0
  3  2  1  0  0  0  0
  4 11  1  0  0  0  0
  4  5  1  0  0  0  0
  5  6  1  0  0  0  0
  5 13  1  0  0  0  0
  6  1  1  0  0  0  0
  6 15  1  0  0  0  0
  9  2  1  0  0  0  0
 12  4  1  0  0  0  0
 14  5  1  0  0  0  0
 16  6  1  0  0  0  0
 17  1  1  0  0  0  0
 17 22  1  0  0  0  0
 18 17  2  0  0  0  0
 19 18  1  0  0  0  0
 19 20  2  0  0  0  0
 20 21  1  0  0  0  0
 21 22  2  0  0  0  0
 21 25  1  0  0  0  0
 23 18  1  0  0  0  0
 24 19  1  0  0  0  0
 26 27  1  0  0  0  0
 27 28  1  0  0  0  0
 28  3  1  0  0  0  0
 28 29  2  0  0  0  0
 29 30  1  0  0  0  0
 31 32  1  0  0  0  0
 31 29  1  0  0  0  0
 33 31  2  0  0  0  0
 34 27  2  0  0  0  0
 34 33  1  0  0  0  0
M  END
>  <minimizedAffinity>
-5.23827362

$$$$

 OpenBabel03272505563D

 34 36  0  0  1  0  0  0  0  0999 V2000
   36.4160   23.5640   31.2970 C   0  0  2  0  0  0  0  0  0  0  0  0
   37.6170   24.2180   31.9370 C   0  0  0  0  0  0  0  0  0  0  0  0
   37.2610   25.4800   32.6750 C   0  0  2  0  0  0  0  0  0  0  0  0
   36.4960   26.4790   31.8730 C   0  0  0  0  0  0  0  0  0  0  0  0
   35.4670   25.8490   30.9540 C   0  0  0  0  0  0  0  0  0  0  0  0
   35.1890   24.4070   31.3200 C   0  0  0  0  0  0  0  0  0  0  0  0
   36.7110   23.2760   30.2690 H   0  0  0  0  0  0  0  0  0  0  0  0
   38.3950   24.4490   31.1860 H   0  0  0  0  0  0  0  0  0  0  0  0
   38.1300   23.5630   32.6890 H   0  0  0  0  0  0  0  0  0  0  0  0
   36.7190   25.2220   33.6360 H   0  0  0  0  0  0  0  0  0  0  0  0
   37.1340   27.1480   31.2960 H   0  0  0  0  0  0  0  0  0  0  0  0
   35.8930   27.0710   32.6240 H   0  0  0  0  0  0  0  0  0  0  0  0
   35.8620   25.8930   29.9050 H   0  0  0  0  0  0  0  0  0  0  0  0
   34.5320   26.4050   30.9540 H   0  0  0  0  0  0  0  0  0  0  0  0
   34.5360   24.0230   30.4860 H   0  0  0  0  0  0  0  0  0  0  0  0
   34.6450   24.3620   32.2780 H   0  0  0  0  0  0  0  0  0  0  0  0
   36.1070   22.2880   31.9980 C   0  0  0  0  0  0  0  0  0  0  0  0
   35.2540   21.3980   31.3160 C   0  0  0  0  0  0  0  0  0  0  0  0
   34.9450   20.1970   31.9860 C   0  0  0  0  0  0  0  0  0  0  0  0
   35.4750   19.9540   33.2370 N   0  0  0  0  0  0  0  0  0  0  0  0
   36.2920   20.8510   33.8430 C   0  0  0  0  0  0  0  0  0  0  0  0
   36.5930   21.9980   33.2140 N   0  0  0  0  0  0  0  0  0  0  0  0
   34.8250   21.5580   30.3410 H   0  0  0  0  0  0  0  0  0  0  0  0
   34.3040   19.4340   31.5720 H   0  0  0  0  0  0  0  0  0  0  0  0
   36.7150   20.6830   34.8140 H   0  0  0  0  0  0  0  0  0  0  0  0
   37.6740   25.6310   35.5890 Cl  0  0  0  0  0  0  0  0  0  0  0  0
   38.8670   26.2180   34.4230 C   0  0  0  0  0  0  0  0  0  0  0  0
   38.5510   26.0940   33.0750 C   0  0  0  0  0  0  0  0  0  0  0  0
   39.5480   26.5810   32.2610 C   0  0  0  0  0  0  0  0  0  0  0  0
   39.4080   26.5270   31.1930 H   0  0  0  0  0  0  0  0  0  0  0  0
   40.7180   27.1260   32.7430 C   0  0  0  0  0  0  0  0  0  0  0  0
   41.4530   27.4880   32.0070 H   0  0  0  0  0  0  0  0  0  0  0  0
   40.9550   27.2110   34.0980 C   0  0  0  0  0  3  0  0  0  0  0  0
   39.9970   26.7420   34.9670 C   0  0  0  0  0  3  0  0  0  0  0  0
  1  7  1  6  0  0  0
  1  6  1  0  0  0  0
  1  2  1  0  0  0  0
  1 17  1  0  0  0  0
  2  3  1  0  0  0  0
  2  9  1  0  0  0  0
  3 28  1  0  0  0  0
  3 10  1  1  0  0  0
  4 12  1  0  0  0  0
  4  3  1  0  0  0  0
  5 14  1  0  0  0  0
  5  6  1  0  0  0  0
  5  4  1  0  0  0  0
  6 16  1  0  0  0  0
  8  2  1  0  0  0  0
 11  4  1  0  0  0  0
 13  5  1  0  0  0  0
 15  6  1  0  0  0  0
 17 22  1  0  0  0  0
 18 19  1  0  0  0  0
 18 17  2  0  0  0  0
 19 20  2  0  0  0  0
 20 21  1  0  0  0  0
 21 25  1  0  0  0  0
 22 21  2  0  0  0  0
 23 18  1  0  0  0  0
 24 19  1  0  0  0  0
 27 34  1  0  0  0  0
 27 26  1  0  0  0  0
 28 27  2  0  0  0  0
 29 31  2  0  0  0  0
 29 28  1  0  0  0  0
 30 29  1  0  0  0  0
 31 33  1  0  0  0  0
 32 31  1  0  0  0  0
 33 34  2  0  0  0  0
M  END
>  <minimizedAffinity>
-5.22242641

$$$$

 OpenBabel03272505563D

 34 36  0  0  1  0  0  0  0  0999 V2000
   39.9620   22.4250   36.5370 C   0  0  2  0  0  0  0  0  0  0  0  0
   39.3980   23.2360   35.3940 C   0  0  0  0  0  0  0  0  0  0  0  0
   38.8320   24.5540   35.8470 C   0  0  2  0  0  0  0  0  0  0  0  0
   37.8350   24.4590   36.9530 C   0  0  0  0  0  0  0  0  0  0  0  0
   38.1920   23.4150   37.9940 C   0  0  0  0  0  0  0  0  0  0  0  0
   39.6350   22.9730   37.8820 C   0  0  0  0  0  0  0  0  0  0  0  0
   39.6030   21.3860   36.4070 H   0  0  0  0  0  0  0  0  0  0  0  0
   38.6130   22.6740   34.8540 H   0  0  0  0  0  0  0  0  0  0  0  0
   40.1600   23.4870   34.6110 H   0  0  0  0  0  0  0  0  0  0  0  0
   39.6760   25.2620   36.1130 H   0  0  0  0  0  0  0  0  0  0  0  0
   36.8180   24.2880   36.6030 H   0  0  0  0  0  0  0  0  0  0  0  0
   37.8960   25.4480   37.4990 H   0  0  0  0  0  0  0  0  0  0  0  0
   37.5220   22.5280   37.8430 H   0  0  0  0  0  0  0  0  0  0  0  0
   38.0050   23.7720   39.0050 H   0  0  0  0  0  0  0  0  0  0  0  0
   39.7240   22.1080   38.5970 H   0  0  0  0  0  0  0  0  0  0  0  0
   40.3030   23.7930   38.1940 H   0  0  0  0  0  0  0  0  0  0  0  0
   41.4440   22.3560   36.4190 C   0  0  0  0  0  0  0  0  0  0  0  0
   42.0130   21.0710   36.5140 C   0  0  0  0  0  0  0  0  0  0  0  0
   43.4180   21.0060   36.4220 C   0  0  0  0  0  0  0  0  0  0  0  0
   44.1480   22.1630   36.2470 N   0  0  0  0  0  0  0  0  0  0  0  0
   43.5420   23.3730   36.1620 C   0  0  0  0  0  0  0  0  0  0  0  0
   42.2050   23.4480   36.2480 N   0  0  0  0  0  0  0  0  0  0  0  0
   41.4720   20.1500   36.6510 H   0  0  0  0  0  0  0  0  0  0  0  0
   43.9750   20.0830   36.4800 H   0  0  0  0  0  0  0  0  0  0  0  0
   44.0890   24.2860   36.0260 H   0  0  0  0  0  0  0  0  0  0  0  0
   38.6320   27.4930   35.8920 Cl  0  0  0  0  0  0  0  0  0  0  0  0
   38.0040   26.5130   34.5600 C   0  0  0  0  0  0  0  0  0  0  0  0
   38.1560   25.1350   34.6610 C   0  0  0  0  0  0  0  0  0  0  0  0
   37.6330   24.4740   33.5730 C   0  0  0  0  0  0  0  0  0  0  0  0
   37.7050   23.3980   33.5450 H   0  0  0  0  0  0  0  0  0  0  0  0
   37.0320   25.1190   32.5150 C   0  0  0  0  0  0  0  0  0  0  0  0
   36.6450   24.4970   31.6920 H   0  0  0  0  0  0  0  0  0  0  0  0
   36.9210   26.4920   32.4920 C   0  0  0  0  0  3  0  0  0  0  0  0
   37.4240   27.2130   33.5510 C   0  0  0  0  0  3  0  0  0  0  0  0
  1  7  1  6  0  0  0
  1  6  1  0  0  0  0
  2  3  1  0  0  0  0
  2  1  1  0  0  0  0
  3 10  1  1  0  0  0
  3  4  1  0  0  0  0
  4 12  1  0  0  0  0
  4  5  1  0  0  0  0
  5 14  1  0  0  0  0
  6  5  1  0  0  0  0
  6 16  1  0  0  0  0
  6 15  1  0  0  0  0
  8  2  1  0  0  0  0
  9  2  1  0  0  0  0
 11  4  1  0  0  0  0
 13  5  1  0  0  0  0
 17 18  1  0  0  0  0
 17  1  1  0  0  0  0
 18 23  1  0  0  0  0
 19 24  1  0  0  0  0
 19 18  2  0  0  0  0
 20 19  1  0  0  0  0
 21 20  2  0  0  0  0
 21 22  1  0  0  0  0
 22 17  2  0  0  0  0
 25 21  1  0  0  0  0
 27 28  1  0  0  0  0
 27 26  1  0  0  0  0
 28  3  1  0  0  0  0
 29 28  2  0  0  0  0
 30 29  1  0  0  0  0
 31 29  1  0  0  0  0
 32 31  1  0  0  0  0
 33 31  2  0  0  0  0
 33 34  1  0  0  0  0
 34 27  2  0  0  0  0
M  END
>  <minimizedAffinity>
-5.18445683

$$$$

 OpenBabel03272505563D

 34 36  0  0  1  0  0  0  0  0999 V2000
   32.7850   30.3570   34.9920 C   0  0  2  0  0  0  0  0  0  0  0  0
   33.6750   29.7390   33.9400 C   0  0  0  0  0  0  0  0  0  0  0  0
   35.1260   29.7470   34.3360 C   0  0  2  0  0  0  0  0  0  0  0  0
   35.6570   31.0810   34.7420 C   0  0  0  0  0  0  0  0  0  0  0  0
   34.6690   31.8980   35.5520 C   0  0  0  0  0  0  0  0  0  0  0  0
   33.5310   31.0510   36.0780 C   0  0  0  0  0  0  0  0  0  0  0  0
   32.0800   31.0300   34.4680 H   0  0  0  0  0  0  0  0  0  0  0  0
   33.5650   30.2570   32.9690 H   0  0  0  0  0  0  0  0  0  0  0  0
   33.4260   28.6680   33.7230 H   0  0  0  0  0  0  0  0  0  0  0  0
   35.3080   28.9690   35.1410 H   0  0  0  0  0  0  0  0  0  0  0  0
   36.0150   31.6760   33.9020 H   0  0  0  0  0  0  0  0  0  0  0  0
   36.5080   30.8630   35.4540 H   0  0  0  0  0  0  0  0  0  0  0  0
   34.2540   32.7020   34.8900 H   0  0  0  0  0  0  0  0  0  0  0  0
   35.1520   32.4050   36.3850 H   0  0  0  0  0  0  0  0  0  0  0  0
   32.8080   31.7910   36.5230 H   0  0  0  0  0  0  0  0  0  0  0  0
   33.9020   30.3660   36.8590 H   0  0  0  0  0  0  0  0  0  0  0  0
   31.9420   29.3020   35.6180 C   0  0  0  0  0  0  0  0  0  0  0  0
   31.8850   29.3080   37.0250 C   0  0  0  0  0  0  0  0  0  0  0  0
   31.1030   28.2980   37.6200 C   0  0  0  0  0  0  0  0  0  0  0  0
   30.4490   27.3800   36.8250 N   0  0  0  0  0  0  0  0  0  0  0  0
   30.5410   27.4260   35.4730 C   0  0  0  0  0  0  0  0  0  0  0  0
   31.2830   28.3830   34.8950 N   0  0  0  0  0  0  0  0  0  0  0  0
   32.3840   30.0100   37.6730 H   0  0  0  0  0  0  0  0  0  0  0  0
   30.9790   28.1940   38.6880 H   0  0  0  0  0  0  0  0  0  0  0  0
   30.0420   26.7220   34.8350 H   0  0  0  0  0  0  0  0  0  0  0  0
   36.8070   27.3700   34.7940 Cl  0  0  0  0  0  0  0  0  0  0  0  0
   36.7010   28.1770   33.2240 C   0  0  0  0  0  0  0  0  0  0  0  0
   35.8760   29.2930   33.1390 C   0  0  0  0  0  0  0  0  0  0  0  0
   35.8690   29.8380   31.8760 C   0  0  0  0  0  0  0  0  0  0  0  0
   35.2550   30.7060   31.6960 H   0  0  0  0  0  0  0  0  0  0  0  0
   36.6020   29.3260   30.8280 C   0  0  0  0  0  0  0  0  0  0  0  0
   36.5280   29.8370   29.8550 H   0  0  0  0  0  0  0  0  0  0  0  0
   37.3980   28.2130   30.9960 C   0  0  0  0  0  3  0  0  0  0  0  0
   37.4490   27.6190   32.2370 C   0  0  0  0  0  3  0  0  0  0  0  0
  1  7  1  6  0  0  0
  1 17  1  0  0  0  0
  1  6  1  0  0  0  0
  2  3  1  0  0  0  0
  2  1  1  0  0  0  0
  3  4  1  0  0  0  0
  3 10  1  1  0  0  0
  4 12  1  0  0  0  0
  4  5  1  0  0  0  0
  5  6  1  0  0  0  0
  5 14  1  0  0  0  0
  6 15  1  0  0  0  0
  6 16  1  0  0  0  0
  8  2  1  0  0  0  0
  9  2  1  0  0  0  0
 11  4  1  0  0  0  0
 13  5  1  0  0  0  0
 17 18  1  0  0  0  0
 18 19  2  0  0  0  0
 18 23  1  0  0  0  0
 19 24  1  0  0  0  0
 20 19  1  0  0  0  0
 21 20  2  0  0  0  0
 22 21  1  0  0  0  0
 22 17  2  0  0  0  0
 25 21  1  0  0  0  0
 27 26  1  0  0  0  0
 28 27  1  0  0  0  0
 28  3  1  0  0  0  0
 29 28  2  0  0  0  0
 30 29  1  0  0  0  0
 31 33  2  0  0  0  0
 31 29  1  0  0  0  0
 32 31  1  0  0  0  0
 33 34  1  0  0  0  0
 34 27  2  0  0  0  0
M  END
>  <minimizedAffinity>
-5.13725567

$$$$

 OpenBabel03272505563D

 34 36  0  0  1  0  0  0  0  0999 V2000
   36.6820   28.4780   33.2200 C   0  0  2  0  0  0  0  0  0  0  0  0
   36.0500   29.2400   34.3610 C   0  0  0  0  0  0  0  0  0  0  0  0
   34.5720   29.4440   34.1680 C   0  0  2  0  0  0  0  0  0  0  0  0
   34.1910   30.0600   32.8640 C   0  0  0  0  0  0  0  0  0  0  0  0
   35.0230   29.5580   31.6980 C   0  0  0  0  0  0  0  0  0  0  0  0
   35.7840   28.2970   32.0470 C   0  0  0  0  0  0  0  0  0  0  0  0
   37.6190   29.0050   32.9570 H   0  0  0  0  0  0  0  0  0  0  0  0
   36.5330   30.2240   34.5020 H   0  0  0  0  0  0  0  0  0  0  0  0
   36.1570   28.7230   35.3510 H   0  0  0  0  0  0  0  0  0  0  0  0
   34.0240   28.4670   34.3380 H   0  0  0  0  0  0  0  0  0  0  0  0
   34.2110   31.1490   32.8790 H   0  0  0  0  0  0  0  0  0  0  0  0
   33.1420   29.6940   32.6520 H   0  0  0  0  0  0  0  0  0  0  0  0
   35.7520   30.3630   31.4170 H   0  0  0  0  0  0  0  0  0  0  0  0
   34.4130   29.3750   30.8160 H   0  0  0  0  0  0  0  0  0  0  0  0
   36.4610   28.1210   31.1650 H   0  0  0  0  0  0  0  0  0  0  0  0
   35.0810   27.4550   32.1600 H   0  0  0  0  0  0  0  0  0  0  0  0
   37.0990   27.1280   33.6890 C   0  0  0  0  0  0  0  0  0  0  0  0
   37.3250   26.9960   35.0730 C   0  0  0  0  0  0  0  0  0  0  0  0
   37.7380   25.7240   35.5160 C   0  0  0  0  0  0  0  0  0  0  0  0
   37.8970   24.6990   34.6070 N   0  0  0  0  0  0  0  0  0  0  0  0
   37.6640   24.8880   33.2840 C   0  0  0  0  0  0  0  0  0  0  0  0
   37.2700   26.0950   32.8500 N   0  0  0  0  0  0  0  0  0  0  0  0
   37.2100   27.7750   35.8080 H   0  0  0  0  0  0  0  0  0  0  0  0
   37.9440   25.4930   36.5510 H   0  0  0  0  0  0  0  0  0  0  0  0
   37.7810   24.1050   32.5590 H   0  0  0  0  0  0  0  0  0  0  0  0
   31.8750   28.8890   35.2170 Cl  0  0  0  0  0  0  0  0  0  0  0  0
   32.8920   30.1960   35.8390 C   0  0  0  0  0  0  0  0  0  0  0  0
   34.1430   30.3580   35.2550 C   0  0  0  0  0  0  0  0  0  0  0  0
   34.8460   31.4000   35.8160 C   0  0  0  0  0  0  0  0  0  0  0  0
   35.8360   31.6090   35.4420 H   0  0  0  0  0  0  0  0  0  0  0  0
   34.3510   32.1830   36.8360 C   0  0  0  0  0  0  0  0  0  0  0  0
   34.9940   32.9930   37.2140 H   0  0  0  0  0  0  0  0  0  0  0  0
   33.0970   31.9550   37.3600 C   0  0  0  0  0  3  0  0  0  0  0  0
   32.3420   30.9270   36.8430 C   0  0  0  0  0  3  0  0  0  0  0  0
  1  7  1  6  0  0  0
  1 17  1  0  0  0  0
  1  2  1  0  0  0  0
  2  8  1  0  0  0  0
  2  9  1  0  0  0  0
  3 10  1  1  0  0  0
  3  2  1  0  0  0  0
  3 28  1  0  0  0  0
  4 11  1  0  0  0  0
  4  3  1  0  0  0  0
  5  6  1  0  0  0  0
  5  4  1  0  0  0  0
  6 16  1  0  0  0  0
  6  1  1  0  0  0  0
 12  4  1  0  0  0  0
 13  5  1  0  0  0  0
 14  5  1  0  0  0  0
 15  6  1  0  0  0  0
 17 18  1  0  0  0  0
 18 19  2  0  0  0  0
 18 23  1  0  0  0  0
 19 24  1  0  0  0  0
 20 19  1  0  0  0  0
 21 20  2  0  0  0  0
 22 21  1  0  0  0  0
 22 17  2  0  0  0  0
 25 21  1  0  0  0  0
 26 27  1  0  0  0  0
 27 34  1  0  0  0  0
 28 29  1  0  0  0  0
 28 27  2  0  0  0  0
 29 31  2  0  0  0  0
 30 29  1  0  0  0  0
 31 32  1  0  0  0  0
 31 33  1  0  0  0  0
 34 33  2  0  0  0  0
M  END
>  <minimizedAffinity>
-5.09650326

$$$$
