
     RDKit          3D

 35 37  0  0  0  0  0  0  0  0999 V2000
   33.7326   28.5782   48.6904 C   0  0  0  0  0  0  0  0  0  0  0  0
   32.8185   27.4578   48.3320 C   0  0  0  0  0  0  0  0  0  0  0  0
   31.3779   27.8590   48.3429 C   0  0  0  0  0  0  0  0  0  0  0  0
   30.6898   27.7229   49.5441 C   0  0  0  0  0  0  0  0  0  0  0  0
   29.3639   28.0678   49.6539 C   0  0  0  0  0  0  0  0  0  0  0  0
   28.7136   28.5443   48.5921 N   0  0  0  0  0  0  0  0  0  0  0  0
   29.4040   28.6717   47.4203 C   0  0  0  0  0  0  0  0  0  0  0  0
   30.6909   28.3485   47.2712 N   0  0  0  0  0  0  0  0  0  0  0  0
   34.6017   28.2326   49.7545 O   0  0  0  0  0  0  0  0  0  0  0  0
   37.2419   30.1799   51.2790 C   0  0  0  0  0  0  0  0  0  0  0  0
   37.9034   30.6120   50.1264 C   0  0  0  0  0  0  0  0  0  0  0  0
   37.4324   30.2311   48.8929 C   0  0  0  0  0  0  0  0  0  0  0  0
   36.3220   29.4367   48.9235 N   0  0  0  0  0  0  0  0  0  0  0  0
   35.6920   29.0242   50.0134 C   0  0  0  0  0  0  0  0  0  0  0  0
   36.1654   29.4064   51.2064 N   0  0  0  0  0  0  0  0  0  0  0  0
   33.1845   29.5092   48.9337 H   0  0  0  0  0  0  0  0  0  0  0  0
   34.4037   28.7442   47.8082 H   0  0  0  0  0  0  0  0  0  0  0  0
   33.0140   27.0319   47.3257 H   0  0  0  0  0  0  0  0  0  0  0  0
   32.9407   26.6031   49.0416 H   0  0  0  0  0  0  0  0  0  0  0  0
   31.2117   27.3344   50.4183 H   0  0  0  0  0  0  0  0  0  0  0  0
   28.8233   27.9643   50.5850 H   0  0  0  0  0  0  0  0  0  0  0  0
   28.9710   29.0508   46.4887 H   0  0  0  0  0  0  0  0  0  0  0  0
   37.6555   30.5105   52.2333 H   0  0  0  0  0  0  0  0  0  0  0  0
   38.7559   31.2124   50.2003 H   0  0  0  0  0  0  0  0  0  0  0  0
   37.9530   33.1945   47.9528 Cl  0  0  0  0  0  0  0  0  0  0  0  0
   38.2432   31.7580   47.0256 C   0  0  0  0  0  0  0  0  0  0  0  0
   37.9601   30.5451   47.5807 C   0  0  0  0  0  0  0  0  0  0  0  0
   38.2184   29.5009   46.7225 C   0  0  0  0  0  0  0  0  0  0  0  0
   38.0508   28.4475   46.9958 H   0  0  0  0  0  0  0  0  0  0  0  0
   38.7072   29.6522   45.4482 C   0  0  0  0  0  0  0  0  0  0  0  0
   38.8969   28.8140   44.8076 H   0  0  0  0  0  0  0  0  0  0  0  0
   38.9754   30.9017   44.9406 C   0  0  0  0  0  0  0  0  0  0  0  0
   38.7327   31.9769   45.7612 C   0  0  0  0  0  0  0  0  0  0  0  0
   39.3555   31.0080   43.9488 H   0  0  0  0  0  0  0  0  0  0  0  0
   38.9396   32.9485   45.3709 H   0  0  0  0  0  0  0  0  0  0  0  0
  1  9  1  0
  2  1  1  0
  3  2  1  0
  3  4  2  0
  4  5  1  0
  6  5  2  0
  7  6  1  0
  8  7  2  0
  8  3  1  0
  9 14  1  0
 11 10  2  0
 12 11  1  0
 13 12  2  0
 13 14  1  0
 14 15  2  0
 15 10  1  0
  1 16  1  0
  1 17  1  0
  2 18  1  0
  2 19  1  0
  4 20  1  0
  5 21  1  0
  7 22  1  0
 10 23  1  0
 11 24  1  0
 25 26  1  0
 26 27  2  0
 27 28  1  0
 28 29  1  0
 28 30  2  0
 30 31  1  0
 30 32  1  0
 32 33  2  0
 33 26  1  0
 32 34  1  0
 33 35  1  0
 12 27  1  0
M  ISO  8  16   8  17   8  18   8  19   8  20  14  21  14  22  14  23  14
M  ISO  3  24  14  29  15  31  16
M  END
>  <DihAtoms>  (1) 
10,11,26,25

>  <DihDeg>  (1) 
-9.010915710949163

$$$$
