
 OpenBabel03272509493D

 33 35  0  0  0  0  0  0  0  0999 V2000
   37.3220   30.1580   51.5730 C   0  0  0  0  0  0  0  0  0  0  0  0
   38.0480   30.8450   50.5970 C   0  0  0  0  0  0  0  0  0  0  0  0
   37.7240   30.6820   49.2720 C   0  0  0  0  0  0  0  0  0  0  0  0
   36.6830   29.8300   49.0370 N   0  0  0  0  0  0  0  0  0  0  0  0
   35.9920   29.1750   49.9590 C   0  0  0  0  0  0  0  0  0  0  0  0
   36.3220   29.3480   51.2450 N   0  0  0  0  0  0  0  0  0  0  0  0
   37.6190   30.3230   52.6100 H   0  0  0  0  0  0  0  0  0  0  0  0
   38.8390   31.4720   50.8710 H   0  0  0  0  0  0  0  0  0  0  0  0
   38.9360   33.5910   49.3070 Cl  0  0  0  0  0  0  0  0  0  0  0  0
   38.9100   32.5070   47.9530 C   0  0  0  0  0  0  0  0  0  0  0  0
   38.3420   31.2760   48.1040 C   0  0  0  0  0  0  0  0  0  0  0  0
   38.3740   30.5370   46.9440 C   0  0  0  0  0  0  0  0  0  0  0  0
   37.9610   29.5190   46.8730 H   0  0  0  0  0  0  0  0  0  0  0  0
   38.9160   30.9790   45.7620 C   0  0  0  0  0  0  0  0  0  0  0  0
   38.9220   30.3730   44.8770 H   0  0  0  0  0  0  0  0  0  0  0  0
   39.4770   32.2310   45.6690 C   0  0  0  0  0  0  0  0  0  0  0  0
   39.4680   33.0070   46.8020 C   0  0  0  0  0  0  0  0  0  0  0  0
   34.9980   28.3830   49.4450 O   0  0  0  0  0  0  0  0  0  0  0  0
   34.4640   28.6840   48.1670 C   0  0  0  0  0  0  0  0  0  0  0  0
   33.9320   29.6560   48.1960 H   0  0  0  0  0  0  0  0  0  0  0  0
   35.3530   28.7500   47.4870 H   0  0  0  0  0  0  0  0  0  0  0  0
   33.6050   27.5830   47.6490 C   0  0  0  0  0  0  0  0  0  0  0  0
   33.8470   27.2860   46.6070 H   0  0  0  0  0  0  0  0  0  0  0  0
   33.7390   26.6550   48.2580 H   0  0  0  0  0  0  0  0  0  0  0  0
   32.1500   27.9300   47.6560 C   0  0  0  0  0  0  0  0  0  0  0  0
   31.4000   27.4960   48.7430 C   0  0  0  0  0  0  0  0  0  0  0  0
   30.0560   27.7680   48.8420 C   0  0  0  0  0  0  0  0  0  0  0  0
   29.4490   28.4620   47.8790 N   0  0  0  0  0  0  0  0  0  0  0  0
   30.2010   28.8810   46.8180 C   0  0  0  0  0  0  0  0  0  0  0  0
   31.5070   28.6390   46.6840 N   0  0  0  0  0  0  0  0  0  0  0  0
   31.8860   26.9270   49.5360 H   0  0  0  0  0  0  0  0  0  0  0  0
   29.4660   27.4320   49.6840 H   0  0  0  0  0  0  0  0  0  0  0  0
   29.8070   29.4570   45.9740 H   0  0  0  0  0  0  0  0  0  0  0  0
  1  7  1  0  0  0  0
  2  8  1  0  0  0  0
  2  1  2  0  0  0  0
  3  2  1  0  0  0  0
  4  3  2  0  0  0  0
  4  5  1  0  0  0  0
  5  6  2  0  0  0  0
  6  1  1  0  0  0  0
 10 11  1  0  0  0  0
 10  9  1  0  0  0  0
 11  3  1  0  0  0  0
 12 11  2  0  0  0  0
 13 12  1  0  0  0  0
 14 12  1  0  0  0  0
 15 14  1  0  0  0  0
 16 14  2  0  0  0  0
 16 17  1  0  0  0  0
 17 10  2  0  0  0  0
 18  5  1  0  0  0  0
 19 20  1  0  0  0  0
 19 18  1  0  0  0  0
 21 19  1  0  0  0  0
 22 25  1  0  0  0  0
 22 19  1  0  0  0  0
 22 24  1  0  0  0  0
 23 22  1  0  0  0  0
 25 26  1  0  0  0  0
 26 27  2  0  0  0  0
 26 31  1  0  0  0  0
 27 32  1  0  0  0  0
 28 27  1  0  0  0  0
 29 28  2  0  0  0  0
 30 29  1  0  0  0  0
 30 25  2  0  0  0  0
 33 29  1  0  0  0  0
M  END
>  <minimizedAffinity>
-6.3430295

>  <minimizedRMSD>
1.12208259

$$$$
