
     RDKit          3D

 21 22  0  0  0  0  0  0  0  0999 V2000
   37.3011   29.9951   51.1784 C   0  0  0  0  0  0  0  0  0  0  0  0
   37.9539   30.9179   50.3540 C   0  0  0  0  0  0  0  0  0  0  0  0
   37.2793   31.3870   49.2374 C   0  0  0  0  0  0  0  0  0  0  0  0
   36.0075   30.9251   48.9954 N   0  0  0  0  0  0  0  0  0  0  0  0
   35.4108   30.0333   49.8160 C   0  0  0  0  0  0  0  0  0  0  0  0
   36.0553   29.5769   50.8939 N   0  0  0  0  0  0  0  0  0  0  0  0
   38.0861   29.6088   52.2569 O   0  0  0  0  0  0  0  0  0  0  0  0
   38.9526   31.3049   50.5103 H   0  0  0  0  0  0  0  0  0  0  0  0
   37.6994   32.0998   48.5423 H   0  0  0  0  0  0  0  0  0  0  0  0
   37.8249   28.9148   52.9334 H   0  0  0  0  0  0  0  0  0  0  0  0
   33.8662   31.6871   47.7647 Cl  0  0  0  0  0  0  0  0  0  0  0  0
   33.2871   30.2616   48.5963 C   0  0  0  0  0  0  0  0  0  0  0  0
   34.0594   29.5780   49.5098 C   0  0  0  0  0  0  0  0  0  0  0  0
   33.5823   28.4551   50.1546 C   0  0  0  0  0  0  0  0  0  0  0  0
   34.2142   27.9341   50.8720 H   0  0  0  0  0  0  0  0  0  0  0  0
   32.3139   27.9764   49.9072 C   0  0  0  0  0  0  0  0  0  0  0  0
   31.9913   27.0821   50.4489 H   0  0  0  0  0  0  0  0  0  0  0  0
   31.5200   28.6459   48.9941 C   0  0  0  0  0  0  0  0  0  0  0  0
   32.0056   29.7735   48.3498 C   0  0  0  0  0  0  0  0  0  0  0  0
   30.5356   28.2297   48.8371 H   0  0  0  0  0  0  0  0  0  0  0  0
   31.3412   30.2345   47.6632 H   0  0  0  0  0  0  0  0  0  0  0  0
  1  7  1  0
  2  1  2  0
  3  2  1  0
  4  3  2  0
  4  5  1  0
  5  6  2  0
  6  1  1  0
  2  8  1  0
  3  9  1  0
  7 10  1  0
 11 12  1  0
 12 13  2  0
 13 14  1  0
 14 15  1  0
 14 16  2  0
 16 17  1  0
 16 18  1  0
 18 19  2  0
 19 12  1  0
 18 20  1  0
 19 21  1  0
  5 13  1  0
M  ISO  5   8  14   9  14  10   3  15  15  17  16
M  END
>  <DihAtoms>  (1) 
3,4,12,11

>  <DihDeg>  (1) 
-179.99339055926686

$$$$
