
 OpenBabel03272505053D

 45 48  0  0  1  0  0  0  0  0999 V2000
   38.8870   26.2050   33.1940 C   0  0  2  0  0  0  0  0  0  0  0  0
   39.9310   26.5560   32.0980 C   0  0  0  0  0  0  0  0  0  0  0  0
   41.2190   25.8190   32.4470 C   0  0  0  0  0  0  0  0  0  0  0  0
   41.8710   26.6640   33.4970 C   0  0  0  0  0  0  0  0  0  0  0  0
   40.8430   27.1370   34.4550 C   0  0  0  0  0  0  0  0  0  0  0  0
   39.5900   26.3860   34.5080 C   0  0  2  0  0  0  0  0  0  0  0  0
   38.0770   26.9280   32.9820 H   0  0  0  0  0  0  0  0  0  0  0  0
   40.0300   27.6180   31.9510 H   0  0  0  0  0  0  0  0  0  0  0  0
   39.5340   26.1300   31.1550 H   0  0  0  0  0  0  0  0  0  0  0  0
   41.8310   25.5510   31.5940 H   0  0  0  0  0  0  0  0  0  0  0  0
   40.9140   24.9460   33.0980 H   0  0  0  0  0  0  0  0  0  0  0  0
   42.7790   26.2080   33.8660 H   0  0  0  0  0  0  0  0  0  0  0  0
   42.2660   27.5730   32.9110 H   0  0  0  0  0  0  0  0  0  0  0  0
   40.5480   28.1800   34.0860 H   0  0  0  0  0  0  0  0  0  0  0  0
   41.2560   27.4360   35.4450 H   0  0  0  0  0  0  0  0  0  0  0  0
   38.8820   27.1670   35.0390 H   0  0  0  0  0  0  0  0  0  0  0  0
   41.4650   23.8600   34.6860 Cl  0  0  0  0  0  0  0  0  0  0  0  0
   40.0180   24.0720   35.6400 C   0  0  0  0  0  0  0  0  0  0  0  0
   39.3910   25.2490   35.3980 C   0  0  0  0  0  0  0  0  0  0  0  0
   38.2480   25.4050   36.2050 C   0  0  0  0  0  0  0  0  0  0  0  0
   37.6030   26.2700   36.1910 H   0  0  0  0  0  0  0  0  0  0  0  0
   37.8280   24.4780   37.1160 C   0  0  0  0  0  0  0  0  0  0  0  0
   36.9570   24.5710   37.7460 H   0  0  0  0  0  0  0  0  0  0  0  0
   38.5360   23.3080   37.2870 C   0  0  0  0  0  3  0  0  0  0  0  0
   39.6650   23.0910   36.5310 C   0  0  0  0  0  3  0  0  0  0  0  0
   38.6140   24.8980   32.9540 O   0  0  0  0  0  0  0  0  0  0  0  0
   38.5670   22.0060   33.2130 Cl  0  0  0  0  0  0  0  0  0  0  0  0
   37.3220   22.9590   32.4370 C   0  0  0  0  0  0  0  0  0  0  0  0
   36.2490   22.2980   31.9100 C   0  0  0  0  0  0  0  0  0  0  0  0
   35.2860   23.1020   31.3010 C   0  0  0  0  0  0  0  0  0  0  0  0
   35.4470   24.4760   31.2530 C   0  0  0  0  0  0  0  0  0  0  0  0
   36.5460   25.0760   31.7990 C   0  0  0  0  0  0  0  0  0  0  0  0
   37.4970   24.3150   32.3980 C   0  0  0  0  0  0  0  0  0  0  0  0
   34.4180   22.5920   30.8740 H   0  0  0  0  0  0  0  0  0  0  0  0
   34.6520   25.0220   30.7620 H   0  0  0  0  0  0  0  0  0  0  0  0
   36.5590   26.1480   31.6960 H   0  0  0  0  0  0  0  0  0  0  0  0
   35.5140   20.2010   33.0480 C   0  0  0  0  0  0  0  0  0  0  0  0
   36.0590   20.8490   31.9420 C   0  0  0  0  0  0  0  0  0  0  0  0
   36.4220   20.0640   30.8490 C   0  0  0  0  0  0  0  0  0  0  0  0
   36.2330   18.7270   30.9080 N   0  0  0  0  0  0  0  0  0  0  0  0
   35.7070   18.1390   31.9890 C   0  0  0  0  0  0  0  0  0  0  0  0
   35.3440   18.8660   33.0640 N   0  0  0  0  0  0  0  0  0  0  0  0
   35.2430   20.8220   33.8710 H   0  0  0  0  0  0  0  0  0  0  0  0
   36.8430   20.6100   30.0040 H   0  0  0  0  0  0  0  0  0  0  0  0
   35.5910   17.0600   31.9520 H   0  0  0  0  0  0  0  0  0  0  0  0
  1  7  1  6  0  0  0
  1  6  1  0  0  0  0
  2  3  1  0  0  0  0
  2  1  1  0  0  0  0
  3 11  1  0  0  0  0
  3  4  1  0  0  0  0
  4 12  1  0  0  0  0
  4  5  1  0  0  0  0
  5  6  1  0  0  0  0
  5 15  1  0  0  0  0
  6 16  1  1  0  0  0
  6 19  1  0  0  0  0
  8  2  1  0  0  0  0
  9  2  1  0  0  0  0
 10  3  1  0  0  0  0
 13  4  1  0  0  0  0
 14  5  1  0  0  0  0
 17 18  1  0  0  0  0
 18 25  1  0  0  0  0
 19 18  2  0  0  0  0
 19 20  1  0  0  0  0
 20 22  2  0  0  0  0
 21 20  1  0  0  0  0
 22 24  1  0  0  0  0
 22 23  1  0  0  0  0
 25 24  2  0  0  0  0
 26  1  1  0  0  0  0
 28 27  1  0  0  0  0
 29 38  1  0  0  0  0
 29 28  2  0  0  0  0
 30 29  1  0  0  0  0
 31 30  2  0  0  0  0
 31 32  1  0  0  0  0
 32 33  2  0  0  0  0
 33 28  1  0  0  0  0
 33 26  1  0  0  0  0
 34 30  1  0  0  0  0
 35 31  1  0  0  0  0
 36 32  1  0  0  0  0
 37 42  1  0  0  0  0
 37 43  1  0  0  0  0
 38 37  2  0  0  0  0
 39 40  2  0  0  0  0
 39 38  1  0  0  0  0
 40 41  1  0  0  0  0
 41 42  2  0  0  0  0
 44 39  1  0  0  0  0
 45 41  1  0  0  0  0
M  END
>  <minimizedAffinity>
-6.18336248

$$$$

 OpenBabel03272505053D

 45 48  0  0  1  0  0  0  0  0999 V2000
   39.3540   26.6970   32.5310 C   0  0  2  0  0  0  0  0  0  0  0  0
   40.3910   27.0070   31.4170 C   0  0  0  0  0  0  0  0  0  0  0  0
   41.6360   26.1820   31.7150 C   0  0  0  0  0  0  0  0  0  0  0  0
   42.3670   26.9570   32.7660 C   0  0  0  0  0  0  0  0  0  0  0  0
   41.3960   27.4710   33.7620 C   0  0  0  0  0  0  0  0  0  0  0  0
   40.0990   26.8000   33.8310 C   0  0  2  0  0  0  0  0  0  0  0  0
   38.5870   27.4740   32.3580 H   0  0  0  0  0  0  0  0  0  0  0  0
   40.5540   28.0650   31.2910 H   0  0  0  0  0  0  0  0  0  0  0  0
   39.9440   26.6310   30.4750 H   0  0  0  0  0  0  0  0  0  0  0  0
   42.2090   25.8960   30.8400 H   0  0  0  0  0  0  0  0  0  0  0  0
   41.2930   25.3140   32.3540 H   0  0  0  0  0  0  0  0  0  0  0  0
   43.2530   26.4350   33.1010 H   0  0  0  0  0  0  0  0  0  0  0  0
   42.8060   27.8540   32.1920 H   0  0  0  0  0  0  0  0  0  0  0  0
   41.1590   28.5400   33.4250 H   0  0  0  0  0  0  0  0  0  0  0  0
   41.8520   27.7190   34.7470 H   0  0  0  0  0  0  0  0  0  0  0  0
   39.4560   27.6110   34.3980 H   0  0  0  0  0  0  0  0  0  0  0  0
   37.3810   26.1840   35.2990 Cl  0  0  0  0  0  0  0  0  0  0  0  0
   38.8120   25.1960   35.4400 C   0  0  0  0  0  0  0  0  0  0  0  0
   39.8500   25.6570   34.6990 C   0  0  0  0  0  0  0  0  0  0  0  0
   40.9780   24.8220   34.8070 C   0  0  0  0  0  0  0  0  0  0  0  0
   41.9130   24.9870   34.2950 H   0  0  0  0  0  0  0  0  0  0  0  0
   41.0160   23.6900   35.5710 C   0  0  0  0  0  0  0  0  0  0  0  0
   41.8660   23.0330   35.6720 H   0  0  0  0  0  0  0  0  0  0  0  0
   39.9060   23.3050   36.2910 C   0  0  0  0  0  3  0  0  0  0  0  0
   38.7670   24.0750   36.2300 C   0  0  0  0  0  3  0  0  0  0  0  0
   38.9910   25.4160   32.2690 O   0  0  0  0  0  0  0  0  0  0  0  0
   38.7800   22.5640   32.7700 Cl  0  0  0  0  0  0  0  0  0  0  0  0
   37.4940   23.5630   32.1310 C   0  0  0  0  0  0  0  0  0  0  0  0
   36.3020   22.9600   31.8430 C   0  0  0  0  0  0  0  0  0  0  0  0
   35.3110   23.7990   31.3340 C   0  0  0  0  0  0  0  0  0  0  0  0
   35.5610   25.1470   31.1470 C   0  0  0  0  0  0  0  0  0  0  0  0
   36.7760   25.6890   31.4550 C   0  0  0  0  0  0  0  0  0  0  0  0
   37.7580   24.8930   31.9520 C   0  0  0  0  0  0  0  0  0  0  0  0
   34.3480   23.3360   31.0980 H   0  0  0  0  0  0  0  0  0  0  0  0
   34.7350   25.7240   30.7490 H   0  0  0  0  0  0  0  0  0  0  0  0
   36.8490   26.7460   31.2630 H   0  0  0  0  0  0  0  0  0  0  0  0
   35.6550   21.0120   33.2630 C   0  0  0  0  0  0  0  0  0  0  0  0
   36.0160   21.5380   32.0250 C   0  0  0  0  0  0  0  0  0  0  0  0
   36.0960   20.6580   30.9480 C   0  0  0  0  0  0  0  0  0  0  0  0
   35.8240   19.3480   31.1480 N   0  0  0  0  0  0  0  0  0  0  0  0
   35.4810   18.8790   32.3530 C   0  0  0  0  0  0  0  0  0  0  0  0
   35.3940   19.7010   33.4170 N   0  0  0  0  0  0  0  0  0  0  0  0
   35.6000   21.7050   34.0720 H   0  0  0  0  0  0  0  0  0  0  0  0
   36.3800   21.1100   29.9980 H   0  0  0  0  0  0  0  0  0  0  0  0
   35.2810   17.8140   32.4250 H   0  0  0  0  0  0  0  0  0  0  0  0
  1  7  1  6  0  0  0
  1  6  1  0  0  0  0
  2  3  1  0  0  0  0
  2  1  1  0  0  0  0
  3 11  1  0  0  0  0
  3  4  1  0  0  0  0
  4 12  1  0  0  0  0
  4  5  1  0  0  0  0
  5  6  1  0  0  0  0
  5 15  1  0  0  0  0
  6 16  1  1  0  0  0
  6 19  1  0  0  0  0
  8  2  1  0  0  0  0
  9  2  1  0  0  0  0
 10  3  1  0  0  0  0
 13  4  1  0  0  0  0
 14  5  1  0  0  0  0
 17 18  1  0  0  0  0
 18 25  1  0  0  0  0
 19 20  1  0  0  0  0
 19 18  2  0  0  0  0
 20 22  2  0  0  0  0
 21 20  1  0  0  0  0
 22 23  1  0  0  0  0
 22 24  1  0  0  0  0
 25 24  2  0  0  0  0
 26  1  1  0  0  0  0
 28 27  1  0  0  0  0
 29 38  1  0  0  0  0
 29 28  2  0  0  0  0
 30 29  1  0  0  0  0
 31 30  2  0  0  0  0
 31 32  1  0  0  0  0
 32 33  2  0  0  0  0
 33 28  1  0  0  0  0
 33 26  1  0  0  0  0
 34 30  1  0  0  0  0
 35 31  1  0  0  0  0
 36 32  1  0  0  0  0
 37 42  1  0  0  0  0
 37 43  1  0  0  0  0
 38 37  2  0  0  0  0
 39 40  2  0  0  0  0
 39 38  1  0  0  0  0
 40 41  1  0  0  0  0
 41 45  1  0  0  0  0
 41 42  2  0  0  0  0
 44 39  1  0  0  0  0
M  END
>  <minimizedAffinity>
-6.00315666

$$$$

 OpenBabel03272505053D

 45 48  0  0  1  0  0  0  0  0999 V2000
   34.6250   31.6530   33.8360 C   0  0  2  0  0  0  0  0  0  0  0  0
   35.8640   32.0790   34.6700 C   0  0  0  0  0  0  0  0  0  0  0  0
   35.7640   31.3760   36.0190 C   0  0  0  0  0  0  0  0  0  0  0  0
   34.8050   32.2060   36.8130 C   0  0  0  0  0  0  0  0  0  0  0  0
   33.6700   32.6090   35.9480 C   0  0  0  0  0  0  0  0  0  0  0  0
   33.4390   31.8130   34.7440 C   0  0  2  0  0  0  0  0  0  0  0  0
   34.6690   32.3530   32.9810 H   0  0  0  0  0  0  0  0  0  0  0  0
   35.9830   33.1490   34.7120 H   0  0  0  0  0  0  0  0  0  0  0  0
   36.7440   31.6730   34.1330 H   0  0  0  0  0  0  0  0  0  0  0  0
   36.7180   31.1600   36.4870 H   0  0  0  0  0  0  0  0  0  0  0  0
   35.1070   30.4700   35.8540 H   0  0  0  0  0  0  0  0  0  0  0  0
   34.6110   31.7700   37.7840 H   0  0  0  0  0  0  0  0  0  0  0  0
   35.4110   33.1490   37.0780 H   0  0  0  0  0  0  0  0  0  0  0  0
   33.9430   33.6540   35.5640 H   0  0  0  0  0  0  0  0  0  0  0  0
   32.7520   32.8880   36.5120 H   0  0  0  0  0  0  0  0  0  0  0  0
   32.7670   32.5490   34.1120 H   0  0  0  0  0  0  0  0  0  0  0  0
   31.7100   30.8500   32.2930 Cl  0  0  0  0  0  0  0  0  0  0  0  0
   31.7400   30.0460   33.8420 C   0  0  0  0  0  0  0  0  0  0  0  0
   32.5750   30.6390   34.7310 C   0  0  0  0  0  0  0  0  0  0  0  0
   32.6040   29.9500   35.9580 C   0  0  0  0  0  0  0  0  0  0  0  0
   33.2070   30.2350   36.8060 H   0  0  0  0  0  0  0  0  0  0  0  0
   31.8740   28.8250   36.2150 C   0  0  0  0  0  0  0  0  0  0  0  0
   31.8760   28.2780   37.1460 H   0  0  0  0  0  0  0  0  0  0  0  0
   31.0500   28.2990   35.2430 C   0  0  0  0  0  3  0  0  0  0  0  0
   30.9760   28.9210   34.0180 C   0  0  0  0  0  3  0  0  0  0  0  0
   34.8680   30.3460   33.5640 O   0  0  0  0  0  0  0  0  0  0  0  0
   36.4300   28.0940   34.5230 Cl  0  0  0  0  0  0  0  0  0  0  0  0
   36.4600   28.7040   32.8840 C   0  0  0  0  0  0  0  0  0  0  0  0
   37.2800   28.0800   31.9860 C   0  0  0  0  0  0  0  0  0  0  0  0
   37.2700   28.6050   30.6950 C   0  0  0  0  0  0  0  0  0  0  0  0
   36.4680   29.6900   30.3850 C   0  0  0  0  0  0  0  0  0  0  0  0
   35.6700   30.2710   31.3300 C   0  0  0  0  0  0  0  0  0  0  0  0
   35.6620   29.7770   32.5950 C   0  0  0  0  0  0  0  0  0  0  0  0
   37.9180   28.1190   29.9600 H   0  0  0  0  0  0  0  0  0  0  0  0
   36.5220   30.0320   29.3590 H   0  0  0  0  0  0  0  0  0  0  0  0
   35.0970   31.1080   30.9680 H   0  0  0  0  0  0  0  0  0  0  0  0
   39.4530   27.1000   32.7270 C   0  0  0  0  0  0  0  0  0  0  0  0
   38.1400   26.9380   32.2900 C   0  0  0  0  0  0  0  0  0  0  0  0
   37.6620   25.6360   32.1510 C   0  0  0  0  0  0  0  0  0  0  0  0
   38.4810   24.6000   32.4410 N   0  0  0  0  0  0  0  0  0  0  0  0
   39.7370   24.7950   32.8580 C   0  0  0  0  0  0  0  0  0  0  0  0
   40.2340   26.0390   33.0030 N   0  0  0  0  0  0  0  0  0  0  0  0
   39.7960   28.1040   32.8260 H   0  0  0  0  0  0  0  0  0  0  0  0
   36.6300   25.5540   31.8090 H   0  0  0  0  0  0  0  0  0  0  0  0
   40.3270   23.9070   33.0680 H   0  0  0  0  0  0  0  0  0  0  0  0
  1  7  1  6  0  0  0
  1  2  1  0  0  0  0
  1  6  1  0  0  0  0
  2  8  1  0  0  0  0
  2  3  1  0  0  0  0
  3 10  1  0  0  0  0
  3  4  1  0  0  0  0
  4 13  1  0  0  0  0
  4 12  1  0  0  0  0
  5 15  1  0  0  0  0
  5  4  1  0  0  0  0
  6 16  1  6  0  0  0
  6  5  1  0  0  0  0
  9  2  1  0  0  0  0
 11  3  1  0  0  0  0
 14  5  1  0  0  0  0
 17 18  1  0  0  0  0
 18 25  2  0  0  0  0
 18 19  1  0  0  0  0
 19  6  1  0  0  0  0
 19 20  2  0  0  0  0
 20 22  1  0  0  0  0
 20 21  1  0  0  0  0
 22 23  1  0  0  0  0
 24 22  2  0  0  0  0
 25 24  1  0  0  0  0
 26  1  1  0  0  0  0
 28 27  1  0  0  0  0
 29 38  1  0  0  0  0
 29 28  2  0  0  0  0
 30 29  1  0  0  0  0
 31 30  2  0  0  0  0
 31 32  1  0  0  0  0
 32 33  2  0  0  0  0
 33 28  1  0  0  0  0
 33 26  1  0  0  0  0
 34 30  1  0  0  0  0
 35 31  1  0  0  0  0
 36 32  1  0  0  0  0
 37 43  1  0  0  0  0
 37 42  1  0  0  0  0
 38 37  2  0  0  0  0
 39 38  1  0  0  0  0
 39 40  2  0  0  0  0
 40 41  1  0  0  0  0
 41 42  2  0  0  0  0
 41 45  1  0  0  0  0
 44 39  1  0  0  0  0
M  END
>  <minimizedAffinity>
-5.81779146

$$$$

 OpenBabel03272505053D

 45 48  0  0  1  0  0  0  0  0999 V2000
   38.7010   24.0600   35.7660 C   0  0  2  0  0  0  0  0  0  0  0  0
   40.1590   24.5690   35.6010 C   0  0  0  0  0  0  0  0  0  0  0  0
   40.8180   23.7160   34.5250 C   0  0  0  0  0  0  0  0  0  0  0  0
   41.2190   22.4560   35.2270 C   0  0  0  0  0  0  0  0  0  0  0  0
   40.1270   22.0320   36.1370 C   0  0  0  0  0  0  0  0  0  0  0  0
   38.7930   22.5650   35.8650 C   0  0  2  0  0  0  0  0  0  0  0  0
   38.3750   24.5810   36.6850 H   0  0  0  0  0  0  0  0  0  0  0  0
   40.6840   24.6190   36.5400 H   0  0  0  0  0  0  0  0  0  0  0  0
   40.0750   25.6060   35.2170 H   0  0  0  0  0  0  0  0  0  0  0  0
   41.5920   24.2210   33.9590 H   0  0  0  0  0  0  0  0  0  0  0  0
   39.9760   23.2970   33.8950 H   0  0  0  0  0  0  0  0  0  0  0  0
   41.6540   21.7410   34.5430 H   0  0  0  0  0  0  0  0  0  0  0  0
   42.1210   22.7740   35.8670 H   0  0  0  0  0  0  0  0  0  0  0  0
   40.4120   22.4560   37.1630 H   0  0  0  0  0  0  0  0  0  0  0  0
   40.1590   20.9520   36.4040 H   0  0  0  0  0  0  0  0  0  0  0  0
   38.2590   22.3730   36.9000 H   0  0  0  0  0  0  0  0  0  0  0  0
   39.2580   21.9500   32.8110 Cl  0  0  0  0  0  0  0  0  0  0  0  0
   37.7970   21.5470   33.6760 C   0  0  0  0  0  0  0  0  0  0  0  0
   37.8430   21.8960   34.9850 C   0  0  0  0  0  0  0  0  0  0  0  0
   36.6660   21.5280   35.6640 C   0  0  0  0  0  0  0  0  0  0  0  0
   36.4870   21.6960   36.7140 H   0  0  0  0  0  0  0  0  0  0  0  0
   35.6100   20.9000   35.0670 C   0  0  0  0  0  0  0  0  0  0  0  0
   34.6960   20.6080   35.5620 H   0  0  0  0  0  0  0  0  0  0  0  0
   35.6590   20.5890   33.7260 C   0  0  0  0  0  3  0  0  0  0  0  0
   36.7820   20.9180   33.0020 C   0  0  0  0  0  3  0  0  0  0  0  0
   38.1060   24.4430   34.6070 O   0  0  0  0  0  0  0  0  0  0  0  0
   38.8270   25.0040   31.8510 Cl  0  0  0  0  0  0  0  0  0  0  0  0
   37.9830   26.1140   32.9080 C   0  0  0  0  0  0  0  0  0  0  0  0
   37.6390   27.3370   32.4040 C   0  0  0  0  0  0  0  0  0  0  0  0
   36.9710   28.1850   33.2870 C   0  0  0  0  0  0  0  0  0  0  0  0
   36.6960   27.7760   34.5800 C   0  0  0  0  0  0  0  0  0  0  0  0
   37.0680   26.5390   35.0230 C   0  0  0  0  0  0  0  0  0  0  0  0
   37.7200   25.6940   34.1830 C   0  0  0  0  0  0  0  0  0  0  0  0
   36.6860   29.1690   32.9020 H   0  0  0  0  0  0  0  0  0  0  0  0
   36.1730   28.4970   35.1960 H   0  0  0  0  0  0  0  0  0  0  0  0
   36.8010   26.3390   36.0470 H   0  0  0  0  0  0  0  0  0  0  0  0
   39.2230   27.8500   30.5440 C   0  0  0  0  0  0  0  0  0  0  0  0
   37.9240   27.7940   31.0450 C   0  0  0  0  0  0  0  0  0  0  0  0
   36.8890   28.1900   30.2020 C   0  0  0  0  0  0  0  0  0  0  0  0
   37.1840   28.6070   28.9500 N   0  0  0  0  0  0  0  0  0  0  0  0
   38.4440   28.6490   28.5030 C   0  0  0  0  0  0  0  0  0  0  0  0
   39.4710   28.2730   29.2910 N   0  0  0  0  0  0  0  0  0  0  0  0
   39.9970   27.5410   31.2080 H   0  0  0  0  0  0  0  0  0  0  0  0
   35.8890   28.1300   30.6320 H   0  0  0  0  0  0  0  0  0  0  0  0
   38.5920   28.9970   27.4850 H   0  0  0  0  0  0  0  0  0  0  0  0
  1  6  1  0  0  0  0
  1  7  1  1  0  0  0
  2  1  1  0  0  0  0
  2  8  1  0  0  0  0
  3  4  1  0  0  0  0
  3  2  1  0  0  0  0
  4 13  1  0  0  0  0
  4  5  1  0  0  0  0
  5 15  1  0  0  0  0
  5 14  1  0  0  0  0
  6  5  1  0  0  0  0
  6 16  1  1  0  0  0
  9  2  1  0  0  0  0
 10  3  1  0  0  0  0
 11  3  1  0  0  0  0
 12  4  1  0  0  0  0
 17 18  1  0  0  0  0
 18 19  1  0  0  0  0
 19 20  2  0  0  0  0
 19  6  1  0  0  0  0
 20 21  1  0  0  0  0
 22 23  1  0  0  0  0
 22 20  1  0  0  0  0
 24 22  2  0  0  0  0
 25 18  2  0  0  0  0
 25 24  1  0  0  0  0
 26  1  1  0  0  0  0
 27 28  1  0  0  0  0
 28 33  1  0  0  0  0
 29 28  2  0  0  0  0
 29 30  1  0  0  0  0
 30 31  2  0  0  0  0
 31 32  1  0  0  0  0
 31 35  1  0  0  0  0
 32 36  1  0  0  0  0
 33 26  1  0  0  0  0
 33 32  2  0  0  0  0
 34 30  1  0  0  0  0
 37 38  1  0  0  0  0
 37 43  1  0  0  0  0
 38 29  1  0  0  0  0
 39 44  1  0  0  0  0
 39 38  2  0  0  0  0
 40 39  1  0  0  0  0
 41 40  2  0  0  0  0
 41 42  1  0  0  0  0
 42 37  2  0  0  0  0
 45 41  1  0  0  0  0
M  END
>  <minimizedAffinity>
-5.78602886

$$$$

 OpenBabel03272505053D

 45 48  0  0  1  0  0  0  0  0999 V2000
   37.5490   26.1490   30.9460 C   0  0  2  0  0  0  0  0  0  0  0  0
   36.3480   25.1640   30.9100 C   0  0  0  0  0  0  0  0  0  0  0  0
   36.4490   24.2810   32.1480 C   0  0  0  0  0  0  0  0  0  0  0  0
   37.4600   23.2370   31.7920 C   0  0  0  0  0  0  0  0  0  0  0  0
   38.5910   23.8730   31.0730 C   0  0  0  0  0  0  0  0  0  0  0  0
   38.7600   25.3140   31.2460 C   0  0  2  0  0  0  0  0  0  0  0  0
   37.5140   26.5950   29.9350 H   0  0  0  0  0  0  0  0  0  0  0  0
   36.2750   24.6400   29.9710 H   0  0  0  0  0  0  0  0  0  0  0  0
   35.4390   25.7910   31.0060 H   0  0  0  0  0  0  0  0  0  0  0  0
   35.4980   23.9240   32.5260 H   0  0  0  0  0  0  0  0  0  0  0  0
   37.0640   24.8620   32.8990 H   0  0  0  0  0  0  0  0  0  0  0  0
   37.6590   22.5750   32.6240 H   0  0  0  0  0  0  0  0  0  0  0  0
   36.9010   22.5520   31.0540 H   0  0  0  0  0  0  0  0  0  0  0  0
   38.3540   23.7330   29.9610 H   0  0  0  0  0  0  0  0  0  0  0  0
   39.5330   23.2800   31.1040 H   0  0  0  0  0  0  0  0  0  0  0  0
   39.4480   25.5720   30.3220 H   0  0  0  0  0  0  0  0  0  0  0  0
   40.7160   27.7640   30.9260 Cl  0  0  0  0  0  0  0  0  0  0  0  0
   40.4800   26.8910   32.4190 C   0  0  0  0  0  0  0  0  0  0  0  0
   39.5740   25.8890   32.3100 C   0  0  0  0  0  0  0  0  0  0  0  0
   39.3800   25.2260   33.5370 C   0  0  0  0  0  0  0  0  0  0  0  0
   38.6970   24.4050   33.6880 H   0  0  0  0  0  0  0  0  0  0  0  0
   40.0320   25.5570   34.6910 C   0  0  0  0  0  0  0  0  0  0  0  0
   39.9030   25.0660   35.6440 H   0  0  0  0  0  0  0  0  0  0  0  0
   40.9380   26.5950   34.6980 C   0  0  0  0  0  3  0  0  0  0  0  0
   41.1750   27.2880   33.5330 C   0  0  0  0  0  3  0  0  0  0  0  0
   37.2450   26.9700   31.9830 O   0  0  0  0  0  0  0  0  0  0  0  0
   36.4700   27.8710   34.6320 Cl  0  0  0  0  0  0  0  0  0  0  0  0
   36.1990   28.7670   33.1540 C   0  0  0  0  0  0  0  0  0  0  0  0
   35.5750   29.9790   33.2490 C   0  0  0  0  0  0  0  0  0  0  0  0
   35.3810   30.6520   32.0430 C   0  0  0  0  0  0  0  0  0  0  0  0
   35.8070   30.0930   30.8510 C   0  0  0  0  0  0  0  0  0  0  0  0
   36.4250   28.8750   30.8240 C   0  0  0  0  0  0  0  0  0  0  0  0
   36.6250   28.2000   31.9850 C   0  0  0  0  0  0  0  0  0  0  0  0
   34.8840   31.6250   32.0970 H   0  0  0  0  0  0  0  0  0  0  0  0
   35.6160   30.6840   29.9640 H   0  0  0  0  0  0  0  0  0  0  0  0
   36.7050   28.5450   29.8380 H   0  0  0  0  0  0  0  0  0  0  0  0
   35.9490   31.3660   35.2910 C   0  0  0  0  0  0  0  0  0  0  0  0
   35.1110   30.5880   34.4950 C   0  0  0  0  0  0  0  0  0  0  0  0
   33.7990   30.4050   34.9240 C   0  0  0  0  0  0  0  0  0  0  0  0
   33.3990   30.9820   36.0800 N   0  0  0  0  0  0  0  0  0  0  0  0
   34.2320   31.7230   36.8190 C   0  0  0  0  0  0  0  0  0  0  0  0
   35.5080   31.9210   36.4350 N   0  0  0  0  0  0  0  0  0  0  0  0
   36.9480   31.4920   34.9410 H   0  0  0  0  0  0  0  0  0  0  0  0
   33.1770   29.7910   34.2720 H   0  0  0  0  0  0  0  0  0  0  0  0
   33.8290   32.1490   37.7340 H   0  0  0  0  0  0  0  0  0  0  0  0
  1  7  1  6  0  0  0
  1  6  1  0  0  0  0
  1 26  1  0  0  0  0
  2  1  1  0  0  0  0
  2  9  1  0  0  0  0
  2  3  1  0  0  0  0
  3 10  1  0  0  0  0
  3 11  1  0  0  0  0
  4  3  1  0  0  0  0
  4 12  1  0  0  0  0
  5 15  1  0  0  0  0
  5  6  1  0  0  0  0
  5  4  1  0  0  0  0
  6 16  1  6  0  0  0
  6 19  1  0  0  0  0
  8  2  1  0  0  0  0
 13  4  1  0  0  0  0
 14  5  1  0  0  0  0
 17 18  1  0  0  0  0
 18 25  1  0  0  0  0
 19 18  2  0  0  0  0
 19 20  1  0  0  0  0
 20 21  1  0  0  0  0
 20 22  2  0  0  0  0
 22 24  1  0  0  0  0
 22 23  1  0  0  0  0
 25 24  2  0  0  0  0
 26 33  1  0  0  0  0
 28 29  1  0  0  0  0
 28 27  1  0  0  0  0
 29 38  1  0  0  0  0
 30 34  1  0  0  0  0
 30 29  2  0  0  0  0
 31 30  1  0  0  0  0
 32 31  2  0  0  0  0
 32 33  1  0  0  0  0
 33 28  2  0  0  0  0
 35 31  1  0  0  0  0
 36 32  1  0  0  0  0
 37 42  1  0  0  0  0
 38 39  1  0  0  0  0
 38 37  2  0  0  0  0
 39 40  2  0  0  0  0
 40 41  1  0  0  0  0
 41 45  1  0  0  0  0
 42 41  2  0  0  0  0
 43 37  1  0  0  0  0
 44 39  1  0  0  0  0
M  END
>  <minimizedAffinity>
-5.70719004

$$$$

 OpenBabel03272505053D

 45 48  0  0  1  0  0  0  0  0999 V2000
   39.0400   24.0140   32.3860 C   0  0  2  0  0  0  0  0  0  0  0  0
   39.6000   24.7650   31.1470 C   0  0  0  0  0  0  0  0  0  0  0  0
   38.7760   24.3280   29.9420 C   0  0  0  0  0  0  0  0  0  0  0  0
   39.3540   23.0060   29.5420 C   0  0  0  0  0  0  0  0  0  0  0  0
   39.6260   22.2010   30.7570 C   0  0  0  0  0  0  0  0  0  0  0  0
   38.9110   22.5750   31.9750 C   0  0  2  0  0  0  0  0  0  0  0  0
   39.8090   24.2240   33.1520 H   0  0  0  0  0  0  0  0  0  0  0  0
   40.6670   24.6510   31.0450 H   0  0  0  0  0  0  0  0  0  0  0  0
   39.4020   25.8400   31.3300 H   0  0  0  0  0  0  0  0  0  0  0  0
   38.6890   25.0730   29.1600 H   0  0  0  0  0  0  0  0  0  0  0  0
   37.7880   23.9620   30.3530 H   0  0  0  0  0  0  0  0  0  0  0  0
   38.8070   22.5660   28.7190 H   0  0  0  0  0  0  0  0  0  0  0  0
   40.3610   23.2820   29.0560 H   0  0  0  0  0  0  0  0  0  0  0  0
   40.7320   22.3840   30.9950 H   0  0  0  0  0  0  0  0  0  0  0  0
   39.6910   21.1060   30.5650 H   0  0  0  0  0  0  0  0  0  0  0  0
   39.5710   22.0440   32.7970 H   0  0  0  0  0  0  0  0  0  0  0  0
   37.9450   21.8990   34.8960 Cl  0  0  0  0  0  0  0  0  0  0  0  0
   36.9850   21.6300   33.4640 C   0  0  0  0  0  0  0  0  0  0  0  0
   37.6100   22.0190   32.3260 C   0  0  0  0  0  0  0  0  0  0  0  0
   36.7990   21.8210   31.1920 C   0  0  0  0  0  0  0  0  0  0  0  0
   37.0870   22.0700   30.1830 H   0  0  0  0  0  0  0  0  0  0  0  0
   35.5380   21.2990   31.2420 C   0  0  0  0  0  0  0  0  0  0  0  0
   34.8950   21.1360   30.3900 H   0  0  0  0  0  0  0  0  0  0  0  0
   34.9900   20.9320   32.4520 C   0  0  0  0  0  3  0  0  0  0  0  0
   35.7280   21.0990   33.6010 C   0  0  0  0  0  3  0  0  0  0  0  0
   37.8240   24.5870   32.5720 O   0  0  0  0  0  0  0  0  0  0  0  0
   36.3420   26.4990   30.9660 Cl  0  0  0  0  0  0  0  0  0  0  0  0
   36.7780   26.7300   32.6450 C   0  0  0  0  0  0  0  0  0  0  0  0
   36.3970   27.8960   33.2480 C   0  0  0  0  0  0  0  0  0  0  0  0
   36.7710   28.0330   34.5840 C   0  0  0  0  0  0  0  0  0  0  0  0
   37.4820   27.0300   35.2200 C   0  0  0  0  0  0  0  0  0  0  0  0
   37.8330   25.8870   34.5600 C   0  0  0  0  0  0  0  0  0  0  0  0
   37.4800   25.7300   33.2580 C   0  0  0  0  0  0  0  0  0  0  0  0
   36.4750   28.9590   35.0850 H   0  0  0  0  0  0  0  0  0  0  0  0
   37.7300   27.2200   36.2570 H   0  0  0  0  0  0  0  0  0  0  0  0
   38.3860   25.1840   35.1600 H   0  0  0  0  0  0  0  0  0  0  0  0
   36.2660   29.8700   31.7260 C   0  0  0  0  0  0  0  0  0  0  0  0
   35.6530   28.9720   32.5960 C   0  0  0  0  0  0  0  0  0  0  0  0
   34.2880   29.1300   32.8300 C   0  0  0  0  0  0  0  0  0  0  0  0
   33.6270   30.1340   32.2120 N   0  0  0  0  0  0  0  0  0  0  0  0
   34.2500   30.9790   31.3830 C   0  0  0  0  0  0  0  0  0  0  0  0
   35.5680   30.8570   31.1320 N   0  0  0  0  0  0  0  0  0  0  0  0
   37.3100   29.7290   31.5620 H   0  0  0  0  0  0  0  0  0  0  0  0
   33.8470   28.4060   33.5160 H   0  0  0  0  0  0  0  0  0  0  0  0
   33.6430   31.7570   30.9290 H   0  0  0  0  0  0  0  0  0  0  0  0
  1 26  1  0  0  0  0
  1  7  1  1  0  0  0
  2  9  1  0  0  0  0
  2  1  1  0  0  0  0
  3 11  1  0  0  0  0
  3  2  1  0  0  0  0
  4  3  1  0  0  0  0
  4  5  1  0  0  0  0
  5 14  1  0  0  0  0
  5  6  1  0  0  0  0
  6 19  1  0  0  0  0
  6  1  1  0  0  0  0
  6 16  1  1  0  0  0
  8  2  1  0  0  0  0
 10  3  1  0  0  0  0
 12  4  1  0  0  0  0
 13  4  1  0  0  0  0
 15  5  1  0  0  0  0
 18 25  1  0  0  0  0
 18 17  1  0  0  0  0
 19 18  2  0  0  0  0
 20 22  2  0  0  0  0
 20 19  1  0  0  0  0
 21 20  1  0  0  0  0
 22 24  1  0  0  0  0
 23 22  1  0  0  0  0
 24 25  2  0  0  0  0
 26 33  1  0  0  0  0
 27 28  1  0  0  0  0
 28 29  2  0  0  0  0
 28 33  1  0  0  0  0
 29 30  1  0  0  0  0
 30 34  1  0  0  0  0
 30 31  2  0  0  0  0
 31 35  1  0  0  0  0
 32 36  1  0  0  0  0
 32 31  1  0  0  0  0
 33 32  2  0  0  0  0
 37 38  1  0  0  0  0
 38 39  2  0  0  0  0
 38 29  1  0  0  0  0
 39 44  1  0  0  0  0
 40 39  1  0  0  0  0
 41 40  2  0  0  0  0
 42 41  1  0  0  0  0
 42 37  2  0  0  0  0
 43 37  1  0  0  0  0
 45 41  1  0  0  0  0
M  END
>  <minimizedAffinity>
-5.69540644

$$$$

 OpenBabel03272505053D

 45 48  0  0  1  0  0  0  0  0999 V2000
   40.0470   24.7560   33.1240 C   0  0  2  0  0  0  0  0  0  0  0  0
   40.6910   23.8280   32.0590 C   0  0  0  0  0  0  0  0  0  0  0  0
   40.7960   22.4370   32.6730 C   0  0  0  0  0  0  0  0  0  0  0  0
   42.0210   22.4890   33.5300 C   0  0  0  0  0  0  0  0  0  0  0  0
   42.0540   23.7770   34.2640 C   0  0  0  0  0  0  0  0  0  0  0  0
   40.7870   24.4930   34.4040 C   0  0  2  0  0  0  0  0  0  0  0  0
   40.1990   25.7580   32.6820 H   0  0  0  0  0  0  0  0  0  0  0  0
   41.6090   24.2310   31.6640 H   0  0  0  0  0  0  0  0  0  0  0  0
   39.9670   23.7820   31.2200 H   0  0  0  0  0  0  0  0  0  0  0  0
   40.7390   21.6230   31.9600 H   0  0  0  0  0  0  0  0  0  0  0  0
   40.0180   22.3960   33.4930 H   0  0  0  0  0  0  0  0  0  0  0  0
   42.1700   21.5620   34.0680 H   0  0  0  0  0  0  0  0  0  0  0  0
   42.8880   22.4820   32.7720 H   0  0  0  0  0  0  0  0  0  0  0  0
   42.7140   24.4660   33.6300 H   0  0  0  0  0  0  0  0  0  0  0  0
   42.6880   23.7580   35.1790 H   0  0  0  0  0  0  0  0  0  0  0  0
   41.1690   25.5770   34.6730 H   0  0  0  0  0  0  0  0  0  0  0  0
   40.6510   21.8840   36.1650 Cl  0  0  0  0  0  0  0  0  0  0  0  0
   39.6210   23.2740   36.3980 C   0  0  0  0  0  0  0  0  0  0  0  0
   39.8830   24.2790   35.5270 C   0  0  0  0  0  0  0  0  0  0  0  0
   39.0600   25.3970   35.7610 C   0  0  0  0  0  0  0  0  0  0  0  0
   39.1020   26.3160   35.1970 H   0  0  0  0  0  0  0  0  0  0  0  0
   38.1150   25.4530   36.7450 C   0  0  0  0  0  0  0  0  0  0  0  0
   37.4710   26.2960   36.9460 H   0  0  0  0  0  0  0  0  0  0  0  0
   37.9240   24.3740   37.5810 C   0  0  0  0  0  3  0  0  0  0  0  0
   38.6950   23.2480   37.4100 C   0  0  0  0  0  3  0  0  0  0  0  0
   38.7670   24.3100   33.1920 O   0  0  0  0  0  0  0  0  0  0  0  0
   38.4680   27.1940   33.0320 Cl  0  0  0  0  0  0  0  0  0  0  0  0
   37.3680   26.0350   32.3190 C   0  0  0  0  0  0  0  0  0  0  0  0
   36.2860   26.5180   31.6380 C   0  0  0  0  0  0  0  0  0  0  0  0
   35.4400   25.5540   31.0910 C   0  0  0  0  0  0  0  0  0  0  0  0
   35.7140   24.2070   31.2520 C   0  0  0  0  0  0  0  0  0  0  0  0
   36.8130   23.7890   31.9450 C   0  0  0  0  0  0  0  0  0  0  0  0
   37.6530   24.7080   32.4880 C   0  0  0  0  0  0  0  0  0  0  0  0
   34.5680   25.9210   30.5410 H   0  0  0  0  0  0  0  0  0  0  0  0
   35.0040   23.5290   30.7940 H   0  0  0  0  0  0  0  0  0  0  0  0
   36.9160   22.7180   32.0040 H   0  0  0  0  0  0  0  0  0  0  0  0
   35.0870   28.6040   32.3010 C   0  0  0  0  0  0  0  0  0  0  0  0
   35.9720   27.9350   31.4600 C   0  0  0  0  0  0  0  0  0  0  0  0
   36.5610   28.6640   30.4290 C   0  0  0  0  0  0  0  0  0  0  0  0
   36.2510   29.9740   30.2910 N   0  0  0  0  0  0  0  0  0  0  0  0
   35.3950   30.5830   31.1180 C   0  0  0  0  0  0  0  0  0  0  0  0
   34.8070   29.9090   32.1260 N   0  0  0  0  0  0  0  0  0  0  0  0
   34.6500   28.0250   33.0830 H   0  0  0  0  0  0  0  0  0  0  0  0
   37.2480   28.1040   29.7950 H   0  0  0  0  0  0  0  0  0  0  0  0
   35.2020   31.6370   30.9350 H   0  0  0  0  0  0  0  0  0  0  0  0
  1  7  1  6  0  0  0
  1 26  1  0  0  0  0
  1  6  1  0  0  0  0
  2  3  1  0  0  0  0
  2  1  1  0  0  0  0
  3 11  1  0  0  0  0
  3  4  1  0  0  0  0
  4 12  1  0  0  0  0
  4  5  1  0  0  0  0
  5  6  1  0  0  0  0
  5 15  1  0  0  0  0
  6 16  1  1  0  0  0
  6 19  1  0  0  0  0
  8  2  1  0  0  0  0
  9  2  1  0  0  0  0
 10  3  1  0  0  0  0
 13  4  1  0  0  0  0
 14  5  1  0  0  0  0
 17 18  1  0  0  0  0
 18 25  1  0  0  0  0
 19 20  1  0  0  0  0
 19 18  2  0  0  0  0
 20 22  2  0  0  0  0
 21 20  1  0  0  0  0
 22 23  1  0  0  0  0
 22 24  1  0  0  0  0
 25 24  2  0  0  0  0
 28 33  1  0  0  0  0
 28 27  1  0  0  0  0
 29 28  2  0  0  0  0
 30 31  2  0  0  0  0
 30 29  1  0  0  0  0
 31 32  1  0  0  0  0
 32 36  1  0  0  0  0
 32 33  2  0  0  0  0
 33 26  1  0  0  0  0
 34 30  1  0  0  0  0
 35 31  1  0  0  0  0
 37 43  1  0  0  0  0
 38 29  1  0  0  0  0
 38 37  2  0  0  0  0
 39 38  1  0  0  0  0
 40 39  2  0  0  0  0
 40 41  1  0  0  0  0
 41 42  2  0  0  0  0
 42 37  1  0  0  0  0
 44 39  1  0  0  0  0
 45 41  1  0  0  0  0
M  END
>  <minimizedAffinity>
-5.69074631

$$$$

 OpenBabel03272505053D

 45 48  0  0  1  0  0  0  0  0999 V2000
   36.6460   26.0330   32.6530 C   0  0  2  0  0  0  0  0  0  0  0  0
   35.7880   26.3860   31.4070 C   0  0  0  0  0  0  0  0  0  0  0  0
   36.6340   27.2840   30.5130 C   0  0  0  0  0  0  0  0  0  0  0  0
   36.5160   28.6480   31.1190 C   0  0  0  0  0  0  0  0  0  0  0  0
   36.6100   28.5390   32.5950 C   0  0  0  0  0  0  0  0  0  0  0  0
   37.2310   27.3300   33.1330 C   0  0  2  0  0  0  0  0  0  0  0  0
   35.9010   25.5670   33.3240 H   0  0  0  0  0  0  0  0  0  0  0  0
   34.8200   26.7760   31.6730 H   0  0  0  0  0  0  0  0  0  0  0  0
   35.6200   25.4280   30.8750 H   0  0  0  0  0  0  0  0  0  0  0  0
   36.4130   27.2050   29.4550 H   0  0  0  0  0  0  0  0  0  0  0  0
   37.7120   27.0720   30.7840 H   0  0  0  0  0  0  0  0  0  0  0  0
   37.1270   29.3700   30.5950 H   0  0  0  0  0  0  0  0  0  0  0  0
   35.4470   28.9780   30.8480 H   0  0  0  0  0  0  0  0  0  0  0  0
   35.5250   28.5030   32.9620 H   0  0  0  0  0  0  0  0  0  0  0  0
   36.9100   29.4870   33.0970 H   0  0  0  0  0  0  0  0  0  0  0  0
   36.8430   27.3550   34.2480 H   0  0  0  0  0  0  0  0  0  0  0  0
   38.5530   26.8150   35.9460 Cl  0  0  0  0  0  0  0  0  0  0  0  0
   39.4560   27.0400   34.4700 C   0  0  0  0  0  0  0  0  0  0  0  0
   38.6630   27.2270   33.3870 C   0  0  0  0  0  0  0  0  0  0  0  0
   39.4180   27.3720   32.2070 C   0  0  0  0  0  0  0  0  0  0  0  0
   38.9960   27.5190   31.2250 H   0  0  0  0  0  0  0  0  0  0  0  0
   40.7820   27.3300   32.1690 C   0  0  0  0  0  0  0  0  0  0  0  0
   41.3860   27.4390   31.2800 H   0  0  0  0  0  0  0  0  0  0  0  0
   41.5010   27.1360   33.3290 C   0  0  0  0  0  3  0  0  0  0  0  0
   40.8250   26.9850   34.5180 C   0  0  0  0  0  3  0  0  0  0  0  0
   37.6050   25.2160   32.1480 O   0  0  0  0  0  0  0  0  0  0  0  0
   35.8030   23.0550   31.4280 Cl  0  0  0  0  0  0  0  0  0  0  0  0
   37.2950   22.8560   32.3200 C   0  0  0  0  0  0  0  0  0  0  0  0
   37.6400   21.5930   32.7110 C   0  0  0  0  0  0  0  0  0  0  0  0
   38.8360   21.4880   33.4210 C   0  0  0  0  0  0  0  0  0  0  0  0
   39.5930   22.6150   33.6900 C   0  0  0  0  0  0  0  0  0  0  0  0
   39.1910   23.8510   33.2720 C   0  0  0  0  0  0  0  0  0  0  0  0
   38.0300   23.9790   32.5790 C   0  0  0  0  0  0  0  0  0  0  0  0
   39.1310   20.4840   33.7420 H   0  0  0  0  0  0  0  0  0  0  0  0
   40.5060   22.4410   34.2460 H   0  0  0  0  0  0  0  0  0  0  0  0
   39.8620   24.6480   33.5460 H   0  0  0  0  0  0  0  0  0  0  0  0
   35.7990   20.0010   33.2650 C   0  0  0  0  0  0  0  0  0  0  0  0
   36.8550   20.3890   32.4440 C   0  0  0  0  0  0  0  0  0  0  0  0
   37.1460   19.5860   31.3430 C   0  0  0  0  0  0  0  0  0  0  0  0
   36.4020   18.4790   31.1210 N   0  0  0  0  0  0  0  0  0  0  0  0
   35.3940   18.1370   31.9320 C   0  0  0  0  0  0  0  0  0  0  0  0
   35.0840   18.8890   33.0070 N   0  0  0  0  0  0  0  0  0  0  0  0
   35.5950   20.6310   34.1000 H   0  0  0  0  0  0  0  0  0  0  0  0
   37.9790   19.9260   30.7260 H   0  0  0  0  0  0  0  0  0  0  0  0
   34.8490   17.2320   31.6810 H   0  0  0  0  0  0  0  0  0  0  0  0
  1  6  1  0  0  0  0
  1  7  1  1  0  0  0
  2  8  1  0  0  0  0
  2  1  1  0  0  0  0
  3 11  1  0  0  0  0
  3  4  1  0  0  0  0
  3  2  1  0  0  0  0
  4  5  1  0  0  0  0
  5 14  1  0  0  0  0
  5 15  1  0  0  0  0
  5  6  1  0  0  0  0
  6 19  1  0  0  0  0
  6 16  1  1  0  0  0
  9  2  1  0  0  0  0
 10  3  1  0  0  0  0
 12  4  1  0  0  0  0
 13  4  1  0  0  0  0
 18 25  1  0  0  0  0
 18 17  1  0  0  0  0
 19 18  2  0  0  0  0
 20 19  1  0  0  0  0
 21 20  1  0  0  0  0
 22 20  2  0  0  0  0
 22 24  1  0  0  0  0
 23 22  1  0  0  0  0
 24 25  2  0  0  0  0
 26 33  1  0  0  0  0
 26  1  1  0  0  0  0
 27 28  1  0  0  0  0
 28 33  2  0  0  0  0
 28 29  1  0  0  0  0
 29 30  2  0  0  0  0
 30 31  1  0  0  0  0
 30 34  1  0  0  0  0
 31 35  1  0  0  0  0
 32 36  1  0  0  0  0
 32 31  2  0  0  0  0
 33 32  1  0  0  0  0
 37 43  1  0  0  0  0
 38 29  1  0  0  0  0
 38 37  2  0  0  0  0
 39 38  1  0  0  0  0
 40 39  2  0  0  0  0
 40 41  1  0  0  0  0
 41 42  2  0  0  0  0
 42 37  1  0  0  0  0
 44 39  1  0  0  0  0
 45 41  1  0  0  0  0
M  END
>  <minimizedAffinity>
-5.66185713

$$$$

 OpenBabel03272505053D

 45 48  0  0  1  0  0  0  0  0999 V2000
   38.7840   23.0580   33.9750 C   0  0  2  0  0  0  0  0  0  0  0  0
   38.3130   22.5060   35.3480 C   0  0  0  0  0  0  0  0  0  0  0  0
   38.9060   23.4050   36.4260 C   0  0  0  0  0  0  0  0  0  0  0  0
   40.3150   22.9270   36.5910 C   0  0  0  0  0  0  0  0  0  0  0  0
   40.9000   22.6530   35.2560 C   0  0  0  0  0  0  0  0  0  0  0  0
   40.2610   23.2930   34.1080 C   0  0  2  0  0  0  0  0  0  0  0  0
   38.4890   22.2460   33.2850 H   0  0  0  0  0  0  0  0  0  0  0  0
   38.5150   21.4540   35.4590 H   0  0  0  0  0  0  0  0  0  0  0  0
   37.2110   22.6300   35.3620 H   0  0  0  0  0  0  0  0  0  0  0  0
   38.3120   23.4790   37.3290 H   0  0  0  0  0  0  0  0  0  0  0  0
   39.1220   24.3960   35.9250 H   0  0  0  0  0  0  0  0  0  0  0  0
   40.8600   23.5330   37.3010 H   0  0  0  0  0  0  0  0  0  0  0  0
   40.2010   21.9260   37.1490 H   0  0  0  0  0  0  0  0  0  0  0  0
   40.7520   21.5290   35.0900 H   0  0  0  0  0  0  0  0  0  0  0  0
   42.0140   22.6630   35.2430 H   0  0  0  0  0  0  0  0  0  0  0  0
   40.6770   22.6320   33.2220 H   0  0  0  0  0  0  0  0  0  0  0  0
   40.3190   24.1760   31.0840 Cl  0  0  0  0  0  0  0  0  0  0  0  0
   40.7830   25.2090   32.4120 C   0  0  0  0  0  0  0  0  0  0  0  0
   40.6550   24.6090   33.6210 C   0  0  0  0  0  0  0  0  0  0  0  0
   41.0040   25.4770   34.6730 C   0  0  0  0  0  0  0  0  0  0  0  0
   40.9670   25.2160   35.7190 H   0  0  0  0  0  0  0  0  0  0  0  0
   41.4230   26.7640   34.4890 C   0  0  0  0  0  0  0  0  0  0  0  0
   41.6970   27.4500   35.2760 H   0  0  0  0  0  0  0  0  0  0  0  0
   41.5220   27.2830   33.2170 C   0  0  0  0  0  3  0  0  0  0  0  0
   41.1930   26.4900   32.1410 C   0  0  0  0  0  3  0  0  0  0  0  0
   38.1060   24.2280   33.8620 O   0  0  0  0  0  0  0  0  0  0  0  0
   37.8920   27.1180   33.6700 Cl  0  0  0  0  0  0  0  0  0  0  0  0
   37.0100   25.9830   32.6720 C   0  0  0  0  0  0  0  0  0  0  0  0
   36.1550   26.4890   31.7340 C   0  0  0  0  0  0  0  0  0  0  0  0
   35.4750   25.5440   30.9670 C   0  0  0  0  0  0  0  0  0  0  0  0
   35.6810   24.1910   31.1750 C   0  0  0  0  0  0  0  0  0  0  0  0
   36.5510   23.7490   32.1310 C   0  0  0  0  0  0  0  0  0  0  0  0
   37.2250   24.6500   32.8920 C   0  0  0  0  0  0  0  0  0  0  0  0
   34.7870   25.9290   30.2090 H   0  0  0  0  0  0  0  0  0  0  0  0
   35.1120   23.5290   30.5350 H   0  0  0  0  0  0  0  0  0  0  0  0
   36.6220   22.6770   32.2000 H   0  0  0  0  0  0  0  0  0  0  0  0
   35.0100   28.6430   32.2630 C   0  0  0  0  0  0  0  0  0  0  0  0
   35.9160   27.9120   31.4990 C   0  0  0  0  0  0  0  0  0  0  0  0
   36.6010   28.5860   30.4890 C   0  0  0  0  0  0  0  0  0  0  0  0
   36.3590   29.9020   30.2970 N   0  0  0  0  0  0  0  0  0  0  0  0
   35.4790   30.5720   31.0510 C   0  0  0  0  0  0  0  0  0  0  0  0
   34.7990   29.9530   32.0360 N   0  0  0  0  0  0  0  0  0  0  0  0
   34.4990   28.1060   33.0290 H   0  0  0  0  0  0  0  0  0  0  0  0
   37.3010   27.9780   29.9160 H   0  0  0  0  0  0  0  0  0  0  0  0
   35.3450   31.6260   30.8280 H   0  0  0  0  0  0  0  0  0  0  0  0
  1  7  1  6  0  0  0
  1  6  1  0  0  0  0
  1  2  1  0  0  0  0
  2  9  1  0  0  0  0
  2  8  1  0  0  0  0
  2  3  1  0  0  0  0
  3  4  1  0  0  0  0
  3 10  1  0  0  0  0
  4 13  1  0  0  0  0
  4 12  1  0  0  0  0
  5  4  1  0  0  0  0
  6 16  1  6  0  0  0
  6  5  1  0  0  0  0
 11  3  1  0  0  0  0
 14  5  1  0  0  0  0
 15  5  1  0  0  0  0
 17 18  1  0  0  0  0
 18 19  1  0  0  0  0
 19  6  1  0  0  0  0
 19 20  2  0  0  0  0
 20 21  1  0  0  0  0
 22 20  1  0  0  0  0
 22 23  1  0  0  0  0
 24 22  2  0  0  0  0
 25 18  2  0  0  0  0
 25 24  1  0  0  0  0
 26  1  1  0  0  0  0
 28 33  1  0  0  0  0
 28 27  1  0  0  0  0
 29 28  2  0  0  0  0
 30 31  2  0  0  0  0
 30 29  1  0  0  0  0
 31 32  1  0  0  0  0
 32 36  1  0  0  0  0
 32 33  2  0  0  0  0
 33 26  1  0  0  0  0
 34 30  1  0  0  0  0
 35 31  1  0  0  0  0
 37 43  1  0  0  0  0
 38 29  1  0  0  0  0
 38 37  2  0  0  0  0
 39 38  1  0  0  0  0
 40 39  2  0  0  0  0
 40 41  1  0  0  0  0
 41 42  2  0  0  0  0
 42 37  1  0  0  0  0
 44 39  1  0  0  0  0
 45 41  1  0  0  0  0
M  END
>  <minimizedAffinity>
-5.57718229

$$$$
