
 OpenBabel03272504343D

 40 43  0  0  0  0  0  0  0  0999 V2000
   38.8990   25.1090   35.2090 C   0  0  0  0  0  0  0  0  0  0  0  0
   40.1550   25.3060   34.6470 C   0  0  0  0  0  0  0  0  0  0  0  0
   40.3540   26.3340   33.7260 C   0  0  0  0  0  0  0  0  0  0  0  0
   39.2740   27.1140   33.4180 N   0  0  0  0  0  0  0  0  0  0  0  0
   38.0580   26.8940   33.9860 C   0  0  0  0  0  0  0  0  0  0  0  0
   37.8620   25.9020   34.8750 N   0  0  0  0  0  0  0  0  0  0  0  0
   40.9710   24.6770   34.9130 H   0  0  0  0  0  0  0  0  0  0  0  0
   41.3020   26.5350   33.2590 H   0  0  0  0  0  0  0  0  0  0  0  0
   38.6430   24.0730   36.1550 N   0  0  0  0  0  0  0  0  0  0  0  0
   37.7030   24.2470   37.2560 C   0  0  0  0  0  0  0  0  0  0  0  0
   38.1890   23.7390   38.5770 C   0  0  0  0  0  0  0  0  0  0  0  0
   39.1300   22.6840   38.5770 N   0  0  0  0  0  0  0  0  0  0  0  0
   40.0510   22.7010   37.4410 C   0  0  0  0  0  0  0  0  0  0  0  0
   39.2120   22.7760   36.1950 C   0  0  0  0  0  0  0  0  0  0  0  0
   36.7590   23.7150   36.9480 H   0  0  0  0  0  0  0  0  0  0  0  0
   37.4590   25.3140   37.2950 H   0  0  0  0  0  0  0  0  0  0  0  0
   38.5650   24.6070   39.1710 H   0  0  0  0  0  0  0  0  0  0  0  0
   37.2760   23.3870   39.1400 H   0  0  0  0  0  0  0  0  0  0  0  0
   38.7650   21.7400   38.7660 H   0  0  0  0  0  0  0  0  0  0  0  0
   40.5450   21.7050   37.4390 H   0  0  0  0  0  0  0  0  0  0  0  0
   40.7650   23.5350   37.4970 H   0  0  0  0  0  0  0  0  0  0  0  0
   38.4220   21.9930   36.2500 H   0  0  0  0  0  0  0  0  0  0  0  0
   39.8960   22.5980   35.3410 H   0  0  0  0  0  0  0  0  0  0  0  0
   36.9470   27.7590   33.6160 C   0  0  0  0  0  0  0  0  0  0  0  0
   36.3900   27.6810   32.3590 C   0  0  0  0  0  0  0  0  0  0  0  0
   35.3370   28.4780   31.9650 C   0  0  0  0  0  0  0  0  0  0  0  0
   34.8720   29.3600   32.9010 N   0  0  0  0  0  0  0  0  0  0  0  0
   35.4190   29.4270   34.1160 C   0  0  0  0  0  0  0  0  0  0  0  0
   36.4480   28.6360   34.4760 N   0  0  0  0  0  0  0  0  0  0  0  0
   36.8070   26.9600   31.6680 H   0  0  0  0  0  0  0  0  0  0  0  0
   34.9180   28.3960   30.9720 H   0  0  0  0  0  0  0  0  0  0  0  0
   32.4980   29.1240   34.8530 Cl  0  0  0  0  0  0  0  0  0  0  0  0
   33.5890   30.3430   35.5100 C   0  0  0  0  0  0  0  0  0  0  0  0
   34.9010   30.3780   35.0940 C   0  0  0  0  0  0  0  0  0  0  0  0
   35.7410   31.3450   35.6230 C   0  0  0  0  0  0  0  0  0  0  0  0
   36.7760   31.4330   35.3450 H   0  0  0  0  0  0  0  0  0  0  0  0
   35.3030   32.2810   36.5610 C   0  0  0  0  0  0  0  0  0  0  0  0
   35.9440   33.0390   36.9820 H   0  0  0  0  0  0  0  0  0  0  0  0
   33.9600   32.1860   36.9370 C   0  0  0  0  0  3  0  0  0  0  0  0
   33.0990   31.2390   36.4330 C   0  0  0  0  0  3  0  0  0  0  0  0
  1  9  1  0  0  0  0
  2  7  1  0  0  0  0
  2  1  2  0  0  0  0
  3  2  1  0  0  0  0
  4  3  2  0  0  0  0
  4  5  1  0  0  0  0
  5  6  2  0  0  0  0
  6  1  1  0  0  0  0
  8  3  1  0  0  0  0
  9 14  1  0  0  0  0
  9 10  1  0  0  0  0
 10 16  1  0  0  0  0
 10 11  1  0  0  0  0
 11 18  1  0  0  0  0
 11 17  1  0  0  0  0
 12 11  1  0  0  0  0
 12 19  1  0  0  0  0
 13 21  1  0  0  0  0
 13 12  1  0  0  0  0
 14 22  1  0  0  0  0
 14 13  1  0  0  0  0
 15 10  1  0  0  0  0
 20 13  1  0  0  0  0
 23 14  1  0  0  0  0
 24  5  1  0  0  0  0
 24 29  1  0  0  0  0
 25 24  2  0  0  0  0
 26 25  1  0  0  0  0
 26 27  2  0  0  0  0
 27 28  1  0  0  0  0
 28 29  2  0  0  0  0
 28 34  1  0  0  0  0
 30 25  1  0  0  0  0
 31 26  1  0  0  0  0
 32 33  1  0  0  0  0
 33 40  1  0  0  0  0
 34 33  2  0  0  0  0
 34 35  1  0  0  0  0
 35 37  2  0  0  0  0
 36 35  1  0  0  0  0
 37 39  1  0  0  0  0
 37 38  1  0  0  0  0
 40 39  2  0  0  0  0
M  END
>  <minimizedAffinity>
-6.94512939

$$$$

 OpenBabel03272504343D

 40 43  0  0  0  0  0  0  0  0999 V2000
   38.0920   24.6330   34.7420 C   0  0  0  0  0  0  0  0  0  0  0  0
   37.9400   23.6450   33.7760 C   0  0  0  0  0  0  0  0  0  0  0  0
   37.3710   23.9570   32.5410 C   0  0  0  0  0  0  0  0  0  0  0  0
   36.9860   25.2530   32.3420 N   0  0  0  0  0  0  0  0  0  0  0  0
   37.1490   26.1970   33.3090 C   0  0  0  0  0  0  0  0  0  0  0  0
   37.6970   25.8990   34.5020 N   0  0  0  0  0  0  0  0  0  0  0  0
   38.2530   22.6470   33.9690 H   0  0  0  0  0  0  0  0  0  0  0  0
   37.2290   23.2360   31.7560 H   0  0  0  0  0  0  0  0  0  0  0  0
   38.6660   24.3660   36.0190 N   0  0  0  0  0  0  0  0  0  0  0  0
   39.9380   23.6660   36.1630 C   0  0  0  0  0  0  0  0  0  0  0  0
   39.9550   22.6140   37.2280 C   0  0  0  0  0  0  0  0  0  0  0  0
   39.0720   22.7650   38.3220 N   0  0  0  0  0  0  0  0  0  0  0  0
   37.8070   23.4170   37.9890 C   0  0  0  0  0  0  0  0  0  0  0  0
   38.1460   24.7060   37.2920 C   0  0  0  0  0  0  0  0  0  0  0  0
   40.7080   24.4600   36.3760 H   0  0  0  0  0  0  0  0  0  0  0  0
   40.1830   23.2530   35.1790 H   0  0  0  0  0  0  0  0  0  0  0  0
   39.8180   21.6190   36.7410 H   0  0  0  0  0  0  0  0  0  0  0  0
   41.0070   22.5880   37.6340 H   0  0  0  0  0  0  0  0  0  0  0  0
   39.4790   23.1300   39.1950 H   0  0  0  0  0  0  0  0  0  0  0  0
   37.3420   23.6880   38.9620 H   0  0  0  0  0  0  0  0  0  0  0  0
   37.1620   22.7790   37.3670 H   0  0  0  0  0  0  0  0  0  0  0  0
   38.9010   25.2520   37.9020 H   0  0  0  0  0  0  0  0  0  0  0  0
   37.2010   25.2810   37.2120 H   0  0  0  0  0  0  0  0  0  0  0  0
   36.7170   27.5600   33.0360 C   0  0  0  0  0  0  0  0  0  0  0  0
   36.9110   28.1180   31.7920 C   0  0  0  0  0  0  0  0  0  0  0  0
   36.5180   29.4030   31.4880 C   0  0  0  0  0  0  0  0  0  0  0  0
   35.9190   30.1010   32.5000 N   0  0  0  0  0  0  0  0  0  0  0  0
   35.7360   29.5500   33.7010 C   0  0  0  0  0  0  0  0  0  0  0  0
   36.1290   28.2910   33.9730 N   0  0  0  0  0  0  0  0  0  0  0  0
   37.3920   27.5100   31.0370 H   0  0  0  0  0  0  0  0  0  0  0  0
   36.6830   29.8170   30.5030 H   0  0  0  0  0  0  0  0  0  0  0  0
   32.7310   29.2510   33.9320 Cl  0  0  0  0  0  0  0  0  0  0  0  0
   33.7320   30.2680   34.9680 C   0  0  0  0  0  0  0  0  0  0  0  0
   35.0930   30.3190   34.7620 C   0  0  0  0  0  0  0  0  0  0  0  0
   35.8600   31.1250   35.5880 C   0  0  0  0  0  0  0  0  0  0  0  0
   36.9280   31.2150   35.4870 H   0  0  0  0  0  0  0  0  0  0  0  0
   35.3020   31.8820   36.6190 C   0  0  0  0  0  0  0  0  0  0  0  0
   35.8870   32.5140   37.2700 H   0  0  0  0  0  0  0  0  0  0  0  0
   33.9170   31.7810   36.7690 C   0  0  0  0  0  3  0  0  0  0  0  0
   33.1250   30.9920   35.9680 C   0  0  0  0  0  3  0  0  0  0  0  0
  1  9  1  0  0  0  0
  2  7  1  0  0  0  0
  2  1  2  0  0  0  0
  3  2  1  0  0  0  0
  4  3  2  0  0  0  0
  4  5  1  0  0  0  0
  5  6  2  0  0  0  0
  6  1  1  0  0  0  0
  8  3  1  0  0  0  0
  9 10  1  0  0  0  0
  9 14  1  0  0  0  0
 10 15  1  0  0  0  0
 10 11  1  0  0  0  0
 11 18  1  0  0  0  0
 11 12  1  0  0  0  0
 12 19  1  0  0  0  0
 13 12  1  0  0  0  0
 13 20  1  0  0  0  0
 14 22  1  0  0  0  0
 14 13  1  0  0  0  0
 16 10  1  0  0  0  0
 17 11  1  0  0  0  0
 21 13  1  0  0  0  0
 23 14  1  0  0  0  0
 24  5  1  0  0  0  0
 24 29  1  0  0  0  0
 25 24  2  0  0  0  0
 26 25  1  0  0  0  0
 26 27  2  0  0  0  0
 27 28  1  0  0  0  0
 28 29  2  0  0  0  0
 28 34  1  0  0  0  0
 30 25  1  0  0  0  0
 31 26  1  0  0  0  0
 32 33  1  0  0  0  0
 33 40  1  0  0  0  0
 34 33  2  0  0  0  0
 34 35  1  0  0  0  0
 35 37  2  0  0  0  0
 36 35  1  0  0  0  0
 37 39  1  0  0  0  0
 37 38  1  0  0  0  0
 40 39  2  0  0  0  0
M  END
>  <minimizedAffinity>
-6.87719679

$$$$

 OpenBabel03272504343D

 40 43  0  0  0  0  0  0  0  0999 V2000
   37.8620   25.1530   34.2460 C   0  0  0  0  0  0  0  0  0  0  0  0
   37.7610   24.3340   33.1270 C   0  0  0  0  0  0  0  0  0  0  0  0
   37.1690   24.8160   31.9600 C   0  0  0  0  0  0  0  0  0  0  0  0
   36.7080   26.1020   31.9800 N   0  0  0  0  0  0  0  0  0  0  0  0
   36.8210   26.8770   33.0920 C   0  0  0  0  0  0  0  0  0  0  0  0
   37.3920   26.4160   34.2200 N   0  0  0  0  0  0  0  0  0  0  0  0
   38.1330   23.3370   33.1520 H   0  0  0  0  0  0  0  0  0  0  0  0
   37.0640   24.2290   31.0640 H   0  0  0  0  0  0  0  0  0  0  0  0
   38.4570   24.7080   35.4630 N   0  0  0  0  0  0  0  0  0  0  0  0
   39.6440   23.8620   35.4780 C   0  0  0  0  0  0  0  0  0  0  0  0
   39.5860   22.7220   36.4460 C   0  0  0  0  0  0  0  0  0  0  0  0
   38.7760   22.8700   37.5960 N   0  0  0  0  0  0  0  0  0  0  0  0
   37.5810   23.6850   37.3880 C   0  0  0  0  0  0  0  0  0  0  0  0
   38.0350   24.9870   36.7870 C   0  0  0  0  0  0  0  0  0  0  0  0
   40.5090   24.5430   35.7160 H   0  0  0  0  0  0  0  0  0  0  0  0
   39.7960   23.5160   34.4500 H   0  0  0  0  0  0  0  0  0  0  0  0
   39.3150   21.7970   35.8840 H   0  0  0  0  0  0  0  0  0  0  0  0
   40.6460   22.5420   36.7910 H   0  0  0  0  0  0  0  0  0  0  0  0
   39.2600   23.1070   38.4730 H   0  0  0  0  0  0  0  0  0  0  0  0
   37.1940   23.9170   38.4050 H   0  0  0  0  0  0  0  0  0  0  0  0
   36.8400   23.1830   36.7500 H   0  0  0  0  0  0  0  0  0  0  0  0
   38.8750   25.3880   37.3990 H   0  0  0  0  0  0  0  0  0  0  0  0
   37.1600   25.6680   36.8070 H   0  0  0  0  0  0  0  0  0  0  0  0
   36.3090   28.2400   33.0500 C   0  0  0  0  0  0  0  0  0  0  0  0
   36.5560   29.0450   31.9600 C   0  0  0  0  0  0  0  0  0  0  0  0
   36.0910   30.3400   31.8760 C   0  0  0  0  0  0  0  0  0  0  0  0
   35.3650   30.7850   32.9460 N   0  0  0  0  0  0  0  0  0  0  0  0
   35.1330   29.9970   33.9970 C   0  0  0  0  0  0  0  0  0  0  0  0
   35.5980   28.7340   34.0540 N   0  0  0  0  0  0  0  0  0  0  0  0
   37.1380   28.6290   31.1480 H   0  0  0  0  0  0  0  0  0  0  0  0
   36.2990   30.9500   31.0080 H   0  0  0  0  0  0  0  0  0  0  0  0
   36.4800   32.0910   35.7190 Cl  0  0  0  0  0  0  0  0  0  0  0  0
   34.8570   31.4540   35.9800 C   0  0  0  0  0  0  0  0  0  0  0  0
   34.3540   30.5000   35.1240 C   0  0  0  0  0  0  0  0  0  0  0  0
   33.0770   30.0120   35.3480 C   0  0  0  0  0  0  0  0  0  0  0  0
   32.6180   29.2680   34.7220 H   0  0  0  0  0  0  0  0  0  0  0  0
   32.2850   30.4560   36.4090 C   0  0  0  0  0  0  0  0  0  0  0  0
   31.2890   30.0860   36.5960 H   0  0  0  0  0  0  0  0  0  0  0  0
   32.8600   31.4240   37.2370 C   0  0  0  0  0  3  0  0  0  0  0  0
   34.1250   31.9290   37.0440 C   0  0  0  0  0  3  0  0  0  0  0  0
  1  9  1  0  0  0  0
  2  7  1  0  0  0  0
  2  1  2  0  0  0  0
  3  4  2  0  0  0  0
  3  2  1  0  0  0  0
  4  5  1  0  0  0  0
  5  6  2  0  0  0  0
  6  1  1  0  0  0  0
  8  3  1  0  0  0  0
  9 10  1  0  0  0  0
  9 14  1  0  0  0  0
 10 15  1  0  0  0  0
 10 11  1  0  0  0  0
 11 18  1  0  0  0  0
 11 12  1  0  0  0  0
 12 19  1  0  0  0  0
 13 12  1  0  0  0  0
 13 20  1  0  0  0  0
 14 23  1  0  0  0  0
 14 13  1  0  0  0  0
 14 22  1  0  0  0  0
 16 10  1  0  0  0  0
 17 11  1  0  0  0  0
 21 13  1  0  0  0  0
 24  5  1  0  0  0  0
 24 29  1  0  0  0  0
 25 24  2  0  0  0  0
 26 25  1  0  0  0  0
 26 27  2  0  0  0  0
 27 28  1  0  0  0  0
 28 29  2  0  0  0  0
 28 34  1  0  0  0  0
 30 25  1  0  0  0  0
 31 26  1  0  0  0  0
 32 33  1  0  0  0  0
 33 40  1  0  0  0  0
 34 35  1  0  0  0  0
 34 33  2  0  0  0  0
 35 37  2  0  0  0  0
 36 35  1  0  0  0  0
 37 38  1  0  0  0  0
 37 39  1  0  0  0  0
 40 39  2  0  0  0  0
M  END
>  <minimizedAffinity>
-6.51084232

$$$$

 OpenBabel03272504343D

 40 43  0  0  0  0  0  0  0  0999 V2000
   37.3550   24.4150   32.6340 C   0  0  0  0  0  0  0  0  0  0  0  0
   38.0730   24.1200   33.7870 C   0  0  0  0  0  0  0  0  0  0  0  0
   38.3050   25.1130   34.7390 C   0  0  0  0  0  0  0  0  0  0  0  0
   37.7980   26.3560   34.4800 N   0  0  0  0  0  0  0  0  0  0  0  0
   37.0990   26.6110   33.3410 C   0  0  0  0  0  0  0  0  0  0  0  0
   36.8740   25.6560   32.4200 N   0  0  0  0  0  0  0  0  0  0  0  0
   38.4510   23.1390   33.9530 H   0  0  0  0  0  0  0  0  0  0  0  0
   38.8520   24.9440   35.6490 H   0  0  0  0  0  0  0  0  0  0  0  0
   37.0920   23.4370   31.6310 N   0  0  0  0  0  0  0  0  0  0  0  0
   35.7340   23.0340   31.2820 C   0  0  0  0  0  0  0  0  0  0  0  0
   35.5410   21.5580   31.1270 C   0  0  0  0  0  0  0  0  0  0  0  0
   36.6580   20.7800   30.7430 N   0  0  0  0  0  0  0  0  0  0  0  0
   37.9380   21.2790   31.2430 C   0  0  0  0  0  0  0  0  0  0  0  0
   38.0320   22.7270   30.8450 C   0  0  0  0  0  0  0  0  0  0  0  0
   35.4860   23.5720   30.3230 H   0  0  0  0  0  0  0  0  0  0  0  0
   35.0750   23.4530   32.0500 H   0  0  0  0  0  0  0  0  0  0  0  0
   35.0830   21.1630   32.0650 H   0  0  0  0  0  0  0  0  0  0  0  0
   34.7400   21.4220   30.3430 H   0  0  0  0  0  0  0  0  0  0  0  0
   36.7090   20.5040   29.7530 H   0  0  0  0  0  0  0  0  0  0  0  0
   38.7180   20.7350   30.6690 H   0  0  0  0  0  0  0  0  0  0  0  0
   38.0370   21.1530   32.3310 H   0  0  0  0  0  0  0  0  0  0  0  0
   37.7940   22.8130   29.7600 H   0  0  0  0  0  0  0  0  0  0  0  0
   39.0730   23.0470   31.0550 H   0  0  0  0  0  0  0  0  0  0  0  0
   36.5860   27.9560   33.1220 C   0  0  0  0  0  0  0  0  0  0  0  0
   36.7080   28.5590   31.8900 C   0  0  0  0  0  0  0  0  0  0  0  0
   36.2380   29.8280   31.6360 C   0  0  0  0  0  0  0  0  0  0  0  0
   35.6370   30.4640   32.6870 N   0  0  0  0  0  0  0  0  0  0  0  0
   35.5240   29.8720   33.8770 C   0  0  0  0  0  0  0  0  0  0  0  0
   35.9930   28.6280   34.0990 N   0  0  0  0  0  0  0  0  0  0  0  0
   37.1950   27.9980   31.1020 H   0  0  0  0  0  0  0  0  0  0  0  0
   36.3470   30.2770   30.6590 H   0  0  0  0  0  0  0  0  0  0  0  0
   32.5570   29.3740   34.2200 Cl  0  0  0  0  0  0  0  0  0  0  0  0
   33.5320   30.4310   35.2390 C   0  0  0  0  0  0  0  0  0  0  0  0
   34.8770   30.5750   34.9800 C   0  0  0  0  0  0  0  0  0  0  0  0
   35.6250   31.4110   35.7940 C   0  0  0  0  0  0  0  0  0  0  0  0
   36.6790   31.5720   35.6520 H   0  0  0  0  0  0  0  0  0  0  0  0
   35.0620   32.1100   36.8630 C   0  0  0  0  0  0  0  0  0  0  0  0
   35.6310   32.7640   37.5050 H   0  0  0  0  0  0  0  0  0  0  0  0
   33.6930   31.9160   37.0660 C   0  0  0  0  0  3  0  0  0  0  0  0
   32.9210   31.0930   36.2790 C   0  0  0  0  0  3  0  0  0  0  0  0
  1  2  1  0  0  0  0
  2  7  1  0  0  0  0
  2  3  2  0  0  0  0
  3  8  1  0  0  0  0
  4  3  1  0  0  0  0
  5  4  2  0  0  0  0
  6  1  2  0  0  0  0
  6  5  1  0  0  0  0
  9  1  1  0  0  0  0
 10  9  1  0  0  0  0
 10 16  1  0  0  0  0
 11 10  1  0  0  0  0
 11 17  1  0  0  0  0
 12 11  1  0  0  0  0
 12 13  1  0  0  0  0
 13 21  1  0  0  0  0
 14 23  1  0  0  0  0
 14 13  1  0  0  0  0
 14  9  1  0  0  0  0
 15 10  1  0  0  0  0
 18 11  1  0  0  0  0
 19 12  1  0  0  0  0
 20 13  1  0  0  0  0
 22 14  1  0  0  0  0
 24  5  1  0  0  0  0
 24 29  1  0  0  0  0
 25 24  2  0  0  0  0
 26 25  1  0  0  0  0
 26 27  2  0  0  0  0
 27 28  1  0  0  0  0
 28 29  2  0  0  0  0
 28 34  1  0  0  0  0
 30 25  1  0  0  0  0
 31 26  1  0  0  0  0
 32 33  1  0  0  0  0
 33 40  1  0  0  0  0
 34 33  2  0  0  0  0
 34 35  1  0  0  0  0
 35 37  2  0  0  0  0
 36 35  1  0  0  0  0
 37 39  1  0  0  0  0
 37 38  1  0  0  0  0
 40 39  2  0  0  0  0
M  END
>  <minimizedAffinity>
-6.10705042

$$$$

 OpenBabel03272504343D

 40 43  0  0  0  0  0  0  0  0999 V2000
   37.8120   24.8410   33.4100 C   0  0  0  0  0  0  0  0  0  0  0  0
   38.8840   24.9580   34.2860 C   0  0  0  0  0  0  0  0  0  0  0  0
   39.1550   26.1810   34.8990 C   0  0  0  0  0  0  0  0  0  0  0  0
   38.3290   27.2270   34.5960 N   0  0  0  0  0  0  0  0  0  0  0  0
   37.2880   27.0790   33.7330 C   0  0  0  0  0  0  0  0  0  0  0  0
   37.0230   25.9000   33.1400 N   0  0  0  0  0  0  0  0  0  0  0  0
   39.5050   24.1200   34.4960 H   0  0  0  0  0  0  0  0  0  0  0  0
   39.9690   26.3310   35.5860 H   0  0  0  0  0  0  0  0  0  0  0  0
   37.4930   23.6140   32.7570 N   0  0  0  0  0  0  0  0  0  0  0  0
   36.5110   23.5440   31.6820 C   0  0  0  0  0  0  0  0  0  0  0  0
   35.5570   22.3940   31.7800 C   0  0  0  0  0  0  0  0  0  0  0  0
   35.9920   21.2290   32.4530 N   0  0  0  0  0  0  0  0  0  0  0  0
   36.9140   21.4830   33.5590 C   0  0  0  0  0  0  0  0  0  0  0  0
   38.0320   22.3300   33.0150 C   0  0  0  0  0  0  0  0  0  0  0  0
   37.1010   23.4910   30.7230 H   0  0  0  0  0  0  0  0  0  0  0  0
   35.9880   24.5060   31.6700 H   0  0  0  0  0  0  0  0  0  0  0  0
   34.5980   22.7690   32.2110 H   0  0  0  0  0  0  0  0  0  0  0  0
   35.2970   22.1040   30.7200 H   0  0  0  0  0  0  0  0  0  0  0  0
   36.3000   20.4440   31.8630 H   0  0  0  0  0  0  0  0  0  0  0  0
   37.3540   20.4950   33.8170 H   0  0  0  0  0  0  0  0  0  0  0  0
   36.4180   21.9690   34.4110 H   0  0  0  0  0  0  0  0  0  0  0  0
   38.4110   21.8590   32.0790 H   0  0  0  0  0  0  0  0  0  0  0  0
   38.8170   22.3600   33.7970 H   0  0  0  0  0  0  0  0  0  0  0  0
   36.4440   28.2320   33.4510 C   0  0  0  0  0  0  0  0  0  0  0  0
   36.3660   28.7440   32.1750 C   0  0  0  0  0  0  0  0  0  0  0  0
   35.5810   29.8320   31.8610 C   0  0  0  0  0  0  0  0  0  0  0  0
   34.8770   30.3810   32.8980 N   0  0  0  0  0  0  0  0  0  0  0  0
   34.9600   29.8760   34.1300 C   0  0  0  0  0  0  0  0  0  0  0  0
   35.7360   28.8110   34.4100 N   0  0  0  0  0  0  0  0  0  0  0  0
   36.9500   28.2610   31.4020 H   0  0  0  0  0  0  0  0  0  0  0  0
   35.5370   30.2140   30.8510 H   0  0  0  0  0  0  0  0  0  0  0  0
   36.3710   32.0460   35.7010 Cl  0  0  0  0  0  0  0  0  0  0  0  0
   34.7290   31.4800   36.0030 C   0  0  0  0  0  0  0  0  0  0  0  0
   34.1970   30.4830   35.2160 C   0  0  0  0  0  0  0  0  0  0  0  0
   32.9050   30.0530   35.4710 C   0  0  0  0  0  0  0  0  0  0  0  0
   32.4240   29.2800   34.8980 H   0  0  0  0  0  0  0  0  0  0  0  0
   32.1260   30.5960   36.4950 C   0  0  0  0  0  0  0  0  0  0  0  0
   31.1190   30.2710   36.7050 H   0  0  0  0  0  0  0  0  0  0  0  0
   32.7310   31.6020   37.2530 C   0  0  0  0  0  3  0  0  0  0  0  0
   34.0110   32.0530   37.0270 C   0  0  0  0  0  3  0  0  0  0  0  0
  1  2  1  0  0  0  0
  2  7  1  0  0  0  0
  2  3  2  0  0  0  0
  3  8  1  0  0  0  0
  4  3  1  0  0  0  0
  5  4  2  0  0  0  0
  6  1  2  0  0  0  0
  6  5  1  0  0  0  0
  9 14  1  0  0  0  0
  9  1  1  0  0  0  0
 10 11  1  0  0  0  0
 10  9  1  0  0  0  0
 11 17  1  0  0  0  0
 11 12  1  0  0  0  0
 12 13  1  0  0  0  0
 13 20  1  0  0  0  0
 13 21  1  0  0  0  0
 14 13  1  0  0  0  0
 14 23  1  0  0  0  0
 15 10  1  0  0  0  0
 16 10  1  0  0  0  0
 18 11  1  0  0  0  0
 19 12  1  0  0  0  0
 22 14  1  0  0  0  0
 24  5  1  0  0  0  0
 24 29  1  0  0  0  0
 25 24  2  0  0  0  0
 26 25  1  0  0  0  0
 26 27  2  0  0  0  0
 27 28  1  0  0  0  0
 28 29  2  0  0  0  0
 28 34  1  0  0  0  0
 30 25  1  0  0  0  0
 31 26  1  0  0  0  0
 32 33  1  0  0  0  0
 33 40  1  0  0  0  0
 34 35  1  0  0  0  0
 34 33  2  0  0  0  0
 35 37  2  0  0  0  0
 36 35  1  0  0  0  0
 37 38  1  0  0  0  0
 37 39  1  0  0  0  0
 40 39  2  0  0  0  0
M  END
>  <minimizedAffinity>
-6.01872492

$$$$

 OpenBabel03272504343D

 40 43  0  0  0  0  0  0  0  0999 V2000
   38.3900   25.2070   33.9140 C   0  0  0  0  0  0  0  0  0  0  0  0
   37.8510   24.2210   33.0960 C   0  0  0  0  0  0  0  0  0  0  0  0
   36.8530   24.5430   32.1770 C   0  0  0  0  0  0  0  0  0  0  0  0
   36.4470   25.8470   32.1290 N   0  0  0  0  0  0  0  0  0  0  0  0
   36.9940   26.7890   32.9440 C   0  0  0  0  0  0  0  0  0  0  0  0
   37.9580   26.4810   33.8320 N   0  0  0  0  0  0  0  0  0  0  0  0
   38.1940   23.2150   33.1640 H   0  0  0  0  0  0  0  0  0  0  0  0
   36.4000   23.8220   31.5190 H   0  0  0  0  0  0  0  0  0  0  0  0
   39.4110   24.9300   34.8690 N   0  0  0  0  0  0  0  0  0  0  0  0
   40.7200   25.5700   34.8080 C   0  0  0  0  0  0  0  0  0  0  0  0
   41.8780   24.6480   35.0300 C   0  0  0  0  0  0  0  0  0  0  0  0
   41.6620   23.4920   35.8170 N   0  0  0  0  0  0  0  0  0  0  0  0
   40.3180   22.9290   35.7020 C   0  0  0  0  0  0  0  0  0  0  0  0
   39.3480   24.0460   35.9740 C   0  0  0  0  0  0  0  0  0  0  0  0
   40.7050   26.3850   35.5850 H   0  0  0  0  0  0  0  0  0  0  0  0
   40.7800   26.0710   33.8360 H   0  0  0  0  0  0  0  0  0  0  0  0
   42.3080   24.3780   34.0360 H   0  0  0  0  0  0  0  0  0  0  0  0
   42.6830   25.2610   35.5310 H   0  0  0  0  0  0  0  0  0  0  0  0
   41.9840   23.5340   36.7940 H   0  0  0  0  0  0  0  0  0  0  0  0
   40.2220   22.2060   36.5410 H   0  0  0  0  0  0  0  0  0  0  0  0
   40.1420   22.4720   34.7180 H   0  0  0  0  0  0  0  0  0  0  0  0
   39.6510   24.5590   36.9160 H   0  0  0  0  0  0  0  0  0  0  0  0
   38.3470   23.5790   36.0730 H   0  0  0  0  0  0  0  0  0  0  0  0
   36.5190   28.1610   32.8450 C   0  0  0  0  0  0  0  0  0  0  0  0
   36.6670   28.8690   31.6730 C   0  0  0  0  0  0  0  0  0  0  0  0
   36.2320   30.1690   31.5330 C   0  0  0  0  0  0  0  0  0  0  0  0
   35.6390   30.7230   32.6340 N   0  0  0  0  0  0  0  0  0  0  0  0
   35.5010   30.0280   33.7640 C   0  0  0  0  0  0  0  0  0  0  0  0
   35.9350   28.7580   33.8750 N   0  0  0  0  0  0  0  0  0  0  0  0
   37.1460   28.3690   30.8400 H   0  0  0  0  0  0  0  0  0  0  0  0
   36.3610   30.7010   30.6010 H   0  0  0  0  0  0  0  0  0  0  0  0
   32.5610   29.4150   34.1540 Cl  0  0  0  0  0  0  0  0  0  0  0  0
   33.5310   30.4440   35.2070 C   0  0  0  0  0  0  0  0  0  0  0  0
   34.8630   30.6460   34.9230 C   0  0  0  0  0  0  0  0  0  0  0  0
   35.6070   31.4580   35.7630 C   0  0  0  0  0  0  0  0  0  0  0  0
   36.6520   31.6620   35.6040 H   0  0  0  0  0  0  0  0  0  0  0  0
   35.0530   32.0760   36.8860 C   0  0  0  0  0  0  0  0  0  0  0  0
   35.6190   32.7110   37.5500 H   0  0  0  0  0  0  0  0  0  0  0  0
   33.6970   31.8270   37.1120 C   0  0  0  0  0  3  0  0  0  0  0  0
   32.9290   31.0260   36.2990 C   0  0  0  0  0  3  0  0  0  0  0  0
  1  9  1  0  0  0  0
  2  7  1  0  0  0  0
  2  1  2  0  0  0  0
  3  2  1  0  0  0  0
  4  3  2  0  0  0  0
  4  5  1  0  0  0  0
  5  6  2  0  0  0  0
  6  1  1  0  0  0  0
  8  3  1  0  0  0  0
  9 14  1  0  0  0  0
 10  9  1  0  0  0  0
 10 11  1  0  0  0  0
 10 15  1  0  0  0  0
 11 18  1  0  0  0  0
 11 12  1  0  0  0  0
 12 19  1  0  0  0  0
 13 12  1  0  0  0  0
 13 14  1  0  0  0  0
 13 20  1  0  0  0  0
 14 23  1  0  0  0  0
 14 22  1  0  0  0  0
 16 10  1  0  0  0  0
 17 11  1  0  0  0  0
 21 13  1  0  0  0  0
 24  5  1  0  0  0  0
 24 29  1  0  0  0  0
 25 24  2  0  0  0  0
 26 25  1  0  0  0  0
 26 27  2  0  0  0  0
 27 28  1  0  0  0  0
 28 29  2  0  0  0  0
 28 34  1  0  0  0  0
 30 25  1  0  0  0  0
 31 26  1  0  0  0  0
 32 33  1  0  0  0  0
 33 40  1  0  0  0  0
 34 33  2  0  0  0  0
 34 35  1  0  0  0  0
 35 37  2  0  0  0  0
 36 35  1  0  0  0  0
 37 39  1  0  0  0  0
 37 38  1  0  0  0  0
 40 39  2  0  0  0  0
M  END
>  <minimizedAffinity>
-5.92093229

$$$$

 OpenBabel03272504343D

 40 43  0  0  0  0  0  0  0  0999 V2000
   38.3240   25.7330   33.7090 C   0  0  0  0  0  0  0  0  0  0  0  0
   37.8580   24.7360   32.8600 C   0  0  0  0  0  0  0  0  0  0  0  0
   36.7910   24.9940   31.9990 C   0  0  0  0  0  0  0  0  0  0  0  0
   36.2470   26.2470   32.0390 N   0  0  0  0  0  0  0  0  0  0  0  0
   36.7260   27.2000   32.8820 C   0  0  0  0  0  0  0  0  0  0  0  0
   37.7560   26.9550   33.7140 N   0  0  0  0  0  0  0  0  0  0  0  0
   38.3090   23.7720   32.8590 H   0  0  0  0  0  0  0  0  0  0  0  0
   36.3880   24.2630   31.3210 H   0  0  0  0  0  0  0  0  0  0  0  0
   39.4110   25.5210   34.6070 N   0  0  0  0  0  0  0  0  0  0  0  0
   40.5200   26.4620   34.7140 C   0  0  0  0  0  0  0  0  0  0  0  0
   41.8750   25.8280   34.7620 C   0  0  0  0  0  0  0  0  0  0  0  0
   41.9740   24.5160   35.2800 N   0  0  0  0  0  0  0  0  0  0  0  0
   40.8070   23.6760   35.0160 C   0  0  0  0  0  0  0  0  0  0  0  0
   39.6010   24.4350   35.4970 C   0  0  0  0  0  0  0  0  0  0  0  0
   40.3280   27.0640   35.6460 H   0  0  0  0  0  0  0  0  0  0  0  0
   40.4250   27.1560   33.8720 H   0  0  0  0  0  0  0  0  0  0  0  0
   42.3280   25.8900   33.7440 H   0  0  0  0  0  0  0  0  0  0  0  0
   42.5200   26.5000   35.4000 H   0  0  0  0  0  0  0  0  0  0  0  0
   42.3050   24.4270   36.2510 H   0  0  0  0  0  0  0  0  0  0  0  0
   40.9170   22.7900   35.6800 H   0  0  0  0  0  0  0  0  0  0  0  0
   40.7180   23.4080   33.9540 H   0  0  0  0  0  0  0  0  0  0  0  0
   39.7960   24.7950   36.5330 H   0  0  0  0  0  0  0  0  0  0  0  0
   38.7480   23.7260   35.4720 H   0  0  0  0  0  0  0  0  0  0  0  0
   36.1030   28.5160   32.8780 C   0  0  0  0  0  0  0  0  0  0  0  0
   36.1560   29.3100   31.7540 C   0  0  0  0  0  0  0  0  0  0  0  0
   35.5810   30.5610   31.7030 C   0  0  0  0  0  0  0  0  0  0  0  0
   34.9480   30.9750   32.8420 N   0  0  0  0  0  0  0  0  0  0  0  0
   34.9030   30.1980   33.9260 C   0  0  0  0  0  0  0  0  0  0  0  0
   35.4740   28.9780   33.9490 N   0  0  0  0  0  0  0  0  0  0  0  0
   36.6740   28.9200   30.8860 H   0  0  0  0  0  0  0  0  0  0  0  0
   35.6370   31.1630   30.8070 H   0  0  0  0  0  0  0  0  0  0  0  0
   36.4410   32.1470   35.6590 Cl  0  0  0  0  0  0  0  0  0  0  0  0
   34.8150   31.5540   35.9960 C   0  0  0  0  0  0  0  0  0  0  0  0
   34.2200   30.6670   35.1280 C   0  0  0  0  0  0  0  0  0  0  0  0
   32.9420   30.2130   35.4120 C   0  0  0  0  0  0  0  0  0  0  0  0
   32.4150   29.5200   34.7800 H   0  0  0  0  0  0  0  0  0  0  0  0
   32.2390   30.6260   36.5450 C   0  0  0  0  0  0  0  0  0  0  0  0
   31.2440   30.2830   36.7800 H   0  0  0  0  0  0  0  0  0  0  0  0
   32.9040   31.5270   37.3810 C   0  0  0  0  0  3  0  0  0  0  0  0
   34.1720   31.9980   37.1290 C   0  0  0  0  0  3  0  0  0  0  0  0
  1  6  1  0  0  0  0
  1  9  1  0  0  0  0
  2  1  2  0  0  0  0
  3  4  2  0  0  0  0
  3  2  1  0  0  0  0
  4  5  1  0  0  0  0
  5  6  2  0  0  0  0
  7  2  1  0  0  0  0
  8  3  1  0  0  0  0
  9 10  1  0  0  0  0
  9 14  1  0  0  0  0
 10 11  1  0  0  0  0
 10 15  1  0  0  0  0
 11 12  1  0  0  0  0
 11 18  1  0  0  0  0
 12 19  1  0  0  0  0
 13 12  1  0  0  0  0
 13 14  1  0  0  0  0
 13 20  1  0  0  0  0
 14 22  1  0  0  0  0
 16 10  1  0  0  0  0
 17 11  1  0  0  0  0
 21 13  1  0  0  0  0
 23 14  1  0  0  0  0
 24  5  1  0  0  0  0
 24 29  1  0  0  0  0
 25 24  2  0  0  0  0
 26 25  1  0  0  0  0
 26 27  2  0  0  0  0
 27 28  1  0  0  0  0
 28 29  2  0  0  0  0
 28 34  1  0  0  0  0
 30 25  1  0  0  0  0
 31 26  1  0  0  0  0
 32 33  1  0  0  0  0
 33 40  1  0  0  0  0
 34 35  1  0  0  0  0
 34 33  2  0  0  0  0
 35 37  2  0  0  0  0
 36 35  1  0  0  0  0
 37 38  1  0  0  0  0
 37 39  1  0  0  0  0
 40 39  2  0  0  0  0
M  END
>  <minimizedAffinity>
-5.80204535

$$$$

 OpenBabel03272504343D

 40 43  0  0  0  0  0  0  0  0999 V2000
   37.0180   28.1480   31.8690 C   0  0  0  0  0  0  0  0  0  0  0  0
   37.7750   28.2820   30.7110 C   0  0  0  0  0  0  0  0  0  0  0  0
   38.5000   27.1950   30.2210 C   0  0  0  0  0  0  0  0  0  0  0  0
   38.4240   26.0270   30.9250 N   0  0  0  0  0  0  0  0  0  0  0  0
   37.6740   25.9290   32.0550 C   0  0  0  0  0  0  0  0  0  0  0  0
   36.9730   26.9750   32.5310 N   0  0  0  0  0  0  0  0  0  0  0  0
   37.8090   29.2100   30.1910 H   0  0  0  0  0  0  0  0  0  0  0  0
   39.1020   27.2400   29.3300 H   0  0  0  0  0  0  0  0  0  0  0  0
   36.2600   29.2270   32.4120 N   0  0  0  0  0  0  0  0  0  0  0  0
   35.5860   29.1250   33.7010 C   0  0  0  0  0  0  0  0  0  0  0  0
   34.1910   29.6660   33.7200 C   0  0  0  0  0  0  0  0  0  0  0  0
   33.8630   30.6880   32.8000 N   0  0  0  0  0  0  0  0  0  0  0  0
   34.5710   30.5970   31.5240 C   0  0  0  0  0  0  0  0  0  0  0  0
   36.0390   30.5040   31.8410 C   0  0  0  0  0  0  0  0  0  0  0  0
   36.2370   29.6770   34.4370 H   0  0  0  0  0  0  0  0  0  0  0  0
   35.6180   28.0700   33.9900 H   0  0  0  0  0  0  0  0  0  0  0  0
   33.4810   28.8090   33.6320 H   0  0  0  0  0  0  0  0  0  0  0  0
   34.0190   30.0700   34.7600 H   0  0  0  0  0  0  0  0  0  0  0  0
   33.8450   31.6500   33.1660 H   0  0  0  0  0  0  0  0  0  0  0  0
   34.4110   31.5760   31.0200 H   0  0  0  0  0  0  0  0  0  0  0  0
   34.2340   29.7420   30.9210 H   0  0  0  0  0  0  0  0  0  0  0  0
   36.3000   31.3150   32.5580 H   0  0  0  0  0  0  0  0  0  0  0  0
   36.5790   30.6270   30.8800 H   0  0  0  0  0  0  0  0  0  0  0  0
   37.6340   24.6550   32.7610 C   0  0  0  0  0  0  0  0  0  0  0  0
   37.1870   23.5190   32.1250 C   0  0  0  0  0  0  0  0  0  0  0  0
   37.1330   22.2930   32.7520 C   0  0  0  0  0  0  0  0  0  0  0  0
   37.5510   22.2680   34.0540 N   0  0  0  0  0  0  0  0  0  0  0  0
   37.9820   23.3750   34.6600 C   0  0  0  0  0  0  0  0  0  0  0  0
   38.0260   24.5620   34.0240 N   0  0  0  0  0  0  0  0  0  0  0  0
   36.8710   23.6100   31.0940 H   0  0  0  0  0  0  0  0  0  0  0  0
   36.7780   21.4160   32.2290 H   0  0  0  0  0  0  0  0  0  0  0  0
   40.7490   22.2410   35.1360 Cl  0  0  0  0  0  0  0  0  0  0  0  0
   39.6610   22.8230   36.3950 C   0  0  0  0  0  0  0  0  0  0  0  0
   38.4230   23.3180   36.0500 C   0  0  0  0  0  0  0  0  0  0  0  0
   37.5830   23.7690   37.0550 C   0  0  0  0  0  0  0  0  0  0  0  0
   36.6040   24.1690   36.8620 H   0  0  0  0  0  0  0  0  0  0  0  0
   37.9500   23.7400   38.4020 C   0  0  0  0  0  0  0  0  0  0  0  0
   37.3070   24.0880   39.1960 H   0  0  0  0  0  0  0  0  0  0  0  0
   39.2190   23.2240   38.6780 C   0  0  0  0  0  3  0  0  0  0  0  0
   40.0780   22.7680   37.7050 C   0  0  0  0  0  3  0  0  0  0  0  0
  1  9  1  0  0  0  0
  1  6  1  0  0  0  0
  2  1  2  0  0  0  0
  3  2  1  0  0  0  0
  3  4  2  0  0  0  0
  4  5  1  0  0  0  0
  5  6  2  0  0  0  0
  5 24  1  0  0  0  0
  7  2  1  0  0  0  0
  8  3  1  0  0  0  0
  9 10  1  0  0  0  0
 10 11  1  0  0  0  0
 10 16  1  0  0  0  0
 10 15  1  0  0  0  0
 11 18  1  0  0  0  0
 12 19  1  0  0  0  0
 12 11  1  0  0  0  0
 13 14  1  0  0  0  0
 13 12  1  0  0  0  0
 14  9  1  0  0  0  0
 14 22  1  0  0  0  0
 17 11  1  0  0  0  0
 20 13  1  0  0  0  0
 21 13  1  0  0  0  0
 23 14  1  0  0  0  0
 24 29  1  0  0  0  0
 25 26  1  0  0  0  0
 25 24  2  0  0  0  0
 26 27  2  0  0  0  0
 27 28  1  0  0  0  0
 28 34  1  0  0  0  0
 29 28  2  0  0  0  0
 30 25  1  0  0  0  0
 31 26  1  0  0  0  0
 32 33  1  0  0  0  0
 33 40  1  0  0  0  0
 34 33  2  0  0  0  0
 34 35  1  0  0  0  0
 35 37  2  0  0  0  0
 36 35  1  0  0  0  0
 37 39  1  0  0  0  0
 37 38  1  0  0  0  0
 40 39  2  0  0  0  0
M  END
>  <minimizedAffinity>
-5.80183506

$$$$

 OpenBabel03272504343D

 40 43  0  0  0  0  0  0  0  0999 V2000
   38.1960   24.3010   34.7010 C   0  0  0  0  0  0  0  0  0  0  0  0
   37.9630   23.2050   33.8780 C   0  0  0  0  0  0  0  0  0  0  0  0
   37.4330   23.3910   32.6010 C   0  0  0  0  0  0  0  0  0  0  0  0
   37.1650   24.6750   32.2190 N   0  0  0  0  0  0  0  0  0  0  0  0
   37.4040   25.7250   33.0490 C   0  0  0  0  0  0  0  0  0  0  0  0
   37.9150   25.5500   34.2820 N   0  0  0  0  0  0  0  0  0  0  0  0
   38.1850   22.2200   34.2130 H   0  0  0  0  0  0  0  0  0  0  0  0
   37.2320   22.5820   31.9210 H   0  0  0  0  0  0  0  0  0  0  0  0
   38.7350   24.1650   36.0140 N   0  0  0  0  0  0  0  0  0  0  0  0
   40.0260   23.5310   36.2570 C   0  0  0  0  0  0  0  0  0  0  0  0
   40.0460   22.5740   37.4070 C   0  0  0  0  0  0  0  0  0  0  0  0
   39.1210   22.7810   38.4570 N   0  0  0  0  0  0  0  0  0  0  0  0
   37.8440   23.3510   38.0300 C   0  0  0  0  0  0  0  0  0  0  0  0
   38.1590   24.5890   37.2360 C   0  0  0  0  0  0  0  0  0  0  0  0
   40.7590   24.3700   36.4250 H   0  0  0  0  0  0  0  0  0  0  0  0
   40.3200   23.0470   35.3190 H   0  0  0  0  0  0  0  0  0  0  0  0
   39.9630   21.5370   37.0030 H   0  0  0  0  0  0  0  0  0  0  0  0
   41.0840   22.6240   37.8470 H   0  0  0  0  0  0  0  0  0  0  0  0
   39.4840   23.2340   39.3070 H   0  0  0  0  0  0  0  0  0  0  0  0
   37.3370   23.6850   38.9620 H   0  0  0  0  0  0  0  0  0  0  0  0
   37.2460   22.6380   37.4450 H   0  0  0  0  0  0  0  0  0  0  0  0
   38.8730   25.2150   37.8200 H   0  0  0  0  0  0  0  0  0  0  0  0
   37.1970   25.1180   37.0780 H   0  0  0  0  0  0  0  0  0  0  0  0
   37.0960   27.0700   32.5820 C   0  0  0  0  0  0  0  0  0  0  0  0
   36.2470   27.8820   33.3020 C   0  0  0  0  0  0  0  0  0  0  0  0
   35.9280   29.1600   32.9000 C   0  0  0  0  0  0  0  0  0  0  0  0
   36.5060   29.5820   31.7340 N   0  0  0  0  0  0  0  0  0  0  0  0
   37.3260   28.7880   31.0450 C   0  0  0  0  0  0  0  0  0  0  0  0
   37.6230   27.5410   31.4600 N   0  0  0  0  0  0  0  0  0  0  0  0
   35.8250   27.4830   34.2150 H   0  0  0  0  0  0  0  0  0  0  0  0
   35.2590   29.7760   33.4840 H   0  0  0  0  0  0  0  0  0  0  0  0
   37.1560   31.7690   30.5440 Cl  0  0  0  0  0  0  0  0  0  0  0  0
   37.9150   30.6010   29.4640 C   0  0  0  0  0  0  0  0  0  0  0  0
   37.9280   29.2670   29.8050 C   0  0  0  0  0  0  0  0  0  0  0  0
   38.5300   28.3660   28.9410 C   0  0  0  0  0  0  0  0  0  0  0  0
   38.5780   27.3100   29.1410 H   0  0  0  0  0  0  0  0  0  0  0  0
   39.1220   28.7640   27.7420 C   0  0  0  0  0  0  0  0  0  0  0  0
   39.5940   28.0740   27.0590 H   0  0  0  0  0  0  0  0  0  0  0  0
   39.0710   30.1320   27.4610 C   0  0  0  0  0  3  0  0  0  0  0  0
   38.4820   31.0540   28.2950 C   0  0  0  0  0  3  0  0  0  0  0  0
  1  9  1  0  0  0  0
  2  7  1  0  0  0  0
  2  1  2  0  0  0  0
  3  2  1  0  0  0  0
  4  3  2  0  0  0  0
  4  5  1  0  0  0  0
  5  6  2  0  0  0  0
  6  1  1  0  0  0  0
  8  3  1  0  0  0  0
  9 10  1  0  0  0  0
  9 14  1  0  0  0  0
 10 15  1  0  0  0  0
 10 11  1  0  0  0  0
 11 18  1  0  0  0  0
 11 12  1  0  0  0  0
 12 19  1  0  0  0  0
 13 12  1  0  0  0  0
 13 20  1  0  0  0  0
 14 22  1  0  0  0  0
 14 13  1  0  0  0  0
 16 10  1  0  0  0  0
 17 11  1  0  0  0  0
 21 13  1  0  0  0  0
 23 14  1  0  0  0  0
 24  5  1  0  0  0  0
 24 25  1  0  0  0  0
 25 30  1  0  0  0  0
 26 25  2  0  0  0  0
 26 31  1  0  0  0  0
 27 26  1  0  0  0  0
 28 29  1  0  0  0  0
 28 27  2  0  0  0  0
 29 24  2  0  0  0  0
 33 34  1  0  0  0  0
 33 32  1  0  0  0  0
 34 28  1  0  0  0  0
 35 36  1  0  0  0  0
 35 34  2  0  0  0  0
 37 35  1  0  0  0  0
 38 37  1  0  0  0  0
 39 37  2  0  0  0  0
 39 40  1  0  0  0  0
 40 33  2  0  0  0  0
M  END
>  <minimizedAffinity>
-5.71709442

$$$$
