
 OpenBabel03272506523D

 34 36  0  0  1  0  0  0  0  0999 V2000
   38.3230   26.9270   32.6170 C   0  0  1  0  0  0  0  0  0  0  0  0
   39.4620   27.1530   33.5010 C   0  0  0  0  0  0  0  0  0  0  0  0
   39.5120   26.3760   34.7870 C   0  0  0  0  0  0  0  0  0  0  0  0
   39.0280   24.9700   34.6630 C   0  0  2  0  0  0  0  0  0  0  0  0
   37.8660   24.7100   33.7920 C   0  0  0  0  0  0  0  0  0  0  0  0
   37.9770   25.4660   32.4970 C   0  0  0  0  0  0  0  0  0  0  0  0
   38.6420   27.1940   31.5580 H   0  0  0  0  0  0  0  0  0  0  0  0
   39.7140   28.1930   33.7190 H   0  0  0  0  0  0  0  0  0  0  0  0
   40.3840   26.7850   32.9390 H   0  0  0  0  0  0  0  0  0  0  0  0
   40.5640   26.3480   35.1450 H   0  0  0  0  0  0  0  0  0  0  0  0
   38.9560   26.9670   35.5460 H   0  0  0  0  0  0  0  0  0  0  0  0
   39.8940   24.4470   34.1310 H   0  0  0  0  0  0  0  0  0  0  0  0
   37.9060   23.6210   33.4890 H   0  0  0  0  0  0  0  0  0  0  0  0
   36.8670   24.8530   34.1700 H   0  0  0  0  0  0  0  0  0  0  0  0
   38.9300   25.0260   32.0580 H   0  0  0  0  0  0  0  0  0  0  0  0
   37.2400   25.2060   31.7500 H   0  0  0  0  0  0  0  0  0  0  0  0
   36.4430   28.3400   31.7220 C   0  0  0  0  0  0  0  0  0  0  0  0
   37.1330   27.7860   32.8160 C   0  0  0  0  0  0  0  0  0  0  0  0
   36.6490   28.0780   34.0780 C   0  0  0  0  0  0  0  0  0  0  0  0
   35.5460   28.8740   34.2070 N   0  0  0  0  0  0  0  0  0  0  0  0
   34.9160   29.3830   33.1280 C   0  0  0  0  0  0  0  0  0  0  0  0
   35.3700   29.1110   31.8740 N   0  0  0  0  0  0  0  0  0  0  0  0
   36.7270   28.1820   30.6920 H   0  0  0  0  0  0  0  0  0  0  0  0
   37.1020   27.7070   34.9780 H   0  0  0  0  0  0  0  0  0  0  0  0
   34.0570   29.9950   33.3690 H   0  0  0  0  0  0  0  0  0  0  0  0
   41.0640   22.7510   35.4140 Cl  0  0  0  0  0  0  0  0  0  0  0  0
   39.8460   23.3750   36.4680 C   0  0  0  0  0  0  0  0  0  0  0  0
   38.9950   24.3560   36.0060 C   0  0  0  0  0  0  0  0  0  0  0  0
   38.0600   24.7410   36.9790 C   0  0  0  0  0  0  0  0  0  0  0  0
   37.3440   25.5240   36.6820 H   0  0  0  0  0  0  0  0  0  0  0  0
   37.9460   24.2460   38.2590 C   0  0  0  0  0  0  0  0  0  0  0  0
   37.1720   24.6400   38.9030 H   0  0  0  0  0  0  0  0  0  0  0  0
   38.8430   23.2680   38.6250 C   0  0  0  0  0  3  0  0  0  0  0  0
   39.7960   22.8280   37.7320 C   0  0  0  0  0  3  0  0  0  0  0  0
  1  7  1  6  0  0  0
  1 18  1  0  0  0  0
  1  2  1  0  0  0  0
  2  8  1  0  0  0  0
  2  3  1  0  0  0  0
  3 10  1  0  0  0  0
  3 11  1  0  0  0  0
  4 12  1  6  0  0  0
  4  3  1  0  0  0  0
  4 28  1  0  0  0  0
  5 14  1  0  0  0  0
  5  4  1  0  0  0  0
  6  1  1  0  0  0  0
  6  5  1  0  0  0  0
  9  2  1  0  0  0  0
 13  5  1  0  0  0  0
 15  6  1  0  0  0  0
 16  6  1  0  0  0  0
 17 22  2  0  0  0  0
 17 18  1  0  0  0  0
 18 19  2  0  0  0  0
 19 20  1  0  0  0  0
 19 24  1  0  0  0  0
 21 25  1  0  0  0  0
 21 20  2  0  0  0  0
 22 21  1  0  0  0  0
 23 17  1  0  0  0  0
 26 27  1  0  0  0  0
 27 34  1  0  0  0  0
 28 27  2  0  0  0  0
 28 29  1  0  0  0  0
 29 31  2  0  0  0  0
 30 29  1  0  0  0  0
 31 33  1  0  0  0  0
 31 32  1  0  0  0  0
 34 33  2  0  0  0  0
M  END
>  <minimizedAffinity>
-5.53786755

$$$$

 OpenBabel03272506523D

 34 36  0  0  1  0  0  0  0  0999 V2000
   39.5730   24.3630   34.5300 C   0  0  1  0  0  0  0  0  0  0  0  0
   38.5070   24.1960   33.5490 C   0  0  0  0  0  0  0  0  0  0  0  0
   37.5940   25.3650   33.3040 C   0  0  0  0  0  0  0  0  0  0  0  0
   38.2850   26.6880   33.3250 C   0  0  2  0  0  0  0  0  0  0  0  0
   39.3550   26.8950   34.3190 C   0  0  0  0  0  0  0  0  0  0  0  0
   40.2600   25.6980   34.4030 C   0  0  0  0  0  0  0  0  0  0  0  0
   40.4050   23.6310   34.2740 H   0  0  0  0  0  0  0  0  0  0  0  0
   37.8940   23.2960   33.6380 H   0  0  0  0  0  0  0  0  0  0  0  0
   39.0180   24.0510   32.5390 H   0  0  0  0  0  0  0  0  0  0  0  0
   37.1160   25.2410   32.3080 H   0  0  0  0  0  0  0  0  0  0  0  0
   36.7650   25.2910   34.0420 H   0  0  0  0  0  0  0  0  0  0  0  0
   38.8330   26.7050   32.3210 H   0  0  0  0  0  0  0  0  0  0  0  0
   40.0190   27.7260   33.9340 H   0  0  0  0  0  0  0  0  0  0  0  0
   39.1060   27.1890   35.3260 H   0  0  0  0  0  0  0  0  0  0  0  0
   40.6790   25.6550   33.3460 H   0  0  0  0  0  0  0  0  0  0  0  0
   41.1520   25.8380   34.9970 H   0  0  0  0  0  0  0  0  0  0  0  0
   38.1340   24.5440   36.5870 C   0  0  0  0  0  0  0  0  0  0  0  0
   39.2600   24.0090   35.9340 C   0  0  0  0  0  0  0  0  0  0  0  0
   40.0530   23.1400   36.6600 C   0  0  0  0  0  0  0  0  0  0  0  0
   39.7180   22.8440   37.9510 N   0  0  0  0  0  0  0  0  0  0  0  0
   38.6280   23.3820   38.5360 C   0  0  0  0  0  0  0  0  0  0  0  0
   37.8290   24.2400   37.8450 N   0  0  0  0  0  0  0  0  0  0  0  0
   37.4420   25.2320   36.1220 H   0  0  0  0  0  0  0  0  0  0  0  0
   40.9340   22.6760   36.2560 H   0  0  0  0  0  0  0  0  0  0  0  0
   38.4760   23.0650   39.5600 H   0  0  0  0  0  0  0  0  0  0  0  0
   37.8140   28.1070   30.6060 Cl  0  0  0  0  0  0  0  0  0  0  0  0
   36.9590   28.4560   32.0660 C   0  0  0  0  0  0  0  0  0  0  0  0
   37.2730   27.7570   33.2130 C   0  0  0  0  0  0  0  0  0  0  0  0
   36.4990   28.1700   34.3070 C   0  0  0  0  0  0  0  0  0  0  0  0
   36.6940   27.6550   35.2620 H   0  0  0  0  0  0  0  0  0  0  0  0
   35.5260   29.1450   34.3140 C   0  0  0  0  0  0  0  0  0  0  0  0
   35.0070   29.3580   35.2370 H   0  0  0  0  0  0  0  0  0  0  0  0
   35.2860   29.7850   33.1180 C   0  0  0  0  0  3  0  0  0  0  0  0
   36.0020   29.4440   31.9900 C   0  0  0  0  0  3  0  0  0  0  0  0
  1  7  1  6  0  0  0
  1 18  1  0  0  0  0
  2  8  1  0  0  0  0
  2  1  1  0  0  0  0
  3  4  1  0  0  0  0
  3  2  1  0  0  0  0
  3 11  1  0  0  0  0
  4 12  1  6  0  0  0
  4  5  1  0  0  0  0
  5  6  1  0  0  0  0
  5 14  1  0  0  0  0
  6  1  1  0  0  0  0
  6 16  1  0  0  0  0
  9  2  1  0  0  0  0
 10  3  1  0  0  0  0
 13  5  1  0  0  0  0
 15  6  1  0  0  0  0
 17 22  1  0  0  0  0
 18 17  2  0  0  0  0
 18 19  1  0  0  0  0
 19 20  2  0  0  0  0
 20 21  1  0  0  0  0
 21 25  1  0  0  0  0
 22 21  2  0  0  0  0
 23 17  1  0  0  0  0
 24 19  1  0  0  0  0
 26 27  1  0  0  0  0
 27 28  1  0  0  0  0
 28  4  1  0  0  0  0
 28 29  2  0  0  0  0
 29 31  1  0  0  0  0
 29 30  1  0  0  0  0
 31 32  1  0  0  0  0
 33 31  2  0  0  0  0
 34 27  2  0  0  0  0
 34 33  1  0  0  0  0
M  END
>  <minimizedAffinity>
-5.41899967

$$$$

 OpenBabel03272506523D

 34 36  0  0  1  0  0  0  0  0999 V2000
   37.3810   27.3980   32.2820 C   0  0  1  0  0  0  0  0  0  0  0  0
   36.8150   28.6030   31.6840 C   0  0  0  0  0  0  0  0  0  0  0  0
   35.7290   29.3140   32.4430 C   0  0  0  0  0  0  0  0  0  0  0  0
   35.9350   29.3300   33.9210 C   0  0  2  0  0  0  0  0  0  0  0  0
   36.4860   28.1210   34.5580 C   0  0  0  0  0  0  0  0  0  0  0  0
   37.6290   27.5570   33.7590 C   0  0  0  0  0  0  0  0  0  0  0  0
   38.4310   27.2610   31.8680 H   0  0  0  0  0  0  0  0  0  0  0  0
   36.5140   28.5360   30.6360 H   0  0  0  0  0  0  0  0  0  0  0  0
   37.6570   29.3730   31.6530 H   0  0  0  0  0  0  0  0  0  0  0  0
   35.6790   30.3660   32.0890 H   0  0  0  0  0  0  0  0  0  0  0  0
   34.7640   28.8520   32.1380 H   0  0  0  0  0  0  0  0  0  0  0  0
   36.7570   30.1140   34.0560 H   0  0  0  0  0  0  0  0  0  0  0  0
   36.9550   28.4370   35.5380 H   0  0  0  0  0  0  0  0  0  0  0  0
   35.8350   27.3030   34.8190 H   0  0  0  0  0  0  0  0  0  0  0  0
   38.3730   28.4170   33.7890 H   0  0  0  0  0  0  0  0  0  0  0  0
   38.1790   26.7630   34.2430 H   0  0  0  0  0  0  0  0  0  0  0  0
   35.5940   26.0610   31.1200 C   0  0  0  0  0  0  0  0  0  0  0  0
   36.7340   26.1090   31.9420 C   0  0  0  0  0  0  0  0  0  0  0  0
   37.2220   24.9040   32.4130 C   0  0  0  0  0  0  0  0  0  0  0  0
   36.5900   23.7430   32.0680 N   0  0  0  0  0  0  0  0  0  0  0  0
   35.4970   23.7450   31.2760 C   0  0  0  0  0  0  0  0  0  0  0  0
   34.9960   24.9170   30.7980 N   0  0  0  0  0  0  0  0  0  0  0  0
   35.1240   26.9350   30.6940 H   0  0  0  0  0  0  0  0  0  0  0  0
   38.0860   24.8300   33.0470 H   0  0  0  0  0  0  0  0  0  0  0  0
   35.0950   22.7600   31.0800 H   0  0  0  0  0  0  0  0  0  0  0  0
   36.2580   31.6850   35.9160 Cl  0  0  0  0  0  0  0  0  0  0  0  0
   34.7510   30.9810   35.4520 C   0  0  0  0  0  0  0  0  0  0  0  0
   34.7460   29.9290   34.5610 C   0  0  0  0  0  0  0  0  0  0  0  0
   33.4470   29.4670   34.3020 C   0  0  0  0  0  0  0  0  0  0  0  0
   33.3630   28.6240   33.5970 H   0  0  0  0  0  0  0  0  0  0  0  0
   32.2720   29.9540   34.8320 C   0  0  0  0  0  0  0  0  0  0  0  0
   31.3380   29.4960   34.5390 H   0  0  0  0  0  0  0  0  0  0  0  0
   32.3830   31.0070   35.7120 C   0  0  0  0  0  3  0  0  0  0  0  0
   33.6220   31.5250   36.0260 C   0  0  0  0  0  3  0  0  0  0  0  0
  1  7  1  6  0  0  0
  1  6  1  0  0  0  0
  2  1  1  0  0  0  0
  2  3  1  0  0  0  0
  3  4  1  0  0  0  0
  4 12  1  1  0  0  0
  4  5  1  0  0  0  0
  4 28  1  0  0  0  0
  5 14  1  0  0  0  0
  5 13  1  0  0  0  0
  6 15  1  0  0  0  0
  6 16  1  0  0  0  0
  6  5  1  0  0  0  0
  8  2  1  0  0  0  0
  9  2  1  0  0  0  0
 10  3  1  0  0  0  0
 11  3  1  0  0  0  0
 17 18  1  0  0  0  0
 18  1  1  0  0  0  0
 18 19  2  0  0  0  0
 19 24  1  0  0  0  0
 20 19  1  0  0  0  0
 21 20  2  0  0  0  0
 22 17  2  0  0  0  0
 22 21  1  0  0  0  0
 23 17  1  0  0  0  0
 25 21  1  0  0  0  0
 27 26  1  0  0  0  0
 27 34  1  0  0  0  0
 28 27  2  0  0  0  0
 29 28  1  0  0  0  0
 29 31  2  0  0  0  0
 30 29  1  0  0  0  0
 31 33  1  0  0  0  0
 32 31  1  0  0  0  0
 33 34  2  0  0  0  0
M  END
>  <minimizedAffinity>
-5.4180131

$$$$

 OpenBabel03272506523D

 34 36  0  0  1  0  0  0  0  0999 V2000
   39.7800   26.7320   32.1070 C   0  0  1  0  0  0  0  0  0  0  0  0
   40.4800   27.1620   33.3130 C   0  0  0  0  0  0  0  0  0  0  0  0
   40.1780   26.4330   34.5930 C   0  0  0  0  0  0  0  0  0  0  0  0
   39.9810   24.9640   34.4190 C   0  0  2  0  0  0  0  0  0  0  0  0
   39.2600   24.4970   33.2210 C   0  0  0  0  0  0  0  0  0  0  0  0
   39.7170   25.2310   31.9900 C   0  0  0  0  0  0  0  0  0  0  0  0
   40.4150   27.0240   31.2100 H   0  0  0  0  0  0  0  0  0  0  0  0
   40.4820   28.2340   33.5220 H   0  0  0  0  0  0  0  0  0  0  0  0
   41.5850   26.9390   33.1410 H   0  0  0  0  0  0  0  0  0  0  0  0
   41.0240   26.5870   35.2970 H   0  0  0  0  0  0  0  0  0  0  0  0
   39.3060   26.9410   35.0590 H   0  0  0  0  0  0  0  0  0  0  0  0
   41.0470   24.5790   34.2690 H   0  0  0  0  0  0  0  0  0  0  0  0
   39.5650   23.4230   33.0380 H   0  0  0  0  0  0  0  0  0  0  0  0
   38.1830   24.4810   33.2110 H   0  0  0  0  0  0  0  0  0  0  0  0
   40.8170   24.9440   31.9500 H   0  0  0  0  0  0  0  0  0  0  0  0
   39.3440   24.8360   31.0560 H   0  0  0  0  0  0  0  0  0  0  0  0
   37.5690   27.6900   32.8310 C   0  0  0  0  0  0  0  0  0  0  0  0
   38.4860   27.3870   31.8070 C   0  0  0  0  0  0  0  0  0  0  0  0
   38.1250   27.7300   30.5180 C   0  0  0  0  0  0  0  0  0  0  0  0
   36.9200   28.3360   30.2960 N   0  0  0  0  0  0  0  0  0  0  0  0
   36.0720   28.6070   31.3090 C   0  0  0  0  0  0  0  0  0  0  0  0
   36.4020   28.2810   32.5890 N   0  0  0  0  0  0  0  0  0  0  0  0
   37.7410   27.4700   33.8740 H   0  0  0  0  0  0  0  0  0  0  0  0
   38.7520   27.5430   29.6660 H   0  0  0  0  0  0  0  0  0  0  0  0
   35.1540   29.0880   30.9970 H   0  0  0  0  0  0  0  0  0  0  0  0
   37.3400   25.8950   35.7570 Cl  0  0  0  0  0  0  0  0  0  0  0  0
   38.4070   24.7000   36.4000 C   0  0  0  0  0  0  0  0  0  0  0  0
   39.5580   24.3830   35.7100 C   0  0  0  0  0  0  0  0  0  0  0  0
   40.3170   23.4080   36.3740 C   0  0  0  0  0  0  0  0  0  0  0  0
   41.2540   23.1030   35.8810 H   0  0  0  0  0  0  0  0  0  0  0  0
   40.0150   22.7940   37.5690 C   0  0  0  0  0  0  0  0  0  0  0  0
   40.6980   22.0560   37.9640 H   0  0  0  0  0  0  0  0  0  0  0  0
   38.8430   23.1790   38.1810 C   0  0  0  0  0  3  0  0  0  0  0  0
   38.0350   24.1330   37.6000 C   0  0  0  0  0  3  0  0  0  0  0  0
  1  7  1  6  0  0  0
  1  2  1  0  0  0  0
  2  8  1  0  0  0  0
  2  3  1  0  0  0  0
  3 11  1  0  0  0  0
  3 10  1  0  0  0  0
  4 12  1  6  0  0  0
  4  3  1  0  0  0  0
  4 28  1  0  0  0  0
  5  4  1  0  0  0  0
  6  1  1  0  0  0  0
  6  5  1  0  0  0  0
  9  2  1  0  0  0  0
 13  5  1  0  0  0  0
 14  5  1  0  0  0  0
 15  6  1  0  0  0  0
 16  6  1  0  0  0  0
 17 23  1  0  0  0  0
 18  1  1  0  0  0  0
 18 17  2  0  0  0  0
 19 18  1  0  0  0  0
 20 19  2  0  0  0  0
 20 21  1  0  0  0  0
 21 22  2  0  0  0  0
 22 17  1  0  0  0  0
 24 19  1  0  0  0  0
 25 21  1  0  0  0  0
 26 27  1  0  0  0  0
 27 34  1  0  0  0  0
 28 29  1  0  0  0  0
 28 27  2  0  0  0  0
 29 31  2  0  0  0  0
 30 29  1  0  0  0  0
 31 32  1  0  0  0  0
 31 33  1  0  0  0  0
 34 33  2  0  0  0  0
M  END
>  <minimizedAffinity>
-5.1196084

$$$$

 OpenBabel03272506523D

 34 36  0  0  1  0  0  0  0  0999 V2000
   37.6370   26.8730   32.7230 C   0  0  1  0  0  0  0  0  0  0  0  0
   37.3610   28.1150   32.0080 C   0  0  0  0  0  0  0  0  0  0  0  0
   36.2280   28.9690   32.5040 C   0  0  0  0  0  0  0  0  0  0  0  0
   36.1060   29.0090   33.9910 C   0  0  2  0  0  0  0  0  0  0  0  0
   36.3590   27.7660   34.7410 C   0  0  0  0  0  0  0  0  0  0  0  0
   37.5740   27.0500   34.2170 C   0  0  0  0  0  0  0  0  0  0  0  0
   38.7280   26.6040   32.5510 H   0  0  0  0  0  0  0  0  0  0  0  0
   37.2900   28.0490   30.9200 H   0  0  0  0  0  0  0  0  0  0  0  0
   38.2740   28.7820   32.1580 H   0  0  0  0  0  0  0  0  0  0  0  0
   36.3810   30.0080   32.1410 H   0  0  0  0  0  0  0  0  0  0  0  0
   35.3050   28.6100   31.9970 H   0  0  0  0  0  0  0  0  0  0  0  0
   36.9660   29.6980   34.2980 H   0  0  0  0  0  0  0  0  0  0  0  0
   36.6370   28.0580   35.7980 H   0  0  0  0  0  0  0  0  0  0  0  0
   35.5740   27.0360   34.8570 H   0  0  0  0  0  0  0  0  0  0  0  0
   38.3890   27.8210   34.4050 H   0  0  0  0  0  0  0  0  0  0  0  0
   37.9070   26.2150   34.8160 H   0  0  0  0  0  0  0  0  0  0  0  0
   37.3100   24.3780   32.7090 C   0  0  0  0  0  0  0  0  0  0  0  0
   36.9320   25.6560   32.2570 C   0  0  0  0  0  0  0  0  0  0  0  0
   35.8770   25.7210   31.3670 C   0  0  0  0  0  0  0  0  0  0  0  0
   35.2590   24.5680   30.9710 N   0  0  0  0  0  0  0  0  0  0  0  0
   35.6570   23.3640   31.4310 C   0  0  0  0  0  0  0  0  0  0  0  0
   36.6920   23.2700   32.3090 N   0  0  0  0  0  0  0  0  0  0  0  0
   38.1180   24.2030   33.4040 H   0  0  0  0  0  0  0  0  0  0  0  0
   35.5100   26.6460   30.9620 H   0  0  0  0  0  0  0  0  0  0  0  0
   35.0840   22.5330   31.0400 H   0  0  0  0  0  0  0  0  0  0  0  0
   36.2830   31.4570   35.8910 Cl  0  0  0  0  0  0  0  0  0  0  0  0
   34.8290   30.8670   35.1690 C   0  0  0  0  0  0  0  0  0  0  0  0
   34.8860   29.7590   34.3490 C   0  0  0  0  0  0  0  0  0  0  0  0
   33.6210   29.4050   33.8580 C   0  0  0  0  0  0  0  0  0  0  0  0
   33.5870   28.5260   33.1940 H   0  0  0  0  0  0  0  0  0  0  0  0
   32.4240   30.0350   34.1180 C   0  0  0  0  0  0  0  0  0  0  0  0
   31.5210   29.6470   33.6670 H   0  0  0  0  0  0  0  0  0  0  0  0
   32.4720   31.1320   34.9490 C   0  0  0  0  0  3  0  0  0  0  0  0
   33.6740   31.5520   35.4780 C   0  0  0  0  0  3  0  0  0  0  0  0
  1  7  1  6  0  0  0
  1  6  1  0  0  0  0
  2  9  1  0  0  0  0
  2  3  1  0  0  0  0
  2  1  1  0  0  0  0
  3  4  1  0  0  0  0
  4 12  1  1  0  0  0
  4 28  1  0  0  0  0
  4  5  1  0  0  0  0
  5 14  1  0  0  0  0
  5 13  1  0  0  0  0
  6 15  1  0  0  0  0
  6  5  1  0  0  0  0
  6 16  1  0  0  0  0
  8  2  1  0  0  0  0
 10  3  1  0  0  0  0
 11  3  1  0  0  0  0
 17 23  1  0  0  0  0
 18 17  2  0  0  0  0
 18  1  1  0  0  0  0
 19 18  1  0  0  0  0
 20 19  2  0  0  0  0
 20 21  1  0  0  0  0
 21 22  2  0  0  0  0
 22 17  1  0  0  0  0
 24 19  1  0  0  0  0
 25 21  1  0  0  0  0
 27 34  1  0  0  0  0
 27 26  1  0  0  0  0
 28 27  2  0  0  0  0
 29 31  2  0  0  0  0
 29 28  1  0  0  0  0
 30 29  1  0  0  0  0
 31 33  1  0  0  0  0
 32 31  1  0  0  0  0
 33 34  2  0  0  0  0
M  END
>  <minimizedAffinity>
-5.10157204

$$$$

 OpenBabel03272506523D

 34 36  0  0  1  0  0  0  0  0999 V2000
   39.9010   24.0250   34.3340 C   0  0  1  0  0  0  0  0  0  0  0  0
   38.9700   23.8070   33.2330 C   0  0  0  0  0  0  0  0  0  0  0  0
   38.1430   24.9770   32.7760 C   0  0  0  0  0  0  0  0  0  0  0  0
   38.8750   26.2770   32.7890 C   0  0  2  0  0  0  0  0  0  0  0  0
   39.8090   26.5360   33.9000 C   0  0  0  0  0  0  0  0  0  0  0  0
   40.6490   25.3250   34.2000 C   0  0  0  0  0  0  0  0  0  0  0  0
   40.7310   23.2520   34.2510 H   0  0  0  0  0  0  0  0  0  0  0  0
   38.3170   22.9340   33.3070 H   0  0  0  0  0  0  0  0  0  0  0  0
   39.6050   23.5650   32.3170 H   0  0  0  0  0  0  0  0  0  0  0  0
   37.7980   24.7850   31.7370 H   0  0  0  0  0  0  0  0  0  0  0  0
   37.2210   24.9860   33.3980 H   0  0  0  0  0  0  0  0  0  0  0  0
   39.5530   26.1980   31.8710 H   0  0  0  0  0  0  0  0  0  0  0  0
   40.5510   27.3140   33.5460 H   0  0  0  0  0  0  0  0  0  0  0  0
   39.4400   26.9180   34.8380 H   0  0  0  0  0  0  0  0  0  0  0  0
   41.2040   25.1850   33.2160 H   0  0  0  0  0  0  0  0  0  0  0  0
   41.4580   25.4890   34.8970 H   0  0  0  0  0  0  0  0  0  0  0  0
   38.1180   24.2560   36.0960 C   0  0  0  0  0  0  0  0  0  0  0  0
   39.3890   23.7950   35.7060 C   0  0  0  0  0  0  0  0  0  0  0  0
   40.1320   23.1190   36.6560 C   0  0  0  0  0  0  0  0  0  0  0  0
   39.6120   22.9320   37.9060 N   0  0  0  0  0  0  0  0  0  0  0  0
   38.3880   23.3930   38.2350 C   0  0  0  0  0  0  0  0  0  0  0  0
   37.6350   24.0610   37.3190 N   0  0  0  0  0  0  0  0  0  0  0  0
   37.4490   24.7960   35.4410 H   0  0  0  0  0  0  0  0  0  0  0  0
   41.1120   22.7270   36.4610 H   0  0  0  0  0  0  0  0  0  0  0  0
   38.0970   23.1770   39.2550 H   0  0  0  0  0  0  0  0  0  0  0  0
   36.8070   27.2390   34.8930 Cl  0  0  0  0  0  0  0  0  0  0  0  0
   36.9740   27.8870   33.3010 C   0  0  0  0  0  0  0  0  0  0  0  0
   37.9290   27.3610   32.4570 C   0  0  0  0  0  0  0  0  0  0  0  0
   37.9230   27.9890   31.2020 C   0  0  0  0  0  0  0  0  0  0  0  0
   38.6620   27.6200   30.4720 H   0  0  0  0  0  0  0  0  0  0  0  0
   37.0970   29.0110   30.7900 C   0  0  0  0  0  0  0  0  0  0  0  0
   37.2070   29.3980   29.7880 H   0  0  0  0  0  0  0  0  0  0  0  0
   36.1760   29.4660   31.7070 C   0  0  0  0  0  3  0  0  0  0  0  0
   36.1100   28.9060   32.9650 C   0  0  0  0  0  3  0  0  0  0  0  0
  1  7  1  6  0  0  0
  1 18  1  0  0  0  0
  2  8  1  0  0  0  0
  2  1  1  0  0  0  0
  3  4  1  0  0  0  0
  3  2  1  0  0  0  0
  3 11  1  0  0  0  0
  4 12  1  6  0  0  0
  4  5  1  0  0  0  0
  5  6  1  0  0  0  0
  5 14  1  0  0  0  0
  6  1  1  0  0  0  0
  6 16  1  0  0  0  0
  9  2  1  0  0  0  0
 10  3  1  0  0  0  0
 13  5  1  0  0  0  0
 15  6  1  0  0  0  0
 17 22  1  0  0  0  0
 18 17  2  0  0  0  0
 18 19  1  0  0  0  0
 19 20  2  0  0  0  0
 20 21  1  0  0  0  0
 21 25  1  0  0  0  0
 22 21  2  0  0  0  0
 23 17  1  0  0  0  0
 24 19  1  0  0  0  0
 27 26  1  0  0  0  0
 28  4  1  0  0  0  0
 28 27  2  0  0  0  0
 29 28  1  0  0  0  0
 30 29  1  0  0  0  0
 31 29  2  0  0  0  0
 31 33  1  0  0  0  0
 32 31  1  0  0  0  0
 33 34  2  0  0  0  0
 34 27  1  0  0  0  0
M  END
>  <minimizedAffinity>
-5.06262875

$$$$

 OpenBabel03272506523D

 34 36  0  0  1  0  0  0  0  0999 V2000
   36.9030   22.3690   30.9310 C   0  0  1  0  0  0  0  0  0  0  0  0
   36.1210   23.5940   31.0660 C   0  0  0  0  0  0  0  0  0  0  0  0
   36.4310   24.4960   32.2270 C   0  0  0  0  0  0  0  0  0  0  0  0
   37.8850   24.5900   32.5490 C   0  0  2  0  0  0  0  0  0  0  0  0
   38.7000   23.3660   32.4420 C   0  0  0  0  0  0  0  0  0  0  0  0
   38.3690   22.5990   31.1910 C   0  0  0  0  0  0  0  0  0  0  0  0
   36.8910   22.0640   29.8360 H   0  0  0  0  0  0  0  0  0  0  0  0
   35.0360   23.4930   30.9900 H   0  0  0  0  0  0  0  0  0  0  0  0
   36.3750   24.2400   30.1600 H   0  0  0  0  0  0  0  0  0  0  0  0
   36.0620   25.5170   31.9930 H   0  0  0  0  0  0  0  0  0  0  0  0
   35.8130   24.1470   33.0840 H   0  0  0  0  0  0  0  0  0  0  0  0
   38.2880   25.2640   31.7180 H   0  0  0  0  0  0  0  0  0  0  0  0
   39.7760   23.6850   32.3010 H   0  0  0  0  0  0  0  0  0  0  0  0
   38.7280   22.6630   33.2590 H   0  0  0  0  0  0  0  0  0  0  0  0
   38.6440   23.3520   30.3840 H   0  0  0  0  0  0  0  0  0  0  0  0
   39.0320   21.7740   30.9700 H   0  0  0  0  0  0  0  0  0  0  0  0
   36.3260   19.9200   30.9370 C   0  0  0  0  0  0  0  0  0  0  0  0
   36.3820   21.1570   31.6050 C   0  0  0  0  0  0  0  0  0  0  0  0
   35.9320   21.1880   32.9120 C   0  0  0  0  0  0  0  0  0  0  0  0
   35.4630   20.0410   33.4880 N   0  0  0  0  0  0  0  0  0  0  0  0
   35.4280   18.8760   32.8080 C   0  0  0  0  0  0  0  0  0  0  0  0
   35.8650   18.8170   31.5200 N   0  0  0  0  0  0  0  0  0  0  0  0
   36.6480   19.7740   29.9170 H   0  0  0  0  0  0  0  0  0  0  0  0
   35.9320   22.0810   33.5090 H   0  0  0  0  0  0  0  0  0  0  0  0
   35.0350   18.0460   33.3800 H   0  0  0  0  0  0  0  0  0  0  0  0
   38.1030   27.6810   32.3910 Cl  0  0  0  0  0  0  0  0  0  0  0  0
   38.1470   26.7600   33.8510 C   0  0  0  0  0  0  0  0  0  0  0  0
   38.0510   25.3860   33.7820 C   0  0  0  0  0  0  0  0  0  0  0  0
   38.1170   24.7910   35.0510 C   0  0  0  0  0  0  0  0  0  0  0  0
   38.0460   23.6910   35.0760 H   0  0  0  0  0  0  0  0  0  0  0  0
   38.2590   25.4330   36.2610 C   0  0  0  0  0  0  0  0  0  0  0  0
   38.2950   24.8410   37.1650 H   0  0  0  0  0  0  0  0  0  0  0  0
   38.3470   26.8070   36.2240 C   0  0  0  0  0  3  0  0  0  0  0  0
   38.2920   27.4760   35.0190 C   0  0  0  0  0  3  0  0  0  0  0  0
  1  7  1  6  0  0  0
  1  2  1  0  0  0  0
  1  6  1  0  0  0  0
  1 18  1  0  0  0  0
  2  3  1  0  0  0  0
  3  4  1  0  0  0  0
  3 11  1  0  0  0  0
  4 12  1  6  0  0  0
  4 28  1  0  0  0  0
  5  4  1  0  0  0  0
  5 14  1  0  0  0  0
  6  5  1  0  0  0  0
  8  2  1  0  0  0  0
  9  2  1  0  0  0  0
 10  3  1  0  0  0  0
 13  5  1  0  0  0  0
 15  6  1  0  0  0  0
 16  6  1  0  0  0  0
 17 22  2  0  0  0  0
 17 18  1  0  0  0  0
 18 19  2  0  0  0  0
 19 20  1  0  0  0  0
 19 24  1  0  0  0  0
 21 25  1  0  0  0  0
 21 20  2  0  0  0  0
 22 21  1  0  0  0  0
 23 17  1  0  0  0  0
 26 27  1  0  0  0  0
 27 34  1  0  0  0  0
 28 27  2  0  0  0  0
 28 29  1  0  0  0  0
 29 30  1  0  0  0  0
 29 31  2  0  0  0  0
 31 32  1  0  0  0  0
 33 31  1  0  0  0  0
 34 33  2  0  0  0  0
M  END
>  <minimizedAffinity>
-4.99252272

$$$$

 OpenBabel03272506523D

 34 36  0  0  1  0  0  0  0  0999 V2000
   40.6380   26.8570   34.5550 C   0  0  1  0  0  0  0  0  0  0  0  0
   40.5110   27.2070   33.1450 C   0  0  0  0  0  0  0  0  0  0  0  0
   39.3280   26.6640   32.3940 C   0  0  0  0  0  0  0  0  0  0  0  0
   38.0670   26.6310   33.1930 C   0  0  2  0  0  0  0  0  0  0  0  0
   38.1590   26.2610   34.6170 C   0  0  0  0  0  0  0  0  0  0  0  0
   39.3220   26.9420   35.2840 C   0  0  0  0  0  0  0  0  0  0  0  0
   41.2550   27.6650   35.0640 H   0  0  0  0  0  0  0  0  0  0  0  0
   41.4010   27.0750   32.5250 H   0  0  0  0  0  0  0  0  0  0  0  0
   40.3460   28.3360   33.1070 H   0  0  0  0  0  0  0  0  0  0  0  0
   39.1530   27.2980   31.4980 H   0  0  0  0  0  0  0  0  0  0  0  0
   39.6240   25.6670   31.9980 H   0  0  0  0  0  0  0  0  0  0  0  0
   37.7480   27.7290   33.2120 H   0  0  0  0  0  0  0  0  0  0  0  0
   37.2470   26.6840   35.1370 H   0  0  0  0  0  0  0  0  0  0  0  0
   38.1800   25.2220   34.9050 H   0  0  0  0  0  0  0  0  0  0  0  0
   39.0450   28.0390   35.1570 H   0  0  0  0  0  0  0  0  0  0  0  0
   39.3590   26.8390   36.3590 H   0  0  0  0  0  0  0  0  0  0  0  0
   40.7340   24.4310   35.2160 C   0  0  0  0  0  0  0  0  0  0  0  0
   41.3960   25.6260   34.8800 C   0  0  0  0  0  0  0  0  0  0  0  0
   42.7780   25.5970   34.8640 C   0  0  0  0  0  0  0  0  0  0  0  0
   43.4290   24.4350   35.1680 N   0  0  0  0  0  0  0  0  0  0  0  0
   42.7520   23.3120   35.4850 C   0  0  0  0  0  0  0  0  0  0  0  0
   41.3910   23.3120   35.5080 N   0  0  0  0  0  0  0  0  0  0  0  0
   39.6600   24.3330   35.2610 H   0  0  0  0  0  0  0  0  0  0  0  0
   43.3780   26.4540   34.6200 H   0  0  0  0  0  0  0  0  0  0  0  0
   43.3870   22.4640   35.7050 H   0  0  0  0  0  0  0  0  0  0  0  0
   35.9300   28.3030   31.6870 Cl  0  0  0  0  0  0  0  0  0  0  0  0
   36.0230   26.5780   31.6800 C   0  0  0  0  0  0  0  0  0  0  0  0
   37.0190   25.9550   32.4020 C   0  0  0  0  0  0  0  0  0  0  0  0
   36.9450   24.5580   32.3010 C   0  0  0  0  0  0  0  0  0  0  0  0
   37.7110   23.9890   32.8530 H   0  0  0  0  0  0  0  0  0  0  0  0
   36.0210   23.8260   31.5870 C   0  0  0  0  0  0  0  0  0  0  0  0
   36.0870   22.7480   31.6010 H   0  0  0  0  0  0  0  0  0  0  0  0
   35.0660   24.5410   30.8990 C   0  0  0  0  0  3  0  0  0  0  0  0
   35.0630   25.9200   30.9430 C   0  0  0  0  0  3  0  0  0  0  0  0
  1 18  1  0  0  0  0
  1  7  1  1  0  0  0
  1  6  1  0  0  0  0
  2  1  1  0  0  0  0
  3  2  1  0  0  0  0
  3  4  1  0  0  0  0
  4 12  1  1  0  0  0
  4  5  1  0  0  0  0
  5 14  1  0  0  0  0
  5 13  1  0  0  0  0
  5  6  1  0  0  0  0
  6 16  1  0  0  0  0
  8  2  1  0  0  0  0
  9  2  1  0  0  0  0
 10  3  1  0  0  0  0
 11  3  1  0  0  0  0
 15  6  1  0  0  0  0
 17 23  1  0  0  0  0
 17 22  1  0  0  0  0
 18 17  2  0  0  0  0
 19 18  1  0  0  0  0
 19 20  2  0  0  0  0
 20 21  1  0  0  0  0
 21 22  2  0  0  0  0
 21 25  1  0  0  0  0
 24 19  1  0  0  0  0
 27 26  1  0  0  0  0
 27 28  1  0  0  0  0
 28  4  1  0  0  0  0
 29 28  2  0  0  0  0
 29 30  1  0  0  0  0
 31 32  1  0  0  0  0
 31 29  1  0  0  0  0
 33 34  1  0  0  0  0
 33 31  2  0  0  0  0
 34 27  2  0  0  0  0
M  END
>  <minimizedAffinity>
-4.98059607

$$$$

 OpenBabel03272506523D

 34 36  0  0  1  0  0  0  0  0999 V2000
   37.6450   26.7450   33.0530 C   0  0  1  0  0  0  0  0  0  0  0  0
   37.2800   25.3320   33.0270 C   0  0  0  0  0  0  0  0  0  0  0  0
   38.0600   24.3940   33.9050 C   0  0  0  0  0  0  0  0  0  0  0  0
   38.4230   24.9690   35.2340 C   0  0  2  0  0  0  0  0  0  0  0  0
   38.8150   26.3890   35.2910 C   0  0  0  0  0  0  0  0  0  0  0  0
   37.9030   27.2410   34.4530 C   0  0  0  0  0  0  0  0  0  0  0  0
   36.7330   27.3480   32.7410 H   0  0  0  0  0  0  0  0  0  0  0  0
   37.1730   24.8720   32.0430 H   0  0  0  0  0  0  0  0  0  0  0  0
   36.2230   25.2640   33.4500 H   0  0  0  0  0  0  0  0  0  0  0  0
   37.4520   23.4800   34.0780 H   0  0  0  0  0  0  0  0  0  0  0  0
   38.9420   24.0560   33.3170 H   0  0  0  0  0  0  0  0  0  0  0  0
   37.4340   24.9310   35.8070 H   0  0  0  0  0  0  0  0  0  0  0  0
   38.6410   26.7460   36.3510 H   0  0  0  0  0  0  0  0  0  0  0  0
   39.8290   26.6780   35.0680 H   0  0  0  0  0  0  0  0  0  0  0  0
   36.9000   27.0670   34.9610 H   0  0  0  0  0  0  0  0  0  0  0  0
   38.0360   28.3070   34.5690 H   0  0  0  0  0  0  0  0  0  0  0  0
   38.3090   27.8270   30.8810 C   0  0  0  0  0  0  0  0  0  0  0  0
   38.6710   27.1950   32.0850 C   0  0  0  0  0  0  0  0  0  0  0  0
   40.0220   27.0180   32.3210 C   0  0  0  0  0  0  0  0  0  0  0  0
   40.9280   27.4540   31.3970 N   0  0  0  0  0  0  0  0  0  0  0  0
   40.5350   28.0550   30.2540 C   0  0  0  0  0  0  0  0  0  0  0  0
   39.2110   28.2430   29.9960 N   0  0  0  0  0  0  0  0  0  0  0  0
   37.2880   28.0190   30.5880 H   0  0  0  0  0  0  0  0  0  0  0  0
   40.4040   26.5480   33.2080 H   0  0  0  0  0  0  0  0  0  0  0  0
   41.3510   28.3520   29.6100 H   0  0  0  0  0  0  0  0  0  0  0  0
   37.8360   24.2170   38.1870 Cl  0  0  0  0  0  0  0  0  0  0  0  0
   39.1410   23.5890   37.2470 C   0  0  0  0  0  0  0  0  0  0  0  0
   39.2970   24.0140   35.9440 C   0  0  0  0  0  0  0  0  0  0  0  0
   40.4090   23.4200   35.3280 C   0  0  0  0  0  0  0  0  0  0  0  0
   40.5990   23.7120   34.2830 H   0  0  0  0  0  0  0  0  0  0  0  0
   41.2820   22.5140   35.8890 C   0  0  0  0  0  0  0  0  0  0  0  0
   42.0990   22.1380   35.2910 H   0  0  0  0  0  0  0  0  0  0  0  0
   41.0400   22.1520   37.1960 C   0  0  0  0  0  3  0  0  0  0  0  0
   39.9690   22.6880   37.8800 C   0  0  0  0  0  3  0  0  0  0  0  0
  1  7  1  6  0  0  0
  1  6  1  0  0  0  0
  2  1  1  0  0  0  0
  2  9  1  0  0  0  0
  2  3  1  0  0  0  0
  3 10  1  0  0  0  0
  3  4  1  0  0  0  0
  4  5  1  0  0  0  0
  4 12  1  1  0  0  0
  4 28  1  0  0  0  0
  5 13  1  0  0  0  0
  6 16  1  0  0  0  0
  6 15  1  0  0  0  0
  6  5  1  0  0  0  0
  8  2  1  0  0  0  0
 11  3  1  0  0  0  0
 14  5  1  0  0  0  0
 17 18  1  0  0  0  0
 18 19  2  0  0  0  0
 18  1  1  0  0  0  0
 19 24  1  0  0  0  0
 20 19  1  0  0  0  0
 21 20  2  0  0  0  0
 22 21  1  0  0  0  0
 22 17  2  0  0  0  0
 23 17  1  0  0  0  0
 25 21  1  0  0  0  0
 27 34  1  0  0  0  0
 27 26  1  0  0  0  0
 28 27  2  0  0  0  0
 29 31  2  0  0  0  0
 29 28  1  0  0  0  0
 30 29  1  0  0  0  0
 31 33  1  0  0  0  0
 32 31  1  0  0  0  0
 33 34  2  0  0  0  0
M  END
>  <minimizedAffinity>
-4.97606134

$$$$
