
     RDKit          3D

 48 52  0  0  0  0  0  0  0  0999 V2000
   38.0860   31.3001   47.7780 C   0  0  0  0  0  0  0  0  0  0  0  0
   37.0910   31.3080   48.7349 C   0  0  0  0  0  0  0  0  0  0  0  0
   37.1250   32.4103   49.5893 C   0  0  0  0  0  0  0  0  0  0  0  0
   38.0916   33.4117   49.4715 C   0  0  0  0  0  0  0  0  0  0  0  0
   39.0699   33.3095   48.4547 C   0  0  0  0  0  0  0  0  0  0  0  0
   39.0514   32.2167   47.5932 C   0  0  0  0  0  0  0  0  0  0  0  0
   34.9642   30.3152   48.0486 C   0  0  0  0  0  0  0  0  0  0  0  0
   36.1005   30.2900   48.8621 C   0  0  0  0  0  0  0  0  0  0  0  0
   36.2041   29.2376   49.7806 C   0  0  0  0  0  0  0  0  0  0  0  0
   35.2283   28.3109   49.8447 N   0  0  0  0  0  0  0  0  0  0  0  0
   34.1337   28.3838   49.0220 C   0  0  0  0  0  0  0  0  0  0  0  0
   34.0107   29.3697   48.1433 N   0  0  0  0  0  0  0  0  0  0  0  0
   37.4019   29.1676   50.6730 C   0  0  0  0  0  0  0  0  0  0  0  0
   38.1392   30.2364   46.8714 O   0  0  0  0  0  0  0  0  0  0  0  0
   40.0344   32.1896   46.6324 O   0  0  0  0  0  0  0  0  0  0  0  0
   40.5662   31.1831   44.4140 C   0  0  0  0  0  0  0  0  0  0  0  0
   39.8564   31.9855   45.2869 C   0  0  0  0  0  0  0  0  0  0  0  0
   38.7869   32.7267   44.7964 C   0  0  0  0  0  0  0  0  0  0  0  0
   38.4326   32.6643   43.4460 C   0  0  0  0  0  0  0  0  0  0  0  0
   37.4782   33.2429   42.6883 N   0  0  0  0  0  0  0  0  0  0  0  0
   37.5921   32.8194   41.4111 C   0  0  0  0  0  0  0  0  0  0  0  0
   38.6441   31.9551   41.3718 N   0  0  0  0  0  0  0  0  0  0  0  0
   39.1636   31.8546   42.6114 C   0  0  0  0  0  0  0  0  0  0  0  0
   40.2249   31.1163   43.0873 C   0  0  0  0  0  0  0  0  0  0  0  0
   36.3576   32.4541   50.3575 H   0  0  0  0  0  0  0  0  0  0  0  0
   38.1002   34.2631   50.1484 H   0  0  0  0  0  0  0  0  0  0  0  0
   39.7985   34.1084   48.4015 H   0  0  0  0  0  0  0  0  0  0  0  0
   34.8507   31.1131   47.3278 H   0  0  0  0  0  0  0  0  0  0  0  0
   33.3710   27.6166   49.1066 H   0  0  0  0  0  0  0  0  0  0  0  0
   37.2748   28.3302   51.3639 H   0  0  0  0  0  0  0  0  0  0  0  0
   37.5528   30.1247   51.2080 H   0  0  0  0  0  0  0  0  0  0  0  0
   38.2543   28.9004   50.0119 H   0  0  0  0  0  0  0  0  0  0  0  0
   37.6665   30.2808   45.9773 H   0  0  0  0  0  0  0  0  0  0  0  0
   41.3696   30.6515   44.8797 H   0  0  0  0  0  0  0  0  0  0  0  0
   38.1508   33.3910   45.3673 H   0  0  0  0  0  0  0  0  0  0  0  0
   36.7706   33.9042   43.0233 H   0  0  0  0  0  0  0  0  0  0  0  0
   36.9690   33.1060   40.5648 H   0  0  0  0  0  0  0  0  0  0  0  0
   39.0857   28.4038   42.9950 Cl  0  0  0  0  0  0  0  0  0  0  0  0
   40.5008   28.9720   42.1343 C   0  0  0  0  0  0  0  0  0  0  0  0
   41.0040   30.2550   42.2046 C   0  0  0  0  0  0  0  0  0  0  0  0
   42.1363   30.6048   41.4794 C   0  0  0  0  0  0  0  0  0  0  0  0
   42.4538   31.6240   41.5967 H   0  0  0  0  0  0  0  0  0  0  0  0
   42.7260   29.6314   40.6993 C   0  0  0  0  0  0  0  0  0  0  0  0
   43.6091   29.9910   40.1639 H   0  0  0  0  0  0  0  0  0  0  0  0
   42.2354   28.3447   40.6183 C   0  0  0  0  0  0  0  0  0  0  0  0
   41.1040   28.0103   41.3483 C   0  0  0  0  0  0  0  0  0  0  0  0
   42.7475   27.6296   39.9862 H   0  0  0  0  0  0  0  0  0  0  0  0
   40.7562   26.9798   41.2496 H   0  0  0  0  0  0  0  0  0  0  0  0
  1  2  2  0
  2  8  1  0
  2  3  1  0
  4  3  2  0
  5  4  1  0
  6  1  1  0
  6  5  2  0
  7 12  2  0
  7  8  1  0
  8  9  2  0
  9 10  1  0
  9 13  1  0
 11 10  2  0
 12 11  1  0
 14  1  1  0
 15  6  1  0
 16 17  2  0
 17 15  1  0
 18 17  1  0
 19 18  2  0
 20 19  1  0
 21 20  1  0
 22 21  2  0
 22 23  1  0
 23 24  2  0
 23 19  1  0
 24 16  1  0
  3 25  1  0
  4 26  1  0
  5 27  1  0
  7 28  1  0
 11 29  1  0
 13 30  1  0
 13 31  1  0
 13 32  1  0
 14 33  1  0
 16 34  1  0
 18 35  1  0
 20 36  1  0
 21 37  1  0
 38 39  1  0
 39 40  2  0
 40 41  1  0
 41 42  1  0
 41 43  2  0
 43 44  1  0
 43 45  1  0
 45 46  2  0
 46 39  1  0
 45 47  1  0
 46 48  1  0
 24 40  1  0
M  ISO  8  25  14  26  14  27  14  28  14  29  14  30   8  31   8  32   8
M  ISO  7  33   3  34  14  35  14  36   9  37  14  42  15  44  16
M  END
>  <DihAtoms>  (1) 
22,23,39,38

>  <DihDeg>  (1) 
-90.00021489523061

$$$$
