REMARK  Name = 
REMARK  2 active torsions:
REMARK  status: ('A' for Active; 'I' for Inactive)
REMARK    1  A    between atoms: C_2  and  C_7
REMARK    2  A    between atoms: C_10  and  C_28
REMARK                            x       y       z     vdW  Elec       q    Type
REMARK                         _______ _______ _______ _____ _____    ______ ____
ROOT
ATOM      1  C   UNL     1      34.490  30.190  49.038  0.00  0.00    +0.000 C 
ATOM      2  C   UNL     1      34.235  30.327  47.608  0.00  0.00    +0.000 C 
ATOM      3  C   UNL     1      34.434  29.113  46.744  0.00  0.00    +0.000 C 
ATOM      4  C   UNL     1      33.999  27.837  47.384  0.00  0.00    +0.000 C 
ATOM      5  C   UNL     1      34.260  27.659  48.824  0.00  0.00    +0.000 C 
ATOM      6  C   UNL     1      33.931  28.907  49.596  0.00  0.00    +0.000 C 
ATOM      7  H   UNL     1      33.881  30.982  49.581  0.00  0.00    +0.000 HD
ATOM      8  H   UNL     1      34.694  31.183  47.108  0.00  0.00    +0.000 HD
ATOM      9  H   UNL     1      33.120  30.543  47.499  0.00  0.00    +0.000 HD
ATOM     10  H   UNL     1      33.853  29.245  45.806  0.00  0.00    +0.000 HD
ATOM     11  H   UNL     1      35.502  29.107  46.433  0.00  0.00    +0.000 HD
ATOM     12  H   UNL     1      32.859  27.892  47.314  0.00  0.00    +0.000 HD
ATOM     13  H   UNL     1      33.528  26.887  49.209  0.00  0.00    +0.000 HD
ATOM     14  H   UNL     1      35.224  27.312  49.159  0.00  0.00    +0.000 HD
ATOM     15  H   UNL     1      32.818  29.016  49.387  0.00  0.00    +0.000 HD
ATOM     16  H   UNL     1      33.952  28.800  50.671  0.00  0.00    +0.000 HD
ENDROOT
BRANCH   1  18
ATOM     17  C   UNL     1      36.762  31.227  48.730  0.00  0.00    +0.000 A 
ATOM     18  C   UNL     1      35.867  30.470  49.508  0.00  0.00    +0.000 A 
ATOM     19  C   UNL     1      36.329  30.005  50.725  0.00  0.00    +0.000 A 
ATOM     20  N   UNL     1      37.607  30.294  51.113  0.00  0.00    +0.000 NA
ATOM     21  C   UNL     1      38.431  31.024  50.333  0.00  0.00    +0.000 A 
ATOM     22  N   UNL     1      38.002  31.495  49.130  0.00  0.00    +0.000 NA
ATOM     23  H   UNL     1      36.514  31.642  47.764  0.00  0.00    +0.000 HD
ATOM     24  H   UNL     1      35.727  29.419  51.394  0.00  0.00    +0.000 HD
ATOM     25  H   UNL     1      39.414  31.180  50.757  0.00  0.00    +0.000 HD
ENDBRANCH   1  18
BRANCH   4  28
ATOM     26 CL   UNL     1      31.880  25.709  46.601  0.00  0.00    +0.000 Cl
ATOM     27  C   UNL     1      33.524  25.710  46.072  0.00  0.00    +0.000 A 
ATOM     28  C   UNL     1      34.369  26.711  46.503  0.00  0.00    +0.000 A 
ATOM     29  C   UNL     1      35.667  26.557  45.994  0.00  0.00    +0.000 A 
ATOM     30  H   UNL     1      36.401  27.322  46.296  0.00  0.00    +0.000 HD
ATOM     31  C   UNL     1      36.118  25.557  45.161  0.00  0.00    +0.000 A 
ATOM     32  H   UNL     1      37.152  25.566  44.847  0.00  0.00    +0.000 HD
ATOM     33  C   UNL     1      35.197  24.604  44.787  0.00  0.00    +0.000 A 
ATOM     34  C   UNL     1      33.897  24.676  45.241  0.00  0.00    +0.000 A 
ENDBRANCH   4  28
TORSDOF 2
