
 OpenBabel03262520183D

 18 19  0  0  0  0  0  0  0  0999 V2000
   36.7350   27.9430   33.1390 C   0  0  0  0  0  0  0  0  0  0  0  0
   36.1210   28.6320   34.1930 C   0  0  0  0  0  0  0  0  0  0  0  0
   35.5770   29.9010   34.0150 C   0  0  0  0  0  0  0  0  0  0  0  0
   35.6810   30.4200   32.7660 N   0  0  0  0  0  0  0  0  0  0  0  0
   36.2700   29.7550   31.7570 C   0  0  0  0  0  0  0  0  0  0  0  0
   36.7930   28.5320   31.9350 N   0  0  0  0  0  0  0  0  0  0  0  0
   37.1520   26.9570   33.2970 H   0  0  0  0  0  0  0  0  0  0  0  0
   36.0790   28.1590   35.1410 H   0  0  0  0  0  0  0  0  0  0  0  0
   36.2620   30.3260   30.8200 H   0  0  0  0  0  0  0  0  0  0  0  0
   32.6770   29.3860   34.2970 Cl  0  0  0  0  0  0  0  0  0  0  0  0
   33.6010   30.4720   35.2980 C   0  0  0  0  0  0  0  0  0  0  0  0
   34.9320   30.6420   35.0900 C   0  0  0  0  0  0  0  0  0  0  0  0
   35.5760   31.5210   35.9310 C   0  0  0  0  0  0  0  0  0  0  0  0
   36.6350   31.6850   35.7990 H   0  0  0  0  0  0  0  0  0  0  0  0
   34.9710   32.2130   36.9370 C   0  0  0  0  0  0  0  0  0  0  0  0
   35.4880   32.9010   37.5910 H   0  0  0  0  0  0  0  0  0  0  0  0
   33.6220   32.0200   37.1250 C   0  0  0  0  0  3  0  0  0  0  0  0
   32.9140   31.1430   36.3040 C   0  0  0  0  0  3  0  0  0  0  0  0
  1  7  1  0  0  0  0
  1  2  1  0  0  0  0
  2  8  1  0  0  0  0
  3  2  2  0  0  0  0
  3 12  1  0  0  0  0
  4  3  1  0  0  0  0
  5  6  1  0  0  0  0
  5  4  2  0  0  0  0
  6  1  2  0  0  0  0
  9  5  1  0  0  0  0
 10 11  1  0  0  0  0
 11 18  1  0  0  0  0
 12 11  2  0  0  0  0
 12 13  1  0  0  0  0
 13 15  2  0  0  0  0
 14 13  1  0  0  0  0
 15 17  1  0  0  0  0
 15 16  1  0  0  0  0
 18 17  2  0  0  0  0
M  END
>  <minimizedAffinity>
-4.0929966

$$$$

 OpenBabel03262520183D

 18 19  0  0  0  0  0  0  0  0999 V2000
   39.0830   22.9630   37.9960 C   0  0  0  0  0  0  0  0  0  0  0  0
   38.4320   24.0030   37.3190 C   0  0  0  0  0  0  0  0  0  0  0  0
   38.9620   24.5600   36.1580 C   0  0  0  0  0  0  0  0  0  0  0  0
   40.1370   24.0350   35.7320 N   0  0  0  0  0  0  0  0  0  0  0  0
   40.7580   23.0380   36.3840 C   0  0  0  0  0  0  0  0  0  0  0  0
   40.2430   22.5040   37.5020 N   0  0  0  0  0  0  0  0  0  0  0  0
   38.6560   22.5430   38.8960 H   0  0  0  0  0  0  0  0  0  0  0  0
   37.5160   24.3600   37.7150 H   0  0  0  0  0  0  0  0  0  0  0  0
   41.6950   22.7390   35.8960 H   0  0  0  0  0  0  0  0  0  0  0  0
   37.8300   23.7760   33.5400 Cl  0  0  0  0  0  0  0  0  0  0  0  0
   37.7580   25.3770   34.2190 C   0  0  0  0  0  0  0  0  0  0  0  0
   38.3090   25.6410   35.4320 C   0  0  0  0  0  0  0  0  0  0  0  0
   38.2030   26.9370   35.8840 C   0  0  0  0  0  0  0  0  0  0  0  0
   38.6280   27.1880   36.8450 H   0  0  0  0  0  0  0  0  0  0  0  0
   37.5910   27.9470   35.2040 C   0  0  0  0  0  0  0  0  0  0  0  0
   37.5150   28.9600   35.5710 H   0  0  0  0  0  0  0  0  0  0  0  0
   37.0410   27.6510   33.9780 C   0  0  0  0  0  3  0  0  0  0  0  0
   37.1180   26.3550   33.4650 C   0  0  0  0  0  3  0  0  0  0  0  0
  1  7  1  0  0  0  0
  2  8  1  0  0  0  0
  2  1  2  0  0  0  0
  3  2  1  0  0  0  0
  4  3  2  0  0  0  0
  4  5  1  0  0  0  0
  5  6  2  0  0  0  0
  6  1  1  0  0  0  0
  9  5  1  0  0  0  0
 10 11  1  0  0  0  0
 11 12  1  0  0  0  0
 12 13  2  0  0  0  0
 12  3  1  0  0  0  0
 13 14  1  0  0  0  0
 15 16  1  0  0  0  0
 15 13  1  0  0  0  0
 17 15  2  0  0  0  0
 18 17  1  0  0  0  0
 18 11  2  0  0  0  0
M  END
>  <minimizedAffinity>
-4.07127619

$$$$

 OpenBabel03262520183D

 18 19  0  0  0  0  0  0  0  0999 V2000
   39.0530   27.1100   33.3060 C   0  0  0  0  0  0  0  0  0  0  0  0
   39.1940   26.4690   34.5440 C   0  0  0  0  0  0  0  0  0  0  0  0
   38.5230   25.2840   34.8310 C   0  0  0  0  0  0  0  0  0  0  0  0
   37.7320   24.7970   33.8420 N   0  0  0  0  0  0  0  0  0  0  0  0
   37.6000   25.4140   32.6560 C   0  0  0  0  0  0  0  0  0  0  0  0
   38.2500   26.5570   32.3850 N   0  0  0  0  0  0  0  0  0  0  0  0
   39.5840   28.0310   33.1010 H   0  0  0  0  0  0  0  0  0  0  0  0
   39.8310   26.9120   35.2660 H   0  0  0  0  0  0  0  0  0  0  0  0
   36.9220   24.8790   31.9800 H   0  0  0  0  0  0  0  0  0  0  0  0
   40.5760   23.1540   34.8810 Cl  0  0  0  0  0  0  0  0  0  0  0  0
   39.5660   23.6000   36.2280 C   0  0  0  0  0  0  0  0  0  0  0  0
   38.6490   24.5940   36.1070 C   0  0  0  0  0  0  0  0  0  0  0  0
   37.8980   24.8730   37.2260 C   0  0  0  0  0  0  0  0  0  0  0  0
   37.1570   25.6580   37.1720 H   0  0  0  0  0  0  0  0  0  0  0  0
   38.0170   24.2270   38.4200 C   0  0  0  0  0  0  0  0  0  0  0  0
   37.4200   24.4560   39.2920 H   0  0  0  0  0  0  0  0  0  0  0  0
   38.9540   23.2250   38.5140 C   0  0  0  0  0  3  0  0  0  0  0  0
   39.7460   22.8950   37.4130 C   0  0  0  0  0  3  0  0  0  0  0  0
  1  2  1  0  0  0  0
  2  3  2  0  0  0  0
  2  8  1  0  0  0  0
  3 12  1  0  0  0  0
  4  3  1  0  0  0  0
  5  4  2  0  0  0  0
  6  5  1  0  0  0  0
  6  1  2  0  0  0  0
  7  1  1  0  0  0  0
  9  5  1  0  0  0  0
 10 11  1  0  0  0  0
 11 18  1  0  0  0  0
 12 11  2  0  0  0  0
 12 13  1  0  0  0  0
 13 15  2  0  0  0  0
 14 13  1  0  0  0  0
 15 17  1  0  0  0  0
 15 16  1  0  0  0  0
 18 17  2  0  0  0  0
M  END
>  <minimizedAffinity>
-4.0227828

$$$$

 OpenBabel03262520183D

 18 19  0  0  0  0  0  0  0  0999 V2000
   37.7530   27.5240   35.2760 C   0  0  0  0  0  0  0  0  0  0  0  0
   38.6100   26.5710   35.8420 C   0  0  0  0  0  0  0  0  0  0  0  0
   38.7720   25.3090   35.2770 C   0  0  0  0  0  0  0  0  0  0  0  0
   38.0510   25.0660   34.1540 N   0  0  0  0  0  0  0  0  0  0  0  0
   37.2300   25.9830   33.6140 C   0  0  0  0  0  0  0  0  0  0  0  0
   37.0780   27.1980   34.1630 N   0  0  0  0  0  0  0  0  0  0  0  0
   37.6400   28.5000   35.7290 H   0  0  0  0  0  0  0  0  0  0  0  0
   39.1400   26.8360   36.7210 H   0  0  0  0  0  0  0  0  0  0  0  0
   36.7300   25.6140   32.7100 H   0  0  0  0  0  0  0  0  0  0  0  0
   37.5870   23.7330   37.4820 Cl  0  0  0  0  0  0  0  0  0  0  0  0
   39.2000   23.5240   36.8600 C   0  0  0  0  0  0  0  0  0  0  0  0
   39.6550   24.2990   35.8410 C   0  0  0  0  0  0  0  0  0  0  0  0
   40.9430   24.0590   35.4190 C   0  0  0  0  0  0  0  0  0  0  0  0
   41.3440   24.6530   34.6110 H   0  0  0  0  0  0  0  0  0  0  0  0
   41.7680   23.1120   35.9480 C   0  0  0  0  0  0  0  0  0  0  0  0
   42.7780   22.9350   35.6070 H   0  0  0  0  0  0  0  0  0  0  0  0
   41.2800   22.3420   36.9780 C   0  0  0  0  0  3  0  0  0  0  0  0
   39.9830   22.5380   37.4510 C   0  0  0  0  0  3  0  0  0  0  0  0
  1  7  1  0  0  0  0
  1  2  1  0  0  0  0
  2  8  1  0  0  0  0
  3 12  1  0  0  0  0
  3  2  2  0  0  0  0
  4  3  1  0  0  0  0
  5  4  2  0  0  0  0
  5  6  1  0  0  0  0
  6  1  2  0  0  0  0
  9  5  1  0  0  0  0
 11 18  1  0  0  0  0
 11 10  1  0  0  0  0
 12 11  2  0  0  0  0
 13 12  1  0  0  0  0
 13 15  2  0  0  0  0
 14 13  1  0  0  0  0
 15 17  1  0  0  0  0
 16 15  1  0  0  0  0
 17 18  2  0  0  0  0
M  END
>  <minimizedAffinity>
-4.00628471

$$$$

 OpenBabel03262520183D

 18 19  0  0  0  0  0  0  0  0999 V2000
   39.9550   22.9920   37.1610 C   0  0  0  0  0  0  0  0  0  0  0  0
   39.6770   23.6540   35.9570 C   0  0  0  0  0  0  0  0  0  0  0  0
   38.4920   24.3610   35.7720 C   0  0  0  0  0  0  0  0  0  0  0  0
   37.6340   24.3650   36.8230 N   0  0  0  0  0  0  0  0  0  0  0  0
   37.9060   23.7290   37.9750 C   0  0  0  0  0  0  0  0  0  0  0  0
   39.0500   23.0500   38.1480 N   0  0  0  0  0  0  0  0  0  0  0  0
   40.8820   22.4480   37.2860 H   0  0  0  0  0  0  0  0  0  0  0  0
   40.3980   23.6040   35.1820 H   0  0  0  0  0  0  0  0  0  0  0  0
   37.1010   23.8400   38.7130 H   0  0  0  0  0  0  0  0  0  0  0  0
   38.8800   27.2920   35.8780 Cl  0  0  0  0  0  0  0  0  0  0  0  0
   38.3210   26.4080   34.4850 C   0  0  0  0  0  0  0  0  0  0  0  0
   38.1740   25.0590   34.5350 C   0  0  0  0  0  0  0  0  0  0  0  0
   37.7260   24.4500   33.3840 C   0  0  0  0  0  0  0  0  0  0  0  0
   37.5950   23.3780   33.3810 H   0  0  0  0  0  0  0  0  0  0  0  0
   37.4290   25.1050   32.2260 C   0  0  0  0  0  0  0  0  0  0  0  0
   37.0780   24.6140   31.3300 H   0  0  0  0  0  0  0  0  0  0  0  0
   37.5880   26.4710   32.2060 C   0  0  0  0  0  3  0  0  0  0  0  0
   38.0380   27.1460   33.3410 C   0  0  0  0  0  3  0  0  0  0  0  0
  1  7  1  0  0  0  0
  1  6  1  0  0  0  0
  2  1  2  0  0  0  0
  3  2  1  0  0  0  0
  3  4  2  0  0  0  0
  4  5  1  0  0  0  0
  5  6  2  0  0  0  0
  5  9  1  0  0  0  0
  8  2  1  0  0  0  0
 11 12  1  0  0  0  0
 11 10  1  0  0  0  0
 12  3  1  0  0  0  0
 13 12  2  0  0  0  0
 14 13  1  0  0  0  0
 15 13  1  0  0  0  0
 16 15  1  0  0  0  0
 17 15  2  0  0  0  0
 17 18  1  0  0  0  0
 18 11  2  0  0  0  0
M  END
>  <minimizedAffinity>
-3.98402739

$$$$

 OpenBabel03262520183D

 18 19  0  0  0  0  0  0  0  0999 V2000
   35.7520   25.8170   31.3050 C   0  0  0  0  0  0  0  0  0  0  0  0
   35.5640   24.4400   31.1240 C   0  0  0  0  0  0  0  0  0  0  0  0
   36.2770   23.5040   31.8680 C   0  0  0  0  0  0  0  0  0  0  0  0
   37.1560   24.0090   32.7700 N   0  0  0  0  0  0  0  0  0  0  0  0
   37.3320   25.3300   32.9400 C   0  0  0  0  0  0  0  0  0  0  0  0
   36.6430   26.2270   32.2200 N   0  0  0  0  0  0  0  0  0  0  0  0
   35.1890   26.5290   30.7170 H   0  0  0  0  0  0  0  0  0  0  0  0
   34.8590   24.1240   30.3990 H   0  0  0  0  0  0  0  0  0  0  0  0
   38.0800   25.5550   33.7110 H   0  0  0  0  0  0  0  0  0  0  0  0
   38.3830   22.1870   30.2620 Cl  0  0  0  0  0  0  0  0  0  0  0  0
   37.0210   21.3740   30.9810 C   0  0  0  0  0  0  0  0  0  0  0  0
   36.1040   22.0680   31.7040 C   0  0  0  0  0  0  0  0  0  0  0  0
   35.0630   21.3380   32.2320 C   0  0  0  0  0  0  0  0  0  0  0  0
   34.3120   21.8510   32.8140 H   0  0  0  0  0  0  0  0  0  0  0  0
   34.9030   19.9930   32.0780 C   0  0  0  0  0  0  0  0  0  0  0  0
   34.0800   19.4320   32.4980 H   0  0  0  0  0  0  0  0  0  0  0  0
   35.8480   19.3170   31.3410 C   0  0  0  0  0  3  0  0  0  0  0  0
   36.9260   20.0020   30.7790 C   0  0  0  0  0  3  0  0  0  0  0  0
  1  6  1  0  0  0  0
  2  1  2  0  0  0  0
  2  3  1  0  0  0  0
  3  4  2  0  0  0  0
  4  5  1  0  0  0  0
  5  9  1  0  0  0  0
  6  5  2  0  0  0  0
  7  1  1  0  0  0  0
  8  2  1  0  0  0  0
 10 11  1  0  0  0  0
 11 12  1  0  0  0  0
 12  3  1  0  0  0  0
 12 13  2  0  0  0  0
 13 14  1  0  0  0  0
 15 13  1  0  0  0  0
 15 16  1  0  0  0  0
 17 15  2  0  0  0  0
 18 11  2  0  0  0  0
 18 17  1  0  0  0  0
M  END
>  <minimizedAffinity>
-3.95247841

$$$$

 OpenBabel03262520183D

 18 19  0  0  0  0  0  0  0  0999 V2000
   37.0080   25.7970   32.5110 C   0  0  0  0  0  0  0  0  0  0  0  0
   36.9930   24.3960   32.4940 C   0  0  0  0  0  0  0  0  0  0  0  0
   36.0990   23.6860   31.6970 C   0  0  0  0  0  0  0  0  0  0  0  0
   35.2530   24.4350   30.9470 N   0  0  0  0  0  0  0  0  0  0  0  0
   35.2710   25.7780   30.9650 C   0  0  0  0  0  0  0  0  0  0  0  0
   36.1350   26.4560   31.7350 N   0  0  0  0  0  0  0  0  0  0  0  0
   37.7110   26.3310   33.1370 H   0  0  0  0  0  0  0  0  0  0  0  0
   37.6870   23.8820   33.1100 H   0  0  0  0  0  0  0  0  0  0  0  0
   34.5180   26.2150   30.2960 H   0  0  0  0  0  0  0  0  0  0  0  0
   38.3690   22.4320   30.2740 Cl  0  0  0  0  0  0  0  0  0  0  0  0
   37.0600   21.5650   31.0270 C   0  0  0  0  0  0  0  0  0  0  0  0
   36.0590   22.2320   31.6580 C   0  0  0  0  0  0  0  0  0  0  0  0
   35.0690   21.4590   32.2210 C   0  0  0  0  0  0  0  0  0  0  0  0
   34.2550   21.9510   32.7340 H   0  0  0  0  0  0  0  0  0  0  0  0
   35.0340   20.0970   32.1840 C   0  0  0  0  0  0  0  0  0  0  0  0
   34.2500   19.5020   32.6310 H   0  0  0  0  0  0  0  0  0  0  0  0
   36.0600   19.4480   31.5380 C   0  0  0  0  0  3  0  0  0  0  0  0
   37.0930   20.1760   30.9470 C   0  0  0  0  0  3  0  0  0  0  0  0
  1  7  1  0  0  0  0
  2  1  1  0  0  0  0
  2  8  1  0  0  0  0
  3  2  2  0  0  0  0
  4  5  2  0  0  0  0
  4  3  1  0  0  0  0
  5  6  1  0  0  0  0
  6  1  2  0  0  0  0
  9  5  1  0  0  0  0
 10 11  1  0  0  0  0
 11 12  1  0  0  0  0
 12  3  1  0  0  0  0
 12 13  2  0  0  0  0
 13 14  1  0  0  0  0
 15 13  1  0  0  0  0
 15 16  1  0  0  0  0
 17 15  2  0  0  0  0
 18 11  2  0  0  0  0
 18 17  1  0  0  0  0
M  END
>  <minimizedAffinity>
-3.90342307

$$$$

 OpenBabel03262520183D

 18 19  0  0  0  0  0  0  0  0999 V2000
   36.4820   28.4920   32.8990 C   0  0  0  0  0  0  0  0  0  0  0  0
   35.7610   28.9180   34.0220 C   0  0  0  0  0  0  0  0  0  0  0  0
   34.9640   30.0590   33.9870 C   0  0  0  0  0  0  0  0  0  0  0  0
   34.9330   30.7230   32.8040 N   0  0  0  0  0  0  0  0  0  0  0  0
   35.6260   30.3110   31.7300 C   0  0  0  0  0  0  0  0  0  0  0  0
   36.3920   29.2100   31.7700 N   0  0  0  0  0  0  0  0  0  0  0  0
   37.0960   27.6030   32.9460 H   0  0  0  0  0  0  0  0  0  0  0  0
   35.8370   28.3450   34.9110 H   0  0  0  0  0  0  0  0  0  0  0  0
   35.4810   30.9680   30.8630 H   0  0  0  0  0  0  0  0  0  0  0  0
   36.3510   32.0820   35.6400 Cl  0  0  0  0  0  0  0  0  0  0  0  0
   34.7570   31.4570   35.9560 C   0  0  0  0  0  0  0  0  0  0  0  0
   34.2030   30.5260   35.1370 C   0  0  0  0  0  0  0  0  0  0  0  0
   32.9390   30.0930   35.4700 C   0  0  0  0  0  0  0  0  0  0  0  0
   32.4620   29.3530   34.8430 H   0  0  0  0  0  0  0  0  0  0  0  0
   32.2280   30.5320   36.5460 C   0  0  0  0  0  0  0  0  0  0  0  0
   31.2360   30.1830   36.7960 H   0  0  0  0  0  0  0  0  0  0  0  0
   32.8140   31.4750   37.3580 C   0  0  0  0  0  3  0  0  0  0  0  0
   34.0940   31.9530   37.0740 C   0  0  0  0  0  3  0  0  0  0  0  0
  1  7  1  0  0  0  0
  1  2  1  0  0  0  0
  2  8  1  0  0  0  0
  3  2  2  0  0  0  0
  3 12  1  0  0  0  0
  4  3  1  0  0  0  0
  5  6  1  0  0  0  0
  5  4  2  0  0  0  0
  6  1  2  0  0  0  0
  9  5  1  0  0  0  0
 10 11  1  0  0  0  0
 11 18  1  0  0  0  0
 12 13  1  0  0  0  0
 12 11  2  0  0  0  0
 13 15  2  0  0  0  0
 14 13  1  0  0  0  0
 15 16  1  0  0  0  0
 15 17  1  0  0  0  0
 18 17  2  0  0  0  0
M  END
>  <minimizedAffinity>
-3.90179801

$$$$

 OpenBabel03262520183D

 18 19  0  0  0  0  0  0  0  0999 V2000
   36.9630   21.6710   32.7810 C   0  0  0  0  0  0  0  0  0  0  0  0
   37.3290   21.7770   34.1300 C   0  0  0  0  0  0  0  0  0  0  0  0
   37.9430   22.9220   34.6300 C   0  0  0  0  0  0  0  0  0  0  0  0
   38.1610   23.9170   33.7330 N   0  0  0  0  0  0  0  0  0  0  0  0
   37.8070   23.8110   32.4410 C   0  0  0  0  0  0  0  0  0  0  0  0
   37.2160   22.7050   31.9650 N   0  0  0  0  0  0  0  0  0  0  0  0
   36.4860   20.7730   32.4110 H   0  0  0  0  0  0  0  0  0  0  0  0
   37.1260   20.9560   34.7680 H   0  0  0  0  0  0  0  0  0  0  0  0
   38.0590   24.7100   31.8650 H   0  0  0  0  0  0  0  0  0  0  0  0
   40.6930   22.0120   35.2320 Cl  0  0  0  0  0  0  0  0  0  0  0  0
   39.5810   22.6710   36.3990 C   0  0  0  0  0  0  0  0  0  0  0  0
   38.3350   23.0620   36.0250 C   0  0  0  0  0  0  0  0  0  0  0  0
   37.5300   23.5700   37.0190 C   0  0  0  0  0  0  0  0  0  0  0  0
   36.5310   23.8930   36.7630 H   0  0  0  0  0  0  0  0  0  0  0  0
   37.8980   23.7010   38.3240 C   0  0  0  0  0  0  0  0  0  0  0  0
   37.2550   24.1010   39.0940 H   0  0  0  0  0  0  0  0  0  0  0  0
   39.1660   23.2970   38.6740 C   0  0  0  0  0  3  0  0  0  0  0  0
   40.0300   22.7730   37.7110 C   0  0  0  0  0  3  0  0  0  0  0  0
  1  2  1  0  0  0  0
  2  3  2  0  0  0  0
  2  8  1  0  0  0  0
  3 12  1  0  0  0  0
  4  3  1  0  0  0  0
  5  4  2  0  0  0  0
  6  5  1  0  0  0  0
  6  1  2  0  0  0  0
  7  1  1  0  0  0  0
  9  5  1  0  0  0  0
 10 11  1  0  0  0  0
 11 18  1  0  0  0  0
 12 11  2  0  0  0  0
 12 13  1  0  0  0  0
 13 15  2  0  0  0  0
 14 13  1  0  0  0  0
 15 17  1  0  0  0  0
 15 16  1  0  0  0  0
 18 17  2  0  0  0  0
M  END
>  <minimizedAffinity>
-3.87780309

$$$$
