
 OpenBabel03262522333D

 27 29  0  0  0  0  0  0  0  0999 V2000
   36.6980   27.8480   33.4970 C   0  0  0  0  0  0  0  0  0  0  0  0
   36.7770   28.3500   32.2140 C   0  0  0  0  0  0  0  0  0  0  0  0
   36.2800   29.5880   31.8430 C   0  0  0  0  0  0  0  0  0  0  0  0
   35.6700   30.3750   32.7860 C   0  0  0  0  0  0  0  0  0  0  0  0
   35.6040   29.8550   34.0520 C   0  0  0  0  0  0  0  0  0  0  0  0
   36.0930   28.6460   34.4060 N   0  0  0  0  0  0  0  0  0  0  0  0
   37.2560   27.7360   31.4620 H   0  0  0  0  0  0  0  0  0  0  0  0
   36.3920   29.8890   30.8090 H   0  0  0  0  0  0  0  0  0  0  0  0
   35.3030   31.3120   32.4640 H   0  0  0  0  0  0  0  0  0  0  0  0
   37.5080   25.5210   32.9530 C   0  0  0  0  0  0  0  0  0  0  0  0
   37.2200   26.5440   33.8800 C   0  0  0  0  0  0  0  0  0  0  0  0
   37.4430   26.3000   35.2200 C   0  0  0  0  0  0  0  0  0  0  0  0
   37.9360   25.0590   35.5590 N   0  0  0  0  0  0  0  0  0  0  0  0
   38.1990   24.1080   34.6550 C   0  0  0  0  0  0  0  0  0  0  0  0
   37.9880   24.3320   33.3580 N   0  0  0  0  0  0  0  0  0  0  0  0
   37.3220   25.7410   31.9020 H   0  0  0  0  0  0  0  0  0  0  0  0
   37.2590   27.0060   36.0200 H   0  0  0  0  0  0  0  0  0  0  0  0
   38.5850   23.1670   35.0310 H   0  0  0  0  0  0  0  0  0  0  0  0
   32.6730   29.4040   34.3950 Cl  0  0  0  0  0  0  0  0  0  0  0  0
   33.6140   30.5340   35.3800 C   0  0  0  0  0  0  0  0  0  0  0  0
   34.9680   30.6390   35.1080 C   0  0  0  0  0  0  0  0  0  0  0  0
   35.6120   31.5430   35.9270 C   0  0  0  0  0  0  0  0  0  0  0  0
   36.6730   31.6950   35.7910 H   0  0  0  0  0  0  0  0  0  0  0  0
   34.9730   32.2650   36.9140 C   0  0  0  0  0  0  0  0  0  0  0  0
   35.5680   32.9570   37.5110 H   0  0  0  0  0  0  0  0  0  0  0  0
   33.6190   32.1010   37.1210 C   0  0  0  0  0  3  0  0  0  0  0  0
   32.9010   31.2160   36.3440 C   0  0  0  0  0  3  0  0  0  0  0  0
  1 11  1  0  0  0  0
  1  6  1  0  0  0  0
  2  1  2  0  0  0  0
  3  2  1  0  0  0  0
  3  4  2  0  0  0  0
  4  5  1  0  0  0  0
  5  6  2  0  0  0  0
  5 21  1  0  0  0  0
  7  2  1  0  0  0  0
  8  3  1  0  0  0  0
  9  4  1  0  0  0  0
 10 15  2  0  0  0  0
 10 11  1  0  0  0  0
 11 12  2  0  0  0  0
 12 13  1  0  0  0  0
 12 17  1  0  0  0  0
 14 18  1  0  0  0  0
 14 13  2  0  0  0  0
 15 14  1  0  0  0  0
 16 10  1  0  0  0  0
 19 20  1  0  0  0  0
 20 27  1  0  0  0  0
 21 20  2  0  0  0  0
 21 22  1  0  0  0  0
 22 24  2  0  0  0  0
 23 22  1  0  0  0  0
 24 26  1  0  0  0  0
 24 25  1  0  0  0  0
 27 26  2  0  0  0  0
M  END
>  <minimizedAffinity>
-5.48376369

$$$$

 OpenBabel03262522333D

 27 29  0  0  0  0  0  0  0  0999 V2000
   38.3580   25.6530   33.2810 C   0  0  0  0  0  0  0  0  0  0  0  0
   38.9870   26.8800   33.3370 C   0  0  0  0  0  0  0  0  0  0  0  0
   40.0960   27.1380   34.1240 C   0  0  0  0  0  0  0  0  0  0  0  0
   40.6140   26.1340   34.9010 C   0  0  0  0  0  0  0  0  0  0  0  0
   39.9720   24.9260   34.8290 C   0  0  0  0  0  0  0  0  0  0  0  0
   38.8900   24.6820   34.0570 N   0  0  0  0  0  0  0  0  0  0  0  0
   38.5850   27.6800   32.7270 H   0  0  0  0  0  0  0  0  0  0  0  0
   40.5160   28.1360   34.0960 H   0  0  0  0  0  0  0  0  0  0  0  0
   41.4600   26.3710   35.4890 H   0  0  0  0  0  0  0  0  0  0  0  0
   36.7470   24.0920   32.1280 C   0  0  0  0  0  0  0  0  0  0  0  0
   37.1890   25.3900   32.4540 C   0  0  0  0  0  0  0  0  0  0  0  0
   36.4800   26.4680   31.9650 C   0  0  0  0  0  0  0  0  0  0  0  0
   35.3790   26.1960   31.1850 N   0  0  0  0  0  0  0  0  0  0  0  0
   34.9840   24.9510   30.8930 C   0  0  0  0  0  0  0  0  0  0  0  0
   35.6600   23.9000   31.3580 N   0  0  0  0  0  0  0  0  0  0  0  0
   37.3250   23.2580   32.5270 H   0  0  0  0  0  0  0  0  0  0  0  0
   36.7250   27.5070   32.1480 H   0  0  0  0  0  0  0  0  0  0  0  0
   34.1020   24.8500   30.2700 H   0  0  0  0  0  0  0  0  0  0  0  0
   38.3540   24.2610   37.2480 Cl  0  0  0  0  0  0  0  0  0  0  0  0
   39.8220   23.3900   36.7790 C   0  0  0  0  0  0  0  0  0  0  0  0
   40.4700   23.8100   35.6300 C   0  0  0  0  0  0  0  0  0  0  0  0
   41.6010   23.0710   35.3510 C   0  0  0  0  0  0  0  0  0  0  0  0
   42.1760   23.3230   34.4720 H   0  0  0  0  0  0  0  0  0  0  0  0
   42.0380   22.0230   36.1350 C   0  0  0  0  0  0  0  0  0  0  0  0
   42.9440   21.4980   35.8320 H   0  0  0  0  0  0  0  0  0  0  0  0
   41.3320   21.6670   37.2660 C   0  0  0  0  0  3  0  0  0  0  0  0
   40.1900   22.3570   37.6160 C   0  0  0  0  0  3  0  0  0  0  0  0
  1  2  2  0  0  0  0
  1  6  1  0  0  0  0
  2  3  1  0  0  0  0
  3  4  2  0  0  0  0
  4  9  1  0  0  0  0
  5  4  1  0  0  0  0
  5 21  1  0  0  0  0
  6  5  2  0  0  0  0
  7  2  1  0  0  0  0
  8  3  1  0  0  0  0
 10 11  1  0  0  0  0
 10 16  1  0  0  0  0
 11  1  1  0  0  0  0
 12 17  1  0  0  0  0
 12 11  2  0  0  0  0
 13 12  1  0  0  0  0
 14 13  2  0  0  0  0
 14 15  1  0  0  0  0
 15 10  2  0  0  0  0
 18 14  1  0  0  0  0
 20 19  1  0  0  0  0
 20 27  1  0  0  0  0
 21 20  2  0  0  0  0
 22 21  1  0  0  0  0
 22 24  2  0  0  0  0
 23 22  1  0  0  0  0
 24 26  1  0  0  0  0
 25 24  1  0  0  0  0
 26 27  2  0  0  0  0
M  END
>  <minimizedAffinity>
-5.25114489

$$$$

 OpenBabel03262522333D

 27 29  0  0  0  0  0  0  0  0999 V2000
   38.4390   24.4860   35.9800 C   0  0  0  0  0  0  0  0  0  0  0  0
   37.8170   24.4320   37.2100 C   0  0  0  0  0  0  0  0  0  0  0  0
   38.3260   23.7410   38.2970 C   0  0  0  0  0  0  0  0  0  0  0  0
   39.5110   23.0650   38.1650 C   0  0  0  0  0  0  0  0  0  0  0  0
   40.1090   23.1340   36.9340 C   0  0  0  0  0  0  0  0  0  0  0  0
   39.6060   23.8110   35.8790 N   0  0  0  0  0  0  0  0  0  0  0  0
   36.8800   24.9630   37.3240 H   0  0  0  0  0  0  0  0  0  0  0  0
   37.7600   23.7610   39.2200 H   0  0  0  0  0  0  0  0  0  0  0  0
   39.8660   22.5490   39.0170 H   0  0  0  0  0  0  0  0  0  0  0  0
   37.8200   24.6700   33.5410 C   0  0  0  0  0  0  0  0  0  0  0  0
   37.8960   25.2110   34.8400 C   0  0  0  0  0  0  0  0  0  0  0  0
   37.4330   26.4950   35.0450 C   0  0  0  0  0  0  0  0  0  0  0  0
   36.9240   27.1630   33.9530 N   0  0  0  0  0  0  0  0  0  0  0  0
   36.8650   26.6200   32.7310 C   0  0  0  0  0  0  0  0  0  0  0  0
   37.3090   25.3810   32.5190 N   0  0  0  0  0  0  0  0  0  0  0  0
   38.1920   23.6540   33.4070 H   0  0  0  0  0  0  0  0  0  0  0  0
   37.4400   27.0140   35.9950 H   0  0  0  0  0  0  0  0  0  0  0  0
   36.4450   27.2340   31.9420 H   0  0  0  0  0  0  0  0  0  0  0  0
   42.2260   24.7130   35.5400 Cl  0  0  0  0  0  0  0  0  0  0  0  0
   42.4470   23.0440   36.0890 C   0  0  0  0  0  0  0  0  0  0  0  0
   41.3750   22.4360   36.7220 C   0  0  0  0  0  0  0  0  0  0  0  0
   41.6460   21.1410   37.1100 C   0  0  0  0  0  0  0  0  0  0  0  0
   40.8700   20.5820   37.6140 H   0  0  0  0  0  0  0  0  0  0  0  0
   42.8570   20.5180   36.8910 C   0  0  0  0  0  0  0  0  0  0  0  0
   42.9760   19.4900   37.2350 H   0  0  0  0  0  0  0  0  0  0  0  0
   43.8750   21.1950   36.2520 C   0  0  0  0  0  3  0  0  0  0  0  0
   43.6850   22.4950   35.8310 C   0  0  0  0  0  3  0  0  0  0  0  0
  1  2  1  0  0  0  0
  2  7  1  0  0  0  0
  2  3  2  0  0  0  0
  3  8  1  0  0  0  0
  4  3  1  0  0  0  0
  4  9  1  0  0  0  0
  5  4  2  0  0  0  0
  6  1  2  0  0  0  0
  6  5  1  0  0  0  0
 10 11  1  0  0  0  0
 11 12  2  0  0  0  0
 11  1  1  0  0  0  0
 12 17  1  0  0  0  0
 13 12  1  0  0  0  0
 14 13  2  0  0  0  0
 15 14  1  0  0  0  0
 15 10  2  0  0  0  0
 16 10  1  0  0  0  0
 18 14  1  0  0  0  0
 19 20  1  0  0  0  0
 20 21  1  0  0  0  0
 21  5  1  0  0  0  0
 21 22  2  0  0  0  0
 22 23  1  0  0  0  0
 24 22  1  0  0  0  0
 24 25  1  0  0  0  0
 26 24  2  0  0  0  0
 27 20  2  0  0  0  0
 27 26  1  0  0  0  0
M  END
>  <minimizedAffinity>
-5.2273283

$$$$

 OpenBabel03262522333D

 27 29  0  0  0  0  0  0  0  0999 V2000
   40.3230   22.9830   36.7840 C   0  0  0  0  0  0  0  0  0  0  0  0
   39.6920   22.7420   37.9870 C   0  0  0  0  0  0  0  0  0  0  0  0
   38.5540   23.4120   38.4030 C   0  0  0  0  0  0  0  0  0  0  0  0
   38.0080   24.3730   37.5920 C   0  0  0  0  0  0  0  0  0  0  0  0
   38.6530   24.5940   36.4030 C   0  0  0  0  0  0  0  0  0  0  0  0
   39.7630   23.9350   36.0040 N   0  0  0  0  0  0  0  0  0  0  0  0
   40.1150   21.9850   38.6360 H   0  0  0  0  0  0  0  0  0  0  0  0
   38.1350   23.1480   39.3670 H   0  0  0  0  0  0  0  0  0  0  0  0
   37.1400   24.8630   37.9460 H   0  0  0  0  0  0  0  0  0  0  0  0
   42.2360   22.6040   35.1840 C   0  0  0  0  0  0  0  0  0  0  0  0
   41.5220   22.2780   36.3540 C   0  0  0  0  0  0  0  0  0  0  0  0
   41.9810   21.2360   37.1360 C   0  0  0  0  0  0  0  0  0  0  0  0
   43.1160   20.5830   36.7100 N   0  0  0  0  0  0  0  0  0  0  0  0
   43.7720   20.9180   35.5920 C   0  0  0  0  0  0  0  0  0  0  0  0
   43.3390   21.9210   34.8290 N   0  0  0  0  0  0  0  0  0  0  0  0
   41.8520   23.4300   34.5850 H   0  0  0  0  0  0  0  0  0  0  0  0
   41.5160   20.8960   38.0530 H   0  0  0  0  0  0  0  0  0  0  0  0
   44.6560   20.3370   35.3500 H   0  0  0  0  0  0  0  0  0  0  0  0
   37.8310   23.5880   33.7150 Cl  0  0  0  0  0  0  0  0  0  0  0  0
   37.7060   25.2830   34.2090 C   0  0  0  0  0  0  0  0  0  0  0  0
   38.1260   25.6040   35.4890 C   0  0  0  0  0  0  0  0  0  0  0  0
   37.9880   26.9460   35.7780 C   0  0  0  0  0  0  0  0  0  0  0  0
   38.2890   27.2950   36.7550 H   0  0  0  0  0  0  0  0  0  0  0  0
   37.4850   27.8690   34.8850 C   0  0  0  0  0  0  0  0  0  0  0  0
   37.4150   28.9090   35.2050 H   0  0  0  0  0  0  0  0  0  0  0  0
   37.0880   27.4650   33.6270 C   0  0  0  0  0  3  0  0  0  0  0  0
   37.1930   26.1400   33.2580 C   0  0  0  0  0  3  0  0  0  0  0  0
  1  2  1  0  0  0  0
  2  3  2  0  0  0  0
  2  7  1  0  0  0  0
  3  8  1  0  0  0  0
  4  9  1  0  0  0  0
  4  3  1  0  0  0  0
  5  4  2  0  0  0  0
  6  5  1  0  0  0  0
  6  1  2  0  0  0  0
 10 11  1  0  0  0  0
 11  1  1  0  0  0  0
 11 12  2  0  0  0  0
 12 17  1  0  0  0  0
 13 12  1  0  0  0  0
 14 13  2  0  0  0  0
 15 10  2  0  0  0  0
 15 14  1  0  0  0  0
 16 10  1  0  0  0  0
 18 14  1  0  0  0  0
 19 20  1  0  0  0  0
 20 21  1  0  0  0  0
 21 22  2  0  0  0  0
 21  5  1  0  0  0  0
 22 23  1  0  0  0  0
 24 25  1  0  0  0  0
 24 22  1  0  0  0  0
 26 24  2  0  0  0  0
 27 26  1  0  0  0  0
 27 20  2  0  0  0  0
M  END
>  <minimizedAffinity>
-5.22167492

$$$$

 OpenBabel03262522333D

 27 29  0  0  0  0  0  0  0  0999 V2000
   35.9710   23.4340   31.6300 C   0  0  0  0  0  0  0  0  0  0  0  0
   35.2160   24.2460   30.8080 C   0  0  0  0  0  0  0  0  0  0  0  0
   35.2570   25.6300   30.8500 C   0  0  0  0  0  0  0  0  0  0  0  0
   36.0850   26.2480   31.7500 C   0  0  0  0  0  0  0  0  0  0  0  0
   36.8240   25.4210   32.5550 C   0  0  0  0  0  0  0  0  0  0  0  0
   36.7780   24.0720   32.5070 N   0  0  0  0  0  0  0  0  0  0  0  0
   34.5580   23.7670   30.0940 H   0  0  0  0  0  0  0  0  0  0  0  0
   34.6240   26.1760   30.1610 H   0  0  0  0  0  0  0  0  0  0  0  0
   36.0870   27.3060   31.7520 H   0  0  0  0  0  0  0  0  0  0  0  0
   36.7620   21.2000   30.7670 C   0  0  0  0  0  0  0  0  0  0  0  0
   35.9200   21.9800   31.5840 C   0  0  0  0  0  0  0  0  0  0  0  0
   34.9980   21.3350   32.3840 C   0  0  0  0  0  0  0  0  0  0  0  0
   34.9670   19.9590   32.3250 N   0  0  0  0  0  0  0  0  0  0  0  0
   35.7820   19.2470   31.5370 C   0  0  0  0  0  0  0  0  0  0  0  0
   36.6760   19.8570   30.7600 N   0  0  0  0  0  0  0  0  0  0  0  0
   37.4810   21.7350   30.1460 H   0  0  0  0  0  0  0  0  0  0  0  0
   34.3010   21.8280   33.0500 H   0  0  0  0  0  0  0  0  0  0  0  0
   35.6730   18.1680   31.5680 H   0  0  0  0  0  0  0  0  0  0  0  0
   39.6120   25.9090   31.6040 Cl  0  0  0  0  0  0  0  0  0  0  0  0
   39.0500   26.2950   33.2380 C   0  0  0  0  0  0  0  0  0  0  0  0
   37.7280   26.0130   33.5380 C   0  0  0  0  0  0  0  0  0  0  0  0
   37.3880   26.3480   34.8320 C   0  0  0  0  0  0  0  0  0  0  0  0
   36.3760   26.1660   35.1620 H   0  0  0  0  0  0  0  0  0  0  0  0
   38.2740   26.9060   35.7310 C   0  0  0  0  0  0  0  0  0  0  0  0
   37.9120   27.1370   36.7330 H   0  0  0  0  0  0  0  0  0  0  0  0
   39.5770   27.1560   35.3510 C   0  0  0  0  0  3  0  0  0  0  0  0
   39.9970   26.8490   34.0740 C   0  0  0  0  0  3  0  0  0  0  0  0
  1  6  1  0  0  0  0
  2  3  1  0  0  0  0
  2  1  2  0  0  0  0
  3  4  2  0  0  0  0
  4  9  1  0  0  0  0
  4  5  1  0  0  0  0
  5 21  1  0  0  0  0
  6  5  2  0  0  0  0
  7  2  1  0  0  0  0
  8  3  1  0  0  0  0
 10 11  1  0  0  0  0
 11  1  1  0  0  0  0
 11 12  2  0  0  0  0
 12 17  1  0  0  0  0
 13 12  1  0  0  0  0
 14 18  1  0  0  0  0
 14 13  2  0  0  0  0
 15 10  2  0  0  0  0
 15 14  1  0  0  0  0
 16 10  1  0  0  0  0
 19 20  1  0  0  0  0
 20 21  2  0  0  0  0
 20 27  1  0  0  0  0
 21 22  1  0  0  0  0
 22 23  1  0  0  0  0
 22 24  2  0  0  0  0
 24 25  1  0  0  0  0
 26 24  1  0  0  0  0
 27 26  2  0  0  0  0
M  END
>  <minimizedAffinity>
-5.20386553

$$$$

 OpenBabel03262522333D

 27 29  0  0  0  0  0  0  0  0999 V2000
   36.5190   28.1150   33.6610 C   0  0  0  0  0  0  0  0  0  0  0  0
   36.5820   28.6480   32.3900 C   0  0  0  0  0  0  0  0  0  0  0  0
   35.8830   29.7770   31.9970 C   0  0  0  0  0  0  0  0  0  0  0  0
   35.0780   30.4160   32.9040 C   0  0  0  0  0  0  0  0  0  0  0  0
   35.0320   29.8680   34.1590 C   0  0  0  0  0  0  0  0  0  0  0  0
   35.7180   28.7660   34.5340 N   0  0  0  0  0  0  0  0  0  0  0  0
   37.2150   28.1500   31.6660 H   0  0  0  0  0  0  0  0  0  0  0  0
   36.0020   30.1150   30.9740 H   0  0  0  0  0  0  0  0  0  0  0  0
   34.5610   31.2740   32.5650 H   0  0  0  0  0  0  0  0  0  0  0  0
   37.9840   26.8370   35.2690 C   0  0  0  0  0  0  0  0  0  0  0  0
   37.2520   26.9250   34.0670 C   0  0  0  0  0  0  0  0  0  0  0  0
   37.2280   25.8280   33.2300 C   0  0  0  0  0  0  0  0  0  0  0  0
   37.9290   24.7130   33.6340 N   0  0  0  0  0  0  0  0  0  0  0  0
   38.6150   24.6610   34.7820 C   0  0  0  0  0  0  0  0  0  0  0  0
   38.6460   25.7130   35.5990 N   0  0  0  0  0  0  0  0  0  0  0  0
   37.9860   27.7180   35.9110 H   0  0  0  0  0  0  0  0  0  0  0  0
   36.7030   25.7790   32.2840 H   0  0  0  0  0  0  0  0  0  0  0  0
   39.1310   23.7330   35.0030 H   0  0  0  0  0  0  0  0  0  0  0  0
   36.3810   31.9440   35.8290 Cl  0  0  0  0  0  0  0  0  0  0  0  0
   34.6850   31.4770   36.0230 C   0  0  0  0  0  0  0  0  0  0  0  0
   34.1940   30.4970   35.1760 C   0  0  0  0  0  0  0  0  0  0  0  0
   32.8660   30.2040   35.4070 C   0  0  0  0  0  0  0  0  0  0  0  0
   32.3920   29.4510   34.7940 H   0  0  0  0  0  0  0  0  0  0  0  0
   32.1080   30.8230   36.3800 C   0  0  0  0  0  0  0  0  0  0  0  0
   31.0650   30.5230   36.4860 H   0  0  0  0  0  0  0  0  0  0  0  0
   32.6750   31.7900   37.1830 C   0  0  0  0  0  3  0  0  0  0  0  0
   33.9980   32.1420   37.0170 C   0  0  0  0  0  3  0  0  0  0  0  0
  1 11  1  0  0  0  0
  1  6  1  0  0  0  0
  2  1  2  0  0  0  0
  3  2  1  0  0  0  0
  3  4  2  0  0  0  0
  4  5  1  0  0  0  0
  5  6  2  0  0  0  0
  5 21  1  0  0  0  0
  7  2  1  0  0  0  0
  8  3  1  0  0  0  0
  9  4  1  0  0  0  0
 10 15  1  0  0  0  0
 10 16  1  0  0  0  0
 11 10  2  0  0  0  0
 12 13  2  0  0  0  0
 12 11  1  0  0  0  0
 13 14  1  0  0  0  0
 14 18  1  0  0  0  0
 14 15  2  0  0  0  0
 17 12  1  0  0  0  0
 19 20  1  0  0  0  0
 20 27  1  0  0  0  0
 21 22  1  0  0  0  0
 21 20  2  0  0  0  0
 22 24  2  0  0  0  0
 23 22  1  0  0  0  0
 24 25  1  0  0  0  0
 24 26  1  0  0  0  0
 27 26  2  0  0  0  0
M  END
>  <minimizedAffinity>
-5.19045973

$$$$

 OpenBabel03262522333D

 27 29  0  0  0  0  0  0  0  0999 V2000
   35.5250   30.0820   33.2690 C   0  0  0  0  0  0  0  0  0  0  0  0
   35.9630   30.8540   32.2130 C   0  0  0  0  0  0  0  0  0  0  0  0
   36.4590   30.3270   31.0320 C   0  0  0  0  0  0  0  0  0  0  0  0
   36.5290   28.9660   30.8840 C   0  0  0  0  0  0  0  0  0  0  0  0
   36.0880   28.2210   31.9460 C   0  0  0  0  0  0  0  0  0  0  0  0
   35.6050   28.7430   33.0950 N   0  0  0  0  0  0  0  0  0  0  0  0
   35.9130   31.9300   32.3210 H   0  0  0  0  0  0  0  0  0  0  0  0
   36.7780   31.0200   30.2640 H   0  0  0  0  0  0  0  0  0  0  0  0
   36.9150   28.6030   29.9680 H   0  0  0  0  0  0  0  0  0  0  0  0
   35.8200   31.2740   35.4730 C   0  0  0  0  0  0  0  0  0  0  0  0
   35.0080   30.6420   34.5100 C   0  0  0  0  0  0  0  0  0  0  0  0
   33.6530   30.5470   34.7530 C   0  0  0  0  0  0  0  0  0  0  0  0
   33.1860   31.0830   35.9320 N   0  0  0  0  0  0  0  0  0  0  0  0
   33.9840   31.6780   36.8270 C   0  0  0  0  0  0  0  0  0  0  0  0
   35.2950   31.7760   36.6050 N   0  0  0  0  0  0  0  0  0  0  0  0
   36.8870   31.3350   35.2560 H   0  0  0  0  0  0  0  0  0  0  0  0
   32.9340   30.0840   34.0890 H   0  0  0  0  0  0  0  0  0  0  0  0
   33.5120   32.0660   37.7230 H   0  0  0  0  0  0  0  0  0  0  0  0
   38.3270   26.9130   33.4270 Cl  0  0  0  0  0  0  0  0  0  0  0  0
   37.1160   26.0230   32.4920 C   0  0  0  0  0  0  0  0  0  0  0  0
   36.1340   26.7640   31.8560 C   0  0  0  0  0  0  0  0  0  0  0  0
   35.2400   25.9810   31.1550 C   0  0  0  0  0  0  0  0  0  0  0  0
   34.4350   26.4680   30.6240 H   0  0  0  0  0  0  0  0  0  0  0  0
   35.3180   24.6040   31.0950 C   0  0  0  0  0  0  0  0  0  0  0  0
   34.5650   24.0720   30.5150 H   0  0  0  0  0  0  0  0  0  0  0  0
   36.3300   23.9420   31.7590 C   0  0  0  0  0  3  0  0  0  0  0  0
   37.2650   24.6520   32.4830 C   0  0  0  0  0  3  0  0  0  0  0  0
  1 11  1  0  0  0  0
  2  7  1  0  0  0  0
  2  1  2  0  0  0  0
  3  2  1  0  0  0  0
  4  3  2  0  0  0  0
  4  5  1  0  0  0  0
  5  6  2  0  0  0  0
  6  1  1  0  0  0  0
  8  3  1  0  0  0  0
  9  4  1  0  0  0  0
 10 15  1  0  0  0  0
 11 12  1  0  0  0  0
 11 10  2  0  0  0  0
 12 13  2  0  0  0  0
 13 14  1  0  0  0  0
 14 18  1  0  0  0  0
 15 14  2  0  0  0  0
 16 10  1  0  0  0  0
 17 12  1  0  0  0  0
 20 19  1  0  0  0  0
 21  5  1  0  0  0  0
 21 20  2  0  0  0  0
 22 21  1  0  0  0  0
 23 22  1  0  0  0  0
 24 22  2  0  0  0  0
 24 26  1  0  0  0  0
 25 24  1  0  0  0  0
 26 27  2  0  0  0  0
 27 20  1  0  0  0  0
M  END
>  <minimizedAffinity>
-5.10493851

$$$$

 OpenBabel03262522333D

 27 29  0  0  0  0  0  0  0  0999 V2000
   36.2100   23.6510   31.6610 C   0  0  0  0  0  0  0  0  0  0  0  0
   35.2770   24.5150   31.1270 C   0  0  0  0  0  0  0  0  0  0  0  0
   35.4130   25.8930   31.1360 C   0  0  0  0  0  0  0  0  0  0  0  0
   36.5290   26.4520   31.7030 C   0  0  0  0  0  0  0  0  0  0  0  0
   37.4420   25.5740   32.2270 C   0  0  0  0  0  0  0  0  0  0  0  0
   37.3010   24.2300   32.2130 N   0  0  0  0  0  0  0  0  0  0  0  0
   34.3910   24.0840   30.6760 H   0  0  0  0  0  0  0  0  0  0  0  0
   34.6220   26.4840   30.6890 H   0  0  0  0  0  0  0  0  0  0  0  0
   36.5960   27.5070   31.6910 H   0  0  0  0  0  0  0  0  0  0  0  0
   35.0120   21.5290   32.3130 C   0  0  0  0  0  0  0  0  0  0  0  0
   36.0590   22.2040   31.6520 C   0  0  0  0  0  0  0  0  0  0  0  0
   36.9890   21.4560   30.9590 C   0  0  0  0  0  0  0  0  0  0  0  0
   36.8270   20.0880   30.9640 N   0  0  0  0  0  0  0  0  0  0  0  0
   35.8210   19.4770   31.6020 C   0  0  0  0  0  0  0  0  0  0  0  0
   34.9160   20.1880   32.2750 N   0  0  0  0  0  0  0  0  0  0  0  0
   34.2910   22.1440   32.8520 H   0  0  0  0  0  0  0  0  0  0  0  0
   37.8330   21.8620   30.4160 H   0  0  0  0  0  0  0  0  0  0  0  0
   35.7870   18.3950   31.5410 H   0  0  0  0  0  0  0  0  0  0  0  0
   37.2520   26.1200   35.1560 Cl  0  0  0  0  0  0  0  0  0  0  0  0
   38.7140   26.3990   34.1980 C   0  0  0  0  0  0  0  0  0  0  0  0
   38.6550   26.1000   32.8470 C   0  0  0  0  0  0  0  0  0  0  0  0
   39.8410   26.3520   32.1900 C   0  0  0  0  0  0  0  0  0  0  0  0
   39.8950   26.1490   31.1300 H   0  0  0  0  0  0  0  0  0  0  0  0
   40.9670   26.8490   32.8140 C   0  0  0  0  0  0  0  0  0  0  0  0
   41.8580   27.0160   32.2090 H   0  0  0  0  0  0  0  0  0  0  0  0
   40.9410   27.1210   34.1660 C   0  0  0  0  0  3  0  0  0  0  0  0
   39.7930   26.8970   34.8970 C   0  0  0  0  0  3  0  0  0  0  0  0
  1  6  1  0  0  0  0
  2  3  1  0  0  0  0
  2  1  2  0  0  0  0
  3  4  2  0  0  0  0
  4  5  1  0  0  0  0
  5 21  1  0  0  0  0
  6  5  2  0  0  0  0
  7  2  1  0  0  0  0
  8  3  1  0  0  0  0
  9  4  1  0  0  0  0
 10 16  1  0  0  0  0
 11  1  1  0  0  0  0
 11 10  2  0  0  0  0
 12 13  2  0  0  0  0
 12 11  1  0  0  0  0
 13 14  1  0  0  0  0
 14 15  2  0  0  0  0
 15 10  1  0  0  0  0
 17 12  1  0  0  0  0
 18 14  1  0  0  0  0
 20 27  1  0  0  0  0
 20 19  1  0  0  0  0
 21 20  2  0  0  0  0
 22 24  2  0  0  0  0
 22 21  1  0  0  0  0
 23 22  1  0  0  0  0
 24 26  1  0  0  0  0
 25 24  1  0  0  0  0
 26 27  2  0  0  0  0
M  END
>  <minimizedAffinity>
-5.0901022

$$$$

 OpenBabel03262522333D

 27 29  0  0  0  0  0  0  0  0999 V2000
   40.2260   23.0240   36.6080 C   0  0  0  0  0  0  0  0  0  0  0  0
   39.4840   22.9990   37.7710 C   0  0  0  0  0  0  0  0  0  0  0  0
   38.2730   23.6560   37.9230 C   0  0  0  0  0  0  0  0  0  0  0  0
   37.7670   24.3770   36.8730 C   0  0  0  0  0  0  0  0  0  0  0  0
   38.5220   24.3860   35.7300 C   0  0  0  0  0  0  0  0  0  0  0  0
   39.7020   23.7420   35.5900 N   0  0  0  0  0  0  0  0  0  0  0  0
   39.8750   22.4320   38.6070 H   0  0  0  0  0  0  0  0  0  0  0  0
   37.7690   23.5730   38.8780 H   0  0  0  0  0  0  0  0  0  0  0  0
   36.8420   24.8650   37.0280 H   0  0  0  0  0  0  0  0  0  0  0  0
   41.8280   21.1520   37.1500 C   0  0  0  0  0  0  0  0  0  0  0  0
   41.4990   22.3340   36.4570 C   0  0  0  0  0  0  0  0  0  0  0  0
   42.4300   22.8690   35.5890 C   0  0  0  0  0  0  0  0  0  0  0  0
   43.6270   22.2000   35.4610 N   0  0  0  0  0  0  0  0  0  0  0  0
   43.9100   21.0790   36.1340 C   0  0  0  0  0  0  0  0  0  0  0  0
   43.0200   20.5520   36.9760 N   0  0  0  0  0  0  0  0  0  0  0  0
   41.0750   20.7520   37.8290 H   0  0  0  0  0  0  0  0  0  0  0  0
   42.2890   23.7700   35.0050 H   0  0  0  0  0  0  0  0  0  0  0  0
   44.8830   20.6340   35.9590 H   0  0  0  0  0  0  0  0  0  0  0  0
   38.8030   27.3530   35.9140 Cl  0  0  0  0  0  0  0  0  0  0  0  0
   38.1100   26.5180   34.5160 C   0  0  0  0  0  0  0  0  0  0  0  0
   38.0430   25.1360   34.5700 C   0  0  0  0  0  0  0  0  0  0  0  0
   37.4890   24.5800   33.4370 C   0  0  0  0  0  0  0  0  0  0  0  0
   37.3940   23.5050   33.3840 H   0  0  0  0  0  0  0  0  0  0  0  0
   37.0480   25.3240   32.3610 C   0  0  0  0  0  0  0  0  0  0  0  0
   36.6230   24.7930   31.5090 H   0  0  0  0  0  0  0  0  0  0  0  0
   37.1510   26.6990   32.3870 C   0  0  0  0  0  3  0  0  0  0  0  0
   37.6940   27.3340   33.4850 C   0  0  0  0  0  3  0  0  0  0  0  0
  1  2  1  0  0  0  0
  2  3  2  0  0  0  0
  2  7  1  0  0  0  0
  3  8  1  0  0  0  0
  4  9  1  0  0  0  0
  4  3  1  0  0  0  0
  5  4  2  0  0  0  0
  6  5  1  0  0  0  0
  6  1  2  0  0  0  0
 10 16  1  0  0  0  0
 11  1  1  0  0  0  0
 11 10  2  0  0  0  0
 12 11  1  0  0  0  0
 13 12  2  0  0  0  0
 13 14  1  0  0  0  0
 14 15  2  0  0  0  0
 15 10  1  0  0  0  0
 17 12  1  0  0  0  0
 18 14  1  0  0  0  0
 20 21  1  0  0  0  0
 20 19  1  0  0  0  0
 21  5  1  0  0  0  0
 22 21  2  0  0  0  0
 23 22  1  0  0  0  0
 24 26  2  0  0  0  0
 24 22  1  0  0  0  0
 25 24  1  0  0  0  0
 26 27  1  0  0  0  0
 27 20  2  0  0  0  0
M  END
>  <minimizedAffinity>
-5.04994202

$$$$
