
 OpenBabel03272505013D

 28 30  0  0  0  0  0  0  0  0999 V2000
   36.2830   28.2140   34.5380 Cl  0  0  0  0  0  0  0  0  0  0  0  0
   36.0760   29.1830   33.0860 C   0  0  0  0  0  0  0  0  0  0  0  0
   36.4830   28.6550   31.8860 C   0  0  0  0  0  0  0  0  0  0  0  0
   36.2890   29.4750   30.7880 C   0  0  0  0  0  0  0  0  0  0  0  0
   35.7210   30.7370   30.9200 C   0  0  0  0  0  0  0  0  0  0  0  0
   35.3320   31.2140   32.1400 C   0  0  0  0  0  0  0  0  0  0  0  0
   35.5170   30.4110   33.2540 C   0  0  0  0  0  0  0  0  0  0  0  0
   36.5810   29.1370   29.8060 H   0  0  0  0  0  0  0  0  0  0  0  0
   35.5590   31.3910   30.0790 H   0  0  0  0  0  0  0  0  0  0  0  0
   34.8870   32.1900   32.2800 H   0  0  0  0  0  0  0  0  0  0  0  0
   36.2760   26.2100   31.4460 C   0  0  0  0  0  0  0  0  0  0  0  0
   37.0840   27.3290   31.7240 C   0  0  0  0  0  0  0  0  0  0  0  0
   38.4570   27.1540   31.8420 C   0  0  0  0  0  0  0  0  0  0  0  0
   38.9400   25.8840   31.6770 N   0  0  0  0  0  0  0  0  0  0  0  0
   38.1570   24.8360   31.4130 C   0  0  0  0  0  0  0  0  0  0  0  0
   36.8170   24.9860   31.2940 N   0  0  0  0  0  0  0  0  0  0  0  0
   35.2060   26.3600   31.3560 H   0  0  0  0  0  0  0  0  0  0  0  0
   39.0710   28.0040   32.0530 H   0  0  0  0  0  0  0  0  0  0  0  0
   38.5970   23.8370   31.2900 H   0  0  0  0  0  0  0  0  0  0  0  0
   32.6980   29.6820   33.8000 Cl  0  0  0  0  0  0  0  0  0  0  0  0
   33.7740   30.5950   34.8480 C   0  0  0  0  0  0  0  0  0  0  0  0
   35.1030   30.9210   34.5560 C   0  0  0  0  0  0  0  0  0  0  0  0
   35.8290   31.6460   35.4790 C   0  0  0  0  0  0  0  0  0  0  0  0
   36.8380   31.8380   35.1490 H   0  0  0  0  0  0  0  0  0  0  0  0
   35.2360   32.0310   36.6600 C   0  0  0  0  0  0  0  0  0  0  0  0
   35.8750   32.6020   37.3420 H   0  0  0  0  0  0  0  0  0  0  0  0
   33.9280   31.7160   36.9590 C   0  0  0  0  0  3  0  0  0  0  0  0
   33.1970   30.9890   36.0380 C   0  0  0  0  0  3  0  0  0  0  0  0
  2  7  1  0  0  0  0
  2  1  1  0  0  0  0
  3  2  2  0  0  0  0
  4  5  2  0  0  0  0
  4  3  1  0  0  0  0
  5  6  1  0  0  0  0
  6 10  1  0  0  0  0
  6  7  2  0  0  0  0
  7 22  1  0  0  0  0
  8  4  1  0  0  0  0
  9  5  1  0  0  0  0
 11 12  1  0  0  0  0
 12 13  2  0  0  0  0
 12  3  1  0  0  0  0
 13 18  1  0  0  0  0
 14 13  1  0  0  0  0
 15 14  2  0  0  0  0
 16 15  1  0  0  0  0
 16 11  2  0  0  0  0
 17 11  1  0  0  0  0
 19 15  1  0  0  0  0
 20 21  1  0  0  0  0
 21 28  1  0  0  0  0
 22 21  2  0  0  0  0
 22 23  1  0  0  0  0
 23 25  2  0  0  0  0
 24 23  1  0  0  0  0
 25 27  1  0  0  0  0
 25 26  1  0  0  0  0
 28 27  2  0  0  0  0
M  END
>  <minimizedAffinity>
-5.26901674

$$$$

 OpenBabel03272505013D

 28 30  0  0  0  0  0  0  0  0999 V2000
   38.1530   22.9880   33.4450 Cl  0  0  0  0  0  0  0  0  0  0  0  0
   37.0430   23.9630   32.4920 C   0  0  0  0  0  0  0  0  0  0  0  0
   36.1000   23.3190   31.7290 C   0  0  0  0  0  0  0  0  0  0  0  0
   35.2630   24.1520   31.0050 C   0  0  0  0  0  0  0  0  0  0  0  0
   35.3900   25.5340   31.0660 C   0  0  0  0  0  0  0  0  0  0  0  0
   36.3470   26.1230   31.8430 C   0  0  0  0  0  0  0  0  0  0  0  0
   37.1980   25.3120   32.5760 C   0  0  0  0  0  0  0  0  0  0  0  0
   34.4940   23.7270   30.3790 H   0  0  0  0  0  0  0  0  0  0  0  0
   34.7500   26.2010   30.5120 H   0  0  0  0  0  0  0  0  0  0  0  0
   36.4750   27.1960   31.9150 H   0  0  0  0  0  0  0  0  0  0  0  0
   36.7420   21.1150   30.7600 C   0  0  0  0  0  0  0  0  0  0  0  0
   35.9490   21.8640   31.6500 C   0  0  0  0  0  0  0  0  0  0  0  0
   35.0250   21.2030   32.4470 C   0  0  0  0  0  0  0  0  0  0  0  0
   34.9450   19.8430   32.3130 N   0  0  0  0  0  0  0  0  0  0  0  0
   35.7060   19.1500   31.4640 C   0  0  0  0  0  0  0  0  0  0  0  0
   36.6140   19.7760   30.6780 N   0  0  0  0  0  0  0  0  0  0  0  0
   37.4610   21.6420   30.1440 H   0  0  0  0  0  0  0  0  0  0  0  0
   34.4220   21.7730   33.1230 H   0  0  0  0  0  0  0  0  0  0  0  0
   35.6020   18.0590   31.3950 H   0  0  0  0  0  0  0  0  0  0  0  0
   39.7170   25.6280   31.0500 Cl  0  0  0  0  0  0  0  0  0  0  0  0
   39.4250   26.1070   32.7160 C   0  0  0  0  0  0  0  0  0  0  0  0
   38.2190   25.9410   33.4050 C   0  0  0  0  0  0  0  0  0  0  0  0
   38.1360   26.3670   34.7160 C   0  0  0  0  0  0  0  0  0  0  0  0
   37.1630   26.1900   35.1450 H   0  0  0  0  0  0  0  0  0  0  0  0
   39.2350   26.9420   35.3140 C   0  0  0  0  0  0  0  0  0  0  0  0
   39.0920   27.2550   36.3540 H   0  0  0  0  0  0  0  0  0  0  0  0
   40.4280   27.1110   34.6460 C   0  0  0  0  0  3  0  0  0  0  0  0
   40.5150   26.6860   33.3330 C   0  0  0  0  0  3  0  0  0  0  0  0
  2  7  1  0  0  0  0
  2  1  1  0  0  0  0
  3  2  2  0  0  0  0
  4  5  2  0  0  0  0
  4  3  1  0  0  0  0
  5  6  1  0  0  0  0
  6 10  1  0  0  0  0
  6  7  2  0  0  0  0
  7 22  1  0  0  0  0
  8  4  1  0  0  0  0
  9  5  1  0  0  0  0
 11 12  1  0  0  0  0
 12  3  1  0  0  0  0
 12 13  2  0  0  0  0
 13 18  1  0  0  0  0
 14 13  1  0  0  0  0
 15 14  2  0  0  0  0
 16 11  2  0  0  0  0
 16 15  1  0  0  0  0
 17 11  1  0  0  0  0
 19 15  1  0  0  0  0
 20 21  1  0  0  0  0
 21 28  2  0  0  0  0
 21 22  1  0  0  0  0
 22 23  2  0  0  0  0
 23 24  1  0  0  0  0
 23 25  1  0  0  0  0
 25 26  1  0  0  0  0
 27 25  2  0  0  0  0
 28 27  1  0  0  0  0
M  END
>  <minimizedAffinity>
-5.26535797

$$$$

 OpenBabel03272505013D

 28 30  0  0  0  0  0  0  0  0999 V2000
   38.3500   22.9250   33.7020 Cl  0  0  0  0  0  0  0  0  0  0  0  0
   38.9260   24.5640   33.9670 C   0  0  0  0  0  0  0  0  0  0  0  0
   38.2780   25.5940   33.3320 C   0  0  0  0  0  0  0  0  0  0  0  0
   38.7890   26.8550   33.5880 C   0  0  0  0  0  0  0  0  0  0  0  0
   39.8780   27.0360   34.4310 C   0  0  0  0  0  0  0  0  0  0  0  0
   40.4860   25.9750   35.0400 C   0  0  0  0  0  0  0  0  0  0  0  0
   39.9940   24.7020   34.7990 C   0  0  0  0  0  0  0  0  0  0  0  0
   38.3380   27.7210   33.1280 H   0  0  0  0  0  0  0  0  0  0  0  0
   40.2910   28.0090   34.6450 H   0  0  0  0  0  0  0  0  0  0  0  0
   41.3360   26.0780   35.7020 H   0  0  0  0  0  0  0  0  0  0  0  0
   36.7840   24.1490   31.9570 C   0  0  0  0  0  0  0  0  0  0  0  0
   37.1290   25.4250   32.4380 C   0  0  0  0  0  0  0  0  0  0  0  0
   36.3660   26.5190   32.0530 C   0  0  0  0  0  0  0  0  0  0  0  0
   35.3090   26.2780   31.2160 N   0  0  0  0  0  0  0  0  0  0  0  0
   34.9970   25.0590   30.7710 C   0  0  0  0  0  0  0  0  0  0  0  0
   35.7290   23.9800   31.1360 N   0  0  0  0  0  0  0  0  0  0  0  0
   37.3870   23.3030   32.2660 H   0  0  0  0  0  0  0  0  0  0  0  0
   36.6290   27.4890   32.4180 H   0  0  0  0  0  0  0  0  0  0  0  0
   34.1390   24.9210   30.1000 H   0  0  0  0  0  0  0  0  0  0  0  0
   38.6200   24.0410   37.3380 Cl  0  0  0  0  0  0  0  0  0  0  0  0
   40.0210   23.2280   36.6530 C   0  0  0  0  0  0  0  0  0  0  0  0
   40.6440   23.5700   35.4480 C   0  0  0  0  0  0  0  0  0  0  0  0
   41.7390   22.8380   35.0330 C   0  0  0  0  0  0  0  0  0  0  0  0
   42.1360   23.1900   34.0940 H   0  0  0  0  0  0  0  0  0  0  0  0
   42.1930   21.7960   35.8090 C   0  0  0  0  0  0  0  0  0  0  0  0
   43.0650   21.2630   35.4150 H   0  0  0  0  0  0  0  0  0  0  0  0
   41.5880   21.4500   36.9980 C   0  0  0  0  0  3  0  0  0  0  0  0
   40.4900   22.1790   37.4160 C   0  0  0  0  0  3  0  0  0  0  0  0
  1  2  1  0  0  0  0
  2  7  1  0  0  0  0
  3  4  1  0  0  0  0
  3  2  2  0  0  0  0
  4  5  2  0  0  0  0
  5  9  1  0  0  0  0
  5  6  1  0  0  0  0
  6 10  1  0  0  0  0
  7  6  2  0  0  0  0
  7 22  1  0  0  0  0
  8  4  1  0  0  0  0
 11 17  1  0  0  0  0
 11 12  1  0  0  0  0
 12  3  1  0  0  0  0
 13 18  1  0  0  0  0
 13 12  2  0  0  0  0
 14 13  1  0  0  0  0
 15 16  1  0  0  0  0
 15 14  2  0  0  0  0
 16 11  2  0  0  0  0
 19 15  1  0  0  0  0
 21 20  1  0  0  0  0
 21 28  1  0  0  0  0
 22 21  2  0  0  0  0
 23 22  1  0  0  0  0
 23 25  2  0  0  0  0
 24 23  1  0  0  0  0
 25 27  1  0  0  0  0
 26 25  1  0  0  0  0
 27 28  2  0  0  0  0
M  END
>  <minimizedAffinity>
-5.24604797

$$$$

 OpenBabel03272505013D

 28 30  0  0  0  0  0  0  0  0999 V2000
   38.2770   22.2770   33.8990 Cl  0  0  0  0  0  0  0  0  0  0  0  0
   37.2520   23.1880   32.8000 C   0  0  0  0  0  0  0  0  0  0  0  0
   37.4180   24.5490   32.7300 C   0  0  0  0  0  0  0  0  0  0  0  0
   36.5760   25.1990   31.8440 C   0  0  0  0  0  0  0  0  0  0  0  0
   35.6400   24.4990   31.0920 C   0  0  0  0  0  0  0  0  0  0  0  0
   35.5170   23.1430   31.2000 C   0  0  0  0  0  0  0  0  0  0  0  0
   36.3480   22.4700   32.0810 C   0  0  0  0  0  0  0  0  0  0  0  0
   36.6400   26.2700   31.7280 H   0  0  0  0  0  0  0  0  0  0  0  0
   34.9750   24.9840   30.3960 H   0  0  0  0  0  0  0  0  0  0  0  0
   34.7990   22.5660   30.6310 H   0  0  0  0  0  0  0  0  0  0  0  0
   39.7020   25.5020   33.0240 C   0  0  0  0  0  0  0  0  0  0  0  0
   38.3970   25.3070   33.5140 C   0  0  0  0  0  0  0  0  0  0  0  0
   38.0550   25.8420   34.7490 C   0  0  0  0  0  0  0  0  0  0  0  0
   39.0270   26.5360   35.4180 N   0  0  0  0  0  0  0  0  0  0  0  0
   40.2590   26.7110   34.9360 C   0  0  0  0  0  0  0  0  0  0  0  0
   40.6120   26.1970   33.7350 N   0  0  0  0  0  0  0  0  0  0  0  0
   39.9570   25.0800   32.0580 H   0  0  0  0  0  0  0  0  0  0  0  0
   37.0640   25.6930   35.1210 H   0  0  0  0  0  0  0  0  0  0  0  0
   41.0010   27.2760   35.5150 H   0  0  0  0  0  0  0  0  0  0  0  0
   38.2030   21.1120   30.2120 Cl  0  0  0  0  0  0  0  0  0  0  0  0
   37.0780   20.3470   31.3260 C   0  0  0  0  0  0  0  0  0  0  0  0
   36.2160   21.0230   32.1950 C   0  0  0  0  0  0  0  0  0  0  0  0
   35.3860   20.2850   33.0160 C   0  0  0  0  0  0  0  0  0  0  0  0
   34.7680   20.9100   33.6420 H   0  0  0  0  0  0  0  0  0  0  0  0
   35.4230   18.9100   32.9620 C   0  0  0  0  0  0  0  0  0  0  0  0
   34.7360   18.3960   33.6430 H   0  0  0  0  0  0  0  0  0  0  0  0
   36.2680   18.2330   32.1100 C   0  0  0  0  0  3  0  0  0  0  0  0
   37.1020   18.9670   31.2860 C   0  0  0  0  0  3  0  0  0  0  0  0
  2  1  1  0  0  0  0
  3  2  1  0  0  0  0
  3 12  1  0  0  0  0
  4  3  2  0  0  0  0
  5  6  2  0  0  0  0
  5  4  1  0  0  0  0
  6  7  1  0  0  0  0
  7 22  1  0  0  0  0
  7  2  2  0  0  0  0
  8  4  1  0  0  0  0
  9  5  1  0  0  0  0
 10  6  1  0  0  0  0
 11 12  2  0  0  0  0
 11 16  1  0  0  0  0
 12 13  1  0  0  0  0
 13 18  1  0  0  0  0
 13 14  2  0  0  0  0
 15 14  1  0  0  0  0
 15 19  1  0  0  0  0
 16 15  2  0  0  0  0
 17 11  1  0  0  0  0
 20 21  1  0  0  0  0
 21 22  1  0  0  0  0
 22 23  2  0  0  0  0
 23 24  1  0  0  0  0
 25 23  1  0  0  0  0
 25 26  1  0  0  0  0
 27 25  2  0  0  0  0
 28 21  2  0  0  0  0
 28 27  1  0  0  0  0
M  END
>  <minimizedAffinity>
-5.0406208

$$$$

 OpenBabel03272505013D

 28 30  0  0  0  0  0  0  0  0999 V2000
   36.5980   27.9130   34.6270 Cl  0  0  0  0  0  0  0  0  0  0  0  0
   36.3030   28.8030   33.1400 C   0  0  0  0  0  0  0  0  0  0  0  0
   35.5930   29.9760   33.2120 C   0  0  0  0  0  0  0  0  0  0  0  0
   35.4000   30.6200   32.0020 C   0  0  0  0  0  0  0  0  0  0  0  0
   35.8990   30.0950   30.8160 C   0  0  0  0  0  0  0  0  0  0  0  0
   36.6000   28.9230   30.8010 C   0  0  0  0  0  0  0  0  0  0  0  0
   36.8070   28.2590   32.0000 C   0  0  0  0  0  0  0  0  0  0  0  0
   34.8520   31.5490   31.9690 H   0  0  0  0  0  0  0  0  0  0  0  0
   35.7610   30.5800   29.8640 H   0  0  0  0  0  0  0  0  0  0  0  0
   37.0030   28.4840   29.8980 H   0  0  0  0  0  0  0  0  0  0  0  0
   35.8730   31.3400   35.2790 C   0  0  0  0  0  0  0  0  0  0  0  0
   35.0570   30.5470   34.4510 C   0  0  0  0  0  0  0  0  0  0  0  0
   33.7400   30.3150   34.8260 C   0  0  0  0  0  0  0  0  0  0  0  0
   33.3160   30.8840   35.9970 N   0  0  0  0  0  0  0  0  0  0  0  0
   34.1050   31.6340   36.7690 C   0  0  0  0  0  0  0  0  0  0  0  0
   35.3920   31.8720   36.4200 N   0  0  0  0  0  0  0  0  0  0  0  0
   36.8980   31.5150   34.9750 H   0  0  0  0  0  0  0  0  0  0  0  0
   33.1210   29.7120   34.1960 H   0  0  0  0  0  0  0  0  0  0  0  0
   33.7150   32.0670   37.6990 H   0  0  0  0  0  0  0  0  0  0  0  0
   35.0550   26.0190   31.1700 Cl  0  0  0  0  0  0  0  0  0  0  0  0
   36.7580   25.9250   31.5960 C   0  0  0  0  0  0  0  0  0  0  0  0
   37.5540   27.0080   31.9840 C   0  0  0  0  0  0  0  0  0  0  0  0
   38.8820   26.7820   32.2890 C   0  0  0  0  0  0  0  0  0  0  0  0
   39.3970   27.6860   32.5740 H   0  0  0  0  0  0  0  0  0  0  0  0
   39.3910   25.5050   32.2070 C   0  0  0  0  0  0  0  0  0  0  0  0
   40.4510   25.4060   32.4640 H   0  0  0  0  0  0  0  0  0  0  0  0
   38.6160   24.4310   31.8270 C   0  0  0  0  0  3  0  0  0  0  0  0
   37.2860   24.6530   31.5190 C   0  0  0  0  0  3  0  0  0  0  0  0
  2  3  1  0  0  0  0
  2  1  1  0  0  0  0
  3 12  1  0  0  0  0
  4  3  2  0  0  0  0
  5  4  1  0  0  0  0
  6  5  2  0  0  0  0
  6  7  1  0  0  0  0
  7  2  2  0  0  0  0
  8  4  1  0  0  0  0
  9  5  1  0  0  0  0
 10  6  1  0  0  0  0
 11 16  1  0  0  0  0
 12 13  1  0  0  0  0
 12 11  2  0  0  0  0
 13 14  2  0  0  0  0
 14 15  1  0  0  0  0
 15 19  1  0  0  0  0
 16 15  2  0  0  0  0
 17 11  1  0  0  0  0
 18 13  1  0  0  0  0
 20 21  1  0  0  0  0
 21 22  1  0  0  0  0
 22  7  1  0  0  0  0
 22 23  2  0  0  0  0
 23 24  1  0  0  0  0
 25 23  1  0  0  0  0
 25 26  1  0  0  0  0
 27 25  2  0  0  0  0
 28 21  2  0  0  0  0
 28 27  1  0  0  0  0
M  END
>  <minimizedAffinity>
-4.96526527

$$$$

 OpenBabel03272505013D

 28 30  0  0  0  0  0  0  0  0999 V2000
   35.4000   24.6720   30.8670 Cl  0  0  0  0  0  0  0  0  0  0  0  0
   36.7180   24.7180   32.0290 C   0  0  0  0  0  0  0  0  0  0  0  0
   37.2510   25.9380   32.3630 C   0  0  0  0  0  0  0  0  0  0  0  0
   38.2850   25.8950   33.2830 C   0  0  0  0  0  0  0  0  0  0  0  0
   38.7300   24.6900   33.8130 C   0  0  0  0  0  0  0  0  0  0  0  0
   38.1620   23.5030   33.4470 C   0  0  0  0  0  0  0  0  0  0  0  0
   37.1260   23.5190   32.5270 C   0  0  0  0  0  0  0  0  0  0  0  0
   38.7610   26.8100   33.6000 H   0  0  0  0  0  0  0  0  0  0  0  0
   39.5320   24.6330   34.5310 H   0  0  0  0  0  0  0  0  0  0  0  0
   38.4830   22.5460   33.8390 H   0  0  0  0  0  0  0  0  0  0  0  0
   37.2460   27.6510   30.5530 C   0  0  0  0  0  0  0  0  0  0  0  0
   36.7980   27.2190   31.8150 C   0  0  0  0  0  0  0  0  0  0  0  0
   35.9230   28.0260   32.5300 C   0  0  0  0  0  0  0  0  0  0  0  0
   35.5480   29.2080   31.9490 N   0  0  0  0  0  0  0  0  0  0  0  0
   35.9840   29.5990   30.7500 C   0  0  0  0  0  0  0  0  0  0  0  0
   36.8370   28.8270   30.0370 N   0  0  0  0  0  0  0  0  0  0  0  0
   37.9290   27.0110   30.0040 H   0  0  0  0  0  0  0  0  0  0  0  0
   35.5830   27.6980   33.4900 H   0  0  0  0  0  0  0  0  0  0  0  0
   35.6520   30.5580   30.3300 H   0  0  0  0  0  0  0  0  0  0  0  0
   38.6700   22.2730   30.3280 Cl  0  0  0  0  0  0  0  0  0  0  0  0
   37.2240   21.6330   31.0970 C   0  0  0  0  0  0  0  0  0  0  0  0
   36.5210   22.2520   32.1360 C   0  0  0  0  0  0  0  0  0  0  0  0
   35.3990   21.6290   32.6440 C   0  0  0  0  0  0  0  0  0  0  0  0
   34.9390   22.1950   33.4380 H   0  0  0  0  0  0  0  0  0  0  0  0
   34.9970   20.4200   32.1210 C   0  0  0  0  0  0  0  0  0  0  0  0
   34.0990   19.9880   32.5750 H   0  0  0  0  0  0  0  0  0  0  0  0
   35.6810   19.8010   31.0980 C   0  0  0  0  0  3  0  0  0  0  0  0
   36.8070   20.4210   30.5870 C   0  0  0  0  0  3  0  0  0  0  0  0
  1  2  1  0  0  0  0
  2  3  2  0  0  0  0
  2  7  1  0  0  0  0
  3  4  1  0  0  0  0
  4  8  1  0  0  0  0
  4  5  2  0  0  0  0
  5  9  1  0  0  0  0
  6  5  1  0  0  0  0
  6 10  1  0  0  0  0
  7  6  2  0  0  0  0
 11 12  1  0  0  0  0
 12  3  1  0  0  0  0
 12 13  2  0  0  0  0
 13 18  1  0  0  0  0
 14 13  1  0  0  0  0
 15 14  2  0  0  0  0
 16 11  2  0  0  0  0
 16 15  1  0  0  0  0
 17 11  1  0  0  0  0
 19 15  1  0  0  0  0
 20 21  1  0  0  0  0
 21 22  1  0  0  0  0
 22  7  1  0  0  0  0
 22 23  2  0  0  0  0
 23 24  1  0  0  0  0
 25 26  1  0  0  0  0
 25 23  1  0  0  0  0
 27 25  2  0  0  0  0
 28 21  2  0  0  0  0
 28 27  1  0  0  0  0
M  END
>  <minimizedAffinity>
-4.90609121

$$$$

 OpenBabel03272505013D

 28 30  0  0  0  0  0  0  0  0999 V2000
   39.5860   25.9350   31.5220 Cl  0  0  0  0  0  0  0  0  0  0  0  0
   39.1570   26.2840   33.1900 C   0  0  0  0  0  0  0  0  0  0  0  0
   40.1410   26.7280   34.0380 C   0  0  0  0  0  0  0  0  0  0  0  0
   39.7280   26.9810   35.3350 C   0  0  0  0  0  0  0  0  0  0  0  0
   38.4070   26.7910   35.7230 C   0  0  0  0  0  0  0  0  0  0  0  0
   37.4660   26.3480   34.8370 C   0  0  0  0  0  0  0  0  0  0  0  0
   37.8550   26.0860   33.5330 C   0  0  0  0  0  0  0  0  0  0  0  0
   40.4390   27.3330   36.0660 H   0  0  0  0  0  0  0  0  0  0  0  0
   38.0630   26.9820   36.7260 H   0  0  0  0  0  0  0  0  0  0  0  0
   36.4290   26.1880   35.1040 H   0  0  0  0  0  0  0  0  0  0  0  0
   41.8660   27.8430   32.6280 C   0  0  0  0  0  0  0  0  0  0  0  0
   41.5390   26.9340   33.6510 C   0  0  0  0  0  0  0  0  0  0  0  0
   42.5590   26.2380   34.2850 C   0  0  0  0  0  0  0  0  0  0  0  0
   43.8380   26.4870   33.8640 N   0  0  0  0  0  0  0  0  0  0  0  0
   44.1290   27.3540   32.8930 C   0  0  0  0  0  0  0  0  0  0  0  0
   43.1480   28.0430   32.2630 N   0  0  0  0  0  0  0  0  0  0  0  0
   41.0600   28.3810   32.1410 H   0  0  0  0  0  0  0  0  0  0  0  0
   42.3100   25.5470   35.0620 H   0  0  0  0  0  0  0  0  0  0  0  0
   45.1730   27.5170   32.5930 H   0  0  0  0  0  0  0  0  0  0  0  0
   36.5010   28.3760   32.2300 Cl  0  0  0  0  0  0  0  0  0  0  0  0
   36.1890   26.6680   31.9520 C   0  0  0  0  0  0  0  0  0  0  0  0
   36.8510   25.6130   32.5880 C   0  0  0  0  0  0  0  0  0  0  0  0
   36.4990   24.3170   32.2670 C   0  0  0  0  0  0  0  0  0  0  0  0
   37.0730   23.5870   32.8170 H   0  0  0  0  0  0  0  0  0  0  0  0
   35.5110   24.0920   31.3360 C   0  0  0  0  0  0  0  0  0  0  0  0
   35.2870   23.0380   31.1340 H   0  0  0  0  0  0  0  0  0  0  0  0
   34.8520   25.1230   30.7030 C   0  0  0  0  0  3  0  0  0  0  0  0
   35.2010   26.4230   31.0210 C   0  0  0  0  0  3  0  0  0  0  0  0
  1  2  1  0  0  0  0
  2  7  2  0  0  0  0
  2  3  1  0  0  0  0
  3  4  2  0  0  0  0
  4  5  1  0  0  0  0
  4  8  1  0  0  0  0
  5  9  1  0  0  0  0
  6 10  1  0  0  0  0
  6  5  2  0  0  0  0
  7  6  1  0  0  0  0
 11 12  1  0  0  0  0
 12  3  1  0  0  0  0
 12 13  2  0  0  0  0
 13 18  1  0  0  0  0
 14 13  1  0  0  0  0
 15 14  2  0  0  0  0
 16 11  2  0  0  0  0
 16 15  1  0  0  0  0
 17 11  1  0  0  0  0
 19 15  1  0  0  0  0
 21 20  1  0  0  0  0
 21 22  1  0  0  0  0
 22  7  1  0  0  0  0
 23 22  2  0  0  0  0
 23 24  1  0  0  0  0
 25 23  1  0  0  0  0
 26 25  1  0  0  0  0
 27 28  1  0  0  0  0
 27 25  2  0  0  0  0
 28 21  2  0  0  0  0
M  END
>  <minimizedAffinity>
-4.89002895

$$$$

 OpenBabel03272505013D

 28 30  0  0  0  0  0  0  0  0999 V2000
   37.7880   25.4350   32.6530 Cl  0  0  0  0  0  0  0  0  0  0  0  0
   39.3490   26.1250   33.0740 C   0  0  0  0  0  0  0  0  0  0  0  0
   39.8980   27.0580   32.2290 C   0  0  0  0  0  0  0  0  0  0  0  0
   41.1280   27.5560   32.6250 C   0  0  0  0  0  0  0  0  0  0  0  0
   41.7380   27.1260   33.7970 C   0  0  0  0  0  0  0  0  0  0  0  0
   41.1460   26.1950   34.6030 C   0  0  0  0  0  0  0  0  0  0  0  0
   39.9150   25.6800   34.2280 C   0  0  0  0  0  0  0  0  0  0  0  0
   41.6290   28.2930   32.0190 H   0  0  0  0  0  0  0  0  0  0  0  0
   42.6940   27.5000   34.1250 H   0  0  0  0  0  0  0  0  0  0  0  0
   41.5920   25.8360   35.5220 H   0  0  0  0  0  0  0  0  0  0  0  0
   38.1170   28.3270   31.0340 C   0  0  0  0  0  0  0  0  0  0  0  0
   39.2730   27.5250   30.9890 C   0  0  0  0  0  0  0  0  0  0  0  0
   39.8090   27.1850   29.7540 C   0  0  0  0  0  0  0  0  0  0  0  0
   39.1650   27.6610   28.6430 N   0  0  0  0  0  0  0  0  0  0  0  0
   38.0700   28.4210   28.7060 C   0  0  0  0  0  0  0  0  0  0  0  0
   37.5330   28.7640   29.9010 N   0  0  0  0  0  0  0  0  0  0  0  0
   37.7090   28.5860   32.0040 H   0  0  0  0  0  0  0  0  0  0  0  0
   40.6870   26.5750   29.7210 H   0  0  0  0  0  0  0  0  0  0  0  0
   37.5930   28.7760   27.7840 H   0  0  0  0  0  0  0  0  0  0  0  0
   38.2880   27.0060   36.3170 Cl  0  0  0  0  0  0  0  0  0  0  0  0
   38.5060   25.2760   36.0880 C   0  0  0  0  0  0  0  0  0  0  0  0
   39.2840   24.6860   35.0870 C   0  0  0  0  0  0  0  0  0  0  0  0
   39.3610   23.3090   35.0290 C   0  0  0  0  0  0  0  0  0  0  0  0
   39.9870   22.9660   34.2200 H   0  0  0  0  0  0  0  0  0  0  0  0
   38.6770   22.5500   35.9520 C   0  0  0  0  0  0  0  0  0  0  0  0
   38.7870   21.4660   35.8420 H   0  0  0  0  0  0  0  0  0  0  0  0
   37.9080   23.1200   36.9420 C   0  0  0  0  0  3  0  0  0  0  0  0
   37.8260   24.4990   37.0040 C   0  0  0  0  0  3  0  0  0  0  0  0
  1  2  1  0  0  0  0
  2  7  1  0  0  0  0
  3  4  1  0  0  0  0
  3  2  2  0  0  0  0
  4  5  2  0  0  0  0
  5  9  1  0  0  0  0
  5  6  1  0  0  0  0
  6 10  1  0  0  0  0
  7  6  2  0  0  0  0
  7 22  1  0  0  0  0
  8  4  1  0  0  0  0
 11 17  1  0  0  0  0
 12 11  1  0  0  0  0
 12  3  1  0  0  0  0
 13 12  2  0  0  0  0
 14 15  2  0  0  0  0
 14 13  1  0  0  0  0
 15 16  1  0  0  0  0
 16 11  2  0  0  0  0
 18 13  1  0  0  0  0
 19 15  1  0  0  0  0
 21 20  1  0  0  0  0
 21 28  1  0  0  0  0
 22 21  2  0  0  0  0
 23 22  1  0  0  0  0
 23 25  2  0  0  0  0
 24 23  1  0  0  0  0
 25 27  1  0  0  0  0
 26 25  1  0  0  0  0
 27 28  2  0  0  0  0
M  END
>  <minimizedAffinity>
-4.86943054

$$$$

 OpenBabel03272505013D

 28 30  0  0  0  0  0  0  0  0999 V2000
   37.1650   21.6590   34.9400 Cl  0  0  0  0  0  0  0  0  0  0  0  0
   38.1730   22.7930   34.0510 C   0  0  0  0  0  0  0  0  0  0  0  0
   38.2450   22.6700   32.6860 C   0  0  0  0  0  0  0  0  0  0  0  0
   39.0570   23.5970   32.0550 C   0  0  0  0  0  0  0  0  0  0  0  0
   39.7380   24.5700   32.7770 C   0  0  0  0  0  0  0  0  0  0  0  0
   39.6300   24.6490   34.1360 C   0  0  0  0  0  0  0  0  0  0  0  0
   38.8230   23.7310   34.7910 C   0  0  0  0  0  0  0  0  0  0  0  0
   39.1700   23.5710   30.9830 H   0  0  0  0  0  0  0  0  0  0  0  0
   40.3740   25.3020   32.3070 H   0  0  0  0  0  0  0  0  0  0  0  0
   40.1450   25.3930   34.7300 H   0  0  0  0  0  0  0  0  0  0  0  0
   38.1800   20.4500   31.5550 C   0  0  0  0  0  0  0  0  0  0  0  0
   37.5370   21.6520   31.9060 C   0  0  0  0  0  0  0  0  0  0  0  0
   36.2240   21.8550   31.5010 C   0  0  0  0  0  0  0  0  0  0  0  0
   35.6340   20.8550   30.7750 N   0  0  0  0  0  0  0  0  0  0  0  0
   36.2610   19.7220   30.4530 C   0  0  0  0  0  0  0  0  0  0  0  0
   37.5410   19.5050   30.8390 N   0  0  0  0  0  0  0  0  0  0  0  0
   39.2050   20.3030   31.8790 H   0  0  0  0  0  0  0  0  0  0  0  0
   35.7360   22.7680   31.7670 H   0  0  0  0  0  0  0  0  0  0  0  0
   35.7410   18.9520   29.8680 H   0  0  0  0  0  0  0  0  0  0  0  0
   40.8540   22.0090   36.0880 Cl  0  0  0  0  0  0  0  0  0  0  0  0
   39.6530   23.0130   36.8900 C   0  0  0  0  0  0  0  0  0  0  0  0
   38.7080   23.8150   36.2410 C   0  0  0  0  0  0  0  0  0  0  0  0
   37.8260   24.5530   37.0050 C   0  0  0  0  0  0  0  0  0  0  0  0
   37.1450   25.1310   36.4010 H   0  0  0  0  0  0  0  0  0  0  0  0
   37.8920   24.4830   38.3780 C   0  0  0  0  0  0  0  0  0  0  0  0
   37.1590   25.0960   38.9150 H   0  0  0  0  0  0  0  0  0  0  0  0
   38.8180   23.6970   39.0280 C   0  0  0  0  0  3  0  0  0  0  0  0
   39.7050   22.9570   38.2670 C   0  0  0  0  0  3  0  0  0  0  0  0
  2  7  1  0  0  0  0
  2  1  1  0  0  0  0
  3  2  2  0  0  0  0
  4  3  1  0  0  0  0
  4  5  2  0  0  0  0
  5  6  1  0  0  0  0
  6 10  1  0  0  0  0
  6  7  2  0  0  0  0
  7 22  1  0  0  0  0
  8  4  1  0  0  0  0
  9  5  1  0  0  0  0
 11 17  1  0  0  0  0
 11 12  1  0  0  0  0
 12  3  1  0  0  0  0
 13 18  1  0  0  0  0
 13 12  2  0  0  0  0
 14 13  1  0  0  0  0
 15 14  2  0  0  0  0
 15 16  1  0  0  0  0
 16 11  2  0  0  0  0
 19 15  1  0  0  0  0
 20 21  1  0  0  0  0
 21 28  1  0  0  0  0
 22 21  2  0  0  0  0
 22 23  1  0  0  0  0
 23 25  2  0  0  0  0
 24 23  1  0  0  0  0
 25 26  1  0  0  0  0
 25 27  1  0  0  0  0
 28 27  2  0  0  0  0
M  END
>  <minimizedAffinity>
-4.82852888

$$$$
