
 OpenBabel03272509213D

 46 50  0  0  0  0  0  0  0  0999 V2000
   38.0050   31.3400   48.2020 C   0  0  0  0  0  0  0  0  0  0  0  0
   37.1930   31.6310   49.2800 C   0  0  0  0  0  0  0  0  0  0  0  0
   37.4310   32.8770   49.8590 C   0  0  0  0  0  0  0  0  0  0  0  0
   38.4130   33.7460   49.3750 C   0  0  0  0  0  0  0  0  0  0  0  0
   39.1940   33.3520   48.2640 C   0  0  0  0  0  0  0  0  0  0  0  0
   38.9700   32.1120   47.6730 C   0  0  0  0  0  0  0  0  0  0  0  0
   36.8120   33.1440   50.7110 H   0  0  0  0  0  0  0  0  0  0  0  0
   38.5820   34.7130   49.8420 H   0  0  0  0  0  0  0  0  0  0  0  0
   39.9410   34.0560   47.9240 H   0  0  0  0  0  0  0  0  0  0  0  0
   34.9500   30.6660   49.1360 C   0  0  0  0  0  0  0  0  0  0  0  0
   36.1880   30.7510   49.7800 C   0  0  0  0  0  0  0  0  0  0  0  0
   36.3760   29.9450   50.9100 C   0  0  0  0  0  0  0  0  0  0  0  0
   35.3810   29.1360   51.3240 N   0  0  0  0  0  0  0  0  0  0  0  0
   34.1850   29.0920   50.6540 C   0  0  0  0  0  0  0  0  0  0  0  0
   33.9810   29.8450   49.5810 N   0  0  0  0  0  0  0  0  0  0  0  0
   34.7700   31.2740   48.2600 H   0  0  0  0  0  0  0  0  0  0  0  0
   33.4100   28.4280   51.0230 H   0  0  0  0  0  0  0  0  0  0  0  0
   37.6840   30.0000   51.6320 C   0  0  0  0  0  0  0  0  0  0  0  0
   37.6200   29.3650   52.5200 H   0  0  0  0  0  0  0  0  0  0  0  0
   37.9490   31.0440   51.8900 H   0  0  0  0  0  0  0  0  0  0  0  0
   38.4220   29.5180   50.9560 H   0  0  0  0  0  0  0  0  0  0  0  0
   37.8460   30.1130   47.5510 O   0  0  0  0  0  0  0  0  0  0  0  0
   37.2280   30.0150   46.7550 H   0  0  0  0  0  0  0  0  0  0  0  0
   39.7690   31.8040   46.5980 O   0  0  0  0  0  0  0  0  0  0  0  0
   39.3180   30.2670   44.6860 C   0  0  0  0  0  0  0  0  0  0  0  0
   39.3470   31.4890   45.3300 C   0  0  0  0  0  0  0  0  0  0  0  0
   38.8970   32.6160   44.6490 C   0  0  0  0  0  0  0  0  0  0  0  0
   38.4220   32.5170   43.3390 C   0  0  0  0  0  0  0  0  0  0  0  0
   37.9320   33.3960   42.4400 N   0  0  0  0  0  0  0  0  0  0  0  0
   37.6160   32.7480   41.2980 C   0  0  0  0  0  0  0  0  0  0  0  0
   37.9160   31.4340   41.4900 N   0  0  0  0  0  0  0  0  0  0  0  0
   38.4100   31.2840   42.7350 C   0  0  0  0  0  0  0  0  0  0  0  0
   38.8540   30.1620   43.4000 C   0  0  0  0  0  0  0  0  0  0  0  0
   39.6840   29.4590   45.2860 H   0  0  0  0  0  0  0  0  0  0  0  0
   38.8650   33.6270   45.0330 H   0  0  0  0  0  0  0  0  0  0  0  0
   37.8140   34.4020   42.5920 H   0  0  0  0  0  0  0  0  0  0  0  0
   37.2000   33.1820   40.3890 H   0  0  0  0  0  0  0  0  0  0  0  0
   41.4370   29.6040   42.1030 Cl  0  0  0  0  0  0  0  0  0  0  0  0
   40.0380   28.5510   42.1420 C   0  0  0  0  0  0  0  0  0  0  0  0
   38.8430   28.8510   42.7630 C   0  0  0  0  0  0  0  0  0  0  0  0
   37.7910   27.9420   42.7350 C   0  0  0  0  0  0  0  0  0  0  0  0
   36.9020   28.2620   43.2450 H   0  0  0  0  0  0  0  0  0  0  0  0
   37.9910   26.7490   42.0730 C   0  0  0  0  0  0  0  0  0  0  0  0
   37.1150   26.0940   42.0990 H   0  0  0  0  0  0  0  0  0  0  0  0
   39.1800   26.4340   41.4470 C   0  0  0  0  0  3  0  0  0  0  0  0
   40.2200   27.3510   41.4830 C   0  0  0  0  0  3  0  0  0  0  0  0
  1  2  1  0  0  0  0
  2 11  1  0  0  0  0
  2  3  2  0  0  0  0
  3  7  1  0  0  0  0
  4  8  1  0  0  0  0
  4  3  1  0  0  0  0
  5  4  2  0  0  0  0
  6  1  2  0  0  0  0
  6  5  1  0  0  0  0
  9  5  1  0  0  0  0
 10 15  2  0  0  0  0
 10 11  1  0  0  0  0
 11 12  2  0  0  0  0
 12 13  1  0  0  0  0
 12 18  1  0  0  0  0
 14 17  1  0  0  0  0
 14 13  2  0  0  0  0
 15 14  1  0  0  0  0
 16 10  1  0  0  0  0
 18 20  1  0  0  0  0
 18 19  1  0  0  0  0
 21 18  1  0  0  0  0
 22  1  1  0  0  0  0
 23 22  1  0  0  0  0
 24  6  1  0  0  0  0
 25 34  1  0  0  0  0
 25 26  1  0  0  0  0
 26 24  1  0  0  0  0
 27 35  1  0  0  0  0
 27 26  2  0  0  0  0
 28 27  1  0  0  0  0
 29 36  1  0  0  0  0
 29 28  1  0  0  0  0
 30 31  2  0  0  0  0
 30 29  1  0  0  0  0
 31 32  1  0  0  0  0
 32 28  2  0  0  0  0
 32 33  1  0  0  0  0
 33 25  2  0  0  0  0
 37 30  1  0  0  0  0
 38 39  1  0  0  0  0
 39 40  1  0  0  0  0
 40 33  1  0  0  0  0
 41 40  2  0  0  0  0
 41 42  1  0  0  0  0
 43 44  1  0  0  0  0
 43 41  1  0  0  0  0
 45 46  1  0  0  0  0
 45 43  2  0  0  0  0
 46 39  2  0  0  0  0
M  END
>  <minimizedAffinity>
-7.26028395

>  <minimizedRMSD>
1.88937998

$$$$
