
 OpenBabel03272501243D

 40 43  0  0  0  0  0  0  0  0999 V2000
   36.7780   28.4940   32.5820 C   0  0  0  0  0  0  0  0  0  0  0  0
   35.8110   29.3400   32.0620 C   0  0  0  0  0  0  0  0  0  0  0  0
   35.9420   29.6380   30.7200 C   0  0  0  0  0  0  0  0  0  0  0  0
   36.9900   29.1090   29.9570 C   0  0  0  0  0  0  0  0  0  0  0  0
   37.9180   28.2720   30.5360 C   0  0  0  0  0  0  0  0  0  0  0  0
   37.8060   27.9610   31.8700 C   0  0  0  0  0  0  0  0  0  0  0  0
   35.1930   30.2990   30.3050 H   0  0  0  0  0  0  0  0  0  0  0  0
   37.0160   29.3960   28.9110 H   0  0  0  0  0  0  0  0  0  0  0  0
   38.7160   27.8760   29.9260 H   0  0  0  0  0  0  0  0  0  0  0  0
   33.4870   29.2760   32.8500 C   0  0  0  0  0  0  0  0  0  0  0  0
   34.7440   29.8780   32.8470 C   0  0  0  0  0  0  0  0  0  0  0  0
   34.8970   31.0240   33.6470 C   0  0  0  0  0  0  0  0  0  0  0  0
   33.8380   31.4770   34.3670 N   0  0  0  0  0  0  0  0  0  0  0  0
   32.6420   30.8540   34.3320 C   0  0  0  0  0  0  0  0  0  0  0  0
   32.4560   29.7490   33.5750 N   0  0  0  0  0  0  0  0  0  0  0  0
   33.3590   28.3900   32.2350 H   0  0  0  0  0  0  0  0  0  0  0  0
   35.8560   31.5230   33.6740 H   0  0  0  0  0  0  0  0  0  0  0  0
   31.8070   31.2310   34.9130 H   0  0  0  0  0  0  0  0  0  0  0  0
   36.7300   28.1330   33.9360 O   0  0  0  0  0  0  0  0  0  0  0  0
   35.8470   27.8420   34.3360 H   0  0  0  0  0  0  0  0  0  0  0  0
   38.7610   27.1070   32.4460 O   0  0  0  0  0  0  0  0  0  0  0  0
   39.4640   26.5530   35.3390 Cl  0  0  0  0  0  0  0  0  0  0  0  0
   38.7300   25.3880   34.2490 C   0  0  0  0  0  0  0  0  0  0  0  0
   38.4930   25.8620   32.9560 C   0  0  0  0  0  0  0  0  0  0  0  0
   37.9160   24.9720   32.0670 C   0  0  0  0  0  0  0  0  0  0  0  0
   37.5780   23.6810   32.4000 C   0  0  0  0  0  0  0  0  0  0  0  0
   37.8180   23.2250   33.6850 C   0  0  0  0  0  0  0  0  0  0  0  0
   38.3940   24.0940   34.5920 C   0  0  0  0  0  0  0  0  0  0  0  0
   37.6910   25.2390   31.0410 H   0  0  0  0  0  0  0  0  0  0  0  0
   37.1260   22.9940   31.6960 H   0  0  0  0  0  0  0  0  0  0  0  0
   37.5830   22.2370   34.0190 H   0  0  0  0  0  0  0  0  0  0  0  0
   41.0090   22.6540   35.2420 Cl  0  0  0  0  0  0  0  0  0  0  0  0
   39.8350   23.1190   36.4550 C   0  0  0  0  0  0  0  0  0  0  0  0
   38.7090   23.7630   35.9800 C   0  0  0  0  0  0  0  0  0  0  0  0
   37.7060   24.1820   36.8410 C   0  0  0  0  0  0  0  0  0  0  0  0
   36.7900   24.6920   36.5660 H   0  0  0  0  0  0  0  0  0  0  0  0
   37.8380   23.9480   38.2110 C   0  0  0  0  0  0  0  0  0  0  0  0
   37.0750   24.2610   38.9150 H   0  0  0  0  0  0  0  0  0  0  0  0
   38.9720   23.3030   38.6570 C   0  0  0  0  0  3  0  0  0  0  0  0
   39.9750   22.8830   37.8080 C   0  0  0  0  0  3  0  0  0  0  0  0
  1 19  1  0  0  0  0
  2  1  1  0  0  0  0
  2 11  1  0  0  0  0
  3  2  2  0  0  0  0
  4  5  2  0  0  0  0
  4  3  1  0  0  0  0
  5  6  1  0  0  0  0
  6 21  1  0  0  0  0
  6  1  2  0  0  0  0
  7  3  1  0  0  0  0
  8  4  1  0  0  0  0
  9  5  1  0  0  0  0
 10 15  1  0  0  0  0
 11 10  2  0  0  0  0
 11 12  1  0  0  0  0
 12 17  1  0  0  0  0
 12 13  2  0  0  0  0
 14 13  1  0  0  0  0
 14 18  1  0  0  0  0
 15 14  2  0  0  0  0
 16 10  1  0  0  0  0
 19 20  1  0  0  0  0
 21 24  1  0  0  0  0
 23 28  1  0  0  0  0
 23 22  1  0  0  0  0
 24 23  2  0  0  0  0
 25 26  2  0  0  0  0
 25 24  1  0  0  0  0
 26 27  1  0  0  0  0
 27 31  1  0  0  0  0
 27 28  2  0  0  0  0
 28 34  1  0  0  0  0
 29 25  1  0  0  0  0
 30 26  1  0  0  0  0
 32 33  1  0  0  0  0
 33 40  1  0  0  0  0
 34 33  2  0  0  0  0
 34 35  1  0  0  0  0
 35 37  2  0  0  0  0
 36 35  1  0  0  0  0
 37 39  1  0  0  0  0
 37 38  1  0  0  0  0
 40 39  2  0  0  0  0
M  END
>  <minimizedAffinity>
-6.37256765

$$$$

 OpenBabel03272501243D

 40 43  0  0  0  0  0  0  0  0999 V2000
   36.1040   28.9030   33.6960 C   0  0  0  0  0  0  0  0  0  0  0  0
   35.6150   30.2000   33.7440 C   0  0  0  0  0  0  0  0  0  0  0  0
   35.7820   30.9400   32.5890 C   0  0  0  0  0  0  0  0  0  0  0  0
   36.4050   30.3950   31.4600 C   0  0  0  0  0  0  0  0  0  0  0  0
   36.8680   29.0980   31.4790 C   0  0  0  0  0  0  0  0  0  0  0  0
   36.7120   28.3430   32.6170 C   0  0  0  0  0  0  0  0  0  0  0  0
   35.4040   31.9530   32.6170 H   0  0  0  0  0  0  0  0  0  0  0  0
   36.4930   31.0480   30.5980 H   0  0  0  0  0  0  0  0  0  0  0  0
   37.3440   28.7010   30.5960 H   0  0  0  0  0  0  0  0  0  0  0  0
   33.6110   30.5900   35.1070 C   0  0  0  0  0  0  0  0  0  0  0  0
   34.9800   30.7500   34.9000 C   0  0  0  0  0  0  0  0  0  0  0  0
   35.6860   31.4720   35.8790 C   0  0  0  0  0  0  0  0  0  0  0  0
   35.0150   31.9650   36.9530 N   0  0  0  0  0  0  0  0  0  0  0  0
   33.6870   31.7790   37.1020 C   0  0  0  0  0  0  0  0  0  0  0  0
   32.9740   31.0910   36.1820 N   0  0  0  0  0  0  0  0  0  0  0  0
   33.0570   30.0330   34.3560 H   0  0  0  0  0  0  0  0  0  0  0  0
   36.7510   31.6200   35.7590 H   0  0  0  0  0  0  0  0  0  0  0  0
   33.1680   32.1810   37.9650 H   0  0  0  0  0  0  0  0  0  0  0  0
   35.9820   28.0730   34.8190 O   0  0  0  0  0  0  0  0  0  0  0  0
   35.0950   28.0290   35.3040 H   0  0  0  0  0  0  0  0  0  0  0  0
   37.1900   27.0220   32.6210 O   0  0  0  0  0  0  0  0  0  0  0  0
   38.2660   24.2400   33.1480 Cl  0  0  0  0  0  0  0  0  0  0  0  0
   36.8650   24.5970   32.1520 C   0  0  0  0  0  0  0  0  0  0  0  0
   36.5470   25.9540   32.0480 C   0  0  0  0  0  0  0  0  0  0  0  0
   35.4490   26.2750   31.2710 C   0  0  0  0  0  0  0  0  0  0  0  0
   34.6820   25.3370   30.6200 C   0  0  0  0  0  0  0  0  0  0  0  0
   35.0070   23.9960   30.7320 C   0  0  0  0  0  0  0  0  0  0  0  0
   36.1010   23.6490   31.5030 C   0  0  0  0  0  0  0  0  0  0  0  0
   35.1180   27.2970   31.1250 H   0  0  0  0  0  0  0  0  0  0  0  0
   33.8240   25.6000   30.0150 H   0  0  0  0  0  0  0  0  0  0  0  0
   34.4610   23.2100   30.2570 H   0  0  0  0  0  0  0  0  0  0  0  0
   38.5770   22.6530   30.0160 Cl  0  0  0  0  0  0  0  0  0  0  0  0
   37.6610   21.6680   31.1360 C   0  0  0  0  0  0  0  0  0  0  0  0
   36.5700   22.2820   31.7180 C   0  0  0  0  0  0  0  0  0  0  0  0
   35.7650   21.6060   32.6220 C   0  0  0  0  0  0  0  0  0  0  0  0
   34.8910   22.0000   33.1290 H   0  0  0  0  0  0  0  0  0  0  0  0
   36.0640   20.2820   32.9490 C   0  0  0  0  0  0  0  0  0  0  0  0
   35.4580   19.7220   33.6530 H   0  0  0  0  0  0  0  0  0  0  0  0
   37.1590   19.6940   32.3540 C   0  0  0  0  0  3  0  0  0  0  0  0
   37.9660   20.3580   31.4520 C   0  0  0  0  0  3  0  0  0  0  0  0
  1  2  1  0  0  0  0
  1 19  1  0  0  0  0
  2 11  1  0  0  0  0
  3  7  1  0  0  0  0
  3  2  2  0  0  0  0
  4  5  2  0  0  0  0
  4  3  1  0  0  0  0
  5  6  1  0  0  0  0
  6 21  1  0  0  0  0
  6  1  2  0  0  0  0
  8  4  1  0  0  0  0
  9  5  1  0  0  0  0
 10 15  1  0  0  0  0
 11 10  2  0  0  0  0
 11 12  1  0  0  0  0
 12 13  2  0  0  0  0
 13 14  1  0  0  0  0
 14 18  1  0  0  0  0
 15 14  2  0  0  0  0
 16 10  1  0  0  0  0
 17 12  1  0  0  0  0
 19 20  1  0  0  0  0
 23 22  1  0  0  0  0
 24 23  1  0  0  0  0
 24 21  1  0  0  0  0
 25 24  2  0  0  0  0
 26 27  2  0  0  0  0
 26 25  1  0  0  0  0
 27 28  1  0  0  0  0
 28 34  1  0  0  0  0
 28 23  2  0  0  0  0
 29 25  1  0  0  0  0
 30 26  1  0  0  0  0
 31 27  1  0  0  0  0
 32 33  1  0  0  0  0
 33 40  2  0  0  0  0
 33 34  1  0  0  0  0
 34 35  2  0  0  0  0
 35 37  1  0  0  0  0
 35 36  1  0  0  0  0
 37 38  1  0  0  0  0
 39 37  2  0  0  0  0
 40 39  1  0  0  0  0
M  END
>  <minimizedAffinity>
-6.23118258

$$$$

 OpenBabel03272501243D

 40 43  0  0  0  0  0  0  0  0999 V2000
   37.3890   25.2130   31.6970 C   0  0  0  0  0  0  0  0  0  0  0  0
   36.8380   23.9570   31.4970 C   0  0  0  0  0  0  0  0  0  0  0  0
   35.5140   23.9460   31.1020 C   0  0  0  0  0  0  0  0  0  0  0  0
   34.7990   25.1360   30.9220 C   0  0  0  0  0  0  0  0  0  0  0  0
   35.4080   26.3520   31.1370 C   0  0  0  0  0  0  0  0  0  0  0  0
   36.7240   26.3870   31.5290 C   0  0  0  0  0  0  0  0  0  0  0  0
   35.0740   22.9700   30.9450 H   0  0  0  0  0  0  0  0  0  0  0  0
   33.7650   25.0330   30.6110 H   0  0  0  0  0  0  0  0  0  0  0  0
   34.8350   27.2550   30.9900 H   0  0  0  0  0  0  0  0  0  0  0  0
   38.2400   22.1440   30.6180 C   0  0  0  0  0  0  0  0  0  0  0  0
   37.5730   22.7460   31.6840 C   0  0  0  0  0  0  0  0  0  0  0  0
   37.6660   22.1010   32.9300 C   0  0  0  0  0  0  0  0  0  0  0  0
   38.3840   20.9520   33.0320 N   0  0  0  0  0  0  0  0  0  0  0  0
   39.0100   20.4140   31.9650 C   0  0  0  0  0  0  0  0  0  0  0  0
   38.9440   21.0040   30.7500 N   0  0  0  0  0  0  0  0  0  0  0  0
   38.1750   22.6350   29.6500 H   0  0  0  0  0  0  0  0  0  0  0  0
   37.1630   22.5330   33.7850 H   0  0  0  0  0  0  0  0  0  0  0  0
   39.5780   19.4960   32.0640 H   0  0  0  0  0  0  0  0  0  0  0  0
   38.7270   25.3280   32.0990 O   0  0  0  0  0  0  0  0  0  0  0  0
   39.4310   24.7760   31.6270 H   0  0  0  0  0  0  0  0  0  0  0  0
   37.3310   27.6360   31.7440 O   0  0  0  0  0  0  0  0  0  0  0  0
   36.2310   28.2660   34.4950 Cl  0  0  0  0  0  0  0  0  0  0  0  0
   36.0670   29.3080   33.0900 C   0  0  0  0  0  0  0  0  0  0  0  0
   36.6550   28.8160   31.9220 C   0  0  0  0  0  0  0  0  0  0  0  0
   36.5460   29.6090   30.7940 C   0  0  0  0  0  0  0  0  0  0  0  0
   35.9030   30.8250   30.7810 C   0  0  0  0  0  0  0  0  0  0  0  0
   35.3270   31.3010   31.9470 C   0  0  0  0  0  0  0  0  0  0  0  0
   35.4200   30.5270   33.0880 C   0  0  0  0  0  0  0  0  0  0  0  0
   36.9660   29.3190   29.8370 H   0  0  0  0  0  0  0  0  0  0  0  0
   35.8260   31.4370   29.8920 H   0  0  0  0  0  0  0  0  0  0  0  0
   34.8110   32.2340   32.0160 H   0  0  0  0  0  0  0  0  0  0  0  0
   32.6040   29.6070   33.8350 Cl  0  0  0  0  0  0  0  0  0  0  0  0
   33.6200   30.5650   34.8910 C   0  0  0  0  0  0  0  0  0  0  0  0
   34.8650   30.8900   34.3890 C   0  0  0  0  0  0  0  0  0  0  0  0
   35.7610   31.6450   35.1300 C   0  0  0  0  0  0  0  0  0  0  0  0
   36.7560   31.9500   34.8250 H   0  0  0  0  0  0  0  0  0  0  0  0
   35.3990   32.0830   36.4060 C   0  0  0  0  0  0  0  0  0  0  0  0
   36.0730   32.6740   37.0150 H   0  0  0  0  0  0  0  0  0  0  0  0
   34.1500   31.7440   36.8810 C   0  0  0  0  0  3  0  0  0  0  0  0
   33.2510   30.9930   36.1510 C   0  0  0  0  0  3  0  0  0  0  0  0
  1 19  1  0  0  0  0
  2 11  1  0  0  0  0
  2  1  2  0  0  0  0
  3  2  1  0  0  0  0
  4  3  2  0  0  0  0
  4  5  1  0  0  0  0
  5  6  2  0  0  0  0
  6  1  1  0  0  0  0
  6 21  1  0  0  0  0
  7  3  1  0  0  0  0
  8  4  1  0  0  0  0
  9  5  1  0  0  0  0
 10 15  2  0  0  0  0
 10 11  1  0  0  0  0
 11 12  2  0  0  0  0
 12 13  1  0  0  0  0
 12 17  1  0  0  0  0
 14 18  1  0  0  0  0
 14 13  2  0  0  0  0
 15 14  1  0  0  0  0
 16 10  1  0  0  0  0
 20 19  1  0  0  0  0
 21 24  1  0  0  0  0
 23 22  1  0  0  0  0
 24 23  2  0  0  0  0
 25 24  1  0  0  0  0
 26 25  2  0  0  0  0
 26 27  1  0  0  0  0
 27 31  1  0  0  0  0
 27 28  2  0  0  0  0
 28 23  1  0  0  0  0
 28 34  1  0  0  0  0
 29 25  1  0  0  0  0
 30 26  1  0  0  0  0
 32 33  1  0  0  0  0
 33 40  1  0  0  0  0
 34 33  2  0  0  0  0
 34 35  1  0  0  0  0
 35 37  2  0  0  0  0
 36 35  1  0  0  0  0
 37 39  1  0  0  0  0
 37 38  1  0  0  0  0
 40 39  2  0  0  0  0
M  END
>  <minimizedAffinity>
-6.22581053

$$$$

 OpenBabel03272501243D

 40 43  0  0  0  0  0  0  0  0999 V2000
   36.7220   28.4280   33.2680 C   0  0  0  0  0  0  0  0  0  0  0  0
   35.6880   29.3220   33.0360 C   0  0  0  0  0  0  0  0  0  0  0  0
   35.4810   29.6580   31.7120 C   0  0  0  0  0  0  0  0  0  0  0  0
   36.2740   29.1180   30.6920 C   0  0  0  0  0  0  0  0  0  0  0  0
   37.2850   28.2330   30.9920 C   0  0  0  0  0  0  0  0  0  0  0  0
   37.5090   27.8840   32.3020 C   0  0  0  0  0  0  0  0  0  0  0  0
   34.6770   30.3560   31.5200 H   0  0  0  0  0  0  0  0  0  0  0  0
   36.0400   29.4370   29.6810 H   0  0  0  0  0  0  0  0  0  0  0  0
   37.8820   27.8300   30.1880 H   0  0  0  0  0  0  0  0  0  0  0  0
   33.5990   29.3840   34.3220 C   0  0  0  0  0  0  0  0  0  0  0  0
   34.8830   29.8700   34.0820 C   0  0  0  0  0  0  0  0  0  0  0  0
   35.3300   30.9110   34.9130 C   0  0  0  0  0  0  0  0  0  0  0  0
   34.5090   31.3810   35.8890 N   0  0  0  0  0  0  0  0  0  0  0  0
   33.2740   30.8730   36.0770 C   0  0  0  0  0  0  0  0  0  0  0  0
   32.8080   29.8710   35.2970 N   0  0  0  0  0  0  0  0  0  0  0  0
   33.2450   28.5790   33.6850 H   0  0  0  0  0  0  0  0  0  0  0  0
   36.3210   31.3180   34.7620 H   0  0  0  0  0  0  0  0  0  0  0  0
   32.6310   31.2610   36.8600 H   0  0  0  0  0  0  0  0  0  0  0  0
   37.0110   28.0260   34.5800 O   0  0  0  0  0  0  0  0  0  0  0  0
   36.2500   27.7520   35.1880 H   0  0  0  0  0  0  0  0  0  0  0  0
   38.5450   26.9810   32.5920 O   0  0  0  0  0  0  0  0  0  0  0  0
   40.0320   26.0440   35.0590 Cl  0  0  0  0  0  0  0  0  0  0  0  0
   38.9410   25.0470   34.1120 C   0  0  0  0  0  0  0  0  0  0  0  0
   38.3630   25.6880   33.0130 C   0  0  0  0  0  0  0  0  0  0  0  0
   37.4970   24.9330   32.2420 C   0  0  0  0  0  0  0  0  0  0  0  0
   37.1930   23.6190   32.5090 C   0  0  0  0  0  0  0  0  0  0  0  0
   37.7720   22.9960   33.6030 C   0  0  0  0  0  0  0  0  0  0  0  0
   38.6420   23.7280   34.3890 C   0  0  0  0  0  0  0  0  0  0  0  0
   36.9970   25.3350   31.3670 H   0  0  0  0  0  0  0  0  0  0  0  0
   36.5130   23.0390   31.9000 H   0  0  0  0  0  0  0  0  0  0  0  0
   37.5860   21.9800   33.8750 H   0  0  0  0  0  0  0  0  0  0  0  0
   37.3990   24.1350   37.1500 Cl  0  0  0  0  0  0  0  0  0  0  0  0
   38.9190   23.3070   36.8870 C   0  0  0  0  0  0  0  0  0  0  0  0
   39.3300   23.2150   35.5710 C   0  0  0  0  0  0  0  0  0  0  0  0
   40.5160   22.5840   35.2340 C   0  0  0  0  0  0  0  0  0  0  0  0
   40.9210   22.4610   34.2360 H   0  0  0  0  0  0  0  0  0  0  0  0
   41.3090   22.0310   36.2410 C   0  0  0  0  0  0  0  0  0  0  0  0
   42.2430   21.5280   36.0160 H   0  0  0  0  0  0  0  0  0  0  0  0
   40.8760   22.1370   37.5450 C   0  0  0  0  0  3  0  0  0  0  0  0
   39.6960   22.7640   37.8920 C   0  0  0  0  0  3  0  0  0  0  0  0
  1 19  1  0  0  0  0
  2  1  1  0  0  0  0
  2 11  1  0  0  0  0
  3  2  2  0  0  0  0
  4  5  2  0  0  0  0
  4  3  1  0  0  0  0
  5  6  1  0  0  0  0
  6 21  1  0  0  0  0
  6  1  2  0  0  0  0
  7  3  1  0  0  0  0
  8  4  1  0  0  0  0
  9  5  1  0  0  0  0
 10 15  1  0  0  0  0
 11 10  2  0  0  0  0
 11 12  1  0  0  0  0
 12 13  2  0  0  0  0
 13 14  1  0  0  0  0
 14 18  1  0  0  0  0
 15 14  2  0  0  0  0
 16 10  1  0  0  0  0
 17 12  1  0  0  0  0
 19 20  1  0  0  0  0
 21 24  1  0  0  0  0
 23 28  1  0  0  0  0
 23 22  1  0  0  0  0
 24 23  2  0  0  0  0
 25 26  2  0  0  0  0
 25 24  1  0  0  0  0
 26 27  1  0  0  0  0
 27 31  1  0  0  0  0
 27 28  2  0  0  0  0
 28 34  1  0  0  0  0
 29 25  1  0  0  0  0
 30 26  1  0  0  0  0
 33 32  1  0  0  0  0
 33 40  1  0  0  0  0
 34 33  2  0  0  0  0
 35 34  1  0  0  0  0
 35 37  2  0  0  0  0
 36 35  1  0  0  0  0
 37 39  1  0  0  0  0
 38 37  1  0  0  0  0
 39 40  2  0  0  0  0
M  END
>  <minimizedAffinity>
-6.22332573

$$$$

 OpenBabel03272501243D

 40 43  0  0  0  0  0  0  0  0999 V2000
   36.5340   28.1270   33.6550 C   0  0  0  0  0  0  0  0  0  0  0  0
   35.9330   29.3610   33.4600 C   0  0  0  0  0  0  0  0  0  0  0  0
   36.0240   29.8700   32.1790 C   0  0  0  0  0  0  0  0  0  0  0  0
   36.6830   29.1680   31.1630 C   0  0  0  0  0  0  0  0  0  0  0  0
   37.2590   27.9440   31.4240 C   0  0  0  0  0  0  0  0  0  0  0  0
   37.1800   27.4180   32.6910 C   0  0  0  0  0  0  0  0  0  0  0  0
   35.5590   30.8330   32.0180 H   0  0  0  0  0  0  0  0  0  0  0  0
   36.7060   29.6420   30.1880 H   0  0  0  0  0  0  0  0  0  0  0  0
   37.7600   27.4220   30.6240 H   0  0  0  0  0  0  0  0  0  0  0  0
   35.9650   30.9300   35.3480 C   0  0  0  0  0  0  0  0  0  0  0  0
   35.2620   30.0730   34.5020 C   0  0  0  0  0  0  0  0  0  0  0  0
   33.8810   29.9540   34.7320 C   0  0  0  0  0  0  0  0  0  0  0  0
   33.3110   30.6620   35.7410 N   0  0  0  0  0  0  0  0  0  0  0  0
   34.0400   31.4780   36.5300 C   0  0  0  0  0  0  0  0  0  0  0  0
   35.3720   31.6200   36.3410 N   0  0  0  0  0  0  0  0  0  0  0  0
   37.0340   31.0290   35.1790 H   0  0  0  0  0  0  0  0  0  0  0  0
   33.2960   29.2990   34.0990 H   0  0  0  0  0  0  0  0  0  0  0  0
   33.5690   32.0360   37.3320 H   0  0  0  0  0  0  0  0  0  0  0  0
   36.4950   27.5280   34.9220 O   0  0  0  0  0  0  0  0  0  0  0  0
   35.6190   27.5050   35.4280 H   0  0  0  0  0  0  0  0  0  0  0  0
   37.7720   26.1690   32.9420 O   0  0  0  0  0  0  0  0  0  0  0  0
   38.3370   23.4900   34.2360 Cl  0  0  0  0  0  0  0  0  0  0  0  0
   39.4540   24.8450   34.2150 C   0  0  0  0  0  0  0  0  0  0  0  0
   38.9830   25.9850   33.5590 C   0  0  0  0  0  0  0  0  0  0  0  0
   39.8350   27.0740   33.5230 C   0  0  0  0  0  0  0  0  0  0  0  0
   41.0890   27.0750   34.0880 C   0  0  0  0  0  0  0  0  0  0  0  0
   41.5440   25.9370   34.7340 C   0  0  0  0  0  0  0  0  0  0  0  0
   40.7110   24.8350   34.7860 C   0  0  0  0  0  0  0  0  0  0  0  0
   39.5660   28.0070   33.0390 H   0  0  0  0  0  0  0  0  0  0  0  0
   41.7470   27.9320   34.0530 H   0  0  0  0  0  0  0  0  0  0  0  0
   42.5030   25.8600   35.1970 H   0  0  0  0  0  0  0  0  0  0  0  0
   42.3360   22.7510   33.2520 Cl  0  0  0  0  0  0  0  0  0  0  0  0
   41.7650   22.5170   34.8900 C   0  0  0  0  0  0  0  0  0  0  0  0
   41.0450   23.5670   35.4280 C   0  0  0  0  0  0  0  0  0  0  0  0
   40.5390   23.5020   36.7170 C   0  0  0  0  0  0  0  0  0  0  0  0
   39.9650   24.2690   37.2250 H   0  0  0  0  0  0  0  0  0  0  0  0
   40.7620   22.3570   37.4840 C   0  0  0  0  0  0  0  0  0  0  0  0
   40.3830   22.2700   38.4960 H   0  0  0  0  0  0  0  0  0  0  0  0
   41.4840   21.3260   36.9230 C   0  0  0  0  0  3  0  0  0  0  0  0
   41.9910   21.3800   35.6400 C   0  0  0  0  0  3  0  0  0  0  0  0
  1 19  1  0  0  0  0
  2  1  1  0  0  0  0
  2 11  1  0  0  0  0
  3  2  2  0  0  0  0
  4  5  2  0  0  0  0
  4  3  1  0  0  0  0
  5  6  1  0  0  0  0
  6 21  1  0  0  0  0
  6  1  2  0  0  0  0
  7  3  1  0  0  0  0
  8  4  1  0  0  0  0
  9  5  1  0  0  0  0
 10 15  1  0  0  0  0
 11 12  1  0  0  0  0
 11 10  2  0  0  0  0
 12 13  2  0  0  0  0
 13 14  1  0  0  0  0
 14 18  1  0  0  0  0
 15 14  2  0  0  0  0
 16 10  1  0  0  0  0
 17 12  1  0  0  0  0
 19 20  1  0  0  0  0
 21 24  1  0  0  0  0
 23 22  1  0  0  0  0
 23 28  1  0  0  0  0
 24 23  2  0  0  0  0
 25 24  1  0  0  0  0
 25 26  2  0  0  0  0
 26 27  1  0  0  0  0
 27 28  2  0  0  0  0
 27 31  1  0  0  0  0
 28 34  1  0  0  0  0
 29 25  1  0  0  0  0
 30 26  1  0  0  0  0
 32 33  1  0  0  0  0
 33 34  2  0  0  0  0
 33 40  1  0  0  0  0
 34 35  1  0  0  0  0
 35 36  1  0  0  0  0
 35 37  2  0  0  0  0
 37 38  1  0  0  0  0
 39 37  1  0  0  0  0
 40 39  2  0  0  0  0
M  END
>  <minimizedAffinity>
-6.09154606

$$$$

 OpenBabel03272501243D

 40 43  0  0  0  0  0  0  0  0999 V2000
   36.7160   27.8910   32.4200 C   0  0  0  0  0  0  0  0  0  0  0  0
   35.9590   29.0280   32.1800 C   0  0  0  0  0  0  0  0  0  0  0  0
   36.1360   29.6060   30.9380 C   0  0  0  0  0  0  0  0  0  0  0  0
   37.0240   29.0630   30.0020 C   0  0  0  0  0  0  0  0  0  0  0  0
   37.7450   27.9300   30.3040 C   0  0  0  0  0  0  0  0  0  0  0  0
   37.5850   27.3370   31.5340 C   0  0  0  0  0  0  0  0  0  0  0  0
   35.5500   30.4950   30.7410 H   0  0  0  0  0  0  0  0  0  0  0  0
   37.0990   29.5820   29.0520 H   0  0  0  0  0  0  0  0  0  0  0  0
   38.4230   27.5300   29.5660 H   0  0  0  0  0  0  0  0  0  0  0  0
   35.5240   30.3470   34.2030 C   0  0  0  0  0  0  0  0  0  0  0  0
   35.0550   29.5780   33.1400 C   0  0  0  0  0  0  0  0  0  0  0  0
   33.6650   29.3790   33.0700 C   0  0  0  0  0  0  0  0  0  0  0  0
   32.8660   29.9330   34.0190 N   0  0  0  0  0  0  0  0  0  0  0  0
   33.3750   30.6710   35.0270 C   0  0  0  0  0  0  0  0  0  0  0  0
   34.7060   30.8850   35.1290 N   0  0  0  0  0  0  0  0  0  0  0  0
   36.5970   30.5070   34.2660 H   0  0  0  0  0  0  0  0  0  0  0  0
   33.2570   28.7870   32.2610 H   0  0  0  0  0  0  0  0  0  0  0  0
   32.7220   31.1050   35.7770 H   0  0  0  0  0  0  0  0  0  0  0  0
   36.6060   27.2320   33.6520 O   0  0  0  0  0  0  0  0  0  0  0  0
   35.6870   27.0520   34.0330 H   0  0  0  0  0  0  0  0  0  0  0  0
   38.3280   26.1810   31.8280 O   0  0  0  0  0  0  0  0  0  0  0  0
   38.2420   23.7810   33.6730 Cl  0  0  0  0  0  0  0  0  0  0  0  0
   39.4210   25.0790   33.7770 C   0  0  0  0  0  0  0  0  0  0  0  0
   39.2710   26.0860   32.8200 C   0  0  0  0  0  0  0  0  0  0  0  0
   40.1810   27.1270   32.8700 C   0  0  0  0  0  0  0  0  0  0  0  0
   41.1950   27.2030   33.7960 C   0  0  0  0  0  0  0  0  0  0  0  0
   41.3330   26.1960   34.7380 C   0  0  0  0  0  0  0  0  0  0  0  0
   40.4360   25.1450   34.7100 C   0  0  0  0  0  0  0  0  0  0  0  0
   40.1530   27.9580   32.1750 H   0  0  0  0  0  0  0  0  0  0  0  0
   41.9020   28.0210   33.8250 H   0  0  0  0  0  0  0  0  0  0  0  0
   42.0940   26.1840   35.4880 H   0  0  0  0  0  0  0  0  0  0  0  0
   38.2940   24.9440   36.8790 Cl  0  0  0  0  0  0  0  0  0  0  0  0
   39.5670   23.7610   36.6650 C   0  0  0  0  0  0  0  0  0  0  0  0
   40.4480   24.0130   35.6320 C   0  0  0  0  0  0  0  0  0  0  0  0
   41.4990   23.1500   35.3610 C   0  0  0  0  0  0  0  0  0  0  0  0
   42.2390   23.2600   34.5770 H   0  0  0  0  0  0  0  0  0  0  0  0
   41.6680   22.0080   36.1460 C   0  0  0  0  0  0  0  0  0  0  0  0
   42.4770   21.3090   35.9640 H   0  0  0  0  0  0  0  0  0  0  0  0
   40.7740   21.7820   37.1700 C   0  0  0  0  0  3  0  0  0  0  0  0
   39.7250   22.6340   37.4480 C   0  0  0  0  0  3  0  0  0  0  0  0
  1 19  1  0  0  0  0
  2  1  1  0  0  0  0
  2 11  1  0  0  0  0
  3  2  2  0  0  0  0
  4  5  2  0  0  0  0
  4  3  1  0  0  0  0
  5  6  1  0  0  0  0
  6 21  1  0  0  0  0
  6  1  2  0  0  0  0
  7  3  1  0  0  0  0
  8  4  1  0  0  0  0
  9  5  1  0  0  0  0
 10 16  1  0  0  0  0
 10 15  1  0  0  0  0
 11 10  2  0  0  0  0
 12 11  1  0  0  0  0
 12 13  2  0  0  0  0
 13 14  1  0  0  0  0
 14 15  2  0  0  0  0
 14 18  1  0  0  0  0
 17 12  1  0  0  0  0
 19 20  1  0  0  0  0
 21 24  1  0  0  0  0
 22 23  1  0  0  0  0
 23 28  1  0  0  0  0
 24 25  1  0  0  0  0
 24 23  2  0  0  0  0
 25 26  2  0  0  0  0
 26 30  1  0  0  0  0
 26 27  1  0  0  0  0
 27 31  1  0  0  0  0
 28 27  2  0  0  0  0
 28 34  1  0  0  0  0
 29 25  1  0  0  0  0
 33 32  1  0  0  0  0
 33 40  1  0  0  0  0
 34 33  2  0  0  0  0
 35 34  1  0  0  0  0
 35 37  2  0  0  0  0
 36 35  1  0  0  0  0
 37 39  1  0  0  0  0
 38 37  1  0  0  0  0
 39 40  2  0  0  0  0
M  END
>  <minimizedAffinity>
-6.03085089

$$$$

 OpenBabel03272501243D

 40 43  0  0  0  0  0  0  0  0999 V2000
   36.8400   27.8530   33.7860 C   0  0  0  0  0  0  0  0  0  0  0  0
   35.8780   28.7810   33.4180 C   0  0  0  0  0  0  0  0  0  0  0  0
   35.5850   28.8290   32.0690 C   0  0  0  0  0  0  0  0  0  0  0  0
   36.2290   27.9870   31.1550 C   0  0  0  0  0  0  0  0  0  0  0  0
   37.1760   27.0850   31.5870 C   0  0  0  0  0  0  0  0  0  0  0  0
   37.4820   27.0190   32.9260 C   0  0  0  0  0  0  0  0  0  0  0  0
   34.8370   29.5520   31.7720 H   0  0  0  0  0  0  0  0  0  0  0  0
   35.9370   28.0930   30.1150 H   0  0  0  0  0  0  0  0  0  0  0  0
   37.6570   26.4460   30.8630 H   0  0  0  0  0  0  0  0  0  0  0  0
   33.8650   29.4980   34.6250 C   0  0  0  0  0  0  0  0  0  0  0  0
   35.2250   29.6390   34.3570 C   0  0  0  0  0  0  0  0  0  0  0  0
   35.9030   30.6550   35.0510 C   0  0  0  0  0  0  0  0  0  0  0  0
   35.2160   31.4320   35.9300 N   0  0  0  0  0  0  0  0  0  0  0  0
   33.8980   31.2510   36.1510 C   0  0  0  0  0  0  0  0  0  0  0  0
   33.2110   30.2830   35.5020 N   0  0  0  0  0  0  0  0  0  0  0  0
   33.3320   28.7140   34.0940 H   0  0  0  0  0  0  0  0  0  0  0  0
   36.9610   30.8000   34.8730 H   0  0  0  0  0  0  0  0  0  0  0  0
   33.3660   31.8810   36.8550 H   0  0  0  0  0  0  0  0  0  0  0  0
   37.2050   27.7280   35.1340 O   0  0  0  0  0  0  0  0  0  0  0  0
   36.4800   27.6870   35.8380 H   0  0  0  0  0  0  0  0  0  0  0  0
   38.4500   26.0940   33.3510 O   0  0  0  0  0  0  0  0  0  0  0  0
   37.5900   23.9830   31.3570 Cl  0  0  0  0  0  0  0  0  0  0  0  0
   37.7690   23.7130   33.0820 C   0  0  0  0  0  0  0  0  0  0  0  0
   38.1780   24.8310   33.8130 C   0  0  0  0  0  0  0  0  0  0  0  0
   38.3300   24.6570   35.1770 C   0  0  0  0  0  0  0  0  0  0  0  0
   38.1010   23.4620   35.8190 C   0  0  0  0  0  0  0  0  0  0  0  0
   37.6980   22.3610   35.0820 C   0  0  0  0  0  0  0  0  0  0  0  0
   37.5380   22.5090   33.7170 C   0  0  0  0  0  0  0  0  0  0  0  0
   38.6420   25.4610   35.8350 H   0  0  0  0  0  0  0  0  0  0  0  0
   38.2240   23.3380   36.8870 H   0  0  0  0  0  0  0  0  0  0  0  0
   37.5010   21.4010   35.5070 H   0  0  0  0  0  0  0  0  0  0  0  0
   39.6410   20.6830   32.4620 Cl  0  0  0  0  0  0  0  0  0  0  0  0
   37.9250   20.5350   32.1530 C   0  0  0  0  0  0  0  0  0  0  0  0
   37.1190   21.4460   32.8070 C   0  0  0  0  0  0  0  0  0  0  0  0
   35.7420   21.4320   32.6430 C   0  0  0  0  0  0  0  0  0  0  0  0
   35.0290   22.1010   33.1110 H   0  0  0  0  0  0  0  0  0  0  0  0
   35.1620   20.4790   31.8040 C   0  0  0  0  0  0  0  0  0  0  0  0
   34.0890   20.4360   31.6520 H   0  0  0  0  0  0  0  0  0  0  0  0
   35.9900   19.5820   31.1650 C   0  0  0  0  0  3  0  0  0  0  0  0
   37.3610   19.5880   31.3200 C   0  0  0  0  0  3  0  0  0  0  0  0
  1 19  1  0  0  0  0
  2  1  1  0  0  0  0
  2 11  1  0  0  0  0
  3  2  2  0  0  0  0
  4  5  2  0  0  0  0
  4  3  1  0  0  0  0
  5  6  1  0  0  0  0
  6 21  1  0  0  0  0
  6  1  2  0  0  0  0
  7  3  1  0  0  0  0
  8  4  1  0  0  0  0
  9  5  1  0  0  0  0
 10 15  1  0  0  0  0
 11 10  2  0  0  0  0
 11 12  1  0  0  0  0
 12 13  2  0  0  0  0
 13 14  1  0  0  0  0
 14 18  1  0  0  0  0
 15 14  2  0  0  0  0
 16 10  1  0  0  0  0
 17 12  1  0  0  0  0
 19 20  1  0  0  0  0
 21 24  1  0  0  0  0
 22 23  1  0  0  0  0
 23 28  2  0  0  0  0
 23 24  1  0  0  0  0
 24 25  2  0  0  0  0
 25 26  1  0  0  0  0
 25 29  1  0  0  0  0
 26 30  1  0  0  0  0
 27 31  1  0  0  0  0
 27 26  2  0  0  0  0
 28 27  1  0  0  0  0
 33 32  1  0  0  0  0
 33 34  1  0  0  0  0
 34 28  1  0  0  0  0
 35 34  2  0  0  0  0
 35 36  1  0  0  0  0
 37 35  1  0  0  0  0
 38 37  1  0  0  0  0
 39 40  1  0  0  0  0
 39 37  2  0  0  0  0
 40 33  2  0  0  0  0
M  END
>  <minimizedAffinity>
-5.99499273

$$$$

 OpenBabel03272501243D

 40 43  0  0  0  0  0  0  0  0999 V2000
   39.1690   27.8830   30.1730 C   0  0  0  0  0  0  0  0  0  0  0  0
   38.6930   28.4340   28.9930 C   0  0  0  0  0  0  0  0  0  0  0  0
   37.4080   28.9390   29.0510 C   0  0  0  0  0  0  0  0  0  0  0  0
   36.6580   28.8870   30.2320 C   0  0  0  0  0  0  0  0  0  0  0  0
   37.1920   28.3260   31.3710 C   0  0  0  0  0  0  0  0  0  0  0  0
   38.4690   27.8180   31.3370 C   0  0  0  0  0  0  0  0  0  0  0  0
   37.0270   29.3700   28.1350 H   0  0  0  0  0  0  0  0  0  0  0  0
   35.6590   29.3070   30.1860 H   0  0  0  0  0  0  0  0  0  0  0  0
   36.5950   28.2990   32.2680 H   0  0  0  0  0  0  0  0  0  0  0  0
   39.9540   29.6950   27.3070 C   0  0  0  0  0  0  0  0  0  0  0  0
   39.4630   28.4830   27.7910 C   0  0  0  0  0  0  0  0  0  0  0  0
   39.7650   27.3350   27.0380 C   0  0  0  0  0  0  0  0  0  0  0  0
   40.5040   27.4590   25.9050 N   0  0  0  0  0  0  0  0  0  0  0  0
   40.9550   28.6590   25.4830 C   0  0  0  0  0  0  0  0  0  0  0  0
   40.6850   29.7860   26.1800 N   0  0  0  0  0  0  0  0  0  0  0  0
   39.7260   30.5890   27.8820 H   0  0  0  0  0  0  0  0  0  0  0  0
   39.4040   26.3730   27.3770 H   0  0  0  0  0  0  0  0  0  0  0  0
   41.5420   28.7390   24.5760 H   0  0  0  0  0  0  0  0  0  0  0  0
   40.4630   27.3440   30.2150 O   0  0  0  0  0  0  0  0  0  0  0  0
   41.2270   27.8710   29.8130 H   0  0  0  0  0  0  0  0  0  0  0  0
   39.0000   27.2490   32.5060 O   0  0  0  0  0  0  0  0  0  0  0  0
   39.6060   26.6320   35.4090 Cl  0  0  0  0  0  0  0  0  0  0  0  0
   38.8630   25.5080   34.2830 C   0  0  0  0  0  0  0  0  0  0  0  0
   38.6760   26.0070   32.9910 C   0  0  0  0  0  0  0  0  0  0  0  0
   38.0930   25.1500   32.0750 C   0  0  0  0  0  0  0  0  0  0  0  0
   37.7020   23.8670   32.3800 C   0  0  0  0  0  0  0  0  0  0  0  0
   37.8920   23.3860   33.6650 C   0  0  0  0  0  0  0  0  0  0  0  0
   38.4730   24.2220   34.5990 C   0  0  0  0  0  0  0  0  0  0  0  0
   37.9040   25.4390   31.0470 H   0  0  0  0  0  0  0  0  0  0  0  0
   37.2450   23.2060   31.6550 H   0  0  0  0  0  0  0  0  0  0  0  0
   37.6150   22.4020   33.9780 H   0  0  0  0  0  0  0  0  0  0  0  0
   41.0630   22.7660   35.3090 Cl  0  0  0  0  0  0  0  0  0  0  0  0
   39.8480   23.2070   36.4890 C   0  0  0  0  0  0  0  0  0  0  0  0
   38.7390   23.8620   35.9890 C   0  0  0  0  0  0  0  0  0  0  0  0
   37.7080   24.2630   36.8240 C   0  0  0  0  0  0  0  0  0  0  0  0
   36.8020   24.7810   36.5280 H   0  0  0  0  0  0  0  0  0  0  0  0
   37.7910   24.0010   38.1920 C   0  0  0  0  0  0  0  0  0  0  0  0
   37.0050   24.3000   38.8760 H   0  0  0  0  0  0  0  0  0  0  0  0
   38.9090   23.3460   38.6640 C   0  0  0  0  0  3  0  0  0  0  0  0
   39.9410   22.9420   37.8420 C   0  0  0  0  0  3  0  0  0  0  0  0
  1 19  1  0  0  0  0
  1  6  1  0  0  0  0
  2  3  1  0  0  0  0
  2  1  2  0  0  0  0
  3  4  2  0  0  0  0
  4  5  1  0  0  0  0
  5  9  1  0  0  0  0
  6  5  2  0  0  0  0
  6 21  1  0  0  0  0
  7  3  1  0  0  0  0
  8  4  1  0  0  0  0
 10 11  1  0  0  0  0
 10 16  1  0  0  0  0
 11  2  1  0  0  0  0
 12 17  1  0  0  0  0
 12 11  2  0  0  0  0
 13 12  1  0  0  0  0
 14 13  2  0  0  0  0
 14 15  1  0  0  0  0
 15 10  2  0  0  0  0
 18 14  1  0  0  0  0
 20 19  1  0  0  0  0
 21 24  1  0  0  0  0
 23 28  1  0  0  0  0
 23 22  1  0  0  0  0
 24 23  2  0  0  0  0
 25 26  2  0  0  0  0
 25 24  1  0  0  0  0
 26 27  1  0  0  0  0
 27 31  1  0  0  0  0
 27 28  2  0  0  0  0
 28 34  1  0  0  0  0
 29 25  1  0  0  0  0
 30 26  1  0  0  0  0
 32 33  1  0  0  0  0
 33 40  1  0  0  0  0
 34 33  2  0  0  0  0
 34 35  1  0  0  0  0
 35 37  2  0  0  0  0
 36 35  1  0  0  0  0
 37 39  1  0  0  0  0
 37 38  1  0  0  0  0
 40 39  2  0  0  0  0
M  END
>  <minimizedAffinity>
-5.90653181

$$$$

 OpenBabel03272501243D

 40 43  0  0  0  0  0  0  0  0999 V2000
   38.6250   25.4680   33.9240 C   0  0  0  0  0  0  0  0  0  0  0  0
   38.5150   24.1270   34.2580 C   0  0  0  0  0  0  0  0  0  0  0  0
   37.7220   23.3690   33.4170 C   0  0  0  0  0  0  0  0  0  0  0  0
   37.0850   23.9400   32.3090 C   0  0  0  0  0  0  0  0  0  0  0  0
   37.2370   25.2800   32.0330 C   0  0  0  0  0  0  0  0  0  0  0  0
   38.0210   26.0530   32.8560 C   0  0  0  0  0  0  0  0  0  0  0  0
   37.6290   22.3210   33.6700 H   0  0  0  0  0  0  0  0  0  0  0  0
   36.4830   23.2710   31.7030 H   0  0  0  0  0  0  0  0  0  0  0  0
   36.7360   25.6960   31.1720 H   0  0  0  0  0  0  0  0  0  0  0  0
   40.4060   22.9240   35.2590 C   0  0  0  0  0  0  0  0  0  0  0  0
   39.1680   23.5510   35.3910 C   0  0  0  0  0  0  0  0  0  0  0  0
   38.6100   23.5810   36.6810 C   0  0  0  0  0  0  0  0  0  0  0  0
   39.2900   23.0130   37.7120 N   0  0  0  0  0  0  0  0  0  0  0  0
   40.4870   22.4190   37.5260 C   0  0  0  0  0  0  0  0  0  0  0  0
   41.0550   22.3700   36.3000 N   0  0  0  0  0  0  0  0  0  0  0  0
   40.8450   22.8960   34.2650 H   0  0  0  0  0  0  0  0  0  0  0  0
   37.6500   24.0570   36.8290 H   0  0  0  0  0  0  0  0  0  0  0  0
   41.0150   21.9700   38.3600 H   0  0  0  0  0  0  0  0  0  0  0  0
   39.4070   26.3190   34.7170 O   0  0  0  0  0  0  0  0  0  0  0  0
   40.3290   26.0160   35.0010 H   0  0  0  0  0  0  0  0  0  0  0  0
   38.1670   27.4190   32.5610 O   0  0  0  0  0  0  0  0  0  0  0  0
   36.5590   28.1950   35.0080 Cl  0  0  0  0  0  0  0  0  0  0  0  0
   36.2610   28.7960   33.3850 C   0  0  0  0  0  0  0  0  0  0  0  0
   37.1290   28.3030   32.4070 C   0  0  0  0  0  0  0  0  0  0  0  0
   36.9250   28.7530   31.1150 C   0  0  0  0  0  0  0  0  0  0  0  0
   35.9320   29.6410   30.7700 C   0  0  0  0  0  0  0  0  0  0  0  0
   35.0800   30.1230   31.7490 C   0  0  0  0  0  0  0  0  0  0  0  0
   35.2620   29.6870   33.0490 C   0  0  0  0  0  0  0  0  0  0  0  0
   37.5410   28.4320   30.2830 H   0  0  0  0  0  0  0  0  0  0  0  0
   35.7830   29.9870   29.7560 H   0  0  0  0  0  0  0  0  0  0  0  0
   34.2870   30.8130   31.5600 H   0  0  0  0  0  0  0  0  0  0  0  0
   36.1480   32.0680   34.7460 Cl  0  0  0  0  0  0  0  0  0  0  0  0
   34.6940   31.1460   35.0590 C   0  0  0  0  0  0  0  0  0  0  0  0
   34.4490   30.1020   34.1890 C   0  0  0  0  0  0  0  0  0  0  0  0
   33.3290   29.2970   34.3320 C   0  0  0  0  0  0  0  0  0  0  0  0
   33.0510   28.4590   33.7030 H   0  0  0  0  0  0  0  0  0  0  0  0
   32.4340   29.5470   35.3740 C   0  0  0  0  0  0  0  0  0  0  0  0
   31.5470   28.9410   35.5180 H   0  0  0  0  0  0  0  0  0  0  0  0
   32.7030   30.5960   36.2280 C   0  0  0  0  0  3  0  0  0  0  0  0
   33.8150   31.4020   36.0940 C   0  0  0  0  0  3  0  0  0  0  0  0
  1  2  1  0  0  0  0
  1 19  1  0  0  0  0
  2 11  1  0  0  0  0
  3  7  1  0  0  0  0
  3  2  2  0  0  0  0
  4  3  1  0  0  0  0
  5  4  2  0  0  0  0
  5  6  1  0  0  0  0
  6  1  2  0  0  0  0
  8  4  1  0  0  0  0
  9  5  1  0  0  0  0
 10 11  2  0  0  0  0
 10 15  1  0  0  0  0
 11 12  1  0  0  0  0
 12 17  1  0  0  0  0
 12 13  2  0  0  0  0
 14 13  1  0  0  0  0
 14 18  1  0  0  0  0
 15 14  2  0  0  0  0
 16 10  1  0  0  0  0
 19 20  1  0  0  0  0
 21  6  1  0  0  0  0
 23 22  1  0  0  0  0
 24 21  1  0  0  0  0
 24 23  2  0  0  0  0
 25 24  1  0  0  0  0
 26 25  2  0  0  0  0
 26 27  1  0  0  0  0
 27 28  2  0  0  0  0
 28 23  1  0  0  0  0
 28 34  1  0  0  0  0
 29 25  1  0  0  0  0
 30 26  1  0  0  0  0
 31 27  1  0  0  0  0
 32 33  1  0  0  0  0
 33 40  1  0  0  0  0
 34 35  1  0  0  0  0
 34 33  2  0  0  0  0
 35 37  2  0  0  0  0
 36 35  1  0  0  0  0
 37 38  1  0  0  0  0
 37 39  1  0  0  0  0
 40 39  2  0  0  0  0
M  END
>  <minimizedAffinity>
-5.90072107

$$$$
