
 OpenBabel03272509023D

 41 44  0  0  0  0  0  0  0  0999 V2000
   36.1790   30.8020   43.7730 C   0  0  0  0  0  0  0  0  0  0  0  0
   36.5810   31.1860   42.8060 H   0  0  0  0  0  0  0  0  0  0  0  0
   35.3180   31.4720   44.0050 H   0  0  0  0  0  0  0  0  0  0  0  0
   38.1960   28.8950   42.5920 Cl  0  0  0  0  0  0  0  0  0  0  0  0
   36.5930   28.4940   43.0880 C   0  0  0  0  0  0  0  0  0  0  0  0
   36.1500   27.1810   42.9490 C   0  0  0  0  0  0  0  0  0  0  0  0
   34.8840   26.8130   43.3210 C   0  0  0  0  0  0  0  0  0  0  0  0
   34.0120   27.7380   43.8450 C   0  0  0  0  0  0  0  0  0  0  0  0
   34.4170   29.0500   43.9990 C   0  0  0  0  0  0  0  0  0  0  0  0
   33.4050   30.3250   44.6500 Cl  0  0  0  0  0  0  0  0  0  0  0  0
   35.7110   29.3830   43.6090 C   0  0  0  0  0  0  0  0  0  0  0  0
   34.4920   25.8090   43.2340 H   0  0  0  0  0  0  0  0  0  0  0  0
   33.0010   27.5080   44.1570 H   0  0  0  0  0  0  0  0  0  0  0  0
   38.0560   25.1240   40.5850 C   0  0  0  0  0  0  0  0  0  0  0  0
   38.8160   24.2970   41.4290 C   0  0  0  0  0  0  0  0  0  0  0  0
   38.6560   24.4610   42.8320 C   0  0  0  0  0  0  0  0  0  0  0  0
   37.7810   25.4070   43.2510 N   0  0  0  0  0  0  0  0  0  0  0  0
   37.0600   26.1930   42.3990 C   0  0  0  0  0  0  0  0  0  0  0  0
   37.2190   26.0290   41.0940 N   0  0  0  0  0  0  0  0  0  0  0  0
   38.1840   24.9920   39.5260 H   0  0  0  0  0  0  0  0  0  0  0  0
   39.5010   23.5560   41.1020 H   0  0  0  0  0  0  0  0  0  0  0  0
   39.1830   23.8850   43.5780 H   0  0  0  0  0  0  0  0  0  0  0  0
   35.5760   30.3930   46.4960 F   0  0  0  0  0  0  0  0  0  0  0  0
   36.8750   30.6560   46.1360 C   0  0  0  0  0  0  0  0  0  0  0  0
   37.2370   30.8880   44.8010 C   0  0  0  0  0  0  0  0  0  0  0  0
   38.5510   31.1720   44.5210 C   0  0  0  0  0  0  0  0  0  0  0  0
   39.5040   31.2270   45.5290 C   0  0  0  0  0  0  0  0  0  0  0  0
   39.1250   30.9900   46.8650 C   0  0  0  0  0  0  0  0  0  0  0  0
   37.7880   30.7020   47.1680 C   0  0  0  0  0  0  0  0  0  0  0  0
   38.9240   31.4400   43.5450 H   0  0  0  0  0  0  0  0  0  0  0  0
   40.5450   31.4410   45.3790 H   0  0  0  0  0  0  0  0  0  0  0  0
   39.8240   31.0200   47.6850 H   0  0  0  0  0  0  0  0  0  0  0  0
   38.2070   33.0850   48.8480 Cl  0  0  0  0  0  0  0  0  0  0  0  0
   37.5590   31.5610   49.3680 C   0  0  0  0  0  0  0  0  0  0  0  0
   37.3740   30.4560   48.5450 C   0  0  0  0  0  0  0  0  0  0  0  0
   36.8500   29.2920   49.0670 C   0  0  0  0  0  0  0  0  0  0  0  0
   36.7390   28.4850   48.3640 H   0  0  0  0  0  0  0  0  0  0  0  0
   36.5170   29.2570   50.4070 C   0  0  0  0  0  0  0  0  0  0  0  0
   36.1110   28.3470   50.8000 H   0  0  0  0  0  0  0  0  0  0  0  0
   36.6880   30.3350   51.2470 C   0  0  0  0  0  0  0  0  0  0  0  0
   37.2210   31.5130   50.7150 C   0  0  0  0  0  0  0  0  0  0  0  0
  1  3  1  0  0  0  0
  1 25  1  0  0  0  0
  2  1  1  0  0  0  0
  4  5  1  0  0  0  0
  5 11  1  0  0  0  0
  6  5  2  0  0  0  0
  6  7  1  0  0  0  0
  7  8  2  0  0  0  0
  8  9  1  0  0  0  0
  8 13  1  0  0  0  0
  9 10  1  0  0  0  0
 11  1  1  0  0  0  0
 11  9  2  0  0  0  0
 12  7  1  0  0  0  0
 14 19  2  0  0  0  0
 14 15  1  0  0  0  0
 15 16  2  0  0  0  0
 16 17  1  0  0  0  0
 16 22  1  0  0  0  0
 18  6  1  0  0  0  0
 18 17  2  0  0  0  0
 19 18  1  0  0  0  0
 20 14  1  0  0  0  0
 21 15  1  0  0  0  0
 24 23  1  0  0  0  0
 24 29  1  0  0  0  0
 25 24  2  0  0  0  0
 26 25  1  0  0  0  0
 26 27  2  0  0  0  0
 27 28  1  0  0  0  0
 28 29  2  0  0  0  0
 28 32  1  0  0  0  0
 29 35  1  0  0  0  0
 30 26  1  0  0  0  0
 31 27  1  0  0  0  0
 33 34  1  0  0  0  0
 34 41  1  0  0  0  0
 35 36  1  0  0  0  0
 35 34  2  0  0  0  0
 36 38  2  0  0  0  0
 37 36  1  0  0  0  0
 38 39  1  0  0  0  0
 38 40  1  0  0  0  0
 41 40  2  0  0  0  0
M  END
>  <minimizedAffinity>
-5.69811726

>  <minimizedRMSD>
5.64512348

$$$$
