
 OpenBabel03272509063D

 33 35  0  0  0  0  0  0  0  0999 V2000
   35.5210   28.0560   31.9260 C   0  0  0  0  0  0  0  0  0  0  0  0
   34.9060   29.0460   32.7110 C   0  0  0  0  0  0  0  0  0  0  0  0
   35.3850   29.2980   34.0010 C   0  0  0  0  0  0  0  0  0  0  0  0
   36.4470   28.5190   34.3810 N   0  0  0  0  0  0  0  0  0  0  0  0
   37.0120   27.5900   33.6220 C   0  0  0  0  0  0  0  0  0  0  0  0
   36.5420   27.3650   32.3930 N   0  0  0  0  0  0  0  0  0  0  0  0
   35.0840   27.9310   30.9400 H   0  0  0  0  0  0  0  0  0  0  0  0
   34.0930   29.5940   32.3650 H   0  0  0  0  0  0  0  0  0  0  0  0
   32.4160   29.2660   35.0340 Cl  0  0  0  0  0  0  0  0  0  0  0  0
   33.6640   30.3670   35.5460 C   0  0  0  0  0  0  0  0  0  0  0  0
   34.9050   30.2410   34.9860 C   0  0  0  0  0  0  0  0  0  0  0  0
   35.7910   31.1880   35.4530 C   0  0  0  0  0  0  0  0  0  0  0  0
   36.8220   31.2470   35.1230 H   0  0  0  0  0  0  0  0  0  0  0  0
   35.4690   32.1460   36.3720 C   0  0  0  0  0  0  0  0  0  0  0  0
   36.1680   32.8750   36.7240 H   0  0  0  0  0  0  0  0  0  0  0  0
   34.2070   32.2170   36.8940 C   0  0  0  0  0  3  0  0  0  0  0  0
   33.2780   31.2990   36.4670 C   0  0  0  0  0  3  0  0  0  0  0  0
   38.1260   26.8730   34.2060 C   0  0  0  0  0  3  0  0  0  0  0  0
   38.2000   25.5800   34.0350 C   0  0  0  0  0  3  0  0  0  0  0  0
   39.2340   24.6620   34.5330 C   0  0  0  0  0  0  0  0  0  0  0  0
   40.2020   25.2070   34.4770 H   0  0  0  0  0  0  0  0  0  0  0  0
   39.3390   23.7860   33.8620 H   0  0  0  0  0  0  0  0  0  0  0  0
   39.0040   24.2710   35.9540 C   0  0  0  0  0  0  0  0  0  0  0  0
   38.0150   24.7800   36.7880 C   0  0  0  0  0  0  0  0  0  0  0  0
   37.9080   24.3320   38.0890 C   0  0  0  0  0  0  0  0  0  0  0  0
   38.7870   23.3600   38.6030 C   0  0  0  0  0  0  0  0  0  0  0  0
   39.7750   22.8530   37.7760 C   0  0  0  0  0  0  0  0  0  0  0  0
   39.8770   23.3030   36.4750 C   0  0  0  0  0  0  0  0  0  0  0  0
   37.3680   25.5170   36.3530 H   0  0  0  0  0  0  0  0  0  0  0  0
   37.1070   24.7930   38.6410 H   0  0  0  0  0  0  0  0  0  0  0  0
   38.6240   23.0750   39.6320 H   0  0  0  0  0  0  0  0  0  0  0  0
   40.4280   22.1110   38.2050 H   0  0  0  0  0  0  0  0  0  0  0  0
   40.6690   22.8630   35.8920 H   0  0  0  0  0  0  0  0  0  0  0  0
  1  6  2  0  0  0  0
  1  2  1  0  0  0  0
  2  3  2  0  0  0  0
  3  4  1  0  0  0  0
  3 11  1  0  0  0  0
  5 18  1  0  0  0  0
  5  4  2  0  0  0  0
  6  5  1  0  0  0  0
  7  1  1  0  0  0  0
  8  2  1  0  0  0  0
  9 10  1  0  0  0  0
 10 17  1  0  0  0  0
 11 12  1  0  0  0  0
 11 10  2  0  0  0  0
 12 14  2  0  0  0  0
 13 12  1  0  0  0  0
 14 15  1  0  0  0  0
 14 16  1  0  0  0  0
 17 16  2  0  0  0  0
 19 18  2  0  0  0  0
 19 20  1  0  0  0  0
 20 23  1  0  0  0  0
 21 20  1  0  0  0  0
 22 20  1  0  0  0  0
 23 28  2  0  0  0  0
 23 24  1  0  0  0  0
 24 25  2  0  0  0  0
 25 26  1  0  0  0  0
 25 30  1  0  0  0  0
 26 31  1  0  0  0  0
 27 32  1  0  0  0  0
 27 26  2  0  0  0  0
 28 27  1  0  0  0  0
 29 24  1  0  0  0  0
 33 28  1  0  0  0  0
M  END
>  <minimizedAffinity>
-6.26642036

$$$$

 OpenBabel03272509063D

 33 35  0  0  0  0  0  0  0  0999 V2000
   39.0600   27.1730   33.1870 C   0  0  0  0  0  0  0  0  0  0  0  0
   39.3480   26.5730   34.4240 C   0  0  0  0  0  0  0  0  0  0  0  0
   38.6980   25.3870   34.7820 C   0  0  0  0  0  0  0  0  0  0  0  0
   37.8090   24.9160   33.8510 N   0  0  0  0  0  0  0  0  0  0  0  0
   37.5530   25.5000   32.6890 C   0  0  0  0  0  0  0  0  0  0  0  0
   38.1840   26.6320   32.3640 N   0  0  0  0  0  0  0  0  0  0  0  0
   39.6110   28.0880   32.9940 H   0  0  0  0  0  0  0  0  0  0  0  0
   40.0270   26.9900   35.0920 H   0  0  0  0  0  0  0  0  0  0  0  0
   40.7600   23.0300   35.0570 Cl  0  0  0  0  0  0  0  0  0  0  0  0
   39.6520   23.5670   36.2880 C   0  0  0  0  0  0  0  0  0  0  0  0
   38.8170   24.6100   35.9950 C   0  0  0  0  0  0  0  0  0  0  0  0
   37.9730   24.9160   37.0400 C   0  0  0  0  0  0  0  0  0  0  0  0
   37.2400   25.7140   36.9940 H   0  0  0  0  0  0  0  0  0  0  0  0
   37.9670   24.2560   38.2360 C   0  0  0  0  0  0  0  0  0  0  0  0
   37.3050   24.5050   39.0380 H   0  0  0  0  0  0  0  0  0  0  0  0
   38.8300   23.2200   38.4650 C   0  0  0  0  0  3  0  0  0  0  0  0
   39.6980   22.8660   37.4600 C   0  0  0  0  0  3  0  0  0  0  0  0
   36.5800   24.8460   31.8410 C   0  0  0  0  0  3  0  0  0  0  0  0
   36.4330   23.5510   31.9360 C   0  0  0  0  0  3  0  0  0  0  0  0
   35.5120   22.6900   31.1810 C   0  0  0  0  0  0  0  0  0  0  0  0
   35.7350   22.8470   30.1020 H   0  0  0  0  0  0  0  0  0  0  0  0
   34.4620   23.0150   31.3240 H   0  0  0  0  0  0  0  0  0  0  0  0
   35.7120   21.2430   31.4890 C   0  0  0  0  0  0  0  0  0  0  0  0
   36.2690   20.2990   30.6360 C   0  0  0  0  0  0  0  0  0  0  0  0
   36.3990   18.9870   31.0440 C   0  0  0  0  0  0  0  0  0  0  0  0
   35.9750   18.5730   32.3210 C   0  0  0  0  0  0  0  0  0  0  0  0
   35.4180   19.5110   33.1740 C   0  0  0  0  0  0  0  0  0  0  0  0
   35.2910   20.8220   32.7610 C   0  0  0  0  0  0  0  0  0  0  0  0
   36.5790   20.6610   29.6730 H   0  0  0  0  0  0  0  0  0  0  0  0
   36.8440   18.3450   30.3040 H   0  0  0  0  0  0  0  0  0  0  0  0
   36.1180   17.5270   32.5480 H   0  0  0  0  0  0  0  0  0  0  0  0
   35.1060   19.1560   34.1410 H   0  0  0  0  0  0  0  0  0  0  0  0
   34.8490   21.4940   33.4770 H   0  0  0  0  0  0  0  0  0  0  0  0
  1  2  1  0  0  0  0
  2  3  2  0  0  0  0
  2  8  1  0  0  0  0
  3 11  1  0  0  0  0
  4  3  1  0  0  0  0
  5  4  2  0  0  0  0
  6  5  1  0  0  0  0
  6  1  2  0  0  0  0
  7  1  1  0  0  0  0
  9 10  1  0  0  0  0
 10 17  1  0  0  0  0
 11 10  2  0  0  0  0
 11 12  1  0  0  0  0
 12 14  2  0  0  0  0
 13 12  1  0  0  0  0
 14 16  1  0  0  0  0
 14 15  1  0  0  0  0
 17 16  2  0  0  0  0
 18 19  2  0  0  0  0
 18  5  1  0  0  0  0
 20 22  1  0  0  0  0
 20 23  1  0  0  0  0
 20 19  1  0  0  0  0
 21 20  1  0  0  0  0
 23 28  1  0  0  0  0
 24 25  1  0  0  0  0
 24 23  2  0  0  0  0
 25 26  2  0  0  0  0
 26 31  1  0  0  0  0
 26 27  1  0  0  0  0
 27 32  1  0  0  0  0
 28 27  2  0  0  0  0
 28 33  1  0  0  0  0
 29 24  1  0  0  0  0
 30 25  1  0  0  0  0
M  END
>  <minimizedAffinity>
-6.21885204

$$$$

 OpenBabel03272509063D

 33 35  0  0  0  0  0  0  0  0999 V2000
   37.6880   27.4140   34.8610 C   0  0  0  0  0  0  0  0  0  0  0  0
   38.4840   26.5980   35.6830 C   0  0  0  0  0  0  0  0  0  0  0  0
   38.6760   25.2560   35.3420 C   0  0  0  0  0  0  0  0  0  0  0  0
   38.0420   24.8590   34.1930 N   0  0  0  0  0  0  0  0  0  0  0  0
   37.2950   25.6470   33.4320 C   0  0  0  0  0  0  0  0  0  0  0  0
   37.1240   26.9270   33.7740 N   0  0  0  0  0  0  0  0  0  0  0  0
   37.5960   28.4400   35.2030 H   0  0  0  0  0  0  0  0  0  0  0  0
   38.9280   26.9600   36.5500 H   0  0  0  0  0  0  0  0  0  0  0  0
   37.6690   23.9870   38.0360 Cl  0  0  0  0  0  0  0  0  0  0  0  0
   39.1400   23.5760   37.2000 C   0  0  0  0  0  0  0  0  0  0  0  0
   39.4270   24.2340   36.0360 C   0  0  0  0  0  0  0  0  0  0  0  0
   40.6300   23.8390   35.4920 C   0  0  0  0  0  0  0  0  0  0  0  0
   41.0260   24.2510   34.5700 H   0  0  0  0  0  0  0  0  0  0  0  0
   41.4470   22.8970   36.0490 C   0  0  0  0  0  0  0  0  0  0  0  0
   42.3790   22.6010   35.6150 H   0  0  0  0  0  0  0  0  0  0  0  0
   41.1000   22.2740   37.2170 C   0  0  0  0  0  3  0  0  0  0  0  0
   39.9100   22.6260   37.8090 C   0  0  0  0  0  3  0  0  0  0  0  0
   36.7090   25.0390   32.2570 C   0  0  0  0  0  3  0  0  0  0  0  0
   36.6660   23.7350   32.1790 C   0  0  0  0  0  3  0  0  0  0  0  0
   36.1190   22.9140   31.0900 C   0  0  0  0  0  0  0  0  0  0  0  0
   36.8440   22.9720   30.2480 H   0  0  0  0  0  0  0  0  0  0  0  0
   35.1730   23.3460   30.7070 H   0  0  0  0  0  0  0  0  0  0  0  0
   35.9770   21.4810   31.4810 C   0  0  0  0  0  0  0  0  0  0  0  0
   36.2220   20.3860   30.6610 C   0  0  0  0  0  0  0  0  0  0  0  0
   36.0520   19.1050   31.1460 C   0  0  0  0  0  0  0  0  0  0  0  0
   35.6320   18.8740   32.4700 C   0  0  0  0  0  0  0  0  0  0  0  0
   35.3870   19.9620   33.2890 C   0  0  0  0  0  0  0  0  0  0  0  0
   35.5580   21.2410   32.8000 C   0  0  0  0  0  0  0  0  0  0  0  0
   36.5410   20.6110   29.6600 H   0  0  0  0  0  0  0  0  0  0  0  0
   36.2710   18.3360   30.4250 H   0  0  0  0  0  0  0  0  0  0  0  0
   35.5280   17.8380   32.7560 H   0  0  0  0  0  0  0  0  0  0  0  0
   35.0670   19.7450   34.2950 H   0  0  0  0  0  0  0  0  0  0  0  0
   35.3480   22.0370   33.4940 H   0  0  0  0  0  0  0  0  0  0  0  0
  1  7  1  0  0  0  0
  1  2  1  0  0  0  0
  2  8  1  0  0  0  0
  3  2  2  0  0  0  0
  3 11  1  0  0  0  0
  4  3  1  0  0  0  0
  5  6  1  0  0  0  0
  5  4  2  0  0  0  0
  6  1  2  0  0  0  0
 10 17  1  0  0  0  0
 10  9  1  0  0  0  0
 11 10  2  0  0  0  0
 12 11  1  0  0  0  0
 12 14  2  0  0  0  0
 13 12  1  0  0  0  0
 14 16  1  0  0  0  0
 15 14  1  0  0  0  0
 16 17  2  0  0  0  0
 18  5  1  0  0  0  0
 19 18  2  0  0  0  0
 20 23  1  0  0  0  0
 20 19  1  0  0  0  0
 21 20  1  0  0  0  0
 22 20  1  0  0  0  0
 23 28  1  0  0  0  0
 24 25  1  0  0  0  0
 24 23  2  0  0  0  0
 25 26  2  0  0  0  0
 26 31  1  0  0  0  0
 26 27  1  0  0  0  0
 27 32  1  0  0  0  0
 28 27  2  0  0  0  0
 28 33  1  0  0  0  0
 29 24  1  0  0  0  0
 30 25  1  0  0  0  0
M  END
>  <minimizedAffinity>
-6.13033581

$$$$

 OpenBabel03272509063D

 33 35  0  0  0  0  0  0  0  0999 V2000
   35.4280   29.2250   31.7170 C   0  0  0  0  0  0  0  0  0  0  0  0
   34.6600   29.9630   32.6330 C   0  0  0  0  0  0  0  0  0  0  0  0
   34.8800   29.8020   34.0050 C   0  0  0  0  0  0  0  0  0  0  0  0
   35.8630   28.9020   34.3260 N   0  0  0  0  0  0  0  0  0  0  0  0
   36.5760   28.2160   33.4440 C   0  0  0  0  0  0  0  0  0  0  0  0
   36.3520   28.3840   32.1380 N   0  0  0  0  0  0  0  0  0  0  0  0
   35.1880   29.4150   30.6760 H   0  0  0  0  0  0  0  0  0  0  0  0
   33.9180   30.6230   32.3220 H   0  0  0  0  0  0  0  0  0  0  0  0
   36.2660   32.0140   35.7570 Cl  0  0  0  0  0  0  0  0  0  0  0  0
   34.6510   31.4020   35.9740 C   0  0  0  0  0  0  0  0  0  0  0  0
   34.2070   30.4310   35.1190 C   0  0  0  0  0  0  0  0  0  0  0  0
   32.9280   30.0130   35.4160 C   0  0  0  0  0  0  0  0  0  0  0  0
   32.4090   29.2500   34.8480 H   0  0  0  0  0  0  0  0  0  0  0  0
   32.1830   30.5100   36.4470 C   0  0  0  0  0  0  0  0  0  0  0  0
   31.1910   30.1760   36.6660 H   0  0  0  0  0  0  0  0  0  0  0  0
   32.6860   31.4830   37.2670 C   0  0  0  0  0  3  0  0  0  0  0  0
   33.9590   31.9410   37.0210 C   0  0  0  0  0  3  0  0  0  0  0  0
   37.5700   27.3120   33.9830 C   0  0  0  0  0  3  0  0  0  0  0  0
   37.9220   27.4400   35.2350 C   0  0  0  0  0  3  0  0  0  0  0  0
   38.9010   26.6390   35.9830 C   0  0  0  0  0  0  0  0  0  0  0  0
   38.8210   26.9460   37.0490 H   0  0  0  0  0  0  0  0  0  0  0  0
   39.9350   26.8880   35.6720 H   0  0  0  0  0  0  0  0  0  0  0  0
   38.6130   25.1770   35.9000 C   0  0  0  0  0  0  0  0  0  0  0  0
   39.0460   24.3180   34.8970 C   0  0  0  0  0  0  0  0  0  0  0  0
   38.7090   22.9800   34.9370 C   0  0  0  0  0  0  0  0  0  0  0  0
   37.9280   22.4540   35.9830 C   0  0  0  0  0  0  0  0  0  0  0  0
   37.4940   23.3060   36.9830 C   0  0  0  0  0  0  0  0  0  0  0  0
   37.8330   24.6430   36.9390 C   0  0  0  0  0  0  0  0  0  0  0  0
   39.6400   24.7640   34.1210 H   0  0  0  0  0  0  0  0  0  0  0  0
   39.0990   22.4110   34.1110 H   0  0  0  0  0  0  0  0  0  0  0  0
   37.7170   21.3960   35.9260 H   0  0  0  0  0  0  0  0  0  0  0  0
   36.8980   22.8660   37.7650 H   0  0  0  0  0  0  0  0  0  0  0  0
   37.4600   25.2450   37.7510 H   0  0  0  0  0  0  0  0  0  0  0  0
  1  6  2  0  0  0  0
  1  2  1  0  0  0  0
  2  3  2  0  0  0  0
  3  4  1  0  0  0  0
  3 11  1  0  0  0  0
  5 18  1  0  0  0  0
  5  4  2  0  0  0  0
  6  5  1  0  0  0  0
  7  1  1  0  0  0  0
  8  2  1  0  0  0  0
  9 10  1  0  0  0  0
 10 17  1  0  0  0  0
 11 12  1  0  0  0  0
 11 10  2  0  0  0  0
 12 14  2  0  0  0  0
 13 12  1  0  0  0  0
 14 15  1  0  0  0  0
 14 16  1  0  0  0  0
 17 16  2  0  0  0  0
 18 19  2  0  0  0  0
 19 20  1  0  0  0  0
 20 21  1  0  0  0  0
 22 20  1  0  0  0  0
 23 20  1  0  0  0  0
 23 28  1  0  0  0  0
 24 25  1  0  0  0  0
 24 23  2  0  0  0  0
 25 26  2  0  0  0  0
 26 27  1  0  0  0  0
 27 32  1  0  0  0  0
 28 27  2  0  0  0  0
 28 33  1  0  0  0  0
 29 24  1  0  0  0  0
 30 25  1  0  0  0  0
 31 26  1  0  0  0  0
M  END
>  <minimizedAffinity>
-5.94699287

$$$$

 OpenBabel03272509063D

 33 35  0  0  0  0  0  0  0  0999 V2000
   39.0610   26.7110   32.7620 C   0  0  0  0  0  0  0  0  0  0  0  0
   39.3880   25.7710   33.7540 C   0  0  0  0  0  0  0  0  0  0  0  0
   38.5760   25.6550   34.8870 C   0  0  0  0  0  0  0  0  0  0  0  0
   37.5010   26.5050   34.9120 N   0  0  0  0  0  0  0  0  0  0  0  0
   37.2110   27.3850   33.9620 C   0  0  0  0  0  0  0  0  0  0  0  0
   37.9980   27.4810   32.8880 N   0  0  0  0  0  0  0  0  0  0  0  0
   39.7470   26.7300   31.9210 H   0  0  0  0  0  0  0  0  0  0  0  0
   40.2280   25.1630   33.6790 H   0  0  0  0  0  0  0  0  0  0  0  0
   40.4040   23.0980   34.8160 Cl  0  0  0  0  0  0  0  0  0  0  0  0
   39.4700   23.6500   36.1780 C   0  0  0  0  0  0  0  0  0  0  0  0
   38.7230   24.7850   36.0320 C   0  0  0  0  0  0  0  0  0  0  0  0
   38.0110   25.0960   37.1700 C   0  0  0  0  0  0  0  0  0  0  0  0
   37.3610   25.9610   37.2440 H   0  0  0  0  0  0  0  0  0  0  0  0
   38.0450   24.3560   38.3180 C   0  0  0  0  0  0  0  0  0  0  0  0
   37.4860   24.6100   39.1940 H   0  0  0  0  0  0  0  0  0  0  0  0
   38.8150   23.2280   38.3990 C   0  0  0  0  0  3  0  0  0  0  0  0
   39.5490   22.8660   37.2940 C   0  0  0  0  0  3  0  0  0  0  0  0
   36.0300   28.1940   34.1740 C   0  0  0  0  0  3  0  0  0  0  0  0
   35.8190   29.2160   33.3880 C   0  0  0  0  0  3  0  0  0  0  0  0
   34.6950   30.1630   33.4210 C   0  0  0  0  0  0  0  0  0  0  0  0
   33.7640   29.5600   33.3450 H   0  0  0  0  0  0  0  0  0  0  0  0
   34.7060   30.8190   32.5280 H   0  0  0  0  0  0  0  0  0  0  0  0
   34.6450   30.9330   34.6980 C   0  0  0  0  0  0  0  0  0  0  0  0
   33.6290   30.8750   35.6440 C   0  0  0  0  0  0  0  0  0  0  0  0
   33.7030   31.6430   36.7880 C   0  0  0  0  0  0  0  0  0  0  0  0
   34.7970   32.4960   37.0280 C   0  0  0  0  0  0  0  0  0  0  0  0
   35.8110   32.5570   36.0880 C   0  0  0  0  0  0  0  0  0  0  0  0
   35.7320   31.7880   34.9450 C   0  0  0  0  0  0  0  0  0  0  0  0
   32.8160   30.2110   35.4190 H   0  0  0  0  0  0  0  0  0  0  0  0
   32.8620   31.5170   37.4490 H   0  0  0  0  0  0  0  0  0  0  0  0
   34.7630   33.0550   37.9510 H   0  0  0  0  0  0  0  0  0  0  0  0
   36.6300   33.2210   36.3070 H   0  0  0  0  0  0  0  0  0  0  0  0
   36.5570   31.8870   34.2590 H   0  0  0  0  0  0  0  0  0  0  0  0
  1  6  2  0  0  0  0
  1  2  1  0  0  0  0
  2  3  2  0  0  0  0
  3  4  1  0  0  0  0
  3 11  1  0  0  0  0
  5 18  1  0  0  0  0
  5  4  2  0  0  0  0
  6  5  1  0  0  0  0
  7  1  1  0  0  0  0
  8  2  1  0  0  0  0
  9 10  1  0  0  0  0
 10 17  1  0  0  0  0
 11 10  2  0  0  0  0
 11 12  1  0  0  0  0
 12 13  1  0  0  0  0
 12 14  2  0  0  0  0
 14 16  1  0  0  0  0
 14 15  1  0  0  0  0
 17 16  2  0  0  0  0
 19 20  1  0  0  0  0
 19 18  2  0  0  0  0
 20 23  1  0  0  0  0
 21 20  1  0  0  0  0
 22 20  1  0  0  0  0
 23 28  2  0  0  0  0
 23 24  1  0  0  0  0
 24 25  2  0  0  0  0
 25 26  1  0  0  0  0
 25 30  1  0  0  0  0
 26 31  1  0  0  0  0
 27 32  1  0  0  0  0
 27 26  2  0  0  0  0
 28 27  1  0  0  0  0
 29 24  1  0  0  0  0
 33 28  1  0  0  0  0
M  END
>  <minimizedAffinity>
-5.87739897

$$$$

 OpenBabel03272509063D

 33 35  0  0  0  0  0  0  0  0999 V2000
   35.5680   25.8550   31.3000 C   0  0  0  0  0  0  0  0  0  0  0  0
   35.3140   24.4880   31.1040 C   0  0  0  0  0  0  0  0  0  0  0  0
   36.1050   23.5390   31.7580 C   0  0  0  0  0  0  0  0  0  0  0  0
   37.0890   24.0640   32.5570 N   0  0  0  0  0  0  0  0  0  0  0  0
   37.3100   25.3600   32.7280 C   0  0  0  0  0  0  0  0  0  0  0  0
   36.5430   26.2510   32.0940 N   0  0  0  0  0  0  0  0  0  0  0  0
   34.9050   26.5170   30.7530 H   0  0  0  0  0  0  0  0  0  0  0  0
   34.5570   24.1550   30.4730 H   0  0  0  0  0  0  0  0  0  0  0  0
   38.3070   21.8390   30.2920 Cl  0  0  0  0  0  0  0  0  0  0  0  0
   36.9060   21.2080   31.1120 C   0  0  0  0  0  0  0  0  0  0  0  0
   36.0440   22.0960   31.6950 C   0  0  0  0  0  0  0  0  0  0  0  0
   34.9640   21.4720   32.2820 C   0  0  0  0  0  0  0  0  0  0  0  0
   34.1750   22.0120   32.7930 H   0  0  0  0  0  0  0  0  0  0  0  0
   34.7730   20.1190   32.2840 C   0  0  0  0  0  0  0  0  0  0  0  0
   33.9290   19.6500   32.7440 H   0  0  0  0  0  0  0  0  0  0  0  0
   35.6750   19.2850   31.6830 C   0  0  0  0  0  3  0  0  0  0  0  0
   36.7740   19.8490   31.0790 C   0  0  0  0  0  3  0  0  0  0  0  0
   38.3990   25.7150   33.6130 C   0  0  0  0  0  3  0  0  0  0  0  0
   39.3660   24.8550   33.7950 C   0  0  0  0  0  3  0  0  0  0  0  0
   40.5590   25.0060   34.6400 C   0  0  0  0  0  0  0  0  0  0  0  0
   40.4580   25.9790   35.1700 H   0  0  0  0  0  0  0  0  0  0  0  0
   41.4740   25.0920   34.0200 H   0  0  0  0  0  0  0  0  0  0  0  0
   40.6620   23.9280   35.6670 C   0  0  0  0  0  0  0  0  0  0  0  0
   39.6120   23.4220   36.4230 C   0  0  0  0  0  0  0  0  0  0  0  0
   39.8410   22.4200   37.3440 C   0  0  0  0  0  0  0  0  0  0  0  0
   41.1290   21.8900   37.5430 C   0  0  0  0  0  0  0  0  0  0  0  0
   42.1790   22.3930   36.7930 C   0  0  0  0  0  0  0  0  0  0  0  0
   41.9450   23.3940   35.8730 C   0  0  0  0  0  0  0  0  0  0  0  0
   38.6470   23.8550   36.2360 H   0  0  0  0  0  0  0  0  0  0  0  0
   38.9560   22.1040   37.8700 H   0  0  0  0  0  0  0  0  0  0  0  0
   41.2080   21.1100   38.2860 H   0  0  0  0  0  0  0  0  0  0  0  0
   43.1490   21.9620   36.9750 H   0  0  0  0  0  0  0  0  0  0  0  0
   42.8080   23.7360   35.3270 H   0  0  0  0  0  0  0  0  0  0  0  0
  1  6  1  0  0  0  0
  2  1  2  0  0  0  0
  2  3  1  0  0  0  0
  3  4  2  0  0  0  0
  4  5  1  0  0  0  0
  5 18  1  0  0  0  0
  6  5  2  0  0  0  0
  7  1  1  0  0  0  0
  8  2  1  0  0  0  0
  9 10  1  0  0  0  0
 10 11  1  0  0  0  0
 11  3  1  0  0  0  0
 11 12  2  0  0  0  0
 12 14  1  0  0  0  0
 12 13  1  0  0  0  0
 14 15  1  0  0  0  0
 16 14  2  0  0  0  0
 17 10  2  0  0  0  0
 17 16  1  0  0  0  0
 18 19  2  0  0  0  0
 19 20  1  0  0  0  0
 20 21  1  0  0  0  0
 20 23  1  0  0  0  0
 22 20  1  0  0  0  0
 23 28  2  0  0  0  0
 23 24  1  0  0  0  0
 24 25  2  0  0  0  0
 25 26  1  0  0  0  0
 25 30  1  0  0  0  0
 26 31  1  0  0  0  0
 27 32  1  0  0  0  0
 27 26  2  0  0  0  0
 28 27  1  0  0  0  0
 29 24  1  0  0  0  0
 33 28  1  0  0  0  0
M  END
>  <minimizedAffinity>
-5.65299416

$$$$

 OpenBabel03272509063D

 33 35  0  0  0  0  0  0  0  0999 V2000
   35.6030   29.6290   31.7290 C   0  0  0  0  0  0  0  0  0  0  0  0
   34.9710   30.4530   32.6750 C   0  0  0  0  0  0  0  0  0  0  0  0
   35.0580   30.1330   34.0340 C   0  0  0  0  0  0  0  0  0  0  0  0
   35.7800   29.0010   34.3120 N   0  0  0  0  0  0  0  0  0  0  0  0
   36.3690   28.2380   33.4020 C   0  0  0  0  0  0  0  0  0  0  0  0
   36.2750   28.5600   32.1090 N   0  0  0  0  0  0  0  0  0  0  0  0
   35.4830   29.9540   30.7010 H   0  0  0  0  0  0  0  0  0  0  0  0
   34.4270   31.2930   32.3950 H   0  0  0  0  0  0  0  0  0  0  0  0
   32.0700   29.6850   34.9040 Cl  0  0  0  0  0  0  0  0  0  0  0  0
   33.2170   30.7330   35.6890 C   0  0  0  0  0  0  0  0  0  0  0  0
   34.4800   30.8120   35.1720 C   0  0  0  0  0  0  0  0  0  0  0  0
   35.2780   31.6960   35.8660 C   0  0  0  0  0  0  0  0  0  0  0  0
   36.3120   31.8910   35.6020 H   0  0  0  0  0  0  0  0  0  0  0  0
   34.8590   32.4140   36.9490 C   0  0  0  0  0  0  0  0  0  0  0  0
   35.4910   33.0970   37.4780 H   0  0  0  0  0  0  0  0  0  0  0  0
   33.5800   32.2880   37.4180 C   0  0  0  0  0  3  0  0  0  0  0  0
   32.7350   31.4210   36.7670 C   0  0  0  0  0  3  0  0  0  0  0  0
   37.0860   27.0830   33.8970 C   0  0  0  0  0  3  0  0  0  0  0  0
   37.4830   27.0750   35.1420 C   0  0  0  0  0  3  0  0  0  0  0  0
   38.2180   26.0170   35.8480 C   0  0  0  0  0  0  0  0  0  0  0  0
   37.5840   25.1030   35.8080 H   0  0  0  0  0  0  0  0  0  0  0  0
   38.3280   26.2630   36.9230 H   0  0  0  0  0  0  0  0  0  0  0  0
   39.5230   25.7040   35.1950 C   0  0  0  0  0  0  0  0  0  0  0  0
   39.9970   24.4340   34.8900 C   0  0  0  0  0  0  0  0  0  0  0  0
   41.2260   24.2810   34.2830 C   0  0  0  0  0  0  0  0  0  0  0  0
   42.0260   25.3930   33.9590 C   0  0  0  0  0  0  0  0  0  0  0  0
   41.5580   26.6600   34.2620 C   0  0  0  0  0  0  0  0  0  0  0  0
   40.3280   26.8090   34.8690 C   0  0  0  0  0  0  0  0  0  0  0  0
   39.3520   23.6170   35.1540 H   0  0  0  0  0  0  0  0  0  0  0  0
   41.4910   23.2550   34.0930 H   0  0  0  0  0  0  0  0  0  0  0  0
   42.9720   25.1710   33.4860 H   0  0  0  0  0  0  0  0  0  0  0  0
   42.1990   27.4850   33.9990 H   0  0  0  0  0  0  0  0  0  0  0  0
   40.0300   27.8230   35.0750 H   0  0  0  0  0  0  0  0  0  0  0  0
  1  6  2  0  0  0  0
  1  2  1  0  0  0  0
  2  3  2  0  0  0  0
  3  4  1  0  0  0  0
  3 11  1  0  0  0  0
  5 18  1  0  0  0  0
  5  4  2  0  0  0  0
  6  5  1  0  0  0  0
  7  1  1  0  0  0  0
  8  2  1  0  0  0  0
  9 10  1  0  0  0  0
 10 17  1  0  0  0  0
 11 10  2  0  0  0  0
 11 12  1  0  0  0  0
 12 14  2  0  0  0  0
 13 12  1  0  0  0  0
 14 16  1  0  0  0  0
 14 15  1  0  0  0  0
 17 16  2  0  0  0  0
 18 19  2  0  0  0  0
 19 20  1  0  0  0  0
 20 22  1  0  0  0  0
 21 20  1  0  0  0  0
 23 20  1  0  0  0  0
 24 29  1  0  0  0  0
 24 23  1  0  0  0  0
 25 24  2  0  0  0  0
 26 27  2  0  0  0  0
 26 25  1  0  0  0  0
 27 28  1  0  0  0  0
 28 33  1  0  0  0  0
 28 23  2  0  0  0  0
 30 25  1  0  0  0  0
 31 26  1  0  0  0  0
 32 27  1  0  0  0  0
M  END
>  <minimizedAffinity>
-5.6264205

$$$$

 OpenBabel03272509063D

 33 35  0  0  0  0  0  0  0  0999 V2000
   39.6830   22.6570   36.2950 C   0  0  0  0  0  0  0  0  0  0  0  0
   39.0100   21.8730   35.3430 C   0  0  0  0  0  0  0  0  0  0  0  0
   38.0390   22.4620   34.5280 C   0  0  0  0  0  0  0  0  0  0  0  0
   37.8350   23.7990   34.7530 N   0  0  0  0  0  0  0  0  0  0  0  0
   38.4830   24.5200   35.6580 C   0  0  0  0  0  0  0  0  0  0  0  0
   39.4080   23.9390   36.4270 N   0  0  0  0  0  0  0  0  0  0  0  0
   40.4190   22.1150   36.8810 H   0  0  0  0  0  0  0  0  0  0  0  0
   39.2040   20.8570   35.2320 H   0  0  0  0  0  0  0  0  0  0  0  0
   35.5730   20.6430   35.2340 Cl  0  0  0  0  0  0  0  0  0  0  0  0
   36.1140   21.0550   33.6300 C   0  0  0  0  0  0  0  0  0  0  0  0
   37.2130   21.8590   33.5060 C   0  0  0  0  0  0  0  0  0  0  0  0
   37.5530   22.0840   32.1890 C   0  0  0  0  0  0  0  0  0  0  0  0
   38.3970   22.6970   31.8930 H   0  0  0  0  0  0  0  0  0  0  0  0
   36.8710   21.5650   31.1260 C   0  0  0  0  0  0  0  0  0  0  0  0
   37.1470   21.7490   30.1090 H   0  0  0  0  0  0  0  0  0  0  0  0
   35.7770   20.7680   31.3190 C   0  0  0  0  0  3  0  0  0  0  0  0
   35.3880   20.5060   32.6120 C   0  0  0  0  0  3  0  0  0  0  0  0
   38.1250   25.9190   35.7430 C   0  0  0  0  0  3  0  0  0  0  0  0
   37.3770   26.4350   34.8030 C   0  0  0  0  0  3  0  0  0  0  0  0
   36.8950   27.8190   34.6910 C   0  0  0  0  0  0  0  0  0  0  0  0
   37.6610   28.4660   35.1730 H   0  0  0  0  0  0  0  0  0  0  0  0
   35.9650   27.9610   35.2760 H   0  0  0  0  0  0  0  0  0  0  0  0
   36.7510   28.2520   33.2700 C   0  0  0  0  0  0  0  0  0  0  0  0
   37.5360   27.8250   32.2060 C   0  0  0  0  0  0  0  0  0  0  0  0
   37.2980   28.3050   30.9340 C   0  0  0  0  0  0  0  0  0  0  0  0
   36.2660   29.2270   30.6810 C   0  0  0  0  0  0  0  0  0  0  0  0
   35.4820   29.6550   31.7390 C   0  0  0  0  0  0  0  0  0  0  0  0
   35.7240   29.1730   33.0090 C   0  0  0  0  0  0  0  0  0  0  0  0
   38.3100   27.1210   32.4460 H   0  0  0  0  0  0  0  0  0  0  0  0
   37.9650   27.9060   30.1890 H   0  0  0  0  0  0  0  0  0  0  0  0
   36.1580   29.5430   29.6530 H   0  0  0  0  0  0  0  0  0  0  0  0
   34.7030   30.3620   31.5050 H   0  0  0  0  0  0  0  0  0  0  0  0
   35.0740   29.5510   33.7810 H   0  0  0  0  0  0  0  0  0  0  0  0
  1  6  1  0  0  0  0
  1  7  1  0  0  0  0
  2  1  2  0  0  0  0
  3  4  2  0  0  0  0
  3  2  1  0  0  0  0
  4  5  1  0  0  0  0
  5 18  1  0  0  0  0
  5  6  2  0  0  0  0
  8  2  1  0  0  0  0
 10  9  1  0  0  0  0
 11 10  1  0  0  0  0
 11  3  1  0  0  0  0
 12 11  2  0  0  0  0
 13 12  1  0  0  0  0
 14 16  2  0  0  0  0
 14 12  1  0  0  0  0
 15 14  1  0  0  0  0
 16 17  1  0  0  0  0
 17 10  2  0  0  0  0
 19 18  2  0  0  0  0
 20 19  1  0  0  0  0
 20 21  1  0  0  0  0
 20 22  1  0  0  0  0
 23 20  1  0  0  0  0
 24 29  1  0  0  0  0
 24 23  2  0  0  0  0
 25 24  1  0  0  0  0
 26 25  2  0  0  0  0
 26 27  1  0  0  0  0
 27 28  2  0  0  0  0
 28 23  1  0  0  0  0
 28 33  1  0  0  0  0
 30 25  1  0  0  0  0
 31 26  1  0  0  0  0
 32 27  1  0  0  0  0
M  END
>  <minimizedAffinity>
-5.57785892

$$$$

 OpenBabel03272509063D

 33 35  0  0  0  0  0  0  0  0999 V2000
   35.2660   29.3930   31.8040 C   0  0  0  0  0  0  0  0  0  0  0  0
   34.5800   30.2000   32.7270 C   0  0  0  0  0  0  0  0  0  0  0  0
   34.8310   30.0480   34.0940 C   0  0  0  0  0  0  0  0  0  0  0  0
   35.7580   29.0870   34.4040 N   0  0  0  0  0  0  0  0  0  0  0  0
   36.3950   28.3370   33.5150 C   0  0  0  0  0  0  0  0  0  0  0  0
   36.1420   28.4980   32.2130 N   0  0  0  0  0  0  0  0  0  0  0  0
   35.0080   29.5820   30.7660 H   0  0  0  0  0  0  0  0  0  0  0  0
   33.8760   30.9040   32.4250 H   0  0  0  0  0  0  0  0  0  0  0  0
   36.4050   32.2210   35.7320 Cl  0  0  0  0  0  0  0  0  0  0  0  0
   34.7680   31.7070   36.0260 C   0  0  0  0  0  0  0  0  0  0  0  0
   34.2380   30.7420   35.2160 C   0  0  0  0  0  0  0  0  0  0  0  0
   32.9500   30.4040   35.5720 C   0  0  0  0  0  0  0  0  0  0  0  0
   32.3670   29.6570   35.0450 H   0  0  0  0  0  0  0  0  0  0  0  0
   32.2750   30.9690   36.6170 C   0  0  0  0  0  0  0  0  0  0  0  0
   31.2750   30.6960   36.8810 H   0  0  0  0  0  0  0  0  0  0  0  0
   32.8630   31.9320   37.3900 C   0  0  0  0  0  3  0  0  0  0  0  0
   34.1490   32.3110   37.0840 C   0  0  0  0  0  3  0  0  0  0  0  0
   37.3400   27.3760   34.0420 C   0  0  0  0  0  3  0  0  0  0  0  0
   37.7090   27.4780   35.2920 C   0  0  0  0  0  3  0  0  0  0  0  0
   38.6460   26.6190   36.0280 C   0  0  0  0  0  0  0  0  0  0  0  0
   38.0440   25.8040   36.4870 H   0  0  0  0  0  0  0  0  0  0  0  0
   39.1050   27.1700   36.8730 H   0  0  0  0  0  0  0  0  0  0  0  0
   39.6620   25.9940   35.1310 C   0  0  0  0  0  0  0  0  0  0  0  0
   39.6850   24.6650   34.7300 C   0  0  0  0  0  0  0  0  0  0  0  0
   40.6850   24.2100   33.8930 C   0  0  0  0  0  0  0  0  0  0  0  0
   41.6970   25.0710   33.4290 C   0  0  0  0  0  0  0  0  0  0  0  0
   41.6780   26.3960   33.8280 C   0  0  0  0  0  0  0  0  0  0  0  0
   40.6770   26.8460   34.6640 C   0  0  0  0  0  0  0  0  0  0  0  0
   38.8930   24.0460   35.1070 H   0  0  0  0  0  0  0  0  0  0  0  0
   40.6020   23.1660   33.6470 H   0  0  0  0  0  0  0  0  0  0  0  0
   42.4350   24.6220   32.7800 H   0  0  0  0  0  0  0  0  0  0  0  0
   42.4700   27.0230   33.4520 H   0  0  0  0  0  0  0  0  0  0  0  0
   40.7270   27.8880   34.9320 H   0  0  0  0  0  0  0  0  0  0  0  0
  1  6  2  0  0  0  0
  1  2  1  0  0  0  0
  2  3  2  0  0  0  0
  3  4  1  0  0  0  0
  3 11  1  0  0  0  0
  5 18  1  0  0  0  0
  5  4  2  0  0  0  0
  6  5  1  0  0  0  0
  7  1  1  0  0  0  0
  8  2  1  0  0  0  0
  9 10  1  0  0  0  0
 10 17  1  0  0  0  0
 11 12  1  0  0  0  0
 11 10  2  0  0  0  0
 12 14  2  0  0  0  0
 13 12  1  0  0  0  0
 14 15  1  0  0  0  0
 14 16  1  0  0  0  0
 17 16  2  0  0  0  0
 18 19  2  0  0  0  0
 19 20  1  0  0  0  0
 20 21  1  0  0  0  0
 20 22  1  0  0  0  0
 23 20  1  0  0  0  0
 24 29  1  0  0  0  0
 24 23  1  0  0  0  0
 25 24  2  0  0  0  0
 26 27  2  0  0  0  0
 26 25  1  0  0  0  0
 27 28  1  0  0  0  0
 28 33  1  0  0  0  0
 28 23  2  0  0  0  0
 30 25  1  0  0  0  0
 31 26  1  0  0  0  0
 32 27  1  0  0  0  0
M  END
>  <minimizedAffinity>
-5.55134964

$$$$
