
 OpenBabel03272506343D

 19 20  0  0  0  0  0  0  0  0999 V2000
   37.2620   29.3500   50.7830 C   0  0  0  0  0  0  0  0  0  0  0  0
   37.5210   30.7250   50.7790 C   0  0  0  0  0  0  0  0  0  0  0  0
   36.7370   31.5340   49.9700 C   0  0  0  0  0  0  0  0  0  0  0  0
   35.7490   30.9500   49.2160 N   0  0  0  0  0  0  0  0  0  0  0  0
   35.5290   29.6170   49.2480 C   0  0  0  0  0  0  0  0  0  0  0  0
   36.2800   28.8310   50.0250 N   0  0  0  0  0  0  0  0  0  0  0  0
   38.2900   31.2220   51.3570 H   0  0  0  0  0  0  0  0  0  0  0  0
   36.8610   32.6050   49.9000 H   0  0  0  0  0  0  0  0  0  0  0  0
   35.7070   30.1650   46.2490 Cl  0  0  0  0  0  0  0  0  0  0  0  0
   34.4620   29.2460   47.0630 C   0  0  0  0  0  0  0  0  0  0  0  0
   34.4640   29.0510   48.4270 C   0  0  0  0  0  0  0  0  0  0  0  0
   33.4710   28.3230   49.0500 C   0  0  0  0  0  0  0  0  0  0  0  0
   33.4980   28.1840   50.1290 H   0  0  0  0  0  0  0  0  0  0  0  0
   32.4390   27.7630   48.3270 C   0  0  0  0  0  0  0  0  0  0  0  0
   31.6810   27.1970   48.8760 H   0  0  0  0  0  0  0  0  0  0  0  0
   32.4160   27.9450   46.9570 C   0  0  0  0  0  3  0  0  0  0  0  0
   33.4170   28.6780   46.3390 C   0  0  0  0  0  3  0  0  0  0  0  0
   38.1160   28.6580   51.6330 O   0  0  0  0  0  0  0  0  0  0  0  0
   38.1310   27.6610   51.7370 H   0  0  0  0  0  0  0  0  0  0  0  0
  1 18  1  0  0  0  0
  2  1  1  0  0  0  0
  2  7  1  0  0  0  0
  3  2  2  0  0  0  0
  4  5  2  0  0  0  0
  4  3  1  0  0  0  0
  5  6  1  0  0  0  0
  6  1  2  0  0  0  0
  8  3  1  0  0  0  0
  9 10  1  0  0  0  0
 10 11  1  0  0  0  0
 11 12  2  0  0  0  0
 11  5  1  0  0  0  0
 12 13  1  0  0  0  0
 14 15  1  0  0  0  0
 14 12  1  0  0  0  0
 16 14  2  0  0  0  0
 17 16  1  0  0  0  0
 17 10  2  0  0  0  0
 18 19  1  0  0  0  0
M  END
>  <minimizedAffinity>
-4.82421494

>  <minimizedRMSD>
1.60323167

$$$$
