REMARK  Name = 
REMARK  6 active torsions:
REMARK  status: ('A' for Active; 'I' for Inactive)
REMARK    1  A    between atoms: C_1  and  O_14
REMARK    2  A    between atoms: C_2  and  C_8
REMARK    3  A    between atoms: C_6  and  O_15
REMARK    4  A    between atoms: C_9  and  C_13
REMARK    5  A    between atoms: O_15  and  C_17
REMARK    6  A    between atoms: C_24  and  C_40
REMARK                            x       y       z     vdW  Elec       q    Type
REMARK                         _______ _______ _______ _____ _____    ______ ____
ROOT
ATOM      1  C   UNL     1      38.086  31.300  47.778  0.00  0.00    +0.000 A 
ATOM      2  C   UNL     1      37.091  31.308  48.735  0.00  0.00    +0.000 A 
ATOM      3  C   UNL     1      37.125  32.410  49.589  0.00  0.00    +0.000 A 
ATOM      4  C   UNL     1      38.092  33.412  49.471  0.00  0.00    +0.000 A 
ATOM      5  C   UNL     1      39.070  33.309  48.455  0.00  0.00    +0.000 A 
ATOM      6  C   UNL     1      39.051  32.217  47.593  0.00  0.00    +0.000 A 
ATOM      7  H   UNL     1      36.358  32.454  50.358  0.00  0.00    +0.000 HD
ATOM      8  H   UNL     1      38.100  34.263  50.148  0.00  0.00    +0.000 HD
ATOM      9  H   UNL     1      39.798  34.108  48.401  0.00  0.00    +0.000 HD
ENDROOT
BRANCH   2  11
ATOM     10  C   UNL     1      34.964  30.315  48.049  0.00  0.00    +0.000 A 
ATOM     11  C   UNL     1      36.100  30.290  48.862  0.00  0.00    +0.000 A 
ATOM     12  C   UNL     1      36.204  29.238  49.781  0.00  0.00    +0.000 A 
ATOM     13  N   UNL     1      35.228  28.311  49.845  0.00  0.00    +0.000 NA
ATOM     14  C   UNL     1      34.134  28.384  49.022  0.00  0.00    +0.000 A 
ATOM     15  N   UNL     1      34.011  29.370  48.143  0.00  0.00    +0.000 NA
ATOM     16  H   UNL     1      34.851  31.113  47.328  0.00  0.00    +0.000 HD
ATOM     17  H   UNL     1      33.371  27.617  49.107  0.00  0.00    +0.000 HD
BRANCH  12  18
ATOM     18  C   UNL     1      37.402  29.168  50.673  0.00  0.00    +0.000 C 
ATOM     19  H   UNL     1      37.275  28.330  51.364  0.00  0.00    +0.000 HD
ATOM     20  H   UNL     1      37.553  30.125  51.208  0.00  0.00    +0.000 HD
ATOM     21  H   UNL     1      38.254  28.900  50.012  0.00  0.00    +0.000 HD
ENDBRANCH  12  18
ENDBRANCH   2  11
BRANCH   1  22
ATOM     22  O   UNL     1      38.139  30.236  46.871  0.00  0.00    +0.000 OA
ATOM     23  H   UNL     1      37.666  30.281  45.977  0.00  0.00    +0.000 HD
ENDBRANCH   1  22
BRANCH   6  24
ATOM     24  O   UNL     1      40.034  32.190  46.632  0.00  0.00    +0.000 OA
BRANCH  24  26
ATOM     25  C   UNL     1      40.566  31.183  44.414  0.00  0.00    +0.000 A 
ATOM     26  C   UNL     1      39.856  31.985  45.287  0.00  0.00    +0.000 A 
ATOM     27  C   UNL     1      38.787  32.727  44.796  0.00  0.00    +0.000 A 
ATOM     28  C   UNL     1      38.433  32.664  43.446  0.00  0.00    +0.000 A 
ATOM     29  N   UNL     1      37.478  33.243  42.688  0.00  0.00    +0.000 N 
ATOM     30  C   UNL     1      37.592  32.819  41.411  0.00  0.00    +0.000 A 
ATOM     31  N   UNL     1      38.644  31.955  41.372  0.00  0.00    +0.000 NA
ATOM     32  C   UNL     1      39.164  31.855  42.611  0.00  0.00    +0.000 A 
ATOM     33  C   UNL     1      40.225  31.116  43.087  0.00  0.00    +0.000 A 
ATOM     34  H   UNL     1      41.370  30.651  44.880  0.00  0.00    +0.000 HD
ATOM     35  H   UNL     1      38.151  33.391  45.367  0.00  0.00    +0.000 HD
ATOM     36  H   UNL     1      36.771  33.904  43.023  0.00  0.00    +0.000 HD
ATOM     37  H   UNL     1      36.969  33.106  40.565  0.00  0.00    +0.000 HD
BRANCH  33  40
ATOM     38 CL   UNL     1      40.261  32.183  40.344  0.00  0.00    +0.000 Cl
ATOM     39  C   UNL     1      41.045  30.722  40.907  0.00  0.00    +0.000 A 
ATOM     40  C   UNL     1      41.004  30.255  42.205  0.00  0.00    +0.000 A 
ATOM     41  C   UNL     1      41.663  29.081  42.548  0.00  0.00    +0.000 A 
ATOM     42  H   UNL     1      41.575  28.796  43.580  0.00  0.00    +0.000 HD
ATOM     43  C   UNL     1      42.347  28.413  41.554  0.00  0.00    +0.000 A 
ATOM     44  H   UNL     1      42.835  27.502  41.910  0.00  0.00    +0.000 HD
ATOM     45  C   UNL     1      42.398  28.867  40.252  0.00  0.00    +0.000 A 
ATOM     46  C   UNL     1      41.735  30.041  39.924  0.00  0.00    +0.000 A 
ENDBRANCH  33  40
ENDBRANCH  24  26
ENDBRANCH   6  24
TORSDOF 6
