
 OpenBabel03272510173D

 28 30  0  0  0  0  0  0  0  0999 V2000
   37.2050   29.2510   50.9240 Br  0  0  0  0  0  0  0  0  0  0  0  0
   35.9430   29.2800   49.4850 C   0  0  0  0  0  0  0  0  0  0  0  0
   35.9970   30.2630   48.5080 C   0  0  0  0  0  0  0  0  0  0  0  0
   35.0550   30.2090   47.5130 C   0  0  0  0  0  0  0  0  0  0  0  0
   34.0680   29.2310   47.4400 C   0  0  0  0  0  0  0  0  0  0  0  0
   34.0560   28.2820   48.4270 C   0  0  0  0  0  0  0  0  0  0  0  0
   34.9900   28.3100   49.4420 C   0  0  0  0  0  0  0  0  0  0  0  0
   35.1270   30.9990   46.7600 H   0  0  0  0  0  0  0  0  0  0  0  0
   33.3170   27.4930   48.4340 H   0  0  0  0  0  0  0  0  0  0  0  0
   34.9530   27.5470   50.2040 H   0  0  0  0  0  0  0  0  0  0  0  0
   37.8540   33.1920   49.6210 C   0  0  0  0  0  0  0  0  0  0  0  0
   38.9270   33.2880   48.7030 C   0  0  0  0  0  0  0  0  0  0  0  0
   38.9960   32.3300   47.7000 C   0  0  0  0  0  0  0  0  0  0  0  0
   38.0330   31.3460   47.6450 N   0  0  0  0  0  0  0  0  0  0  0  0
   37.0230   31.3040   48.5580 C   0  0  0  0  0  0  0  0  0  0  0  0
   36.9400   32.2220   49.5350 N   0  0  0  0  0  0  0  0  0  0  0  0
   37.8240   33.9510   50.3930 H   0  0  0  0  0  0  0  0  0  0  0  0
   39.6510   34.0850   48.7990 H   0  0  0  0  0  0  0  0  0  0  0  0
   39.8000   32.3690   46.9780 H   0  0  0  0  0  0  0  0  0  0  0  0
   35.1450   28.9680   44.5940 Cl  0  0  0  0  0  0  0  0  0  0  0  0
   33.4720   29.1280   45.0290 C   0  0  0  0  0  0  0  0  0  0  0  0
   33.1000   29.2400   46.3490 C   0  0  0  0  0  0  0  0  0  0  0  0
   31.7410   29.3660   46.6390 C   0  0  0  0  0  0  0  0  0  0  0  0
   31.4440   29.4560   47.6930 H   0  0  0  0  0  0  0  0  0  0  0  0
   30.7590   29.3830   45.6750 C   0  0  0  0  0  0  0  0  0  0  0  0
   29.7080   29.4810   45.9060 H   0  0  0  0  0  0  0  0  0  0  0  0
   31.1910   29.2680   44.3670 C   0  0  0  0  0  3  0  0  0  0  0  0
   32.5170   29.1400   44.0070 C   0  0  0  0  0  3  0  0  0  0  0  0
  2  1  1  0  0  0  0
  3 15  1  0  0  0  0
  3  2  2  0  0  0  0
  4  3  1  0  0  0  0
  5  4  2  0  0  0  0
  5  6  1  0  0  0  0
  6  9  1  0  0  0  0
  6  7  2  0  0  0  0
  7  2  1  0  0  0  0
  7 10  1  0  0  0  0
  8  4  1  0  0  0  0
 11 17  1  0  0  0  0
 12 18  1  0  0  0  0
 12 11  2  0  0  0  0
 13 12  1  0  0  0  0
 14 13  2  0  0  0  0
 14 15  1  0  0  0  0
 15 16  2  0  0  0  0
 16 11  1  0  0  0  0
 19 13  1  0  0  0  0
 20 21  1  0  0  0  0
 21 22  1  0  0  0  0
 22 23  2  0  0  0  0
 22  5  1  0  0  0  0
 23 24  1  0  0  0  0
 25 26  1  0  0  0  0
 25 23  1  0  0  0  0
 27 25  2  0  0  0  0
 28 27  1  0  0  0  0
 28 21  2  0  0  0  0
M  END
>  <minimizedAffinity>
-5.74911356

>  <minimizedRMSD>
0.327685505

$$$$
