
 OpenBabel03272510163D

 28 30  0  0  0  0  0  0  0  0999 V2000
   37.3370   29.4020   51.1040 Br  0  0  0  0  0  0  0  0  0  0  0  0
   36.0150   29.3320   49.7210 C   0  0  0  0  0  0  0  0  0  0  0  0
   36.0380   30.2330   48.6660 C   0  0  0  0  0  0  0  0  0  0  0  0
   35.0540   30.1120   47.7190 C   0  0  0  0  0  0  0  0  0  0  0  0
   34.0540   29.1450   47.7670 C   0  0  0  0  0  0  0  0  0  0  0  0
   34.0740   28.2780   48.8270 C   0  0  0  0  0  0  0  0  0  0  0  0
   35.0510   28.3750   49.7960 C   0  0  0  0  0  0  0  0  0  0  0  0
   35.1010   30.8380   46.9020 H   0  0  0  0  0  0  0  0  0  0  0  0
   33.3280   27.5030   48.9280 H   0  0  0  0  0  0  0  0  0  0  0  0
   35.0380   27.6770   50.6180 H   0  0  0  0  0  0  0  0  0  0  0  0
   37.9770   33.2100   49.4670 C   0  0  0  0  0  0  0  0  0  0  0  0
   39.0050   33.2230   48.4950 C   0  0  0  0  0  0  0  0  0  0  0  0
   39.0150   32.1920   47.5630 C   0  0  0  0  0  0  0  0  0  0  0  0
   38.0400   31.2200   47.6280 N   0  0  0  0  0  0  0  0  0  0  0  0
   37.0760   31.2600   48.5890 C   0  0  0  0  0  0  0  0  0  0  0  0
   37.0500   32.2490   49.4980 N   0  0  0  0  0  0  0  0  0  0  0  0
   37.9920   34.0240   50.1800 H   0  0  0  0  0  0  0  0  0  0  0  0
   39.7410   34.0140   48.4950 H   0  0  0  0  0  0  0  0  0  0  0  0
   39.7830   32.1660   46.8030 H   0  0  0  0  0  0  0  0  0  0  0  0
   31.4070   27.7790   48.4470 Cl  0  0  0  0  0  0  0  0  0  0  0  0
   31.8130   28.4890   46.9150 C   0  0  0  0  0  0  0  0  0  0  0  0
   33.0400   29.0800   46.7200 C   0  0  0  0  0  0  0  0  0  0  0  0
   33.3100   29.6340   45.4680 C   0  0  0  0  0  0  0  0  0  0  0  0
   34.2900   30.1060   45.3120 H   0  0  0  0  0  0  0  0  0  0  0  0
   32.4140   29.6170   44.4240 C   0  0  0  0  0  0  0  0  0  0  0  0
   32.6290   30.0470   43.4570 H   0  0  0  0  0  0  0  0  0  0  0  0
   31.1990   29.0110   44.6770 C   0  0  0  0  0  0  0  0  0  0  0  0
   30.8630   28.4430   45.8890 C   0  0  0  0  0  0  0  0  0  0  0  0
  2  7  1  0  0  0  0
  2  1  1  0  0  0  0
  3  2  2  0  0  0  0
  4  5  2  0  0  0  0
  4  3  1  0  0  0  0
  5  6  1  0  0  0  0
  6  9  1  0  0  0  0
  6  7  2  0  0  0  0
  7 10  1  0  0  0  0
  8  4  1  0  0  0  0
 11 16  1  0  0  0  0
 11 17  1  0  0  0  0
 12 18  1  0  0  0  0
 12 11  2  0  0  0  0
 13 14  2  0  0  0  0
 13 12  1  0  0  0  0
 14 15  1  0  0  0  0
 15  3  1  0  0  0  0
 15 16  2  0  0  0  0
 19 13  1  0  0  0  0
 21 20  1  0  0  0  0
 22 21  1  0  0  0  0
 22  5  1  0  0  0  0
 23 22  2  0  0  0  0
 24 23  1  0  0  0  0
 25 27  2  0  0  0  0
 25 23  1  0  0  0  0
 26 25  1  0  0  0  0
 27 28  1  0  0  0  0
 28 21  2  0  0  0  0
M  END
>  <minimizedAffinity>
-6.15034199

>  <minimizedRMSD>
0.320623815

$$$$
