
 OpenBabel03262521423D

 43 47  0  0  0  0  0  0  0  0999 V2000
   38.5600   24.5820   35.6650 C   0  0  0  0  0  0  0  0  0  0  0  0
   37.5010   24.2540   36.4550 N   0  0  0  0  0  0  0  0  0  0  0  0
   37.6660   23.3900   37.4840 C   0  0  0  0  0  0  0  0  0  0  0  0
   38.8470   22.8230   37.7780 N   0  0  0  0  0  0  0  0  0  0  0  0
   39.9190   23.1150   37.0300 C   0  0  0  0  0  0  0  0  0  0  0  0
   41.1190   22.5300   37.3430 C   0  0  0  0  0  0  0  0  0  0  0  0
   42.2440   22.8230   36.5770 C   0  0  0  0  0  0  0  0  0  0  0  0
   42.1370   23.7140   35.4920 C   0  0  0  0  0  0  0  0  0  0  0  0
   40.8980   24.2560   35.2490 C   0  0  0  0  0  0  0  0  0  0  0  0
   39.7790   23.9930   35.9760 C   0  0  0  0  0  0  0  0  0  0  0  0
   36.7390   23.2270   38.0180 H   0  0  0  0  0  0  0  0  0  0  0  0
   41.1820   21.8500   38.1770 H   0  0  0  0  0  0  0  0  0  0  0  0
   43.1730   22.3230   36.8780 H   0  0  0  0  0  0  0  0  0  0  0  0
   43.0620   23.8650   34.9750 H   0  0  0  0  0  0  0  0  0  0  0  0
   40.6480   22.9760   32.4920 Cl  0  0  0  0  0  0  0  0  0  0  0  0
   40.8920   24.6890   32.7730 C   0  0  0  0  0  0  0  0  0  0  0  0
   40.9800   25.1470   34.0950 C   0  0  0  0  0  0  0  0  0  0  0  0
   41.1740   26.5040   34.3960 C   0  0  0  0  0  0  0  0  0  0  0  0
   41.2380   26.8360   35.4240 H   0  0  0  0  0  0  0  0  0  0  0  0
   41.2800   27.4040   33.3290 C   0  0  0  0  0  0  0  0  0  0  0  0
   41.4320   28.4650   33.5790 H   0  0  0  0  0  0  0  0  0  0  0  0
   41.1940   26.9500   32.0090 C   0  0  0  0  0  3  0  0  0  0  0  0
   41.0020   25.6120   31.7260 C   0  0  0  0  0  3  0  0  0  0  0  0
   38.5110   25.6840   34.2900 S   0  0  0  0  0  0  0  0  0  0  0  0
   37.8580   22.9300   33.5420 F   0  0  0  0  0  0  0  0  0  0  0  0
   37.1610   23.8240   32.7850 C   0  0  0  0  0  0  0  0  0  0  0  0
   36.2750   23.4020   31.8050 C   0  0  0  0  0  0  0  0  0  0  0  0
   35.5840   24.3490   31.0550 C   0  0  0  0  0  0  0  0  0  0  0  0
   35.7690   25.7200   31.2770 C   0  0  0  0  0  0  0  0  0  0  0  0
   36.6660   26.0690   32.2690 C   0  0  0  0  0  0  0  0  0  0  0  0
   37.3650   25.1590   33.0270 C   0  0  0  0  0  0  0  0  0  0  0  0
   34.8900   24.0210   30.2870 H   0  0  0  0  0  0  0  0  0  0  0  0
   35.2190   26.4210   30.6820 H   0  0  0  0  0  0  0  0  0  0  0  0
   36.7660   27.1200   32.3940 H   0  0  0  0  0  0  0  0  0  0  0  0
   35.0930   21.4200   32.3380 C   0  0  0  0  0  0  0  0  0  0  0  0
   36.1280   21.9990   31.6240 C   0  0  0  0  0  0  0  0  0  0  0  0
   36.8950   21.1490   30.8210 C   0  0  0  0  0  0  0  0  0  0  0  0
   36.5930   19.8240   30.7820 N   0  0  0  0  0  0  0  0  0  0  0  0
   35.5800   19.3160   31.4940 C   0  0  0  0  0  0  0  0  0  0  0  0
   34.8230   20.0910   32.2730 N   0  0  0  0  0  0  0  0  0  0  0  0
   34.4160   21.9530   33.0000 H   0  0  0  0  0  0  0  0  0  0  0  0
   37.6900   21.6390   30.2830 H   0  0  0  0  0  0  0  0  0  0  0  0
   35.4280   18.2540   31.3890 H   0  0  0  0  0  0  0  0  0  0  0  0
  1 10  2  0  0  0  0
  1  2  1  0  0  0  0
  2  3  2  0  0  0  0
  3  4  1  0  0  0  0
  3 11  1  0  0  0  0
  5  6  1  0  0  0  0
  5  4  2  0  0  0  0
  6 12  1  0  0  0  0
  7 13  1  0  0  0  0
  7  6  2  0  0  0  0
  8  7  1  0  0  0  0
  9  8  2  0  0  0  0
  9 10  1  0  0  0  0
 10  5  1  0  0  0  0
 14  8  1  0  0  0  0
 15 16  1  0  0  0  0
 16 17  1  0  0  0  0
 17 18  2  0  0  0  0
 17  9  1  0  0  0  0
 18 19  1  0  0  0  0
 20 21  1  0  0  0  0
 20 18  1  0  0  0  0
 22 20  2  0  0  0  0
 23 22  1  0  0  0  0
 23 16  2  0  0  0  0
 24  1  1  0  0  0  0
 26 31  1  0  0  0  0
 26 25  1  0  0  0  0
 27 26  2  0  0  0  0
 28 29  2  0  0  0  0
 28 27  1  0  0  0  0
 29 30  1  0  0  0  0
 30 34  1  0  0  0  0
 30 31  2  0  0  0  0
 31 24  1  0  0  0  0
 32 28  1  0  0  0  0
 33 29  1  0  0  0  0
 35 41  1  0  0  0  0
 36 27  1  0  0  0  0
 36 35  2  0  0  0  0
 37 36  1  0  0  0  0
 38 37  2  0  0  0  0
 38 39  1  0  0  0  0
 39 40  2  0  0  0  0
 40 35  1  0  0  0  0
 42 37  1  0  0  0  0
 43 39  1  0  0  0  0
M  END
>  <minimizedAffinity>
-6.86415005

$$$$

 OpenBabel03262521423D

 43 47  0  0  0  0  0  0  0  0999 V2000
   36.8050   25.2640   32.1890 C   0  0  0  0  0  0  0  0  0  0  0  0
   35.6460   25.2640   31.4740 N   0  0  0  0  0  0  0  0  0  0  0  0
   35.0380   24.0930   31.1700 C   0  0  0  0  0  0  0  0  0  0  0  0
   35.5240   22.8990   31.5440 N   0  0  0  0  0  0  0  0  0  0  0  0
   36.6610   22.8460   32.2510 C   0  0  0  0  0  0  0  0  0  0  0  0
   37.1460   21.6200   32.6280 C   0  0  0  0  0  0  0  0  0  0  0  0
   38.3260   21.5470   33.3630 C   0  0  0  0  0  0  0  0  0  0  0  0
   39.0060   22.7300   33.7100 C   0  0  0  0  0  0  0  0  0  0  0  0
   38.4510   23.9150   33.2930 C   0  0  0  0  0  0  0  0  0  0  0  0
   37.3020   24.0240   32.5750 C   0  0  0  0  0  0  0  0  0  0  0  0
   34.1320   24.2540   30.6000 H   0  0  0  0  0  0  0  0  0  0  0  0
   36.6110   20.7260   32.3520 H   0  0  0  0  0  0  0  0  0  0  0  0
   38.6600   20.5380   33.6330 H   0  0  0  0  0  0  0  0  0  0  0  0
   39.8990   22.5550   34.2740 H   0  0  0  0  0  0  0  0  0  0  0  0
   37.7730   25.1610   35.9930 Cl  0  0  0  0  0  0  0  0  0  0  0  0
   39.0810   25.6930   34.9550 C   0  0  0  0  0  0  0  0  0  0  0  0
   39.2900   25.0230   33.7400 C   0  0  0  0  0  0  0  0  0  0  0  0
   40.3180   25.3940   32.8590 C   0  0  0  0  0  0  0  0  0  0  0  0
   40.4620   24.8640   31.9270 H   0  0  0  0  0  0  0  0  0  0  0  0
   41.1420   26.4640   33.2260 C   0  0  0  0  0  0  0  0  0  0  0  0
   41.9440   26.7450   32.5260 H   0  0  0  0  0  0  0  0  0  0  0  0
   40.9360   27.1340   34.4360 C   0  0  0  0  0  3  0  0  0  0  0  0
   39.9210   26.7590   35.2950 C   0  0  0  0  0  3  0  0  0  0  0  0
   37.7180   26.6940   32.6620 S   0  0  0  0  0  0  0  0  0  0  0  0
   36.5330   28.2960   34.8080 F   0  0  0  0  0  0  0  0  0  0  0  0
   36.2820   28.8460   33.5870 C   0  0  0  0  0  0  0  0  0  0  0  0
   35.5500   30.0170   33.4610 C   0  0  0  0  0  0  0  0  0  0  0  0
   35.3170   30.5460   32.1940 C   0  0  0  0  0  0  0  0  0  0  0  0
   35.8130   29.9120   31.0470 C   0  0  0  0  0  0  0  0  0  0  0  0
   36.5330   28.7500   31.2460 C   0  0  0  0  0  0  0  0  0  0  0  0
   36.7800   28.2020   32.4830 C   0  0  0  0  0  0  0  0  0  0  0  0
   34.7440   31.4620   32.0940 H   0  0  0  0  0  0  0  0  0  0  0  0
   35.6150   30.3480   30.0890 H   0  0  0  0  0  0  0  0  0  0  0  0
   36.8850   28.3150   30.3430 H   0  0  0  0  0  0  0  0  0  0  0  0
   33.7300   30.4060   34.9280 C   0  0  0  0  0  0  0  0  0  0  0  0
   35.0720   30.6150   34.6600 C   0  0  0  0  0  0  0  0  0  0  0  0
   35.7900   31.3790   35.5870 C   0  0  0  0  0  0  0  0  0  0  0  0
   35.1480   31.8670   36.6810 N   0  0  0  0  0  0  0  0  0  0  0  0
   33.8470   31.6340   36.8900 C   0  0  0  0  0  0  0  0  0  0  0  0
   33.1250   30.9110   36.0330 N   0  0  0  0  0  0  0  0  0  0  0  0
   33.0510   29.8340   34.3020 H   0  0  0  0  0  0  0  0  0  0  0  0
   36.8300   31.5190   35.3400 H   0  0  0  0  0  0  0  0  0  0  0  0
   33.4390   32.0680   37.7900 H   0  0  0  0  0  0  0  0  0  0  0  0
  1 10  1  0  0  0  0
  1 24  1  0  0  0  0
  2  1  2  0  0  0  0
  3  2  1  0  0  0  0
  3  4  2  0  0  0  0
  4  5  1  0  0  0  0
  5 10  2  0  0  0  0
  5  6  1  0  0  0  0
  6  7  2  0  0  0  0
  7 13  1  0  0  0  0
  7  8  1  0  0  0  0
  8 14  1  0  0  0  0
  9  8  2  0  0  0  0
  9 17  1  0  0  0  0
 10  9  1  0  0  0  0
 11  3  1  0  0  0  0
 12  6  1  0  0  0  0
 16 23  1  0  0  0  0
 16 15  1  0  0  0  0
 17 16  2  0  0  0  0
 18 20  2  0  0  0  0
 18 17  1  0  0  0  0
 19 18  1  0  0  0  0
 20 22  1  0  0  0  0
 21 20  1  0  0  0  0
 22 23  2  0  0  0  0
 26 25  1  0  0  0  0
 27 26  1  0  0  0  0
 27 36  1  0  0  0  0
 28 27  2  0  0  0  0
 29 30  2  0  0  0  0
 29 28  1  0  0  0  0
 30 31  1  0  0  0  0
 31 24  1  0  0  0  0
 31 26  2  0  0  0  0
 32 28  1  0  0  0  0
 33 29  1  0  0  0  0
 34 30  1  0  0  0  0
 35 40  1  0  0  0  0
 36 35  2  0  0  0  0
 36 37  1  0  0  0  0
 37 38  2  0  0  0  0
 38 39  1  0  0  0  0
 39 43  1  0  0  0  0
 40 39  2  0  0  0  0
 41 35  1  0  0  0  0
 42 37  1  0  0  0  0
M  END
>  <minimizedAffinity>
-6.71645689

$$$$

 OpenBabel03262521423D

 43 47  0  0  0  0  0  0  0  0999 V2000
   40.2520   25.7280   34.6040 C   0  0  0  0  0  0  0  0  0  0  0  0
   40.6670   26.8410   33.9380 N   0  0  0  0  0  0  0  0  0  0  0  0
   41.9900   27.0940   33.8010 C   0  0  0  0  0  0  0  0  0  0  0  0
   42.9430   26.2890   34.2970 N   0  0  0  0  0  0  0  0  0  0  0  0
   42.5850   25.1810   34.9590 C   0  0  0  0  0  0  0  0  0  0  0  0
   43.5690   24.3660   35.4600 C   0  0  0  0  0  0  0  0  0  0  0  0
   43.2150   23.2110   36.1500 C   0  0  0  0  0  0  0  0  0  0  0  0
   41.8550   22.8920   36.3270 C   0  0  0  0  0  0  0  0  0  0  0  0
   40.9350   23.7610   35.7930 C   0  0  0  0  0  0  0  0  0  0  0  0
   41.2440   24.8980   35.1140 C   0  0  0  0  0  0  0  0  0  0  0  0
   42.1630   28.0100   33.2510 H   0  0  0  0  0  0  0  0  0  0  0  0
   44.6040   24.6280   35.3150 H   0  0  0  0  0  0  0  0  0  0  0  0
   44.0470   22.6020   36.5250 H   0  0  0  0  0  0  0  0  0  0  0  0
   41.7000   21.9830   36.8710 H   0  0  0  0  0  0  0  0  0  0  0  0
   39.6730   21.9150   33.7200 Cl  0  0  0  0  0  0  0  0  0  0  0  0
   38.8890   22.4260   35.2010 C   0  0  0  0  0  0  0  0  0  0  0  0
   39.5890   23.2710   36.0750 C   0  0  0  0  0  0  0  0  0  0  0  0
   39.0250   23.7200   37.2790 C   0  0  0  0  0  0  0  0  0  0  0  0
   39.5820   24.3720   37.9390 H   0  0  0  0  0  0  0  0  0  0  0  0
   37.7280   23.2990   37.5930 C   0  0  0  0  0  0  0  0  0  0  0  0
   37.2970   23.6580   38.5410 H   0  0  0  0  0  0  0  0  0  0  0  0
   37.0270   22.4570   36.7240 C   0  0  0  0  0  3  0  0  0  0  0  0
   37.5940   22.0210   35.5420 C   0  0  0  0  0  3  0  0  0  0  0  0
   38.5750   25.2570   34.8700 S   0  0  0  0  0  0  0  0  0  0  0  0
   37.3770   27.7780   33.9860 F   0  0  0  0  0  0  0  0  0  0  0  0
   37.0560   26.7580   33.1420 C   0  0  0  0  0  0  0  0  0  0  0  0
   36.2570   26.9680   32.0270 C   0  0  0  0  0  0  0  0  0  0  0  0
   35.9550   25.8980   31.1910 C   0  0  0  0  0  0  0  0  0  0  0  0
   36.4450   24.6130   31.4580 C   0  0  0  0  0  0  0  0  0  0  0  0
   37.2340   24.4760   32.5840 C   0  0  0  0  0  0  0  0  0  0  0  0
   37.5510   25.5110   33.4310 C   0  0  0  0  0  0  0  0  0  0  0  0
   35.3290   26.0610   30.3180 H   0  0  0  0  0  0  0  0  0  0  0  0
   36.1930   23.8130   30.7920 H   0  0  0  0  0  0  0  0  0  0  0  0
   37.5780   23.4820   32.7360 H   0  0  0  0  0  0  0  0  0  0  0  0
   36.4630   29.0000   30.8260 C   0  0  0  0  0  0  0  0  0  0  0  0
   35.7890   28.2930   31.8070 C   0  0  0  0  0  0  0  0  0  0  0  0
   34.7400   28.9550   32.4550 C   0  0  0  0  0  0  0  0  0  0  0  0
   34.4430   30.2320   32.0980 N   0  0  0  0  0  0  0  0  0  0  0  0
   35.1290   30.8690   31.1420 C   0  0  0  0  0  0  0  0  0  0  0  0
   36.1360   30.2760   30.4980 N   0  0  0  0  0  0  0  0  0  0  0  0
   37.2950   28.6170   30.2410 H   0  0  0  0  0  0  0  0  0  0  0  0
   34.2420   28.3700   33.2110 H   0  0  0  0  0  0  0  0  0  0  0  0
   34.8090   31.8790   30.9380 H   0  0  0  0  0  0  0  0  0  0  0  0
  1 24  1  0  0  0  0
  1 10  1  0  0  0  0
  2  1  2  0  0  0  0
  3  2  1  0  0  0  0
  3  4  2  0  0  0  0
  4  5  1  0  0  0  0
  5 10  2  0  0  0  0
  5  6  1  0  0  0  0
  6  7  2  0  0  0  0
  7  8  1  0  0  0  0
  7 13  1  0  0  0  0
  8 14  1  0  0  0  0
  9 17  1  0  0  0  0
  9  8  2  0  0  0  0
 10  9  1  0  0  0  0
 11  3  1  0  0  0  0
 12  6  1  0  0  0  0
 15 16  1  0  0  0  0
 16 23  2  0  0  0  0
 16 17  1  0  0  0  0
 17 18  2  0  0  0  0
 18 20  1  0  0  0  0
 18 19  1  0  0  0  0
 20 21  1  0  0  0  0
 22 20  2  0  0  0  0
 23 22  1  0  0  0  0
 26 31  1  0  0  0  0
 26 25  1  0  0  0  0
 27 26  2  0  0  0  0
 28 29  2  0  0  0  0
 28 27  1  0  0  0  0
 29 30  1  0  0  0  0
 30 34  1  0  0  0  0
 30 31  2  0  0  0  0
 31 24  1  0  0  0  0
 32 28  1  0  0  0  0
 33 29  1  0  0  0  0
 35 36  1  0  0  0  0
 36 27  1  0  0  0  0
 36 37  2  0  0  0  0
 37 42  1  0  0  0  0
 38 37  1  0  0  0  0
 39 38  2  0  0  0  0
 40 35  2  0  0  0  0
 40 39  1  0  0  0  0
 41 35  1  0  0  0  0
 43 39  1  0  0  0  0
M  END
>  <minimizedAffinity>
-6.59674835

$$$$

 OpenBabel03262521423D

 43 47  0  0  0  0  0  0  0  0999 V2000
   40.8010   25.4360   34.6420 C   0  0  0  0  0  0  0  0  0  0  0  0
   41.3800   26.5180   34.0520 N   0  0  0  0  0  0  0  0  0  0  0  0
   42.7230   26.6770   34.1000 C   0  0  0  0  0  0  0  0  0  0  0  0
   43.5400   25.8050   34.7110 N   0  0  0  0  0  0  0  0  0  0  0  0
   43.0190   24.7240   35.3060 C   0  0  0  0  0  0  0  0  0  0  0  0
   43.8640   23.8410   35.9270 C   0  0  0  0  0  0  0  0  0  0  0  0
   43.3390   22.7120   36.5490 C   0  0  0  0  0  0  0  0  0  0  0  0
   41.9490   22.4900   36.5350 C   0  0  0  0  0  0  0  0  0  0  0  0
   41.1740   23.4240   35.8910 C   0  0  0  0  0  0  0  0  0  0  0  0
   41.6520   24.5370   35.2730 C   0  0  0  0  0  0  0  0  0  0  0  0
   43.0340   27.5790   33.5890 H   0  0  0  0  0  0  0  0  0  0  0  0
   44.9260   24.0280   35.9280 H   0  0  0  0  0  0  0  0  0  0  0  0
   44.0680   22.0450   37.0270 H   0  0  0  0  0  0  0  0  0  0  0  0
   41.6580   21.5930   37.0420 H   0  0  0  0  0  0  0  0  0  0  0  0
   40.0750   21.6970   33.6300 Cl  0  0  0  0  0  0  0  0  0  0  0  0
   39.1370   22.2480   35.0040 C   0  0  0  0  0  0  0  0  0  0  0  0
   39.7710   23.0300   35.9800 C   0  0  0  0  0  0  0  0  0  0  0  0
   39.0840   23.5060   37.1080 C   0  0  0  0  0  0  0  0  0  0  0  0
   39.5920   24.1080   37.8490 H   0  0  0  0  0  0  0  0  0  0  0  0
   37.7290   23.1770   37.2370 C   0  0  0  0  0  0  0  0  0  0  0  0
   37.2010   23.5560   38.1260 H   0  0  0  0  0  0  0  0  0  0  0  0
   37.0940   22.3980   36.2650 C   0  0  0  0  0  3  0  0  0  0  0  0
   37.7820   21.9340   35.1600 C   0  0  0  0  0  3  0  0  0  0  0  0
   39.0740   25.0860   34.6720 S   0  0  0  0  0  0  0  0  0  0  0  0
   39.1080   26.2310   31.9770 F   0  0  0  0  0  0  0  0  0  0  0  0
   38.2110   26.8760   32.7750 C   0  0  0  0  0  0  0  0  0  0  0  0
   37.4500   27.9320   32.2960 C   0  0  0  0  0  0  0  0  0  0  0  0
   36.5440   28.5620   33.1440 C   0  0  0  0  0  0  0  0  0  0  0  0
   36.3910   28.1450   34.4730 C   0  0  0  0  0  0  0  0  0  0  0  0
   37.1810   27.0880   34.8830 C   0  0  0  0  0  0  0  0  0  0  0  0
   38.0850   26.4440   34.0710 C   0  0  0  0  0  0  0  0  0  0  0  0
   35.9480   29.3890   32.7710 H   0  0  0  0  0  0  0  0  0  0  0  0
   35.6850   28.6520   35.0970 H   0  0  0  0  0  0  0  0  0  0  0  0
   37.0220   26.8140   35.8980 H   0  0  0  0  0  0  0  0  0  0  0  0
   36.9950   29.4690   30.5510 C   0  0  0  0  0  0  0  0  0  0  0  0
   37.6480   28.3110   30.9390 C   0  0  0  0  0  0  0  0  0  0  0  0
   38.4140   27.6600   29.9660 C   0  0  0  0  0  0  0  0  0  0  0  0
   38.4790   28.1860   28.7140 N   0  0  0  0  0  0  0  0  0  0  0  0
   37.8260   29.3090   28.3930 C   0  0  0  0  0  0  0  0  0  0  0  0
   37.0840   29.9620   29.2890 N   0  0  0  0  0  0  0  0  0  0  0  0
   36.3680   30.0780   31.1960 H   0  0  0  0  0  0  0  0  0  0  0  0
   38.9050   26.7640   30.3090 H   0  0  0  0  0  0  0  0  0  0  0  0
   37.9470   29.6380   27.3730 H   0  0  0  0  0  0  0  0  0  0  0  0
  1 24  1  0  0  0  0
  1 10  1  0  0  0  0
  2  3  1  0  0  0  0
  2  1  2  0  0  0  0
  3  4  2  0  0  0  0
  4  5  1  0  0  0  0
  5  6  1  0  0  0  0
  6 12  1  0  0  0  0
  6  7  2  0  0  0  0
  7 13  1  0  0  0  0
  8  7  1  0  0  0  0
  8 14  1  0  0  0  0
  9 17  1  0  0  0  0
  9  8  2  0  0  0  0
 10  5  2  0  0  0  0
 10  9  1  0  0  0  0
 11  3  1  0  0  0  0
 15 16  1  0  0  0  0
 16 23  2  0  0  0  0
 16 17  1  0  0  0  0
 17 18  2  0  0  0  0
 18 20  1  0  0  0  0
 18 19  1  0  0  0  0
 20 21  1  0  0  0  0
 22 20  2  0  0  0  0
 23 22  1  0  0  0  0
 25 26  1  0  0  0  0
 26 31  1  0  0  0  0
 27 26  2  0  0  0  0
 27 28  1  0  0  0  0
 28 29  2  0  0  0  0
 29 30  1  0  0  0  0
 29 33  1  0  0  0  0
 30 34  1  0  0  0  0
 31 24  1  0  0  0  0
 31 30  2  0  0  0  0
 32 28  1  0  0  0  0
 35 36  1  0  0  0  0
 35 41  1  0  0  0  0
 36 27  1  0  0  0  0
 37 42  1  0  0  0  0
 37 36  2  0  0  0  0
 38 37  1  0  0  0  0
 39 38  2  0  0  0  0
 39 40  1  0  0  0  0
 40 35  2  0  0  0  0
 43 39  1  0  0  0  0
M  END
>  <minimizedAffinity>
-6.49905348

$$$$

 OpenBabel03262521423D

 43 47  0  0  0  0  0  0  0  0999 V2000
   37.2980   24.6950   32.9240 C   0  0  0  0  0  0  0  0  0  0  0  0
   36.6720   24.7370   31.7160 N   0  0  0  0  0  0  0  0  0  0  0  0
   36.1130   25.8910   31.2820 C   0  0  0  0  0  0  0  0  0  0  0  0
   36.1410   27.0280   31.9950 N   0  0  0  0  0  0  0  0  0  0  0  0
   36.7460   27.0380   33.1900 C   0  0  0  0  0  0  0  0  0  0  0  0
   36.7680   28.2070   33.9080 C   0  0  0  0  0  0  0  0  0  0  0  0
   37.3930   28.2350   35.1510 C   0  0  0  0  0  0  0  0  0  0  0  0
   37.9930   27.0660   35.6580 C   0  0  0  0  0  0  0  0  0  0  0  0
   37.9250   25.9400   34.8740 C   0  0  0  0  0  0  0  0  0  0  0  0
   37.3240   25.8760   33.6560 C   0  0  0  0  0  0  0  0  0  0  0  0
   35.6550   25.7690   30.3090 H   0  0  0  0  0  0  0  0  0  0  0  0
   36.3030   29.0910   33.5030 H   0  0  0  0  0  0  0  0  0  0  0  0
   37.3760   29.1990   35.6740 H   0  0  0  0  0  0  0  0  0  0  0  0
   38.4420   27.2040   36.6200 H   0  0  0  0  0  0  0  0  0  0  0  0
   40.8690   25.4890   34.2210 Cl  0  0  0  0  0  0  0  0  0  0  0  0
   39.9410   24.5120   35.3410 C   0  0  0  0  0  0  0  0  0  0  0  0
   38.5940   24.8370   35.5580 C   0  0  0  0  0  0  0  0  0  0  0  0
   37.7890   24.1010   36.4420 C   0  0  0  0  0  0  0  0  0  0  0  0
   36.7520   24.3680   36.5950 H   0  0  0  0  0  0  0  0  0  0  0  0
   38.3710   23.0180   37.1110 C   0  0  0  0  0  0  0  0  0  0  0  0
   37.7290   22.4480   37.8010 H   0  0  0  0  0  0  0  0  0  0  0  0
   39.7140   22.6910   36.8960 C   0  0  0  0  0  3  0  0  0  0  0  0
   40.4950   23.4250   36.0250 C   0  0  0  0  0  3  0  0  0  0  0  0
   38.0690   23.2770   33.6310 S   0  0  0  0  0  0  0  0  0  0  0  0
   38.5410   21.6900   31.2150 F   0  0  0  0  0  0  0  0  0  0  0  0
   37.5870   21.1180   32.0020 C   0  0  0  0  0  0  0  0  0  0  0  0
   36.9650   19.9340   31.6340 C   0  0  0  0  0  0  0  0  0  0  0  0
   35.9960   19.3830   32.4670 C   0  0  0  0  0  0  0  0  0  0  0  0
   35.6410   20.0060   33.6710 C   0  0  0  0  0  0  0  0  0  0  0  0
   36.3010   21.1820   33.9750 C   0  0  0  0  0  0  0  0  0  0  0  0
   37.2610   21.7530   33.1740 C   0  0  0  0  0  0  0  0  0  0  0  0
   35.5080   18.4560   32.1810 H   0  0  0  0  0  0  0  0  0  0  0  0
   34.8920   19.5530   34.2880 H   0  0  0  0  0  0  0  0  0  0  0  0
   35.9920   21.6090   34.8980 H   0  0  0  0  0  0  0  0  0  0  0  0
   38.6270   18.7760   30.4050 C   0  0  0  0  0  0  0  0  0  0  0  0
   37.3660   19.3470   30.4020 C   0  0  0  0  0  0  0  0  0  0  0  0
   36.6450   19.2790   29.2050 C   0  0  0  0  0  0  0  0  0  0  0  0
   37.2060   18.6690   28.1280 N   0  0  0  0  0  0  0  0  0  0  0  0
   38.4310   18.1340   28.1860 C   0  0  0  0  0  0  0  0  0  0  0  0
   39.1540   18.1760   29.3070 N   0  0  0  0  0  0  0  0  0  0  0  0
   39.2990   18.7520   31.2590 H   0  0  0  0  0  0  0  0  0  0  0  0
   35.6690   19.7350   29.2450 H   0  0  0  0  0  0  0  0  0  0  0  0
   38.7790   17.6750   27.2750 H   0  0  0  0  0  0  0  0  0  0  0  0
  1 24  1  0  0  0  0
  1 10  1  0  0  0  0
  2  1  2  0  0  0  0
  3  2  1  0  0  0  0
  3  4  2  0  0  0  0
  4  5  1  0  0  0  0
  5 10  2  0  0  0  0
  5  6  1  0  0  0  0
  6  7  2  0  0  0  0
  7  8  1  0  0  0  0
  7 13  1  0  0  0  0
  8 14  1  0  0  0  0
  9 17  1  0  0  0  0
  9  8  2  0  0  0  0
 10  9  1  0  0  0  0
 11  3  1  0  0  0  0
 12  6  1  0  0  0  0
 15 16  1  0  0  0  0
 16 17  2  0  0  0  0
 16 23  1  0  0  0  0
 17 18  1  0  0  0  0
 18 19  1  0  0  0  0
 18 20  2  0  0  0  0
 20 21  1  0  0  0  0
 22 20  1  0  0  0  0
 23 22  2  0  0  0  0
 25 26  1  0  0  0  0
 26 31  1  0  0  0  0
 27 26  2  0  0  0  0
 27 28  1  0  0  0  0
 28 29  2  0  0  0  0
 29 30  1  0  0  0  0
 29 33  1  0  0  0  0
 30 34  1  0  0  0  0
 31 24  1  0  0  0  0
 31 30  2  0  0  0  0
 32 28  1  0  0  0  0
 35 41  1  0  0  0  0
 36 35  1  0  0  0  0
 36 27  1  0  0  0  0
 37 42  1  0  0  0  0
 37 36  2  0  0  0  0
 38 39  2  0  0  0  0
 38 37  1  0  0  0  0
 39 40  1  0  0  0  0
 40 35  2  0  0  0  0
 43 39  1  0  0  0  0
M  END
>  <minimizedAffinity>
-6.41849232

$$$$

 OpenBabel03262521423D

 43 47  0  0  0  0  0  0  0  0999 V2000
   33.0080   30.1620   33.3860 C   0  0  0  0  0  0  0  0  0  0  0  0
   32.3570   29.0090   33.0680 N   0  0  0  0  0  0  0  0  0  0  0  0
   31.3250   28.5810   33.8320 C   0  0  0  0  0  0  0  0  0  0  0  0
   30.8940   29.2460   34.9150 N   0  0  0  0  0  0  0  0  0  0  0  0
   31.5010   30.3870   35.2700 C   0  0  0  0  0  0  0  0  0  0  0  0
   31.0500   31.0570   36.3780 C   0  0  0  0  0  0  0  0  0  0  0  0
   31.6680   32.2440   36.7590 C   0  0  0  0  0  0  0  0  0  0  0  0
   32.7480   32.7420   36.0050 C   0  0  0  0  0  0  0  0  0  0  0  0
   33.1360   32.0080   34.9100 C   0  0  0  0  0  0  0  0  0  0  0  0
   32.5550   30.8470   34.5080 C   0  0  0  0  0  0  0  0  0  0  0  0
   30.9110   27.6550   33.4560 H   0  0  0  0  0  0  0  0  0  0  0  0
   30.2220   30.6600   36.9420 H   0  0  0  0  0  0  0  0  0  0  0  0
   31.2610   32.7310   37.6540 H   0  0  0  0  0  0  0  0  0  0  0  0
   33.1460   33.6590   36.3900 H   0  0  0  0  0  0  0  0  0  0  0  0
   35.9210   31.3870   35.9860 Cl  0  0  0  0  0  0  0  0  0  0  0  0
   35.5920   32.4860   34.6620 C   0  0  0  0  0  0  0  0  0  0  0  0
   34.2610   32.6730   34.2590 C   0  0  0  0  0  0  0  0  0  0  0  0
   33.9220   33.5370   33.2060 C   0  0  0  0  0  0  0  0  0  0  0  0
   32.8900   33.6670   32.9110 H   0  0  0  0  0  0  0  0  0  0  0  0
   34.9580   34.2180   32.5570 C   0  0  0  0  0  0  0  0  0  0  0  0
   34.6790   34.8930   31.7330 H   0  0  0  0  0  0  0  0  0  0  0  0
   36.2860   34.0340   32.9570 C   0  0  0  0  0  3  0  0  0  0  0  0
   36.6070   33.1800   33.9940 C   0  0  0  0  0  3  0  0  0  0  0  0
   34.3660   30.8520   32.5000 S   0  0  0  0  0  0  0  0  0  0  0  0
   35.5400   28.9960   34.4370 F   0  0  0  0  0  0  0  0  0  0  0  0
   36.1170   28.8590   33.2110 C   0  0  0  0  0  0  0  0  0  0  0  0
   37.1280   27.9340   32.9900 C   0  0  0  0  0  0  0  0  0  0  0  0
   37.6900   27.8260   31.7210 C   0  0  0  0  0  0  0  0  0  0  0  0
   37.2500   28.6360   30.6660 C   0  0  0  0  0  0  0  0  0  0  0  0
   36.2410   29.5330   30.9570 C   0  0  0  0  0  0  0  0  0  0  0  0
   35.6650   29.6670   32.1980 C   0  0  0  0  0  0  0  0  0  0  0  0
   38.4810   27.1030   31.5460 H   0  0  0  0  0  0  0  0  0  0  0  0
   37.7040   28.5240   29.7030 H   0  0  0  0  0  0  0  0  0  0  0  0
   35.9470   30.1190   30.1200 H   0  0  0  0  0  0  0  0  0  0  0  0
   37.5050   25.7730   33.8830 C   0  0  0  0  0  0  0  0  0  0  0  0
   37.5330   27.1400   34.0980 C   0  0  0  0  0  0  0  0  0  0  0  0
   37.9520   27.5730   35.3610 C   0  0  0  0  0  0  0  0  0  0  0  0
   38.3030   26.6500   36.2940 N   0  0  0  0  0  0  0  0  0  0  0  0
   38.2560   25.3380   36.0330 C   0  0  0  0  0  0  0  0  0  0  0  0
   37.8630   24.8810   34.8420 N   0  0  0  0  0  0  0  0  0  0  0  0
   37.2040   25.2930   32.9560 H   0  0  0  0  0  0  0  0  0  0  0  0
   37.9590   28.6440   35.4860 H   0  0  0  0  0  0  0  0  0  0  0  0
   38.5560   24.6950   36.8440 H   0  0  0  0  0  0  0  0  0  0  0  0
  1 10  1  0  0  0  0
  2  1  2  0  0  0  0
  2  3  1  0  0  0  0
  3  4  2  0  0  0  0
  4  5  1  0  0  0  0
  5  6  1  0  0  0  0
  6  7  2  0  0  0  0
  6 12  1  0  0  0  0
  7 13  1  0  0  0  0
  8 14  1  0  0  0  0
  8  7  1  0  0  0  0
  9  8  2  0  0  0  0
 10  9  1  0  0  0  0
 10  5  2  0  0  0  0
 11  3  1  0  0  0  0
 16 15  1  0  0  0  0
 17 16  1  0  0  0  0
 17  9  1  0  0  0  0
 18 17  2  0  0  0  0
 19 18  1  0  0  0  0
 20 22  2  0  0  0  0
 20 18  1  0  0  0  0
 21 20  1  0  0  0  0
 22 23  1  0  0  0  0
 23 16  2  0  0  0  0
 24  1  1  0  0  0  0
 26 25  1  0  0  0  0
 27 26  1  0  0  0  0
 27 36  1  0  0  0  0
 28 27  2  0  0  0  0
 29 30  2  0  0  0  0
 29 28  1  0  0  0  0
 30 31  1  0  0  0  0
 31 24  1  0  0  0  0
 31 26  2  0  0  0  0
 32 28  1  0  0  0  0
 33 29  1  0  0  0  0
 34 30  1  0  0  0  0
 35 36  2  0  0  0  0
 35 40  1  0  0  0  0
 36 37  1  0  0  0  0
 37 42  1  0  0  0  0
 37 38  2  0  0  0  0
 39 38  1  0  0  0  0
 39 43  1  0  0  0  0
 40 39  2  0  0  0  0
 41 35  1  0  0  0  0
M  END
>  <minimizedAffinity>
-6.32597637

$$$$

 OpenBabel03262521423D

 43 47  0  0  0  0  0  0  0  0999 V2000
   38.8480   25.2460   35.6350 C   0  0  0  0  0  0  0  0  0  0  0  0
   37.7450   25.1830   36.4310 N   0  0  0  0  0  0  0  0  0  0  0  0
   37.5420   24.1020   37.2210 C   0  0  0  0  0  0  0  0  0  0  0  0
   38.3880   23.0610   37.2660 N   0  0  0  0  0  0  0  0  0  0  0  0
   39.4880   23.0760   36.5010 C   0  0  0  0  0  0  0  0  0  0  0  0
   40.3440   22.0060   36.5570 C   0  0  0  0  0  0  0  0  0  0  0  0
   41.4920   22.0070   35.7700 C   0  0  0  0  0  0  0  0  0  0  0  0
   41.7600   23.1020   34.9260 C   0  0  0  0  0  0  0  0  0  0  0  0
   40.8510   24.1310   34.9320 C   0  0  0  0  0  0  0  0  0  0  0  0
   39.7200   24.1650   35.6870 C   0  0  0  0  0  0  0  0  0  0  0  0
   36.6280   24.1960   37.7930 H   0  0  0  0  0  0  0  0  0  0  0  0
   40.1220   21.1770   37.2080 H   0  0  0  0  0  0  0  0  0  0  0  0
   42.1360   21.1230   35.8600 H   0  0  0  0  0  0  0  0  0  0  0  0
   42.6680   22.9950   34.3680 H   0  0  0  0  0  0  0  0  0  0  0  0
   39.7990   23.9670   32.0740 Cl  0  0  0  0  0  0  0  0  0  0  0  0
   40.8930   25.2040   32.6590 C   0  0  0  0  0  0  0  0  0  0  0  0
   41.2910   25.1680   34.0030 C   0  0  0  0  0  0  0  0  0  0  0  0
   42.1640   26.1260   34.5420 C   0  0  0  0  0  0  0  0  0  0  0  0
   42.4590   26.0800   35.5820 H   0  0  0  0  0  0  0  0  0  0  0  0
   42.6360   27.1340   33.6930 C   0  0  0  0  0  0  0  0  0  0  0  0
   43.3210   27.8790   34.1270 H   0  0  0  0  0  0  0  0  0  0  0  0
   42.2420   27.1720   32.3510 C   0  0  0  0  0  3  0  0  0  0  0  0
   41.3810   26.2240   31.8340 C   0  0  0  0  0  3  0  0  0  0  0  0
   39.2560   26.5750   34.5520 S   0  0  0  0  0  0  0  0  0  0  0  0
   37.3980   28.5430   35.6700 F   0  0  0  0  0  0  0  0  0  0  0  0
   37.0400   28.1920   34.4030 C   0  0  0  0  0  0  0  0  0  0  0  0
   35.9230   28.7420   33.7910 C   0  0  0  0  0  0  0  0  0  0  0  0
   35.5930   28.3560   32.4950 C   0  0  0  0  0  0  0  0  0  0  0  0
   36.3730   27.4220   31.8010 C   0  0  0  0  0  0  0  0  0  0  0  0
   37.4710   26.9150   32.4700 C   0  0  0  0  0  0  0  0  0  0  0  0
   37.8240   27.2740   33.7500 C   0  0  0  0  0  0  0  0  0  0  0  0
   34.7190   28.7850   32.0150 H   0  0  0  0  0  0  0  0  0  0  0  0
   36.0900   27.1490   30.8050 H   0  0  0  0  0  0  0  0  0  0  0  0
   38.0250   26.2130   31.8960 H   0  0  0  0  0  0  0  0  0  0  0  0
   33.8260   29.3850   34.6870 C   0  0  0  0  0  0  0  0  0  0  0  0
   35.1700   29.6850   34.5440 C   0  0  0  0  0  0  0  0  0  0  0  0
   35.6220   30.8630   35.1490 C   0  0  0  0  0  0  0  0  0  0  0  0
   34.7380   31.6370   35.8320 N   0  0  0  0  0  0  0  0  0  0  0  0
   33.4480   31.2990   35.9380 C   0  0  0  0  0  0  0  0  0  0  0  0
   32.9740   30.1850   35.3770 N   0  0  0  0  0  0  0  0  0  0  0  0
   33.3350   28.5070   34.2740 H   0  0  0  0  0  0  0  0  0  0  0  0
   36.6730   31.0590   35.0150 H   0  0  0  0  0  0  0  0  0  0  0  0
   32.8360   31.9840   36.5020 H   0  0  0  0  0  0  0  0  0  0  0  0
  1 10  2  0  0  0  0
  1  2  1  0  0  0  0
  2  3  2  0  0  0  0
  3  4  1  0  0  0  0
  3 11  1  0  0  0  0
  5  6  1  0  0  0  0
  5  4  2  0  0  0  0
  6 12  1  0  0  0  0
  7 13  1  0  0  0  0
  7  6  2  0  0  0  0
  8  9  2  0  0  0  0
  8  7  1  0  0  0  0
  9 10  1  0  0  0  0
 10  5  1  0  0  0  0
 14  8  1  0  0  0  0
 15 16  1  0  0  0  0
 16 17  1  0  0  0  0
 17 18  2  0  0  0  0
 17  9  1  0  0  0  0
 18 19  1  0  0  0  0
 20 21  1  0  0  0  0
 20 18  1  0  0  0  0
 22 20  2  0  0  0  0
 23 22  1  0  0  0  0
 23 16  2  0  0  0  0
 24  1  1  0  0  0  0
 26 25  1  0  0  0  0
 27 26  1  0  0  0  0
 27 36  1  0  0  0  0
 28 27  2  0  0  0  0
 29 30  2  0  0  0  0
 29 28  1  0  0  0  0
 30 31  1  0  0  0  0
 31 26  2  0  0  0  0
 31 24  1  0  0  0  0
 32 28  1  0  0  0  0
 33 29  1  0  0  0  0
 34 30  1  0  0  0  0
 35 40  1  0  0  0  0
 36 35  2  0  0  0  0
 36 37  1  0  0  0  0
 37 38  2  0  0  0  0
 38 39  1  0  0  0  0
 39 43  1  0  0  0  0
 40 39  2  0  0  0  0
 41 35  1  0  0  0  0
 42 37  1  0  0  0  0
M  END
>  <minimizedAffinity>
-6.30889702

$$$$

 OpenBabel03262521423D

 43 47  0  0  0  0  0  0  0  0999 V2000
   38.3590   24.9080   31.8470 C   0  0  0  0  0  0  0  0  0  0  0  0
   37.9160   24.7100   30.5750 N   0  0  0  0  0  0  0  0  0  0  0  0
   38.7220   24.1160   29.6630 C   0  0  0  0  0  0  0  0  0  0  0  0
   39.9650   23.6990   29.9480 N   0  0  0  0  0  0  0  0  0  0  0  0
   40.4460   23.8720   31.1870 C   0  0  0  0  0  0  0  0  0  0  0  0
   41.7180   23.4410   31.4660 C   0  0  0  0  0  0  0  0  0  0  0  0
   42.2330   23.6110   32.7470 C   0  0  0  0  0  0  0  0  0  0  0  0
   41.4450   24.2220   33.7410 C   0  0  0  0  0  0  0  0  0  0  0  0
   40.1820   24.6240   33.3770 C   0  0  0  0  0  0  0  0  0  0  0  0
   39.6470   24.4730   32.1370 C   0  0  0  0  0  0  0  0  0  0  0  0
   38.2330   24.0280   28.7010 H   0  0  0  0  0  0  0  0  0  0  0  0
   42.3060   22.9750   30.6920 H   0  0  0  0  0  0  0  0  0  0  0  0
   43.2550   23.2450   32.9060 H   0  0  0  0  0  0  0  0  0  0  0  0
   41.9410   24.3010   34.6870 H   0  0  0  0  0  0  0  0  0  0  0  0
   38.4940   22.7880   35.1320 Cl  0  0  0  0  0  0  0  0  0  0  0  0
   38.7060   24.5050   35.4080 C   0  0  0  0  0  0  0  0  0  0  0  0
   39.5200   25.2320   34.5270 C   0  0  0  0  0  0  0  0  0  0  0  0
   39.7370   26.6090   34.6870 C   0  0  0  0  0  0  0  0  0  0  0  0
   40.3690   27.1510   33.9960 H   0  0  0  0  0  0  0  0  0  0  0  0
   39.1110   27.2520   35.7620 C   0  0  0  0  0  0  0  0  0  0  0  0
   39.2890   28.3320   35.8750 H   0  0  0  0  0  0  0  0  0  0  0  0
   38.2970   26.5300   36.6410 C   0  0  0  0  0  3  0  0  0  0  0  0
   38.0930   25.1750   36.4740 C   0  0  0  0  0  3  0  0  0  0  0  0
   37.4400   25.6640   33.1460 S   0  0  0  0  0  0  0  0  0  0  0  0
   35.9680   27.5120   34.8770 F   0  0  0  0  0  0  0  0  0  0  0  0
   36.2390   28.0790   33.6680 C   0  0  0  0  0  0  0  0  0  0  0  0
   35.8340   29.3730   33.3720 C   0  0  0  0  0  0  0  0  0  0  0  0
   36.1310   29.9140   32.1240 C   0  0  0  0  0  0  0  0  0  0  0  0
   36.8340   29.1720   31.1660 C   0  0  0  0  0  0  0  0  0  0  0  0
   37.2070   27.8920   31.5280 C   0  0  0  0  0  0  0  0  0  0  0  0
   36.9280   27.3270   32.7500 C   0  0  0  0  0  0  0  0  0  0  0  0
   35.8150   30.9260   31.8910 H   0  0  0  0  0  0  0  0  0  0  0  0
   37.0470   29.6210   30.2170 H   0  0  0  0  0  0  0  0  0  0  0  0
   37.7370   27.3780   30.7640 H   0  0  0  0  0  0  0  0  0  0  0  0
   35.9040   30.8750   35.2030 C   0  0  0  0  0  0  0  0  0  0  0  0
   35.1240   30.0770   34.3830 C   0  0  0  0  0  0  0  0  0  0  0  0
   33.7490   30.0590   34.6430 C   0  0  0  0  0  0  0  0  0  0  0  0
   33.2590   30.8090   35.6650 N   0  0  0  0  0  0  0  0  0  0  0  0
   34.0600   31.5630   36.4270 C   0  0  0  0  0  0  0  0  0  0  0  0
   35.3760   31.6100   36.2140 N   0  0  0  0  0  0  0  0  0  0  0  0
   36.9820   30.9880   35.1200 H   0  0  0  0  0  0  0  0  0  0  0  0
   33.1780   29.4260   33.9830 H   0  0  0  0  0  0  0  0  0  0  0  0
   33.5660   32.1170   37.2090 H   0  0  0  0  0  0  0  0  0  0  0  0
  1 10  1  0  0  0  0
  1 24  1  0  0  0  0
  2  1  2  0  0  0  0
  3  4  2  0  0  0  0
  3  2  1  0  0  0  0
  4  5  1  0  0  0  0
  5  6  2  0  0  0  0
  5 10  1  0  0  0  0
  6  7  1  0  0  0  0
  7 13  1  0  0  0  0
  7  8  2  0  0  0  0
  8 14  1  0  0  0  0
  9  8  1  0  0  0  0
  9 17  1  0  0  0  0
 10  9  2  0  0  0  0
 11  3  1  0  0  0  0
 12  6  1  0  0  0  0
 15 16  1  0  0  0  0
 16 23  1  0  0  0  0
 17 18  1  0  0  0  0
 17 16  2  0  0  0  0
 18 20  2  0  0  0  0
 19 18  1  0  0  0  0
 20 21  1  0  0  0  0
 20 22  1  0  0  0  0
 23 22  2  0  0  0  0
 26 25  1  0  0  0  0
 27 26  1  0  0  0  0
 27 36  1  0  0  0  0
 28 27  2  0  0  0  0
 29 30  2  0  0  0  0
 29 28  1  0  0  0  0
 30 31  1  0  0  0  0
 31 24  1  0  0  0  0
 31 26  2  0  0  0  0
 32 28  1  0  0  0  0
 33 29  1  0  0  0  0
 34 30  1  0  0  0  0
 35 40  1  0  0  0  0
 36 37  1  0  0  0  0
 36 35  2  0  0  0  0
 37 38  2  0  0  0  0
 38 39  1  0  0  0  0
 39 43  1  0  0  0  0
 40 39  2  0  0  0  0
 41 35  1  0  0  0  0
 42 37  1  0  0  0  0
M  END
>  <minimizedAffinity>
-6.17867851

$$$$

 OpenBabel03262521423D

 43 47  0  0  0  0  0  0  0  0999 V2000
   38.8300   27.3020   31.2930 C   0  0  0  0  0  0  0  0  0  0  0  0
   38.5960   27.8490   30.0680 N   0  0  0  0  0  0  0  0  0  0  0  0
   39.5460   27.7820   29.1050 C   0  0  0  0  0  0  0  0  0  0  0  0
   40.7360   27.1920   29.2930 N   0  0  0  0  0  0  0  0  0  0  0  0
   41.0140   26.6400   30.4810 C   0  0  0  0  0  0  0  0  0  0  0  0
   42.2340   26.0390   30.6600 C   0  0  0  0  0  0  0  0  0  0  0  0
   42.5380   25.4590   31.8880 C   0  0  0  0  0  0  0  0  0  0  0  0
   41.5930   25.4960   32.9310 C   0  0  0  0  0  0  0  0  0  0  0  0
   40.3960   26.1160   32.6670 C   0  0  0  0  0  0  0  0  0  0  0  0
   40.0650   26.6920   31.4810 C   0  0  0  0  0  0  0  0  0  0  0  0
   39.2160   28.2580   28.1900 H   0  0  0  0  0  0  0  0  0  0  0  0
   42.9450   26.0210   29.8500 H   0  0  0  0  0  0  0  0  0  0  0  0
   43.5300   24.9950   31.9670 H   0  0  0  0  0  0  0  0  0  0  0  0
   41.9330   25.0200   33.8280 H   0  0  0  0  0  0  0  0  0  0  0  0
   38.4910   23.7460   32.8950 Cl  0  0  0  0  0  0  0  0  0  0  0  0
   38.6230   25.0290   34.0800 C   0  0  0  0  0  0  0  0  0  0  0  0
   39.5510   26.0580   33.8560 C   0  0  0  0  0  0  0  0  0  0  0  0
   39.7130   27.1170   34.7620 C   0  0  0  0  0  0  0  0  0  0  0  0
   40.4340   27.9000   34.5700 H   0  0  0  0  0  0  0  0  0  0  0  0
   38.9140   27.1250   35.9120 C   0  0  0  0  0  0  0  0  0  0  0  0
   39.0500   27.9620   36.6140 H   0  0  0  0  0  0  0  0  0  0  0  0
   37.9870   26.1020   36.1370 C   0  0  0  0  0  3  0  0  0  0  0  0
   37.8390   25.0640   35.2390 C   0  0  0  0  0  3  0  0  0  0  0  0
   37.7050   27.3070   32.6490 S   0  0  0  0  0  0  0  0  0  0  0  0
   36.5180   28.7350   34.9140 F   0  0  0  0  0  0  0  0  0  0  0  0
   36.0670   29.2310   33.7270 C   0  0  0  0  0  0  0  0  0  0  0  0
   35.1600   30.2800   33.6830 C   0  0  0  0  0  0  0  0  0  0  0  0
   34.7260   30.7570   32.4500 C   0  0  0  0  0  0  0  0  0  0  0  0
   35.1910   30.1930   31.2550 C   0  0  0  0  0  0  0  0  0  0  0  0
   36.0920   29.1520   31.3730 C   0  0  0  0  0  0  0  0  0  0  0  0
   36.5410   28.6570   32.5740 C   0  0  0  0  0  0  0  0  0  0  0  0
   34.0160   31.5770   32.4140 H   0  0  0  0  0  0  0  0  0  0  0  0
   34.8360   30.5850   30.3240 H   0  0  0  0  0  0  0  0  0  0  0  0
   36.4110   28.7650   30.4360 H   0  0  0  0  0  0  0  0  0  0  0  0
   33.4280   30.4800   35.2870 C   0  0  0  0  0  0  0  0  0  0  0  0
   34.7240   30.8120   34.9280 C   0  0  0  0  0  0  0  0  0  0  0  0
   35.4390   31.6190   35.8190 C   0  0  0  0  0  0  0  0  0  0  0  0
   34.8410   32.0280   36.9680 N   0  0  0  0  0  0  0  0  0  0  0  0
   33.5840   31.6780   37.2660 C   0  0  0  0  0  0  0  0  0  0  0  0
   32.8650   30.9100   36.4450 N   0  0  0  0  0  0  0  0  0  0  0  0
   32.7560   29.8630   34.6980 H   0  0  0  0  0  0  0  0  0  0  0  0
   36.4420   31.8540   35.5020 H   0  0  0  0  0  0  0  0  0  0  0  0
   33.2080   32.0580   38.2020 H   0  0  0  0  0  0  0  0  0  0  0  0
  1 10  1  0  0  0  0
  1 24  1  0  0  0  0
  2  1  2  0  0  0  0
  3  4  2  0  0  0  0
  3  2  1  0  0  0  0
  4  5  1  0  0  0  0
  5  6  2  0  0  0  0
  5 10  1  0  0  0  0
  6  7  1  0  0  0  0
  7 13  1  0  0  0  0
  7  8  2  0  0  0  0
  8 14  1  0  0  0  0
  9  8  1  0  0  0  0
  9 17  1  0  0  0  0
 10  9  2  0  0  0  0
 11  3  1  0  0  0  0
 12  6  1  0  0  0  0
 15 16  1  0  0  0  0
 16 23  1  0  0  0  0
 17 16  2  0  0  0  0
 17 18  1  0  0  0  0
 18 20  2  0  0  0  0
 19 18  1  0  0  0  0
 20 22  1  0  0  0  0
 20 21  1  0  0  0  0
 23 22  2  0  0  0  0
 26 25  1  0  0  0  0
 27 26  1  0  0  0  0
 27 36  1  0  0  0  0
 28 27  2  0  0  0  0
 29 30  2  0  0  0  0
 29 28  1  0  0  0  0
 30 31  1  0  0  0  0
 31 24  1  0  0  0  0
 31 26  2  0  0  0  0
 32 28  1  0  0  0  0
 33 29  1  0  0  0  0
 34 30  1  0  0  0  0
 35 40  1  0  0  0  0
 36 35  2  0  0  0  0
 36 37  1  0  0  0  0
 37 38  2  0  0  0  0
 38 39  1  0  0  0  0
 39 43  1  0  0  0  0
 40 39  2  0  0  0  0
 41 35  1  0  0  0  0
 42 37  1  0  0  0  0
M  END
>  <minimizedAffinity>
-6.16726398

$$$$
