REMARK  Name = 
REMARK  4 active torsions:
REMARK  status: ('A' for Active; 'I' for Inactive)
REMARK    1  A    between atoms: C_1  and  C_4
REMARK    2  A    between atoms: C_2  and  O_10
REMARK    3  A    between atoms: C_8  and  C_24
REMARK    4  A    between atoms: O_10  and  C_11
REMARK                            x       y       z     vdW  Elec       q    Type
REMARK                         _______ _______ _______ _____ _____    ______ ____
ROOT
ATOM      1  C   UNL     1      37.311  31.225  49.400  0.00  0.00    +0.000 A 
ATOM      2  C   UNL     1      38.314  32.184  49.450  0.00  0.00    +0.000 A 
ATOM      3  C   UNL     1      38.815  32.599  48.225  0.00  0.00    +0.000 A 
ATOM      4  N   UNL     1      38.320  32.069  47.058  0.00  0.00    +0.000 NA
ATOM      5  C   UNL     1      37.340  31.137  47.067  0.00  0.00    +0.000 A 
ATOM      6  N   UNL     1      36.823  30.702  48.237  0.00  0.00    +0.000 NA
ATOM      7  H   UNL     1      38.659  32.559  50.379  0.00  0.00    +0.000 HD
ATOM      8  H   UNL     1      39.599  33.342  48.175  0.00  0.00    +0.000 HD
ENDROOT
BRANCH   5  11
ATOM      9 CL   UNL     1      37.353  33.407  44.979  0.00  0.00    +0.000 Cl
ATOM     10  C   UNL     1      37.120  31.730  44.585  0.00  0.00    +0.000 A 
ATOM     11  C   UNL     1      37.153  30.892  45.662  0.00  0.00    +0.000 A 
ATOM     12  C   UNL     1      36.989  29.532  45.454  0.00  0.00    +0.000 A 
ATOM     13  H   UNL     1      36.973  28.656  46.124  0.00  0.00    +0.000 HD
ATOM     14  C   UNL     1      36.796  29.062  44.154  0.00  0.00    +0.000 A 
ATOM     15  H   UNL     1      36.655  28.030  43.846  0.00  0.00    +0.000 HD
ATOM     16  C   UNL     1      36.776  29.983  43.121  0.00  0.00    +0.000 A 
ATOM     17  C   UNL     1      36.934  31.339  43.280  0.00  0.00    +0.000 A 
ENDBRANCH   5  11
BRANCH   1  18
ATOM     18  C   UNL     1      36.750  30.774  50.713  0.00  0.00    +0.000 C 
ATOM     19  C   UNL     1      36.032  29.509  50.851  0.00  0.00    +0.000 C 
ATOM     20  C   UNL     1      37.474  29.517  51.249  0.00  0.00    +0.000 C 
ATOM     21  H   UNL     1      36.634  31.584  51.479  0.00  0.00    +0.000 HD
ATOM     22  H   UNL     1      35.200  29.571  51.614  0.00  0.00    +0.000 HD
ATOM     23  H   UNL     1      37.632  29.479  52.352  0.00  0.00    +0.000 HD
ATOM     24  H   UNL     1      38.212  29.016  50.624  0.00  0.00    +0.000 HD
BRANCH  19  25
ATOM     25  O   UNL     1      35.653  28.863  49.679  0.00  0.00    +0.000 OA
BRANCH  25  26
ATOM     26  C   UNL     1      34.431  28.398  49.312  0.00  0.00    +0.000 C 
ATOM     27  O   UNL     1      34.323  27.391  48.556  0.00  0.00    +0.000 OA
ATOM     28  N   UNL     1      33.452  29.204  49.900  0.00  0.00    +0.000 N 
ATOM     29  H   UNL     1      33.317  30.148  49.453  0.00  0.00    +0.000 HD
ATOM     30  H   UNL     1      33.194  28.503  50.635  0.00  0.00    +0.000 HD
ENDBRANCH  25  26
ENDBRANCH  19  25
ENDBRANCH   1  18
TORSDOF 4
