REMARK  Name = 
REMARK  5 active torsions:
REMARK  status: ('A' for Active; 'I' for Inactive)
REMARK    1  A    between atoms: C_1  and  C_8
REMARK    2  A    between atoms: N_4  and  C_12
REMARK    3  A    between atoms: C_12  and  C_13
REMARK    4  A    between atoms: C_13  and  N_14
REMARK    5  A    between atoms: C_19  and  C_38
REMARK                            x       y       z     vdW  Elec       q    Type
REMARK                         _______ _______ _______ _____ _____    ______ ____
ROOT
ATOM      1  C   UNL     1      40.620  32.014  44.849  0.00  0.00    +0.000 C 
ATOM      2  H   UNL     1      40.604  30.977  45.308  0.00  0.00    +0.000 HD
ATOM      3  H   UNL     1      41.675  32.325  45.077  0.00  0.00    +0.000 HD
ENDROOT
BRANCH   1   4
ATOM      4  N   UNL     1      40.389  31.785  43.466  0.00  0.00    +0.000 NA
ATOM      5  C   UNL     1      39.518  32.697  42.834  0.00  0.00    +0.000 C 
ATOM      6  C   UNL     1      38.257  32.150  42.282  0.00  0.00    +0.000 C 
ATOM      7  O   UNL     1      38.429  30.914  41.697  0.00  0.00    +0.000 OA
ATOM      8  C   UNL     1      38.979  30.044  42.574  0.00  0.00    +0.000 C 
ATOM      9  C   UNL     1      40.358  30.469  43.011  0.00  0.00    +0.000 C 
ATOM     10  H   UNL     1      39.420  33.713  43.228  0.00  0.00    +0.000 HD
ATOM     11  H   UNL     1      40.107  32.946  41.916  0.00  0.00    +0.000 HD
ATOM     12  H   UNL     1      37.308  32.383  42.750  0.00  0.00    +0.000 HD
ATOM     13  H   UNL     1      38.049  32.761  41.321  0.00  0.00    +0.000 HD
ATOM     14  H   UNL     1      39.117  29.124  41.956  0.00  0.00    +0.000 HD
ATOM     15  H   UNL     1      38.343  29.663  43.374  0.00  0.00    +0.000 HD
ATOM     16  H   UNL     1      40.450  29.867  44.013  0.00  0.00    +0.000 HD
BRANCH   9  19
ATOM     17 CL   UNL     1      41.635  27.534  43.370  0.00  0.00    +0.000 Cl
ATOM     18  C   UNL     1      42.074  28.720  42.168  0.00  0.00    +0.000 A 
ATOM     19  C   UNL     1      41.372  29.875  42.190  0.00  0.00    +0.000 A 
ATOM     20  C   UNL     1      41.780  30.734  41.149  0.00  0.00    +0.000 A 
ATOM     21  H   UNL     1      41.361  31.735  40.942  0.00  0.00    +0.000 HD
ATOM     22  C   UNL     1      42.764  30.439  40.231  0.00  0.00    +0.000 A 
ATOM     23  H   UNL     1      43.087  31.087  39.430  0.00  0.00    +0.000 HD
ATOM     24  C   UNL     1      43.411  29.229  40.310  0.00  0.00    +0.000 A 
ATOM     25  C   UNL     1      43.065  28.339  41.300  0.00  0.00    +0.000 A 
ENDBRANCH   9  19
ENDBRANCH   1   4
BRANCH   1  26
ATOM     26  C   UNL     1      39.697  32.858  45.595  0.00  0.00    +0.000 C 
ATOM     27  H   UNL     1      39.083  33.620  45.151  0.00  0.00    +0.000 HD
ATOM     28  H   UNL     1      40.261  33.433  46.403  0.00  0.00    +0.000 HD
BRANCH  26  32
ATOM     29  C   UNL     1      37.681  31.031  47.931  0.00  0.00    +0.000 A 
ATOM     30  C   UNL     1      37.003  30.767  46.755  0.00  0.00    +0.000 A 
ATOM     31  C   UNL     1      37.696  31.430  45.736  0.00  0.00    +0.000 A 
ATOM     32  N   UNL     1      38.721  32.041  46.319  0.00  0.00    +0.000 N 
ATOM     33  N   UNL     1      38.712  31.802  47.632  0.00  0.00    +0.000 NA
ATOM     34  H   UNL     1      36.090  30.147  46.656  0.00  0.00    +0.000 HD
ATOM     35  H   UNL     1      37.316  31.329  44.790  0.00  0.00    +0.000 HD
BRANCH  29  38
ATOM     36  C   UNL     1      37.409  30.155  51.572  0.00  0.00    +0.000 A 
ATOM     37  C   UNL     1      37.915  30.711  50.403  0.00  0.00    +0.000 A 
ATOM     38  C   UNL     1      37.257  30.506  49.203  0.00  0.00    +0.000 A 
ATOM     39  N   UNL     1      36.129  29.746  49.282  0.00  0.00    +0.000 NA
ATOM     40  C   UNL     1      35.646  29.212  50.417  0.00  0.00    +0.000 A 
ATOM     41  N   UNL     1      36.299  29.424  51.562  0.00  0.00    +0.000 NA
ATOM     42  H   UNL     1      38.031  30.403  52.420  0.00  0.00    +0.000 HD
ATOM     43  H   UNL     1      38.809  31.315  50.329  0.00  0.00    +0.000 HD
ATOM     44  H   UNL     1      34.743  28.617  50.415  0.00  0.00    +0.000 HD
ENDBRANCH  29  38
ENDBRANCH  26  32
ENDBRANCH   1  26
TORSDOF 5
