
     RDKit          3D

 30 32  0  0  0  0  0  0  0  0999 V2000
   37.9763   33.1694   49.4270 C   0  0  0  0  0  0  0  0  0  0  0  0
   39.0185   33.1593   48.4700 C   0  0  0  0  0  0  0  0  0  0  0  0
   39.0248   32.1235   47.5445 C   0  0  0  0  0  0  0  0  0  0  0  0
   38.0321   31.1685   47.5994 N   0  0  0  0  0  0  0  0  0  0  0  0
   37.0540   31.2313   48.5449 C   0  0  0  0  0  0  0  0  0  0  0  0
   37.0318   32.2253   49.4478 N   0  0  0  0  0  0  0  0  0  0  0  0
   37.2719   29.3504   51.0475 Br  0  0  0  0  0  0  0  0  0  0  0  0
   35.9536   29.3146   49.6590 C   0  0  0  0  0  0  0  0  0  0  0  0
   35.9966   30.2229   48.6114 C   0  0  0  0  0  0  0  0  0  0  0  0
   35.0140   30.1274   47.6595 C   0  0  0  0  0  0  0  0  0  0  0  0
   33.9961   29.1790   47.6967 C   0  0  0  0  0  0  0  0  0  0  0  0
   33.9966   28.3040   48.7513 C   0  0  0  0  0  0  0  0  0  0  0  0
   34.9717   28.3756   49.7240 C   0  0  0  0  0  0  0  0  0  0  0  0
   37.9952   33.9868   50.1356 H   0  0  0  0  0  0  0  0  0  0  0  0
   39.7693   33.9370   48.4777 H   0  0  0  0  0  0  0  0  0  0  0  0
   39.8043   32.0787   46.7957 H   0  0  0  0  0  0  0  0  0  0  0  0
   35.0777   30.8584   46.8480 H   0  0  0  0  0  0  0  0  0  0  0  0
   33.2364   27.5419   48.8441 H   0  0  0  0  0  0  0  0  0  0  0  0
   34.9429   27.6717   50.5407 H   0  0  0  0  0  0  0  0  0  0  0  0
   34.9520   28.7089   44.8338 Cl  0  0  0  0  0  0  0  0  0  0  0  0
   33.3014   28.9345   45.3230 C   0  0  0  0  0  0  0  0  0  0  0  0
   32.9846   29.1397   46.6457 C   0  0  0  0  0  0  0  0  0  0  0  0
   31.6420   29.3149   46.9801 C   0  0  0  0  0  0  0  0  0  0  0  0
   31.3891   29.4788   48.0368 H   0  0  0  0  0  0  0  0  0  0  0  0
   30.6224   29.2929   46.0559 C   0  0  0  0  0  0  0  0  0  0  0  0
   29.5845   29.4292   46.3203 H   0  0  0  0  0  0  0  0  0  0  0  0
   30.9994   29.0832   44.7432 C   0  0  0  0  0  0  0  0  0  0  0  0
   32.3065   28.9023   44.3400 C   0  0  0  0  0  0  0  0  0  0  0  0
   30.2748   29.0465   43.9264 H   0  0  0  0  0  0  0  0  0  0  0  0
   32.5980   28.7380   43.3086 H   0  0  0  0  0  0  0  0  0  0  0  0
  1  6  2  0
  2  1  1  0
  3  4  1  0
  3  2  2  0
  4  5  2  0
  5  9  1  0
  5  6  1  0
  8 13  2  0
  8  7  1  0
  9  8  1  0
 10 11  1  0
 10  9  2  0
 11 12  2  0
 12 13  1  0
  1 14  1  0
  2 15  1  0
  3 16  1  0
 10 17  1  0
 12 18  1  0
 13 19  1  0
 20 21  1  0
 21 22  2  0
 22 23  1  0
 23 24  1  0
 23 25  2  0
 25 26  1  0
 25 27  1  0
 27 28  2  0
 28 21  1  0
 27 29  1  0
 28 30  1  0
 11 22  1  0
M  ISO  8  14  14  15  14  16  14  17  14  18  14  19  14  24  15  26  16
M  END
>  <DihAtoms>  (1) 
9,10,21,20

>  <DihDeg>  (1) 
134.95774366686283

$$$$
