
 OpenBabel03272508363D

 44 47  0  0  1  0  0  0  0  0999 V2000
   40.4440   31.8100   44.5660 C   0  0  0  0  0  0  0  0  0  0  0  0
   40.2700   30.7340   44.8800 H   0  0  0  0  0  0  0  0  0  0  0  0
   41.5570   31.8870   44.6970 H   0  0  0  0  0  0  0  0  0  0  0  0
   40.0350   31.8450   43.2060 N   0  0  0  0  0  0  0  0  0  0  0  0
   39.4050   33.0360   42.7890 C   0  0  0  0  0  0  0  0  0  0  0  0
   37.9970   32.9310   42.3410 C   0  0  0  0  0  0  0  0  0  0  0  0
   37.7600   31.7870   41.6100 O   0  0  0  0  0  0  0  0  0  0  0  0
   38.1170   30.6890   42.3130 C   0  0  0  0  0  0  0  0  0  0  0  0
   39.5930   30.6620   42.6190 C   0  0  1  0  0  0  0  0  0  0  0  0
   39.6340   33.9760   43.2990 H   0  0  0  0  0  0  0  0  0  0  0  0
   39.9560   33.2420   41.8370 H   0  0  0  0  0  0  0  0  0  0  0  0
   37.1980   33.3430   42.9460 H   0  0  0  0  0  0  0  0  0  0  0  0
   37.8850   33.7020   41.4850 H   0  0  0  0  0  0  0  0  0  0  0  0
   37.9340   29.8600   41.5860 H   0  0  0  0  0  0  0  0  0  0  0  0
   37.4730   30.3860   43.1390 H   0  0  0  0  0  0  0  0  0  0  0  0
   39.6000   29.9250   43.5310 H   0  0  0  0  0  0  0  0  0  0  0  0
   39.9320   27.4640   42.4420 Cl  0  0  0  0  0  0  0  0  0  0  0  0
   40.6330   28.6450   41.3670 C   0  0  0  0  0  0  0  0  0  0  0  0
   40.3210   29.9360   41.6190 C   0  0  0  0  0  0  0  0  0  0  0  0
   40.9030   30.7930   40.6620 C   0  0  0  0  0  0  0  0  0  0  0  0
   40.7970   31.8920   40.6370 H   0  0  0  0  0  0  0  0  0  0  0  0
   41.6870   30.3730   39.6100 C   0  0  0  0  0  0  0  0  0  0  0  0
   42.1390   31.0180   38.8710 H   0  0  0  0  0  0  0  0  0  0  0  0
   41.9360   29.0310   39.4560 C   0  0  0  0  0  3  0  0  0  0  0  0
   41.4000   28.1350   40.3520 C   0  0  0  0  0  3  0  0  0  0  0  0
   39.7840   32.6790   45.5300 C   0  0  0  0  0  0  0  0  0  0  0  0
   39.2730   33.5890   45.2720 H   0  0  0  0  0  0  0  0  0  0  0  0
   40.5340   33.0310   46.3150 H   0  0  0  0  0  0  0  0  0  0  0  0
   37.6980   31.0000   47.9150 C   0  0  0  0  0  0  0  0  0  0  0  0
   36.9580   30.8160   46.7620 C   0  0  0  0  0  0  0  0  0  0  0  0
   37.6700   31.4320   45.7270 C   0  0  0  0  0  0  0  0  0  0  0  0
   38.7660   31.9400   46.2790 N   0  0  0  0  0  0  0  0  0  0  0  0
   38.7830   31.6820   47.5890 N   0  0  0  0  0  0  0  0  0  0  0  0
   35.9910   30.2810   46.6890 H   0  0  0  0  0  0  0  0  0  0  0  0
   37.2490   31.3800   44.7940 H   0  0  0  0  0  0  0  0  0  0  0  0
   37.4400   30.1610   51.5660 C   0  0  0  0  0  0  0  0  0  0  0  0
   37.9470   30.6970   50.3880 C   0  0  0  0  0  0  0  0  0  0  0  0
   37.2750   30.4940   49.1950 C   0  0  0  0  0  0  0  0  0  0  0  0
   36.1340   29.7570   49.2900 N   0  0  0  0  0  0  0  0  0  0  0  0
   35.6500   29.2420   50.4340 C   0  0  0  0  0  0  0  0  0  0  0  0
   36.3170   29.4510   51.5710 N   0  0  0  0  0  0  0  0  0  0  0  0
   38.0740   30.4040   52.4070 H   0  0  0  0  0  0  0  0  0  0  0  0
   38.8520   31.2830   50.3020 H   0  0  0  0  0  0  0  0  0  0  0  0
   34.7360   28.6640   50.4440 H   0  0  0  0  0  0  0  0  0  0  0  0
  1  3  1  0  0  0  0
  1  2  1  0  0  0  0
  1 26  1  0  0  0  0
  4  1  1  0  0  0  0
  5  4  1  0  0  0  0
  5 10  1  0  0  0  0
  6  5  1  0  0  0  0
  6 12  1  0  0  0  0
  7  8  1  0  0  0  0
  7  6  1  0  0  0  0
  8  9  1  0  0  0  0
  8 15  1  0  0  0  0
  9  4  1  0  0  0  0
  9 16  1  1  0  0  0
 11  5  1  0  0  0  0
 13  6  1  0  0  0  0
 14  8  1  0  0  0  0
 18 19  1  0  0  0  0
 18 17  1  0  0  0  0
 19  9  1  0  0  0  0
 20 19  2  0  0  0  0
 21 20  1  0  0  0  0
 22 20  1  0  0  0  0
 23 22  1  0  0  0  0
 24 22  2  0  0  0  0
 24 25  1  0  0  0  0
 25 18  2  0  0  0  0
 26 32  1  0  0  0  0
 26 28  1  0  0  0  0
 27 26  1  0  0  0  0
 29 38  1  0  0  0  0
 30 29  1  0  0  0  0
 31 32  1  0  0  0  0
 31 30  2  0  0  0  0
 32 33  1  0  0  0  0
 33 29  2  0  0  0  0
 34 30  1  0  0  0  0
 35 31  1  0  0  0  0
 36 41  1  0  0  0  0
 36 42  1  0  0  0  0
 37 36  2  0  0  0  0
 38 39  2  0  0  0  0
 38 37  1  0  0  0  0
 39 40  1  0  0  0  0
 40 44  1  0  0  0  0
 40 41  2  0  0  0  0
 43 37  1  0  0  0  0
M  END
>  <minimizedAffinity>
-5.94302893

>  <minimizedRMSD>
0.911713839

$$$$
