
 OpenBabel03262521133D

 31 33  0  0  0  0  0  0  0  0999 V2000
   31.8890   29.0080   46.2930 C   0  0  0  0  0  0  0  0  0  0  0  0
   31.3160   28.1120   45.4240 C   0  0  0  0  0  0  0  0  0  0  0  0
   30.3150   27.5050   46.0430 N   0  0  0  0  0  0  0  0  0  0  0  0
   30.2110   27.9730   47.2970 C   0  0  0  0  0  0  0  0  0  0  0  0
   31.1890   28.9010   47.4380 N   0  0  0  0  0  0  0  0  0  0  0  0
   31.6770   27.9840   44.4210 H   0  0  0  0  0  0  0  0  0  0  0  0
   29.6780   26.7690   45.6550 H   0  0  0  0  0  0  0  0  0  0  0  0
   27.2430   27.8590   46.5890 Cl  0  0  0  0  0  0  0  0  0  0  0  0
   27.8950   27.5120   48.1770 C   0  0  0  0  0  0  0  0  0  0  0  0
   29.2620   27.6040   48.3480 C   0  0  0  0  0  0  0  0  0  0  0  0
   29.7810   27.3310   49.6000 C   0  0  0  0  0  0  0  0  0  0  0  0
   30.8380   27.3810   49.8180 H   0  0  0  0  0  0  0  0  0  0  0  0
   29.0220   26.9730   50.6820 C   0  0  0  0  0  0  0  0  0  0  0  0
   29.4110   26.7570   51.6610 H   0  0  0  0  0  0  0  0  0  0  0  0
   27.6400   26.8780   50.5100 C   0  0  0  0  0  0  0  0  0  0  0  0
   27.0960   27.1470   49.2650 C   0  0  0  0  0  0  0  0  0  0  0  0
   32.9720   29.8790   46.1050 O   0  0  0  0  0  0  0  0  0  0  0  0
   35.5600   29.8670   46.0680 O   0  0  0  0  0  0  0  0  0  0  0  0
   34.3870   29.5630   46.9960 P   0  0  2  0  0  0  0  0  0  0  0  0
   34.4070   27.9450   47.4900 O   0  0  0  0  0  0  0  0  0  0  0  0
   34.9460   27.9060   48.3200 H   0  0  0  0  0  0  0  0  0  0  0  0
   34.3920   30.5280   48.3990 O   0  0  0  0  0  0  0  0  0  0  0  0
   35.3950   30.4020   49.3690 C   0  0  0  0  0  0  0  0  0  0  0  0
   35.4170   29.4840   50.4300 C   0  0  0  0  0  0  0  0  0  0  0  0
   36.5050   29.5290   51.2770 C   0  0  0  0  0  0  0  0  0  0  0  0
   37.5000   30.4290   51.0760 N   0  0  0  0  0  0  0  0  0  0  0  0
   37.4420   31.3060   50.0320 C   0  0  0  0  0  0  0  0  0  0  0  0
   36.3820   31.2910   49.1740 N   0  0  0  0  0  0  0  0  0  0  0  0
   34.5720   28.8360   50.4680 H   0  0  0  0  0  0  0  0  0  0  0  0
   36.4980   28.8090   52.0880 H   0  0  0  0  0  0  0  0  0  0  0  0
   38.2460   32.0280   49.8760 H   0  0  0  0  0  0  0  0  0  0  0  0
  1  5  1  0  0  0  0
  2  3  1  0  0  0  0
  2  1  2  0  0  0  0
  3  4  1  0  0  0  0
  4  5  2  0  0  0  0
  4 10  1  0  0  0  0
  6  2  1  0  0  0  0
  7  3  1  0  0  0  0
  8  9  1  0  0  0  0
  9 10  2  0  0  0  0
  9 16  1  0  0  0  0
 10 11  1  0  0  0  0
 11 12  1  0  0  0  0
 11 13  2  0  0  0  0
 13 14  1  0  0  0  0
 15 13  1  0  0  0  0
 16 15  2  0  0  0  0
 17  1  1  0  0  0  0
 17 19  1  0  0  0  0
 19 18  2  6  0  0  0
 19 20  1  0  0  0  0
 19 22  1  0  0  0  0
 20 21  1  0  0  0  0
 22 23  1  0  0  0  0
 23 24  1  0  0  0  0
 24 29  1  0  0  0  0
 24 25  2  0  0  0  0
 25 30  1  0  0  0  0
 26 25  1  0  0  0  0
 27 26  2  0  0  0  0
 28 23  2  0  0  0  0
 28 27  1  0  0  0  0
 31 27  1  0  0  0  0
M  END
>  <minimizedAffinity>
-5.19903851

>  <minimizedRMSD>
1.58708

$$$$
