
 OpenBabel03272510163D

 28 30  0  0  0  0  0  0  0  0999 V2000
   37.0110   29.8000   51.3250 Br  0  0  0  0  0  0  0  0  0  0  0  0
   35.9840   29.4030   49.7580 C   0  0  0  0  0  0  0  0  0  0  0  0
   36.1800   30.1070   48.5790 C   0  0  0  0  0  0  0  0  0  0  0  0
   35.4020   29.7580   47.5060 C   0  0  0  0  0  0  0  0  0  0  0  0
   34.4450   28.7480   47.5440 C   0  0  0  0  0  0  0  0  0  0  0  0
   34.2890   28.0810   48.7300 C   0  0  0  0  0  0  0  0  0  0  0  0
   35.0570   28.4100   49.8280 C   0  0  0  0  0  0  0  0  0  0  0  0
   35.5820   30.3330   46.5920 H   0  0  0  0  0  0  0  0  0  0  0  0
   33.5640   27.2860   48.8320 H   0  0  0  0  0  0  0  0  0  0  0  0
   34.9090   27.8650   50.7470 H   0  0  0  0  0  0  0  0  0  0  0  0
   37.9820   33.1700   49.3760 C   0  0  0  0  0  0  0  0  0  0  0  0
   39.0290   33.2110   48.4240 C   0  0  0  0  0  0  0  0  0  0  0  0
   39.0990   32.1680   47.5080 C   0  0  0  0  0  0  0  0  0  0  0  0
   38.1620   31.1590   47.5680 N   0  0  0  0  0  0  0  0  0  0  0  0
   37.1770   31.1740   48.5080 C   0  0  0  0  0  0  0  0  0  0  0  0
   37.0930   32.1730   49.4020 N   0  0  0  0  0  0  0  0  0  0  0  0
   37.9500   33.9940   50.0770 H   0  0  0  0  0  0  0  0  0  0  0  0
   39.7330   34.0310   48.4280 H   0  0  0  0  0  0  0  0  0  0  0  0
   39.8840   32.1620   46.7650 H   0  0  0  0  0  0  0  0  0  0  0  0
   32.6530   30.9500   46.4160 Cl  0  0  0  0  0  0  0  0  0  0  0  0
   32.8150   29.3480   45.7650 C   0  0  0  0  0  0  0  0  0  0  0  0
   33.6550   28.4340   46.3580 C   0  0  0  0  0  0  0  0  0  0  0  0
   33.7450   27.1620   45.7920 C   0  0  0  0  0  0  0  0  0  0  0  0
   34.4160   26.4320   46.2640 H   0  0  0  0  0  0  0  0  0  0  0  0
   33.0390   26.7790   44.6750 C   0  0  0  0  0  0  0  0  0  0  0  0
   33.1130   25.7930   44.2410 H   0  0  0  0  0  0  0  0  0  0  0  0
   32.2110   27.7380   44.1230 C   0  0  0  0  0  3  0  0  0  0  0  0
   32.0720   29.0140   44.6280 C   0  0  0  0  0  3  0  0  0  0  0  0
  2  7  1  0  0  0  0
  2  1  1  0  0  0  0
  3  2  2  0  0  0  0
  4  5  2  0  0  0  0
  4  3  1  0  0  0  0
  5  6  1  0  0  0  0
  6  9  1  0  0  0  0
  6  7  2  0  0  0  0
  7 10  1  0  0  0  0
  8  4  1  0  0  0  0
 11 16  1  0  0  0  0
 11 17  1  0  0  0  0
 12 18  1  0  0  0  0
 12 11  2  0  0  0  0
 13 14  2  0  0  0  0
 13 12  1  0  0  0  0
 14 15  1  0  0  0  0
 15  3  1  0  0  0  0
 15 16  2  0  0  0  0
 19 13  1  0  0  0  0
 21 22  1  0  0  0  0
 21 20  1  0  0  0  0
 22  5  1  0  0  0  0
 23 24  1  0  0  0  0
 23 22  2  0  0  0  0
 25 23  1  0  0  0  0
 26 25  1  0  0  0  0
 27 28  1  0  0  0  0
 27 25  2  0  0  0  0
 28 21  2  0  0  0  0
M  END
>  <minimizedAffinity>
-6.00198412

>  <minimizedRMSD>
0.894096971

$$$$
