
 OpenBabel03272502353D

 36 38  0  0  1  0  0  0  0  0999 V2000
   35.5700   29.9400   47.9680 C   0  0  0  0  0  3  0  0  0  0  0  0
   36.7100   30.4300   47.5970 C   0  0  0  0  0  3  0  0  0  0  0  0
   33.7150   29.6660   44.7480 C   0  0  0  0  0  0  0  0  0  0  0  0
   34.6970   29.8950   45.6970 C   0  0  0  0  0  0  0  0  0  0  0  0
   34.5050   29.6690   47.0350 C   0  0  0  0  0  0  0  0  0  0  0  0
   33.2930   29.2030   47.3940 N   0  0  0  0  0  0  0  0  0  0  0  0
   32.3410   28.9770   46.4970 C   0  0  0  0  0  0  0  0  0  0  0  0
   32.5260   29.1980   45.1860 N   0  0  0  0  0  0  0  0  0  0  0  0
   33.8260   29.8300   43.6890 H   0  0  0  0  0  0  0  0  0  0  0  0
   35.5980   30.2640   45.2330 H   0  0  0  0  0  0  0  0  0  0  0  0
   32.3060   26.2110   47.7470 Cl  0  0  0  0  0  0  0  0  0  0  0  0
   30.9190   27.2180   47.5160 C   0  0  0  0  0  0  0  0  0  0  0  0
   31.0430   28.4720   46.9320 C   0  0  0  0  0  0  0  0  0  0  0  0
   29.8920   29.1980   46.7880 C   0  0  0  0  0  0  0  0  0  0  0  0
   30.0170   30.1800   46.3270 H   0  0  0  0  0  0  0  0  0  0  0  0
   28.6200   28.8200   47.1630 C   0  0  0  0  0  0  0  0  0  0  0  0
   27.7610   29.4610   47.0120 H   0  0  0  0  0  0  0  0  0  0  0  0
   28.5380   27.5610   47.7420 C   0  0  0  0  0  3  0  0  0  0  0  0
   29.6560   26.7840   47.9130 C   0  0  0  0  0  3  0  0  0  0  0  0
   37.7420   30.6800   48.6580 C   0  0  1  0  0  0  0  0  0  0  0  0
   38.3900   29.7960   48.7460 H   0  0  0  0  0  0  0  0  0  0  0  0
   38.5250   31.8800   48.3120 C   0  0  0  0  0  0  0  0  0  0  0  0
   38.6050   32.8190   49.3750 C   0  0  0  0  0  0  0  0  0  0  0  0
   39.2810   34.0090   49.2840 C   0  0  0  0  0  0  0  0  0  0  0  0
   39.9480   34.3680   48.0990 C   0  0  0  0  0  0  0  0  0  0  0  0
   39.8190   33.3970   47.1140 C   0  0  0  0  0  0  0  0  0  0  0  0
   39.1670   32.2300   47.1760 N   0  0  0  0  0  0  0  0  0  0  0  0
   38.1780   32.7710   50.3870 H   0  0  0  0  0  0  0  0  0  0  0  0
   39.3820   34.7640   50.0500 H   0  0  0  0  0  0  0  0  0  0  0  0
   40.5110   35.2470   47.8730 H   0  0  0  0  0  0  0  0  0  0  0  0
   40.2820   33.5290   46.1330 H   0  0  0  0  0  0  0  0  0  0  0  0
   36.8510   31.0880   50.1980 S   0  0  0  0  0  0  0  0  0  0  0  0
   36.8940   29.7250   51.3460 C   0  0  0  0  0  0  0  0  0  0  0  0
   37.5680   30.0180   52.5200 F   0  0  0  0  0  0  0  0  0  0  0  0
   35.6280   29.2260   51.5930 F   0  0  0  0  0  0  0  0  0  0  0  0
   37.6000   28.6860   50.6990 F   0  0  0  0  0  0  0  0  0  0  0  0
  2  1  2  0  0  0  0
  2 20  1  0  0  0  0
  3  8  2  0  0  0  0
  3  4  1  0  0  0  0
  4  5  2  0  0  0  0
  5  6  1  0  0  0  0
  5  1  1  0  0  0  0
  7 13  1  0  0  0  0
  7  6  2  0  0  0  0
  8  7  1  0  0  0  0
  9  3  1  0  0  0  0
 10  4  1  0  0  0  0
 12 11  1  0  0  0  0
 12 19  1  0  0  0  0
 13 12  2  0  0  0  0
 14 13  1  0  0  0  0
 14 16  2  0  0  0  0
 15 14  1  0  0  0  0
 16 18  1  0  0  0  0
 17 16  1  0  0  0  0
 18 19  2  0  0  0  0
 20 21  1  1  0  0  0
 20 32  1  0  0  0  0
 22 20  1  0  0  0  0
 22 23  1  0  0  0  0
 23 28  1  0  0  0  0
 24 23  2  0  0  0  0
 24 29  1  0  0  0  0
 25 24  1  0  0  0  0
 26 27  1  0  0  0  0
 26 25  2  0  0  0  0
 27 22  2  0  0  0  0
 30 25  1  0  0  0  0
 31 26  1  0  0  0  0
 32 33  1  0  0  0  0
 33 35  1  0  0  0  0
 33 34  1  0  0  0  0
 36 33  1  0  0  0  0
M  END
>  <minimizedAffinity>
-6.7225771

>  <minimizedRMSD>
0.221627399

$$$$
