
 OpenBabel03272502343D

 36 38  0  0  1  0  0  0  0  0999 V2000
   35.5650   29.9590   47.9480 C   0  0  0  0  0  3  0  0  0  0  0  0
   36.7160   30.4290   47.5850 C   0  0  0  0  0  3  0  0  0  0  0  0
   33.7440   29.6780   44.7090 C   0  0  0  0  0  0  0  0  0  0  0  0
   34.7170   29.9060   45.6670 C   0  0  0  0  0  0  0  0  0  0  0  0
   34.5080   29.6900   47.0050 C   0  0  0  0  0  0  0  0  0  0  0  0
   33.2880   29.2370   47.3530 N   0  0  0  0  0  0  0  0  0  0  0  0
   32.3450   29.0120   46.4460 C   0  0  0  0  0  0  0  0  0  0  0  0
   32.5460   29.2220   45.1360 N   0  0  0  0  0  0  0  0  0  0  0  0
   33.8690   29.8340   43.6500 H   0  0  0  0  0  0  0  0  0  0  0  0
   35.6270   30.2640   45.2120 H   0  0  0  0  0  0  0  0  0  0  0  0
   32.2830   26.2860   47.7810 Cl  0  0  0  0  0  0  0  0  0  0  0  0
   30.9020   27.2860   47.4890 C   0  0  0  0  0  0  0  0  0  0  0  0
   31.0380   28.5210   46.8700 C   0  0  0  0  0  0  0  0  0  0  0  0
   29.8910   29.2430   46.6810 C   0  0  0  0  0  0  0  0  0  0  0  0
   30.0250   30.2100   46.1920 H   0  0  0  0  0  0  0  0  0  0  0  0
   28.6100   28.8760   47.0400 C   0  0  0  0  0  0  0  0  0  0  0  0
   27.7550   29.5130   46.8520 H   0  0  0  0  0  0  0  0  0  0  0  0
   28.5170   27.6360   47.6570 C   0  0  0  0  0  3  0  0  0  0  0  0
   29.6310   26.8640   47.8750 C   0  0  0  0  0  3  0  0  0  0  0  0
   37.7370   30.6800   48.6570 C   0  0  1  0  0  0  0  0  0  0  0  0
   38.3860   29.7970   48.7500 H   0  0  0  0  0  0  0  0  0  0  0  0
   38.5220   31.8810   48.3200 C   0  0  0  0  0  0  0  0  0  0  0  0
   38.5990   32.8140   49.3880 C   0  0  0  0  0  0  0  0  0  0  0  0
   39.2760   34.0040   49.3070 C   0  0  0  0  0  0  0  0  0  0  0  0
   39.9460   34.3700   48.1260 C   0  0  0  0  0  0  0  0  0  0  0  0
   39.8200   33.4050   47.1340 C   0  0  0  0  0  0  0  0  0  0  0  0
   39.1670   32.2380   47.1880 N   0  0  0  0  0  0  0  0  0  0  0  0
   38.1680   32.7610   50.3990 H   0  0  0  0  0  0  0  0  0  0  0  0
   39.3740   34.7550   50.0770 H   0  0  0  0  0  0  0  0  0  0  0  0
   40.5100   35.2500   47.9060 H   0  0  0  0  0  0  0  0  0  0  0  0
   40.2860   33.5420   46.1560 H   0  0  0  0  0  0  0  0  0  0  0  0
   36.8310   31.0840   50.1890 S   0  0  0  0  0  0  0  0  0  0  0  0
   36.8790   29.7250   51.3420 C   0  0  0  0  0  0  0  0  0  0  0  0
   37.5570   30.0230   52.5130 F   0  0  0  0  0  0  0  0  0  0  0  0
   35.6150   29.2260   51.5940 F   0  0  0  0  0  0  0  0  0  0  0  0
   37.5840   28.6850   50.6960 F   0  0  0  0  0  0  0  0  0  0  0  0
  2  1  2  0  0  0  0
  2 20  1  0  0  0  0
  3  8  2  0  0  0  0
  3  4  1  0  0  0  0
  4  5  2  0  0  0  0
  5  6  1  0  0  0  0
  5  1  1  0  0  0  0
  7 13  1  0  0  0  0
  7  6  2  0  0  0  0
  8  7  1  0  0  0  0
  9  3  1  0  0  0  0
 10  4  1  0  0  0  0
 12 11  1  0  0  0  0
 12 19  1  0  0  0  0
 13 12  2  0  0  0  0
 14 13  1  0  0  0  0
 14 16  2  0  0  0  0
 15 14  1  0  0  0  0
 16 18  1  0  0  0  0
 17 16  1  0  0  0  0
 18 19  2  0  0  0  0
 20 21  1  1  0  0  0
 20 32  1  0  0  0  0
 22 20  1  0  0  0  0
 22 23  1  0  0  0  0
 23 28  1  0  0  0  0
 24 23  2  0  0  0  0
 24 29  1  0  0  0  0
 25 24  1  0  0  0  0
 26 27  1  0  0  0  0
 26 25  2  0  0  0  0
 27 22  2  0  0  0  0
 30 25  1  0  0  0  0
 31 26  1  0  0  0  0
 32 33  1  0  0  0  0
 33 35  1  0  0  0  0
 33 34  1  0  0  0  0
 36 33  1  0  0  0  0
M  END
>  <minimizedAffinity>
-6.72499752

>  <minimizedRMSD>
0.218128204

$$$$
