
     RDKit          3D

 46 49  0  0  0  0  0  0  0  0999 V2000
   38.4181   32.2705   48.7707 C   0  0  0  0  0  0  0  0  0  0  0  0
   38.8013   33.2687   49.6563 C   0  0  0  0  0  0  0  0  0  0  0  0
   39.6302   34.3173   49.2360 C   0  0  0  0  0  0  0  0  0  0  0  0
   40.0414   34.3070   47.9110 C   0  0  0  0  0  0  0  0  0  0  0  0
   39.6710   33.3277   47.0252 C   0  0  0  0  0  0  0  0  0  0  0  0
   38.8376   32.2842   47.4732 C   0  0  0  0  0  0  0  0  0  0  0  0
   37.0100   29.2839   50.6090 C   0  0  0  0  0  0  0  0  0  0  0  0
   37.9702   30.2039   50.1261 C   0  0  0  0  0  0  0  0  0  0  0  0
   37.5395   31.2578   49.3226 C   0  0  0  0  0  0  0  0  0  0  0  0
   36.2195   31.3185   49.0643 N   0  0  0  0  0  0  0  0  0  0  0  0
   35.3126   30.4410   49.5263 C   0  0  0  0  0  0  0  0  0  0  0  0
   35.7060   29.4344   50.2910 N   0  0  0  0  0  0  0  0  0  0  0  0
   38.5503   31.2455   46.4786 C   0  0  1  0  0  0  0  0  0  0  0  0
   37.4135   31.6810   45.5159 C   0  0  0  0  0  0  0  0  0  0  0  0
   36.9824   30.3677   44.8450 C   0  0  0  0  0  0  0  0  0  0  0  0
   38.0848   29.9675   43.9280 C   0  0  0  0  0  0  0  0  0  0  0  0
   39.3602   29.7530   44.7038 C   0  0  0  0  0  0  0  0  0  0  0  0
   39.7065   30.9393   45.5702 C   0  0  2  0  0  0  0  0  0  0  0  0
   38.4767   33.2719   50.6912 H   0  0  0  0  0  0  0  0  0  0  0  0
   39.9012   35.0711   49.9637 H   0  0  0  0  0  0  0  0  0  0  0  0
   40.6764   35.1464   47.6638 H   0  0  0  0  0  0  0  0  0  0  0  0
   40.0453   33.4236   46.0390 H   0  0  0  0  0  0  0  0  0  0  0  0
   37.4852   28.5250   51.2146 H   0  0  0  0  0  0  0  0  0  0  0  0
   39.0280   30.1443   50.3406 H   0  0  0  0  0  0  0  0  0  0  0  0
   34.2678   30.5224   49.2987 H   0  0  0  0  0  0  0  0  0  0  0  0
   38.1320   30.3633   46.9572 H   0  0  0  0  0  0  0  0  0  0  0  0
   37.7930   32.3293   44.7141 H   0  0  0  0  0  0  0  0  0  0  0  0
   36.5883   32.1529   46.0545 H   0  0  0  0  0  0  0  0  0  0  0  0
   36.0037   30.4271   44.3748 H   0  0  0  0  0  0  0  0  0  0  0  0
   36.9421   29.6110   45.6726 H   0  0  0  0  0  0  0  0  0  0  0  0
   37.8388   29.0103   43.4329 H   0  0  0  0  0  0  0  0  0  0  0  0
   38.2367   30.8084   43.1957 H   0  0  0  0  0  0  0  0  0  0  0  0
   39.2189   28.8667   45.3465 H   0  0  0  0  0  0  0  0  0  0  0  0
   40.2246   29.5829   44.0108 H   0  0  0  0  0  0  0  0  0  0  0  0
   39.9382   31.7574   44.8697 H   0  0  0  0  0  0  0  0  0  0  0  0
   41.5352   33.2204   46.2869 Cl  0  0  0  0  0  0  0  0  0  0  0  0
   41.8124   31.5353   46.7054 C   0  0  0  0  0  0  0  0  0  0  0  0
   40.9260   30.5474   46.3400 C   0  0  0  0  0  0  0  0  0  0  0  0
   41.1713   29.2432   46.6818 C   0  0  0  0  0  0  0  0  0  0  0  0
   40.4890   28.4782   46.4014 H   0  0  0  0  0  0  0  0  0  0  0  0
   42.3241   28.9210   47.4021 C   0  0  0  0  0  0  0  0  0  0  0  0
   42.5588   27.8864   47.6966 H   0  0  0  0  0  0  0  0  0  0  0  0
   43.1996   29.9284   47.7581 C   0  0  0  0  0  0  0  0  0  0  0  0
   42.9635   31.2641   47.4169 C   0  0  0  0  0  0  0  0  0  0  0  0
   44.1091   29.6836   48.3250 H   0  0  0  0  0  0  0  0  0  0  0  0
   43.7030   31.9900   47.7367 H   0  0  0  0  0  0  0  0  0  0  0  0
  1  9  1  0
  1  2  2  0
  3  2  1  0
  4  3  2  0
  5  6  2  0
  5  4  1  0
  6  1  1  0
  8  7  2  0
  9  8  1  0
 10  9  2  0
 10 11  1  0
 11 12  2  0
 12  7  1  0
 13  6  1  0
 14 13  1  0
 15 14  1  0
 16 17  1  0
 16 15  1  0
 17 18  1  0
 18 13  1  0
  2 19  1  0
  3 20  1  0
  4 21  1  0
  5 22  1  0
  7 23  1  0
  8 24  1  0
 11 25  1  0
 13 26  1  1
 14 27  1  0
 14 28  1  0
 15 29  1  0
 15 30  1  0
 16 31  1  0
 16 32  1  0
 17 33  1  0
 17 34  1  0
 18 35  1  6
 36 37  1  0
 37 38  2  0
 38 39  1  0
 39 40  1  0
 39 41  2  0
 41 42  1  0
 41 43  1  0
 43 44  2  0
 44 37  1  0
 43 45  1  0
 44 46  1  0
 18 38  1  0
M  ISO  8  19  14  20  14  21  14  22  14  23  14  24  14  25  14  26  13
M  ISO  8  27  13  28  13  29  13  30  13  31  13  32  13  33  13  34  13
M  ISO  3  35  13  40  15  42  16
M  END
>  <DihAtoms>  (1) 
16,17,37,36

>  <DihDeg>  (1) 
90.02665092977247

$$$$
