
 OpenBabel03272502343D

 36 38  0  0  1  0  0  0  0  0999 V2000
   35.6850   29.9810   47.7970 C   0  0  0  0  0  3  0  0  0  0  0  0
   36.9070   30.3140   47.5220 C   0  0  0  0  0  3  0  0  0  0  0  0
   34.0660   29.7540   44.4490 C   0  0  0  0  0  0  0  0  0  0  0  0
   34.9470   30.0370   45.4780 C   0  0  0  0  0  0  0  0  0  0  0  0
   34.7280   29.6420   46.7730 C   0  0  0  0  0  0  0  0  0  0  0  0
   33.5940   28.9530   47.0030 N   0  0  0  0  0  0  0  0  0  0  0  0
   32.7400   28.6730   46.0270 C   0  0  0  0  0  0  0  0  0  0  0  0
   32.9510   29.0580   44.7590 N   0  0  0  0  0  0  0  0  0  0  0  0
   34.2010   30.0450   43.4200 H   0  0  0  0  0  0  0  0  0  0  0  0
   35.7970   30.5930   45.1140 H   0  0  0  0  0  0  0  0  0  0  0  0
   30.1200   30.1970   45.8350 Cl  0  0  0  0  0  0  0  0  0  0  0  0
   30.2750   28.5270   46.2650 C   0  0  0  0  0  0  0  0  0  0  0  0
   31.5240   27.9230   46.3240 C   0  0  0  0  0  0  0  0  0  0  0  0
   31.5490   26.6010   46.6710 C   0  0  0  0  0  0  0  0  0  0  0  0
   32.5420   26.1480   46.7100 H   0  0  0  0  0  0  0  0  0  0  0  0
   30.4660   25.8000   46.9710 C   0  0  0  0  0  0  0  0  0  0  0  0
   30.5780   24.7560   47.2370 H   0  0  0  0  0  0  0  0  0  0  0  0
   29.2370   26.4410   46.9010 C   0  0  0  0  0  3  0  0  0  0  0  0
   29.1460   27.7660   46.5570 C   0  0  0  0  0  3  0  0  0  0  0  0
   37.8120   30.6560   48.6700 C   0  0  1  0  0  0  0  0  0  0  0  0
   38.4950   29.8140   48.8530 H   0  0  0  0  0  0  0  0  0  0  0  0
   38.5590   31.8880   48.3590 C   0  0  0  0  0  0  0  0  0  0  0  0
   38.6110   32.7980   49.4480 C   0  0  0  0  0  0  0  0  0  0  0  0
   39.2520   34.0090   49.3930 C   0  0  0  0  0  0  0  0  0  0  0  0
   39.9080   34.4230   48.2190 C   0  0  0  0  0  0  0  0  0  0  0  0
   39.8080   33.4760   47.2060 C   0  0  0  0  0  0  0  0  0  0  0  0
   39.1910   32.2900   47.2350 N   0  0  0  0  0  0  0  0  0  0  0  0
   38.1850   32.7090   50.4590 H   0  0  0  0  0  0  0  0  0  0  0  0
   39.3300   34.7450   50.1800 H   0  0  0  0  0  0  0  0  0  0  0  0
   40.4440   35.3240   48.0190 H   0  0  0  0  0  0  0  0  0  0  0  0
   40.2670   33.6500   46.2300 H   0  0  0  0  0  0  0  0  0  0  0  0
   36.7510   31.0590   50.0990 S   0  0  0  0  0  0  0  0  0  0  0  0
   36.7840   29.7530   51.3130 C   0  0  0  0  0  0  0  0  0  0  0  0
   37.4350   30.1080   52.4820 F   0  0  0  0  0  0  0  0  0  0  0  0
   35.5180   29.2560   51.5610 F   0  0  0  0  0  0  0  0  0  0  0  0
   37.5100   28.6900   50.7290 F   0  0  0  0  0  0  0  0  0  0  0  0
  2  1  2  0  0  0  0
  2 20  1  0  0  0  0
  3  8  2  0  0  0  0
  3  4  1  0  0  0  0
  4  5  2  0  0  0  0
  5  6  1  0  0  0  0
  5  1  1  0  0  0  0
  7 13  1  0  0  0  0
  7  6  2  0  0  0  0
  8  7  1  0  0  0  0
  9  3  1  0  0  0  0
 10  4  1  0  0  0  0
 11 12  1  0  0  0  0
 12 13  2  0  0  0  0
 12 19  1  0  0  0  0
 13 14  1  0  0  0  0
 14 15  1  0  0  0  0
 14 16  2  0  0  0  0
 16 17  1  0  0  0  0
 18 16  1  0  0  0  0
 19 18  2  0  0  0  0
 20 21  1  1  0  0  0
 20 32  1  0  0  0  0
 22 20  1  0  0  0  0
 22 23  1  0  0  0  0
 23 28  1  0  0  0  0
 24 23  2  0  0  0  0
 24 29  1  0  0  0  0
 25 24  1  0  0  0  0
 26 27  1  0  0  0  0
 26 25  2  0  0  0  0
 27 22  2  0  0  0  0
 30 25  1  0  0  0  0
 31 26  1  0  0  0  0
 32 33  1  0  0  0  0
 33 35  1  0  0  0  0
 33 34  1  0  0  0  0
 36 33  1  0  0  0  0
M  END
>  <minimizedAffinity>
-6.21722031

>  <minimizedRMSD>
0.778033137

$$$$
