REMARK  Name = 
REMARK  3 active torsions:
REMARK  status: ('A' for Active; 'I' for Inactive)
REMARK    1  A    between atoms: C_1  and  C_9
REMARK    2  A    between atoms: C_6  and  C_13
REMARK    3  A    between atoms: C_18  and  C_38
REMARK                            x       y       z     vdW  Elec       q    Type
REMARK                         _______ _______ _______ _____ _____    ______ ____
ROOT
ATOM      1  C   UNL     1      38.550  31.245  46.479  0.00  0.00    +0.000 C 
ATOM      2  C   UNL     1      37.413  31.681  45.516  0.00  0.00    +0.000 C 
ATOM      3  C   UNL     1      36.982  30.368  44.845  0.00  0.00    +0.000 C 
ATOM      4  C   UNL     1      38.085  29.968  43.928  0.00  0.00    +0.000 C 
ATOM      5  C   UNL     1      39.360  29.753  44.704  0.00  0.00    +0.000 C 
ATOM      6  C   UNL     1      39.706  30.939  45.570  0.00  0.00    +0.000 C 
ATOM      7  H   UNL     1      38.132  30.363  46.957  0.00  0.00    +0.000 HD
ATOM      8  H   UNL     1      37.793  32.329  44.714  0.00  0.00    +0.000 HD
ATOM      9  H   UNL     1      36.588  32.153  46.054  0.00  0.00    +0.000 HD
ATOM     10  H   UNL     1      36.004  30.427  44.375  0.00  0.00    +0.000 HD
ATOM     11  H   UNL     1      36.942  29.611  45.673  0.00  0.00    +0.000 HD
ATOM     12  H   UNL     1      37.839  29.010  43.433  0.00  0.00    +0.000 HD
ATOM     13  H   UNL     1      38.237  30.808  43.196  0.00  0.00    +0.000 HD
ATOM     14  H   UNL     1      39.219  28.867  45.346  0.00  0.00    +0.000 HD
ATOM     15  H   UNL     1      40.225  29.583  44.011  0.00  0.00    +0.000 HD
ATOM     16  H   UNL     1      39.938  31.757  44.870  0.00  0.00    +0.000 HD
ENDROOT
BRANCH   1  22
ATOM     17  C   UNL     1      38.418  32.270  48.771  0.00  0.00    +0.000 A 
ATOM     18  C   UNL     1      38.801  33.269  49.656  0.00  0.00    +0.000 A 
ATOM     19  C   UNL     1      39.630  34.317  49.236  0.00  0.00    +0.000 A 
ATOM     20  C   UNL     1      40.041  34.307  47.911  0.00  0.00    +0.000 A 
ATOM     21  C   UNL     1      39.671  33.328  47.025  0.00  0.00    +0.000 A 
ATOM     22  C   UNL     1      38.838  32.284  47.473  0.00  0.00    +0.000 A 
ATOM     23  H   UNL     1      38.477  33.272  50.691  0.00  0.00    +0.000 HD
ATOM     24  H   UNL     1      39.901  35.071  49.964  0.00  0.00    +0.000 HD
ATOM     25  H   UNL     1      40.676  35.146  47.664  0.00  0.00    +0.000 HD
ATOM     26  H   UNL     1      40.045  33.424  46.039  0.00  0.00    +0.000 HD
BRANCH  17  29
ATOM     27  C   UNL     1      37.010  29.284  50.609  0.00  0.00    +0.000 A 
ATOM     28  C   UNL     1      37.970  30.204  50.126  0.00  0.00    +0.000 A 
ATOM     29  C   UNL     1      37.539  31.258  49.323  0.00  0.00    +0.000 A 
ATOM     30  N   UNL     1      36.219  31.319  49.064  0.00  0.00    +0.000 NA
ATOM     31  C   UNL     1      35.313  30.441  49.526  0.00  0.00    +0.000 A 
ATOM     32  N   UNL     1      35.706  29.434  50.291  0.00  0.00    +0.000 NA
ATOM     33  H   UNL     1      37.485  28.525  51.215  0.00  0.00    +0.000 HD
ATOM     34  H   UNL     1      39.028  30.144  50.341  0.00  0.00    +0.000 HD
ATOM     35  H   UNL     1      34.268  30.522  49.299  0.00  0.00    +0.000 HD
ENDBRANCH  17  29
ENDBRANCH   1  22
BRANCH   6  38
ATOM     36 CL   UNL     1      41.535  33.220  46.287  0.00  0.00    +0.000 Cl
ATOM     37  C   UNL     1      41.812  31.535  46.705  0.00  0.00    +0.000 A 
ATOM     38  C   UNL     1      40.926  30.547  46.340  0.00  0.00    +0.000 A 
ATOM     39  C   UNL     1      41.171  29.243  46.682  0.00  0.00    +0.000 A 
ATOM     40  H   UNL     1      40.489  28.478  46.401  0.00  0.00    +0.000 HD
ATOM     41  C   UNL     1      42.324  28.921  47.402  0.00  0.00    +0.000 A 
ATOM     42  H   UNL     1      42.559  27.886  47.697  0.00  0.00    +0.000 HD
ATOM     43  C   UNL     1      43.200  29.928  47.758  0.00  0.00    +0.000 A 
ATOM     44  C   UNL     1      42.964  31.264  47.417  0.00  0.00    +0.000 A 
ENDBRANCH   6  38
TORSDOF 3
