
 OpenBabel03272502343D

 36 38  0  0  1  0  0  0  0  0999 V2000
   35.5700   29.9330   47.9660 C   0  0  0  0  0  3  0  0  0  0  0  0
   36.7050   30.4360   47.5960 C   0  0  0  0  0  3  0  0  0  0  0  0
   33.7110   29.6660   44.7480 C   0  0  0  0  0  0  0  0  0  0  0  0
   34.6940   29.8930   45.6960 C   0  0  0  0  0  0  0  0  0  0  0  0
   34.5040   29.6650   47.0340 C   0  0  0  0  0  0  0  0  0  0  0  0
   33.2910   29.2000   47.3930 N   0  0  0  0  0  0  0  0  0  0  0  0
   32.3380   28.9760   46.4970 C   0  0  0  0  0  0  0  0  0  0  0  0
   32.5220   29.1980   45.1860 N   0  0  0  0  0  0  0  0  0  0  0  0
   33.8210   29.8310   43.6880 H   0  0  0  0  0  0  0  0  0  0  0  0
   35.5960   30.2610   45.2310 H   0  0  0  0  0  0  0  0  0  0  0  0
   32.3030   26.2110   47.7510 Cl  0  0  0  0  0  0  0  0  0  0  0  0
   30.9160   27.2180   47.5180 C   0  0  0  0  0  0  0  0  0  0  0  0
   31.0400   28.4720   46.9320 C   0  0  0  0  0  0  0  0  0  0  0  0
   29.8900   29.1980   46.7890 C   0  0  0  0  0  0  0  0  0  0  0  0
   30.0140   30.1800   46.3260 H   0  0  0  0  0  0  0  0  0  0  0  0
   28.6170   28.8200   47.1640 C   0  0  0  0  0  0  0  0  0  0  0  0
   27.7580   29.4620   47.0120 H   0  0  0  0  0  0  0  0  0  0  0  0
   28.5360   27.5630   47.7440 C   0  0  0  0  0  3  0  0  0  0  0  0
   29.6540   26.7850   47.9170 C   0  0  0  0  0  3  0  0  0  0  0  0
   37.7390   30.6820   48.6560 C   0  0  1  0  0  0  0  0  0  0  0  0
   38.3850   29.7970   48.7420 H   0  0  0  0  0  0  0  0  0  0  0  0
   38.5240   31.8810   48.3110 C   0  0  0  0  0  0  0  0  0  0  0  0
   38.6040   32.8200   49.3740 C   0  0  0  0  0  0  0  0  0  0  0  0
   39.2820   34.0090   49.2850 C   0  0  0  0  0  0  0  0  0  0  0  0
   39.9500   34.3680   48.1000 C   0  0  0  0  0  0  0  0  0  0  0  0
   39.8210   33.3970   47.1140 C   0  0  0  0  0  0  0  0  0  0  0  0
   39.1670   32.2310   47.1760 N   0  0  0  0  0  0  0  0  0  0  0  0
   38.1760   32.7730   50.3860 H   0  0  0  0  0  0  0  0  0  0  0  0
   39.3830   34.7640   50.0500 H   0  0  0  0  0  0  0  0  0  0  0  0
   40.5140   35.2460   47.8750 H   0  0  0  0  0  0  0  0  0  0  0  0
   40.2850   33.5290   46.1340 H   0  0  0  0  0  0  0  0  0  0  0  0
   36.8500   31.0900   50.1980 S   0  0  0  0  0  0  0  0  0  0  0  0
   36.8940   29.7250   51.3440 C   0  0  0  0  0  0  0  0  0  0  0  0
   37.5720   30.0150   52.5170 F   0  0  0  0  0  0  0  0  0  0  0  0
   35.6280   29.2290   51.5940 F   0  0  0  0  0  0  0  0  0  0  0  0
   37.5970   28.6860   50.6940 F   0  0  0  0  0  0  0  0  0  0  0  0
  2  1  2  0  0  0  0
  2 20  1  0  0  0  0
  3  8  2  0  0  0  0
  3  4  1  0  0  0  0
  4  5  2  0  0  0  0
  5  6  1  0  0  0  0
  5  1  1  0  0  0  0
  7 13  1  0  0  0  0
  7  6  2  0  0  0  0
  8  7  1  0  0  0  0
  9  3  1  0  0  0  0
 10  4  1  0  0  0  0
 12 11  1  0  0  0  0
 12 19  1  0  0  0  0
 13 12  2  0  0  0  0
 14 13  1  0  0  0  0
 14 16  2  0  0  0  0
 15 14  1  0  0  0  0
 16 18  1  0  0  0  0
 17 16  1  0  0  0  0
 18 19  2  0  0  0  0
 20 21  1  1  0  0  0
 20 32  1  0  0  0  0
 22 20  1  0  0  0  0
 22 23  1  0  0  0  0
 23 28  1  0  0  0  0
 24 23  2  0  0  0  0
 24 29  1  0  0  0  0
 25 24  1  0  0  0  0
 26 27  1  0  0  0  0
 26 25  2  0  0  0  0
 27 22  2  0  0  0  0
 30 25  1  0  0  0  0
 31 26  1  0  0  0  0
 32 33  1  0  0  0  0
 33 35  1  0  0  0  0
 33 34  1  0  0  0  0
 36 33  1  0  0  0  0
M  END
>  <minimizedAffinity>
-6.72430754

>  <minimizedRMSD>
0.699145257

$$$$
