
 OpenBabel03272502343D

 36 38  0  0  1  0  0  0  0  0999 V2000
   35.5690   29.9450   47.9690 C   0  0  0  0  0  3  0  0  0  0  0  0
   36.7130   30.4260   47.5970 C   0  0  0  0  0  3  0  0  0  0  0  0
   33.7170   29.6700   44.7480 C   0  0  0  0  0  0  0  0  0  0  0  0
   34.6980   29.9000   45.6970 C   0  0  0  0  0  0  0  0  0  0  0  0
   34.5050   29.6730   47.0350 C   0  0  0  0  0  0  0  0  0  0  0  0
   33.2930   29.2060   47.3930 N   0  0  0  0  0  0  0  0  0  0  0  0
   32.3420   28.9790   46.4950 C   0  0  0  0  0  0  0  0  0  0  0  0
   32.5280   29.2000   45.1840 N   0  0  0  0  0  0  0  0  0  0  0  0
   33.8280   29.8340   43.6890 H   0  0  0  0  0  0  0  0  0  0  0  0
   35.5990   30.2700   45.2340 H   0  0  0  0  0  0  0  0  0  0  0  0
   32.3100   26.2120   47.7460 Cl  0  0  0  0  0  0  0  0  0  0  0  0
   30.9210   27.2190   47.5130 C   0  0  0  0  0  0  0  0  0  0  0  0
   31.0440   28.4730   46.9290 C   0  0  0  0  0  0  0  0  0  0  0  0
   29.8930   29.1980   46.7860 C   0  0  0  0  0  0  0  0  0  0  0  0
   30.0170   30.1810   46.3240 H   0  0  0  0  0  0  0  0  0  0  0  0
   28.6200   28.8190   47.1590 C   0  0  0  0  0  0  0  0  0  0  0  0
   27.7610   29.4590   47.0080 H   0  0  0  0  0  0  0  0  0  0  0  0
   28.5400   27.5590   47.7380 C   0  0  0  0  0  3  0  0  0  0  0  0
   29.6590   26.7830   47.9100 C   0  0  0  0  0  3  0  0  0  0  0  0
   37.7430   30.6780   48.6590 C   0  0  1  0  0  0  0  0  0  0  0  0
   38.3920   29.7960   48.7490 H   0  0  0  0  0  0  0  0  0  0  0  0
   38.5260   31.8790   48.3120 C   0  0  0  0  0  0  0  0  0  0  0  0
   38.6050   32.8180   49.3750 C   0  0  0  0  0  0  0  0  0  0  0  0
   39.2800   34.0080   49.2850 C   0  0  0  0  0  0  0  0  0  0  0  0
   39.9460   34.3690   48.0990 C   0  0  0  0  0  0  0  0  0  0  0  0
   39.8180   33.3970   47.1140 C   0  0  0  0  0  0  0  0  0  0  0  0
   39.1670   32.2300   47.1770 N   0  0  0  0  0  0  0  0  0  0  0  0
   38.1780   32.7700   50.3880 H   0  0  0  0  0  0  0  0  0  0  0  0
   39.3810   34.7640   50.0500 H   0  0  0  0  0  0  0  0  0  0  0  0
   40.5090   35.2470   47.8730 H   0  0  0  0  0  0  0  0  0  0  0  0
   40.2810   33.5290   46.1330 H   0  0  0  0  0  0  0  0  0  0  0  0
   36.8500   31.0870   50.1980 S   0  0  0  0  0  0  0  0  0  0  0  0
   36.8930   29.7250   51.3470 C   0  0  0  0  0  0  0  0  0  0  0  0
   37.5680   30.0180   52.5200 F   0  0  0  0  0  0  0  0  0  0  0  0
   35.6270   29.2280   51.5950 F   0  0  0  0  0  0  0  0  0  0  0  0
   37.5970   28.6850   50.7000 F   0  0  0  0  0  0  0  0  0  0  0  0
  2  1  2  0  0  0  0
  2 20  1  0  0  0  0
  3  8  2  0  0  0  0
  3  4  1  0  0  0  0
  4  5  2  0  0  0  0
  5  6  1  0  0  0  0
  5  1  1  0  0  0  0
  7 13  1  0  0  0  0
  7  6  2  0  0  0  0
  8  7  1  0  0  0  0
  9  3  1  0  0  0  0
 10  4  1  0  0  0  0
 12 11  1  0  0  0  0
 12 19  1  0  0  0  0
 13 12  2  0  0  0  0
 14 13  1  0  0  0  0
 14 16  2  0  0  0  0
 15 14  1  0  0  0  0
 16 18  1  0  0  0  0
 17 16  1  0  0  0  0
 18 19  2  0  0  0  0
 20 21  1  1  0  0  0
 20 32  1  0  0  0  0
 22 20  1  0  0  0  0
 22 23  1  0  0  0  0
 23 28  1  0  0  0  0
 24 23  2  0  0  0  0
 24 29  1  0  0  0  0
 25 24  1  0  0  0  0
 26 27  1  0  0  0  0
 26 25  2  0  0  0  0
 27 22  2  0  0  0  0
 30 25  1  0  0  0  0
 31 26  1  0  0  0  0
 32 33  1  0  0  0  0
 33 35  1  0  0  0  0
 33 34  1  0  0  0  0
 36 33  1  0  0  0  0
M  END
>  <minimizedAffinity>
-6.72162771

>  <minimizedRMSD>
0.372071564

$$$$
