
 OpenBabel03272501083D

 40 43  0  0  1  0  0  0  0  0999 V2000
   38.8210   32.3400   47.5690 C   0  0  2  0  0  0  0  0  0  0  0  0
   38.0110   32.6800   48.8630 C   0  0  2  0  0  0  0  0  0  0  0  0
   39.0160   33.3870   49.6340 C   0  0  0  0  0  0  0  0  0  0  0  0
   39.8120   34.1150   48.7620 O   0  0  0  0  0  0  0  0  0  0  0  0
   39.5590   33.7010   47.4950 C   0  0  0  0  0  0  0  0  0  0  0  0
   39.5950   31.6090   47.7750 H   0  0  0  0  0  0  0  0  0  0  0  0
   37.2310   33.3730   48.4840 H   0  0  0  0  0  0  0  0  0  0  0  0
   38.5120   34.1360   50.3130 H   0  0  0  0  0  0  0  0  0  0  0  0
   39.6910   32.8080   50.2600 H   0  0  0  0  0  0  0  0  0  0  0  0
   38.9570   34.3750   46.8630 H   0  0  0  0  0  0  0  0  0  0  0  0
   40.5320   33.5240   46.9670 H   0  0  0  0  0  0  0  0  0  0  0  0
   37.3450   29.6420   50.9770 C   0  0  0  0  0  0  0  0  0  0  0  0
   38.0220   30.7830   50.4650 C   0  0  0  0  0  0  0  0  0  0  0  0
   37.3750   31.5220   49.4320 C   0  0  0  0  0  0  0  0  0  0  0  0
   36.1330   31.1100   48.9710 N   0  0  0  0  0  0  0  0  0  0  0  0
   35.5480   30.0240   49.4960 C   0  0  0  0  0  0  0  0  0  0  0  0
   36.1270   29.2880   50.4820 N   0  0  0  0  0  0  0  0  0  0  0  0
   37.8260   29.0890   51.7470 H   0  0  0  0  0  0  0  0  0  0  0  0
   38.9670   31.0620   50.8440 H   0  0  0  0  0  0  0  0  0  0  0  0
   34.5820   29.6840   49.1530 H   0  0  0  0  0  0  0  0  0  0  0  0
   38.0230   32.2120   46.4840 O   0  0  0  0  0  0  0  0  0  0  0  0
   40.3510   31.5930   44.5550 Cl  0  0  0  0  0  0  0  0  0  0  0  0
   38.7540   30.9020   44.4600 C   0  0  0  0  0  0  0  0  0  0  0  0
   37.8900   31.3500   45.4500 C   0  0  0  0  0  0  0  0  0  0  0  0
   36.6110   30.8160   45.3930 C   0  0  0  0  0  0  0  0  0  0  0  0
   36.2330   29.9070   44.4210 C   0  0  0  0  0  0  0  0  0  0  0  0
   37.1320   29.5050   43.4730 C   0  0  0  0  0  0  0  0  0  0  0  0
   38.4050   30.0060   43.4920 C   0  0  0  0  0  0  0  0  0  0  0  0
   35.8010   31.0410   46.0740 H   0  0  0  0  0  0  0  0  0  0  0  0
   35.2450   29.4700   44.3450 H   0  0  0  0  0  0  0  0  0  0  0  0
   36.8820   28.8070   42.7080 H   0  0  0  0  0  0  0  0  0  0  0  0
   39.4130   27.1320   43.3070 Cl  0  0  0  0  0  0  0  0  0  0  0  0
   40.0320   28.4300   42.3080 C   0  0  0  0  0  0  0  0  0  0  0  0
   39.4540   29.6570   42.5360 C   0  0  0  0  0  0  0  0  0  0  0  0
   39.8640   30.7710   41.8020 C   0  0  0  0  0  0  0  0  0  0  0  0
   39.4830   31.7800   41.8950 H   0  0  0  0  0  0  0  0  0  0  0  0
   40.8580   30.6580   40.8340 C   0  0  0  0  0  0  0  0  0  0  0  0
   41.2100   31.4880   40.2410 H   0  0  0  0  0  0  0  0  0  0  0  0
   41.4330   29.4050   40.6170 C   0  0  0  0  0  3  0  0  0  0  0  0
   41.0150   28.3150   41.3530 C   0  0  0  0  0  3  0  0  0  0  0  0
  1  6  1  1  0  0  0
  1  2  1  0  0  0  0
  2  7  1  6  0  0  0
  2 14  1  0  0  0  0
  2  3  1  0  0  0  0
  3  9  1  0  0  0  0
  3  8  1  0  0  0  0
  4  3  1  0  0  0  0
  5  1  1  0  0  0  0
  5  4  1  0  0  0  0
 10  5  1  0  0  0  0
 11  5  1  0  0  0  0
 12 18  1  0  0  0  0
 13 19  1  0  0  0  0
 13 12  2  0  0  0  0
 14 13  1  0  0  0  0
 15 14  2  0  0  0  0
 15 16  1  0  0  0  0
 16 17  2  0  0  0  0
 17 12  1  0  0  0  0
 20 16  1  0  0  0  0
 21  1  1  0  0  0  0
 23 22  1  0  0  0  0
 23 24  1  0  0  0  0
 24 21  1  0  0  0  0
 25 24  2  0  0  0  0
 25 29  1  0  0  0  0
 26 25  1  0  0  0  0
 27 28  1  0  0  0  0
 27 26  2  0  0  0  0
 28 23  2  0  0  0  0
 30 26  1  0  0  0  0
 31 27  1  0  0  0  0
 33 34  1  0  0  0  0
 33 32  1  0  0  0  0
 34 28  1  0  0  0  0
 35 36  1  0  0  0  0
 35 34  2  0  0  0  0
 37 35  1  0  0  0  0
 38 37  1  0  0  0  0
 39 37  2  0  0  0  0
 39 40  1  0  0  0  0
 40 33  2  0  0  0  0
M  END
>  <minimizedAffinity>
-6.26561117

>  <minimizedRMSD>
0.940829635

$$$$
