
 OpenBabel03272501083D

 40 43  0  0  1  0  0  0  0  0999 V2000
   38.7790   32.2420   47.3380 C   0  0  2  0  0  0  0  0  0  0  0  0
   37.8920   32.4300   48.6120 C   0  0  2  0  0  0  0  0  0  0  0  0
   38.8350   33.0720   49.5080 C   0  0  0  0  0  0  0  0  0  0  0  0
   39.6590   33.9010   48.7620 O   0  0  0  0  0  0  0  0  0  0  0  0
   39.4870   33.6170   47.4470 C   0  0  0  0  0  0  0  0  0  0  0  0
   39.5580   31.5090   47.5120 H   0  0  0  0  0  0  0  0  0  0  0  0
   37.1160   33.1450   48.2620 H   0  0  0  0  0  0  0  0  0  0  0  0
   38.2760   33.7370   50.2300 H   0  0  0  0  0  0  0  0  0  0  0  0
   39.4880   32.4440   50.1080 H   0  0  0  0  0  0  0  0  0  0  0  0
   38.9040   34.3420   46.8540 H   0  0  0  0  0  0  0  0  0  0  0  0
   40.4900   33.5150   46.9600 H   0  0  0  0  0  0  0  0  0  0  0  0
   37.1900   29.1720   50.3520 C   0  0  0  0  0  0  0  0  0  0  0  0
   37.8660   30.3720   50.0010 C   0  0  0  0  0  0  0  0  0  0  0  0
   37.2530   31.2080   49.0210 C   0  0  0  0  0  0  0  0  0  0  0  0
   36.0440   30.8280   48.4570 N   0  0  0  0  0  0  0  0  0  0  0  0
   35.4580   29.6830   48.8340 C   0  0  0  0  0  0  0  0  0  0  0  0
   36.0040   28.8540   49.7620 N   0  0  0  0  0  0  0  0  0  0  0  0
   37.6450   28.5470   51.0820 H   0  0  0  0  0  0  0  0  0  0  0  0
   38.7850   30.6240   50.4530 H   0  0  0  0  0  0  0  0  0  0  0  0
   34.5170   29.3660   48.4080 H   0  0  0  0  0  0  0  0  0  0  0  0
   38.0450   32.2140   46.2020 O   0  0  0  0  0  0  0  0  0  0  0  0
   40.4440   31.5370   44.3820 Cl  0  0  0  0  0  0  0  0  0  0  0  0
   38.8180   30.9500   44.1640 C   0  0  0  0  0  0  0  0  0  0  0  0
   37.9240   31.4060   45.1230 C   0  0  0  0  0  0  0  0  0  0  0  0
   36.6220   30.9550   44.9680 C   0  0  0  0  0  0  0  0  0  0  0  0
   36.2500   30.1130   43.9340 C   0  0  0  0  0  0  0  0  0  0  0  0
   37.1790   29.6990   43.0220 C   0  0  0  0  0  0  0  0  0  0  0  0
   38.4760   30.1190   43.1370 C   0  0  0  0  0  0  0  0  0  0  0  0
   35.7870   31.1990   45.6110 H   0  0  0  0  0  0  0  0  0  0  0  0
   35.2450   29.7420   43.7820 H   0  0  0  0  0  0  0  0  0  0  0  0
   36.9350   29.0510   42.2120 H   0  0  0  0  0  0  0  0  0  0  0  0
   39.5600   27.2660   43.1310 Cl  0  0  0  0  0  0  0  0  0  0  0  0
   40.1720   28.5270   42.0800 C   0  0  0  0  0  0  0  0  0  0  0  0
   39.5570   29.7480   42.2280 C   0  0  0  0  0  0  0  0  0  0  0  0
   39.9590   30.8320   41.4450 C   0  0  0  0  0  0  0  0  0  0  0  0
   39.5510   31.8330   41.4750 H   0  0  0  0  0  0  0  0  0  0  0  0
   40.9810   30.6950   40.5110 C   0  0  0  0  0  0  0  0  0  0  0  0
   41.3280   31.5010   39.8820 H   0  0  0  0  0  0  0  0  0  0  0  0
   41.5920   29.4470   40.3750 C   0  0  0  0  0  3  0  0  0  0  0  0
   41.1820   28.3870   41.1560 C   0  0  0  0  0  3  0  0  0  0  0  0
  1  5  1  0  0  0  0
  1  6  1  1  0  0  0
  1  2  1  0  0  0  0
  2  7  1  6  0  0  0
  2 14  1  0  0  0  0
  2  3  1  0  0  0  0
  3  9  1  0  0  0  0
  3  8  1  0  0  0  0
  4  3  1  0  0  0  0
  5  4  1  0  0  0  0
 10  5  1  0  0  0  0
 11  5  1  0  0  0  0
 12 18  1  0  0  0  0
 13 12  1  0  0  0  0
 13 19  1  0  0  0  0
 14 13  2  0  0  0  0
 15 16  2  0  0  0  0
 15 14  1  0  0  0  0
 16 17  1  0  0  0  0
 17 12  2  0  0  0  0
 20 16  1  0  0  0  0
 21  1  1  0  0  0  0
 23 22  1  0  0  0  0
 23 24  1  0  0  0  0
 24 21  1  0  0  0  0
 25 24  2  0  0  0  0
 25 29  1  0  0  0  0
 26 25  1  0  0  0  0
 27 28  1  0  0  0  0
 27 26  2  0  0  0  0
 28 23  2  0  0  0  0
 30 26  1  0  0  0  0
 31 27  1  0  0  0  0
 33 34  1  0  0  0  0
 33 32  1  0  0  0  0
 34 28  1  0  0  0  0
 35 36  1  0  0  0  0
 35 34  2  0  0  0  0
 37 35  1  0  0  0  0
 38 37  1  0  0  0  0
 39 37  2  0  0  0  0
 39 40  1  0  0  0  0
 40 33  2  0  0  0  0
M  END
>  <minimizedAffinity>
-6.08879232

>  <minimizedRMSD>
1.23675859

$$$$
