REMARK  Name = 
REMARK  4 active torsions:
REMARK  status: ('A' for Active; 'I' for Inactive)
REMARK    1  A    between atoms: C_1  and  O_12
REMARK    2  A    between atoms: C_2  and  C_8
REMARK    3  A    between atoms: O_12  and  C_15
REMARK    4  A    between atoms: C_19  and  C_34
REMARK                            x       y       z     vdW  Elec       q    Type
REMARK                         _______ _______ _______ _____ _____    ______ ____
ROOT
ATOM      1  C   UNL     1      38.953  32.376  47.791  0.00  0.00    +0.000 C 
ATOM      2  C   UNL     1      38.001  32.744  48.976  0.00  0.00    +0.000 C 
ATOM      3  C   UNL     1      38.885  33.553  49.793  0.00  0.00    +0.000 C 
ATOM      4  O   UNL     1      39.725  34.273  48.957  0.00  0.00    +0.000 OA
ATOM      5  C   UNL     1      39.623  33.771  47.701  0.00  0.00    +0.000 C 
ATOM      6  H   UNL     1      39.739  31.705  48.118  0.00  0.00    +0.000 HD
ATOM      7  H   UNL     1      37.227  33.367  48.479  0.00  0.00    +0.000 HD
ATOM      8  H   UNL     1      38.277  34.311  50.370  0.00  0.00    +0.000 HD
ATOM      9  H   UNL     1      39.523  33.053  50.517  0.00  0.00    +0.000 HD
ATOM     10  H   UNL     1      39.053  34.370  46.971  0.00  0.00    +0.000 HD
ATOM     11  H   UNL     1      40.651  33.620  47.282  0.00  0.00    +0.000 HD
ENDROOT
BRANCH   2  14
ATOM     12  C   UNL     1      37.371  29.696  51.086  0.00  0.00    +0.000 A 
ATOM     13  C   UNL     1      38.042  30.836  50.564  0.00  0.00    +0.000 A 
ATOM     14  C   UNL     1      37.372  31.587  49.554  0.00  0.00    +0.000 A 
ATOM     15  N   UNL     1      36.115  31.187  49.125  0.00  0.00    +0.000 NA
ATOM     16  C   UNL     1      35.537  30.102  49.659  0.00  0.00    +0.000 A 
ATOM     17  N   UNL     1      36.137  29.355  50.623  0.00  0.00    +0.000 NA
ATOM     18  H   UNL     1      37.869  29.135  51.839  0.00  0.00    +0.000 HD
ATOM     19  H   UNL     1      38.999  31.106  50.918  0.00  0.00    +0.000 HD
ATOM     20  H   UNL     1      34.559  29.771  49.340  0.00  0.00    +0.000 HD
ENDBRANCH   2  14
BRANCH   1  21
ATOM     21  O   UNL     1      38.275  32.138  46.644  0.00  0.00    +0.000 OA
BRANCH  21  24
ATOM     22 CL   UNL     1      40.949  31.241  45.391  0.00  0.00    +0.000 Cl
ATOM     23  C   UNL     1      39.372  30.681  44.906  0.00  0.00    +0.000 A 
ATOM     24  C   UNL     1      38.330  31.243  45.631  0.00  0.00    +0.000 A 
ATOM     25  C   UNL     1      37.064  30.815  45.260  0.00  0.00    +0.000 A 
ATOM     26  C   UNL     1      36.863  29.897  44.244  0.00  0.00    +0.000 A 
ATOM     27  C   UNL     1      37.932  29.380  43.568  0.00  0.00    +0.000 A 
ATOM     28  C   UNL     1      39.199  29.774  43.901  0.00  0.00    +0.000 A 
ATOM     29  H   UNL     1      36.132  31.137  45.705  0.00  0.00    +0.000 HD
ATOM     30  H   UNL     1      35.891  29.541  43.928  0.00  0.00    +0.000 HD
ATOM     31  H   UNL     1      37.821  28.671  42.780  0.00  0.00    +0.000 HD
BRANCH  28  34
ATOM     32 CL   UNL     1      39.151  28.933  40.967  0.00  0.00    +0.000 Cl
ATOM     33  C   UNL     1      40.595  28.877  41.957  0.00  0.00    +0.000 A 
ATOM     34  C   UNL     1      40.419  29.296  43.255  0.00  0.00    +0.000 A 
ATOM     35  C   UNL     1      41.498  29.296  44.142  0.00  0.00    +0.000 A 
ATOM     36  H   UNL     1      41.478  29.602  45.180  0.00  0.00    +0.000 HD
ATOM     37  C   UNL     1      42.758  28.876  43.729  0.00  0.00    +0.000 A 
ATOM     38  H   UNL     1      43.622  28.857  44.375  0.00  0.00    +0.000 HD
ATOM     39  C   UNL     1      42.917  28.454  42.408  0.00  0.00    +0.000 A 
ATOM     40  C   UNL     1      41.840  28.460  41.545  0.00  0.00    +0.000 A 
ENDBRANCH  28  34
ENDBRANCH  21  24
ENDBRANCH   1  21
TORSDOF 4
