
 OpenBabel03272508563D

 40 43  0  0  1  0  0  0  0  0999 V2000
   38.3720   31.8900   44.5110 C   0  0  0  0  0  0  0  0  0  0  0  0
   37.2570   32.4550   44.4080 O   0  0  0  0  0  0  0  0  0  0  0  0
   38.9520   31.6030   45.8160 N   0  0  0  0  0  0  0  0  0  0  0  0
   39.9270   31.3230   45.9580 H   0  0  0  0  0  0  0  0  0  0  0  0
   39.1490   31.4910   43.3170 C   0  0  0  0  0  0  0  0  0  0  0  0
   40.1430   30.5650   43.4570 C   0  0  0  0  0  0  0  0  0  0  0  0
   40.8550   30.2120   42.3240 C   0  0  0  0  0  0  0  0  0  0  0  0
   40.5170   30.8160   41.1280 C   0  0  0  0  0  0  0  0  0  0  0  0
   39.5020   31.7610   40.9870 C   0  0  0  0  0  0  0  0  0  0  0  0
   38.8530   32.0570   42.1210 N   0  0  0  0  0  0  0  0  0  0  0  0
   40.4040   30.0940   44.3940 H   0  0  0  0  0  0  0  0  0  0  0  0
   41.6640   29.4930   42.3020 H   0  0  0  0  0  0  0  0  0  0  0  0
   41.0520   30.5710   40.1980 H   0  0  0  0  0  0  0  0  0  0  0  0
   39.2000   32.3540   39.6950 C   0  0  0  0  0  0  0  0  0  0  0  0
   38.8160   33.5450   39.6540 O   0  0  0  0  0  0  0  0  0  0  0  0
   36.7320   30.8470   39.2010 Cl  0  0  0  0  0  0  0  0  0  0  0  0
   38.1650   30.8830   38.1960 C   0  0  0  0  0  0  0  0  0  0  0  0
   39.3320   31.6030   38.4410 C   0  0  0  0  0  0  0  0  0  0  0  0
   40.3790   31.5420   37.5710 C   0  0  0  0  0  0  0  0  0  0  0  0
   41.2160   32.1360   37.8680 H   0  0  0  0  0  0  0  0  0  0  0  0
   40.2810   30.7590   36.4380 C   0  0  0  0  0  0  0  0  0  0  0  0
   41.1380   30.7380   35.7720 H   0  0  0  0  0  0  0  0  0  0  0  0
   39.1210   30.0260   36.1690 C   0  0  0  0  0  3  0  0  0  0  0  0
   38.0530   30.0860   37.0510 C   0  0  0  0  0  3  0  0  0  0  0  0
   38.4390   31.0970   48.1880 C   0  0  2  0  0  0  0  0  0  0  0  0
   38.6800   32.5630   48.1080 C   0  0  0  0  0  0  0  0  0  0  0  0
   38.0820   31.7250   46.9590 C   0  0  1  0  0  0  0  0  0  0  0  0
   39.3710   30.5060   48.2920 H   0  0  0  0  0  0  0  0  0  0  0  0
   38.0100   33.2030   48.7000 H   0  0  0  0  0  0  0  0  0  0  0  0
   39.6980   32.9310   47.9920 H   0  0  0  0  0  0  0  0  0  0  0  0
   37.0030   32.0000   46.7720 H   0  0  0  0  0  0  0  0  0  0  0  0
   35.0690   30.2320   49.5060 C   0  0  0  0  0  0  0  0  0  0  0  0
   35.4030   29.5450   50.7220 C   0  0  0  0  0  0  0  0  0  0  0  0
   36.8050   29.4040   51.0620 C   0  0  0  0  0  0  0  0  0  0  0  0
   37.7510   29.9250   50.2220 N   0  0  0  0  0  0  0  0  0  0  0  0
   37.3510   30.5580   49.0940 C   0  0  0  0  0  0  0  0  0  0  0  0
   36.0290   30.7340   48.7010 N   0  0  0  0  0  0  0  0  0  0  0  0
   34.0140   30.3170   49.2870 H   0  0  0  0  0  0  0  0  0  0  0  0
   34.6630   29.1410   51.3720 H   0  0  0  0  0  0  0  0  0  0  0  0
   37.0380   28.8940   51.9660 H   0  0  0  0  0  0  0  0  0  0  0  0
  1  3  1  0  0  0  0
  2  1  2  0  0  0  0
  3  4  1  0  0  0  0
  3 27  1  0  0  0  0
  5  6  1  0  0  0  0
  5  1  1  0  0  0  0
  6 11  1  0  0  0  0
  7  6  2  0  0  0  0
  8  7  1  0  0  0  0
  9  8  2  0  0  0  0
  9 10  1  0  0  0  0
 10  5  2  0  0  0  0
 12  7  1  0  0  0  0
 13  8  1  0  0  0  0
 14  9  1  0  0  0  0
 15 14  2  0  0  0  0
 17 18  1  0  0  0  0
 17 16  1  0  0  0  0
 18 14  1  0  0  0  0
 19 20  1  0  0  0  0
 19 18  2  0  0  0  0
 21 19  1  0  0  0  0
 22 21  1  0  0  0  0
 23 21  2  0  0  0  0
 23 24  1  0  0  0  0
 24 17  2  0  0  0  0
 25 28  1  6  0  0  0
 25 36  1  0  0  0  0
 26 25  1  0  0  0  0
 26 29  1  0  0  0  0
 27 31  1  6  0  0  0
 27 26  1  0  0  0  0
 27 25  1  0  0  0  0
 30 26  1  0  0  0  0
 32 33  1  0  0  0  0
 33 34  2  0  0  0  0
 33 39  1  0  0  0  0
 34 40  1  0  0  0  0
 35 34  1  0  0  0  0
 36 35  2  0  0  0  0
 37 36  1  0  0  0  0
 37 32  2  0  0  0  0
 38 32  1  0  0  0  0
M  END
>  <minimizedAffinity>
-4.92856216

>  <minimizedRMSD>
0.486564457

$$$$
