REMARK  Name = 
REMARK  3 active torsions:
REMARK  status: ('A' for Active; 'I' for Inactive)
REMARK    1  A    between atoms: C_1  and  C_8
REMARK    2  A    between atoms: C_6  and  N_15
REMARK    3  A    between atoms: C_13  and  C_26
REMARK                            x       y       z     vdW  Elec       q    Type
REMARK                         _______ _______ _______ _____ _____    ______ ____
ROOT
ATOM      1  C   UNL     1      38.116  31.191  47.898  0.00  0.00    +0.000 A 
ATOM      2  C   UNL     1      38.398  30.375  46.794  0.00  0.00    +0.000 A 
ATOM      3  C   UNL     1      39.185  30.814  45.740  0.00  0.00    +0.000 A 
ATOM      4  C   UNL     1      39.719  32.131  45.781  0.00  0.00    +0.000 A 
ATOM      5  C   UNL     1      39.415  32.887  46.877  0.00  0.00    +0.000 A 
ATOM      6  C   UNL     1      38.649  32.464  47.917  0.00  0.00    +0.000 A 
ATOM      7  H   UNL     1      37.992  29.360  46.749  0.00  0.00    +0.000 HD
ATOM      8  H   UNL     1      39.345  30.090  44.923  0.00  0.00    +0.000 HD
ATOM      9  H   UNL     1      40.293  32.303  44.898  0.00  0.00    +0.000 HD
ATOM     10  H   UNL     1      39.872  33.828  46.662  0.00  0.00    +0.000 HD
ENDROOT
BRANCH   1  12
ATOM     11  C   UNL     1      37.853  29.965  49.970  0.00  0.00    +0.000 A 
ATOM     12  C   UNL     1      37.227  30.605  48.886  0.00  0.00    +0.000 A 
ATOM     13  C   UNL     1      35.822  30.611  48.867  0.00  0.00    +0.000 A 
ATOM     14  N   UNL     1      35.144  30.019  49.863  0.00  0.00    +0.000 NA
ATOM     15  C   UNL     1      35.751  29.412  50.890  0.00  0.00    +0.000 A 
ATOM     16  N   UNL     1      37.095  29.390  50.935  0.00  0.00    +0.000 NA
ATOM     17  H   UNL     1      38.931  29.913  50.065  0.00  0.00    +0.000 HD
ATOM     18  H   UNL     1      35.392  31.119  48.008  0.00  0.00    +0.000 HD
ATOM     19  H   UNL     1      35.097  28.974  51.626  0.00  0.00    +0.000 HD
ENDBRANCH   1  12
BRANCH   6  22
ATOM     20  C   UNL     1      39.350  34.288  49.215  0.00  0.00    +0.000 C 
ATOM     21  O   UNL     1      40.368  34.309  48.438  0.00  0.00    +0.000 OA
ATOM     22  N   UNL     1      38.377  33.241  49.045  0.00  0.00    +0.000 N 
ATOM     23  H   UNL     1      37.569  33.074  49.668  0.00  0.00    +0.000 HD
BRANCH  20  26
ATOM     24 CL   UNL     1      37.345  33.531  51.391  0.00  0.00    +0.000 Cl
ATOM     25  C   UNL     1      38.226  35.043  51.315  0.00  0.00    +0.000 A 
ATOM     26  C   UNL     1      39.110  35.285  50.289  0.00  0.00    +0.000 A 
ATOM     27  C   UNL     1      39.855  36.437  50.130  0.00  0.00    +0.000 A 
ATOM     28  H   UNL     1      40.538  36.608  49.323  0.00  0.00    +0.000 HD
ATOM     29  C   UNL     1      39.681  37.413  51.097  0.00  0.00    +0.000 A 
ATOM     30  H   UNL     1      40.231  38.358  51.051  0.00  0.00    +0.000 HD
ATOM     31  C   UNL     1      38.812  37.242  52.156  0.00  0.00    +0.000 A 
ATOM     32  C   UNL     1      38.109  36.057  52.232  0.00  0.00    +0.000 A 
ENDBRANCH  20  26
ENDBRANCH   6  22
TORSDOF 3
