REMARK  Name = 
REMARK  5 active torsions:
REMARK  status: ('A' for Active; 'I' for Inactive)
REMARK    1  A    between atoms: C_1  and  C_8
REMARK    2  A    between atoms: C_3  and  N_12
REMARK    3  A    between atoms: C_10  and  C_13
REMARK    4  A    between atoms: C_17  and  C_19
REMARK    5  A    between atoms: C_19  and  C_34
REMARK                            x       y       z     vdW  Elec       q    Type
REMARK                         _______ _______ _______ _____ _____    ______ ____
ROOT
ATOM      1  C   UNL     1      38.363  31.893  44.487  0.00  0.00    +0.000 C 
ATOM      2  O   UNL     1      37.237  32.436  44.383  0.00  0.00    +0.000 OA
ATOM      3  N   UNL     1      38.953  31.631  45.793  0.00  0.00    +0.000 N 
ATOM      4  H   UNL     1      39.934  31.371  45.934  0.00  0.00    +0.000 HD
ENDROOT
BRANCH   1   5
ATOM      5  C   UNL     1      39.142  31.495  43.295  0.00  0.00    +0.000 A 
ATOM      6  C   UNL     1      40.141  30.575  43.437  0.00  0.00    +0.000 A 
ATOM      7  C   UNL     1      40.855  30.222  42.305  0.00  0.00    +0.000 A 
ATOM      8  C   UNL     1      40.513  30.821  41.107  0.00  0.00    +0.000 A 
ATOM      9  C   UNL     1      39.493  31.760  40.964  0.00  0.00    +0.000 A 
ATOM     10  N   UNL     1      38.843  32.056  42.097  0.00  0.00    +0.000 NA
ATOM     11  H   UNL     1      40.405  30.108  44.375  0.00  0.00    +0.000 HD
ATOM     12  H   UNL     1      41.668  29.508  42.285  0.00  0.00    +0.000 HD
ATOM     13  H   UNL     1      41.050  30.576  40.178  0.00  0.00    +0.000 HD
BRANCH   9  14
ATOM     14  C   UNL     1      39.188  32.348  39.670  0.00  0.00    +0.000 C 
ATOM     15  O   UNL     1      38.825  33.545  39.623  0.00  0.00    +0.000 OA
BRANCH  14  18
ATOM     16 CL   UNL     1      39.159  34.198  37.392  0.00  0.00    +0.000 Cl
ATOM     17  C   UNL     1      39.279  32.452  37.332  0.00  0.00    +0.000 A 
ATOM     18  C   UNL     1      39.292  31.584  38.421  0.00  0.00    +0.000 A 
ATOM     19  C   UNL     1      39.390  30.238  38.233  0.00  0.00    +0.000 A 
ATOM     20  H   UNL     1      39.390  29.678  39.143  0.00  0.00    +0.000 HD
ATOM     21  C   UNL     1      39.478  29.732  36.952  0.00  0.00    +0.000 A 
ATOM     22  H   UNL     1      39.555  28.654  36.846  0.00  0.00    +0.000 HD
ATOM     23  C   UNL     1      39.468  30.582  35.841  0.00  0.00    +0.000 A 
ATOM     24  C   UNL     1      39.368  31.952  36.028  0.00  0.00    +0.000 A 
ENDBRANCH  14  18
ENDBRANCH   9  14
ENDBRANCH   1   5
BRANCH   3  27
ATOM     25  C   UNL     1      38.446  31.119  48.165  0.00  0.00    +0.000 C 
ATOM     26  C   UNL     1      38.687  32.585  48.088  0.00  0.00    +0.000 C 
ATOM     27  C   UNL     1      38.086  31.750  46.938  0.00  0.00    +0.000 C 
ATOM     28  H   UNL     1      39.379  30.528  48.265  0.00  0.00    +0.000 HD
ATOM     29  H   UNL     1      38.018  33.224  48.683  0.00  0.00    +0.000 HD
ATOM     30  H   UNL     1      39.704  32.954  47.970  0.00  0.00    +0.000 HD
ATOM     31  H   UNL     1      37.007  32.025  46.755  0.00  0.00    +0.000 HD
BRANCH  25  36
ATOM     32  C   UNL     1      35.079  30.264  49.497  0.00  0.00    +0.000 A 
ATOM     33  C   UNL     1      35.417  29.560  50.702  0.00  0.00    +0.000 A 
ATOM     34  C   UNL     1      36.820  29.404  51.030  0.00  0.00    +0.000 A 
ATOM     35  N   UNL     1      37.764  29.928  50.190  0.00  0.00    +0.000 NA
ATOM     36  C   UNL     1      37.361  30.578  49.072  0.00  0.00    +0.000 A 
ATOM     37  N   UNL     1      36.037  30.768  48.691  0.00  0.00    +0.000 NA
ATOM     38  H   UNL     1      34.024  30.359  49.287  0.00  0.00    +0.000 HD
ATOM     39  H   UNL     1      34.679  29.154  51.353  0.00  0.00    +0.000 HD
ATOM     40  H   UNL     1      37.056  28.881  51.926  0.00  0.00    +0.000 HD
ENDBRANCH  25  36
ENDBRANCH   3  27
TORSDOF 5
