
     RDKit          3D

 42 45  0  0  0  0  0  0  0  0999 V2000
   38.4462   31.1195   48.1653 C   0  0  2  0  0  0  0  0  0  0  0  0
   38.6873   32.5846   48.0884 C   0  0  0  0  0  0  0  0  0  0  0  0
   38.0862   31.7495   46.9377 C   0  0  1  0  0  0  0  0  0  0  0  0
   35.0792   30.2636   49.4971 C   0  0  0  0  0  0  0  0  0  0  0  0
   35.4175   29.5596   50.7021 C   0  0  0  0  0  0  0  0  0  0  0  0
   36.8202   29.4042   51.0301 C   0  0  0  0  0  0  0  0  0  0  0  0
   37.7639   29.9277   50.1898 N   0  0  0  0  0  0  0  0  0  0  0  0
   37.3610   30.5784   49.0720 C   0  0  0  0  0  0  0  0  0  0  0  0
   36.0369   30.7676   48.6909 N   0  0  0  0  0  0  0  0  0  0  0  0
   38.3632   31.8927   44.4869 C   0  0  0  0  0  0  0  0  0  0  0  0
   37.2374   32.4358   44.3833 O   0  0  0  0  0  0  0  0  0  0  0  0
   38.9532   31.6307   45.7932 N   0  0  0  0  0  0  0  0  0  0  0  0
   39.1415   31.4948   43.2955 C   0  0  0  0  0  0  0  0  0  0  0  0
   40.1411   30.5745   43.4374 C   0  0  0  0  0  0  0  0  0  0  0  0
   40.8555   30.2220   42.3047 C   0  0  0  0  0  0  0  0  0  0  0  0
   40.5130   30.8214   41.1069 C   0  0  0  0  0  0  0  0  0  0  0  0
   39.4926   31.7603   40.9638 C   0  0  0  0  0  0  0  0  0  0  0  0
   38.8426   32.0556   42.0975 N   0  0  0  0  0  0  0  0  0  0  0  0
   39.1879   32.3479   39.6696 C   0  0  0  0  0  0  0  0  0  0  0  0
   38.8255   33.5447   39.6229 O   0  0  0  0  0  0  0  0  0  0  0  0
   39.3789   30.5278   48.2651 H   0  0  0  0  0  0  0  0  0  0  0  0
   38.0184   33.2236   48.6831 H   0  0  0  0  0  0  0  0  0  0  0  0
   39.7037   32.9538   47.9702 H   0  0  0  0  0  0  0  0  0  0  0  0
   37.0073   32.0250   46.7548 H   0  0  0  0  0  0  0  0  0  0  0  0
   34.0241   30.3588   49.2867 H   0  0  0  0  0  0  0  0  0  0  0  0
   34.6793   29.1538   51.3528 H   0  0  0  0  0  0  0  0  0  0  0  0
   37.0564   28.8805   51.9260 H   0  0  0  0  0  0  0  0  0  0  0  0
   39.9343   31.3714   45.9340 H   0  0  0  0  0  0  0  0  0  0  0  0
   40.4053   30.1085   44.3752 H   0  0  0  0  0  0  0  0  0  0  0  0
   41.6676   29.5077   42.2850 H   0  0  0  0  0  0  0  0  0  0  0  0
   41.0498   30.5759   40.1782 H   0  0  0  0  0  0  0  0  0  0  0  0
   38.6369   29.5174   40.2126 Cl  0  0  0  0  0  0  0  0  0  0  0  0
   39.0322   30.2380   38.6667 C   0  0  0  0  0  0  0  0  0  0  0  0
   39.2919   31.5836   38.4207 C   0  0  0  0  0  0  0  0  0  0  0  0
   39.5886   32.0139   37.1626 C   0  0  0  0  0  0  0  0  0  0  0  0
   39.7677   33.0652   37.1014 H   0  0  0  0  0  0  0  0  0  0  0  0
   39.6317   31.1063   36.1236 C   0  0  0  0  0  0  0  0  0  0  0  0
   39.8721   31.4905   35.1361 H   0  0  0  0  0  0  0  0  0  0  0  0
   39.3750   29.7490   36.3429 C   0  0  0  0  0  0  0  0  0  0  0  0
   39.0727   29.3078   37.6221 C   0  0  0  0  0  0  0  0  0  0  0  0
   39.4103   29.0432   35.5252 H   0  0  0  0  0  0  0  0  0  0  0  0
   38.8840   28.2497   37.7301 H   0  0  0  0  0  0  0  0  0  0  0  0
  1  8  1  0
  2  1  1  0
  3  2  1  0
  3  1  1  0
  4  5  2  0
  5  6  1  0
  7  6  2  0
  8  7  1  0
  9  8  2  0
  9  4  1  0
 10 12  1  0
 11 10  2  0
 12  3  1  0
 13 14  2  0
 13 10  1  0
 15 14  1  0
 16 15  2  0
 17 16  1  0
 17 18  2  0
 18 13  1  0
 19 17  1  0
 20 19  2  0
  1 21  1  6
  2 22  1  0
  2 23  1  0
  3 24  1  6
  4 25  1  0
  5 26  1  0
  6 27  1  0
 12 28  1  0
 14 29  1  0
 15 30  1  0
 16 31  1  0
 32 33  1  0
 33 34  2  0
 34 35  1  0
 35 36  1  0
 35 37  2  0
 37 38  1  0
 37 39  1  0
 39 40  2  0
 40 33  1  0
 39 41  1  0
 40 42  1  0
 19 34  1  0
M  ISO  8  21  13  22  13  23  13  24  13  25  14  26  14  27  14  29  14
M  ISO  4  30  14  31  14  36  15  38  16
M  END
>  <DihAtoms>  (1) 
16,18,33,32

>  <DihDeg>  (1) 
-135.00015649408792

$$$$
