
 OpenBabel03272507403D

 41 44  0  0  0  0  0  0  0  0999 V2000
   36.5840   31.1000   50.0570 C   0  0  0  0  0  0  0  0  0  0  0  0
   35.4660   30.2620   49.9510 C   0  0  0  0  0  0  0  0  0  0  0  0
   35.2640   29.1950   50.7950 C   0  0  0  0  0  0  0  0  0  0  0  0
   36.2150   28.9860   51.7520 N   0  0  0  0  0  0  0  0  0  0  0  0
   37.3070   29.8050   51.8530 C   0  0  0  0  0  0  0  0  0  0  0  0
   37.4650   30.8160   51.0280 N   0  0  0  0  0  0  0  0  0  0  0  0
   34.4400   28.5230   50.7700 H   0  0  0  0  0  0  0  0  0  0  0  0
   38.0530   29.6230   52.6210 H   0  0  0  0  0  0  0  0  0  0  0  0
   34.2040   29.3630   48.0530 C   0  0  0  0  0  0  0  0  0  0  0  0
   34.8200   28.2630   47.7820 O   0  0  0  0  0  0  0  0  0  0  0  0
   34.4440   30.4030   48.9980 N   0  0  0  0  0  0  0  0  0  0  0  0
   33.8550   31.2410   48.9530 H   0  0  0  0  0  0  0  0  0  0  0  0
   31.9490   27.3650   48.5250 Cl  0  0  0  0  0  0  0  0  0  0  0  0
   31.9400   28.6540   47.3080 C   0  0  0  0  0  0  0  0  0  0  0  0
   33.0190   29.5090   47.1720 C   0  0  0  0  0  0  0  0  0  0  0  0
   32.9480   30.5040   46.1910 C   0  0  0  0  0  0  0  0  0  0  0  0
   33.8350   31.1550   46.1290 H   0  0  0  0  0  0  0  0  0  0  0  0
   31.8650   30.6520   45.3780 C   0  0  0  0  0  0  0  0  0  0  0  0
   31.8930   31.4500   44.6430 H   0  0  0  0  0  0  0  0  0  0  0  0
   30.8010   29.7690   45.5510 C   0  0  0  0  0  3  0  0  0  0  0  0
   30.8340   28.7730   46.5090 C   0  0  0  0  0  3  0  0  0  0  0  0
   36.5930   32.0860   49.1370 O   0  0  0  0  0  0  0  0  0  0  0  0
   38.1310   32.1350   47.2010 C   0  0  0  0  0  0  0  0  0  0  0  0
   37.7270   32.5300   48.4750 C   0  0  0  0  0  0  0  0  0  0  0  0
   38.4690   33.4370   49.1950 C   0  0  0  0  0  0  0  0  0  0  0  0
   39.6370   33.9700   48.6510 C   0  0  0  0  0  0  0  0  0  0  0  0
   40.0390   33.5730   47.3770 C   0  0  0  0  0  0  0  0  0  0  0  0
   39.2720   32.6650   46.6880 C   0  0  0  0  0  0  0  0  0  0  0  0
   38.2070   33.7830   50.1860 H   0  0  0  0  0  0  0  0  0  0  0  0
   40.2260   34.6840   49.2100 H   0  0  0  0  0  0  0  0  0  0  0  0
   40.9560   34.0040   46.9750 H   0  0  0  0  0  0  0  0  0  0  0  0
   39.7160   32.2560   45.3380 C   0  0  0  0  0  0  0  0  0  0  0  0
   40.5690   31.2530   44.9710 C   0  0  0  0  0  0  0  0  0  0  0  0
   40.6580   31.2800   43.5710 C   0  0  0  0  0  0  0  0  0  0  0  0
   39.8430   32.3100   43.1920 C   0  0  0  0  0  0  0  0  0  0  0  0
   39.2910   32.8800   44.2470 O   0  0  0  0  0  0  0  0  0  0  0  0
   41.0630   30.5820   45.6890 H   0  0  0  0  0  0  0  0  0  0  0  0
   41.2940   30.5500   43.1020 H   0  0  0  0  0  0  0  0  0  0  0  0
   39.7490   32.5260   42.1360 H   0  0  0  0  0  0  0  0  0  0  0  0
   36.6660   30.4340   45.9630 N   0  0  0  0  0  0  0  0  0  0  0  0
   37.3150   31.2000   46.5180 C   0  0  0  0  0  0  0  0  0  0  0  0
  1  6  1  0  0  0  0
  2  1  2  0  0  0  0
  2  3  1  0  0  0  0
  3  4  2  0  0  0  0
  4  5  1  0  0  0  0
  5  8  1  0  0  0  0
  6  5  2  0  0  0  0
  7  3  1  0  0  0  0
  9 11  1  0  0  0  0
 10  9  2  0  0  0  0
 11  2  1  0  0  0  0
 12 11  1  0  0  0  0
 14 13  1  0  0  0  0
 15 14  1  0  0  0  0
 15  9  1  0  0  0  0
 16 15  2  0  0  0  0
 17 16  1  0  0  0  0
 18 20  2  0  0  0  0
 18 16  1  0  0  0  0
 19 18  1  0  0  0  0
 20 21  1  0  0  0  0
 21 14  2  0  0  0  0
 22  1  1  0  0  0  0
 23 24  1  0  0  0  0
 24 22  1  0  0  0  0
 24 25  2  0  0  0  0
 25 29  1  0  0  0  0
 26 25  1  0  0  0  0
 26 30  1  0  0  0  0
 27 26  2  0  0  0  0
 28 23  2  0  0  0  0
 28 27  1  0  0  0  0
 31 27  1  0  0  0  0
 32 28  1  0  0  0  0
 33 32  2  0  0  0  0
 33 37  1  0  0  0  0
 34 33  1  0  0  0  0
 35 34  2  0  0  0  0
 35 36  1  0  0  0  0
 36 32  1  0  0  0  0
 38 34  1  0  0  0  0
 39 35  1  0  0  0  0
 40 41  3  0  0  0  0
 41 23  1  0  0  0  0
M  END
>  <minimizedAffinity>
-6.16956758

>  <minimizedRMSD>
0.443453938

$$$$
