
     RDKit          3D

 40 42  0  0  0  0  0  0  0  0999 V2000
   36.0737   30.6886   49.0664 C   0  0  2  0  0  0  0  0  0  0  0  0
   37.0108   31.6422   49.7447 C   0  0  0  0  0  0  0  0  0  0  0  0
   38.0467   30.9421   50.5997 C   0  0  0  0  0  0  0  0  0  0  0  0
   37.3688   30.0676   51.6499 C   0  0  0  0  0  0  0  0  0  0  0  0
   36.1226   29.3724   51.1469 C   0  0  0  0  0  0  0  0  0  0  0  0
   36.1870   29.3059   49.6117 C   0  0  1  0  0  0  0  0  0  0  0  0
   36.3206   30.6479   47.6002 C   0  0  0  0  0  0  0  0  0  0  0  0
   37.5715   31.1180   47.1815 C   0  0  0  0  0  0  0  0  0  0  0  0
   37.8255   31.0861   45.8039 C   0  0  0  0  0  0  0  0  0  0  0  0
   36.8549   30.6051   44.9596 N   0  0  0  0  0  0  0  0  0  0  0  0
   35.6430   30.1546   45.4247 C   0  0  0  0  0  0  0  0  0  0  0  0
   35.3983   30.1855   46.7448 N   0  0  0  0  0  0  0  0  0  0  0  0
   33.9376   28.1974   49.2483 C   0  0  0  0  0  0  0  0  0  0  0  0
   33.1150   28.8772   49.9276 O   0  0  0  0  0  0  0  0  0  0  0  0
   35.3320   28.3465   49.0182 N   0  0  0  0  0  0  0  0  0  0  0  0
   34.9836   30.9652   49.1809 H   0  0  0  0  0  0  0  0  0  0  0  0
   37.4232   32.4366   49.1523 H   0  0  0  0  0  0  0  0  0  0  0  0
   36.3559   32.1683   50.5191 H   0  0  0  0  0  0  0  0  0  0  0  0
   38.5790   31.7379   51.1579 H   0  0  0  0  0  0  0  0  0  0  0  0
   38.7172   30.2795   50.0253 H   0  0  0  0  0  0  0  0  0  0  0  0
   38.0773   29.2669   51.9905 H   0  0  0  0  0  0  0  0  0  0  0  0
   37.1180   30.6622   52.5439 H   0  0  0  0  0  0  0  0  0  0  0  0
   35.2341   29.9235   51.4577 H   0  0  0  0  0  0  0  0  0  0  0  0
   36.0378   28.3238   51.5278 H   0  0  0  0  0  0  0  0  0  0  0  0
   37.1626   28.9115   49.4714 H   0  0  0  0  0  0  0  0  0  0  0  0
   38.4046   31.5060   47.7287 H   0  0  0  0  0  0  0  0  0  0  0  0
   38.7361   31.4136   45.3367 H   0  0  0  0  0  0  0  0  0  0  0  0
   34.8886   29.7784   44.7486 H   0  0  0  0  0  0  0  0  0  0  0  0
   35.6357   27.6049   48.3121 H   0  0  0  0  0  0  0  0  0  0  0  0
   31.0789   28.9181   48.8649 Cl  0  0  0  0  0  0  0  0  0  0  0  0
   31.7441   27.3302   48.4605 C   0  0  0  0  0  0  0  0  0  0  0  0
   33.0981   27.1155   48.6841 C   0  0  0  0  0  0  0  0  0  0  0  0
   33.6632   25.8828   48.3803 C   0  0  0  0  0  0  0  0  0  0  0  0
   34.7075   25.7231   48.5546 H   0  0  0  0  0  0  0  0  0  0  0  0
   32.8756   24.8625   47.8524 C   0  0  0  0  0  0  0  0  0  0  0  0
   33.2694   23.8871   47.6003 H   0  0  0  0  0  0  0  0  0  0  0  0
   31.5119   25.0719   47.6246 C   0  0  0  0  0  0  0  0  0  0  0  0
   30.9631   26.3116   47.9346 C   0  0  0  0  0  0  0  0  0  0  0  0
   30.8783   24.2830   47.2113 H   0  0  0  0  0  0  0  0  0  0  0  0
   29.9320   26.5425   47.7875 H   0  0  0  0  0  0  0  0  0  0  0  0
  1  6  1  0
  1  2  1  0
  2  3  1  0
  3  4  1  0
  5  4  1  0
  6  5  1  0
  7  1  1  0
  8  7  2  0
  9  8  1  0
 10 11  1  0
 10  9  2  0
 11 12  2  0
 12  7  1  0
 13 14  2  0
 15 13  1  0
 15  6  1  0
  1 16  1  6
  2 17  1  0
  2 18  1  0
  3 19  1  0
  3 20  1  0
  4 21  1  0
  4 22  1  0
  5 23  1  0
  5 24  1  0
  6 25  1  1
  8 26  1  0
  9 27  1  0
 11 28  1  0
 15 29  1  0
 30 31  1  0
 31 32  2  0
 32 33  1  0
 33 34  1  0
 33 35  2  0
 35 36  1  0
 35 37  1  0
 37 38  2  0
 38 31  1  0
 37 39  1  0
 38 40  1  0
 13 32  1  0
M  ISO  8  16  13  17  13  18  13  19  13  20  13  21  13  22  13  23  13
M  ISO  7  24  13  25  13  26  14  27  14  28  14  34  15  36  16
M  END
>  <DihAtoms>  (1) 
13,12,31,30

>  <DihDeg>  (1) 
-62.14985116982045

$$$$
