
     RDKit          3D

 31 33  0  0  0  0  0  0  0  0999 V2000
   38.3736   30.5942   47.0980 C   0  0  2  0  0  0  0  0  0  0  0  0
   36.9801   30.5309   47.5203 C   0  0  0  0  0  0  0  0  0  0  0  0
   38.0816   31.1252   48.4212 C   0  0  1  0  0  0  0  0  0  0  0  0
   40.6176   32.6823   45.0201 C   0  0  0  0  0  0  0  0  0  0  0  0
   39.7218   33.1856   44.0386 C   0  0  0  0  0  0  0  0  0  0  0  0
   38.3452   32.7833   44.1158 C   0  0  0  0  0  0  0  0  0  0  0  0
   37.9679   31.9550   45.1058 N   0  0  0  0  0  0  0  0  0  0  0  0
   38.8677   31.5017   46.0213 C   0  0  0  0  0  0  0  0  0  0  0  0
   40.1727   31.8444   46.0002 N   0  0  0  0  0  0  0  0  0  0  0  0
   37.6994   30.5450   50.7836 C   0  0  0  0  0  0  0  0  0  0  0  0
   36.7323   31.3501   50.8053 O   0  0  0  0  0  0  0  0  0  0  0  0
   38.4140   30.2724   49.5618 N   0  0  0  0  0  0  0  0  0  0  0  0
   38.9307   29.5914   47.0560 H   0  0  0  0  0  0  0  0  0  0  0  0
   36.2426   31.2728   47.1612 H   0  0  0  0  0  0  0  0  0  0  0  0
   36.5436   29.5759   47.8587 H   0  0  0  0  0  0  0  0  0  0  0  0
   37.9452   32.1728   48.6545 H   0  0  0  0  0  0  0  0  0  0  0  0
   41.6266   33.0212   44.9036 H   0  0  0  0  0  0  0  0  0  0  0  0
   40.0757   33.8494   43.2636 H   0  0  0  0  0  0  0  0  0  0  0  0
   37.6549   33.1633   43.3712 H   0  0  0  0  0  0  0  0  0  0  0  0
   39.1214   29.5276   49.4756 H   0  0  0  0  0  0  0  0  0  0  0  0
   36.4196   27.9005   51.6497 Cl  0  0  0  0  0  0  0  0  0  0  0  0
   37.7698   28.6366   52.4791 C   0  0  0  0  0  0  0  0  0  0  0  0
   38.1972   29.8169   51.9440 C   0  0  0  0  0  0  0  0  0  0  0  0
   39.2570   30.5068   52.5014 C   0  0  0  0  0  0  0  0  0  0  0  0
   39.6987   31.4592   52.1716 H   0  0  0  0  0  0  0  0  0  0  0  0
   39.9393   30.0433   53.6235 C   0  0  0  0  0  0  0  0  0  0  0  0
   40.7767   30.5392   54.1046 H   0  0  0  0  0  0  0  0  0  0  0  0
   39.4927   28.8346   54.1619 C   0  0  0  0  0  0  0  0  0  0  0  0
   38.4363   28.1626   53.5937 C   0  0  0  0  0  0  0  0  0  0  0  0
   39.9724   28.4093   55.0358 H   0  0  0  0  0  0  0  0  0  0  0  0
   38.0434   27.2148   53.9738 H   0  0  0  0  0  0  0  0  0  0  0  0
  1  2  1  0
  1  3  1  0
  2  3  1  0
  3 12  1  0
  4  9  2  0
  5  6  2  0
  5  4  1  0
  6  7  1  0
  7  8  2  0
  8  1  1  0
  9  8  1  0
 10 11  2  0
 12 10  1  0
  1 13  1  1
  2 14  1  0
  2 15  1  0
  3 16  1  1
  4 17  1  0
  5 18  1  0
  6 19  1  0
 12 20  1  0
 21 22  1  0
 22 23  2  0
 23 24  1  0
 24 25  1  0
 24 26  2  0
 26 27  1  0
 26 28  1  0
 28 29  2  0
 29 22  1  0
 28 30  1  0
 29 31  1  0
 10 23  1  0
M  ISO  8  13  13  14  13  15  13  16  13  17  14  18  14  19  14  25  15
M  ISO  1  27  16
M  END
>  <DihAtoms>  (1) 
10,9,22,21

>  <DihDeg>  (1) 
-65.09112232786953

$$$$
