REMARK  Name = 
REMARK  3 active torsions:
REMARK  status: ('A' for Active; 'I' for Inactive)
REMARK    1  A    between atoms: C_1  and  C_7
REMARK    2  A    between atoms: C_6  and  N_15
REMARK    3  A    between atoms: C_13  and  C_32
REMARK                            x       y       z     vdW  Elec       q    Type
REMARK                         _______ _______ _______ _____ _____    ______ ____
ROOT
ATOM      1  C   UNL     1      36.074  30.689  49.066  0.00  0.00    +0.000 C 
ATOM      2  C   UNL     1      37.011  31.642  49.745  0.00  0.00    +0.000 C 
ATOM      3  C   UNL     1      38.047  30.942  50.600  0.00  0.00    +0.000 C 
ATOM      4  C   UNL     1      37.369  30.068  51.650  0.00  0.00    +0.000 C 
ATOM      5  C   UNL     1      36.123  29.372  51.147  0.00  0.00    +0.000 C 
ATOM      6  C   UNL     1      36.187  29.306  49.612  0.00  0.00    +0.000 C 
ATOM      7  H   UNL     1      34.984  30.965  49.181  0.00  0.00    +0.000 HD
ATOM      8  H   UNL     1      37.423  32.437  49.152  0.00  0.00    +0.000 HD
ATOM      9  H   UNL     1      36.356  32.168  50.519  0.00  0.00    +0.000 HD
ATOM     10  H   UNL     1      38.579  31.738  51.158  0.00  0.00    +0.000 HD
ATOM     11  H   UNL     1      38.717  30.279  50.025  0.00  0.00    +0.000 HD
ATOM     12  H   UNL     1      38.077  29.267  51.990  0.00  0.00    +0.000 HD
ATOM     13  H   UNL     1      37.118  30.662  52.544  0.00  0.00    +0.000 HD
ATOM     14  H   UNL     1      35.234  29.924  51.458  0.00  0.00    +0.000 HD
ATOM     15  H   UNL     1      36.038  28.324  51.528  0.00  0.00    +0.000 HD
ATOM     16  H   UNL     1      37.163  28.912  49.471  0.00  0.00    +0.000 HD
ENDROOT
BRANCH   1  17
ATOM     17  C   UNL     1      36.321  30.648  47.600  0.00  0.00    +0.000 A 
ATOM     18  C   UNL     1      37.572  31.118  47.181  0.00  0.00    +0.000 A 
ATOM     19  C   UNL     1      37.825  31.086  45.804  0.00  0.00    +0.000 A 
ATOM     20  N   UNL     1      36.855  30.605  44.960  0.00  0.00    +0.000 NA
ATOM     21  C   UNL     1      35.643  30.155  45.425  0.00  0.00    +0.000 A 
ATOM     22  N   UNL     1      35.398  30.186  46.745  0.00  0.00    +0.000 NA
ATOM     23  H   UNL     1      38.405  31.506  47.729  0.00  0.00    +0.000 HD
ATOM     24  H   UNL     1      38.736  31.414  45.337  0.00  0.00    +0.000 HD
ATOM     25  H   UNL     1      34.889  29.778  44.749  0.00  0.00    +0.000 HD
ENDBRANCH   1  17
BRANCH   6  28
ATOM     26  C   UNL     1      33.938  28.197  49.248  0.00  0.00    +0.000 C 
ATOM     27  O   UNL     1      33.115  28.877  49.928  0.00  0.00    +0.000 OA
ATOM     28  N   UNL     1      35.332  28.346  49.018  0.00  0.00    +0.000 N 
ATOM     29  H   UNL     1      35.636  27.605  48.312  0.00  0.00    +0.000 HD
BRANCH  26  32
ATOM     30 CL   UNL     1      31.079  28.918  48.865  0.00  0.00    +0.000 Cl
ATOM     31  C   UNL     1      31.744  27.330  48.461  0.00  0.00    +0.000 A 
ATOM     32  C   UNL     1      33.098  27.116  48.684  0.00  0.00    +0.000 A 
ATOM     33  C   UNL     1      33.663  25.883  48.380  0.00  0.00    +0.000 A 
ATOM     34  H   UNL     1      34.708  25.723  48.555  0.00  0.00    +0.000 HD
ATOM     35  C   UNL     1      32.876  24.863  47.852  0.00  0.00    +0.000 A 
ATOM     36  H   UNL     1      33.269  23.887  47.600  0.00  0.00    +0.000 HD
ATOM     37  C   UNL     1      31.512  25.072  47.625  0.00  0.00    +0.000 A 
ATOM     38  C   UNL     1      30.963  26.312  47.935  0.00  0.00    +0.000 A 
ENDBRANCH  26  32
ENDBRANCH   6  28
TORSDOF 3
