REMARK  Name = 
REMARK  6 active torsions:
REMARK  status: ('A' for Active; 'I' for Inactive)
REMARK    1  A    between atoms: C_1  and  C_13
REMARK    2  A    between atoms: C_2  and  O_14
REMARK    3  A    between atoms: C_6  and  C_7
REMARK    4  A    between atoms: O_14  and  C_15
REMARK    5  A    between atoms: C_16  and  N_23
REMARK    6  A    between atoms: C_21  and  C_35
REMARK                            x       y       z     vdW  Elec       q    Type
REMARK                         _______ _______ _______ _____ _____    ______ ____
ROOT
ATOM      1  C   UNL     1      36.786  31.209  50.164  0.00  0.00    +0.000 A 
ATOM      2  C   UNL     1      35.646  30.421  49.957  0.00  0.00    +0.000 A 
ATOM      3  C   UNL     1      35.427  29.249  50.644  0.00  0.00    +0.000 A 
ATOM      4  N   UNL     1      36.384  28.884  51.547  0.00  0.00    +0.000 NA
ATOM      5  C   UNL     1      37.497  29.655  51.746  0.00  0.00    +0.000 A 
ATOM      6  N   UNL     1      37.671  30.769  51.071  0.00  0.00    +0.000 NA
ATOM      7  H   UNL     1      34.587  28.607  50.536  0.00  0.00    +0.000 HD
ATOM      8  H   UNL     1      38.248  29.348  52.469  0.00  0.00    +0.000 HD
ENDROOT
BRANCH   2  11
ATOM      9  C   UNL     1      34.151  29.719  48.147  0.00  0.00    +0.000 C 
ATOM     10  O   UNL     1      34.552  28.523  47.878  0.00  0.00    +0.000 OA
ATOM     11  N   UNL     1      34.617  30.720  49.049  0.00  0.00    +0.000 N 
ATOM     12  H   UNL     1      34.181  31.647  49.009  0.00  0.00    +0.000 HD
BRANCH   9  15
ATOM     13 CL   UNL     1      32.738  27.353  46.844  0.00  0.00    +0.000 Cl
ATOM     14  C   UNL     1      32.253  29.051  46.688  0.00  0.00    +0.000 A 
ATOM     15  C   UNL     1      32.966  30.053  47.319  0.00  0.00    +0.000 A 
ATOM     16  C   UNL     1      32.531  31.373  47.153  0.00  0.00    +0.000 A 
ATOM     17  H   UNL     1      33.137  32.129  47.678  0.00  0.00    +0.000 HD
ATOM     18  C   UNL     1      31.442  31.694  46.399  0.00  0.00    +0.000 A 
ATOM     19  H   UNL     1      31.174  32.742  46.324  0.00  0.00    +0.000 HD
ATOM     20  C   UNL     1      30.754  30.651  45.782  0.00  0.00    +0.000 A 
ATOM     21  C   UNL     1      31.153  29.335  45.922  0.00  0.00    +0.000 A 
ENDBRANCH   9  15
ENDBRANCH   2  11
BRANCH   1  22
ATOM     22  O   UNL     1      36.809  32.315  49.393  0.00  0.00    +0.000 OA
BRANCH  22  24
ATOM     23  C   UNL     1      38.261  32.288  47.392  0.00  0.00    +0.000 A 
ATOM     24  C   UNL     1      37.908  32.739  48.662  0.00  0.00    +0.000 A 
ATOM     25  C   UNL     1      38.669  33.687  49.306  0.00  0.00    +0.000 A 
ATOM     26  C   UNL     1      39.806  34.205  48.687  0.00  0.00    +0.000 A 
ATOM     27  C   UNL     1      40.158  33.752  47.417  0.00  0.00    +0.000 A 
ATOM     28  C   UNL     1      39.373  32.805  46.805  0.00  0.00    +0.000 A 
ATOM     29  H   UNL     1      38.446  34.076  50.290  0.00  0.00    +0.000 HD
ATOM     30  H   UNL     1      40.410  34.950  49.186  0.00  0.00    +0.000 HD
ATOM     31  H   UNL     1      41.051  34.173  46.956  0.00  0.00    +0.000 HD
BRANCH  28  32
ATOM     32  C   UNL     1      39.763  32.337  45.458  0.00  0.00    +0.000 A 
ATOM     33  C   UNL     1      40.614  31.328  45.102  0.00  0.00    +0.000 A 
ATOM     34  C   UNL     1      40.641  31.288  43.699  0.00  0.00    +0.000 A 
ATOM     35  C   UNL     1      39.795  32.288  43.308  0.00  0.00    +0.000 A 
ATOM     36  O   UNL     1      39.281  32.902  44.359  0.00  0.00    +0.000 OA
ATOM     37  H   UNL     1      41.149  30.699  45.828  0.00  0.00    +0.000 HD
ATOM     38  H   UNL     1      41.267  30.545  43.238  0.00  0.00    +0.000 HD
ATOM     39  H   UNL     1      39.652  32.452  42.249  0.00  0.00    +0.000 HD
ENDBRANCH  28  32
BRANCH  23  41
ATOM     40  N   UNL     1      36.765  30.515  46.300  0.00  0.00    +0.000 NA
ATOM     41  C   UNL     1      37.428  31.314  46.790  0.00  0.00    +0.000 C 
ENDBRANCH  23  41
ENDBRANCH  22  24
ENDBRANCH   1  22
TORSDOF 6
