
 OpenBabel03272509303D

 38 40  0  0  1  0  0  0  0  0999 V2000
   36.5950   30.8950   48.8750 C   0  0  2  0  0  0  0  0  0  0  0  0
   37.4750   31.5840   49.8730 C   0  0  0  0  0  0  0  0  0  0  0  0
   38.1110   30.6260   50.8600 C   0  0  0  0  0  0  0  0  0  0  0  0
   37.0380   29.8320   51.5980 C   0  0  0  0  0  0  0  0  0  0  0  0
   35.8640   29.4430   50.7260 C   0  0  0  0  0  0  0  0  0  0  0  0
   36.3140   29.4810   49.2560 C   0  0  1  0  0  0  0  0  0  0  0  0
   35.5790   31.3770   48.7560 H   0  0  0  0  0  0  0  0  0  0  0  0
   38.1620   32.3210   49.5010 H   0  0  0  0  0  0  0  0  0  0  0  0
   36.7450   32.1720   50.5250 H   0  0  0  0  0  0  0  0  0  0  0  0
   38.6110   31.2530   51.6240 H   0  0  0  0  0  0  0  0  0  0  0  0
   38.7790   29.8860   50.3860 H   0  0  0  0  0  0  0  0  0  0  0  0
   37.4790   28.8800   51.9970 H   0  0  0  0  0  0  0  0  0  0  0  0
   36.6710   30.3960   52.4710 H   0  0  0  0  0  0  0  0  0  0  0  0
   35.0370   30.1390   50.8790 H   0  0  0  0  0  0  0  0  0  0  0  0
   35.4980   28.4080   50.9420 H   0  0  0  0  0  0  0  0  0  0  0  0
   37.2070   28.9080   49.3070 H   0  0  0  0  0  0  0  0  0  0  0  0
   37.2050   30.9140   47.5190 C   0  0  0  0  0  0  0  0  0  0  0  0
   38.5750   31.2000   47.4730 C   0  0  0  0  0  0  0  0  0  0  0  0
   39.1690   31.2220   46.2050 C   0  0  0  0  0  0  0  0  0  0  0  0
   38.3940   30.9660   45.1020 N   0  0  0  0  0  0  0  0  0  0  0  0
   37.0510   30.6900   45.2040 C   0  0  0  0  0  0  0  0  0  0  0  0
   36.4800   30.6700   46.4190 N   0  0  0  0  0  0  0  0  0  0  0  0
   39.2840   31.4080   48.2470 H   0  0  0  0  0  0  0  0  0  0  0  0
   40.2070   31.4270   46.0140 H   0  0  0  0  0  0  0  0  0  0  0  0
   36.4530   30.4890   44.3270 H   0  0  0  0  0  0  0  0  0  0  0  0
   34.1370   28.3790   48.5730 C   0  0  0  0  0  0  0  0  0  0  0  0
   33.3270   28.6250   49.5150 O   0  0  0  0  0  0  0  0  0  0  0  0
   35.4880   28.7610   48.3580 N   0  0  0  0  0  0  0  0  0  0  0  0
   35.7850   28.4140   47.3930 H   0  0  0  0  0  0  0  0  0  0  0  0
   32.7610   29.8800   46.4070 Cl  0  0  0  0  0  0  0  0  0  0  0  0
   32.6470   28.1260   46.5980 C   0  0  0  0  0  0  0  0  0  0  0  0
   33.3380   27.5400   47.6520 C   0  0  0  0  0  0  0  0  0  0  0  0
   33.2770   26.1640   47.8400 C   0  0  0  0  0  0  0  0  0  0  0  0
   33.8120   25.7170   48.6520 H   0  0  0  0  0  0  0  0  0  0  0  0
   32.5240   25.3720   46.9750 C   0  0  0  0  0  0  0  0  0  0  0  0
   32.4450   24.2990   47.0800 H   0  0  0  0  0  0  0  0  0  0  0  0
   31.8260   25.9550   45.9130 C   0  0  0  0  0  3  0  0  0  0  0  0
   31.8990   27.3330   45.7400 C   0  0  0  0  0  3  0  0  0  0  0  0
  1  7  1  6  0  0  0
  1  6  1  0  0  0  0
  1  2  1  0  0  0  0
  2  9  1  0  0  0  0
  2  3  1  0  0  0  0
  3  4  1  0  0  0  0
  3 10  1  0  0  0  0
  4 12  1  0  0  0  0
  4 13  1  0  0  0  0
  5 14  1  0  0  0  0
  5 15  1  0  0  0  0
  5  4  1  0  0  0  0
  6 16  1  6  0  0  0
  6  5  1  0  0  0  0
  8  2  1  0  0  0  0
 11  3  1  0  0  0  0
 17  1  1  0  0  0  0
 18 17  1  0  0  0  0
 18 23  1  0  0  0  0
 19 18  2  0  0  0  0
 20 21  2  0  0  0  0
 20 19  1  0  0  0  0
 21 22  1  0  0  0  0
 22 17  2  0  0  0  0
 24 19  1  0  0  0  0
 25 21  1  0  0  0  0
 26 27  2  0  0  0  0
 28 26  1  0  0  0  0
 28  6  1  0  0  0  0
 29 28  1  0  0  0  0
 30 31  1  0  0  0  0
 31 32  1  0  0  0  0
 32 33  2  0  0  0  0
 32 26  1  0  0  0  0
 33 34  1  0  0  0  0
 35 36  1  0  0  0  0
 35 33  1  0  0  0  0
 37 35  2  0  0  0  0
 38 37  1  0  0  0  0
 38 31  2  0  0  0  0
M  END
>  <minimizedAffinity>
-5.96563482

>  <minimizedRMSD>
1.26959097

$$$$
