
 OpenBabel03272503253D

 32 34  0  0  1  0  0  0  0  0999 V2000
   39.0110   24.7330   34.7420 N   0  0  0  0  0  0  0  0  0  0  0  0
   37.9680   24.6000   33.7880 C   0  0  1  0  0  0  0  0  0  0  0  0
   38.0530   25.8700   32.9520 C   0  0  0  0  0  0  0  0  0  0  0  0
   39.2590   26.6310   33.5490 C   0  0  0  0  0  0  0  0  0  0  0  0
   40.0510   25.4840   34.1010 C   0  0  0  0  0  0  0  0  0  0  0  0
   36.9560   24.7360   34.3960 H   0  0  0  0  0  0  0  0  0  0  0  0
   37.1790   26.4940   33.1080 H   0  0  0  0  0  0  0  0  0  0  0  0
   38.2530   25.6410   31.8950 H   0  0  0  0  0  0  0  0  0  0  0  0
   39.8120   27.0870   32.7250 H   0  0  0  0  0  0  0  0  0  0  0  0
   38.9580   27.3080   34.3520 H   0  0  0  0  0  0  0  0  0  0  0  0
   40.6170   24.9290   33.3380 H   0  0  0  0  0  0  0  0  0  0  0  0
   40.7600   25.9280   34.8590 H   0  0  0  0  0  0  0  0  0  0  0  0
   39.0220   24.2320   36.0680 C   0  0  0  0  0  0  0  0  0  0  0  0
   38.0370   24.6910   36.9570 C   0  0  0  0  0  0  0  0  0  0  0  0
   37.9680   24.2030   38.2610 C   0  0  0  0  0  0  0  0  0  0  0  0
   38.9180   23.2640   38.5870 N   0  0  0  0  0  0  0  0  0  0  0  0
   39.8580   22.8390   37.7100 C   0  0  0  0  0  0  0  0  0  0  0  0
   39.9320   23.3180   36.4220 N   0  0  0  0  0  0  0  0  0  0  0  0
   37.2940   25.4140   36.7280 H   0  0  0  0  0  0  0  0  0  0  0  0
   37.2370   24.5270   38.9580 H   0  0  0  0  0  0  0  0  0  0  0  0
   40.5630   22.1000   38.0550 H   0  0  0  0  0  0  0  0  0  0  0  0
   37.8070   23.3680   33.0890 C   0  0  0  0  0  0  0  0  0  0  0  0
   38.7490   22.9930   32.3990 O   0  0  0  0  0  0  0  0  0  0  0  0
   37.0020   21.4850   35.4400 Cl  0  0  0  0  0  0  0  0  0  0  0  0
   36.4580   21.3740   33.7600 C   0  0  0  0  0  0  0  0  0  0  0  0
   36.9030   22.2620   32.8070 C   0  0  0  0  0  0  0  0  0  0  0  0
   36.3800   22.0260   31.5650 C   0  0  0  0  0  0  0  0  0  0  0  0
   36.5750   22.6000   30.6970 H   0  0  0  0  0  0  0  0  0  0  0  0
   35.5080   21.0450   31.2080 C   0  0  0  0  0  0  0  0  0  0  0  0
   35.0710   20.8170   30.2560 H   0  0  0  0  0  0  0  0  0  0  0  0
   35.1050   20.1910   32.2100 C   0  0  0  0  0  3  0  0  0  0  0  0
   35.5610   20.3320   33.4870 C   0  0  0  0  0  3  0  0  0  0  0  0
  1 13  1  0  0  0  0
  2  6  1  1  0  0  0
  2  1  1  0  0  0  0
  3  7  1  0  0  0  0
  3  4  1  0  0  0  0
  3  2  1  0  0  0  0
  4  5  1  0  0  0  0
  4 10  1  0  0  0  0
  5  1  1  0  0  0  0
  5 12  1  0  0  0  0
  8  3  1  0  0  0  0
  9  4  1  0  0  0  0
 11  5  1  0  0  0  0
 13 18  2  0  0  0  0
 13 14  1  0  0  0  0
 14 15  2  0  0  0  0
 15 16  1  0  0  0  0
 15 20  1  0  0  0  0
 17 21  1  0  0  0  0
 17 16  2  0  0  0  0
 18 17  1  0  0  0  0
 19 14  1  0  0  0  0
 22  2  1  0  0  0  0
 23 22  2  0  0  0  0
 25 24  1  0  0  0  0
 26 22  1  0  0  0  0
 26 25  2  0  0  0  0
 27 26  1  0  0  0  0
 28 27  1  0  0  0  0
 29 27  2  0  0  0  0
 29 31  1  0  0  0  0
 30 29  1  0  0  0  0
 31 32  2  0  0  0  0
 32 25  1  0  0  0  0
M  END
>  <minimizedAffinity>
-5.31210566

$$$$

 OpenBabel03272503253D

 32 34  0  0  1  0  0  0  0  0999 V2000
   38.4990   23.3450   36.2460 N   0  0  0  0  0  0  0  0  0  0  0  0
   38.0090   24.6300   36.5960 C   0  0  1  0  0  0  0  0  0  0  0  0
   38.0170   24.6400   38.1180 C   0  0  0  0  0  0  0  0  0  0  0  0
   38.5940   23.2570   38.4980 C   0  0  0  0  0  0  0  0  0  0  0  0
   39.4200   22.9690   37.2810 C   0  0  0  0  0  0  0  0  0  0  0  0
   36.8520   24.6190   36.3250 H   0  0  0  0  0  0  0  0  0  0  0  0
   37.0060   24.6770   38.5090 H   0  0  0  0  0  0  0  0  0  0  0  0
   38.6740   25.4300   38.5110 H   0  0  0  0  0  0  0  0  0  0  0  0
   39.2540   23.3910   39.3570 H   0  0  0  0  0  0  0  0  0  0  0  0
   37.8100   22.5040   38.6140 H   0  0  0  0  0  0  0  0  0  0  0  0
   40.3800   23.5060   37.2590 H   0  0  0  0  0  0  0  0  0  0  0  0
   39.6010   21.8550   37.2800 H   0  0  0  0  0  0  0  0  0  0  0  0
   38.1450   22.5780   35.1080 C   0  0  0  0  0  0  0  0  0  0  0  0
   39.0130   22.5910   34.0050 C   0  0  0  0  0  0  0  0  0  0  0  0
   38.7440   21.8230   32.8740 C   0  0  0  0  0  0  0  0  0  0  0  0
   37.5910   21.0770   32.9320 N   0  0  0  0  0  0  0  0  0  0  0  0
   36.7700   21.0830   34.0090 C   0  0  0  0  0  0  0  0  0  0  0  0
   37.0300   21.8400   35.1290 N   0  0  0  0  0  0  0  0  0  0  0  0
   39.9080   23.1590   33.9370 H   0  0  0  0  0  0  0  0  0  0  0  0
   39.3780   21.8090   32.0230 H   0  0  0  0  0  0  0  0  0  0  0  0
   35.8870   20.4660   33.9650 H   0  0  0  0  0  0  0  0  0  0  0  0
   38.5240   25.7830   35.9330 C   0  0  0  0  0  0  0  0  0  0  0  0
   38.3040   26.8710   36.4570 O   0  0  0  0  0  0  0  0  0  0  0  0
   37.0180   25.9950   33.2120 Cl  0  0  0  0  0  0  0  0  0  0  0  0
   38.7050   26.4250   33.5250 C   0  0  0  0  0  0  0  0  0  0  0  0
   39.2600   26.2680   34.7750 C   0  0  0  0  0  0  0  0  0  0  0  0
   40.5730   26.6500   34.8330 C   0  0  0  0  0  0  0  0  0  0  0  0
   41.1820   26.6290   35.6990 H   0  0  0  0  0  0  0  0  0  0  0  0
   41.3360   27.1430   33.8200 C   0  0  0  0  0  0  0  0  0  0  0  0
   42.3620   27.4550   33.8110 H   0  0  0  0  0  0  0  0  0  0  0  0
   40.7180   27.2730   32.5970 C   0  0  0  0  0  3  0  0  0  0  0  0
   39.4120   26.9240   32.4220 C   0  0  0  0  0  3  0  0  0  0  0  0
  1  2  1  0  0  0  0
  1  5  1  0  0  0  0
  2  6  1  6  0  0  0
  2  3  1  0  0  0  0
  3  4  1  0  0  0  0
  3  7  1  0  0  0  0
  3  8  1  0  0  0  0
  4 10  1  0  0  0  0
  4  9  1  0  0  0  0
  5  4  1  0  0  0  0
 11  5  1  0  0  0  0
 12  5  1  0  0  0  0
 13 18  1  0  0  0  0
 13  1  1  0  0  0  0
 14 13  2  0  0  0  0
 15 16  2  0  0  0  0
 15 14  1  0  0  0  0
 16 17  1  0  0  0  0
 17 18  2  0  0  0  0
 19 14  1  0  0  0  0
 20 15  1  0  0  0  0
 21 17  1  0  0  0  0
 22 23  2  0  0  0  0
 22  2  1  0  0  0  0
 24 25  1  0  0  0  0
 25 26  1  0  0  0  0
 26 27  2  0  0  0  0
 26 22  1  0  0  0  0
 27 28  1  0  0  0  0
 29 27  1  0  0  0  0
 30 29  1  0  0  0  0
 31 29  2  0  0  0  0
 32 31  1  0  0  0  0
 32 25  2  0  0  0  0
M  END
>  <minimizedAffinity>
-5.17725515

$$$$

 OpenBabel03272503253D

 32 34  0  0  1  0  0  0  0  0999 V2000
   34.8900   29.7480   32.8050 N   0  0  0  0  0  0  0  0  0  0  0  0
   35.5430   28.8080   31.9660 C   0  0  1  0  0  0  0  0  0  0  0  0
   36.1970   29.6540   30.8830 C   0  0  0  0  0  0  0  0  0  0  0  0
   35.8460   31.1060   31.2800 C   0  0  0  0  0  0  0  0  0  0  0  0
   35.6800   30.9450   32.7610 C   0  0  0  0  0  0  0  0  0  0  0  0
   34.6770   28.2370   31.3870 H   0  0  0  0  0  0  0  0  0  0  0  0
   35.7360   29.4710   29.9180 H   0  0  0  0  0  0  0  0  0  0  0  0
   37.2910   29.5300   30.8820 H   0  0  0  0  0  0  0  0  0  0  0  0
   36.7190   31.7310   31.0820 H   0  0  0  0  0  0  0  0  0  0  0  0
   34.9110   31.4400   30.8240 H   0  0  0  0  0  0  0  0  0  0  0  0
   36.6310   30.8900   33.3100 H   0  0  0  0  0  0  0  0  0  0  0  0
   35.0850   31.8380   33.1080 H   0  0  0  0  0  0  0  0  0  0  0  0
   33.6920   29.5500   33.5360 C   0  0  0  0  0  0  0  0  0  0  0  0
   32.5500   29.1310   32.8360 C   0  0  0  0  0  0  0  0  0  0  0  0
   31.3540   28.8770   33.5040 C   0  0  0  0  0  0  0  0  0  0  0  0
   31.3910   29.0660   34.8660 N   0  0  0  0  0  0  0  0  0  0  0  0
   32.5070   29.4720   35.5170 C   0  0  0  0  0  0  0  0  0  0  0  0
   33.6900   29.7260   34.8630 N   0  0  0  0  0  0  0  0  0  0  0  0
   32.4970   28.9780   31.7870 H   0  0  0  0  0  0  0  0  0  0  0  0
   30.4730   28.5590   33.0070 H   0  0  0  0  0  0  0  0  0  0  0  0
   32.4420   29.5940   36.5870 H   0  0  0  0  0  0  0  0  0  0  0  0
   36.3300   27.7720   32.5500 C   0  0  0  0  0  0  0  0  0  0  0  0
   36.0650   26.6200   32.2220 O   0  0  0  0  0  0  0  0  0  0  0  0
   39.1740   27.2700   31.3750 Cl  0  0  0  0  0  0  0  0  0  0  0  0
   38.7140   27.2480   33.0830 C   0  0  0  0  0  0  0  0  0  0  0  0
   37.4130   27.4690   33.4740 C   0  0  0  0  0  0  0  0  0  0  0  0
   37.2410   27.4140   34.8310 C   0  0  0  0  0  0  0  0  0  0  0  0
   36.3280   27.5730   35.3410 H   0  0  0  0  0  0  0  0  0  0  0  0
   38.1910   27.1720   35.7750 C   0  0  0  0  0  0  0  0  0  0  0  0
   38.1100   27.1170   36.8420 H   0  0  0  0  0  0  0  0  0  0  0  0
   39.4700   26.9580   35.3140 C   0  0  0  0  0  3  0  0  0  0  0  0
   39.7590   26.9910   33.9820 C   0  0  0  0  0  3  0  0  0  0  0  0
  1 13  1  0  0  0  0
  2  6  1  6  0  0  0
  2 22  1  0  0  0  0
  2  1  1  0  0  0  0
  3  4  1  0  0  0  0
  3  2  1  0  0  0  0
  4  5  1  0  0  0  0
  5  1  1  0  0  0  0
  5 12  1  0  0  0  0
  5 11  1  0  0  0  0
  7  3  1  0  0  0  0
  8  3  1  0  0  0  0
  9  4  1  0  0  0  0
 10  4  1  0  0  0  0
 13 18  1  0  0  0  0
 14 15  1  0  0  0  0
 14 13  2  0  0  0  0
 15 16  2  0  0  0  0
 16 17  1  0  0  0  0
 17 21  1  0  0  0  0
 18 17  2  0  0  0  0
 19 14  1  0  0  0  0
 20 15  1  0  0  0  0
 22 26  1  0  0  0  0
 23 22  2  0  0  0  0
 24 25  1  0  0  0  0
 25 26  2  0  0  0  0
 25 32  1  0  0  0  0
 26 27  1  0  0  0  0
 27 28  1  0  0  0  0
 27 29  2  0  0  0  0
 29 30  1  0  0  0  0
 31 29  1  0  0  0  0
 32 31  2  0  0  0  0
M  END
>  <minimizedAffinity>
-5.16300774

$$$$

 OpenBabel03272503253D

 32 34  0  0  1  0  0  0  0  0999 V2000
   38.1980   23.2250   36.4590 N   0  0  0  0  0  0  0  0  0  0  0  0
   37.7460   24.4950   36.9010 C   0  0  1  0  0  0  0  0  0  0  0  0
   38.1200   24.5410   38.3760 C   0  0  0  0  0  0  0  0  0  0  0  0
   38.8380   23.1930   38.6210 C   0  0  0  0  0  0  0  0  0  0  0  0
   39.3590   22.9140   37.2440 C   0  0  0  0  0  0  0  0  0  0  0  0
   36.5600   24.4270   36.9180 H   0  0  0  0  0  0  0  0  0  0  0  0
   37.2330   24.5420   39.0000 H   0  0  0  0  0  0  0  0  0  0  0  0
   38.8140   25.3680   38.5890 H   0  0  0  0  0  0  0  0  0  0  0  0
   39.6790   23.3760   39.2930 H   0  0  0  0  0  0  0  0  0  0  0  0
   38.1420   22.4100   38.9320 H   0  0  0  0  0  0  0  0  0  0  0  0
   40.2590   23.4920   36.9840 H   0  0  0  0  0  0  0  0  0  0  0  0
   39.5870   21.8100   37.2130 H   0  0  0  0  0  0  0  0  0  0  0  0
   37.6180   22.4170   35.4490 C   0  0  0  0  0  0  0  0  0  0  0  0
   36.5590   21.5690   35.8070 C   0  0  0  0  0  0  0  0  0  0  0  0
   35.9170   20.7830   34.8510 C   0  0  0  0  0  0  0  0  0  0  0  0
   36.3970   20.9100   33.5690 N   0  0  0  0  0  0  0  0  0  0  0  0
   37.4220   21.7360   33.2510 C   0  0  0  0  0  0  0  0  0  0  0  0
   38.0600   22.5130   34.1900 N   0  0  0  0  0  0  0  0  0  0  0  0
   36.1710   21.4540   36.7890 H   0  0  0  0  0  0  0  0  0  0  0  0
   35.1140   20.1320   35.0870 H   0  0  0  0  0  0  0  0  0  0  0  0
   37.7310   21.7690   32.2180 H   0  0  0  0  0  0  0  0  0  0  0  0
   38.0290   25.6540   36.1200 C   0  0  0  0  0  0  0  0  0  0  0  0
   38.2890   26.6870   36.7290 O   0  0  0  0  0  0  0  0  0  0  0  0
   40.5920   24.9930   34.4720 Cl  0  0  0  0  0  0  0  0  0  0  0  0
   39.2060   25.9550   33.9360 C   0  0  0  0  0  0  0  0  0  0  0  0
   38.1370   26.1900   34.7700 C   0  0  0  0  0  0  0  0  0  0  0  0
   37.1590   26.9510   34.1910 C   0  0  0  0  0  0  0  0  0  0  0  0
   36.2470   27.2330   34.6490 H   0  0  0  0  0  0  0  0  0  0  0  0
   37.1510   27.4690   32.9320 C   0  0  0  0  0  0  0  0  0  0  0  0
   36.4160   28.0680   32.4330 H   0  0  0  0  0  0  0  0  0  0  0  0
   38.2520   27.1960   32.1530 C   0  0  0  0  0  3  0  0  0  0  0  0
   39.2870   26.4460   32.6250 C   0  0  0  0  0  3  0  0  0  0  0  0
  1  2  1  0  0  0  0
  1  5  1  0  0  0  0
  2  6  1  6  0  0  0
  2  3  1  0  0  0  0
  3  8  1  0  0  0  0
  3  4  1  0  0  0  0
  3  7  1  0  0  0  0
  4 10  1  0  0  0  0
  4  9  1  0  0  0  0
  5  4  1  0  0  0  0
 11  5  1  0  0  0  0
 12  5  1  0  0  0  0
 13 14  1  0  0  0  0
 13  1  1  0  0  0  0
 14 19  1  0  0  0  0
 15 20  1  0  0  0  0
 15 14  2  0  0  0  0
 16 15  1  0  0  0  0
 17 16  2  0  0  0  0
 17 18  1  0  0  0  0
 18 13  2  0  0  0  0
 21 17  1  0  0  0  0
 22 23  2  0  0  0  0
 22  2  1  0  0  0  0
 25 24  1  0  0  0  0
 25 26  1  0  0  0  0
 26 22  1  0  0  0  0
 27 28  1  0  0  0  0
 27 26  2  0  0  0  0
 29 27  1  0  0  0  0
 30 29  1  0  0  0  0
 31 32  1  0  0  0  0
 31 29  2  0  0  0  0
 32 25  2  0  0  0  0
M  END
>  <minimizedAffinity>
-5.15946007

$$$$

 OpenBabel03272503253D

 32 34  0  0  1  0  0  0  0  0999 V2000
   37.3700   25.2980   32.6710 N   0  0  0  0  0  0  0  0  0  0  0  0
   38.4530   25.7550   33.4660 C   0  0  1  0  0  0  0  0  0  0  0  0
   38.7830   27.1320   32.9050 C   0  0  0  0  0  0  0  0  0  0  0  0
   37.7390   27.3380   31.7840 C   0  0  0  0  0  0  0  0  0  0  0  0
   36.6290   26.4660   32.2880 C   0  0  0  0  0  0  0  0  0  0  0  0
   39.3880   25.0950   33.1470 H   0  0  0  0  0  0  0  0  0  0  0  0
   39.7580   27.1320   32.4310 H   0  0  0  0  0  0  0  0  0  0  0  0
   38.6600   27.9160   33.6670 H   0  0  0  0  0  0  0  0  0  0  0  0
   37.4170   28.3810   31.8100 H   0  0  0  0  0  0  0  0  0  0  0  0
   38.0990   26.9770   30.8180 H   0  0  0  0  0  0  0  0  0  0  0  0
   36.0390   26.9220   33.0970 H   0  0  0  0  0  0  0  0  0  0  0  0
   35.9670   26.2550   31.3990 H   0  0  0  0  0  0  0  0  0  0  0  0
   37.0790   23.9570   32.3170 C   0  0  0  0  0  0  0  0  0  0  0  0
   35.8970   23.7020   31.6040 C   0  0  0  0  0  0  0  0  0  0  0  0
   35.5770   22.4110   31.1880 C   0  0  0  0  0  0  0  0  0  0  0  0
   36.4920   21.4420   31.5260 N   0  0  0  0  0  0  0  0  0  0  0  0
   37.6250   21.7150   32.2150 C   0  0  0  0  0  0  0  0  0  0  0  0
   37.9460   22.9870   32.6300 N   0  0  0  0  0  0  0  0  0  0  0  0
   35.1760   24.4320   31.3320 H   0  0  0  0  0  0  0  0  0  0  0  0
   34.6920   22.1830   30.6480 H   0  0  0  0  0  0  0  0  0  0  0  0
   38.2840   20.8910   32.4360 H   0  0  0  0  0  0  0  0  0  0  0  0
   38.3880   25.6270   34.8850 C   0  0  0  0  0  0  0  0  0  0  0  0
   38.0020   26.6060   35.5150 O   0  0  0  0  0  0  0  0  0  0  0  0
   40.7320   23.5800   34.6960 Cl  0  0  0  0  0  0  0  0  0  0  0  0
   39.6350   23.8120   36.0660 C   0  0  0  0  0  0  0  0  0  0  0  0
   38.6230   24.7430   36.0180 C   0  0  0  0  0  0  0  0  0  0  0  0
   37.8750   24.7850   37.1630 C   0  0  0  0  0  0  0  0  0  0  0  0
   37.0630   25.4400   37.3430 H   0  0  0  0  0  0  0  0  0  0  0  0
   38.0350   24.0290   38.2830 C   0  0  0  0  0  0  0  0  0  0  0  0
   37.4800   24.0210   39.2000 H   0  0  0  0  0  0  0  0  0  0  0  0
   39.0650   23.1170   38.2620 C   0  0  0  0  0  3  0  0  0  0  0  0
   39.8770   22.9880   37.1740 C   0  0  0  0  0  3  0  0  0  0  0  0
  1  2  1  0  0  0  0
  2  6  1  6  0  0  0
  2 22  1  0  0  0  0
  3  2  1  0  0  0  0
  3  8  1  0  0  0  0
  4  9  1  0  0  0  0
  4  5  1  0  0  0  0
  4  3  1  0  0  0  0
  5  1  1  0  0  0  0
  5 11  1  0  0  0  0
  7  3  1  0  0  0  0
 10  4  1  0  0  0  0
 12  5  1  0  0  0  0
 13 18  1  0  0  0  0
 13  1  1  0  0  0  0
 14 13  2  0  0  0  0
 15 16  2  0  0  0  0
 15 14  1  0  0  0  0
 16 17  1  0  0  0  0
 17 21  1  0  0  0  0
 17 18  2  0  0  0  0
 19 14  1  0  0  0  0
 20 15  1  0  0  0  0
 22 23  2  0  0  0  0
 22 26  1  0  0  0  0
 24 25  1  0  0  0  0
 25 32  1  0  0  0  0
 26 25  2  0  0  0  0
 26 27  1  0  0  0  0
 27 28  1  0  0  0  0
 27 29  2  0  0  0  0
 29 30  1  0  0  0  0
 31 29  1  0  0  0  0
 32 31  2  0  0  0  0
M  END
>  <minimizedAffinity>
-5.13544655

$$$$

 OpenBabel03272503253D

 32 34  0  0  1  0  0  0  0  0999 V2000
   39.0450   26.5910   33.6110 N   0  0  0  0  0  0  0  0  0  0  0  0
   39.2000   25.1870   33.4690 C   0  0  1  0  0  0  0  0  0  0  0  0
   40.6490   25.0040   33.0410 C   0  0  0  0  0  0  0  0  0  0  0  0
   41.2170   26.4420   33.0220 C   0  0  0  0  0  0  0  0  0  0  0  0
   40.3220   27.0960   34.0300 C   0  0  0  0  0  0  0  0  0  0  0  0
   38.5840   24.8920   32.4960 H   0  0  0  0  0  0  0  0  0  0  0  0
   40.7080   24.6300   32.0250 H   0  0  0  0  0  0  0  0  0  0  0  0
   41.2100   24.4000   33.7700 H   0  0  0  0  0  0  0  0  0  0  0  0
   42.2360   26.4080   33.4150 H   0  0  0  0  0  0  0  0  0  0  0  0
   41.1010   26.9150   32.0440 H   0  0  0  0  0  0  0  0  0  0  0  0
   40.5870   26.8690   35.0740 H   0  0  0  0  0  0  0  0  0  0  0  0
   40.4000   28.2070   33.8460 H   0  0  0  0  0  0  0  0  0  0  0  0
   37.8690   27.3470   33.3790 C   0  0  0  0  0  0  0  0  0  0  0  0
   37.1320   27.7820   34.4910 C   0  0  0  0  0  0  0  0  0  0  0  0
   35.9920   28.5670   34.3300 C   0  0  0  0  0  0  0  0  0  0  0  0
   35.6650   28.8670   33.0280 N   0  0  0  0  0  0  0  0  0  0  0  0
   36.3940   28.4340   31.9730 C   0  0  0  0  0  0  0  0  0  0  0  0
   37.5200   27.6580   32.1250 N   0  0  0  0  0  0  0  0  0  0  0  0
   37.3640   27.5640   35.5040 H   0  0  0  0  0  0  0  0  0  0  0  0
   35.4110   28.9130   35.1480 H   0  0  0  0  0  0  0  0  0  0  0  0
   36.0610   28.7190   30.9880 H   0  0  0  0  0  0  0  0  0  0  0  0
   38.7050   24.3180   34.4860 C   0  0  0  0  0  0  0  0  0  0  0  0
   37.8780   23.4780   34.1460 O   0  0  0  0  0  0  0  0  0  0  0  0
   40.8460   22.2590   35.4320 Cl  0  0  0  0  0  0  0  0  0  0  0  0
   39.6670   23.1040   36.4460 C   0  0  0  0  0  0  0  0  0  0  0  0
   38.7580   23.9820   35.9010 C   0  0  0  0  0  0  0  0  0  0  0  0
   37.9250   24.5410   36.8320 C   0  0  0  0  0  0  0  0  0  0  0  0
   37.1680   25.2530   36.6300 H   0  0  0  0  0  0  0  0  0  0  0  0
   37.9160   24.3180   38.1740 C   0  0  0  0  0  0  0  0  0  0  0  0
   37.2900   24.7250   38.9420 H   0  0  0  0  0  0  0  0  0  0  0  0
   38.8520   23.4270   38.6510 C   0  0  0  0  0  3  0  0  0  0  0  0
   39.7340   22.8100   37.8150 C   0  0  0  0  0  3  0  0  0  0  0  0
  1  5  1  0  0  0  0
  2  6  1  6  0  0  0
  2  1  1  0  0  0  0
  2 22  1  0  0  0  0
  3  2  1  0  0  0  0
  3  8  1  0  0  0  0
  4  3  1  0  0  0  0
  4  9  1  0  0  0  0
  4  5  1  0  0  0  0
  5 11  1  0  0  0  0
  7  3  1  0  0  0  0
 10  4  1  0  0  0  0
 12  5  1  0  0  0  0
 13  1  1  0  0  0  0
 13 14  1  0  0  0  0
 14 19  1  0  0  0  0
 15 14  2  0  0  0  0
 15 20  1  0  0  0  0
 16 15  1  0  0  0  0
 17 18  1  0  0  0  0
 17 16  2  0  0  0  0
 18 13  2  0  0  0  0
 21 17  1  0  0  0  0
 22 26  1  0  0  0  0
 23 22  2  0  0  0  0
 24 25  1  0  0  0  0
 25 32  1  0  0  0  0
 26 25  2  0  0  0  0
 26 27  1  0  0  0  0
 27 29  2  0  0  0  0
 28 27  1  0  0  0  0
 29 31  1  0  0  0  0
 29 30  1  0  0  0  0
 32 31  2  0  0  0  0
M  END
>  <minimizedAffinity>
-5.08030367

$$$$

 OpenBabel03272503253D

 32 34  0  0  1  0  0  0  0  0999 V2000
   38.5650   25.6340   35.2620 N   0  0  0  0  0  0  0  0  0  0  0  0
   37.4660   25.6000   34.3640 C   0  0  1  0  0  0  0  0  0  0  0  0
   37.0240   27.0520   34.2480 C   0  0  0  0  0  0  0  0  0  0  0  0
   38.0280   27.8210   35.1380 C   0  0  0  0  0  0  0  0  0  0  0  0
   39.2090   26.9010   35.0630 C   0  0  0  0  0  0  0  0  0  0  0  0
   36.5770   25.0870   34.9630 H   0  0  0  0  0  0  0  0  0  0  0  0
   36.0420   27.1930   34.6880 H   0  0  0  0  0  0  0  0  0  0  0  0
   37.1030   27.4140   33.2120 H   0  0  0  0  0  0  0  0  0  0  0  0
   38.2720   28.7600   34.6370 H   0  0  0  0  0  0  0  0  0  0  0  0
   37.6770   27.9090   36.1680 H   0  0  0  0  0  0  0  0  0  0  0  0
   39.7790   26.9860   34.1260 H   0  0  0  0  0  0  0  0  0  0  0  0
   39.8680   27.1650   35.9400 H   0  0  0  0  0  0  0  0  0  0  0  0
   38.9490   24.6240   36.1790 C   0  0  0  0  0  0  0  0  0  0  0  0
   38.1730   24.4510   37.3350 C   0  0  0  0  0  0  0  0  0  0  0  0
   38.4720   23.4450   38.2530 C   0  0  0  0  0  0  0  0  0  0  0  0
   39.5580   22.6650   37.9350 N   0  0  0  0  0  0  0  0  0  0  0  0
   40.2900   22.8540   36.8120 C   0  0  0  0  0  0  0  0  0  0  0  0
   40.0010   23.8450   35.9030 N   0  0  0  0  0  0  0  0  0  0  0  0
   37.3310   25.0400   37.6020 H   0  0  0  0  0  0  0  0  0  0  0  0
   37.9070   23.2860   39.1370 H   0  0  0  0  0  0  0  0  0  0  0  0
   41.1260   22.1930   36.6450 H   0  0  0  0  0  0  0  0  0  0  0  0
   37.5680   24.8500   33.1560 C   0  0  0  0  0  0  0  0  0  0  0  0
   38.1670   25.3760   32.2230 O   0  0  0  0  0  0  0  0  0  0  0  0
   35.0290   24.8200   31.3470 Cl  0  0  0  0  0  0  0  0  0  0  0  0
   36.1310   23.4690   31.6490 C   0  0  0  0  0  0  0  0  0  0  0  0
   37.2140   23.6070   32.4870 C   0  0  0  0  0  0  0  0  0  0  0  0
   37.9550   22.4610   32.6020 C   0  0  0  0  0  0  0  0  0  0  0  0
   38.8360   22.3550   33.1790 H   0  0  0  0  0  0  0  0  0  0  0  0
   37.7270   21.2650   31.9950 C   0  0  0  0  0  0  0  0  0  0  0  0
   38.2710   20.3430   32.0520 H   0  0  0  0  0  0  0  0  0  0  0  0
   36.6260   21.1970   31.1720 C   0  0  0  0  0  3  0  0  0  0  0  0
   35.8160   22.2770   30.9810 C   0  0  0  0  0  3  0  0  0  0  0  0
  1 13  1  0  0  0  0
  2  6  1  1  0  0  0
  2  1  1  0  0  0  0
  3  2  1  0  0  0  0
  3  7  1  0  0  0  0
  3  4  1  0  0  0  0
  4 10  1  0  0  0  0
  5  4  1  0  0  0  0
  5  1  1  0  0  0  0
  5 12  1  0  0  0  0
  8  3  1  0  0  0  0
  9  4  1  0  0  0  0
 11  5  1  0  0  0  0
 13 14  1  0  0  0  0
 14 19  1  0  0  0  0
 14 15  2  0  0  0  0
 15 20  1  0  0  0  0
 16 15  1  0  0  0  0
 17 16  2  0  0  0  0
 18 13  2  0  0  0  0
 18 17  1  0  0  0  0
 21 17  1  0  0  0  0
 22  2  1  0  0  0  0
 23 22  2  0  0  0  0
 24 25  1  0  0  0  0
 25 26  1  0  0  0  0
 26 27  2  0  0  0  0
 26 22  1  0  0  0  0
 27 28  1  0  0  0  0
 29 30  1  0  0  0  0
 29 27  1  0  0  0  0
 31 29  2  0  0  0  0
 32 31  1  0  0  0  0
 32 25  2  0  0  0  0
M  END
>  <minimizedAffinity>
-5.05922461

$$$$

 OpenBabel03272503253D

 32 34  0  0  1  0  0  0  0  0999 V2000
   38.0950   25.6580   34.1340 N   0  0  0  0  0  0  0  0  0  0  0  0
   39.5120   25.7340   34.1790 C   0  0  1  0  0  0  0  0  0  0  0  0
   39.8030   26.8930   35.1210 C   0  0  0  0  0  0  0  0  0  0  0  0
   38.4020   27.3650   35.5760 C   0  0  0  0  0  0  0  0  0  0  0  0
   37.6280   26.0910   35.4200 C   0  0  0  0  0  0  0  0  0  0  0  0
   39.8460   26.1490   33.1170 H   0  0  0  0  0  0  0  0  0  0  0  0
   40.2550   27.7210   34.5860 H   0  0  0  0  0  0  0  0  0  0  0  0
   40.3790   26.5630   35.9990 H   0  0  0  0  0  0  0  0  0  0  0  0
   38.4600   27.6230   36.6350 H   0  0  0  0  0  0  0  0  0  0  0  0
   37.9990   28.1400   34.9200 H   0  0  0  0  0  0  0  0  0  0  0  0
   37.7900   25.3710   36.2360 H   0  0  0  0  0  0  0  0  0  0  0  0
   36.5400   26.3880   35.3780 H   0  0  0  0  0  0  0  0  0  0  0  0
   37.2970   25.2460   33.0380 C   0  0  0  0  0  0  0  0  0  0  0  0
   36.6230   26.2330   32.3020 C   0  0  0  0  0  0  0  0  0  0  0  0
   35.8590   25.8960   31.1860 C   0  0  0  0  0  0  0  0  0  0  0  0
   35.8270   24.5550   30.8800 N   0  0  0  0  0  0  0  0  0  0  0  0
   36.4870   23.6240   31.6070 C   0  0  0  0  0  0  0  0  0  0  0  0
   37.2420   23.9500   32.7110 N   0  0  0  0  0  0  0  0  0  0  0  0
   36.6320   27.2720   32.5190 H   0  0  0  0  0  0  0  0  0  0  0  0
   35.3360   26.6160   30.6080 H   0  0  0  0  0  0  0  0  0  0  0  0
   36.4030   22.5960   31.2930 H   0  0  0  0  0  0  0  0  0  0  0  0
   40.2740   24.5410   34.3560 C   0  0  0  0  0  0  0  0  0  0  0  0
   40.6380   23.9570   33.3410 O   0  0  0  0  0  0  0  0  0  0  0  0
   38.3610   22.5720   35.8320 Cl  0  0  0  0  0  0  0  0  0  0  0  0
   40.1150   22.6930   36.0300 C   0  0  0  0  0  0  0  0  0  0  0  0
   40.8490   23.6230   35.3280 C   0  0  0  0  0  0  0  0  0  0  0  0
   42.1880   23.5740   35.6070 C   0  0  0  0  0  0  0  0  0  0  0  0
   42.9300   24.1860   35.1650 H   0  0  0  0  0  0  0  0  0  0  0  0
   42.8230   22.7350   36.4700 C   0  0  0  0  0  0  0  0  0  0  0  0
   43.8610   22.6560   36.7240 H   0  0  0  0  0  0  0  0  0  0  0  0
   42.0280   21.8320   37.1400 C   0  0  0  0  0  3  0  0  0  0  0  0
   40.6810   21.7890   36.9400 C   0  0  0  0  0  3  0  0  0  0  0  0
  1  2  1  0  0  0  0
  1  5  1  0  0  0  0
  2  6  1  6  0  0  0
  2 22  1  0  0  0  0
  2  3  1  0  0  0  0
  3  4  1  0  0  0  0
  3  8  1  0  0  0  0
  4  9  1  0  0  0  0
  5  4  1  0  0  0  0
  5 11  1  0  0  0  0
  7  3  1  0  0  0  0
 10  4  1  0  0  0  0
 12  5  1  0  0  0  0
 13  1  1  0  0  0  0
 14 19  1  0  0  0  0
 14 13  2  0  0  0  0
 15 14  1  0  0  0  0
 16 15  2  0  0  0  0
 16 17  1  0  0  0  0
 17 18  2  0  0  0  0
 18 13  1  0  0  0  0
 20 15  1  0  0  0  0
 21 17  1  0  0  0  0
 22 26  1  0  0  0  0
 23 22  2  0  0  0  0
 24 25  1  0  0  0  0
 25 32  1  0  0  0  0
 26 27  1  0  0  0  0
 26 25  2  0  0  0  0
 27 29  2  0  0  0  0
 28 27  1  0  0  0  0
 29 30  1  0  0  0  0
 29 31  1  0  0  0  0
 32 31  2  0  0  0  0
M  END
>  <minimizedAffinity>
-5.02625608

$$$$

 OpenBabel03272503253D

 32 34  0  0  1  0  0  0  0  0999 V2000
   38.0790   25.0780   33.3560 N   0  0  0  0  0  0  0  0  0  0  0  0
   36.9320   25.3530   32.5660 C   0  0  1  0  0  0  0  0  0  0  0  0
   37.2640   26.6580   31.8550 C   0  0  0  0  0  0  0  0  0  0  0  0
   38.6980   26.9880   32.3290 C   0  0  0  0  0  0  0  0  0  0  0  0
   39.2010   25.6110   32.6370 C   0  0  0  0  0  0  0  0  0  0  0  0
   36.0800   25.6650   33.3340 H   0  0  0  0  0  0  0  0  0  0  0  0
   36.6240   27.4620   32.2040 H   0  0  0  0  0  0  0  0  0  0  0  0
   37.2610   26.5310   30.7620 H   0  0  0  0  0  0  0  0  0  0  0  0
   39.2500   27.3920   31.4780 H   0  0  0  0  0  0  0  0  0  0  0  0
   38.6980   27.6050   33.2310 H   0  0  0  0  0  0  0  0  0  0  0  0
   39.4920   25.0350   31.7450 H   0  0  0  0  0  0  0  0  0  0  0  0
   40.0920   25.7460   33.3150 H   0  0  0  0  0  0  0  0  0  0  0  0
   38.1130   24.4160   34.6090 C   0  0  0  0  0  0  0  0  0  0  0  0
   38.4360   23.0510   34.6280 C   0  0  0  0  0  0  0  0  0  0  0  0
   38.5300   22.3540   35.8310 C   0  0  0  0  0  0  0  0  0  0  0  0
   38.2860   23.1000   36.9610 N   0  0  0  0  0  0  0  0  0  0  0  0
   37.9760   24.4170   36.9140 C   0  0  0  0  0  0  0  0  0  0  0  0
   37.8810   25.1100   35.7290 N   0  0  0  0  0  0  0  0  0  0  0  0
   38.6280   22.4550   33.7700 H   0  0  0  0  0  0  0  0  0  0  0  0
   38.7710   21.3230   35.8820 H   0  0  0  0  0  0  0  0  0  0  0  0
   37.8000   24.9200   37.8520 H   0  0  0  0  0  0  0  0  0  0  0  0
   36.3500   24.3130   31.7840 C   0  0  0  0  0  0  0  0  0  0  0  0
   35.5540   24.6500   30.9140 O   0  0  0  0  0  0  0  0  0  0  0  0
   38.6940   22.9370   30.2550 Cl  0  0  0  0  0  0  0  0  0  0  0  0
   37.2590   22.1490   30.9260 C   0  0  0  0  0  0  0  0  0  0  0  0
   36.2810   22.8750   31.5680 C   0  0  0  0  0  0  0  0  0  0  0  0
   35.2470   22.1020   32.0210 C   0  0  0  0  0  0  0  0  0  0  0  0
   34.4040   22.4560   32.5560 H   0  0  0  0  0  0  0  0  0  0  0  0
   35.1060   20.7540   31.8990 C   0  0  0  0  0  0  0  0  0  0  0  0
   34.3210   20.1050   32.2320 H   0  0  0  0  0  0  0  0  0  0  0  0
   36.1200   20.0910   31.2450 C   0  0  0  0  0  3  0  0  0  0  0  0
   37.2010   20.7590   30.7520 C   0  0  0  0  0  3  0  0  0  0  0  0
  1 13  1  0  0  0  0
  2  6  1  1  0  0  0
  2  1  1  0  0  0  0
  3  7  1  0  0  0  0
  3  4  1  0  0  0  0
  3  2  1  0  0  0  0
  4  5  1  0  0  0  0
  4 10  1  0  0  0  0
  5 12  1  0  0  0  0
  5  1  1  0  0  0  0
  8  3  1  0  0  0  0
  9  4  1  0  0  0  0
 11  5  1  0  0  0  0
 13 14  2  0  0  0  0
 13 18  1  0  0  0  0
 14 15  1  0  0  0  0
 15 20  1  0  0  0  0
 15 16  2  0  0  0  0
 17 16  1  0  0  0  0
 17 21  1  0  0  0  0
 18 17  2  0  0  0  0
 19 14  1  0  0  0  0
 22  2  1  0  0  0  0
 23 22  2  0  0  0  0
 24 25  1  0  0  0  0
 25 26  1  0  0  0  0
 26 22  1  0  0  0  0
 26 27  2  0  0  0  0
 27 28  1  0  0  0  0
 29 27  1  0  0  0  0
 29 30  1  0  0  0  0
 31 29  2  0  0  0  0
 32 25  2  0  0  0  0
 32 31  1  0  0  0  0
M  END
>  <minimizedAffinity>
-4.98363304

$$$$
