
     RDKit          3D

 43 46  0  0  0  0  0  0  0  0999 V2000
   38.2609   32.2884   47.3924 C   0  0  0  0  0  0  0  0  0  0  0  0
   37.9080   32.7395   48.6616 C   0  0  0  0  0  0  0  0  0  0  0  0
   38.6692   33.6873   49.3058 C   0  0  0  0  0  0  0  0  0  0  0  0
   39.8059   34.2046   48.6872 C   0  0  0  0  0  0  0  0  0  0  0  0
   40.1578   33.7524   47.4175 C   0  0  0  0  0  0  0  0  0  0  0  0
   39.3733   32.8046   46.8046 C   0  0  0  0  0  0  0  0  0  0  0  0
   39.7633   32.3365   45.4584 C   0  0  0  0  0  0  0  0  0  0  0  0
   40.6138   31.3282   45.1015 C   0  0  0  0  0  0  0  0  0  0  0  0
   40.6411   31.2885   43.6992 C   0  0  0  0  0  0  0  0  0  0  0  0
   39.7946   32.2884   43.3081 C   0  0  0  0  0  0  0  0  0  0  0  0
   39.2806   32.9021   44.3595 O   0  0  0  0  0  0  0  0  0  0  0  0
   36.7653   30.5155   46.2999 N   0  0  0  0  0  0  0  0  0  0  0  0
   37.4282   31.3140   46.7901 C   0  0  0  0  0  0  0  0  0  0  0  0
   36.8094   32.3148   49.3931 O   0  0  0  0  0  0  0  0  0  0  0  0
   36.7860   31.2088   50.1637 C   0  0  0  0  0  0  0  0  0  0  0  0
   35.6456   30.4214   49.9570 C   0  0  0  0  0  0  0  0  0  0  0  0
   35.4271   29.2489   50.6439 C   0  0  0  0  0  0  0  0  0  0  0  0
   36.3842   28.8836   51.5470 N   0  0  0  0  0  0  0  0  0  0  0  0
   37.4966   29.6546   51.7461 C   0  0  0  0  0  0  0  0  0  0  0  0
   37.6714   30.7691   51.0713 N   0  0  0  0  0  0  0  0  0  0  0  0
   34.1514   29.7191   48.1474 C   0  0  0  0  0  0  0  0  0  0  0  0
   34.5522   28.5234   47.8777 O   0  0  0  0  0  0  0  0  0  0  0  0
   34.6171   30.7203   49.0489 N   0  0  0  0  0  0  0  0  0  0  0  0
   38.4459   34.0760   50.2896 H   0  0  0  0  0  0  0  0  0  0  0  0
   40.4102   34.9498   49.1857 H   0  0  0  0  0  0  0  0  0  0  0  0
   41.0507   34.1727   46.9563 H   0  0  0  0  0  0  0  0  0  0  0  0
   41.1486   30.6989   45.8279 H   0  0  0  0  0  0  0  0  0  0  0  0
   41.2665   30.5454   43.2383 H   0  0  0  0  0  0  0  0  0  0  0  0
   39.6518   32.4518   42.2489 H   0  0  0  0  0  0  0  0  0  0  0  0
   34.5875   28.6074   50.5356 H   0  0  0  0  0  0  0  0  0  0  0  0
   38.2478   29.3477   52.4689 H   0  0  0  0  0  0  0  0  0  0  0  0
   34.1814   31.6473   49.0088 H   0  0  0  0  0  0  0  0  0  0  0  0
   33.1678   27.5086   46.2922 Cl  0  0  0  0  0  0  0  0  0  0  0  0
   32.4404   29.1175   46.4470 C   0  0  0  0  0  0  0  0  0  0  0  0
   32.9664   30.0533   47.3189 C   0  0  0  0  0  0  0  0  0  0  0  0
   32.3448   31.3053   47.3917 C   0  0  0  0  0  0  0  0  0  0  0  0
   32.8065   32.0091   48.1024 H   0  0  0  0  0  0  0  0  0  0  0  0
   31.2538   31.6238   46.6405 C   0  0  0  0  0  0  0  0  0  0  0  0
   30.8344   32.6172   46.7596 H   0  0  0  0  0  0  0  0  0  0  0  0
   30.7579   30.6497   45.7760 C   0  0  0  0  0  0  0  0  0  0  0  0
   31.3439   29.4021   45.6757 C   0  0  0  0  0  0  0  0  0  0  0  0
   29.8890   30.9477   45.1994 H   0  0  0  0  0  0  0  0  0  0  0  0
   30.9273   28.6605   44.9851 H   0  0  0  0  0  0  0  0  0  0  0  0
  1  2  2  0
  2  3  1  0
  2 14  1  0
  4  3  2  0
  5  4  1  0
  6  1  1  0
  6  5  2  0
  7  6  1  0
  8  7  2  0
  9  8  1  0
 10  9  2  0
 10 11  1  0
 11  7  1  0
 12 13  3  0
 13  1  1  0
 14 15  1  0
 15 20  2  0
 16 15  1  0
 16 17  2  0
 17 18  1  0
 18 19  2  0
 20 19  1  0
 21 23  1  0
 22 21  2  0
 23 16  1  0
  3 24  1  0
  4 25  1  0
  5 26  1  0
  8 27  1  0
  9 28  1  0
 10 29  1  0
 17 30  1  0
 19 31  1  0
 23 32  1  0
 33 34  1  0
 34 35  2  0
 35 36  1  0
 36 37  1  0
 36 38  2  0
 38 39  1  0
 38 40  1  0
 40 41  2  0
 41 34  1  0
 40 42  1  0
 41 43  1  0
 21 35  1  0
M  ISO  8  24  14  25  14  26  14  27  14  28  14  29  14  30  14  31  14
M  ISO  2  37  15  39  16
M  END
>  <DihAtoms>  (1) 
22,20,34,33

>  <DihDeg>  (1) 
-118.386304456806

$$$$
