
 OpenBabel03272503043D

 32 34  0  0  0  0  0  0  0  0999 V2000
   38.3500   30.2580   47.3540 F   0  0  0  0  0  0  0  0  0  0  0  0
   38.6340   31.5080   47.7990 C   0  0  0  0  0  0  0  0  0  0  0  0
   38.0840   31.9780   48.9660 C   0  0  0  0  0  0  0  0  0  0  0  0
   38.4150   33.2460   49.3530 C   0  0  0  0  0  0  0  0  0  0  0  0
   39.2660   34.0500   48.6210 C   0  0  0  0  0  0  0  0  0  0  0  0
   39.8080   33.5640   47.4550 C   0  0  0  0  0  0  0  0  0  0  0  0
   39.4940   32.2840   47.0360 C   0  0  0  0  0  0  0  0  0  0  0  0
   37.9810   33.6130   50.2690 H   0  0  0  0  0  0  0  0  0  0  0  0
   39.4880   35.0460   48.9830 H   0  0  0  0  0  0  0  0  0  0  0  0
   40.4870   34.1840   46.8580 H   0  0  0  0  0  0  0  0  0  0  0  0
   36.7240   29.5630   51.5460 C   0  0  0  0  0  0  0  0  0  0  0  0
   37.5890   30.4190   50.8570 C   0  0  0  0  0  0  0  0  0  0  0  0
   37.1920   31.0820   49.6950 C   0  0  0  0  0  0  0  0  0  0  0  0
   35.9170   30.8520   49.2680 N   0  0  0  0  0  0  0  0  0  0  0  0
   35.0920   30.0230   49.9430 C   0  0  0  0  0  0  0  0  0  0  0  0
   35.4890   29.3960   51.0550 N   0  0  0  0  0  0  0  0  0  0  0  0
   37.1280   29.1030   52.4280 H   0  0  0  0  0  0  0  0  0  0  0  0
   38.6070   30.6030   51.1990 H   0  0  0  0  0  0  0  0  0  0  0  0
   34.0750   29.8160   49.6370 H   0  0  0  0  0  0  0  0  0  0  0  0
   39.1730   31.8880   44.6900 C   0  0  0  0  0  0  0  0  0  0  0  0
   38.0470   32.4590   44.9310 O   0  0  0  0  0  0  0  0  0  0  0  0
   40.0350   31.7270   45.8230 N   0  0  0  0  0  0  0  0  0  0  0  0
   40.9640   31.2590   45.7980 H   0  0  0  0  0  0  0  0  0  0  0  0
   38.0780   33.3060   42.3200 Cl  0  0  0  0  0  0  0  0  0  0  0  0
   39.2350   32.0040   42.3000 C   0  0  0  0  0  0  0  0  0  0  0  0
   39.7200   31.3710   43.4230 C   0  0  0  0  0  0  0  0  0  0  0  0
   40.6470   30.3330   43.3500 C   0  0  0  0  0  0  0  0  0  0  0  0
   40.9720   29.8950   44.2850 H   0  0  0  0  0  0  0  0  0  0  0  0
   41.0850   29.9360   42.1030 C   0  0  0  0  0  0  0  0  0  0  0  0
   41.8130   29.1170   42.0900 H   0  0  0  0  0  0  0  0  0  0  0  0
   40.6060   30.5630   40.9650 C   0  0  0  0  0  0  0  0  0  0  0  0
   39.6900   31.5900   41.0600 C   0  0  0  0  0  0  0  0  0  0  0  0
  1  2  1  0  0  0  0
  2  3  1  0  0  0  0
  3  4  2  0  0  0  0
  3 13  1  0  0  0  0
  4  8  1  0  0  0  0
  5  9  1  0  0  0  0
  5  4  1  0  0  0  0
  6  5  2  0  0  0  0
  7  6  1  0  0  0  0
  7  2  2  0  0  0  0
 10  6  1  0  0  0  0
 11 17  1  0  0  0  0
 12 18  1  0  0  0  0
 12 11  2  0  0  0  0
 13 12  1  0  0  0  0
 14 13  2  0  0  0  0
 14 15  1  0  0  0  0
 15 16  2  0  0  0  0
 16 11  1  0  0  0  0
 19 15  1  0  0  0  0
 20 21  2  0  0  0  0
 20 22  1  0  0  0  0
 22  7  1  0  0  0  0
 23 22  1  0  0  0  0
 25 24  1  0  0  0  0
 25 26  1  0  0  0  0
 26 20  1  0  0  0  0
 27 26  2  0  0  0  0
 27 28  1  0  0  0  0
 29 27  1  0  0  0  0
 30 29  1  0  0  0  0
 31 32  1  0  0  0  0
 31 29  2  0  0  0  0
 32 25  2  0  0  0  0
M  END
>  <minimizedAffinity>
-6.74732065

>  <minimizedRMSD>
0.294294149

$$$$
