
 OpenBabel03272507413D

 41 44  0  0  0  0  0  0  0  0999 V2000
   36.5060   30.2730   48.9720 C   0  0  0  0  0  0  0  0  0  0  0  0
   35.2570   29.8270   49.4250 C   0  0  0  0  0  0  0  0  0  0  0  0
   35.0640   29.3490   50.7010 C   0  0  0  0  0  0  0  0  0  0  0  0
   36.1600   29.3270   51.5150 N   0  0  0  0  0  0  0  0  0  0  0  0
   37.3790   29.7610   51.0700 C   0  0  0  0  0  0  0  0  0  0  0  0
   37.5240   30.2120   49.8440 N   0  0  0  0  0  0  0  0  0  0  0  0
   34.1470   28.9980   51.1070 H   0  0  0  0  0  0  0  0  0  0  0  0
   38.2400   29.7360   51.7320 H   0  0  0  0  0  0  0  0  0  0  0  0
   33.6600   28.6070   48.0230 C   0  0  0  0  0  0  0  0  0  0  0  0
   34.2020   27.4430   47.9010 O   0  0  0  0  0  0  0  0  0  0  0  0
   34.0820   29.8130   48.6560 N   0  0  0  0  0  0  0  0  0  0  0  0
   33.5060   30.6520   48.5280 H   0  0  0  0  0  0  0  0  0  0  0  0
   33.4460   30.4050   45.5710 Cl  0  0  0  0  0  0  0  0  0  0  0  0
   32.1380   29.4040   46.2270 C   0  0  0  0  0  0  0  0  0  0  0  0
   32.3380   28.6220   47.3500 C   0  0  0  0  0  0  0  0  0  0  0  0
   31.2640   27.8560   47.8170 C   0  0  0  0  0  0  0  0  0  0  0  0
   31.4820   27.2550   48.7140 H   0  0  0  0  0  0  0  0  0  0  0  0
   30.0460   27.8580   47.2060 C   0  0  0  0  0  0  0  0  0  0  0  0
   29.2690   27.2330   47.6340 H   0  0  0  0  0  0  0  0  0  0  0  0
   29.8910   28.6600   46.0770 C   0  0  0  0  0  0  0  0  0  0  0  0
   30.9270   29.4300   45.5860 C   0  0  0  0  0  0  0  0  0  0  0  0
   36.4810   30.7020   47.6940 O   0  0  0  0  0  0  0  0  0  0  0  0
   37.8750   31.2300   45.7220 C   0  0  0  0  0  0  0  0  0  0  0  0
   37.5290   31.3560   47.0650 C   0  0  0  0  0  0  0  0  0  0  0  0
   38.2440   32.1840   47.8990 C   0  0  0  0  0  0  0  0  0  0  0  0
   39.3270   32.9070   47.4000 C   0  0  0  0  0  0  0  0  0  0  0  0
   39.6720   32.7790   46.0560 C   0  0  0  0  0  0  0  0  0  0  0  0
   38.9340   31.9430   45.2540 C   0  0  0  0  0  0  0  0  0  0  0  0
   38.0230   32.3240   48.9480 H   0  0  0  0  0  0  0  0  0  0  0  0
   39.8950   33.5610   48.0480 H   0  0  0  0  0  0  0  0  0  0  0  0
   40.5230   33.3550   45.6920 H   0  0  0  0  0  0  0  0  0  0  0  0
   39.3160   31.8200   43.8320 C   0  0  0  0  0  0  0  0  0  0  0  0
   40.2380   30.9960   43.2480 C   0  0  0  0  0  0  0  0  0  0  0  0
   40.2200   31.2680   41.8710 C   0  0  0  0  0  0  0  0  0  0  0  0
   39.2780   32.2480   41.7240 C   0  0  0  0  0  0  0  0  0  0  0  0
   38.7490   32.5660   42.8930 O   0  0  0  0  0  0  0  0  0  0  0  0
   40.8500   30.2750   43.8080 H   0  0  0  0  0  0  0  0  0  0  0  0
   40.8910   30.7050   41.2470 H   0  0  0  0  0  0  0  0  0  0  0  0
   39.0850   32.6260   40.7300 H   0  0  0  0  0  0  0  0  0  0  0  0
   36.4680   29.6490   44.2730 N   0  0  0  0  0  0  0  0  0  0  0  0
   37.0910   30.3610   44.9240 C   0  0  0  0  0  0  0  0  0  0  0  0
  1  2  2  0  0  0  0
  1  6  1  0  0  0  0
  2  3  1  0  0  0  0
  3  7  1  0  0  0  0
  3  4  2  0  0  0  0
  5  4  1  0  0  0  0
  5  8  1  0  0  0  0
  6  5  2  0  0  0  0
  9 11  1  0  0  0  0
 10  9  2  0  0  0  0
 11  2  1  0  0  0  0
 12 11  1  0  0  0  0
 13 14  1  0  0  0  0
 14 15  1  0  0  0  0
 15 16  2  0  0  0  0
 15  9  1  0  0  0  0
 16 17  1  0  0  0  0
 18 19  1  0  0  0  0
 18 16  1  0  0  0  0
 20 18  2  0  0  0  0
 21 20  1  0  0  0  0
 21 14  2  0  0  0  0
 22  1  1  0  0  0  0
 23 24  1  0  0  0  0
 24 22  1  0  0  0  0
 24 25  2  0  0  0  0
 25 29  1  0  0  0  0
 26 25  1  0  0  0  0
 26 30  1  0  0  0  0
 27 26  2  0  0  0  0
 28 23  2  0  0  0  0
 28 27  1  0  0  0  0
 31 27  1  0  0  0  0
 32 28  1  0  0  0  0
 33 37  1  0  0  0  0
 33 32  2  0  0  0  0
 34 33  1  0  0  0  0
 35 34  2  0  0  0  0
 35 36  1  0  0  0  0
 36 32  1  0  0  0  0
 38 34  1  0  0  0  0
 39 35  1  0  0  0  0
 40 41  3  0  0  0  0
 41 23  1  0  0  0  0
M  END
>  <minimizedAffinity>
-6.22021437

>  <minimizedRMSD>
1.71738923

$$$$
