REMARK  Name = 
REMARK  3 active torsions:
REMARK  status: ('A' for Active; 'I' for Inactive)
REMARK    1  A    between atoms: C_3  and  C_12
REMARK    2  A    between atoms: C_7  and  S_14
REMARK    3  A    between atoms: S_14  and  C_23
REMARK                            x       y       z     vdW  Elec       q    Type
REMARK                         _______ _______ _______ _____ _____    ______ ____
ROOT
ATOM      1 CL   UNL     1      36.368  30.474  46.391  0.00  0.00    +0.000 Cl
ATOM      2  C   UNL     1      36.805  30.540  48.078  0.00  0.00    +0.000 A 
ATOM      3  C   UNL     1      38.029  31.090  48.394  0.00  0.00    +0.000 A 
ATOM      4  C   UNL     1      38.383  31.147  49.733  0.00  0.00    +0.000 A 
ATOM      5  C   UNL     1      37.530  30.669  50.689  0.00  0.00    +0.000 A 
ATOM      6  C   UNL     1      36.310  30.128  50.298  0.00  0.00    +0.000 A 
ATOM      7  C   UNL     1      35.895  30.039  48.997  0.00  0.00    +0.000 A 
ATOM      8  H   UNL     1      39.338  31.573  50.014  0.00  0.00    +0.000 HD
ATOM      9  H   UNL     1      37.766  30.694  51.749  0.00  0.00    +0.000 HD
ATOM     10  H   UNL     1      35.654  29.756  51.081  0.00  0.00    +0.000 HD
ENDROOT
BRANCH   3  15
ATOM     11  C   UNL     1      40.000  33.422  46.404  0.00  0.00    +0.000 A 
ATOM     12  C   UNL     1      40.562  32.623  45.386  0.00  0.00    +0.000 A 
ATOM     13  C   UNL     1      40.245  31.259  45.403  0.00  0.00    +0.000 A 
ATOM     14  N   UNL     1      39.424  30.783  46.384  0.00  0.00    +0.000 NA
ATOM     15  C   UNL     1      38.918  31.593  47.328  0.00  0.00    +0.000 A 
ATOM     16  N   UNL     1      39.206  32.890  47.331  0.00  0.00    +0.000 NA
ATOM     17  H   UNL     1      40.216  34.478  46.432  0.00  0.00    +0.000 HD
ATOM     18  H   UNL     1      41.205  33.029  44.628  0.00  0.00    +0.000 HD
ATOM     19  H   UNL     1      40.640  30.583  44.654  0.00  0.00    +0.000 HD
ENDBRANCH   3  15
BRANCH   7  20
ATOM     20  S   UNL     1      34.342  29.365  48.484  0.00  0.00    +0.000 S 
BRANCH  20  23
ATOM     21 CL   UNL     1      35.095  28.424  45.572  0.00  0.00    +0.000 Cl
ATOM     22  C   UNL     1      34.797  27.276  46.858  0.00  0.00    +0.000 A 
ATOM     23  C   UNL     1      34.459  27.597  48.174  0.00  0.00    +0.000 A 
ATOM     24  C   UNL     1      34.250  26.599  49.094  0.00  0.00    +0.000 A 
ATOM     25  H   UNL     1      33.995  26.952  50.079  0.00  0.00    +0.000 HD
ATOM     26  C   UNL     1      34.371  25.287  48.728  0.00  0.00    +0.000 A 
ATOM     27  H   UNL     1      34.197  24.517  49.487  0.00  0.00    +0.000 HD
ATOM     28  C   UNL     1      34.705  24.904  47.434  0.00  0.00    +0.000 A 
ATOM     29  C   UNL     1      34.908  25.925  46.535  0.00  0.00    +0.000 A 
ENDBRANCH  20  23
ENDBRANCH   7  20
TORSDOF 3
