
 OpenBabel03272505083D

 29 31  0  0  0  0  0  0  0  0999 V2000
   36.4650   30.9320   45.2940 Cl  0  0  0  0  0  0  0  0  0  0  0  0
   36.6510   30.6790   47.0090 C   0  0  0  0  0  0  0  0  0  0  0  0
   37.8820   30.9630   47.5610 C   0  0  0  0  0  0  0  0  0  0  0  0
   38.0380   30.7650   48.9250 C   0  0  0  0  0  0  0  0  0  0  0  0
   36.9910   30.3050   49.6750 C   0  0  0  0  0  0  0  0  0  0  0  0
   35.7770   30.0400   49.0510 C   0  0  0  0  0  0  0  0  0  0  0  0
   35.5510   30.2110   47.7120 C   0  0  0  0  0  0  0  0  0  0  0  0
   38.9920   30.9790   49.3890 H   0  0  0  0  0  0  0  0  0  0  0  0
   37.0680   30.1360   50.7450 H   0  0  0  0  0  0  0  0  0  0  0  0
   34.9640   29.6750   49.6740 H   0  0  0  0  0  0  0  0  0  0  0  0
   40.1890   33.2920   45.9680 C   0  0  0  0  0  0  0  0  0  0  0  0
   41.0110   32.4730   45.1650 C   0  0  0  0  0  0  0  0  0  0  0  0
   40.7500   31.0980   45.1860 C   0  0  0  0  0  0  0  0  0  0  0  0
   39.7340   30.6290   45.9670 N   0  0  0  0  0  0  0  0  0  0  0  0
   38.9840   31.4580   46.7120 C   0  0  0  0  0  0  0  0  0  0  0  0
   39.2140   32.7660   46.7070 N   0  0  0  0  0  0  0  0  0  0  0  0
   40.3530   34.3570   45.9850 H   0  0  0  0  0  0  0  0  0  0  0  0
   41.8030   32.8740   44.5610 H   0  0  0  0  0  0  0  0  0  0  0  0
   41.3400   30.4070   44.5950 H   0  0  0  0  0  0  0  0  0  0  0  0
   34.0100   29.8900   46.9060 S   0  0  0  0  0  0  0  0  0  0  0  0
   33.3810   27.3330   48.6380 Cl  0  0  0  0  0  0  0  0  0  0  0  0
   33.7270   27.2190   46.9260 C   0  0  0  0  0  0  0  0  0  0  0  0
   34.0150   28.2920   46.0810 C   0  0  0  0  0  0  0  0  0  0  0  0
   34.2720   28.0700   44.7490 C   0  0  0  0  0  0  0  0  0  0  0  0
   34.4830   28.9640   44.1850 H   0  0  0  0  0  0  0  0  0  0  0  0
   34.2450   26.8000   44.2430 C   0  0  0  0  0  0  0  0  0  0  0  0
   34.4540   26.6600   43.1790 H   0  0  0  0  0  0  0  0  0  0  0  0
   33.9640   25.6920   45.0350 C   0  0  0  0  0  3  0  0  0  0  0  0
   33.7120   25.9450   46.3640 C   0  0  0  0  0  3  0  0  0  0  0  0
  1  2  1  0  0  0  0
  2  3  2  0  0  0  0
  2  7  1  0  0  0  0
  3  4  1  0  0  0  0
  4  8  1  0  0  0  0
  4  5  2  0  0  0  0
  5  9  1  0  0  0  0
  6 10  1  0  0  0  0
  6  5  1  0  0  0  0
  7  6  2  0  0  0  0
 11 17  1  0  0  0  0
 11 16  1  0  0  0  0
 12 13  1  0  0  0  0
 12 11  2  0  0  0  0
 13 14  2  0  0  0  0
 14 15  1  0  0  0  0
 15  3  1  0  0  0  0
 16 15  2  0  0  0  0
 18 12  1  0  0  0  0
 19 13  1  0  0  0  0
 20  7  1  0  0  0  0
 22 21  1  0  0  0  0
 23 20  1  0  0  0  0
 23 22  2  0  0  0  0
 24 23  1  0  0  0  0
 25 24  1  0  0  0  0
 26 24  2  0  0  0  0
 26 28  1  0  0  0  0
 27 26  1  0  0  0  0
 28 29  2  0  0  0  0
 29 22  1  0  0  0  0
M  END
>  <minimizedAffinity>
-5.46008396

>  <minimizedRMSD>
1.80503607

$$$$
