
 OpenBabel03272505093D

 29 31  0  0  0  0  0  0  0  0999 V2000
   38.5590   21.5450   33.6410 Cl  0  0  0  0  0  0  0  0  0  0  0  0
   37.5340   22.7390   32.8900 C   0  0  0  0  0  0  0  0  0  0  0  0
   36.4770   22.2810   32.1340 C   0  0  0  0  0  0  0  0  0  0  0  0
   35.6570   23.2250   31.5340 C   0  0  0  0  0  0  0  0  0  0  0  0
   35.9090   24.5590   31.7040 C   0  0  0  0  0  0  0  0  0  0  0  0
   36.9930   24.9490   32.4820 C   0  0  0  0  0  0  0  0  0  0  0  0
   37.8440   24.0750   33.1020 C   0  0  0  0  0  0  0  0  0  0  0  0
   34.8180   22.8980   30.9340 H   0  0  0  0  0  0  0  0  0  0  0  0
   35.2930   25.3320   31.2540 H   0  0  0  0  0  0  0  0  0  0  0  0
   37.1680   26.0160   32.5970 H   0  0  0  0  0  0  0  0  0  0  0  0
   36.5690   18.9420   30.6770 C   0  0  0  0  0  0  0  0  0  0  0  0
   35.8630   18.1400   31.5990 C   0  0  0  0  0  0  0  0  0  0  0  0
   35.3540   18.7800   32.7360 C   0  0  0  0  0  0  0  0  0  0  0  0
   35.5630   20.1200   32.8900 N   0  0  0  0  0  0  0  0  0  0  0  0
   36.2440   20.8320   31.9780 C   0  0  0  0  0  0  0  0  0  0  0  0
   36.7360   20.2450   30.8920 N   0  0  0  0  0  0  0  0  0  0  0  0
   36.9790   18.4930   29.7870 H   0  0  0  0  0  0  0  0  0  0  0  0
   35.7150   17.0870   31.4470 H   0  0  0  0  0  0  0  0  0  0  0  0
   34.8020   18.2290   33.4880 H   0  0  0  0  0  0  0  0  0  0  0  0
   39.2200   24.5550   34.1040 S   0  0  0  0  0  0  0  0  0  0  0  0
   41.2840   22.6510   35.5360 Cl  0  0  0  0  0  0  0  0  0  0  0  0
   39.9070   23.3160   36.3860 C   0  0  0  0  0  0  0  0  0  0  0  0
   38.9430   24.1650   35.8380 C   0  0  0  0  0  0  0  0  0  0  0  0
   37.9060   24.6200   36.6140 C   0  0  0  0  0  0  0  0  0  0  0  0
   37.2180   25.2680   36.0960 H   0  0  0  0  0  0  0  0  0  0  0  0
   37.8090   24.2460   37.9260 C   0  0  0  0  0  0  0  0  0  0  0  0
   36.9700   24.6280   38.5160 H   0  0  0  0  0  0  0  0  0  0  0  0
   38.7370   23.4040   38.5280 C   0  0  0  0  0  3  0  0  0  0  0  0
   39.7650   22.9640   37.7270 C   0  0  0  0  0  3  0  0  0  0  0  0
  2  7  1  0  0  0  0
  2  1  1  0  0  0  0
  3  2  2  0  0  0  0
  4  5  2  0  0  0  0
  4  3  1  0  0  0  0
  5  6  1  0  0  0  0
  6 10  1  0  0  0  0
  6  7  2  0  0  0  0
  7 20  1  0  0  0  0
  8  4  1  0  0  0  0
  9  5  1  0  0  0  0
 11 16  2  0  0  0  0
 11 12  1  0  0  0  0
 12 13  2  0  0  0  0
 13 14  1  0  0  0  0
 13 19  1  0  0  0  0
 15  3  1  0  0  0  0
 15 14  2  0  0  0  0
 16 15  1  0  0  0  0
 17 11  1  0  0  0  0
 18 12  1  0  0  0  0
 20 23  1  0  0  0  0
 21 22  1  0  0  0  0
 22 29  1  0  0  0  0
 23 22  2  0  0  0  0
 23 24  1  0  0  0  0
 24 26  2  0  0  0  0
 25 24  1  0  0  0  0
 26 27  1  0  0  0  0
 26 28  1  0  0  0  0
 29 28  2  0  0  0  0
M  END
>  <minimizedAffinity>
-5.65934706

$$$$

 OpenBabel03272505093D

 29 31  0  0  0  0  0  0  0  0999 V2000
   38.6400   26.8550   33.1660 Cl  0  0  0  0  0  0  0  0  0  0  0  0
   37.6080   25.5770   32.5800 C   0  0  0  0  0  0  0  0  0  0  0  0
   36.5160   25.9420   31.8210 C   0  0  0  0  0  0  0  0  0  0  0  0
   35.6910   24.9320   31.3510 C   0  0  0  0  0  0  0  0  0  0  0  0
   35.9730   23.6260   31.6420 C   0  0  0  0  0  0  0  0  0  0  0  0
   37.0920   23.3300   32.4130 C   0  0  0  0  0  0  0  0  0  0  0  0
   37.9490   24.2740   32.9100 C   0  0  0  0  0  0  0  0  0  0  0  0
   34.8260   25.1860   30.7530 H   0  0  0  0  0  0  0  0  0  0  0  0
   35.3550   22.8030   31.2950 H   0  0  0  0  0  0  0  0  0  0  0  0
   37.2890   22.2830   32.6270 H   0  0  0  0  0  0  0  0  0  0  0  0
   36.6280   29.1640   30.1200 C   0  0  0  0  0  0  0  0  0  0  0  0
   35.8190   30.0050   30.9140 C   0  0  0  0  0  0  0  0  0  0  0  0
   35.2330   29.4330   32.0500 C   0  0  0  0  0  0  0  0  0  0  0  0
   35.4710   28.1180   32.3260 N   0  0  0  0  0  0  0  0  0  0  0  0
   36.2510   27.3660   31.5330 C   0  0  0  0  0  0  0  0  0  0  0  0
   36.8170   27.8880   30.4500 N   0  0  0  0  0  0  0  0  0  0  0  0
   37.1000   29.5590   29.2350 H   0  0  0  0  0  0  0  0  0  0  0  0
   35.6520   31.0370   30.6680 H   0  0  0  0  0  0  0  0  0  0  0  0
   34.5990   30.0170   32.7060 H   0  0  0  0  0  0  0  0  0  0  0  0
   39.3830   23.9130   33.8810 S   0  0  0  0  0  0  0  0  0  0  0  0
   41.2320   22.1460   35.7220 Cl  0  0  0  0  0  0  0  0  0  0  0  0
   39.8620   23.0210   36.3690 C   0  0  0  0  0  0  0  0  0  0  0  0
   38.9900   23.8260   35.6340 C   0  0  0  0  0  0  0  0  0  0  0  0
   37.9470   24.4630   36.2610 C   0  0  0  0  0  0  0  0  0  0  0  0
   37.3330   25.0590   35.6050 H   0  0  0  0  0  0  0  0  0  0  0  0
   37.7560   24.3130   37.6070 C   0  0  0  0  0  0  0  0  0  0  0  0
   36.9160   24.8350   38.0750 H   0  0  0  0  0  0  0  0  0  0  0  0
   38.5900   23.5250   38.3920 C   0  0  0  0  0  3  0  0  0  0  0  0
   39.6260   22.9000   37.7370 C   0  0  0  0  0  3  0  0  0  0  0  0
  2  7  1  0  0  0  0
  2  1  1  0  0  0  0
  3  2  2  0  0  0  0
  4  5  2  0  0  0  0
  4  3  1  0  0  0  0
  5  6  1  0  0  0  0
  6 10  1  0  0  0  0
  6  7  2  0  0  0  0
  7 20  1  0  0  0  0
  8  4  1  0  0  0  0
  9  5  1  0  0  0  0
 11 16  2  0  0  0  0
 11 12  1  0  0  0  0
 12 13  2  0  0  0  0
 13 14  1  0  0  0  0
 13 19  1  0  0  0  0
 15  3  1  0  0  0  0
 15 14  2  0  0  0  0
 16 15  1  0  0  0  0
 17 11  1  0  0  0  0
 18 12  1  0  0  0  0
 20 23  1  0  0  0  0
 21 22  1  0  0  0  0
 22 29  1  0  0  0  0
 23 24  1  0  0  0  0
 23 22  2  0  0  0  0
 24 26  2  0  0  0  0
 25 24  1  0  0  0  0
 26 27  1  0  0  0  0
 26 28  1  0  0  0  0
 29 28  2  0  0  0  0
M  END
>  <minimizedAffinity>
-5.60167265

$$$$

 OpenBabel03272505093D

 29 31  0  0  0  0  0  0  0  0999 V2000
   39.1910   24.2090   33.5520 Cl  0  0  0  0  0  0  0  0  0  0  0  0
   37.9350   23.0060   33.4160 C   0  0  0  0  0  0  0  0  0  0  0  0
   37.6380   22.2720   34.5440 C   0  0  0  0  0  0  0  0  0  0  0  0
   36.6400   21.3150   34.4450 C   0  0  0  0  0  0  0  0  0  0  0  0
   35.9870   21.1250   33.2580 C   0  0  0  0  0  0  0  0  0  0  0  0
   36.3390   21.9030   32.1610 C   0  0  0  0  0  0  0  0  0  0  0  0
   37.3120   22.8650   32.1850 C   0  0  0  0  0  0  0  0  0  0  0  0
   36.3830   20.7210   35.3130 H   0  0  0  0  0  0  0  0  0  0  0  0
   35.2000   20.3870   33.1360 H   0  0  0  0  0  0  0  0  0  0  0  0
   35.8020   21.7280   31.2320 H   0  0  0  0  0  0  0  0  0  0  0  0
   38.3490   23.4840   37.9070 C   0  0  0  0  0  0  0  0  0  0  0  0
   39.6490   23.0090   38.1810 C   0  0  0  0  0  0  0  0  0  0  0  0
   40.2750   22.2590   37.1770 C   0  0  0  0  0  0  0  0  0  0  0  0
   39.6080   22.0320   36.0080 N   0  0  0  0  0  0  0  0  0  0  0  0
   38.3700   22.5110   35.8040 C   0  0  0  0  0  0  0  0  0  0  0  0
   37.7580   23.2240   36.7430 N   0  0  0  0  0  0  0  0  0  0  0  0
   37.8280   24.0660   38.6500 H   0  0  0  0  0  0  0  0  0  0  0  0
   40.1470   23.2060   39.1120 H   0  0  0  0  0  0  0  0  0  0  0  0
   41.2730   21.8610   37.3150 H   0  0  0  0  0  0  0  0  0  0  0  0
   37.7630   23.8700   30.8020 S   0  0  0  0  0  0  0  0  0  0  0  0
   34.7830   24.8890   30.9250 Cl  0  0  0  0  0  0  0  0  0  0  0  0
   36.1340   25.9740   31.1700 C   0  0  0  0  0  0  0  0  0  0  0  0
   37.4830   25.6160   31.1340 C   0  0  0  0  0  0  0  0  0  0  0  0
   38.4530   26.5650   31.3430 C   0  0  0  0  0  0  0  0  0  0  0  0
   39.4610   26.1860   31.2950 H   0  0  0  0  0  0  0  0  0  0  0  0
   38.1050   27.8660   31.5870 C   0  0  0  0  0  0  0  0  0  0  0  0
   38.9040   28.5960   31.7500 H   0  0  0  0  0  0  0  0  0  0  0  0
   36.7810   28.2830   31.6350 C   0  0  0  0  0  3  0  0  0  0  0  0
   35.8310   27.3110   31.4220 C   0  0  0  0  0  3  0  0  0  0  0  0
  2  1  1  0  0  0  0
  2  3  1  0  0  0  0
  3 15  1  0  0  0  0
  4  3  2  0  0  0  0
  4  8  1  0  0  0  0
  5  4  1  0  0  0  0
  6  7  1  0  0  0  0
  6  5  2  0  0  0  0
  7  2  2  0  0  0  0
  9  5  1  0  0  0  0
 10  6  1  0  0  0  0
 11 12  1  0  0  0  0
 11 17  1  0  0  0  0
 12 18  1  0  0  0  0
 13 19  1  0  0  0  0
 13 12  2  0  0  0  0
 14 13  1  0  0  0  0
 15 14  2  0  0  0  0
 15 16  1  0  0  0  0
 16 11  2  0  0  0  0
 20 23  1  0  0  0  0
 20  7  1  0  0  0  0
 21 22  1  0  0  0  0
 22 29  1  0  0  0  0
 23 22  2  0  0  0  0
 23 24  1  0  0  0  0
 24 26  2  0  0  0  0
 25 24  1  0  0  0  0
 26 28  1  0  0  0  0
 26 27  1  0  0  0  0
 29 28  2  0  0  0  0
M  END
>  <minimizedAffinity>
-5.36449766

$$$$

 OpenBabel03272505093D

 29 31  0  0  0  0  0  0  0  0999 V2000
   37.7750   24.4460   32.6040 Cl  0  0  0  0  0  0  0  0  0  0  0  0
   37.9820   25.4670   34.0020 C   0  0  0  0  0  0  0  0  0  0  0  0
   37.9590   26.8300   33.8000 C   0  0  0  0  0  0  0  0  0  0  0  0
   38.1220   27.6480   34.9070 C   0  0  0  0  0  0  0  0  0  0  0  0
   38.2980   27.0990   36.1460 C   0  0  0  0  0  0  0  0  0  0  0  0
   38.3100   25.7140   36.2770 C   0  0  0  0  0  0  0  0  0  0  0  0
   38.1550   24.8460   35.2300 C   0  0  0  0  0  0  0  0  0  0  0  0
   38.1090   28.7240   34.7810 H   0  0  0  0  0  0  0  0  0  0  0  0
   38.4290   27.7010   37.0400 H   0  0  0  0  0  0  0  0  0  0  0  0
   38.4520   25.3070   37.2750 H   0  0  0  0  0  0  0  0  0  0  0  0
   36.2730   28.1970   30.8720 C   0  0  0  0  0  0  0  0  0  0  0  0
   37.3100   28.4070   29.9390 C   0  0  0  0  0  0  0  0  0  0  0  0
   38.6060   28.0660   30.3440 C   0  0  0  0  0  0  0  0  0  0  0  0
   38.7950   27.5570   31.5970 N   0  0  0  0  0  0  0  0  0  0  0  0
   37.7670   27.3790   32.4430 C   0  0  0  0  0  0  0  0  0  0  0  0
   36.5300   27.6960   32.0790 N   0  0  0  0  0  0  0  0  0  0  0  0
   35.2580   28.4450   30.6040 H   0  0  0  0  0  0  0  0  0  0  0  0
   37.1280   28.8090   28.9600 H   0  0  0  0  0  0  0  0  0  0  0  0
   39.4540   28.2000   29.6820 H   0  0  0  0  0  0  0  0  0  0  0  0
   38.1560   23.0840   35.3810 S   0  0  0  0  0  0  0  0  0  0  0  0
   39.1490   23.0260   38.3720 Cl  0  0  0  0  0  0  0  0  0  0  0  0
   40.1590   22.4620   37.0600 C   0  0  0  0  0  0  0  0  0  0  0  0
   39.8070   22.4490   35.7090 C   0  0  0  0  0  0  0  0  0  0  0  0
   40.6940   21.9800   34.7710 C   0  0  0  0  0  0  0  0  0  0  0  0
   40.3260   22.0130   33.7580 H   0  0  0  0  0  0  0  0  0  0  0  0
   41.9260   21.5230   35.1530 C   0  0  0  0  0  0  0  0  0  0  0  0
   42.6070   21.1560   34.3800 H   0  0  0  0  0  0  0  0  0  0  0  0
   42.3330   21.5110   36.4820 C   0  0  0  0  0  3  0  0  0  0  0  0
   41.4250   21.9870   37.3980 C   0  0  0  0  0  3  0  0  0  0  0  0
  1  2  1  0  0  0  0
  2  7  1  0  0  0  0
  3  2  2  0  0  0  0
  3  4  1  0  0  0  0
  4  5  2  0  0  0  0
  5  6  1  0  0  0  0
  5  9  1  0  0  0  0
  6 10  1  0  0  0  0
  7 20  1  0  0  0  0
  7  6  2  0  0  0  0
  8  4  1  0  0  0  0
 11 16  1  0  0  0  0
 12 13  1  0  0  0  0
 12 11  2  0  0  0  0
 13 14  2  0  0  0  0
 14 15  1  0  0  0  0
 15  3  1  0  0  0  0
 16 15  2  0  0  0  0
 17 11  1  0  0  0  0
 18 12  1  0  0  0  0
 19 13  1  0  0  0  0
 20 23  1  0  0  0  0
 22 29  1  0  0  0  0
 22 21  1  0  0  0  0
 23 22  2  0  0  0  0
 24 26  2  0  0  0  0
 24 23  1  0  0  0  0
 25 24  1  0  0  0  0
 26 28  1  0  0  0  0
 27 26  1  0  0  0  0
 28 29  2  0  0  0  0
M  END
>  <minimizedAffinity>
-5.30734968

$$$$

 OpenBabel03272505093D

 29 31  0  0  0  0  0  0  0  0999 V2000
   35.8860   27.4290   31.4940 Cl  0  0  0  0  0  0  0  0  0  0  0  0
   36.6580   27.3520   33.0560 C   0  0  0  0  0  0  0  0  0  0  0  0
   37.4640   26.2620   33.3110 C   0  0  0  0  0  0  0  0  0  0  0  0
   38.0820   26.1940   34.5500 C   0  0  0  0  0  0  0  0  0  0  0  0
   37.8850   27.1860   35.4700 C   0  0  0  0  0  0  0  0  0  0  0  0
   37.0590   28.2570   35.1450 C   0  0  0  0  0  0  0  0  0  0  0  0
   36.4180   28.3900   33.9430 C   0  0  0  0  0  0  0  0  0  0  0  0
   38.7210   25.3510   34.7810 H   0  0  0  0  0  0  0  0  0  0  0  0
   38.3490   27.1740   36.4520 H   0  0  0  0  0  0  0  0  0  0  0  0
   36.9220   29.0300   35.8970 H   0  0  0  0  0  0  0  0  0  0  0  0
   38.9060   24.4440   30.5000 C   0  0  0  0  0  0  0  0  0  0  0  0
   38.0700   23.3180   30.3490 C   0  0  0  0  0  0  0  0  0  0  0  0
   36.9970   23.2000   31.2410 C   0  0  0  0  0  0  0  0  0  0  0  0
   36.8180   24.1630   32.1910 N   0  0  0  0  0  0  0  0  0  0  0  0
   37.6470   25.2140   32.2870 C   0  0  0  0  0  0  0  0  0  0  0  0
   38.6720   25.3460   31.4520 N   0  0  0  0  0  0  0  0  0  0  0  0
   39.7450   24.5780   29.8370 H   0  0  0  0  0  0  0  0  0  0  0  0
   38.2390   22.5770   29.5890 H   0  0  0  0  0  0  0  0  0  0  0  0
   36.3130   22.3610   31.1860 H   0  0  0  0  0  0  0  0  0  0  0  0
   35.3740   29.7510   33.5090 S   0  0  0  0  0  0  0  0  0  0  0  0
   32.3810   29.2550   34.3630 Cl  0  0  0  0  0  0  0  0  0  0  0  0
   33.4280   30.3250   35.2690 C   0  0  0  0  0  0  0  0  0  0  0  0
   34.7620   30.6060   34.9690 C   0  0  0  0  0  0  0  0  0  0  0  0
   35.4790   31.4680   35.7620 C   0  0  0  0  0  0  0  0  0  0  0  0
   36.4980   31.6170   35.4440 H   0  0  0  0  0  0  0  0  0  0  0  0
   34.8930   32.0560   36.8490 C   0  0  0  0  0  0  0  0  0  0  0  0
   35.4940   32.7370   37.4590 H   0  0  0  0  0  0  0  0  0  0  0  0
   33.5690   31.8160   37.1990 C   0  0  0  0  0  3  0  0  0  0  0  0
   32.8760   30.9490   36.3860 C   0  0  0  0  0  3  0  0  0  0  0  0
  1  2  1  0  0  0  0
  2  3  2  0  0  0  0
  2  7  1  0  0  0  0
  3  4  1  0  0  0  0
  4  8  1  0  0  0  0
  4  5  2  0  0  0  0
  5  9  1  0  0  0  0
  6  5  1  0  0  0  0
  6 10  1  0  0  0  0
  7  6  2  0  0  0  0
 11 16  1  0  0  0  0
 12 11  2  0  0  0  0
 12 13  1  0  0  0  0
 13 14  2  0  0  0  0
 14 15  1  0  0  0  0
 15  3  1  0  0  0  0
 16 15  2  0  0  0  0
 17 11  1  0  0  0  0
 18 12  1  0  0  0  0
 19 13  1  0  0  0  0
 20  7  1  0  0  0  0
 20 23  1  0  0  0  0
 21 22  1  0  0  0  0
 22 29  1  0  0  0  0
 23 22  2  0  0  0  0
 23 24  1  0  0  0  0
 24 26  2  0  0  0  0
 25 24  1  0  0  0  0
 26 28  1  0  0  0  0
 26 27  1  0  0  0  0
 29 28  2  0  0  0  0
M  END
>  <minimizedAffinity>
-5.23803234

$$$$

 OpenBabel03272505093D

 29 31  0  0  0  0  0  0  0  0999 V2000
   38.9000   25.1320   31.4770 Cl  0  0  0  0  0  0  0  0  0  0  0  0
   38.0780   26.1580   32.6230 C   0  0  0  0  0  0  0  0  0  0  0  0
   37.7920   27.4470   32.2270 C   0  0  0  0  0  0  0  0  0  0  0  0
   37.1380   28.2690   33.1320 C   0  0  0  0  0  0  0  0  0  0  0  0
   36.7980   27.7930   34.3690 C   0  0  0  0  0  0  0  0  0  0  0  0
   37.1170   26.4810   34.7000 C   0  0  0  0  0  0  0  0  0  0  0  0
   37.7610   25.6150   33.8590 C   0  0  0  0  0  0  0  0  0  0  0  0
   36.8990   29.2870   32.8520 H   0  0  0  0  0  0  0  0  0  0  0  0
   36.2850   28.4010   35.1080 H   0  0  0  0  0  0  0  0  0  0  0  0
   36.8340   26.1320   35.6900 H   0  0  0  0  0  0  0  0  0  0  0  0
   37.4680   28.6680   28.8080 C   0  0  0  0  0  0  0  0  0  0  0  0
   38.7990   28.8020   28.3590 C   0  0  0  0  0  0  0  0  0  0  0  0
   39.8110   28.4610   29.2640 C   0  0  0  0  0  0  0  0  0  0  0  0
   39.4650   28.0250   30.5100 N   0  0  0  0  0  0  0  0  0  0  0  0
   38.1790   27.9180   30.8820 C   0  0  0  0  0  0  0  0  0  0  0  0
   37.2030   28.2360   30.0400 N   0  0  0  0  0  0  0  0  0  0  0  0
   36.6550   28.9190   28.1460 H   0  0  0  0  0  0  0  0  0  0  0  0
   39.0380   29.1480   27.3710 H   0  0  0  0  0  0  0  0  0  0  0  0
   40.8570   28.5390   28.9910 H   0  0  0  0  0  0  0  0  0  0  0  0
   38.1640   23.9400   34.2610 S   0  0  0  0  0  0  0  0  0  0  0  0
   40.7720   22.4370   35.1950 Cl  0  0  0  0  0  0  0  0  0  0  0  0
   39.6070   23.0530   36.3460 C   0  0  0  0  0  0  0  0  0  0  0  0
   38.4280   23.7290   36.0280 C   0  0  0  0  0  0  0  0  0  0  0  0
   37.5930   24.1650   37.0280 C   0  0  0  0  0  0  0  0  0  0  0  0
   36.7110   24.6750   36.6770 H   0  0  0  0  0  0  0  0  0  0  0  0
   37.9110   23.9400   38.3390 C   0  0  0  0  0  0  0  0  0  0  0  0
   37.2240   24.3010   39.1110 H   0  0  0  0  0  0  0  0  0  0  0  0
   39.0710   23.2730   38.7180 C   0  0  0  0  0  3  0  0  0  0  0  0
   39.8870   22.8490   37.6950 C   0  0  0  0  0  3  0  0  0  0  0  0
  1  2  1  0  0  0  0
  2  7  1  0  0  0  0
  3  2  2  0  0  0  0
  3  4  1  0  0  0  0
  4  5  2  0  0  0  0
  5  6  1  0  0  0  0
  5  9  1  0  0  0  0
  6 10  1  0  0  0  0
  7 20  1  0  0  0  0
  7  6  2  0  0  0  0
  8  4  1  0  0  0  0
 11 16  1  0  0  0  0
 12 11  2  0  0  0  0
 12 13  1  0  0  0  0
 13 14  2  0  0  0  0
 14 15  1  0  0  0  0
 15  3  1  0  0  0  0
 16 15  2  0  0  0  0
 17 11  1  0  0  0  0
 18 12  1  0  0  0  0
 19 13  1  0  0  0  0
 20 23  1  0  0  0  0
 21 22  1  0  0  0  0
 22 29  1  0  0  0  0
 23 22  2  0  0  0  0
 23 24  1  0  0  0  0
 24 26  2  0  0  0  0
 25 24  1  0  0  0  0
 26 28  1  0  0  0  0
 26 27  1  0  0  0  0
 29 28  2  0  0  0  0
M  END
>  <minimizedAffinity>
-5.22013235

$$$$

 OpenBabel03272505093D

 29 31  0  0  0  0  0  0  0  0999 V2000
   37.2570   24.8370   32.5620 Cl  0  0  0  0  0  0  0  0  0  0  0  0
   37.6970   25.6380   34.0470 C   0  0  0  0  0  0  0  0  0  0  0  0
   37.5900   27.0120   34.0810 C   0  0  0  0  0  0  0  0  0  0  0  0
   37.9370   27.6560   35.2590 C   0  0  0  0  0  0  0  0  0  0  0  0
   38.3670   26.9310   36.3360 C   0  0  0  0  0  0  0  0  0  0  0  0
   38.4490   25.5470   36.2310 C   0  0  0  0  0  0  0  0  0  0  0  0
   38.1240   24.8450   35.1020 C   0  0  0  0  0  0  0  0  0  0  0  0
   37.8650   28.7340   35.3180 H   0  0  0  0  0  0  0  0  0  0  0  0
   38.6480   27.3930   37.2780 H   0  0  0  0  0  0  0  0  0  0  0  0
   38.7940   24.9990   37.1040 H   0  0  0  0  0  0  0  0  0  0  0  0
   37.6380   28.5680   30.7860 C   0  0  0  0  0  0  0  0  0  0  0  0
   36.3460   29.1180   30.6420 C   0  0  0  0  0  0  0  0  0  0  0  0
   35.4570   28.9370   31.7090 C   0  0  0  0  0  0  0  0  0  0  0  0
   35.8790   28.2530   32.8120 N   0  0  0  0  0  0  0  0  0  0  0  0
   37.1230   27.7530   32.8930 C   0  0  0  0  0  0  0  0  0  0  0  0
   37.9820   27.9120   31.8920 N   0  0  0  0  0  0  0  0  0  0  0  0
   38.3560   28.6820   29.9910 H   0  0  0  0  0  0  0  0  0  0  0  0
   36.0450   29.6510   29.7600 H   0  0  0  0  0  0  0  0  0  0  0  0
   34.4480   29.3300   31.6700 H   0  0  0  0  0  0  0  0  0  0  0  0
   38.2120   23.0840   34.9560 S   0  0  0  0  0  0  0  0  0  0  0  0
   40.5150   22.2630   32.9680 Cl  0  0  0  0  0  0  0  0  0  0  0  0
   40.6990   22.1020   34.7010 C   0  0  0  0  0  0  0  0  0  0  0  0
   39.7380   22.4380   35.6560 C   0  0  0  0  0  0  0  0  0  0  0  0
   40.0040   22.2640   36.9920 C   0  0  0  0  0  0  0  0  0  0  0  0
   39.1980   22.5530   37.6460 H   0  0  0  0  0  0  0  0  0  0  0  0
   41.2110   21.7600   37.3950 C   0  0  0  0  0  0  0  0  0  0  0  0
   41.3910   21.6350   38.4670 H   0  0  0  0  0  0  0  0  0  0  0  0
   42.2070   21.4080   36.4920 C   0  0  0  0  0  3  0  0  0  0  0  0
   41.9120   21.5930   35.1610 C   0  0  0  0  0  3  0  0  0  0  0  0
  1  2  1  0  0  0  0
  2  3  2  0  0  0  0
  2  7  1  0  0  0  0
  3  4  1  0  0  0  0
  4  8  1  0  0  0  0
  4  5  2  0  0  0  0
  5  9  1  0  0  0  0
  6  5  1  0  0  0  0
  6 10  1  0  0  0  0
  7  6  2  0  0  0  0
 11 16  1  0  0  0  0
 12 11  2  0  0  0  0
 12 13  1  0  0  0  0
 13 14  2  0  0  0  0
 14 15  1  0  0  0  0
 15  3  1  0  0  0  0
 16 15  2  0  0  0  0
 17 11  1  0  0  0  0
 18 12  1  0  0  0  0
 19 13  1  0  0  0  0
 20  7  1  0  0  0  0
 20 23  1  0  0  0  0
 21 22  1  0  0  0  0
 22 29  2  0  0  0  0
 22 23  1  0  0  0  0
 23 24  2  0  0  0  0
 24 26  1  0  0  0  0
 24 25  1  0  0  0  0
 26 27  1  0  0  0  0
 28 26  2  0  0  0  0
 29 28  1  0  0  0  0
M  END
>  <minimizedAffinity>
-5.21315193

$$$$

 OpenBabel03272505093D

 29 31  0  0  0  0  0  0  0  0999 V2000
   35.9250   27.8260   31.3340 Cl  0  0  0  0  0  0  0  0  0  0  0  0
   36.6240   27.6800   32.9250 C   0  0  0  0  0  0  0  0  0  0  0  0
   37.5250   26.6570   33.1290 C   0  0  0  0  0  0  0  0  0  0  0  0
   38.0860   26.5350   34.3910 C   0  0  0  0  0  0  0  0  0  0  0  0
   37.7420   27.4120   35.3820 C   0  0  0  0  0  0  0  0  0  0  0  0
   36.8260   28.4210   35.1050 C   0  0  0  0  0  0  0  0  0  0  0  0
   36.2340   28.6020   33.8850 C   0  0  0  0  0  0  0  0  0  0  0  0
   38.7970   25.7410   34.5840 H   0  0  0  0  0  0  0  0  0  0  0  0
   38.1560   27.3540   36.3840 H   0  0  0  0  0  0  0  0  0  0  0  0
   36.5730   29.1030   35.9130 H   0  0  0  0  0  0  0  0  0  0  0  0
   37.3450   23.7740   30.9070 C   0  0  0  0  0  0  0  0  0  0  0  0
   38.4210   23.9550   30.0130 C   0  0  0  0  0  0  0  0  0  0  0  0
   39.2100   25.0970   30.1940 C   0  0  0  0  0  0  0  0  0  0  0  0
   38.9040   25.9590   31.2080 N   0  0  0  0  0  0  0  0  0  0  0  0
   37.8660   25.7330   32.0290 C   0  0  0  0  0  0  0  0  0  0  0  0
   37.1040   24.6560   31.8750 N   0  0  0  0  0  0  0  0  0  0  0  0
   36.7080   22.9090   30.8060 H   0  0  0  0  0  0  0  0  0  0  0  0
   38.6350   23.2580   29.2250 H   0  0  0  0  0  0  0  0  0  0  0  0
   40.0530   25.3040   29.5460 H   0  0  0  0  0  0  0  0  0  0  0  0
   35.0770   29.8870   33.5130 S   0  0  0  0  0  0  0  0  0  0  0  0
   36.2310   32.1150   35.4200 Cl  0  0  0  0  0  0  0  0  0  0  0  0
   34.6980   31.3370   35.7420 C   0  0  0  0  0  0  0  0  0  0  0  0
   34.1080   30.3440   34.9580 C   0  0  0  0  0  0  0  0  0  0  0  0
   32.8960   29.8090   35.3200 C   0  0  0  0  0  0  0  0  0  0  0  0
   32.5280   29.0510   34.6490 H   0  0  0  0  0  0  0  0  0  0  0  0
   32.2590   30.2460   36.4500 C   0  0  0  0  0  0  0  0  0  0  0  0
   31.2940   29.7990   36.7090 H   0  0  0  0  0  0  0  0  0  0  0  0
   32.7950   31.2310   37.2710 C   0  0  0  0  0  3  0  0  0  0  0  0
   34.0100   31.7470   36.8830 C   0  0  0  0  0  3  0  0  0  0  0  0
  1  2  1  0  0  0  0
  2  3  2  0  0  0  0
  2  7  1  0  0  0  0
  3  4  1  0  0  0  0
  4  8  1  0  0  0  0
  4  5  2  0  0  0  0
  5  9  1  0  0  0  0
  6  5  1  0  0  0  0
  6 10  1  0  0  0  0
  7  6  2  0  0  0  0
 11 16  1  0  0  0  0
 12 13  1  0  0  0  0
 12 11  2  0  0  0  0
 13 14  2  0  0  0  0
 14 15  1  0  0  0  0
 15  3  1  0  0  0  0
 16 15  2  0  0  0  0
 17 11  1  0  0  0  0
 18 12  1  0  0  0  0
 19 13  1  0  0  0  0
 20  7  1  0  0  0  0
 20 23  1  0  0  0  0
 21 22  1  0  0  0  0
 22 29  1  0  0  0  0
 23 24  1  0  0  0  0
 23 22  2  0  0  0  0
 24 26  2  0  0  0  0
 25 24  1  0  0  0  0
 26 27  1  0  0  0  0
 26 28  1  0  0  0  0
 29 28  2  0  0  0  0
M  END
>  <minimizedAffinity>
-5.16063499

$$$$

 OpenBabel03272505093D

 29 31  0  0  0  0  0  0  0  0999 V2000
   36.6530   28.0360   34.8460 Cl  0  0  0  0  0  0  0  0  0  0  0  0
   36.3700   28.7240   33.2680 C   0  0  0  0  0  0  0  0  0  0  0  0
   35.6090   29.8720   33.2050 C   0  0  0  0  0  0  0  0  0  0  0  0
   35.3810   30.4250   31.9540 C   0  0  0  0  0  0  0  0  0  0  0  0
   35.9030   29.8340   30.8370 C   0  0  0  0  0  0  0  0  0  0  0  0
   36.6620   28.6770   30.9760 C   0  0  0  0  0  0  0  0  0  0  0  0
   36.9280   28.0760   32.1760 C   0  0  0  0  0  0  0  0  0  0  0  0
   34.7870   31.3260   31.8710 H   0  0  0  0  0  0  0  0  0  0  0  0
   35.7500   30.2330   29.8390 H   0  0  0  0  0  0  0  0  0  0  0  0
   37.0640   28.2310   30.0690 H   0  0  0  0  0  0  0  0  0  0  0  0
   33.2410   30.6930   35.8500 C   0  0  0  0  0  0  0  0  0  0  0  0
   33.9620   31.5470   36.7110 C   0  0  0  0  0  0  0  0  0  0  0  0
   35.2870   31.8330   36.3570 C   0  0  0  0  0  0  0  0  0  0  0  0
   35.8000   31.2820   35.2190 N   0  0  0  0  0  0  0  0  0  0  0  0
   35.0650   30.4740   34.4380 C   0  0  0  0  0  0  0  0  0  0  0  0
   33.8060   30.1900   34.7550 N   0  0  0  0  0  0  0  0  0  0  0  0
   32.2180   30.4440   36.0820 H   0  0  0  0  0  0  0  0  0  0  0  0
   33.5280   31.9650   37.6000 H   0  0  0  0  0  0  0  0  0  0  0  0
   35.9030   32.4810   36.9690 H   0  0  0  0  0  0  0  0  0  0  0  0
   37.9010   26.6120   32.3700 S   0  0  0  0  0  0  0  0  0  0  0  0
   38.9410   23.8800   33.5500 Cl  0  0  0  0  0  0  0  0  0  0  0  0
   37.4750   23.9690   32.5980 C   0  0  0  0  0  0  0  0  0  0  0  0
   36.9390   25.1290   32.0370 C   0  0  0  0  0  0  0  0  0  0  0  0
   35.7770   25.0670   31.3070 C   0  0  0  0  0  0  0  0  0  0  0  0
   35.4470   26.0170   30.9180 H   0  0  0  0  0  0  0  0  0  0  0  0
   35.1390   23.8700   31.1260 C   0  0  0  0  0  0  0  0  0  0  0  0
   34.2140   23.8570   30.5400 H   0  0  0  0  0  0  0  0  0  0  0  0
   35.6230   22.6820   31.6610 C   0  0  0  0  0  3  0  0  0  0  0  0
   36.7890   22.7760   32.3860 C   0  0  0  0  0  3  0  0  0  0  0  0
  2  1  1  0  0  0  0
  3  2  1  0  0  0  0
  3 15  1  0  0  0  0
  4  3  2  0  0  0  0
  5  6  2  0  0  0  0
  5  4  1  0  0  0  0
  6  7  1  0  0  0  0
  7 20  1  0  0  0  0
  7  2  2  0  0  0  0
  8  4  1  0  0  0  0
  9  5  1  0  0  0  0
 10  6  1  0  0  0  0
 11 17  1  0  0  0  0
 11 12  1  0  0  0  0
 12 18  1  0  0  0  0
 13 12  2  0  0  0  0
 13 19  1  0  0  0  0
 14 13  1  0  0  0  0
 15 16  1  0  0  0  0
 15 14  2  0  0  0  0
 16 11  2  0  0  0  0
 22 21  1  0  0  0  0
 23 20  1  0  0  0  0
 23 22  2  0  0  0  0
 24 23  1  0  0  0  0
 25 24  1  0  0  0  0
 26 24  2  0  0  0  0
 26 28  1  0  0  0  0
 27 26  1  0  0  0  0
 28 29  2  0  0  0  0
 29 22  1  0  0  0  0
M  END
>  <minimizedAffinity>
-5.14441919

$$$$
