
 OpenBabel03272505083D

 29 31  0  0  0  0  0  0  0  0999 V2000
   36.3930   30.9020   45.6940 Cl  0  0  0  0  0  0  0  0  0  0  0  0
   36.6800   30.7550   47.4080 C   0  0  0  0  0  0  0  0  0  0  0  0
   37.9380   31.0810   47.8690 C   0  0  0  0  0  0  0  0  0  0  0  0
   38.1740   30.9680   49.2300 C   0  0  0  0  0  0  0  0  0  0  0  0
   37.1770   30.5480   50.0670 C   0  0  0  0  0  0  0  0  0  0  0  0
   35.9320   30.2370   49.5320 C   0  0  0  0  0  0  0  0  0  0  0  0
   35.6270   30.3240   48.2010 C   0  0  0  0  0  0  0  0  0  0  0  0
   39.1520   31.2160   49.6240 H   0  0  0  0  0  0  0  0  0  0  0  0
   37.3180   30.4450   51.1390 H   0  0  0  0  0  0  0  0  0  0  0  0
   35.1600   29.9050   50.2230 H   0  0  0  0  0  0  0  0  0  0  0  0
   40.2010   33.3120   46.0840 C   0  0  0  0  0  0  0  0  0  0  0  0
   40.9140   32.4610   45.2130 C   0  0  0  0  0  0  0  0  0  0  0  0
   40.5950   31.0980   45.2560 C   0  0  0  0  0  0  0  0  0  0  0  0
   39.6300   30.6720   46.1220 N   0  0  0  0  0  0  0  0  0  0  0  0
   38.9840   31.5300   46.9280 C   0  0  0  0  0  0  0  0  0  0  0  0
   39.2710   32.8270   46.9040 N   0  0  0  0  0  0  0  0  0  0  0  0
   40.4130   34.3690   46.0860 H   0  0  0  0  0  0  0  0  0  0  0  0
   41.6680   32.8290   44.5430 H   0  0  0  0  0  0  0  0  0  0  0  0
   41.1010   30.3840   44.6170 H   0  0  0  0  0  0  0  0  0  0  0  0
   34.0450   29.9450   47.5070 S   0  0  0  0  0  0  0  0  0  0  0  0
   33.7480   29.1740   44.4660 Cl  0  0  0  0  0  0  0  0  0  0  0  0
   33.7800   27.9560   45.7210 C   0  0  0  0  0  0  0  0  0  0  0  0
   33.9080   28.2000   47.0900 C   0  0  0  0  0  0  0  0  0  0  0  0
   33.9200   27.1530   47.9780 C   0  0  0  0  0  0  0  0  0  0  0  0
   34.0220   27.4490   49.0090 H   0  0  0  0  0  0  0  0  0  0  0  0
   33.8060   25.8660   47.5290 C   0  0  0  0  0  0  0  0  0  0  0  0
   33.8200   25.0550   48.2640 H   0  0  0  0  0  0  0  0  0  0  0  0
   33.6770   25.5590   46.1790 C   0  0  0  0  0  0  0  0  0  0  0  0
   33.6680   26.6280   45.3140 C   0  0  0  0  0  0  0  0  0  0  0  0
  1  2  1  0  0  0  0
  2  3  2  0  0  0  0
  2  7  1  0  0  0  0
  3  4  1  0  0  0  0
  4  8  1  0  0  0  0
  4  5  2  0  0  0  0
  5  9  1  0  0  0  0
  6  5  1  0  0  0  0
  6 10  1  0  0  0  0
  7  6  2  0  0  0  0
 11 17  1  0  0  0  0
 11 16  1  0  0  0  0
 12 13  1  0  0  0  0
 12 11  2  0  0  0  0
 13 14  2  0  0  0  0
 14 15  1  0  0  0  0
 15  3  1  0  0  0  0
 16 15  2  0  0  0  0
 18 12  1  0  0  0  0
 19 13  1  0  0  0  0
 20  7  1  0  0  0  0
 21 22  1  0  0  0  0
 22 23  1  0  0  0  0
 23 20  1  0  0  0  0
 23 24  2  0  0  0  0
 24 25  1  0  0  0  0
 26 24  1  0  0  0  0
 26 27  1  0  0  0  0
 28 26  2  0  0  0  0
 29 22  2  0  0  0  0
 29 28  1  0  0  0  0
M  END
>  <minimizedAffinity>
-5.77040148

>  <minimizedRMSD>
1.18430901

$$$$
