
 OpenBabel03272505083D

 29 31  0  0  0  0  0  0  0  0999 V2000
   35.5710   30.5000   46.5190 Cl  0  0  0  0  0  0  0  0  0  0  0  0
   36.0520   30.0340   48.1290 C   0  0  0  0  0  0  0  0  0  0  0  0
   37.3480   30.3110   48.5080 C   0  0  0  0  0  0  0  0  0  0  0  0
   37.7380   29.9440   49.7870 C   0  0  0  0  0  0  0  0  0  0  0  0
   36.8490   29.3310   50.6250 C   0  0  0  0  0  0  0  0  0  0  0  0
   35.5560   29.0830   50.1770 C   0  0  0  0  0  0  0  0  0  0  0  0
   35.1020   29.4170   48.9300 C   0  0  0  0  0  0  0  0  0  0  0  0
   38.7500   30.1470   50.1140 H   0  0  0  0  0  0  0  0  0  0  0  0
   37.1110   29.0270   51.6350 H   0  0  0  0  0  0  0  0  0  0  0  0
   34.8730   28.5940   50.8670 H   0  0  0  0  0  0  0  0  0  0  0  0
   39.4410   32.9010   47.0270 C   0  0  0  0  0  0  0  0  0  0  0  0
   39.9900   32.2920   45.8790 C   0  0  0  0  0  0  0  0  0  0  0  0
   39.6200   30.9640   45.6280 C   0  0  0  0  0  0  0  0  0  0  0  0
   38.7650   30.3420   46.4900 N   0  0  0  0  0  0  0  0  0  0  0  0
   38.2740   30.9740   47.5680 C   0  0  0  0  0  0  0  0  0  0  0  0
   38.6120   32.2330   47.8250 N   0  0  0  0  0  0  0  0  0  0  0  0
   39.6970   33.9220   47.2610 H   0  0  0  0  0  0  0  0  0  0  0  0
   40.6610   32.8100   45.2200 H   0  0  0  0  0  0  0  0  0  0  0  0
   40.0020   30.4310   44.7650 H   0  0  0  0  0  0  0  0  0  0  0  0
   33.4580   29.1190   48.3480 S   0  0  0  0  0  0  0  0  0  0  0  0
   30.7200   27.7520   49.0990 Cl  0  0  0  0  0  0  0  0  0  0  0  0
   31.9820   26.8770   48.2600 C   0  0  0  0  0  0  0  0  0  0  0  0
   33.2220   27.3970   47.8870 C   0  0  0  0  0  0  0  0  0  0  0  0
   34.1310   26.6040   47.2280 C   0  0  0  0  0  0  0  0  0  0  0  0
   35.0560   27.1000   46.9860 H   0  0  0  0  0  0  0  0  0  0  0  0
   33.8270   25.3030   46.9350 C   0  0  0  0  0  0  0  0  0  0  0  0
   34.5740   24.7000   46.4100 H   0  0  0  0  0  0  0  0  0  0  0  0
   32.6090   24.7300   47.2800 C   0  0  0  0  0  3  0  0  0  0  0  0
   31.7190   25.5470   47.9380 C   0  0  0  0  0  3  0  0  0  0  0  0
  1  2  1  0  0  0  0
  2  3  2  0  0  0  0
  2  7  1  0  0  0  0
  3  4  1  0  0  0  0
  4  8  1  0  0  0  0
  4  5  2  0  0  0  0
  5  9  1  0  0  0  0
  6  5  1  0  0  0  0
  6 10  1  0  0  0  0
  7  6  2  0  0  0  0
 11 17  1  0  0  0  0
 11 16  1  0  0  0  0
 12 11  2  0  0  0  0
 13 12  1  0  0  0  0
 13 14  2  0  0  0  0
 14 15  1  0  0  0  0
 15 16  2  0  0  0  0
 15  3  1  0  0  0  0
 18 12  1  0  0  0  0
 19 13  1  0  0  0  0
 20  7  1  0  0  0  0
 22 21  1  0  0  0  0
 23 22  2  0  0  0  0
 23 20  1  0  0  0  0
 24 23  1  0  0  0  0
 25 24  1  0  0  0  0
 26 24  2  0  0  0  0
 26 28  1  0  0  0  0
 27 26  1  0  0  0  0
 28 29  2  0  0  0  0
 29 22  1  0  0  0  0
M  END
>  <minimizedAffinity>
-5.5872426

>  <minimizedRMSD>
1.21767759

$$$$
