
     RDKit          3D

 31 33  0  0  0  0  0  0  0  0999 V2000
   36.3679   30.4743   46.3906 Cl  0  0  0  0  0  0  0  0  0  0  0  0
   36.8046   30.5403   48.0783 C   0  0  0  0  0  0  0  0  0  0  0  0
   38.0290   31.0895   48.3944 C   0  0  0  0  0  0  0  0  0  0  0  0
   38.3832   31.1472   49.7325 C   0  0  0  0  0  0  0  0  0  0  0  0
   37.5299   30.6689   50.6893 C   0  0  0  0  0  0  0  0  0  0  0  0
   36.3102   30.1278   50.2981 C   0  0  0  0  0  0  0  0  0  0  0  0
   35.8948   30.0387   48.9972 C   0  0  0  0  0  0  0  0  0  0  0  0
   39.9996   33.4222   46.4045 C   0  0  0  0  0  0  0  0  0  0  0  0
   40.5622   32.6229   45.3862 C   0  0  0  0  0  0  0  0  0  0  0  0
   40.2451   31.2587   45.4028 C   0  0  0  0  0  0  0  0  0  0  0  0
   39.4241   30.7829   46.3844 N   0  0  0  0  0  0  0  0  0  0  0  0
   38.9180   31.5931   47.3283 C   0  0  0  0  0  0  0  0  0  0  0  0
   39.2060   32.8900   47.3311 N   0  0  0  0  0  0  0  0  0  0  0  0
   34.3423   29.3646   48.4841 S   0  0  0  0  0  0  0  0  0  0  0  0
   39.3377   31.5726   50.0137 H   0  0  0  0  0  0  0  0  0  0  0  0
   37.7659   30.6937   51.7490 H   0  0  0  0  0  0  0  0  0  0  0  0
   35.6544   29.7559   51.0815 H   0  0  0  0  0  0  0  0  0  0  0  0
   40.2159   34.4779   46.4316 H   0  0  0  0  0  0  0  0  0  0  0  0
   41.2053   33.0287   44.6277 H   0  0  0  0  0  0  0  0  0  0  0  0
   40.6396   30.5828   44.6535 H   0  0  0  0  0  0  0  0  0  0  0  0
   34.5029   27.4365   50.9716 Cl  0  0  0  0  0  0  0  0  0  0  0  0
   34.5257   26.8230   49.3332 C   0  0  0  0  0  0  0  0  0  0  0  0
   34.4593   27.5974   48.1736 C   0  0  0  0  0  0  0  0  0  0  0  0
   34.4862   26.9930   46.9396 C   0  0  0  0  0  0  0  0  0  0  0  0
   34.4298   27.6785   46.1104 H   0  0  0  0  0  0  0  0  0  0  0  0
   34.5780   25.6320   46.8398 C   0  0  0  0  0  0  0  0  0  0  0  0
   34.5969   25.1836   45.8416 H   0  0  0  0  0  0  0  0  0  0  0  0
   34.6472   24.8086   47.9575 C   0  0  0  0  0  0  0  0  0  0  0  0
   34.6182   25.4417   49.1789 C   0  0  0  0  0  0  0  0  0  0  0  0
   34.7186   23.7506   47.8857 H   0  0  0  0  0  0  0  0  0  0  0  0
   34.6728   24.7903   50.0535 H   0  0  0  0  0  0  0  0  0  0  0  0
  1  2  1  0
  2  3  2  0
  2  7  1  0
  3  4  1  0
  4  5  2  0
  6  5  1  0
  7  6  2  0
  8 13  2  0
  9 10  2  0
  9  8  1  0
 10 11  1  0
 11 12  2  0
 12  3  1  0
 13 12  1  0
 14  7  1  0
  4 15  1  0
  5 16  1  0
  6 17  1  0
  8 18  1  0
  9 19  1  0
 10 20  1  0
 21 22  1  0
 22 23  2  0
 23 24  1  0
 24 25  1  0
 24 26  2  0
 26 27  1  0
 26 28  1  0
 28 29  2  0
 29 22  1  0
 28 30  1  0
 29 31  1  0
 14 23  1  0
M  ISO  8  15  14  16  14  17  14  18  14  19  14  20  14  25  15  27  16
M  END
>  <DihAtoms>  (1) 
6,13,22,21

>  <DihDeg>  (1) 
89.99723936692172

$$$$
