
 OpenBabel03272500243D

 31 33  0  0  0  0  0  0  0  0999 V2000
   37.9150   24.1780   32.5080 C   0  0  0  0  0  0  0  0  0  0  0  0
   38.9130   25.1380   32.5640 C   0  0  0  0  0  0  0  0  0  0  0  0
   39.3180   25.2560   33.8670 C   0  0  0  0  0  0  0  0  0  0  0  0
   38.5800   24.3910   34.5670 N   0  0  0  0  0  0  0  0  0  0  0  0
   37.7640   23.7630   33.7700 N   0  0  0  0  0  0  0  0  0  0  0  0
   39.3380   25.7220   31.7540 H   0  0  0  0  0  0  0  0  0  0  0  0
   40.0730   25.9110   34.2510 H   0  0  0  0  0  0  0  0  0  0  0  0
   40.6530   22.4150   35.1630 Cl  0  0  0  0  0  0  0  0  0  0  0  0
   39.5720   23.1860   36.3110 C   0  0  0  0  0  0  0  0  0  0  0  0
   38.6040   24.1200   35.9660 C   0  0  0  0  0  0  0  0  0  0  0  0
   37.8160   24.6540   36.9640 C   0  0  0  0  0  0  0  0  0  0  0  0
   37.0930   25.3710   36.6020 H   0  0  0  0  0  0  0  0  0  0  0  0
   38.0030   24.2530   38.2700 C   0  0  0  0  0  0  0  0  0  0  0  0
   37.3500   24.7150   38.9850 H   0  0  0  0  0  0  0  0  0  0  0  0
   38.9670   23.3220   38.6120 C   0  0  0  0  0  3  0  0  0  0  0  0
   39.7510   22.7910   37.6210 C   0  0  0  0  0  3  0  0  0  0  0  0
   37.2660   23.8300   31.2260 C   0  0  0  0  0  0  0  0  0  0  0  0
   37.0720   24.7550   30.6150 H   0  0  0  0  0  0  0  0  0  0  0  0
   38.0260   23.3050   30.6330 H   0  0  0  0  0  0  0  0  0  0  0  0
   35.9510   23.1710   31.4060 C   0  0  0  0  0  0  0  0  0  0  0  0
   35.5430   23.5340   32.3990 H   0  0  0  0  0  0  0  0  0  0  0  0
   35.1700   23.5520   30.6810 H   0  0  0  0  0  0  0  0  0  0  0  0
   35.8910   21.7370   31.4260 C   0  0  0  0  0  0  0  0  0  0  0  0
   34.9370   21.0800   32.1520 C   0  0  0  0  0  0  0  0  0  0  0  0
   34.8870   19.6670   32.1700 C   0  0  0  0  0  0  0  0  0  0  0  0
   35.8590   19.0320   31.4130 N   0  0  0  0  0  0  0  0  0  0  0  0
   36.7820   19.7240   30.7110 C   0  0  0  0  0  0  0  0  0  0  0  0
   36.7940   21.0770   30.7220 N   0  0  0  0  0  0  0  0  0  0  0  0
   34.1400   21.4590   32.7670 H   0  0  0  0  0  0  0  0  0  0  0  0
   34.1900   19.0580   32.6980 H   0  0  0  0  0  0  0  0  0  0  0  0
   37.5090   19.1540   30.1420 H   0  0  0  0  0  0  0  0  0  0  0  0
  1  2  1  0  0  0  0
  1  5  2  0  0  0  0
  2  3  2  0  0  0  0
  3  7  1  0  0  0  0
  3  4  1  0  0  0  0
  4 10  1  0  0  0  0
  5  4  1  0  0  0  0
  6  2  1  0  0  0  0
  8  9  1  0  0  0  0
  9 16  1  0  0  0  0
 10  9  2  0  0  0  0
 10 11  1  0  0  0  0
 11 13  2  0  0  0  0
 12 11  1  0  0  0  0
 13 15  1  0  0  0  0
 13 14  1  0  0  0  0
 16 15  2  0  0  0  0
 17 20  1  0  0  0  0
 17  1  1  0  0  0  0
 18 17  1  0  0  0  0
 19 17  1  0  0  0  0
 20 23  1  0  0  0  0
 20 21  1  0  0  0  0
 22 20  1  0  0  0  0
 23 24  1  0  0  0  0
 24 25  2  0  0  0  0
 24 29  1  0  0  0  0
 25 30  1  0  0  0  0
 26 25  1  0  0  0  0
 27 28  1  0  0  0  0
 27 26  2  0  0  0  0
 28 23  2  0  0  0  0
 31 27  1  0  0  0  0
M  END
>  <minimizedAffinity>
-5.15569973

$$$$

 OpenBabel03272500243D

 31 33  0  0  0  0  0  0  0  0999 V2000
   36.4880   28.2280   33.1560 C   0  0  0  0  0  0  0  0  0  0  0  0
   36.2460   29.1880   32.1860 C   0  0  0  0  0  0  0  0  0  0  0  0
   35.6580   30.2660   32.7930 C   0  0  0  0  0  0  0  0  0  0  0  0
   35.5520   29.9560   34.0870 N   0  0  0  0  0  0  0  0  0  0  0  0
   36.0390   28.7650   34.2950 N   0  0  0  0  0  0  0  0  0  0  0  0
   36.4620   29.1480   31.1240 H   0  0  0  0  0  0  0  0  0  0  0  0
   35.3430   31.1770   32.3250 H   0  0  0  0  0  0  0  0  0  0  0  0
   32.6980   29.3860   34.3830 Cl  0  0  0  0  0  0  0  0  0  0  0  0
   33.6550   30.5030   35.3430 C   0  0  0  0  0  0  0  0  0  0  0  0
   35.0110   30.7310   35.1530 C   0  0  0  0  0  0  0  0  0  0  0  0
   35.6490   31.6360   35.9750 C   0  0  0  0  0  0  0  0  0  0  0  0
   36.7010   31.7480   35.7540 H   0  0  0  0  0  0  0  0  0  0  0  0
   34.9350   32.2880   36.9580 C   0  0  0  0  0  0  0  0  0  0  0  0
   35.5040   32.9740   37.5540 H   0  0  0  0  0  0  0  0  0  0  0  0
   33.5840   32.0590   37.1450 C   0  0  0  0  0  3  0  0  0  0  0  0
   32.9480   31.1600   36.3290 C   0  0  0  0  0  3  0  0  0  0  0  0
   37.1130   26.9340   32.8060 C   0  0  0  0  0  0  0  0  0  0  0  0
   36.3800   26.0900   32.9340 H   0  0  0  0  0  0  0  0  0  0  0  0
   37.2660   26.9550   31.7180 H   0  0  0  0  0  0  0  0  0  0  0  0
   38.2760   26.6050   33.6620 C   0  0  0  0  0  0  0  0  0  0  0  0
   39.1380   26.3840   32.9600 H   0  0  0  0  0  0  0  0  0  0  0  0
   38.6650   27.5010   34.2330 H   0  0  0  0  0  0  0  0  0  0  0  0
   38.1790   25.4960   34.5690 C   0  0  0  0  0  0  0  0  0  0  0  0
   38.0230   25.6950   35.9120 C   0  0  0  0  0  0  0  0  0  0  0  0
   37.9330   24.5970   36.8000 C   0  0  0  0  0  0  0  0  0  0  0  0
   38.0140   23.3480   36.2050 N   0  0  0  0  0  0  0  0  0  0  0  0
   38.1680   23.2020   34.8710 C   0  0  0  0  0  0  0  0  0  0  0  0
   38.2500   24.2800   34.0570 N   0  0  0  0  0  0  0  0  0  0  0  0
   37.9460   26.6030   36.4830 H   0  0  0  0  0  0  0  0  0  0  0  0
   37.8120   24.6380   37.8570 H   0  0  0  0  0  0  0  0  0  0  0  0
   38.2220   22.1910   34.4820 H   0  0  0  0  0  0  0  0  0  0  0  0
  1  5  2  0  0  0  0
  2  3  2  0  0  0  0
  2  1  1  0  0  0  0
  3  4  1  0  0  0  0
  4  5  1  0  0  0  0
  4 10  1  0  0  0  0
  6  2  1  0  0  0  0
  7  3  1  0  0  0  0
  8  9  1  0  0  0  0
  9 16  1  0  0  0  0
 10  9  2  0  0  0  0
 10 11  1  0  0  0  0
 11 13  2  0  0  0  0
 12 11  1  0  0  0  0
 13 15  1  0  0  0  0
 13 14  1  0  0  0  0
 16 15  2  0  0  0  0
 17 18  1  0  0  0  0
 17  1  1  0  0  0  0
 17 20  1  0  0  0  0
 19 17  1  0  0  0  0
 20 22  1  0  0  0  0
 20 23  1  0  0  0  0
 21 20  1  0  0  0  0
 23 24  1  0  0  0  0
 24 29  1  0  0  0  0
 24 25  2  0  0  0  0
 25 30  1  0  0  0  0
 26 25  1  0  0  0  0
 27 26  2  0  0  0  0
 28 23  2  0  0  0  0
 28 27  1  0  0  0  0
 31 27  1  0  0  0  0
M  END
>  <minimizedAffinity>
-5.15063429

$$$$

 OpenBabel03272500243D

 31 33  0  0  0  0  0  0  0  0999 V2000
   36.5050   28.2740   33.3340 C   0  0  0  0  0  0  0  0  0  0  0  0
   36.1620   29.1510   32.3180 C   0  0  0  0  0  0  0  0  0  0  0  0
   35.5430   30.2350   32.8830 C   0  0  0  0  0  0  0  0  0  0  0  0
   35.5170   30.0070   34.1980 N   0  0  0  0  0  0  0  0  0  0  0  0
   36.0810   28.8620   34.4570 N   0  0  0  0  0  0  0  0  0  0  0  0
   36.3290   29.0510   31.2510 H   0  0  0  0  0  0  0  0  0  0  0  0
   35.1550   31.0940   32.3740 H   0  0  0  0  0  0  0  0  0  0  0  0
   32.6820   29.3990   34.5860 Cl  0  0  0  0  0  0  0  0  0  0  0  0
   33.6370   30.5780   35.4690 C   0  0  0  0  0  0  0  0  0  0  0  0
   34.9840   30.8220   35.2380 C   0  0  0  0  0  0  0  0  0  0  0  0
   35.6220   31.7780   36.0020 C   0  0  0  0  0  0  0  0  0  0  0  0
   36.6660   31.8980   35.7510 H   0  0  0  0  0  0  0  0  0  0  0  0
   34.9160   32.4630   36.9690 C   0  0  0  0  0  0  0  0  0  0  0  0
   35.4850   33.1870   37.5180 H   0  0  0  0  0  0  0  0  0  0  0  0
   33.5750   32.2170   37.1970 C   0  0  0  0  0  3  0  0  0  0  0  0
   32.9390   31.2690   36.4390 C   0  0  0  0  0  3  0  0  0  0  0  0
   37.1850   26.9950   33.0360 C   0  0  0  0  0  0  0  0  0  0  0  0
   38.2410   27.1760   32.6930 H   0  0  0  0  0  0  0  0  0  0  0  0
   37.3290   26.4940   34.0030 H   0  0  0  0  0  0  0  0  0  0  0  0
   36.5250   26.2290   31.9540 C   0  0  0  0  0  0  0  0  0  0  0  0
   35.4360   26.5450   31.9550 H   0  0  0  0  0  0  0  0  0  0  0  0
   36.8590   26.5540   30.9230 H   0  0  0  0  0  0  0  0  0  0  0  0
   36.5450   24.7940   32.0060 C   0  0  0  0  0  0  0  0  0  0  0  0
   35.6260   24.0500   31.3220 C   0  0  0  0  0  0  0  0  0  0  0  0
   35.6510   22.6360   31.3820 C   0  0  0  0  0  0  0  0  0  0  0  0
   36.6550   22.0970   32.1690 N   0  0  0  0  0  0  0  0  0  0  0  0
   37.5430   22.8740   32.8270 C   0  0  0  0  0  0  0  0  0  0  0  0
   37.4820   24.2230   32.7420 N   0  0  0  0  0  0  0  0  0  0  0  0
   34.8130   24.3510   30.6850 H   0  0  0  0  0  0  0  0  0  0  0  0
   34.9860   21.9640   30.8920 H   0  0  0  0  0  0  0  0  0  0  0  0
   38.3000   22.3750   33.4220 H   0  0  0  0  0  0  0  0  0  0  0  0
  1  5  2  0  0  0  0
  2  3  2  0  0  0  0
  2  1  1  0  0  0  0
  3  4  1  0  0  0  0
  4  5  1  0  0  0  0
  4 10  1  0  0  0  0
  6  2  1  0  0  0  0
  7  3  1  0  0  0  0
  8  9  1  0  0  0  0
  9 16  1  0  0  0  0
 10  9  2  0  0  0  0
 10 11  1  0  0  0  0
 11 13  2  0  0  0  0
 12 11  1  0  0  0  0
 13 15  1  0  0  0  0
 13 14  1  0  0  0  0
 16 15  2  0  0  0  0
 17  1  1  0  0  0  0
 17 19  1  0  0  0  0
 18 17  1  0  0  0  0
 20 21  1  0  0  0  0
 20 23  1  0  0  0  0
 20 17  1  0  0  0  0
 22 20  1  0  0  0  0
 23 28  1  0  0  0  0
 24 25  1  0  0  0  0
 24 23  2  0  0  0  0
 25 26  2  0  0  0  0
 26 27  1  0  0  0  0
 27 31  1  0  0  0  0
 28 27  2  0  0  0  0
 29 24  1  0  0  0  0
 30 25  1  0  0  0  0
M  END
>  <minimizedAffinity>
-5.07310343

$$$$

 OpenBabel03272500243D

 31 33  0  0  0  0  0  0  0  0999 V2000
   37.4060   25.1920   33.0000 C   0  0  0  0  0  0  0  0  0  0  0  0
   36.5830   25.6580   31.9870 C   0  0  0  0  0  0  0  0  0  0  0  0
   35.9860   24.5780   31.3930 C   0  0  0  0  0  0  0  0  0  0  0  0
   36.4410   23.4990   32.0350 N   0  0  0  0  0  0  0  0  0  0  0  0
   37.2690   23.8620   32.9720 N   0  0  0  0  0  0  0  0  0  0  0  0
   36.4050   26.6820   31.6750 H   0  0  0  0  0  0  0  0  0  0  0  0
   35.2920   24.5920   30.5770 H   0  0  0  0  0  0  0  0  0  0  0  0
   38.4600   22.2990   30.2900 Cl  0  0  0  0  0  0  0  0  0  0  0  0
   37.0590   21.5010   30.9860 C   0  0  0  0  0  0  0  0  0  0  0  0
   36.1330   22.1270   31.8090 C   0  0  0  0  0  0  0  0  0  0  0  0
   35.0730   21.3870   32.2920 C   0  0  0  0  0  0  0  0  0  0  0  0
   34.4060   21.9560   32.9230 H   0  0  0  0  0  0  0  0  0  0  0  0
   34.9570   20.0560   31.9500 C   0  0  0  0  0  0  0  0  0  0  0  0
   34.1070   19.5530   32.3670 H   0  0  0  0  0  0  0  0  0  0  0  0
   35.8810   19.4350   31.1300 C   0  0  0  0  0  3  0  0  0  0  0  0
   36.9340   20.1680   30.6490 C   0  0  0  0  0  3  0  0  0  0  0  0
   38.2010   26.1270   33.8240 C   0  0  0  0  0  0  0  0  0  0  0  0
   39.3010   25.9280   33.7030 H   0  0  0  0  0  0  0  0  0  0  0  0
   38.0830   27.1160   33.3610 H   0  0  0  0  0  0  0  0  0  0  0  0
   37.9160   26.0040   35.2730 C   0  0  0  0  0  0  0  0  0  0  0  0
   38.2820   26.9620   35.7540 H   0  0  0  0  0  0  0  0  0  0  0  0
   36.8090   26.0370   35.5040 H   0  0  0  0  0  0  0  0  0  0  0  0
   38.5000   24.9160   36.0050 C   0  0  0  0  0  0  0  0  0  0  0  0
   39.6760   24.3450   35.6040 C   0  0  0  0  0  0  0  0  0  0  0  0
   40.2420   23.2710   36.3290 C   0  0  0  0  0  0  0  0  0  0  0  0
   39.5220   22.8640   37.4410 N   0  0  0  0  0  0  0  0  0  0  0  0
   38.3630   23.4590   37.7990 C   0  0  0  0  0  0  0  0  0  0  0  0
   37.8570   24.4850   37.0760 N   0  0  0  0  0  0  0  0  0  0  0  0
   40.3180   24.5730   34.7730 H   0  0  0  0  0  0  0  0  0  0  0  0
   41.1470   22.7560   36.1070 H   0  0  0  0  0  0  0  0  0  0  0  0
   37.8600   23.0830   38.6830 H   0  0  0  0  0  0  0  0  0  0  0  0
  1 17  1  0  0  0  0
  2  1  1  0  0  0  0
  3  2  2  0  0  0  0
  3  4  1  0  0  0  0
  4  5  1  0  0  0  0
  5  1  2  0  0  0  0
  6  2  1  0  0  0  0
  7  3  1  0  0  0  0
  8  9  1  0  0  0  0
  9 10  1  0  0  0  0
 10  4  1  0  0  0  0
 10 11  2  0  0  0  0
 11 12  1  0  0  0  0
 13 11  1  0  0  0  0
 13 14  1  0  0  0  0
 15 13  2  0  0  0  0
 16  9  2  0  0  0  0
 16 15  1  0  0  0  0
 17 20  1  0  0  0  0
 18 17  1  0  0  0  0
 19 17  1  0  0  0  0
 20 22  1  0  0  0  0
 20 21  1  0  0  0  0
 20 23  1  0  0  0  0
 23 28  1  0  0  0  0
 24 23  2  0  0  0  0
 24 25  1  0  0  0  0
 25 26  2  0  0  0  0
 26 27  1  0  0  0  0
 27 31  1  0  0  0  0
 28 27  2  0  0  0  0
 29 24  1  0  0  0  0
 30 25  1  0  0  0  0
M  END
>  <minimizedAffinity>
-5.00336838

$$$$

 OpenBabel03272500243D

 31 33  0  0  0  0  0  0  0  0999 V2000
   36.3970   28.4650   33.3000 C   0  0  0  0  0  0  0  0  0  0  0  0
   35.8780   29.2740   32.3010 C   0  0  0  0  0  0  0  0  0  0  0  0
   34.9100   30.0670   32.8570 C   0  0  0  0  0  0  0  0  0  0  0  0
   34.8540   29.7380   34.1500 N   0  0  0  0  0  0  0  0  0  0  0  0
   35.7250   28.8030   34.4040 N   0  0  0  0  0  0  0  0  0  0  0  0
   36.1510   29.3160   31.2520 H   0  0  0  0  0  0  0  0  0  0  0  0
   34.3140   30.8030   32.3580 H   0  0  0  0  0  0  0  0  0  0  0  0
   36.2950   31.7800   35.6700 Cl  0  0  0  0  0  0  0  0  0  0  0  0
   34.6440   31.2420   35.9310 C   0  0  0  0  0  0  0  0  0  0  0  0
   34.0130   30.2640   35.1730 C   0  0  0  0  0  0  0  0  0  0  0  0
   32.7110   29.9300   35.4800 C   0  0  0  0  0  0  0  0  0  0  0  0
   32.3030   29.1620   34.8380 H   0  0  0  0  0  0  0  0  0  0  0  0
   32.0690   30.5670   36.5210 C   0  0  0  0  0  0  0  0  0  0  0  0
   31.0590   30.2500   36.6930 H   0  0  0  0  0  0  0  0  0  0  0  0
   32.6990   31.5400   37.2740 C   0  0  0  0  0  3  0  0  0  0  0  0
   33.9930   31.8740   36.9710 C   0  0  0  0  0  3  0  0  0  0  0  0
   37.4640   27.4840   33.0050 C   0  0  0  0  0  0  0  0  0  0  0  0
   37.0230   26.5040   32.6720 H   0  0  0  0  0  0  0  0  0  0  0  0
   37.9650   27.8430   32.0950 H   0  0  0  0  0  0  0  0  0  0  0  0
   38.3080   27.1780   34.1830 C   0  0  0  0  0  0  0  0  0  0  0  0
   39.3830   27.3100   33.8510 H   0  0  0  0  0  0  0  0  0  0  0  0
   38.2200   27.9590   34.9980 H   0  0  0  0  0  0  0  0  0  0  0  0
   38.2120   25.8790   34.7880 C   0  0  0  0  0  0  0  0  0  0  0  0
   38.0760   25.7380   36.1400 C   0  0  0  0  0  0  0  0  0  0  0  0
   37.9870   24.4550   36.7290 C   0  0  0  0  0  0  0  0  0  0  0  0
   38.0480   23.3930   35.8400 N   0  0  0  0  0  0  0  0  0  0  0  0
   38.1830   23.5820   34.5100 C   0  0  0  0  0  0  0  0  0  0  0  0
   38.2650   24.8280   33.9890 N   0  0  0  0  0  0  0  0  0  0  0  0
   38.0140   26.4770   36.9200 H   0  0  0  0  0  0  0  0  0  0  0  0
   37.8800   24.2320   37.7640 H   0  0  0  0  0  0  0  0  0  0  0  0
   38.2220   22.6990   33.8810 H   0  0  0  0  0  0  0  0  0  0  0  0
  1  5  2  0  0  0  0
  2  3  2  0  0  0  0
  2  1  1  0  0  0  0
  3  4  1  0  0  0  0
  4  5  1  0  0  0  0
  4 10  1  0  0  0  0
  6  2  1  0  0  0  0
  7  3  1  0  0  0  0
  8  9  1  0  0  0  0
  9 16  1  0  0  0  0
 10 11  1  0  0  0  0
 10  9  2  0  0  0  0
 11 13  2  0  0  0  0
 12 11  1  0  0  0  0
 13 14  1  0  0  0  0
 13 15  1  0  0  0  0
 16 15  2  0  0  0  0
 17  1  1  0  0  0  0
 17 20  1  0  0  0  0
 18 17  1  0  0  0  0
 19 17  1  0  0  0  0
 20 23  1  0  0  0  0
 20 22  1  0  0  0  0
 21 20  1  0  0  0  0
 23 24  1  0  0  0  0
 24 25  2  0  0  0  0
 24 29  1  0  0  0  0
 25 30  1  0  0  0  0
 26 25  1  0  0  0  0
 27 26  2  0  0  0  0
 28 27  1  0  0  0  0
 28 23  2  0  0  0  0
 31 27  1  0  0  0  0
M  END
>  <minimizedAffinity>
-4.9843545

$$$$

 OpenBabel03272500243D

 31 33  0  0  0  0  0  0  0  0999 V2000
   37.7400   23.9480   32.9130 C   0  0  0  0  0  0  0  0  0  0  0  0
   36.6680   24.3920   32.1570 C   0  0  0  0  0  0  0  0  0  0  0  0
   36.0620   23.2990   31.5960 C   0  0  0  0  0  0  0  0  0  0  0  0
   36.7550   22.2350   32.0070 N   0  0  0  0  0  0  0  0  0  0  0  0
   37.7340   22.6190   32.7760 N   0  0  0  0  0  0  0  0  0  0  0  0
   36.3220   25.4090   32.0010 H   0  0  0  0  0  0  0  0  0  0  0  0
   35.2040   23.2960   30.9550 H   0  0  0  0  0  0  0  0  0  0  0  0
   35.6010   20.8820   34.3300 Cl  0  0  0  0  0  0  0  0  0  0  0  0
   35.9950   20.1610   32.7780 C   0  0  0  0  0  0  0  0  0  0  0  0
   36.5430   20.8580   31.7100 C   0  0  0  0  0  0  0  0  0  0  0  0
   36.8070   20.1740   30.5410 C   0  0  0  0  0  0  0  0  0  0  0  0
   37.2310   20.7970   29.7670 H   0  0  0  0  0  0  0  0  0  0  0  0
   36.5230   18.8270   30.4590 C   0  0  0  0  0  0  0  0  0  0  0  0
   36.7570   18.3710   29.5170 H   0  0  0  0  0  0  0  0  0  0  0  0
   35.9770   18.1350   31.5240 C   0  0  0  0  0  3  0  0  0  0  0  0
   35.7140   18.8120   32.6860 C   0  0  0  0  0  3  0  0  0  0  0  0
   38.6040   24.9030   33.6410 C   0  0  0  0  0  0  0  0  0  0  0  0
   39.6300   24.4700   33.8000 H   0  0  0  0  0  0  0  0  0  0  0  0
   38.7970   25.7300   32.9440 H   0  0  0  0  0  0  0  0  0  0  0  0
   38.0840   25.2410   34.9870 C   0  0  0  0  0  0  0  0  0  0  0  0
   38.3870   26.3140   35.1870 H   0  0  0  0  0  0  0  0  0  0  0  0
   36.9550   25.3100   35.0140 H   0  0  0  0  0  0  0  0  0  0  0  0
   38.5180   24.4640   36.1140 C   0  0  0  0  0  0  0  0  0  0  0  0
   39.5770   23.6050   36.0140 C   0  0  0  0  0  0  0  0  0  0  0  0
   39.9950   22.8410   37.1280 C   0  0  0  0  0  0  0  0  0  0  0  0
   39.2600   23.0350   38.2860 N   0  0  0  0  0  0  0  0  0  0  0  0
   38.2210   23.8960   38.3370 C   0  0  0  0  0  0  0  0  0  0  0  0
   37.8540   24.6080   37.2470 N   0  0  0  0  0  0  0  0  0  0  0  0
   40.2170   23.3750   35.1810 H   0  0  0  0  0  0  0  0  0  0  0  0
   40.8020   22.1460   37.1600 H   0  0  0  0  0  0  0  0  0  0  0  0
   37.6970   23.9920   39.2820 H   0  0  0  0  0  0  0  0  0  0  0  0
  1 17  1  0  0  0  0
  2  1  1  0  0  0  0
  3  4  1  0  0  0  0
  3  2  2  0  0  0  0
  4  5  1  0  0  0  0
  5  1  2  0  0  0  0
  6  2  1  0  0  0  0
  7  3  1  0  0  0  0
  9  8  1  0  0  0  0
 10  4  1  0  0  0  0
 10  9  2  0  0  0  0
 11 10  1  0  0  0  0
 12 11  1  0  0  0  0
 13 11  2  0  0  0  0
 13 15  1  0  0  0  0
 14 13  1  0  0  0  0
 15 16  2  0  0  0  0
 16  9  1  0  0  0  0
 17 18  1  0  0  0  0
 17 20  1  0  0  0  0
 19 17  1  0  0  0  0
 20 22  1  0  0  0  0
 20 21  1  0  0  0  0
 20 23  1  0  0  0  0
 23 28  1  0  0  0  0
 24 23  2  0  0  0  0
 24 25  1  0  0  0  0
 25 30  1  0  0  0  0
 25 26  2  0  0  0  0
 26 27  1  0  0  0  0
 27 31  1  0  0  0  0
 28 27  2  0  0  0  0
 29 24  1  0  0  0  0
M  END
>  <minimizedAffinity>
-4.96454763

$$$$

 OpenBabel03272500243D

 31 33  0  0  0  0  0  0  0  0999 V2000
   37.9250   25.4520   35.9000 C   0  0  0  0  0  0  0  0  0  0  0  0
   38.5030   26.6260   36.3570 C   0  0  0  0  0  0  0  0  0  0  0  0
   38.5050   27.5280   35.3260 C   0  0  0  0  0  0  0  0  0  0  0  0
   37.9450   26.9080   34.2850 N   0  0  0  0  0  0  0  0  0  0  0  0
   37.6080   25.6960   34.6250 N   0  0  0  0  0  0  0  0  0  0  0  0
   38.8980   26.8490   37.3420 H   0  0  0  0  0  0  0  0  0  0  0  0
   38.8800   28.5310   35.3480 H   0  0  0  0  0  0  0  0  0  0  0  0
   35.6420   28.7120   34.3000 Cl  0  0  0  0  0  0  0  0  0  0  0  0
   36.6230   28.2670   32.9130 C   0  0  0  0  0  0  0  0  0  0  0  0
   37.7070   27.4020   32.9700 C   0  0  0  0  0  0  0  0  0  0  0  0
   38.3980   27.1320   31.8060 C   0  0  0  0  0  0  0  0  0  0  0  0
   39.2240   26.4500   31.9480 H   0  0  0  0  0  0  0  0  0  0  0  0
   38.0000   27.7200   30.6240 C   0  0  0  0  0  0  0  0  0  0  0  0
   38.5890   27.4580   29.7670 H   0  0  0  0  0  0  0  0  0  0  0  0
   36.9200   28.5810   30.5700 C   0  0  0  0  0  3  0  0  0  0  0  0
   36.2330   28.8510   31.7250 C   0  0  0  0  0  3  0  0  0  0  0  0
   37.7880   24.2780   36.7870 C   0  0  0  0  0  0  0  0  0  0  0  0
   38.3610   24.4310   37.7430 H   0  0  0  0  0  0  0  0  0  0  0  0
   36.7450   24.2760   37.1300 H   0  0  0  0  0  0  0  0  0  0  0  0
   38.3190   23.0330   36.1830 C   0  0  0  0  0  0  0  0  0  0  0  0
   39.1240   23.3500   35.4510 H   0  0  0  0  0  0  0  0  0  0  0  0
   38.9080   22.4080   36.9200 H   0  0  0  0  0  0  0  0  0  0  0  0
   37.4200   22.1690   35.4710 C   0  0  0  0  0  0  0  0  0  0  0  0
   37.5220   22.0050   34.1180 C   0  0  0  0  0  0  0  0  0  0  0  0
   36.6300   21.1550   33.4240 C   0  0  0  0  0  0  0  0  0  0  0  0
   35.6780   20.5270   34.2120 N   0  0  0  0  0  0  0  0  0  0  0  0
   35.6170   20.7200   35.5470 C   0  0  0  0  0  0  0  0  0  0  0  0
   36.4910   21.5430   36.1720 N   0  0  0  0  0  0  0  0  0  0  0  0
   38.2110   22.4300   33.4100 H   0  0  0  0  0  0  0  0  0  0  0  0
   36.6200   20.9560   32.3770 H   0  0  0  0  0  0  0  0  0  0  0  0
   34.8430   20.1920   36.0940 H   0  0  0  0  0  0  0  0  0  0  0  0
  1  2  1  0  0  0  0
  1 17  1  0  0  0  0
  2  6  1  0  0  0  0
  3  7  1  0  0  0  0
  3  2  2  0  0  0  0
  4  5  1  0  0  0  0
  4  3  1  0  0  0  0
  5  1  2  0  0  0  0
  9 10  1  0  0  0  0
  9  8  1  0  0  0  0
 10  4  1  0  0  0  0
 11 12  1  0  0  0  0
 11 10  2  0  0  0  0
 13 11  1  0  0  0  0
 14 13  1  0  0  0  0
 15 13  2  0  0  0  0
 15 16  1  0  0  0  0
 16  9  2  0  0  0  0
 17 19  1  0  0  0  0
 17 18  1  0  0  0  0
 20 17  1  0  0  0  0
 20 22  1  0  0  0  0
 21 20  1  0  0  0  0
 23 28  1  0  0  0  0
 23 20  1  0  0  0  0
 24 23  2  0  0  0  0
 25 24  1  0  0  0  0
 25 26  2  0  0  0  0
 26 27  1  0  0  0  0
 27 31  1  0  0  0  0
 27 28  2  0  0  0  0
 29 24  1  0  0  0  0
 30 25  1  0  0  0  0
M  END
>  <minimizedAffinity>
-4.91571236

$$$$

 OpenBabel03272500243D

 31 33  0  0  0  0  0  0  0  0999 V2000
   36.3440   28.3040   33.0560 C   0  0  0  0  0  0  0  0  0  0  0  0
   36.1720   29.3210   32.1310 C   0  0  0  0  0  0  0  0  0  0  0  0
   35.6260   30.3970   32.7790 C   0  0  0  0  0  0  0  0  0  0  0  0
   35.4770   30.0300   34.0540 N   0  0  0  0  0  0  0  0  0  0  0  0
   35.8980   28.8070   34.2110 N   0  0  0  0  0  0  0  0  0  0  0  0
   36.4090   29.3230   31.0720 H   0  0  0  0  0  0  0  0  0  0  0  0
   35.3680   31.3450   32.3520 H   0  0  0  0  0  0  0  0  0  0  0  0
   32.6220   29.4720   34.3640 Cl  0  0  0  0  0  0  0  0  0  0  0  0
   33.5970   30.5550   35.3450 C   0  0  0  0  0  0  0  0  0  0  0  0
   34.9530   30.7790   35.1470 C   0  0  0  0  0  0  0  0  0  0  0  0
   35.6060   31.6560   35.9870 C   0  0  0  0  0  0  0  0  0  0  0  0
   36.6560   31.7670   35.7580 H   0  0  0  0  0  0  0  0  0  0  0  0
   34.9070   32.2850   36.9960 C   0  0  0  0  0  0  0  0  0  0  0  0
   35.4880   32.9510   37.6040 H   0  0  0  0  0  0  0  0  0  0  0  0
   33.5560   32.0600   37.1900 C   0  0  0  0  0  3  0  0  0  0  0  0
   32.9050   31.1900   36.3570 C   0  0  0  0  0  3  0  0  0  0  0  0
   36.9100   26.9990   32.6530 C   0  0  0  0  0  0  0  0  0  0  0  0
   37.1180   26.3600   33.5550 H   0  0  0  0  0  0  0  0  0  0  0  0
   36.0960   26.4550   32.1560 H   0  0  0  0  0  0  0  0  0  0  0  0
   38.1970   27.1260   31.9310 C   0  0  0  0  0  0  0  0  0  0  0  0
   38.2340   26.2720   31.1870 H   0  0  0  0  0  0  0  0  0  0  0  0
   38.2270   28.0290   31.2490 H   0  0  0  0  0  0  0  0  0  0  0  0
   39.4210   27.0830   32.6800 C   0  0  0  0  0  0  0  0  0  0  0  0
   39.4280   26.7330   34.0010 C   0  0  0  0  0  0  0  0  0  0  0  0
   40.6380   26.6970   34.7340 C   0  0  0  0  0  0  0  0  0  0  0  0
   41.7730   27.0390   34.0160 N   0  0  0  0  0  0  0  0  0  0  0  0
   41.7170   27.3790   32.7090 C   0  0  0  0  0  0  0  0  0  0  0  0
   40.5370   27.4000   32.0470 N   0  0  0  0  0  0  0  0  0  0  0  0
   38.6240   26.4490   34.6560 H   0  0  0  0  0  0  0  0  0  0  0  0
   40.7570   26.4400   35.7600 H   0  0  0  0  0  0  0  0  0  0  0  0
   42.6500   27.6320   32.2180 H   0  0  0  0  0  0  0  0  0  0  0  0
  1  5  2  0  0  0  0
  2  3  2  0  0  0  0
  2  1  1  0  0  0  0
  3  4  1  0  0  0  0
  4  5  1  0  0  0  0
  4 10  1  0  0  0  0
  6  2  1  0  0  0  0
  7  3  1  0  0  0  0
  8  9  1  0  0  0  0
  9 16  1  0  0  0  0
 10  9  2  0  0  0  0
 10 11  1  0  0  0  0
 11 13  2  0  0  0  0
 12 11  1  0  0  0  0
 13 15  1  0  0  0  0
 13 14  1  0  0  0  0
 16 15  2  0  0  0  0
 17  1  1  0  0  0  0
 17 18  1  0  0  0  0
 19 17  1  0  0  0  0
 20 17  1  0  0  0  0
 20 23  1  0  0  0  0
 21 20  1  0  0  0  0
 22 20  1  0  0  0  0
 23 24  1  0  0  0  0
 24 29  1  0  0  0  0
 24 25  2  0  0  0  0
 25 30  1  0  0  0  0
 26 25  1  0  0  0  0
 27 26  2  0  0  0  0
 28 23  2  0  0  0  0
 28 27  1  0  0  0  0
 31 27  1  0  0  0  0
M  END
>  <minimizedAffinity>
-4.86088753

$$$$

 OpenBabel03272500243D

 31 33  0  0  0  0  0  0  0  0999 V2000
   36.9670   25.1190   31.5840 C   0  0  0  0  0  0  0  0  0  0  0  0
   38.2610   25.4020   31.9920 C   0  0  0  0  0  0  0  0  0  0  0  0
   38.2600   26.6390   32.5810 C   0  0  0  0  0  0  0  0  0  0  0  0
   37.0010   27.0800   32.5240 N   0  0  0  0  0  0  0  0  0  0  0  0
   36.2490   26.1890   31.9420 N   0  0  0  0  0  0  0  0  0  0  0  0
   39.1520   24.7920   31.8900 H   0  0  0  0  0  0  0  0  0  0  0  0
   39.1000   27.1530   33.0020 H   0  0  0  0  0  0  0  0  0  0  0  0
   36.7740   28.9790   30.3100 Cl  0  0  0  0  0  0  0  0  0  0  0  0
   36.3290   29.2560   31.9860 C   0  0  0  0  0  0  0  0  0  0  0  0
   36.4610   28.3110   32.9950 C   0  0  0  0  0  0  0  0  0  0  0  0
   36.0750   28.6530   34.2740 C   0  0  0  0  0  0  0  0  0  0  0  0
   36.2140   27.8570   34.9900 H   0  0  0  0  0  0  0  0  0  0  0  0
   35.5700   29.9130   34.5210 C   0  0  0  0  0  0  0  0  0  0  0  0
   35.2930   30.0980   35.5410 H   0  0  0  0  0  0  0  0  0  0  0  0
   35.4390   30.8520   33.5150 C   0  0  0  0  0  3  0  0  0  0  0  0
   35.8230   30.5140   32.2430 C   0  0  0  0  0  3  0  0  0  0  0  0
   36.6460   23.8480   30.9000 C   0  0  0  0  0  0  0  0  0  0  0  0
   36.2060   24.0430   29.8830 H   0  0  0  0  0  0  0  0  0  0  0  0
   37.6110   23.3810   30.6590 H   0  0  0  0  0  0  0  0  0  0  0  0
   35.6480   23.0350   31.6330 C   0  0  0  0  0  0  0  0  0  0  0  0
   35.7590   23.3020   32.7280 H   0  0  0  0  0  0  0  0  0  0  0  0
   34.5840   23.3560   31.4220 H   0  0  0  0  0  0  0  0  0  0  0  0
   35.7170   21.6030   31.5410 C   0  0  0  0  0  0  0  0  0  0  0  0
   36.7070   20.9880   30.8270 C   0  0  0  0  0  0  0  0  0  0  0  0
   36.7640   19.5780   30.7380 C   0  0  0  0  0  0  0  0  0  0  0  0
   35.7610   18.9020   31.4150 N   0  0  0  0  0  0  0  0  0  0  0  0
   34.8020   19.5540   32.1080 C   0  0  0  0  0  0  0  0  0  0  0  0
   34.7850   20.9060   32.1670 N   0  0  0  0  0  0  0  0  0  0  0  0
   37.5290   21.4000   30.2710 H   0  0  0  0  0  0  0  0  0  0  0  0
   37.4870   18.9990   30.2120 H   0  0  0  0  0  0  0  0  0  0  0  0
   34.0530   18.9530   32.6110 H   0  0  0  0  0  0  0  0  0  0  0  0
  1  5  2  0  0  0  0
  1  2  1  0  0  0  0
  2  3  2  0  0  0  0
  3  7  1  0  0  0  0
  4  3  1  0  0  0  0
  4 10  1  0  0  0  0
  5  4  1  0  0  0  0
  6  2  1  0  0  0  0
  8  9  1  0  0  0  0
  9 16  2  0  0  0  0
  9 10  1  0  0  0  0
 10 11  2  0  0  0  0
 11 13  1  0  0  0  0
 11 12  1  0  0  0  0
 13 14  1  0  0  0  0
 15 13  2  0  0  0  0
 16 15  1  0  0  0  0
 17  1  1  0  0  0  0
 17 20  1  0  0  0  0
 18 17  1  0  0  0  0
 19 17  1  0  0  0  0
 20 21  1  0  0  0  0
 22 20  1  0  0  0  0
 23 20  1  0  0  0  0
 23 28  1  0  0  0  0
 24 23  2  0  0  0  0
 25 24  1  0  0  0  0
 25 26  2  0  0  0  0
 26 27  1  0  0  0  0
 27 28  2  0  0  0  0
 27 31  1  0  0  0  0
 29 24  1  0  0  0  0
 30 25  1  0  0  0  0
M  END
>  <minimizedAffinity>
-4.82583284

$$$$
