
 OpenBabel03272509423D

 38 40  0  0  1  0  0  0  0  0999 V2000
   37.0200   30.9160   49.0640 C   0  0  0  0  0  0  0  0  0  0  0  0
   36.7160   31.7900   50.1090 C   0  0  0  0  0  0  0  0  0  0  0  0
   37.2930   33.0470   50.2040 C   0  0  0  0  0  0  0  0  0  0  0  0
   38.2070   33.4580   49.2290 C   0  0  0  0  0  0  0  0  0  0  0  0
   38.4970   32.5950   48.2110 C   0  0  0  0  0  0  0  0  0  0  0  0
   37.8990   31.3450   48.1510 C   0  0  0  0  0  0  0  0  0  0  0  0
   36.0030   31.4610   50.8630 H   0  0  0  0  0  0  0  0  0  0  0  0
   36.9940   33.6400   51.0420 H   0  0  0  0  0  0  0  0  0  0  0  0
   38.6020   34.4430   49.3820 H   0  0  0  0  0  0  0  0  0  0  0  0
   39.2210   33.0530   47.5370 H   0  0  0  0  0  0  0  0  0  0  0  0
   36.4430   29.5920   48.9810 C   0  0  2  0  0  0  0  0  0  0  0  0
   36.9660   29.0900   48.0800 H   0  0  0  0  0  0  0  0  0  0  0  0
   33.5870   30.0680   46.7820 C   0  0  0  0  0  0  0  0  0  0  0  0
   32.8850   28.8840   46.8850 C   0  0  0  0  0  0  0  0  0  0  0  0
   33.3510   27.9250   47.7640 C   0  0  0  0  0  0  0  0  0  0  0  0
   34.4890   28.1780   48.5000 N   0  0  0  0  0  0  0  0  0  0  0  0
   35.1160   29.3270   48.3540 C   0  0  0  0  0  0  0  0  0  0  0  0
   34.6730   30.2780   47.5010 N   0  0  0  0  0  0  0  0  0  0  0  0
   33.2510   30.8530   46.1010 H   0  0  0  0  0  0  0  0  0  0  0  0
   32.0030   28.7720   46.2700 H   0  0  0  0  0  0  0  0  0  0  0  0
   32.8060   26.9970   47.8510 H   0  0  0  0  0  0  0  0  0  0  0  0
   36.8960   28.7990   49.8840 O   0  0  0  0  0  0  0  0  0  0  0  0
   36.3530   28.0760   50.2770 H   0  0  0  0  0  0  0  0  0  0  0  0
   38.3200   30.5220   47.0400 C   0  0  0  0  0  3  0  0  0  0  0  0
   38.8630   31.0020   45.9170 C   0  0  0  0  0  3  0  0  0  0  0  0
   39.3700   30.2530   44.7440 C   0  0  0  0  0  0  0  0  0  0  0  0
   40.4060   29.8970   44.9960 H   0  0  0  0  0  0  0  0  0  0  0  0
   38.7380   29.3720   44.5030 H   0  0  0  0  0  0  0  0  0  0  0  0
   39.4390   31.3380   43.3140 S   0  0  0  0  0  0  0  0  0  0  0  0
   39.1160   32.4340   40.4460 Cl  0  0  0  0  0  0  0  0  0  0  0  0
   40.1670   31.0600   40.7900 C   0  0  0  0  0  0  0  0  0  0  0  0
   40.3710   30.5050   42.0360 C   0  0  0  0  0  0  0  0  0  0  0  0
   41.2190   29.4290   42.1900 C   0  0  0  0  0  0  0  0  0  0  0  0
   41.3060   29.0710   43.2110 H   0  0  0  0  0  0  0  0  0  0  0  0
   41.8590   28.9160   41.0660 C   0  0  0  0  0  0  0  0  0  0  0  0
   42.5070   28.0810   41.2310 H   0  0  0  0  0  0  0  0  0  0  0  0
   41.6490   29.4780   39.8260 C   0  0  0  0  0  3  0  0  0  0  0  0
   40.8030   30.5580   39.6530 C   0  0  0  0  0  3  0  0  0  0  0  0
  1  2  1  0  0  0  0
  2  3  2  0  0  0  0
  2  7  1  0  0  0  0
  3  8  1  0  0  0  0
  4  9  1  0  0  0  0
  4  3  1  0  0  0  0
  5  4  2  0  0  0  0
  6  5  1  0  0  0  0
  6  1  2  0  0  0  0
 10  5  1  0  0  0  0
 11 12  1  6  0  0  0
 11  1  1  0  0  0  0
 11 22  1  0  0  0  0
 13 14  2  0  0  0  0
 13 18  1  0  0  0  0
 14 15  1  0  0  0  0
 15 21  1  0  0  0  0
 15 16  2  0  0  0  0
 17 16  1  0  0  0  0
 17 11  1  0  0  0  0
 18 17  2  0  0  0  0
 19 13  1  0  0  0  0
 20 14  1  0  0  0  0
 22 23  1  0  0  0  0
 24  6  1  0  0  0  0
 25 24  2  0  0  0  0
 26 27  1  0  0  0  0
 26 25  1  0  0  0  0
 28 26  1  0  0  0  0
 29 26  1  0  0  0  0
 30 31  1  0  0  0  0
 31 32  1  0  0  0  0
 32 33  2  0  0  0  0
 32 29  1  0  0  0  0
 33 34  1  0  0  0  0
 35 36  1  0  0  0  0
 35 33  1  0  0  0  0
 37 35  2  0  0  0  0
 38 37  1  0  0  0  0
 38 31  2  0  0  0  0
M  END
>  <minimizedAffinity>
-5.98540592

>  <minimizedRMSD>
0.620035291

$$$$
