
 OpenBabel03272510113D

 28 30  0  0  0  0  0  0  0  0999 V2000
   36.4010   27.7990   33.0460 C   0  0  0  0  0  0  0  0  0  0  0  0
   36.9380   27.8230   34.2940 C   0  0  0  0  0  0  0  0  0  0  0  0
   37.6020   26.7460   34.8710 C   0  0  0  0  0  0  0  0  0  0  0  0
   37.7540   25.5750   34.1990 C   0  0  0  0  0  0  0  0  0  0  0  0
   37.2020   25.5750   32.9400 C   0  0  0  0  0  0  0  0  0  0  0  0
   36.5660   26.6260   32.4030 N   0  0  0  0  0  0  0  0  0  0  0  0
   36.8550   28.7340   34.8950 H   0  0  0  0  0  0  0  0  0  0  0  0
   38.0090   26.8450   35.8880 H   0  0  0  0  0  0  0  0  0  0  0  0
   37.2330   24.7190   32.2810 H   0  0  0  0  0  0  0  0  0  0  0  0
   34.4470   29.3580   32.8550 C   0  0  0  0  0  0  0  0  0  0  0  0
   35.7110   28.9060   32.4330 C   0  0  0  0  0  0  0  0  0  0  0  0
   36.3050   29.5650   31.3810 C   0  0  0  0  0  0  0  0  0  0  0  0
   35.6630   30.6150   30.7910 N   0  0  0  0  0  0  0  0  0  0  0  0
   34.4460   31.0180   31.2300 C   0  0  0  0  0  0  0  0  0  0  0  0
   33.8290   30.3910   32.2650 N   0  0  0  0  0  0  0  0  0  0  0  0
   33.9880   28.8340   33.6830 H   0  0  0  0  0  0  0  0  0  0  0  0
   37.2640   29.2920   30.9920 H   0  0  0  0  0  0  0  0  0  0  0  0
   34.0010   31.8570   30.7120 H   0  0  0  0  0  0  0  0  0  0  0  0
   38.3960   24.4710   34.7090 O   0  0  0  0  0  0  0  0  0  0  0  0
   40.9660   22.9240   35.1870 Cl  0  0  0  0  0  0  0  0  0  0  0  0
   39.6640   23.3800   36.2970 C   0  0  0  0  0  0  0  0  0  0  0  0
   38.5010   24.1020   36.0090 C   0  0  0  0  0  0  0  0  0  0  0  0
   37.6470   24.3330   37.0670 C   0  0  0  0  0  0  0  0  0  0  0  0
   36.7630   24.9040   36.7590 H   0  0  0  0  0  0  0  0  0  0  0  0
   37.8660   23.9050   38.3470 C   0  0  0  0  0  0  0  0  0  0  0  0
   37.1260   24.1420   39.1120 H   0  0  0  0  0  0  0  0  0  0  0  0
   39.0080   23.1970   38.6230 C   0  0  0  0  0  3  0  0  0  0  0  0
   39.8980   22.9380   37.6040 C   0  0  0  0  0  3  0  0  0  0  0  0
  1  2  1  0  0  0  0
  2  3  2  0  0  0  0
  2  7  1  0  0  0  0
  3  8  1  0  0  0  0
  4 19  1  0  0  0  0
  4  3  1  0  0  0  0
  5  4  2  0  0  0  0
  6  5  1  0  0  0  0
  6  1  2  0  0  0  0
  9  5  1  0  0  0  0
 10 16  1  0  0  0  0
 11 10  1  0  0  0  0
 11  1  1  0  0  0  0
 12 11  2  0  0  0  0
 13 14  2  0  0  0  0
 13 12  1  0  0  0  0
 14 15  1  0  0  0  0
 15 10  2  0  0  0  0
 17 12  1  0  0  0  0
 18 14  1  0  0  0  0
 19 22  1  0  0  0  0
 20 21  1  0  0  0  0
 21 28  1  0  0  0  0
 22 21  2  0  0  0  0
 22 23  1  0  0  0  0
 23 25  2  0  0  0  0
 24 23  1  0  0  0  0
 25 27  1  0  0  0  0
 25 26  1  0  0  0  0
 28 27  2  0  0  0  0
M  END
>  <minimizedAffinity>
-5.34004498

$$$$

 OpenBabel03272510113D

 28 30  0  0  0  0  0  0  0  0999 V2000
   36.3360   22.7610   32.0960 C   0  0  0  0  0  0  0  0  0  0  0  0
   35.6170   23.6880   31.4100 C   0  0  0  0  0  0  0  0  0  0  0  0
   35.9020   25.0490   31.4190 C   0  0  0  0  0  0  0  0  0  0  0  0
   36.9450   25.5420   32.1370 C   0  0  0  0  0  0  0  0  0  0  0  0
   37.6560   24.5850   32.8220 C   0  0  0  0  0  0  0  0  0  0  0  0
   37.3630   23.2770   32.7990 N   0  0  0  0  0  0  0  0  0  0  0  0
   34.7610   23.3650   30.8090 H   0  0  0  0  0  0  0  0  0  0  0  0
   35.2710   25.7370   30.8360 H   0  0  0  0  0  0  0  0  0  0  0  0
   38.5100   24.8160   33.4420 H   0  0  0  0  0  0  0  0  0  0  0  0
   36.1520   20.5390   30.9480 C   0  0  0  0  0  0  0  0  0  0  0  0
   36.0550   21.3480   32.0970 C   0  0  0  0  0  0  0  0  0  0  0  0
   35.6700   20.7420   33.2710 C   0  0  0  0  0  0  0  0  0  0  0  0
   35.4010   19.4050   33.2870 N   0  0  0  0  0  0  0  0  0  0  0  0
   35.5080   18.6630   32.1570 C   0  0  0  0  0  0  0  0  0  0  0  0
   35.8840   19.2260   30.9800 N   0  0  0  0  0  0  0  0  0  0  0  0
   36.4560   21.0240   30.0300 H   0  0  0  0  0  0  0  0  0  0  0  0
   35.5690   21.2760   34.1940 H   0  0  0  0  0  0  0  0  0  0  0  0
   35.2780   17.6100   32.2490 H   0  0  0  0  0  0  0  0  0  0  0  0
   37.2830   26.8740   32.1920 O   0  0  0  0  0  0  0  0  0  0  0  0
   37.4510   27.3940   35.1800 Cl  0  0  0  0  0  0  0  0  0  0  0  0
   36.5160   28.2040   33.9120 C   0  0  0  0  0  0  0  0  0  0  0  0
   36.4880   27.9150   32.5450 C   0  0  0  0  0  0  0  0  0  0  0  0
   35.6770   28.7130   31.7660 C   0  0  0  0  0  0  0  0  0  0  0  0
   35.7120   28.4210   30.7100 H   0  0  0  0  0  0  0  0  0  0  0  0
   34.9160   29.7440   32.2440 C   0  0  0  0  0  0  0  0  0  0  0  0
   34.3080   30.3150   31.5430 H   0  0  0  0  0  0  0  0  0  0  0  0
   34.9470   30.0230   33.5870 C   0  0  0  0  0  3  0  0  0  0  0  0
   35.7420   29.2580   34.4120 C   0  0  0  0  0  3  0  0  0  0  0  0
  1 11  1  0  0  0  0
  1  6  1  0  0  0  0
  2  3  1  0  0  0  0
  2  1  2  0  0  0  0
  3  4  2  0  0  0  0
  4 19  1  0  0  0  0
  4  5  1  0  0  0  0
  5  9  1  0  0  0  0
  6  5  2  0  0  0  0
  7  2  1  0  0  0  0
  8  3  1  0  0  0  0
 10 15  2  0  0  0  0
 10 11  1  0  0  0  0
 11 12  2  0  0  0  0
 12 13  1  0  0  0  0
 12 17  1  0  0  0  0
 14 18  1  0  0  0  0
 14 13  2  0  0  0  0
 15 14  1  0  0  0  0
 16 10  1  0  0  0  0
 19 22  1  0  0  0  0
 21 28  1  0  0  0  0
 21 20  1  0  0  0  0
 22 21  2  0  0  0  0
 23 25  2  0  0  0  0
 23 22  1  0  0  0  0
 24 23  1  0  0  0  0
 25 27  1  0  0  0  0
 26 25  1  0  0  0  0
 27 28  2  0  0  0  0
M  END
>  <minimizedAffinity>
-5.16910076

$$$$

 OpenBabel03272510113D

 28 30  0  0  0  0  0  0  0  0999 V2000
   35.7180   29.3260   34.1950 C   0  0  0  0  0  0  0  0  0  0  0  0
   36.5100   28.3500   34.7120 C   0  0  0  0  0  0  0  0  0  0  0  0
   37.0130   27.2890   33.9690 C   0  0  0  0  0  0  0  0  0  0  0  0
   36.7320   27.1630   32.6460 C   0  0  0  0  0  0  0  0  0  0  0  0
   35.9290   28.1610   32.1460 C   0  0  0  0  0  0  0  0  0  0  0  0
   35.4540   29.1770   32.8820 N   0  0  0  0  0  0  0  0  0  0  0  0
   36.7800   28.3850   35.7730 H   0  0  0  0  0  0  0  0  0  0  0  0
   37.6490   26.5380   34.4620 H   0  0  0  0  0  0  0  0  0  0  0  0
   35.6100   28.2020   31.1150 H   0  0  0  0  0  0  0  0  0  0  0  0
   35.9840   31.2690   35.7580 C   0  0  0  0  0  0  0  0  0  0  0  0
   35.1890   30.4330   34.9500 C   0  0  0  0  0  0  0  0  0  0  0  0
   33.8400   30.7010   34.8910 C   0  0  0  0  0  0  0  0  0  0  0  0
   33.3250   31.7460   35.6000 N   0  0  0  0  0  0  0  0  0  0  0  0
   34.1270   32.5260   36.3660 C   0  0  0  0  0  0  0  0  0  0  0  0
   35.4620   32.2920   36.4500 N   0  0  0  0  0  0  0  0  0  0  0  0
   37.0420   31.0510   35.7990 H   0  0  0  0  0  0  0  0  0  0  0  0
   33.1580   30.1200   34.3030 H   0  0  0  0  0  0  0  0  0  0  0  0
   33.6450   33.3350   36.8990 H   0  0  0  0  0  0  0  0  0  0  0  0
   37.1940   26.1400   31.8520 O   0  0  0  0  0  0  0  0  0  0  0  0
   34.6270   25.1900   30.5360 Cl  0  0  0  0  0  0  0  0  0  0  0  0
   35.8530   24.3060   31.4580 C   0  0  0  0  0  0  0  0  0  0  0  0
   37.0220   24.8080   32.0370 C   0  0  0  0  0  0  0  0  0  0  0  0
   37.8190   23.8950   32.6970 C   0  0  0  0  0  0  0  0  0  0  0  0
   38.7130   24.3670   33.1210 H   0  0  0  0  0  0  0  0  0  0  0  0
   37.5350   22.5630   32.8160 C   0  0  0  0  0  0  0  0  0  0  0  0
   38.2330   21.9250   33.3590 H   0  0  0  0  0  0  0  0  0  0  0  0
   36.3860   22.0760   32.2460 C   0  0  0  0  0  3  0  0  0  0  0  0
   35.5540   22.9440   31.5730 C   0  0  0  0  0  3  0  0  0  0  0  0
  1  2  1  0  0  0  0
  1 11  1  0  0  0  0
  2  7  1  0  0  0  0
  3  8  1  0  0  0  0
  3  2  2  0  0  0  0
  4  3  1  0  0  0  0
  5  4  2  0  0  0  0
  5  6  1  0  0  0  0
  6  1  2  0  0  0  0
  9  5  1  0  0  0  0
 10 16  1  0  0  0  0
 10 15  1  0  0  0  0
 11 10  2  0  0  0  0
 12 11  1  0  0  0  0
 12 13  2  0  0  0  0
 13 14  1  0  0  0  0
 14 15  2  0  0  0  0
 14 18  1  0  0  0  0
 17 12  1  0  0  0  0
 19 22  1  0  0  0  0
 19  4  1  0  0  0  0
 20 21  1  0  0  0  0
 21 28  2  0  0  0  0
 21 22  1  0  0  0  0
 22 23  2  0  0  0  0
 23 25  1  0  0  0  0
 23 24  1  0  0  0  0
 25 26  1  0  0  0  0
 27 25  2  0  0  0  0
 28 27  1  0  0  0  0
M  END
>  <minimizedAffinity>
-5.12704325

$$$$

 OpenBabel03272510113D

 28 30  0  0  0  0  0  0  0  0999 V2000
   36.7070   26.5750   32.7560 C   0  0  0  0  0  0  0  0  0  0  0  0
   36.9650   27.1240   33.9730 C   0  0  0  0  0  0  0  0  0  0  0  0
   36.4620   28.3510   34.3900 C   0  0  0  0  0  0  0  0  0  0  0  0
   35.6630   29.0930   33.5790 C   0  0  0  0  0  0  0  0  0  0  0  0
   35.4180   28.5190   32.3550 C   0  0  0  0  0  0  0  0  0  0  0  0
   35.9130   27.3320   31.9730 N   0  0  0  0  0  0  0  0  0  0  0  0
   37.6020   26.5820   34.6800 H   0  0  0  0  0  0  0  0  0  0  0  0
   36.7170   28.7270   35.3920 H   0  0  0  0  0  0  0  0  0  0  0  0
   34.8060   28.9840   31.5960 H   0  0  0  0  0  0  0  0  0  0  0  0
   37.2120   24.9000   30.9600 C   0  0  0  0  0  0  0  0  0  0  0  0
   37.2190   25.3050   32.3090 C   0  0  0  0  0  0  0  0  0  0  0  0
   37.7450   24.4320   33.2340 C   0  0  0  0  0  0  0  0  0  0  0  0
   38.2340   23.2250   32.8240 N   0  0  0  0  0  0  0  0  0  0  0  0
   38.2070   22.8760   31.5150 C   0  0  0  0  0  0  0  0  0  0  0  0
   37.6960   23.7110   30.5740 N   0  0  0  0  0  0  0  0  0  0  0  0
   36.7970   25.5930   30.2410 H   0  0  0  0  0  0  0  0  0  0  0  0
   37.7920   24.6540   34.2800 H   0  0  0  0  0  0  0  0  0  0  0  0
   38.6130   21.9030   31.2680 H   0  0  0  0  0  0  0  0  0  0  0  0
   35.1340   30.3140   33.9260 O   0  0  0  0  0  0  0  0  0  0  0  0
   36.4510   32.4010   35.6970 Cl  0  0  0  0  0  0  0  0  0  0  0  0
   34.9030   31.5560   35.8560 C   0  0  0  0  0  0  0  0  0  0  0  0
   34.3510   30.6020   34.9950 C   0  0  0  0  0  0  0  0  0  0  0  0
   33.1140   30.1040   35.3470 C   0  0  0  0  0  0  0  0  0  0  0  0
   32.7520   29.3650   34.6230 H   0  0  0  0  0  0  0  0  0  0  0  0
   32.4170   30.4780   36.4620 C   0  0  0  0  0  0  0  0  0  0  0  0
   31.4440   30.0230   36.6490 H   0  0  0  0  0  0  0  0  0  0  0  0
   32.9640   31.4140   37.3030 C   0  0  0  0  0  3  0  0  0  0  0  0
   34.1970   31.9470   36.9990 C   0  0  0  0  0  3  0  0  0  0  0  0
  1  2  1  0  0  0  0
  2  3  2  0  0  0  0
  2  7  1  0  0  0  0
  3  8  1  0  0  0  0
  4 19  1  0  0  0  0
  4  3  1  0  0  0  0
  5  4  2  0  0  0  0
  6  5  1  0  0  0  0
  6  1  2  0  0  0  0
  9  5  1  0  0  0  0
 10 11  1  0  0  0  0
 11  1  1  0  0  0  0
 11 12  2  0  0  0  0
 12 17  1  0  0  0  0
 13 12  1  0  0  0  0
 14 13  2  0  0  0  0
 15 10  2  0  0  0  0
 15 14  1  0  0  0  0
 16 10  1  0  0  0  0
 18 14  1  0  0  0  0
 19 22  1  0  0  0  0
 20 21  1  0  0  0  0
 21 28  1  0  0  0  0
 22 23  1  0  0  0  0
 22 21  2  0  0  0  0
 23 25  2  0  0  0  0
 24 23  1  0  0  0  0
 25 26  1  0  0  0  0
 25 27  1  0  0  0  0
 28 27  2  0  0  0  0
M  END
>  <minimizedAffinity>
-5.01625538

$$$$

 OpenBabel03272510113D

 28 30  0  0  0  0  0  0  0  0999 V2000
   38.3650   25.3260   35.2910 C   0  0  0  0  0  0  0  0  0  0  0  0
   38.1320   26.6030   35.6940 C   0  0  0  0  0  0  0  0  0  0  0  0
   37.4320   27.5360   34.9380 C   0  0  0  0  0  0  0  0  0  0  0  0
   36.9280   27.2140   33.7180 C   0  0  0  0  0  0  0  0  0  0  0  0
   37.1770   25.9190   33.3330 C   0  0  0  0  0  0  0  0  0  0  0  0
   37.8550   25.0340   34.0780 N   0  0  0  0  0  0  0  0  0  0  0  0
   38.5090   26.9350   36.6670 H   0  0  0  0  0  0  0  0  0  0  0  0
   37.2850   28.5520   35.3350 H   0  0  0  0  0  0  0  0  0  0  0  0
   36.8470   25.5100   32.3890 H   0  0  0  0  0  0  0  0  0  0  0  0
   40.3110   23.7860   35.6470 C   0  0  0  0  0  0  0  0  0  0  0  0
   39.0880   24.3470   36.0620 C   0  0  0  0  0  0  0  0  0  0  0  0
   38.5710   23.9270   37.2670 C   0  0  0  0  0  0  0  0  0  0  0  0
   39.2450   23.0010   38.0070 N   0  0  0  0  0  0  0  0  0  0  0  0
   40.4210   22.4860   37.5700 C   0  0  0  0  0  0  0  0  0  0  0  0
   40.9610   22.8750   36.3860 N   0  0  0  0  0  0  0  0  0  0  0  0
   40.7100   24.1220   34.6990 H   0  0  0  0  0  0  0  0  0  0  0  0
   37.6480   24.2980   37.6620 H   0  0  0  0  0  0  0  0  0  0  0  0
   40.8950   21.7560   38.2120 H   0  0  0  0  0  0  0  0  0  0  0  0
   36.2270   28.0870   32.9190 O   0  0  0  0  0  0  0  0  0  0  0  0
   36.8880   30.2980   30.9440 Cl  0  0  0  0  0  0  0  0  0  0  0  0
   35.9050   30.3150   32.4170 C   0  0  0  0  0  0  0  0  0  0  0  0
   35.6360   29.2510   33.2840 C   0  0  0  0  0  0  0  0  0  0  0  0
   34.8230   29.5320   34.3630 C   0  0  0  0  0  0  0  0  0  0  0  0
   34.6620   28.6470   34.9910 H   0  0  0  0  0  0  0  0  0  0  0  0
   34.2820   30.7590   34.6250 C   0  0  0  0  0  0  0  0  0  0  0  0
   33.6510   30.8750   35.5070 H   0  0  0  0  0  0  0  0  0  0  0  0
   34.5490   31.7980   33.7710 C   0  0  0  0  0  3  0  0  0  0  0  0
   35.3540   31.5740   32.6760 C   0  0  0  0  0  3  0  0  0  0  0  0
  1  2  1  0  0  0  0
  1 11  1  0  0  0  0
  2  7  1  0  0  0  0
  3  8  1  0  0  0  0
  3  2  2  0  0  0  0
  4  3  1  0  0  0  0
  5  4  2  0  0  0  0
  5  6  1  0  0  0  0
  6  1  2  0  0  0  0
  9  5  1  0  0  0  0
 10 11  2  0  0  0  0
 10 15  1  0  0  0  0
 11 12  1  0  0  0  0
 12 17  1  0  0  0  0
 12 13  2  0  0  0  0
 14 13  1  0  0  0  0
 14 18  1  0  0  0  0
 15 14  2  0  0  0  0
 16 10  1  0  0  0  0
 19 22  1  0  0  0  0
 19  4  1  0  0  0  0
 20 21  1  0  0  0  0
 21 28  2  0  0  0  0
 21 22  1  0  0  0  0
 22 23  2  0  0  0  0
 23 25  1  0  0  0  0
 23 24  1  0  0  0  0
 25 26  1  0  0  0  0
 27 25  2  0  0  0  0
 28 27  1  0  0  0  0
M  END
>  <minimizedAffinity>
-5.01430893

$$$$

 OpenBabel03272510113D

 28 30  0  0  0  0  0  0  0  0999 V2000
   38.0010   27.1790   32.0320 C   0  0  0  0  0  0  0  0  0  0  0  0
   39.1720   27.0450   32.7100 C   0  0  0  0  0  0  0  0  0  0  0  0
   39.4640   25.9700   33.5410 C   0  0  0  0  0  0  0  0  0  0  0  0
   38.5680   24.9650   33.7300 C   0  0  0  0  0  0  0  0  0  0  0  0
   37.3930   25.1240   33.0360 C   0  0  0  0  0  0  0  0  0  0  0  0
   37.1320   26.1700   32.2380 N   0  0  0  0  0  0  0  0  0  0  0  0
   39.9420   27.8160   32.6060 H   0  0  0  0  0  0  0  0  0  0  0  0
   40.4360   25.9340   34.0560 H   0  0  0  0  0  0  0  0  0  0  0  0
   36.5790   24.4160   33.0830 H   0  0  0  0  0  0  0  0  0  0  0  0
   38.4720   28.6540   30.0600 C   0  0  0  0  0  0  0  0  0  0  0  0
   37.6820   28.2850   31.1660 C   0  0  0  0  0  0  0  0  0  0  0  0
   36.5510   29.0290   31.4180 C   0  0  0  0  0  0  0  0  0  0  0  0
   36.2370   30.0790   30.6050 N   0  0  0  0  0  0  0  0  0  0  0  0
   37.0260   30.4000   29.5510 C   0  0  0  0  0  0  0  0  0  0  0  0
   38.1500   29.6900   29.2720 N   0  0  0  0  0  0  0  0  0  0  0  0
   39.3580   28.0640   29.8700 H   0  0  0  0  0  0  0  0  0  0  0  0
   35.8910   28.8230   32.2350 H   0  0  0  0  0  0  0  0  0  0  0  0
   36.7110   31.2460   28.9540 H   0  0  0  0  0  0  0  0  0  0  0  0
   38.7910   23.8750   34.5380 O   0  0  0  0  0  0  0  0  0  0  0  0
   40.9590   22.0630   35.6540 Cl  0  0  0  0  0  0  0  0  0  0  0  0
   39.6960   22.9980   36.4700 C   0  0  0  0  0  0  0  0  0  0  0  0
   38.7250   23.8210   35.8920 C   0  0  0  0  0  0  0  0  0  0  0  0
   37.8590   24.4500   36.7620 C   0  0  0  0  0  0  0  0  0  0  0  0
   37.1320   25.0760   36.2300 H   0  0  0  0  0  0  0  0  0  0  0  0
   37.8940   24.3150   38.1220 C   0  0  0  0  0  0  0  0  0  0  0  0
   37.1620   24.8580   38.7210 H   0  0  0  0  0  0  0  0  0  0  0  0
   38.8480   23.5050   38.6830 C   0  0  0  0  0  3  0  0  0  0  0  0
   39.7410   22.8540   37.8610 C   0  0  0  0  0  3  0  0  0  0  0  0
  1  6  2  0  0  0  0
  1  2  1  0  0  0  0
  2  3  2  0  0  0  0
  3  4  1  0  0  0  0
  3  8  1  0  0  0  0
  4 19  1  0  0  0  0
  5  9  1  0  0  0  0
  5  4  2  0  0  0  0
  6  5  1  0  0  0  0
  7  2  1  0  0  0  0
 10 11  1  0  0  0  0
 11 12  2  0  0  0  0
 11  1  1  0  0  0  0
 12 17  1  0  0  0  0
 13 12  1  0  0  0  0
 14 13  2  0  0  0  0
 15 14  1  0  0  0  0
 15 10  2  0  0  0  0
 16 10  1  0  0  0  0
 18 14  1  0  0  0  0
 19 22  1  0  0  0  0
 20 21  1  0  0  0  0
 21 28  1  0  0  0  0
 22 21  2  0  0  0  0
 22 23  1  0  0  0  0
 23 25  2  0  0  0  0
 24 23  1  0  0  0  0
 25 27  1  0  0  0  0
 25 26  1  0  0  0  0
 28 27  2  0  0  0  0
M  END
>  <minimizedAffinity>
-4.99245977

$$$$

 OpenBabel03272510113D

 28 30  0  0  0  0  0  0  0  0999 V2000
   37.7330   25.6580   34.6550 C   0  0  0  0  0  0  0  0  0  0  0  0
   37.3780   26.9360   34.9500 C   0  0  0  0  0  0  0  0  0  0  0  0
   36.7640   27.7960   34.0460 C   0  0  0  0  0  0  0  0  0  0  0  0
   36.4770   27.3940   32.7800 C   0  0  0  0  0  0  0  0  0  0  0  0
   36.8470   26.0990   32.5050 C   0  0  0  0  0  0  0  0  0  0  0  0
   37.4380   25.2860   33.3930 N   0  0  0  0  0  0  0  0  0  0  0  0
   37.5770   27.3290   35.9520 H   0  0  0  0  0  0  0  0  0  0  0  0
   36.5060   28.8180   34.3630 H   0  0  0  0  0  0  0  0  0  0  0  0
   36.6930   25.6320   31.5430 H   0  0  0  0  0  0  0  0  0  0  0  0
   37.8240   24.4190   36.8320 C   0  0  0  0  0  0  0  0  0  0  0  0
   38.3690   24.7540   35.5780 C   0  0  0  0  0  0  0  0  0  0  0  0
   39.5720   24.1790   35.2330 C   0  0  0  0  0  0  0  0  0  0  0  0
   40.1850   23.3210   36.0980 N   0  0  0  0  0  0  0  0  0  0  0  0
   39.6240   23.0260   37.2970 C   0  0  0  0  0  0  0  0  0  0  0  0
   38.4390   23.5740   37.6720 N   0  0  0  0  0  0  0  0  0  0  0  0
   36.8790   24.8750   37.0950 H   0  0  0  0  0  0  0  0  0  0  0  0
   40.0620   24.3740   34.3010 H   0  0  0  0  0  0  0  0  0  0  0  0
   40.1710   22.3380   37.9280 H   0  0  0  0  0  0  0  0  0  0  0  0
   35.8740   28.1910   31.8360 O   0  0  0  0  0  0  0  0  0  0  0  0
   35.8390   31.1290   32.6080 Cl  0  0  0  0  0  0  0  0  0  0  0  0
   36.4880   30.3140   31.1760 C   0  0  0  0  0  0  0  0  0  0  0  0
   36.4750   28.9470   30.8840 C   0  0  0  0  0  0  0  0  0  0  0  0
   37.0640   28.5690   29.6950 C   0  0  0  0  0  0  0  0  0  0  0  0
   37.0120   27.4850   29.5420 H   0  0  0  0  0  0  0  0  0  0  0  0
   37.6440   29.4340   28.8090 C   0  0  0  0  0  0  0  0  0  0  0  0
   38.0830   29.0320   27.8960 H   0  0  0  0  0  0  0  0  0  0  0  0
   37.6540   30.7750   29.1020 C   0  0  0  0  0  3  0  0  0  0  0  0
   37.0800   31.2080   30.2770 C   0  0  0  0  0  3  0  0  0  0  0  0
  1  2  1  0  0  0  0
  1 11  1  0  0  0  0
  2  7  1  0  0  0  0
  3  8  1  0  0  0  0
  3  2  2  0  0  0  0
  4  3  1  0  0  0  0
  5  4  2  0  0  0  0
  5  6  1  0  0  0  0
  6  1  2  0  0  0  0
  9  5  1  0  0  0  0
 10 16  1  0  0  0  0
 10 15  1  0  0  0  0
 11 10  2  0  0  0  0
 12 11  1  0  0  0  0
 12 13  2  0  0  0  0
 13 14  1  0  0  0  0
 14 15  2  0  0  0  0
 14 18  1  0  0  0  0
 17 12  1  0  0  0  0
 19  4  1  0  0  0  0
 21 20  1  0  0  0  0
 22 21  1  0  0  0  0
 22 19  1  0  0  0  0
 23 22  2  0  0  0  0
 24 23  1  0  0  0  0
 25 27  2  0  0  0  0
 25 23  1  0  0  0  0
 26 25  1  0  0  0  0
 27 28  1  0  0  0  0
 28 21  2  0  0  0  0
M  END
>  <minimizedAffinity>
-4.98596287

$$$$

 OpenBabel03272510113D

 28 30  0  0  0  0  0  0  0  0999 V2000
   37.6960   25.8150   34.7020 C   0  0  0  0  0  0  0  0  0  0  0  0
   37.3210   27.0640   35.0870 C   0  0  0  0  0  0  0  0  0  0  0  0
   36.6880   27.9740   34.2470 C   0  0  0  0  0  0  0  0  0  0  0  0
   36.4030   27.6570   32.9570 C   0  0  0  0  0  0  0  0  0  0  0  0
   36.7920   26.3900   32.5920 C   0  0  0  0  0  0  0  0  0  0  0  0
   37.4010   25.5270   33.4180 N   0  0  0  0  0  0  0  0  0  0  0  0
   37.5180   27.3890   36.1130 H   0  0  0  0  0  0  0  0  0  0  0  0
   36.4160   28.9670   34.6350 H   0  0  0  0  0  0  0  0  0  0  0  0
   36.6410   25.9890   31.6000 H   0  0  0  0  0  0  0  0  0  0  0  0
   37.8420   24.4670   36.8110 C   0  0  0  0  0  0  0  0  0  0  0  0
   38.3510   24.8600   35.5580 C   0  0  0  0  0  0  0  0  0  0  0  0
   39.5350   24.2920   35.1460 C   0  0  0  0  0  0  0  0  0  0  0  0
   40.1660   23.3850   35.9460 N   0  0  0  0  0  0  0  0  0  0  0  0
   39.6400   23.0360   37.1460 C   0  0  0  0  0  0  0  0  0  0  0  0
   38.4750   23.5760   37.5860 N   0  0  0  0  0  0  0  0  0  0  0  0
   36.9110   24.9190   37.1270 H   0  0  0  0  0  0  0  0  0  0  0  0
   39.9970   24.5290   34.2090 H   0  0  0  0  0  0  0  0  0  0  0  0
   40.1990   22.3110   37.7240 H   0  0  0  0  0  0  0  0  0  0  0  0
   35.7810   28.5070   32.0740 O   0  0  0  0  0  0  0  0  0  0  0  0
   37.2100   28.5570   29.3940 Cl  0  0  0  0  0  0  0  0  0  0  0  0
   36.8160   29.8640   30.5210 C   0  0  0  0  0  0  0  0  0  0  0  0
   36.1470   29.7710   31.7460 C   0  0  0  0  0  0  0  0  0  0  0  0
   35.9560   30.9540   32.4300 C   0  0  0  0  0  0  0  0  0  0  0  0
   35.4260   30.7950   33.3760 H   0  0  0  0  0  0  0  0  0  0  0  0
   36.3750   32.1790   31.9900 C   0  0  0  0  0  0  0  0  0  0  0  0
   36.1730   33.0540   32.6080 H   0  0  0  0  0  0  0  0  0  0  0  0
   37.0310   32.2630   30.7880 C   0  0  0  0  0  3  0  0  0  0  0  0
   37.2480   31.1130   30.0620 C   0  0  0  0  0  3  0  0  0  0  0  0
  1  2  1  0  0  0  0
  1 11  1  0  0  0  0
  2  7  1  0  0  0  0
  3  8  1  0  0  0  0
  3  2  2  0  0  0  0
  4  3  1  0  0  0  0
  5  4  2  0  0  0  0
  5  6  1  0  0  0  0
  6  1  2  0  0  0  0
  9  5  1  0  0  0  0
 10 16  1  0  0  0  0
 10 15  1  0  0  0  0
 11 10  2  0  0  0  0
 12 11  1  0  0  0  0
 12 13  2  0  0  0  0
 13 14  1  0  0  0  0
 14 15  2  0  0  0  0
 14 18  1  0  0  0  0
 17 12  1  0  0  0  0
 19  4  1  0  0  0  0
 20 21  1  0  0  0  0
 21 22  1  0  0  0  0
 22 19  1  0  0  0  0
 22 23  2  0  0  0  0
 23 24  1  0  0  0  0
 25 23  1  0  0  0  0
 25 26  1  0  0  0  0
 27 25  2  0  0  0  0
 28 21  2  0  0  0  0
 28 27  1  0  0  0  0
M  END
>  <minimizedAffinity>
-4.9707942

$$$$

 OpenBabel03272510113D

 28 30  0  0  0  0  0  0  0  0999 V2000
   36.7490   26.3510   32.7610 C   0  0  0  0  0  0  0  0  0  0  0  0
   36.9980   26.9570   33.9530 C   0  0  0  0  0  0  0  0  0  0  0  0
   36.5950   28.2510   34.2610 C   0  0  0  0  0  0  0  0  0  0  0  0
   35.9120   29.0060   33.3610 C   0  0  0  0  0  0  0  0  0  0  0  0
   35.6730   28.3730   32.1650 C   0  0  0  0  0  0  0  0  0  0  0  0
   36.0710   27.1220   31.8880 N   0  0  0  0  0  0  0  0  0  0  0  0
   37.5450   26.4090   34.7270 H   0  0  0  0  0  0  0  0  0  0  0  0
   36.8360   28.6700   35.2500 H   0  0  0  0  0  0  0  0  0  0  0  0
   35.1470   28.8390   31.3450 H   0  0  0  0  0  0  0  0  0  0  0  0
   37.8460   24.1660   33.3180 C   0  0  0  0  0  0  0  0  0  0  0  0
   37.1590   25.0110   32.4260 C   0  0  0  0  0  0  0  0  0  0  0  0
   36.8700   24.5160   31.1740 C   0  0  0  0  0  0  0  0  0  0  0  0
   37.2510   23.2490   30.8430 N   0  0  0  0  0  0  0  0  0  0  0  0
   37.9120   22.4690   31.7330 C   0  0  0  0  0  0  0  0  0  0  0  0
   38.2140   22.9230   32.9770 N   0  0  0  0  0  0  0  0  0  0  0  0
   38.0680   24.5640   34.2990 H   0  0  0  0  0  0  0  0  0  0  0  0
   36.3510   25.0860   30.4300 H   0  0  0  0  0  0  0  0  0  0  0  0
   38.1810   21.4760   31.3970 H   0  0  0  0  0  0  0  0  0  0  0  0
   35.4850   30.2910   33.5990 O   0  0  0  0  0  0  0  0  0  0  0  0
   32.5690   29.5320   33.9800 Cl  0  0  0  0  0  0  0  0  0  0  0  0
   33.6590   30.4920   34.9930 C   0  0  0  0  0  0  0  0  0  0  0  0
   35.0020   30.8010   34.7590 C   0  0  0  0  0  0  0  0  0  0  0  0
   35.6310   31.5630   35.7220 C   0  0  0  0  0  0  0  0  0  0  0  0
   36.6790   31.7600   35.4630 H   0  0  0  0  0  0  0  0  0  0  0  0
   35.0310   32.0220   36.8610 C   0  0  0  0  0  0  0  0  0  0  0  0
   35.6190   32.6170   37.5590 H   0  0  0  0  0  0  0  0  0  0  0  0
   33.7120   31.7150   37.0850 C   0  0  0  0  0  3  0  0  0  0  0  0
   33.0350   30.9550   36.1570 C   0  0  0  0  0  3  0  0  0  0  0  0
  1  2  1  0  0  0  0
  2  3  2  0  0  0  0
  2  7  1  0  0  0  0
  3  8  1  0  0  0  0
  4 19  1  0  0  0  0
  4  3  1  0  0  0  0
  5  4  2  0  0  0  0
  6  5  1  0  0  0  0
  6  1  2  0  0  0  0
  9  5  1  0  0  0  0
 10 16  1  0  0  0  0
 11  1  1  0  0  0  0
 11 10  2  0  0  0  0
 12 11  1  0  0  0  0
 13 12  2  0  0  0  0
 13 14  1  0  0  0  0
 14 15  2  0  0  0  0
 15 10  1  0  0  0  0
 17 12  1  0  0  0  0
 18 14  1  0  0  0  0
 19 22  1  0  0  0  0
 20 21  1  0  0  0  0
 21 28  1  0  0  0  0
 22 21  2  0  0  0  0
 22 23  1  0  0  0  0
 23 25  2  0  0  0  0
 24 23  1  0  0  0  0
 25 27  1  0  0  0  0
 25 26  1  0  0  0  0
 28 27  2  0  0  0  0
M  END
>  <minimizedAffinity>
-4.95627689

$$$$
