
 OpenBabel03272509423D

 38 40  0  0  1  0  0  0  0  0999 V2000
   37.0750   30.9440   49.0560 C   0  0  0  0  0  0  0  0  0  0  0  0
   36.7920   31.8940   50.0390 C   0  0  0  0  0  0  0  0  0  0  0  0
   37.3880   33.1460   50.0400 C   0  0  0  0  0  0  0  0  0  0  0  0
   38.2990   33.4730   49.0310 C   0  0  0  0  0  0  0  0  0  0  0  0
   38.5680   32.5360   48.0750 C   0  0  0  0  0  0  0  0  0  0  0  0
   37.9520   31.2930   48.1080 C   0  0  0  0  0  0  0  0  0  0  0  0
   36.0820   31.6300   50.8200 H   0  0  0  0  0  0  0  0  0  0  0  0
   37.1050   33.8020   50.8360 H   0  0  0  0  0  0  0  0  0  0  0  0
   38.7090   34.4610   49.1110 H   0  0  0  0  0  0  0  0  0  0  0  0
   39.2920   32.9340   47.3640 H   0  0  0  0  0  0  0  0  0  0  0  0
   36.4790   29.6260   49.0720 C   0  0  2  0  0  0  0  0  0  0  0  0
   36.9800   29.0570   48.1990 H   0  0  0  0  0  0  0  0  0  0  0  0
   33.6170   29.9580   46.8560 C   0  0  0  0  0  0  0  0  0  0  0  0
   32.8780   28.8150   47.0890 C   0  0  0  0  0  0  0  0  0  0  0  0
   33.3230   27.9400   48.0620 C   0  0  0  0  0  0  0  0  0  0  0  0
   34.4760   28.2330   48.7590 N   0  0  0  0  0  0  0  0  0  0  0  0
   35.1380   29.3390   48.4870 C   0  0  0  0  0  0  0  0  0  0  0  0
   34.7170   30.2080   47.5410 N   0  0  0  0  0  0  0  0  0  0  0  0
   33.2990   30.6750   46.0970 H   0  0  0  0  0  0  0  0  0  0  0  0
   31.9870   28.6670   46.4960 H   0  0  0  0  0  0  0  0  0  0  0  0
   32.7500   27.0450   48.2520 H   0  0  0  0  0  0  0  0  0  0  0  0
   36.9370   28.8890   50.0200 O   0  0  0  0  0  0  0  0  0  0  0  0
   36.3910   28.2020   50.4690 H   0  0  0  0  0  0  0  0  0  0  0  0
   38.3510   30.3880   47.0560 C   0  0  0  0  0  3  0  0  0  0  0  0
   38.8320   30.7820   45.8720 C   0  0  0  0  0  3  0  0  0  0  0  0
   39.3130   29.9460   44.7470 C   0  0  0  0  0  0  0  0  0  0  0  0
   40.4110   29.7710   44.9060 H   0  0  0  0  0  0  0  0  0  0  0  0
   38.7960   28.9630   44.7030 H   0  0  0  0  0  0  0  0  0  0  0  0
   39.0610   30.8140   43.1960 S   0  0  0  0  0  0  0  0  0  0  0  0
   37.5140   28.4170   42.0140 Cl  0  0  0  0  0  0  0  0  0  0  0  0
   39.1260   28.8400   41.4400 C   0  0  0  0  0  0  0  0  0  0  0  0
   39.8880   29.8900   41.9070 C   0  0  0  0  0  0  0  0  0  0  0  0
   41.1420   30.1310   41.3840 C   0  0  0  0  0  0  0  0  0  0  0  0
   41.6540   30.9810   41.8230 H   0  0  0  0  0  0  0  0  0  0  0  0
   41.6160   29.2950   40.3790 C   0  0  0  0  0  0  0  0  0  0  0  0
   42.5920   29.5180   40.0010 H   0  0  0  0  0  0  0  0  0  0  0  0
   40.8470   28.2490   39.9180 C   0  0  0  0  0  3  0  0  0  0  0  0
   39.5890   27.9930   40.4320 C   0  0  0  0  0  3  0  0  0  0  0  0
  1 11  1  0  0  0  0
  1  2  1  0  0  0  0
  2  3  2  0  0  0  0
  2  7  1  0  0  0  0
  3  8  1  0  0  0  0
  4  9  1  0  0  0  0
  4  3  1  0  0  0  0
  5  6  1  0  0  0  0
  5  4  2  0  0  0  0
  6  1  2  0  0  0  0
 10  5  1  0  0  0  0
 11 12  1  6  0  0  0
 11 22  1  0  0  0  0
 13 14  2  0  0  0  0
 13 18  1  0  0  0  0
 14 15  1  0  0  0  0
 15 21  1  0  0  0  0
 15 16  2  0  0  0  0
 17 16  1  0  0  0  0
 17 11  1  0  0  0  0
 18 17  2  0  0  0  0
 19 13  1  0  0  0  0
 20 14  1  0  0  0  0
 22 23  1  0  0  0  0
 24  6  1  0  0  0  0
 25 24  2  0  0  0  0
 26 27  1  0  0  0  0
 26 25  1  0  0  0  0
 28 26  1  0  0  0  0
 29 26  1  0  0  0  0
 31 32  1  0  0  0  0
 31 30  1  0  0  0  0
 32 29  1  0  0  0  0
 33 34  1  0  0  0  0
 33 32  2  0  0  0  0
 35 33  1  0  0  0  0
 36 35  1  0  0  0  0
 37 35  2  0  0  0  0
 37 38  1  0  0  0  0
 38 31  2  0  0  0  0
M  END
>  <minimizedAffinity>
-5.63359213

>  <minimizedRMSD>
0.419399291

$$$$
