
 OpenBabel03272509423D

 38 40  0  0  1  0  0  0  0  0999 V2000
   37.0220   30.9060   49.0940 C   0  0  0  0  0  0  0  0  0  0  0  0
   36.7260   31.8080   50.1180 C   0  0  0  0  0  0  0  0  0  0  0  0
   37.3030   33.0670   50.1750 C   0  0  0  0  0  0  0  0  0  0  0  0
   38.2080   33.4520   49.1800 C   0  0  0  0  0  0  0  0  0  0  0  0
   38.4890   32.5620   48.1830 C   0  0  0  0  0  0  0  0  0  0  0  0
   37.8920   31.3110   48.1620 C   0  0  0  0  0  0  0  0  0  0  0  0
   36.0210   31.4980   50.8880 H   0  0  0  0  0  0  0  0  0  0  0  0
   37.0110   33.6820   51.0000 H   0  0  0  0  0  0  0  0  0  0  0  0
   38.6030   34.4420   49.3040 H   0  0  0  0  0  0  0  0  0  0  0  0
   39.2050   33.0030   47.4910 H   0  0  0  0  0  0  0  0  0  0  0  0
   36.4440   29.5800   49.0520 C   0  0  2  0  0  0  0  0  0  0  0  0
   36.9460   29.0610   48.1480 H   0  0  0  0  0  0  0  0  0  0  0  0
   33.5850   29.9330   46.8360 C   0  0  0  0  0  0  0  0  0  0  0  0
   32.8410   28.7920   47.0640 C   0  0  0  0  0  0  0  0  0  0  0  0
   33.2820   27.9120   48.0340 C   0  0  0  0  0  0  0  0  0  0  0  0
   34.4360   28.1970   48.7320 N   0  0  0  0  0  0  0  0  0  0  0  0
   35.1030   29.3010   48.4650 C   0  0  0  0  0  0  0  0  0  0  0  0
   34.6860   30.1760   47.5220 N   0  0  0  0  0  0  0  0  0  0  0  0
   33.2700   30.6550   46.0800 H   0  0  0  0  0  0  0  0  0  0  0  0
   31.9500   28.6500   46.4700 H   0  0  0  0  0  0  0  0  0  0  0  0
   32.7050   27.0190   48.2200 H   0  0  0  0  0  0  0  0  0  0  0  0
   36.9230   28.8060   49.9590 O   0  0  0  0  0  0  0  0  0  0  0  0
   36.3910   28.0900   50.3790 H   0  0  0  0  0  0  0  0  0  0  0  0
   38.3020   30.4590   47.0700 C   0  0  0  0  0  3  0  0  0  0  0  0
   38.8230   30.9100   45.9240 C   0  0  0  0  0  3  0  0  0  0  0  0
   39.3180   30.1310   44.7650 C   0  0  0  0  0  0  0  0  0  0  0  0
   40.4090   29.9250   44.9430 H   0  0  0  0  0  0  0  0  0  0  0  0
   38.7860   29.1630   44.6520 H   0  0  0  0  0  0  0  0  0  0  0  0
   39.1240   31.0910   43.2600 S   0  0  0  0  0  0  0  0  0  0  0  0
   39.0790   32.4420   40.4840 Cl  0  0  0  0  0  0  0  0  0  0  0  0
   40.1620   31.0940   40.8300 C   0  0  0  0  0  0  0  0  0  0  0  0
   40.2500   30.4310   42.0380 C   0  0  0  0  0  0  0  0  0  0  0  0
   41.1350   29.3860   42.1980 C   0  0  0  0  0  0  0  0  0  0  0  0
   41.1220   28.9380   43.1850 H   0  0  0  0  0  0  0  0  0  0  0  0
   41.9330   29.0170   41.1210 C   0  0  0  0  0  0  0  0  0  0  0  0
   42.6060   28.2010   41.2880 H   0  0  0  0  0  0  0  0  0  0  0  0
   41.8380   29.6840   39.9200 C   0  0  0  0  0  3  0  0  0  0  0  0
   40.9570   30.7340   39.7410 C   0  0  0  0  0  3  0  0  0  0  0  0
  1  2  1  0  0  0  0
  2  3  2  0  0  0  0
  2  7  1  0  0  0  0
  3  8  1  0  0  0  0
  4  9  1  0  0  0  0
  4  3  1  0  0  0  0
  5  4  2  0  0  0  0
  6  5  1  0  0  0  0
  6  1  2  0  0  0  0
 10  5  1  0  0  0  0
 11 12  1  6  0  0  0
 11  1  1  0  0  0  0
 11 22  1  0  0  0  0
 13 14  2  0  0  0  0
 13 18  1  0  0  0  0
 14 15  1  0  0  0  0
 15 21  1  0  0  0  0
 15 16  2  0  0  0  0
 17 16  1  0  0  0  0
 17 11  1  0  0  0  0
 18 17  2  0  0  0  0
 19 13  1  0  0  0  0
 20 14  1  0  0  0  0
 22 23  1  0  0  0  0
 24  6  1  0  0  0  0
 25 24  2  0  0  0  0
 26 27  1  0  0  0  0
 26 25  1  0  0  0  0
 28 26  1  0  0  0  0
 29 26  1  0  0  0  0
 30 31  1  0  0  0  0
 31 32  1  0  0  0  0
 32 33  2  0  0  0  0
 32 29  1  0  0  0  0
 33 34  1  0  0  0  0
 35 36  1  0  0  0  0
 35 33  1  0  0  0  0
 37 35  2  0  0  0  0
 38 37  1  0  0  0  0
 38 31  2  0  0  0  0
M  END
>  <minimizedAffinity>
-5.99634361

>  <minimizedRMSD>
0.663846195

$$$$
