REMARK  Name = 
REMARK  7 active torsions:
REMARK  status: ('A' for Active; 'I' for Inactive)
REMARK    1  A    between atoms: C_1  and  C_7
REMARK    2  A    between atoms: C_6  and  C_15
REMARK    3  A    between atoms: C_7  and  O_8
REMARK    4  A    between atoms: C_7  and  C_13
REMARK    5  A    between atoms: C_16  and  C_17
REMARK    6  A    between atoms: C_17  and  S_18
REMARK    7  A    between atoms: S_18  and  C_34
REMARK                            x       y       z     vdW  Elec       q    Type
REMARK                         _______ _______ _______ _____ _____    ______ ____
ROOT
ATOM      1  C   UNL     1      37.080  30.947  49.030  0.00  0.00    +0.000 A 
ATOM      2  C   UNL     1      36.811  31.878  50.035  0.00  0.00    +0.000 A 
ATOM      3  C   UNL     1      37.422  33.122  50.064  0.00  0.00    +0.000 A 
ATOM      4  C   UNL     1      38.335  33.461  49.060  0.00  0.00    +0.000 A 
ATOM      5  C   UNL     1      38.590  32.543  48.082  0.00  0.00    +0.000 A 
ATOM      6  C   UNL     1      37.959  31.308  48.088  0.00  0.00    +0.000 A 
ATOM      7  H   UNL     1      36.099  31.604  50.812  0.00  0.00    +0.000 HD
ATOM      8  H   UNL     1      37.149  33.762  50.876  0.00  0.00    +0.000 HD
ATOM      9  H   UNL     1      38.757  34.442  49.162  0.00  0.00    +0.000 HD
ATOM     10  H   UNL     1      39.317  32.949  47.379  0.00  0.00    +0.000 HD
ENDROOT
BRANCH   1  11
ATOM     11  C   UNL     1      36.467  29.637  49.017  0.00  0.00    +0.000 C 
ATOM     12  H   UNL     1      37.007  29.059  48.173  0.00  0.00    +0.000 HD
BRANCH  11  17
ATOM     13  C   UNL     1      33.613  30.149  46.825  0.00  0.00    +0.000 A 
ATOM     14  C   UNL     1      32.954  28.936  46.844  0.00  0.00    +0.000 A 
ATOM     15  C   UNL     1      33.449  27.940  47.664  0.00  0.00    +0.000 A 
ATOM     16  N   UNL     1      34.571  28.186  48.426  0.00  0.00    +0.000 NA
ATOM     17  C   UNL     1      35.156  29.364  48.361  0.00  0.00    +0.000 A 
ATOM     18  N   UNL     1      34.685  30.352  47.567  0.00  0.00    +0.000 NA
ATOM     19  H   UNL     1      33.253  30.963  46.192  0.00  0.00    +0.000 HD
ATOM     20  H   UNL     1      32.082  28.832  46.214  0.00  0.00    +0.000 HD
ATOM     21  H   UNL     1      32.938  26.989  47.686  0.00  0.00    +0.000 HD
ENDBRANCH  11  17
BRANCH  11  22
ATOM     22  O   UNL     1      36.865  28.897  49.989  0.00  0.00    +0.000 OA
ATOM     23  H   UNL     1      36.287  28.218  50.410  0.00  0.00    +0.000 HD
ENDBRANCH  11  22
ENDBRANCH   1  11
BRANCH   6  24
ATOM     24  C   UNL     1      38.344  30.422  47.014  0.00  0.00    +0.000 C 
ATOM     25  C   UNL     1      38.823  30.838  45.837  0.00  0.00    +0.000 C 
BRANCH  25  26
ATOM     26  C   UNL     1      39.290  30.023  44.691  0.00  0.00    +0.000 C 
ATOM     27  H   UNL     1      40.363  29.753  44.888  0.00  0.00    +0.000 HD
ATOM     28  H   UNL     1      38.702  29.088  44.573  0.00  0.00    +0.000 HD
BRANCH  26  29
ATOM     29  S   UNL     1      39.180  30.984  43.178  0.00  0.00    +0.000 S 
BRANCH  29  32
ATOM     30 CL   UNL     1      41.990  31.620  42.068  0.00  0.00    +0.000 Cl
ATOM     31  C   UNL     1      41.014  30.312  41.399  0.00  0.00    +0.000 A 
ATOM     32  C   UNL     1      39.753  29.957  41.831  0.00  0.00    +0.000 A 
ATOM     33  C   UNL     1      39.078  28.913  41.234  0.00  0.00    +0.000 A 
ATOM     34  H   UNL     1      38.096  28.720  41.650  0.00  0.00    +0.000 HD
ATOM     35  C   UNL     1      39.696  28.229  40.191  0.00  0.00    +0.000 A 
ATOM     36  H   UNL     1      39.138  27.427  39.757  0.00  0.00    +0.000 HD
ATOM     37  C   UNL     1      40.955  28.591  39.768  0.00  0.00    +0.000 A 
ATOM     38  C   UNL     1      41.647  29.635  40.355  0.00  0.00    +0.000 A 
ENDBRANCH  29  32
ENDBRANCH  26  29
ENDBRANCH  25  26
ENDBRANCH   6  24
TORSDOF 7
