
 OpenBabel03272509423D

 38 40  0  0  1  0  0  0  0  0999 V2000
   37.0240   30.9300   49.0560 C   0  0  0  0  0  0  0  0  0  0  0  0
   36.6910   31.8260   50.0730 C   0  0  0  0  0  0  0  0  0  0  0  0
   37.2650   33.0850   50.1580 C   0  0  0  0  0  0  0  0  0  0  0  0
   38.2070   33.4750   49.2000 C   0  0  0  0  0  0  0  0  0  0  0  0
   38.5250   32.5910   48.2100 C   0  0  0  0  0  0  0  0  0  0  0  0
   37.9290   31.3400   48.1590 C   0  0  0  0  0  0  0  0  0  0  0  0
   35.9570   31.5120   50.8140 H   0  0  0  0  0  0  0  0  0  0  0  0
   36.9430   33.6950   50.9750 H   0  0  0  0  0  0  0  0  0  0  0  0
   38.5970   34.4640   49.3440 H   0  0  0  0  0  0  0  0  0  0  0  0
   39.2670   33.0350   47.5470 H   0  0  0  0  0  0  0  0  0  0  0  0
   36.4490   29.6050   48.9850 C   0  0  2  0  0  0  0  0  0  0  0  0
   36.9620   29.1010   48.0780 H   0  0  0  0  0  0  0  0  0  0  0  0
   33.6440   29.9490   46.6980 C   0  0  0  0  0  0  0  0  0  0  0  0
   32.8740   28.8290   46.9410 C   0  0  0  0  0  0  0  0  0  0  0  0
   33.2780   27.9680   47.9430 C   0  0  0  0  0  0  0  0  0  0  0  0
   34.4220   28.2500   48.6580 N   0  0  0  0  0  0  0  0  0  0  0  0
   35.1150   29.3340   48.3760 C   0  0  0  0  0  0  0  0  0  0  0  0
   34.7340   30.1900   47.4010 N   0  0  0  0  0  0  0  0  0  0  0  0
   33.3590   30.6560   45.9160 H   0  0  0  0  0  0  0  0  0  0  0  0
   31.9930   28.6880   46.3310 H   0  0  0  0  0  0  0  0  0  0  0  0
   32.6800   27.0910   48.1400 H   0  0  0  0  0  0  0  0  0  0  0  0
   36.9160   28.8160   49.8840 O   0  0  0  0  0  0  0  0  0  0  0  0
   36.3800   28.0930   50.2860 H   0  0  0  0  0  0  0  0  0  0  0  0
   38.3790   30.4940   47.0780 C   0  0  0  0  0  3  0  0  0  0  0  0
   38.4880   30.8970   45.8080 C   0  0  0  0  0  3  0  0  0  0  0  0
   38.9810   30.1350   44.6370 C   0  0  0  0  0  0  0  0  0  0  0  0
   39.1910   29.0870   44.9840 H   0  0  0  0  0  0  0  0  0  0  0  0
   38.2330   30.0960   43.8160 H   0  0  0  0  0  0  0  0  0  0  0  0
   40.4950   30.8790   44.0210 S   0  0  0  0  0  0  0  0  0  0  0  0
   39.2570   32.4670   41.6800 Cl  0  0  0  0  0  0  0  0  0  0  0  0
   40.2060   31.0080   41.3970 C   0  0  0  0  0  0  0  0  0  0  0  0
   40.7940   30.2380   42.3790 C   0  0  0  0  0  0  0  0  0  0  0  0
   41.5180   29.1120   42.0440 C   0  0  0  0  0  0  0  0  0  0  0  0
   41.9360   28.5820   42.8930 H   0  0  0  0  0  0  0  0  0  0  0  0
   41.6410   28.7730   40.7010 C   0  0  0  0  0  0  0  0  0  0  0  0
   42.2090   27.8930   40.4860 H   0  0  0  0  0  0  0  0  0  0  0  0
   41.0490   29.5480   39.7280 C   0  0  0  0  0  3  0  0  0  0  0  0
   40.3200   30.6800   40.0450 C   0  0  0  0  0  3  0  0  0  0  0  0
  1  2  1  0  0  0  0
  2  3  2  0  0  0  0
  2  7  1  0  0  0  0
  3  8  1  0  0  0  0
  4  9  1  0  0  0  0
  4  3  1  0  0  0  0
  5  4  2  0  0  0  0
  6  5  1  0  0  0  0
  6  1  2  0  0  0  0
 10  5  1  0  0  0  0
 11 12  1  6  0  0  0
 11  1  1  0  0  0  0
 11 22  1  0  0  0  0
 13 14  2  0  0  0  0
 13 18  1  0  0  0  0
 14 15  1  0  0  0  0
 15 21  1  0  0  0  0
 15 16  2  0  0  0  0
 17 16  1  0  0  0  0
 17 11  1  0  0  0  0
 18 17  2  0  0  0  0
 19 13  1  0  0  0  0
 20 14  1  0  0  0  0
 22 23  1  0  0  0  0
 24  6  1  0  0  0  0
 25 24  2  0  0  0  0
 26 27  1  0  0  0  0
 26 25  1  0  0  0  0
 28 26  1  0  0  0  0
 29 26  1  0  0  0  0
 31 30  1  0  0  0  0
 31 32  1  0  0  0  0
 32 29  1  0  0  0  0
 33 32  2  0  0  0  0
 33 34  1  0  0  0  0
 35 33  1  0  0  0  0
 36 35  1  0  0  0  0
 37 38  1  0  0  0  0
 37 35  2  0  0  0  0
 38 31  2  0  0  0  0
M  END
>  <minimizedAffinity>
-6.12051201

>  <minimizedRMSD>
1.29433954

$$$$
