
 OpenBabel03272510113D

 35 38  0  0  0  0  0  0  0  0999 V2000
   33.0070   28.3310   48.3120 C   0  0  0  0  0  0  0  0  0  0  0  0
   33.5860   28.2980   49.5320 C   0  0  0  0  0  0  0  0  0  0  0  0
   34.8480   28.7600   49.8320 C   0  0  0  0  0  0  0  0  0  0  0  0
   35.6080   29.3050   48.8340 C   0  0  0  0  0  0  0  0  0  0  0  0
   35.0260   29.3440   47.5750 C   0  0  0  0  0  0  0  0  0  0  0  0
   33.7830   28.8740   47.3480 N   0  0  0  0  0  0  0  0  0  0  0  0
   33.0590   27.8840   50.3920 H   0  0  0  0  0  0  0  0  0  0  0  0
   35.3020   28.7290   50.8150 H   0  0  0  0  0  0  0  0  0  0  0  0
   35.5620   29.7610   46.7280 H   0  0  0  0  0  0  0  0  0  0  0  0
   30.7320   27.5150   49.0100 C   0  0  0  0  0  0  0  0  0  0  0  0
   31.6900   27.8410   48.0320 C   0  0  0  0  0  0  0  0  0  0  0  0
   31.2940   27.6640   46.7150 C   0  0  0  0  0  0  0  0  0  0  0  0
   30.0390   27.1980   46.4400 N   0  0  0  0  0  0  0  0  0  0  0  0
   29.1750   26.9060   47.4290 C   0  0  0  0  0  0  0  0  0  0  0  0
   29.5100   27.0590   48.7290 N   0  0  0  0  0  0  0  0  0  0  0  0
   31.0080   27.6400   50.0360 H   0  0  0  0  0  0  0  0  0  0  0  0
   31.9480   27.8850   45.8800 H   0  0  0  0  0  0  0  0  0  0  0  0
   28.1920   26.5390   47.1620 H   0  0  0  0  0  0  0  0  0  0  0  0
   36.9010   29.8210   48.9550 O   0  0  0  0  0  0  0  0  0  0  0  0
   37.4510   30.6210   47.9600 C   0  0  0  0  0  0  0  0  0  0  0  0
   38.0510   31.7870   48.4580 C   0  0  0  0  0  0  0  0  0  0  0  0
   38.5620   32.5050   47.3830 C   0  0  0  0  0  0  0  0  0  0  0  0
   38.2630   31.7680   46.2990 N   0  0  0  0  0  0  0  0  0  0  0  0
   37.6190   30.6760   46.6280 N   0  0  0  0  0  0  0  0  0  0  0  0
   38.1960   32.2310   49.4530 H   0  0  0  0  0  0  0  0  0  0  0  0
   39.0940   33.4460   47.3200 H   0  0  0  0  0  0  0  0  0  0  0  0
   41.0850   31.2610   45.4980 Cl  0  0  0  0  0  0  0  0  0  0  0  0
   39.8280   31.8380   44.4230 C   0  0  0  0  0  0  0  0  0  0  0  0
   38.5520   32.0320   44.9290 C   0  0  0  0  0  0  0  0  0  0  0  0
   37.5820   32.4870   44.0590 C   0  0  0  0  0  0  0  0  0  0  0  0
   36.5660   32.6540   44.4150 H   0  0  0  0  0  0  0  0  0  0  0  0
   37.7870   32.7640   42.7240 C   0  0  0  0  0  0  0  0  0  0  0  0
   37.0060   33.1190   42.0700 H   0  0  0  0  0  0  0  0  0  0  0  0
   39.0870   32.5540   42.2540 C   0  0  0  0  0  3  0  0  0  0  0  0
   40.0960   32.1010   43.0780 C   0  0  0  0  0  3  0  0  0  0  0  0
  1  2  1  0  0  0  0
  2  3  2  0  0  0  0
  2  7  1  0  0  0  0
  3  8  1  0  0  0  0
  4 19  1  0  0  0  0
  4  3  1  0  0  0  0
  5  4  2  0  0  0  0
  6  5  1  0  0  0  0
  6  1  2  0  0  0  0
  9  5  1  0  0  0  0
 10 16  1  0  0  0  0
 11  1  1  0  0  0  0
 11 10  2  0  0  0  0
 12 11  1  0  0  0  0
 13 12  2  0  0  0  0
 13 14  1  0  0  0  0
 14 15  2  0  0  0  0
 15 10  1  0  0  0  0
 17 12  1  0  0  0  0
 18 14  1  0  0  0  0
 20 21  1  0  0  0  0
 20 19  1  0  0  0  0
 21 25  1  0  0  0  0
 22 21  2  0  0  0  0
 23 24  1  0  0  0  0
 23 22  1  0  0  0  0
 24 20  2  0  0  0  0
 26 22  1  0  0  0  0
 28 29  1  0  0  0  0
 28 27  1  0  0  0  0
 29 23  1  0  0  0  0
 30 31  1  0  0  0  0
 30 29  2  0  0  0  0
 32 30  1  0  0  0  0
 33 32  1  0  0  0  0
 34 32  2  0  0  0  0
 34 35  1  0  0  0  0
 35 28  2  0  0  0  0
M  END
>  <minimizedAffinity>
-5.85168743

>  <minimizedRMSD>
2.399472

$$$$
