
 OpenBabel03272503303D

 34 36  0  0  1  0  0  0  0  0999 V2000
   34.9860   29.4180   48.0100 C   0  0  0  0  0  0  0  0  0  0  0  0
   34.8320   29.8930   46.7100 C   0  0  0  0  0  0  0  0  0  0  0  0
   33.6360   29.6090   46.0580 C   0  0  0  0  0  0  0  0  0  0  0  0
   32.7020   28.8820   46.7530 N   0  0  0  0  0  0  0  0  0  0  0  0
   32.8800   28.4450   47.9910 C   0  0  0  0  0  0  0  0  0  0  0  0
   34.0280   28.7100   48.6320 N   0  0  0  0  0  0  0  0  0  0  0  0
   35.6040   30.4570   46.2250 H   0  0  0  0  0  0  0  0  0  0  0  0
   33.4330   29.9300   45.0680 H   0  0  0  0  0  0  0  0  0  0  0  0
   36.2250   29.7140   48.6830 N   0  0  0  0  0  0  0  0  0  0  0  0
   37.3140   30.4860   48.1690 C   0  0  0  0  0  0  0  0  0  0  0  0
   37.9310   31.0700   49.4460 C   0  0  2  0  0  0  0  0  0  0  0  0
   37.0350   30.6240   50.5790 C   0  0  0  0  0  0  0  0  0  0  0  0
   36.5990   29.2810   50.0130 C   0  0  0  0  0  0  0  0  0  0  0  0
   38.0460   29.9230   47.5830 H   0  0  0  0  0  0  0  0  0  0  0  0
   36.9770   31.3620   47.5710 H   0  0  0  0  0  0  0  0  0  0  0  0
   38.9300   30.5870   49.6500 H   0  0  0  0  0  0  0  0  0  0  0  0
   36.1710   31.3350   50.6060 H   0  0  0  0  0  0  0  0  0  0  0  0
   37.5620   30.5270   51.5310 H   0  0  0  0  0  0  0  0  0  0  0  0
   35.7240   28.9460   50.6130 H   0  0  0  0  0  0  0  0  0  0  0  0
   37.4520   28.6070   50.0550 H   0  0  0  0  0  0  0  0  0  0  0  0
   38.1070   32.5520   49.3830 C   0  0  0  0  0  0  0  0  0  0  0  0
   36.9590   33.1040   49.9290 F   0  0  0  0  0  0  0  0  0  0  0  0
   38.1080   32.9100   48.0480 F   0  0  0  0  0  0  0  0  0  0  0  0
   39.2420   33.0070   49.9760 F   0  0  0  0  0  0  0  0  0  0  0  0
   31.6160   27.5020   48.8190 S   0  0  0  0  0  0  0  0  0  0  0  0
   28.7170   28.8610   48.7490 Cl  0  0  0  0  0  0  0  0  0  0  0  0
   29.0640   27.5380   47.6770 C   0  0  0  0  0  0  0  0  0  0  0  0
   30.3250   26.9760   47.7360 C   0  0  0  0  0  0  0  0  0  0  0  0
   30.6130   25.9200   46.8860 C   0  0  0  0  0  0  0  0  0  0  0  0
   31.5950   25.4250   46.8790 H   0  0  0  0  0  0  0  0  0  0  0  0
   29.6340   25.4610   46.0090 C   0  0  0  0  0  0  0  0  0  0  0  0
   29.8920   24.6290   45.3540 H   0  0  0  0  0  0  0  0  0  0  0  0
   28.3630   26.0140   45.9380 C   0  0  0  0  0  3  0  0  0  0  0  0
   28.0860   27.0750   46.7970 C   0  0  0  0  0  3  0  0  0  0  0  0
  1  6  1  0  0  0  0
  1  9  1  0  0  0  0
  2  1  2  0  0  0  0
  3  2  1  0  0  0  0
  3  4  2  0  0  0  0
  4  5  1  0  0  0  0
  5  6  2  0  0  0  0
  5 25  1  0  0  0  0
  7  2  1  0  0  0  0
  8  3  1  0  0  0  0
  9 13  1  0  0  0  0
 10  9  1  0  0  0  0
 10 11  1  0  0  0  0
 11 16  1  1  0  0  0
 11 12  1  0  0  0  0
 12 17  1  0  0  0  0
 12 18  1  0  0  0  0
 13 20  1  0  0  0  0
 13 12  1  0  0  0  0
 13 19  1  0  0  0  0
 14 10  1  0  0  0  0
 15 10  1  0  0  0  0
 21 11  1  0  0  0  0
 21 22  1  0  0  0  0
 21 24  1  0  0  0  0
 23 21  1  0  0  0  0
 27 28  1  0  0  0  0
 27 26  1  0  0  0  0
 28 25  1  0  0  0  0
 29 28  2  0  0  0  0
 30 29  1  0  0  0  0
 31 29  1  0  0  0  0
 32 31  1  0  0  0  0
 33 31  2  0  0  0  0
 33 34  1  0  0  0  0
 34 27  2  0  0  0  0
M  END
>  <minimizedAffinity>
-6.08502102

>  <minimizedRMSD>
2.51431131

$$$$
