
 OpenBabel03272510113D

 35 38  0  0  0  0  0  0  0  0999 V2000
   33.0510   28.3240   48.4910 C   0  0  0  0  0  0  0  0  0  0  0  0
   33.5980   28.4570   49.7190 C   0  0  0  0  0  0  0  0  0  0  0  0
   34.8710   28.9140   49.9820 C   0  0  0  0  0  0  0  0  0  0  0  0
   35.6760   29.2710   48.9360 C   0  0  0  0  0  0  0  0  0  0  0  0
   35.1260   29.1380   47.6690 C   0  0  0  0  0  0  0  0  0  0  0  0
   33.8710   28.6840   47.4790 N   0  0  0  0  0  0  0  0  0  0  0  0
   33.0350   28.1990   50.6160 H   0  0  0  0  0  0  0  0  0  0  0  0
   35.2990   29.0170   50.9720 H   0  0  0  0  0  0  0  0  0  0  0  0
   35.6990   29.4000   46.7850 H   0  0  0  0  0  0  0  0  0  0  0  0
   30.7620   27.6090   49.2500 C   0  0  0  0  0  0  0  0  0  0  0  0
   31.7220   27.8450   48.2490 C   0  0  0  0  0  0  0  0  0  0  0  0
   31.3160   27.5860   46.9490 C   0  0  0  0  0  0  0  0  0  0  0  0
   30.0510   27.1300   46.7110 N   0  0  0  0  0  0  0  0  0  0  0  0
   29.1840   26.9260   47.7200 C   0  0  0  0  0  0  0  0  0  0  0  0
   29.5290   27.1630   49.0060 N   0  0  0  0  0  0  0  0  0  0  0  0
   31.0440   27.8000   50.2640 H   0  0  0  0  0  0  0  0  0  0  0  0
   31.9720   27.7340   46.0990 H   0  0  0  0  0  0  0  0  0  0  0  0
   28.1930   26.5640   47.4830 H   0  0  0  0  0  0  0  0  0  0  0  0
   36.9850   29.7520   49.0160 O   0  0  0  0  0  0  0  0  0  0  0  0
   37.5120   30.5700   48.0220 C   0  0  0  0  0  0  0  0  0  0  0  0
   38.0750   31.7530   48.5220 C   0  0  0  0  0  0  0  0  0  0  0  0
   38.5660   32.4870   47.4480 C   0  0  0  0  0  0  0  0  0  0  0  0
   38.2910   31.7420   46.3630 N   0  0  0  0  0  0  0  0  0  0  0  0
   37.6800   30.6310   46.6910 N   0  0  0  0  0  0  0  0  0  0  0  0
   38.2050   32.2010   49.5170 H   0  0  0  0  0  0  0  0  0  0  0  0
   39.0680   33.4440   47.3870 H   0  0  0  0  0  0  0  0  0  0  0  0
   41.1080   31.2400   45.5450 Cl  0  0  0  0  0  0  0  0  0  0  0  0
   39.8470   31.8260   44.4800 C   0  0  0  0  0  0  0  0  0  0  0  0
   38.5730   32.0160   44.9940 C   0  0  0  0  0  0  0  0  0  0  0  0
   37.6000   32.4780   44.1310 C   0  0  0  0  0  0  0  0  0  0  0  0
   36.5840   32.6420   44.4940 H   0  0  0  0  0  0  0  0  0  0  0  0
   37.7990   32.7640   42.7960 C   0  0  0  0  0  0  0  0  0  0  0  0
   37.0130   33.1240   42.1500 H   0  0  0  0  0  0  0  0  0  0  0  0
   39.0950   32.5580   42.3210 C   0  0  0  0  0  3  0  0  0  0  0  0
   40.1080   32.0980   43.1360 C   0  0  0  0  0  3  0  0  0  0  0  0
  1  2  1  0  0  0  0
  2  3  2  0  0  0  0
  2  7  1  0  0  0  0
  3  8  1  0  0  0  0
  4 19  1  0  0  0  0
  4  3  1  0  0  0  0
  5  4  2  0  0  0  0
  6  5  1  0  0  0  0
  6  1  2  0  0  0  0
  9  5  1  0  0  0  0
 10 16  1  0  0  0  0
 11  1  1  0  0  0  0
 11 10  2  0  0  0  0
 12 11  1  0  0  0  0
 13 12  2  0  0  0  0
 13 14  1  0  0  0  0
 14 15  2  0  0  0  0
 15 10  1  0  0  0  0
 17 12  1  0  0  0  0
 18 14  1  0  0  0  0
 20 21  1  0  0  0  0
 20 19  1  0  0  0  0
 21 25  1  0  0  0  0
 22 21  2  0  0  0  0
 23 24  1  0  0  0  0
 23 22  1  0  0  0  0
 24 20  2  0  0  0  0
 26 22  1  0  0  0  0
 28 29  1  0  0  0  0
 28 27  1  0  0  0  0
 29 23  1  0  0  0  0
 30 31  1  0  0  0  0
 30 29  2  0  0  0  0
 32 30  1  0  0  0  0
 33 32  1  0  0  0  0
 34 32  2  0  0  0  0
 34 35  1  0  0  0  0
 35 28  2  0  0  0  0
M  END
>  <minimizedAffinity>
-5.80832148

>  <minimizedRMSD>
2.32790685

$$$$
