REMARK  Name = 
REMARK  4 active torsions:
REMARK  status: ('A' for Active; 'I' for Inactive)
REMARK    1  A    between atoms: C_1  and  C_8
REMARK    2  A    between atoms: C_4  and  O_13
REMARK    3  A    between atoms: O_13  and  C_14
REMARK    4  A    between atoms: N_17  and  C_29
REMARK                            x       y       z     vdW  Elec       q    Type
REMARK                         _______ _______ _______ _____ _____    ______ ____
ROOT
ATOM      1  C   UNL     1      33.840  28.792  48.268  0.00  0.00    +0.000 A 
ATOM      2  C   UNL     1      34.430  28.444  49.432  0.00  0.00    +0.000 A 
ATOM      3  C   UNL     1      35.699  28.807  49.826  0.00  0.00    +0.000 A 
ATOM      4  C   UNL     1      36.454  29.585  48.992  0.00  0.00    +0.000 A 
ATOM      5  C   UNL     1      35.860  29.949  47.792  0.00  0.00    +0.000 A 
ATOM      6  N   UNL     1      34.611  29.560  47.466  0.00  0.00    +0.000 NA
ATOM      7  H   UNL     1      33.908  27.826  50.163  0.00  0.00    +0.000 HD
ATOM      8  H   UNL     1      36.162  28.522  50.763  0.00  0.00    +0.000 HD
ATOM      9  H   UNL     1      36.392  30.566  47.074  0.00  0.00    +0.000 HD
ENDROOT
BRANCH   1  11
ATOM     10  C   UNL     1      31.646  27.636  48.687  0.00  0.00    +0.000 A 
ATOM     11  C   UNL     1      32.516  28.398  47.886  0.00  0.00    +0.000 A 
ATOM     12  C   UNL     1      32.022  28.777  46.647  0.00  0.00    +0.000 A 
ATOM     13  N   UNL     1      30.761  28.405  46.277  0.00  0.00    +0.000 NA
ATOM     14  C   UNL     1      29.983  27.674  47.096  0.00  0.00    +0.000 A 
ATOM     15  N   UNL     1      30.416  27.278  48.314  0.00  0.00    +0.000 NA
ATOM     16  H   UNL     1      31.998  27.328  49.649  0.00  0.00    +0.000 HD
ATOM     17  H   UNL     1      32.604  29.366  45.949  0.00  0.00    +0.000 HD
ATOM     18  H   UNL     1      28.991  27.403  46.759  0.00  0.00    +0.000 HD
ENDBRANCH   1  11
BRANCH   4  19
ATOM     19  O   UNL     1      37.752  30.045  49.227  0.00  0.00    +0.000 OA
BRANCH  19  20
ATOM     20  C   UNL     1      38.166  31.292  48.771  0.00  0.00    +0.000 A 
ATOM     21  C   UNL     1      37.885  32.330  49.671  0.00  0.00    +0.000 A 
ATOM     22  C   UNL     1      38.338  33.521  49.115  0.00  0.00    +0.000 A 
ATOM     23  N   UNL     1      38.864  33.172  47.928  0.00  0.00    +0.000 N 
ATOM     24  N   UNL     1      38.766  31.882  47.724  0.00  0.00    +0.000 NA
ATOM     25  H   UNL     1      37.413  32.404  50.661  0.00  0.00    +0.000 HD
ATOM     26  H   UNL     1      38.322  34.544  49.468  0.00  0.00    +0.000 HD
BRANCH  23  29
ATOM     27 CL   UNL     1      39.260  36.007  48.745  0.00  0.00    +0.000 Cl
ATOM     28  C   UNL     1      39.715  35.342  47.190  0.00  0.00    +0.000 A 
ATOM     29  C   UNL     1      39.472  33.999  46.940  0.00  0.00    +0.000 A 
ATOM     30  C   UNL     1      39.841  33.503  45.706  0.00  0.00    +0.000 A 
ATOM     31  H   UNL     1      39.669  32.453  45.468  0.00  0.00    +0.000 HD
ATOM     32  C   UNL     1      40.433  34.242  44.703  0.00  0.00    +0.000 A 
ATOM     33  H   UNL     1      40.709  33.821  43.748  0.00  0.00    +0.000 HD
ATOM     34  C   UNL     1      40.659  35.589  44.996  0.00  0.00    +0.000 A 
ATOM     35  C   UNL     1      40.311  36.139  46.212  0.00  0.00    +0.000 A 
ENDBRANCH  23  29
ENDBRANCH  19  20
ENDBRANCH   4  19
TORSDOF 4
