
     RDKit          3D

 27 29  0  0  0  0  0  0  0  0999 V2000
   37.4943   30.4831   50.8934 C   0  0  0  0  0  0  0  0  0  0  0  0
   37.1025   31.0872   49.6803 C   0  0  0  0  0  0  0  0  0  0  0  0
   35.8570   30.7536   49.1647 C   0  0  0  0  0  0  0  0  0  0  0  0
   35.0787   29.8675   49.8469 N   0  0  0  0  0  0  0  0  0  0  0  0
   35.4976   29.3078   51.0165 C   0  0  0  0  0  0  0  0  0  0  0  0
   36.6965   29.6140   51.5348 N   0  0  0  0  0  0  0  0  0  0  0  0
   37.9465   32.0286   48.9690 C   0  0  0  0  0  0  0  0  0  0  0  0
   38.5516   31.7265   47.7478 C   0  0  0  0  0  0  0  0  0  0  0  0
   39.2797   32.8395   47.3530 C   0  0  0  0  0  0  0  0  0  0  0  0
   39.1070   33.7693   48.3156 N   0  0  0  0  0  0  0  0  0  0  0  0
   38.3197   33.2620   49.2491 N   0  0  0  0  0  0  0  0  0  0  0  0
   38.4781   30.8049   51.2144 H   0  0  0  0  0  0  0  0  0  0  0  0
   35.4690   31.1697   48.2330 H   0  0  0  0  0  0  0  0  0  0  0  0
   34.8626   28.5993   51.5517 H   0  0  0  0  0  0  0  0  0  0  0  0
   38.5336   30.8347   47.1284 H   0  0  0  0  0  0  0  0  0  0  0  0
   39.8880   33.0607   46.5073 H   0  0  0  0  0  0  0  0  0  0  0  0
   42.0579   34.0292   48.2918 Cl  0  0  0  0  0  0  0  0  0  0  0  0
   40.9417   35.3367   48.5367 C   0  0  0  0  0  0  0  0  0  0  0  0
   39.5638   35.1003   48.5285 C   0  0  0  0  0  0  0  0  0  0  0  0
   38.6320   36.1039   48.7182 C   0  0  0  0  0  0  0  0  0  0  0  0
   37.5719   35.9021   48.7086 H   0  0  0  0  0  0  0  0  0  0  0  0
   39.1123   37.3950   48.9239 C   0  0  0  0  0  0  0  0  0  0  0  0
   38.3613   38.1792   49.0726 H   0  0  0  0  0  0  0  0  0  0  0  0
   40.4697   37.6739   48.9396 C   0  0  0  0  0  0  0  0  0  0  0  0
   41.3935   36.6450   48.7458 C   0  0  0  0  0  0  0  0  0  0  0  0
   40.7872   38.7125   49.1066 H   0  0  0  0  0  0  0  0  0  0  0  0
   42.4511   36.8610   48.7579 H   0  0  0  0  0  0  0  0  0  0  0  0
  1  6  2  0
  2  1  1  0
  3  2  2  0
  3  4  1  0
  4  5  2  0
  5  6  1  0
  7 11  2  0
  7  2  1  0
  8  7  1  0
  9  8  2  0
  9 10  1  0
 10 11  1  0
  1 12  1  0
  3 13  1  0
  5 14  1  0
  8 15  1  0
  9 16  1  0
 17 18  1  0
 18 19  2  0
 19 20  1  0
 20 21  1  0
 20 22  2  0
 22 23  1  0
 22 24  1  0
 24 25  2  0
 25 18  1  0
 24 26  1  0
 25 27  1  0
 10 19  1  0
M  ISO  7  12  14  13  14  14  14  15  14  16  14  21  15  23  16
M  END
>  <DihAtoms>  (1) 
8,9,18,17

>  <DihDeg>  (1) 
108.61105014967414

$$$$
