
 OpenBabel03272504413D

 45 47  0  0  0  0  0  0  0  0999 V2000
   33.6880   28.6060   48.7240 C   0  0  0  0  0  0  0  0  0  0  0  0
   33.2010   29.4560   49.2890 H   0  0  0  0  0  0  0  0  0  0  0  0
   34.4770   28.2580   49.4280 H   0  0  0  0  0  0  0  0  0  0  0  0
   36.3340   29.8870   49.1900 Cl  0  0  0  0  0  0  0  0  0  0  0  0
   35.5440   29.7990   47.6150 C   0  0  0  0  0  0  0  0  0  0  0  0
   36.1560   30.3390   46.5390 C   0  0  0  0  0  0  0  0  0  0  0  0
   35.5490   30.2770   45.3030 C   0  0  0  0  0  0  0  0  0  0  0  0
   34.3100   29.6540   45.1920 C   0  0  0  0  0  0  0  0  0  0  0  0
   33.7360   29.1150   46.3590 C   0  0  0  0  0  0  0  0  0  0  0  0
   34.3190   29.1690   47.5690 C   0  0  0  0  0  0  0  0  0  0  0  0
   36.0650   30.7230   44.4440 H   0  0  0  0  0  0  0  0  0  0  0  0
   33.9290   29.6610   44.1920 H   0  0  0  0  0  0  0  0  0  0  0  0
   32.8330   28.7070   46.0680 H   0  0  0  0  0  0  0  0  0  0  0  0
   38.8670   32.6030   47.6070 C   0  0  0  0  0  0  0  0  0  0  0  0
   39.9470   32.1240   46.7760 C   0  0  0  0  0  0  0  0  0  0  0  0
   39.6880   31.0650   45.9050 C   0  0  0  0  0  0  0  0  0  0  0  0
   38.4410   30.5240   45.8690 N   0  0  0  0  0  0  0  0  0  0  0  0
   37.4500   30.9930   46.6590 C   0  0  0  0  0  0  0  0  0  0  0  0
   37.6700   32.0110   47.5060 N   0  0  0  0  0  0  0  0  0  0  0  0
   39.0720   33.4170   48.2730 H   0  0  0  0  0  0  0  0  0  0  0  0
   40.9160   32.5670   46.8240 H   0  0  0  0  0  0  0  0  0  0  0  0
   40.7640   30.6280   45.1150 N   0  0  0  0  0  0  0  0  0  0  0  0
   40.7680   31.1780   44.2520 H   0  0  0  0  0  0  0  0  0  0  0  0
   41.4820   29.8720   45.3110 H   0  0  0  0  0  0  0  0  0  0  0  0
   32.7220   27.5110   48.5720 C   0  0  0  0  0  0  0  0  0  0  0  0
   32.8620   26.6690   49.2890 H   0  0  0  0  0  0  0  0  0  0  0  0
   32.8890   27.0490   47.5680 H   0  0  0  0  0  0  0  0  0  0  0  0
   31.4340   27.9690   48.6870 O   0  0  0  0  0  0  0  0  0  0  0  0
   30.9190   25.5440   47.8330 O   0  0  0  0  0  0  0  0  0  0  0  0
   30.3820   26.9530   47.8930 P   0  0  2  0  0  0  0  0  0  0  0  0
   30.2210   27.5730   46.2830 O   0  0  0  0  0  0  0  0  0  0  0  0
   28.1220   25.9880   45.0040 Cl  0  0  0  0  0  0  0  0  0  0  0  0
   28.1090   27.7040   45.3910 C   0  0  0  0  0  0  0  0  0  0  0  0
   29.1470   28.3990   46.0040 C   0  0  0  0  0  0  0  0  0  0  0  0
   29.0050   29.7490   46.2520 C   0  0  0  0  0  0  0  0  0  0  0  0
   29.8640   30.1980   46.7300 H   0  0  0  0  0  0  0  0  0  0  0  0
   27.8430   30.3990   45.8940 C   0  0  0  0  0  0  0  0  0  0  0  0
   27.7820   31.4510   46.1090 H   0  0  0  0  0  0  0  0  0  0  0  0
   26.8030   29.7040   45.2800 C   0  0  0  0  0  3  0  0  0  0  0  0
   26.9230   28.3490   45.0220 C   0  0  0  0  0  3  0  0  0  0  0  0
   28.8610   26.9410   48.5400 O   0  0  0  0  0  0  0  0  0  0  0  0
   28.8960   27.3160   49.8740 C   0  0  0  0  0  0  0  0  0  0  0  0
   27.6630   27.1420   50.4980 F   0  0  0  0  0  0  0  0  0  0  0  0
   29.7890   26.5500   50.5890 F   0  0  0  0  0  0  0  0  0  0  0  0
   29.2440   28.6580   49.9760 F   0  0  0  0  0  0  0  0  0  0  0  0
  1  2  1  0  0  0  0
  1  3  1  0  0  0  0
  5  4  1  0  0  0  0
  6 18  1  0  0  0  0
  6  5  2  0  0  0  0
  7  6  1  0  0  0  0
  8  7  2  0  0  0  0
  8  9  1  0  0  0  0
  9 10  2  0  0  0  0
 10  5  1  0  0  0  0
 10  1  1  0  0  0  0
 11  7  1  0  0  0  0
 12  8  1  0  0  0  0
 13  9  1  0  0  0  0
 14 20  1  0  0  0  0
 15 21  1  0  0  0  0
 15 14  2  0  0  0  0
 16 15  1  0  0  0  0
 17 16  2  0  0  0  0
 17 18  1  0  0  0  0
 18 19  2  0  0  0  0
 19 14  1  0  0  0  0
 22 24  1  0  0  0  0
 22 16  1  0  0  0  0
 23 22  1  0  0  0  0
 25 28  1  0  0  0  0
 25  1  1  0  0  0  0
 25 26  1  0  0  0  0
 27 25  1  0  0  0  0
 30 29  2  6  0  0  0
 30 41  1  0  0  0  0
 30 28  1  0  0  0  0
 31 30  1  0  0  0  0
 32 33  1  0  0  0  0
 33 34  1  0  0  0  0
 34 35  2  0  0  0  0
 34 31  1  0  0  0  0
 35 36  1  0  0  0  0
 37 38  1  0  0  0  0
 37 35  1  0  0  0  0
 39 37  2  0  0  0  0
 40 39  1  0  0  0  0
 40 33  2  0  0  0  0
 41 42  1  0  0  0  0
 42 45  1  0  0  0  0
 42 43  1  0  0  0  0
 42 44  1  0  0  0  0
M  END
>  <minimizedAffinity>
-5.49093008

>  <minimizedRMSD>
1.81419933

$$$$
