REMARK  Name = 
REMARK  3 active torsions:
REMARK  status: ('A' for Active; 'I' for Inactive)
REMARK    1  A    between atoms: C_1  and  N_9
REMARK    2  A    between atoms: C_2  and  N_10
REMARK    3  A    between atoms: N_15  and  C_26
REMARK                            x       y       z     vdW  Elec       q    Type
REMARK                         _______ _______ _______ _____ _____    ______ ____
ROOT
ATOM      1  N   UNL     1      36.713  31.328  48.961  0.00  0.00    +0.000 N 
ATOM      2  C   UNL     1      36.553  32.333  49.815  0.00  0.00    +0.000 A 
ATOM      3  C   UNL     1      37.528  33.323  49.928  0.00  0.00    +0.000 A 
ATOM      4  C   UNL     1      38.609  33.148  49.103  0.00  0.00    +0.000 A 
ATOM      5  O   UNL     1      39.488  34.059  49.219  0.00  0.00    +0.000 OA
ATOM      6  N   UNL     1      38.809  32.152  48.231  0.00  0.00    +0.000 N 
ATOM      7  C   UNL     1      37.824  31.232  48.176  0.00  0.00    +0.000 A 
ATOM      8  O   UNL     1      37.997  30.284  47.357  0.00  0.00    +0.000 OA
ATOM      9  H   UNL     1      35.661  32.392  50.431  0.00  0.00    +0.000 HD
ATOM     10  H   UNL     1      37.420  34.142  50.609  0.00  0.00    +0.000 HD
ENDROOT
BRANCH   6  13
ATOM     11 CL   UNL     1      38.680  30.427  45.739  0.00  0.00    +0.000 Cl
ATOM     12  C   UNL     1      40.090  31.328  46.255  0.00  0.00    +0.000 A 
ATOM     13  C   UNL     1      39.972  32.063  47.417  0.00  0.00    +0.000 A 
ATOM     14  C   UNL     1      41.026  32.807  47.907  0.00  0.00    +0.000 A 
ATOM     15  H   UNL     1      41.006  33.405  48.808  0.00  0.00    +0.000 HD
ATOM     16  C   UNL     1      42.233  32.815  47.212  0.00  0.00    +0.000 A 
ATOM     17  H   UNL     1      43.102  33.391  47.560  0.00  0.00    +0.000 HD
ATOM     18  C   UNL     1      42.371  32.078  46.033  0.00  0.00    +0.000 A 
ATOM     19  C   UNL     1      41.294  31.328  45.548  0.00  0.00    +0.000 A 
ENDBRANCH   6  13
BRANCH   1  21
ATOM     20  C   UNL     1      35.650  29.328  49.837  0.00  0.00    +0.000 A 
ATOM     21  C   UNL     1      35.745  30.280  48.808  0.00  0.00    +0.000 A 
ATOM     22  C   UNL     1      34.905  30.170  47.686  0.00  0.00    +0.000 A 
ATOM     23  N   UNL     1      34.036  29.128  47.668  0.00  0.00    +0.000 NA
ATOM     24  C   UNL     1      33.945  28.231  48.634  0.00  0.00    +0.000 A 
ATOM     25  N   UNL     1      34.747  28.330  49.711  0.00  0.00    +0.000 NA
ATOM     26  H   UNL     1      35.058  30.941  46.968  0.00  0.00    +0.000 HD
ATOM     27  H   UNL     1      33.231  27.418  48.566  0.00  0.00    +0.000 HD
BRANCH  20  30
ATOM     28  C   UNL     1      37.638  30.071  51.355  0.00  0.00    +0.000 C 
ATOM     29  O   UNL     1      38.216  30.822  50.535  0.00  0.00    +0.000 OA
ATOM     30  N   UNL     1      36.438  29.356  51.008  0.00  0.00    +0.000 N 
ATOM     31  H   UNL     1      38.095  29.996  52.328  0.00  0.00    +0.000 HD
ATOM     32  H   UNL     1      36.130  28.749  51.830  0.00  0.00    +0.000 HD
ENDBRANCH  20  30
ENDBRANCH   1  21
TORSDOF 3
