
     RDKit          3D

 47 49  0  0  0  0  0  0  0  0999 V2000
   37.6021   30.4566   48.5143 Cl  0  0  0  0  0  0  0  0  0  0  0  0
   36.4465   30.3183   47.1876 C   0  0  0  0  0  0  0  0  0  0  0  0
   36.8177   30.7021   45.9470 C   0  0  0  0  0  0  0  0  0  0  0  0
   35.9251   30.5990   44.9032 C   0  0  0  0  0  0  0  0  0  0  0  0
   34.6513   30.0981   45.1530 C   0  0  0  0  0  0  0  0  0  0  0  0
   34.3394   29.7194   46.4728 C   0  0  0  0  0  0  0  0  0  0  0  0
   35.2021   29.8151   47.4993 C   0  0  0  0  0  0  0  0  0  0  0  0
   39.8252   32.8391   45.9976 C   0  0  0  0  0  0  0  0  0  0  0  0
   40.6879   32.0944   45.1098 C   0  0  0  0  0  0  0  0  0  0  0  0
   40.1949   30.9145   44.5503 C   0  0  0  0  0  0  0  0  0  0  0  0
   38.9334   30.5101   44.8561 N   0  0  0  0  0  0  0  0  0  0  0  0
   38.1488   31.2278   45.6904 C   0  0  0  0  0  0  0  0  0  0  0  0
   38.5973   32.3672   46.2433 N   0  0  0  0  0  0  0  0  0  0  0  0
   41.0637   30.2193   43.6928 N   0  0  0  0  0  0  0  0  0  0  0  0
   34.8299   29.4167   48.8234 C   0  0  0  0  0  0  0  0  0  0  0  0
   34.1792   28.1202   49.0441 C   0  0  0  0  0  0  0  0  0  0  0  0
   32.8631   28.2817   49.3973 O   0  0  0  0  0  0  0  0  0  0  0  0
   32.6617   26.6929   47.3211 O   0  0  0  0  0  0  0  0  0  0  0  0
   31.8679   27.5224   48.3007 P   0  0  2  0  0  0  0  0  0  0  0  0
   31.0332   28.7760   47.4442 O   0  0  0  0  0  0  0  0  0  0  0  0
   30.7028   26.5862   49.0048 O   0  0  0  0  0  0  0  0  0  0  0  0
   29.8460   27.3654   49.7657 C   0  0  0  0  0  0  0  0  0  0  0  0
   29.3133   26.6580   50.8414 F   0  0  0  0  0  0  0  0  0  0  0  0
   30.5002   28.4452   50.3153 F   0  0  0  0  0  0  0  0  0  0  0  0
   28.7904   27.8083   48.9777 F   0  0  0  0  0  0  0  0  0  0  0  0
   36.2491   30.9169   43.9040 H   0  0  0  0  0  0  0  0  0  0  0  0
   34.0389   30.0600   44.2763 H   0  0  0  0  0  0  0  0  0  0  0  0
   33.3633   29.3831   46.4470 H   0  0  0  0  0  0  0  0  0  0  0  0
   40.2088   33.7443   46.4244 H   0  0  0  0  0  0  0  0  0  0  0  0
   41.6729   32.4345   44.8872 H   0  0  0  0  0  0  0  0  0  0  0  0
   40.9330   30.5823   42.7451 H   0  0  0  0  0  0  0  0  0  0  0  0
   41.7566   29.4468   43.9165 H   0  0  0  0  0  0  0  0  0  0  0  0
   34.1794   30.2376   49.2503 H   0  0  0  0  0  0  0  0  0  0  0  0
   35.7334   29.4510   49.4732 H   0  0  0  0  0  0  0  0  0  0  0  0
   34.6743   27.4804   49.8100 H   0  0  0  0  0  0  0  0  0  0  0  0
   34.2638   27.5326   48.0965 H   0  0  0  0  0  0  0  0  0  0  0  0
   28.2645   29.5739   47.9425 Cl  0  0  0  0  0  0  0  0  0  0  0  0
   28.9289   28.7737   46.5237 C   0  0  0  0  0  0  0  0  0  0  0  0
   30.2639   28.4207   46.3511 C   0  0  0  0  0  0  0  0  0  0  0  0
   30.6526   27.7949   45.1845 C   0  0  0  0  0  0  0  0  0  0  0  0
   31.7080   27.5611   45.1445 H   0  0  0  0  0  0  0  0  0  0  0  0
   29.7242   27.5239   44.2021 C   0  0  0  0  0  0  0  0  0  0  0  0
   30.0777   27.0346   43.3115 H   0  0  0  0  0  0  0  0  0  0  0  0
   28.3871   27.8770   44.3742 C   0  0  0  0  0  0  0  0  0  0  0  0
   27.9747   28.5057   45.5367 C   0  0  0  0  0  0  0  0  0  0  0  0
   27.7581   27.6168   43.5452 H   0  0  0  0  0  0  0  0  0  0  0  0
   26.9341   28.7588   45.6240 H   0  0  0  0  0  0  0  0  0  0  0  0
  2  7  2  0
  2  1  1  0
  3  2  1  0
  4  5  1  0
  4  3  2  0
  5  6  2  0
  6  7  1  0
  7 15  1  0
  8 13  2  0
  9  8  1  0
 10 11  1  0
 10  9  2  0
 11 12  2  0
 12  3  1  0
 12 13  1  0
 14 10  1  0
 15 16  1  0
 16 17  1  0
 19 18  2  0
 19 21  1  1
 19 17  1  0
 20 19  1  0
 21 22  1  0
 22 24  1  0
 22 23  1  0
 25 22  1  0
  4 26  1  0
  5 27  1  0
  6 28  1  0
  8 29  1  0
  9 30  1  0
 14 31  1  0
 14 32  1  0
 15 33  1  0
 15 34  1  0
 16 35  1  0
 16 36  1  0
 37 38  1  0
 38 39  2  0
 39 40  1  0
 40 41  1  0
 40 42  2  0
 42 43  1  0
 42 44  1  0
 44 45  2  0
 45 38  1  0
 44 46  1  0
 45 47  1  0
 20 39  1  0
M  ISO  8  26  14  27  14  28  14  29  14  30  14  33   8  34   8  35   8
M  ISO  3  36   8  41  15  43  16
M  END
>  <DihAtoms>  (1) 
18,19,38,37

>  <DihDeg>  (1) 
179.99927880520454

$$$$
