
     RDKit          3D

 36 38  0  0  0  0  0  0  0  0999 V2000
   36.4689   29.8866   48.6863 N   0  0  0  0  0  0  0  0  0  0  0  0
   37.5924   30.6463   48.2292 C   0  0  0  0  0  0  0  0  0  0  0  0
   38.0948   31.2961   49.5236 C   0  0  2  0  0  0  0  0  0  0  0  0
   37.1102   30.8943   50.5976 C   0  0  0  0  0  0  0  0  0  0  0  0
   36.7331   29.5209   50.0609 C   0  0  0  0  0  0  0  0  0  0  0  0
   35.2926   29.5463   47.9262 C   0  0  0  0  0  0  0  0  0  0  0  0
   35.2225   30.0038   46.6127 C   0  0  0  0  0  0  0  0  0  0  0  0
   34.0870   29.6768   45.8773 C   0  0  0  0  0  0  0  0  0  0  0  0
   33.1271   28.9280   46.5098 N   0  0  0  0  0  0  0  0  0  0  0  0
   33.2252   28.5083   47.7623 C   0  0  0  0  0  0  0  0  0  0  0  0
   34.3134   28.8154   48.4838 N   0  0  0  0  0  0  0  0  0  0  0  0
   31.9321   27.5336   48.5057 S   0  0  0  0  0  0  0  0  0  0  0  0
   38.2653   32.7757   49.4048 C   0  0  0  0  0  0  0  0  0  0  0  0
   37.0931   33.3416   49.8802 F   0  0  0  0  0  0  0  0  0  0  0  0
   38.3189   33.0772   48.0583 F   0  0  0  0  0  0  0  0  0  0  0  0
   39.3721   33.2630   50.0251 F   0  0  0  0  0  0  0  0  0  0  0  0
   38.3748   30.0652   47.7329 H   0  0  0  0  0  0  0  0  0  0  0  0
   37.2995   31.4899   47.5644 H   0  0  0  0  0  0  0  0  0  0  0  0
   39.0765   30.8338   49.8326 H   0  0  0  0  0  0  0  0  0  0  0  0
   36.2415   31.5962   50.5182 H   0  0  0  0  0  0  0  0  0  0  0  0
   37.5558   30.8467   51.5941 H   0  0  0  0  0  0  0  0  0  0  0  0
   35.8135   29.2052   50.6011 H   0  0  0  0  0  0  0  0  0  0  0  0
   37.5843   28.8589   50.2074 H   0  0  0  0  0  0  0  0  0  0  0  0
   36.0115   30.5865   46.1799 H   0  0  0  0  0  0  0  0  0  0  0  0
   33.9486   29.9824   44.8710 H   0  0  0  0  0  0  0  0  0  0  0  0
   30.2550   26.5391   51.0468 Cl  0  0  0  0  0  0  0  0  0  0  0  0
   29.9539   28.1208   50.3937 C   0  0  0  0  0  0  0  0  0  0  0  0
   30.6961   28.5159   49.2974 C   0  0  0  0  0  0  0  0  0  0  0  0
   30.4651   29.7759   48.7669 C   0  0  0  0  0  0  0  0  0  0  0  0
   31.0186   30.1558   47.8954 H   0  0  0  0  0  0  0  0  0  0  0  0
   29.5026   30.5961   49.3485 C   0  0  0  0  0  0  0  0  0  0  0  0
   29.3440   31.5804   48.9091 H   0  0  0  0  0  0  0  0  0  0  0  0
   28.7481   30.2142   50.4503 C   0  0  0  0  0  0  0  0  0  0  0  0
   28.9904   28.9465   50.9728 C   0  0  0  0  0  0  0  0  0  0  0  0
   28.0041   30.8608   50.8916 H   0  0  0  0  0  0  0  0  0  0  0  0
   28.4387   28.5724   51.8379 H   0  0  0  0  0  0  0  0  0  0  0  0
  1  5  1  0
  2  1  1  0
  2  3  1  0
  3  4  1  0
  5  4  1  0
  6 11  1  0
  6  1  1  0
  7  6  2  0
  8  9  2  0
  8  7  1  0
  9 10  1  0
 10 11  2  0
 10 12  1  0
 13  3  1  0
 13 14  1  0
 13 16  1  0
 15 13  1  0
  2 17  1  0
  2 18  1  0
  3 19  1  1
  4 20  1  0
  4 21  1  0
  5 22  1  0
  5 23  1  0
  7 24  1  0
  8 25  1  0
 26 27  1  0
 27 28  2  0
 28 29  1  0
 29 30  1  0
 29 31  2  0
 31 32  1  0
 31 33  1  0
 33 34  2  0
 34 27  1  0
 33 35  1  0
 34 36  1  0
 12 28  1  0
M  ISO  8  17  13  18  13  19  13  20  13  21  13  22  13  23  13  24  14
M  ISO  3  25  14  30  15  32  16
M  END
>  <DihAtoms>  (1) 
9,11,27,26

>  <DihDeg>  (1) 
-0.015500693975307742

$$$$
