
 OpenBabel03262520363D

 42 44  0  0  0  0  0  0  0  0999 V2000
   37.6290   22.6800   33.1300 C   0  0  0  0  0  0  0  0  0  0  0  0
   36.9040   23.3570   32.1350 C   0  0  0  0  0  0  0  0  0  0  0  0
   35.6790   22.9070   31.6970 C   0  0  0  0  0  0  0  0  0  0  0  0
   35.1520   21.7620   32.2480 C   0  0  0  0  0  0  0  0  0  0  0  0
   35.8460   21.0980   33.2120 C   0  0  0  0  0  0  0  0  0  0  0  0
   37.0720   21.5150   33.6770 C   0  0  0  0  0  0  0  0  0  0  0  0
   35.1860   23.4850   30.9290 H   0  0  0  0  0  0  0  0  0  0  0  0
   34.1940   21.4710   31.8570 H   0  0  0  0  0  0  0  0  0  0  0  0
   35.3590   20.1980   33.6000 H   0  0  0  0  0  0  0  0  0  0  0  0
   37.5030   20.9010   34.4210 H   0  0  0  0  0  0  0  0  0  0  0  0
   39.1860   23.1910   33.7320 S   0  0  0  0  0  0  0  0  0  0  0  0
   39.7330   22.2180   34.7020 O   0  0  0  0  0  0  0  0  0  0  0  0
   40.1240   23.3450   32.5220 O   0  0  0  0  0  0  0  0  0  0  0  0
   37.4890   23.5020   36.4340 Cl  0  0  0  0  0  0  0  0  0  0  0  0
   38.3620   24.8070   35.6340 C   0  0  0  0  0  0  0  0  0  0  0  0
   39.1070   24.7610   34.4490 C   0  0  0  0  0  0  0  0  0  0  0  0
   39.6950   25.9050   33.9850 C   0  0  0  0  0  0  0  0  0  0  0  0
   40.2490   25.7990   33.0750 H   0  0  0  0  0  0  0  0  0  0  0  0
   39.5970   27.1270   34.6300 C   0  0  0  0  0  0  0  0  0  0  0  0
   40.0740   28.0090   34.2360 H   0  0  0  0  0  0  0  0  0  0  0  0
   38.8580   27.1430   35.7950 C   0  0  0  0  0  3  0  0  0  0  0  0
   38.2350   26.0110   36.3180 C   0  0  0  0  0  3  0  0  0  0  0  0
   37.5660   24.4740   31.6890 O   0  0  0  0  0  0  0  0  0  0  0  0
   38.0280   26.9530   30.9280 O   0  0  0  0  0  0  0  0  0  0  0  0
   36.9320   26.0190   31.4390 P   0  0  1  0  0  0  0  0  0  0  0  0
   35.6170   25.9720   30.3810 O   0  0  0  0  0  0  0  0  0  0  0  0
   35.3280   25.0230   30.2730 H   0  0  0  0  0  0  0  0  0  0  0  0
   36.4220   26.7220   32.9110 O   0  0  0  0  0  0  0  0  0  0  0  0
   36.6590   28.1040   32.8350 C   0  0  0  0  0  0  0  0  0  0  0  0
   37.7620   28.2170   33.0210 H   0  0  0  0  0  0  0  0  0  0  0  0
   36.3960   28.4880   31.8530 H   0  0  0  0  0  0  0  0  0  0  0  0
   35.6070   30.0890   33.8390 C   0  0  0  0  0  3  0  0  0  0  0  0
   35.9950   28.8450   33.9330 C   0  0  0  0  0  3  0  0  0  0  0  0
   34.9590   32.0540   36.8610 C   0  0  0  0  0  0  0  0  0  0  0  0
   33.6000   31.7690   37.1110 C   0  0  0  0  0  0  0  0  0  0  0  0
   32.9410   30.9070   36.2350 C   0  0  0  0  0  0  0  0  0  0  0  0
   33.6960   30.4160   35.1980 N   0  0  0  0  0  0  0  0  0  0  0  0
   34.9660   30.7000   34.9880 C   0  0  0  0  0  0  0  0  0  0  0  0
   35.5810   31.5220   35.8320 N   0  0  0  0  0  0  0  0  0  0  0  0
   35.3650   32.7250   37.5950 H   0  0  0  0  0  0  0  0  0  0  0  0
   32.9750   32.1360   37.9150 H   0  0  0  0  0  0  0  0  0  0  0  0
   31.8960   30.6220   36.3340 H   0  0  0  0  0  0  0  0  0  0  0  0
  1  6  1  0  0  0  0
  1 11  1  0  0  0  0
  2  1  2  0  0  0  0
  3  2  1  0  0  0  0
  3  4  2  0  0  0  0
  4  5  1  0  0  0  0
  5  9  1  0  0  0  0
  5  6  2  0  0  0  0
  6 10  1  0  0  0  0
  7  3  1  0  0  0  0
  8  4  1  0  0  0  0
 11 16  1  0  0  0  0
 11 12  2  0  0  0  0
 13 11  2  0  0  0  0
 15 22  1  0  0  0  0
 15 14  1  0  0  0  0
 16 15  2  0  0  0  0
 17 16  1  0  0  0  0
 17 19  2  0  0  0  0
 18 17  1  0  0  0  0
 19 21  1  0  0  0  0
 20 19  1  0  0  0  0
 21 22  2  0  0  0  0
 23  2  1  0  0  0  0
 25 24  2  6  0  0  0
 25 23  1  0  0  0  0
 25 28  1  0  0  0  0
 26 25  1  0  0  0  0
 27 26  1  0  0  0  0
 29 28  1  0  0  0  0
 29 30  1  0  0  0  0
 29 33  1  0  0  0  0
 31 29  1  0  0  0  0
 32 33  2  0  0  0  0
 32 38  1  0  0  0  0
 34 35  1  0  0  0  0
 34 40  1  0  0  0  0
 35 41  1  0  0  0  0
 36 42  1  0  0  0  0
 36 35  2  0  0  0  0
 37 36  1  0  0  0  0
 38 37  2  0  0  0  0
 38 39  1  0  0  0  0
 39 34  2  0  0  0  0
M  END
>  <minimizedAffinity>
-6.25544405

$$$$

 OpenBabel03262520363D

 42 44  0  0  0  0  0  0  0  0999 V2000
   37.3170   24.8820   33.1080 C   0  0  0  0  0  0  0  0  0  0  0  0
   36.6200   25.4810   32.0450 C   0  0  0  0  0  0  0  0  0  0  0  0
   36.0520   24.7340   31.0380 C   0  0  0  0  0  0  0  0  0  0  0  0
   36.1720   23.3650   31.0730 C   0  0  0  0  0  0  0  0  0  0  0  0
   36.8450   22.7730   32.0980 C   0  0  0  0  0  0  0  0  0  0  0  0
   37.4260   23.4840   33.1230 C   0  0  0  0  0  0  0  0  0  0  0  0
   35.5330   25.2710   30.2570 H   0  0  0  0  0  0  0  0  0  0  0  0
   35.7040   22.8480   30.2540 H   0  0  0  0  0  0  0  0  0  0  0  0
   36.8950   21.6810   32.0540 H   0  0  0  0  0  0  0  0  0  0  0  0
   37.9250   22.8990   33.8480 H   0  0  0  0  0  0  0  0  0  0  0  0
   38.0630   25.7650   34.4160 S   0  0  0  0  0  0  0  0  0  0  0  0
   39.2220   26.5510   33.9420 O   0  0  0  0  0  0  0  0  0  0  0  0
   36.9900   26.6830   35.0280 O   0  0  0  0  0  0  0  0  0  0  0  0
   40.8010   24.1400   34.0490 Cl  0  0  0  0  0  0  0  0  0  0  0  0
   39.7600   24.0550   35.4680 C   0  0  0  0  0  0  0  0  0  0  0  0
   38.5460   24.7130   35.7000 C   0  0  0  0  0  0  0  0  0  0  0  0
   37.8790   24.4920   36.8730 C   0  0  0  0  0  0  0  0  0  0  0  0
   36.9580   25.0260   36.9850 H   0  0  0  0  0  0  0  0  0  0  0  0
   38.3440   23.6410   37.8630 C   0  0  0  0  0  0  0  0  0  0  0  0
   37.7920   23.4900   38.7760 H   0  0  0  0  0  0  0  0  0  0  0  0
   39.5420   23.0070   37.6090 C   0  0  0  0  0  3  0  0  0  0  0  0
   40.2670   23.1920   36.4330 C   0  0  0  0  0  3  0  0  0  0  0  0
   36.5940   26.8490   32.1550 O   0  0  0  0  0  0  0  0  0  0  0  0
   38.7240   27.9090   31.0240 O   0  0  0  0  0  0  0  0  0  0  0  0
   37.1980   27.9850   31.0620 P   0  0  1  0  0  0  0  0  0  0  0  0
   36.5300   27.7650   29.5270 O   0  0  0  0  0  0  0  0  0  0  0  0
   35.7480   27.1490   29.6040 H   0  0  0  0  0  0  0  0  0  0  0  0
   36.8620   29.5800   31.5780 O   0  0  0  0  0  0  0  0  0  0  0  0
   35.4680   29.7150   31.6800 C   0  0  0  0  0  0  0  0  0  0  0  0
   35.1900   30.4470   30.8730 H   0  0  0  0  0  0  0  0  0  0  0  0
   34.9730   28.7620   31.5180 H   0  0  0  0  0  0  0  0  0  0  0  0
   34.4190   29.7390   33.9070 C   0  0  0  0  0  3  0  0  0  0  0  0
   35.0620   30.3580   32.9530 C   0  0  0  0  0  3  0  0  0  0  0  0
   32.6460   31.0950   36.8100 C   0  0  0  0  0  0  0  0  0  0  0  0
   33.6130   31.9580   37.3680 C   0  0  0  0  0  0  0  0  0  0  0  0
   34.8500   32.0530   36.7310 C   0  0  0  0  0  0  0  0  0  0  0  0
   35.0030   31.2820   35.6050 N   0  0  0  0  0  0  0  0  0  0  0  0
   34.0820   30.4820   35.1050 C   0  0  0  0  0  0  0  0  0  0  0  0
   32.9080   30.4030   35.7240 N   0  0  0  0  0  0  0  0  0  0  0  0
   31.7350   31.1000   37.3790 H   0  0  0  0  0  0  0  0  0  0  0  0
   33.5270   32.5790   38.2500 H   0  0  0  0  0  0  0  0  0  0  0  0
   35.6640   32.6860   37.0750 H   0  0  0  0  0  0  0  0  0  0  0  0
  1  6  1  0  0  0  0
  1 11  1  0  0  0  0
  2 23  1  0  0  0  0
  2  1  2  0  0  0  0
  3  4  2  0  0  0  0
  3  2  1  0  0  0  0
  4  5  1  0  0  0  0
  5  6  2  0  0  0  0
  6 10  1  0  0  0  0
  7  3  1  0  0  0  0
  8  4  1  0  0  0  0
  9  5  1  0  0  0  0
 11 13  2  0  0  0  0
 11 16  1  0  0  0  0
 12 11  2  0  0  0  0
 14 15  1  0  0  0  0
 15 16  2  0  0  0  0
 15 22  1  0  0  0  0
 16 17  1  0  0  0  0
 17 18  1  0  0  0  0
 17 19  2  0  0  0  0
 19 20  1  0  0  0  0
 21 19  1  0  0  0  0
 22 21  2  0  0  0  0
 25 24  2  6  0  0  0
 25 28  1  0  0  0  0
 25 23  1  0  0  0  0
 26 27  1  0  0  0  0
 26 25  1  0  0  0  0
 28 29  1  0  0  0  0
 29 33  1  0  0  0  0
 30 29  1  0  0  0  0
 31 29  1  0  0  0  0
 32 38  1  0  0  0  0
 33 32  2  0  0  0  0
 34 35  1  0  0  0  0
 34 40  1  0  0  0  0
 35 41  1  0  0  0  0
 36 42  1  0  0  0  0
 36 35  2  0  0  0  0
 37 36  1  0  0  0  0
 38 37  2  0  0  0  0
 38 39  1  0  0  0  0
 39 34  2  0  0  0  0
M  END
>  <minimizedAffinity>
-6.19226694

$$$$

 OpenBabel03262520363D

 42 44  0  0  0  0  0  0  0  0999 V2000
   38.6180   25.2430   33.5660 C   0  0  0  0  0  0  0  0  0  0  0  0
   37.5030   26.0960   33.6380 C   0  0  0  0  0  0  0  0  0  0  0  0
   37.3990   27.0730   34.6030 C   0  0  0  0  0  0  0  0  0  0  0  0
   38.4120   27.2170   35.5210 C   0  0  0  0  0  0  0  0  0  0  0  0
   39.4970   26.3960   35.4600 C   0  0  0  0  0  0  0  0  0  0  0  0
   39.6390   25.4090   34.5130 C   0  0  0  0  0  0  0  0  0  0  0  0
   36.5100   27.6870   34.5900 H   0  0  0  0  0  0  0  0  0  0  0  0
   38.2620   27.9990   36.2430 H   0  0  0  0  0  0  0  0  0  0  0  0
   40.2590   26.5750   36.2250 H   0  0  0  0  0  0  0  0  0  0  0  0
   40.5270   24.8400   34.5870 H   0  0  0  0  0  0  0  0  0  0  0  0
   38.8170   23.9840   32.3740 S   0  0  0  0  0  0  0  0  0  0  0  0
   38.9830   24.5490   31.0180 O   0  0  0  0  0  0  0  0  0  0  0  0
   40.0490   23.1540   32.7770 O   0  0  0  0  0  0  0  0  0  0  0  0
   38.4340   22.1880   35.0010 Cl  0  0  0  0  0  0  0  0  0  0  0  0
   37.3880   22.1400   33.5840 C   0  0  0  0  0  0  0  0  0  0  0  0
   37.4950   22.8730   32.3950 C   0  0  0  0  0  0  0  0  0  0  0  0
   36.5790   22.6690   31.4000 C   0  0  0  0  0  0  0  0  0  0  0  0
   36.7190   23.2610   30.5200 H   0  0  0  0  0  0  0  0  0  0  0  0
   35.5330   21.7660   31.5030 C   0  0  0  0  0  0  0  0  0  0  0  0
   34.8280   21.6300   30.6980 H   0  0  0  0  0  0  0  0  0  0  0  0
   35.4510   21.0590   32.6840 C   0  0  0  0  0  3  0  0  0  0  0  0
   36.3540   21.2220   33.7330 C   0  0  0  0  0  3  0  0  0  0  0  0
   36.5840   25.8220   32.6570 O   0  0  0  0  0  0  0  0  0  0  0  0
   37.3160   27.5510   30.8090 O   0  0  0  0  0  0  0  0  0  0  0  0
   36.1020   26.8230   31.3850 P   0  0  1  0  0  0  0  0  0  0  0  0
   35.2860   25.9450   30.1960 O   0  0  0  0  0  0  0  0  0  0  0  0
   35.0530   25.0480   30.5660 H   0  0  0  0  0  0  0  0  0  0  0  0
   35.0760   28.0740   31.9380 O   0  0  0  0  0  0  0  0  0  0  0  0
   35.8530   29.2340   32.0890 C   0  0  0  0  0  0  0  0  0  0  0  0
   36.8910   28.8600   32.3050 H   0  0  0  0  0  0  0  0  0  0  0  0
   35.8430   29.8280   31.1790 H   0  0  0  0  0  0  0  0  0  0  0  0
   34.4840   29.6790   34.0860 C   0  0  0  0  0  3  0  0  0  0  0  0
   35.4590   30.0170   33.2840 C   0  0  0  0  0  3  0  0  0  0  0  0
   32.8260   31.3390   36.8980 C   0  0  0  0  0  0  0  0  0  0  0  0
   33.8340   32.2080   37.3630 C   0  0  0  0  0  0  0  0  0  0  0  0
   35.0600   32.2030   36.6970 C   0  0  0  0  0  0  0  0  0  0  0  0
   35.1610   31.3350   35.6380 N   0  0  0  0  0  0  0  0  0  0  0  0
   34.2010   30.5320   35.2240 C   0  0  0  0  0  0  0  0  0  0  0  0
   33.0380   30.5490   35.8690 N   0  0  0  0  0  0  0  0  0  0  0  0
   31.9270   31.4260   37.4810 H   0  0  0  0  0  0  0  0  0  0  0  0
   33.7910   32.9040   38.1910 H   0  0  0  0  0  0  0  0  0  0  0  0
   35.9040   32.8310   36.9720 H   0  0  0  0  0  0  0  0  0  0  0  0
  1  2  2  0  0  0  0
  1  6  1  0  0  0  0
  2  3  1  0  0  0  0
  3  4  2  0  0  0  0
  4  8  1  0  0  0  0
  5  4  1  0  0  0  0
  5  9  1  0  0  0  0
  6 10  1  0  0  0  0
  6  5  2  0  0  0  0
  7  3  1  0  0  0  0
 11 16  1  0  0  0  0
 11 13  2  0  0  0  0
 11  1  1  0  0  0  0
 12 11  2  0  0  0  0
 15 22  1  0  0  0  0
 15 14  1  0  0  0  0
 16 15  2  0  0  0  0
 17 19  2  0  0  0  0
 17 16  1  0  0  0  0
 18 17  1  0  0  0  0
 19 21  1  0  0  0  0
 20 19  1  0  0  0  0
 21 22  2  0  0  0  0
 23  2  1  0  0  0  0
 25 24  2  6  0  0  0
 25 28  1  0  0  0  0
 25 23  1  0  0  0  0
 26 27  1  0  0  0  0
 26 25  1  0  0  0  0
 28 29  1  0  0  0  0
 29 30  1  0  0  0  0
 29 33  1  0  0  0  0
 31 29  1  0  0  0  0
 32 38  1  0  0  0  0
 33 32  2  0  0  0  0
 34 35  1  0  0  0  0
 34 40  1  0  0  0  0
 35 41  1  0  0  0  0
 36 42  1  0  0  0  0
 36 35  2  0  0  0  0
 37 36  1  0  0  0  0
 38 37  2  0  0  0  0
 38 39  1  0  0  0  0
 39 34  2  0  0  0  0
M  END
>  <minimizedAffinity>
-6.04663754

$$$$

 OpenBabel03262520363D

 42 44  0  0  0  0  0  0  0  0999 V2000
   38.1600   23.5800   33.1610 C   0  0  0  0  0  0  0  0  0  0  0  0
   37.4660   24.4130   32.2680 C   0  0  0  0  0  0  0  0  0  0  0  0
   36.3660   23.9700   31.5680 C   0  0  0  0  0  0  0  0  0  0  0  0
   35.9360   22.6770   31.7480 C   0  0  0  0  0  0  0  0  0  0  0  0
   36.6010   21.8600   32.6110 C   0  0  0  0  0  0  0  0  0  0  0  0
   37.7030   22.2640   33.3280 C   0  0  0  0  0  0  0  0  0  0  0  0
   35.8880   24.6740   30.9010 H   0  0  0  0  0  0  0  0  0  0  0  0
   35.0730   22.4020   31.1690 H   0  0  0  0  0  0  0  0  0  0  0  0
   36.1970   20.8470   32.6980 H   0  0  0  0  0  0  0  0  0  0  0  0
   38.1270   21.5260   33.9540 H   0  0  0  0  0  0  0  0  0  0  0  0
   39.5600   24.0720   34.0790 S   0  0  0  0  0  0  0  0  0  0  0  0
   40.7830   23.3900   33.6010 O   0  0  0  0  0  0  0  0  0  0  0  0
   39.6940   25.5980   33.9400 O   0  0  0  0  0  0  0  0  0  0  0  0
   37.3250   25.7950   35.5980 Cl  0  0  0  0  0  0  0  0  0  0  0  0
   38.3390   24.5670   36.3530 C   0  0  0  0  0  0  0  0  0  0  0  0
   39.3450   23.7870   35.7690 C   0  0  0  0  0  0  0  0  0  0  0  0
   40.0340   22.8950   36.5450 C   0  0  0  0  0  0  0  0  0  0  0  0
   40.7890   22.3330   36.0360 H   0  0  0  0  0  0  0  0  0  0  0  0
   39.7890   22.7150   37.8960 C   0  0  0  0  0  0  0  0  0  0  0  0
   40.3510   22.0030   38.4780 H   0  0  0  0  0  0  0  0  0  0  0  0
   38.7920   23.4950   38.4440 C   0  0  0  0  0  3  0  0  0  0  0  0
   38.0560   24.4200   37.7070 C   0  0  0  0  0  3  0  0  0  0  0  0
   38.0200   25.6670   32.2000 O   0  0  0  0  0  0  0  0  0  0  0  0
   39.1830   27.7670   31.1160 O   0  0  0  0  0  0  0  0  0  0  0  0
   38.1670   26.6600   30.8420 P   0  0  1  0  0  0  0  0  0  0  0  0
   38.5850   25.7610   29.4760 O   0  0  0  0  0  0  0  0  0  0  0  0
   38.4560   24.7920   29.6780 H   0  0  0  0  0  0  0  0  0  0  0  0
   36.7060   27.4890   30.5220 O   0  0  0  0  0  0  0  0  0  0  0  0
   35.9610   27.5250   31.7120 C   0  0  0  0  0  0  0  0  0  0  0  0
   34.8870   27.5190   31.3790 H   0  0  0  0  0  0  0  0  0  0  0  0
   36.1740   26.6560   32.3280 H   0  0  0  0  0  0  0  0  0  0  0  0
   35.3580   29.2010   33.4100 C   0  0  0  0  0  3  0  0  0  0  0  0
   36.1410   28.8000   32.4440 C   0  0  0  0  0  3  0  0  0  0  0  0
   36.1140   31.7900   35.8880 C   0  0  0  0  0  0  0  0  0  0  0  0
   36.1770   32.9510   35.0900 C   0  0  0  0  0  0  0  0  0  0  0  0
   35.9570   32.8150   33.7190 C   0  0  0  0  0  0  0  0  0  0  0  0
   35.6970   31.5400   33.2790 N   0  0  0  0  0  0  0  0  0  0  0  0
   35.6440   30.4710   34.0480 C   0  0  0  0  0  0  0  0  0  0  0  0
   35.8560   30.6170   35.3520 N   0  0  0  0  0  0  0  0  0  0  0  0
   36.2980   32.0090   36.9230 H   0  0  0  0  0  0  0  0  0  0  0  0
   36.3780   33.9680   35.4010 H   0  0  0  0  0  0  0  0  0  0  0  0
   35.9820   33.6430   33.0140 H   0  0  0  0  0  0  0  0  0  0  0  0
  1  6  1  0  0  0  0
  1 11  1  0  0  0  0
  2  1  2  0  0  0  0
  3  4  2  0  0  0  0
  3  2  1  0  0  0  0
  4  5  1  0  0  0  0
  5  9  1  0  0  0  0
  5  6  2  0  0  0  0
  6 10  1  0  0  0  0
  7  3  1  0  0  0  0
  8  4  1  0  0  0  0
 11 16  1  0  0  0  0
 12 11  2  0  0  0  0
 13 11  2  0  0  0  0
 14 15  1  0  0  0  0
 15 22  1  0  0  0  0
 16 15  2  0  0  0  0
 16 17  1  0  0  0  0
 17 19  2  0  0  0  0
 18 17  1  0  0  0  0
 19 21  1  0  0  0  0
 19 20  1  0  0  0  0
 22 21  2  0  0  0  0
 23  2  1  0  0  0  0
 25 24  2  1  0  0  0
 25 23  1  0  0  0  0
 26 27  1  0  0  0  0
 26 25  1  0  0  0  0
 28 25  1  0  0  0  0
 28 29  1  0  0  0  0
 29 31  1  0  0  0  0
 29 33  1  0  0  0  0
 30 29  1  0  0  0  0
 32 38  1  0  0  0  0
 33 32  2  0  0  0  0
 34 40  1  0  0  0  0
 35 41  1  0  0  0  0
 35 34  2  0  0  0  0
 36 35  1  0  0  0  0
 37 36  2  0  0  0  0
 37 38  1  0  0  0  0
 38 39  2  0  0  0  0
 39 34  1  0  0  0  0
 42 36  1  0  0  0  0
M  END
>  <minimizedAffinity>
-5.88487148

$$$$

 OpenBabel03262520363D

 42 44  0  0  0  0  0  0  0  0999 V2000
   37.8770   22.5150   32.9580 C   0  0  0  0  0  0  0  0  0  0  0  0
   37.1590   23.6180   32.4640 C   0  0  0  0  0  0  0  0  0  0  0  0
   36.0050   23.4620   31.7300 C   0  0  0  0  0  0  0  0  0  0  0  0
   35.5420   22.1930   31.4730 C   0  0  0  0  0  0  0  0  0  0  0  0
   36.2290   21.1170   31.9460 C   0  0  0  0  0  0  0  0  0  0  0  0
   37.3860   21.2300   32.6830 C   0  0  0  0  0  0  0  0  0  0  0  0
   35.5130   24.3610   31.3870 H   0  0  0  0  0  0  0  0  0  0  0  0
   34.6370   22.1490   30.8950 H   0  0  0  0  0  0  0  0  0  0  0  0
   35.7970   20.1430   31.6990 H   0  0  0  0  0  0  0  0  0  0  0  0
   37.8210   20.3140   32.9790 H   0  0  0  0  0  0  0  0  0  0  0  0
   39.3460   22.6360   33.8920 S   0  0  0  0  0  0  0  0  0  0  0  0
   40.2040   21.4470   33.7020 O   0  0  0  0  0  0  0  0  0  0  0  0
   40.0750   23.9160   33.4470 O   0  0  0  0  0  0  0  0  0  0  0  0
   41.8060   22.3940   35.9330 Cl  0  0  0  0  0  0  0  0  0  0  0  0
   40.1440   22.7600   36.3930 C   0  0  0  0  0  0  0  0  0  0  0  0
   39.0140   22.8640   35.5730 C   0  0  0  0  0  0  0  0  0  0  0  0
   37.8000   23.1400   36.1390 C   0  0  0  0  0  0  0  0  0  0  0  0
   36.9800   23.2060   35.4540 H   0  0  0  0  0  0  0  0  0  0  0  0
   37.6210   23.3260   37.5000 C   0  0  0  0  0  0  0  0  0  0  0  0
   36.6490   23.5420   37.9130 H   0  0  0  0  0  0  0  0  0  0  0  0
   38.7500   23.2180   38.2840 C   0  0  0  0  0  3  0  0  0  0  0  0
   40.0130   22.9390   37.7660 C   0  0  0  0  0  3  0  0  0  0  0  0
   37.7520   24.8080   32.8030 O   0  0  0  0  0  0  0  0  0  0  0  0
   38.8850   27.1600   32.4480 O   0  0  0  0  0  0  0  0  0  0  0  0
   37.8040   26.2310   31.8960 P   0  0  1  0  0  0  0  0  0  0  0  0
   38.0530   25.8990   30.2590 O   0  0  0  0  0  0  0  0  0  0  0  0
   37.9060   24.9240   30.1060 H   0  0  0  0  0  0  0  0  0  0  0  0
   36.3530   27.1200   32.0560 O   0  0  0  0  0  0  0  0  0  0  0  0
   36.6350   28.4640   31.7600 C   0  0  0  0  0  0  0  0  0  0  0  0
   37.7460   28.5630   31.9020 H   0  0  0  0  0  0  0  0  0  0  0  0
   36.3580   28.7010   30.7360 H   0  0  0  0  0  0  0  0  0  0  0  0
   35.6670   29.0390   33.9480 C   0  0  0  0  0  3  0  0  0  0  0  0
   36.0260   29.3910   32.7430 C   0  0  0  0  0  3  0  0  0  0  0  0
   33.2930   31.0930   35.8350 C   0  0  0  0  0  0  0  0  0  0  0  0
   34.1490   32.0050   36.4890 C   0  0  0  0  0  0  0  0  0  0  0  0
   35.5210   31.8910   36.2640 C   0  0  0  0  0  0  0  0  0  0  0  0
   35.9050   30.8830   35.4140 N   0  0  0  0  0  0  0  0  0  0  0  0
   35.0830   30.0440   34.8150 C   0  0  0  0  0  0  0  0  0  0  0  0
   33.7780   30.1660   35.0400 N   0  0  0  0  0  0  0  0  0  0  0  0
   32.2620   31.2720   36.0790 H   0  0  0  0  0  0  0  0  0  0  0  0
   33.8830   32.8080   37.1640 H   0  0  0  0  0  0  0  0  0  0  0  0
   36.2670   32.5400   36.7170 H   0  0  0  0  0  0  0  0  0  0  0  0
  1 11  1  0  0  0  0
  2 23  1  0  0  0  0
  2  1  2  0  0  0  0
  3  2  1  0  0  0  0
  4  3  2  0  0  0  0
  4  5  1  0  0  0  0
  5  6  2  0  0  0  0
  6  1  1  0  0  0  0
  6 10  1  0  0  0  0
  7  3  1  0  0  0  0
  8  4  1  0  0  0  0
  9  5  1  0  0  0  0
 11 16  1  0  0  0  0
 12 11  2  0  0  0  0
 13 11  2  0  0  0  0
 14 15  1  0  0  0  0
 15 22  1  0  0  0  0
 16 17  1  0  0  0  0
 16 15  2  0  0  0  0
 17 19  2  0  0  0  0
 18 17  1  0  0  0  0
 19 20  1  0  0  0  0
 19 21  1  0  0  0  0
 22 21  2  0  0  0  0
 25 28  1  0  0  0  0
 25 24  2  1  0  0  0
 25 23  1  0  0  0  0
 26 25  1  0  0  0  0
 27 26  1  0  0  0  0
 29 30  1  0  0  0  0
 29 28  1  0  0  0  0
 29 33  1  0  0  0  0
 31 29  1  0  0  0  0
 32 38  1  0  0  0  0
 33 32  2  0  0  0  0
 34 40  1  0  0  0  0
 34 35  1  0  0  0  0
 35 41  1  0  0  0  0
 36 35  2  0  0  0  0
 36 42  1  0  0  0  0
 37 36  1  0  0  0  0
 38 39  1  0  0  0  0
 38 37  2  0  0  0  0
 39 34  2  0  0  0  0
M  END
>  <minimizedAffinity>
-5.8498745

$$$$

 OpenBabel03262520363D

 42 44  0  0  0  0  0  0  0  0999 V2000
   37.3750   27.4290   33.1520 C   0  0  0  0  0  0  0  0  0  0  0  0
   38.7170   27.0410   33.0030 C   0  0  0  0  0  0  0  0  0  0  0  0
   39.5620   26.9230   34.0830 C   0  0  0  0  0  0  0  0  0  0  0  0
   39.0800   27.1920   35.3420 C   0  0  0  0  0  0  0  0  0  0  0  0
   37.7810   27.5690   35.4990 C   0  0  0  0  0  0  0  0  0  0  0  0
   36.9050   27.6990   34.4460 C   0  0  0  0  0  0  0  0  0  0  0  0
   40.5800   26.6190   33.8830 H   0  0  0  0  0  0  0  0  0  0  0  0
   39.7960   27.0790   36.1350 H   0  0  0  0  0  0  0  0  0  0  0  0
   37.4740   27.7650   36.5310 H   0  0  0  0  0  0  0  0  0  0  0  0
   35.9290   28.0070   34.7090 H   0  0  0  0  0  0  0  0  0  0  0  0
   36.2470   27.6010   31.8310 S   0  0  0  0  0  0  0  0  0  0  0  0
   36.0290   26.3120   31.1390 O   0  0  0  0  0  0  0  0  0  0  0  0
   34.9290   28.1410   32.4130 O   0  0  0  0  0  0  0  0  0  0  0  0
   35.9930   30.6740   32.7070 Cl  0  0  0  0  0  0  0  0  0  0  0  0
   36.6420   30.1130   31.1670 C   0  0  0  0  0  0  0  0  0  0  0  0
   36.7700   28.7990   30.7010 C   0  0  0  0  0  0  0  0  0  0  0  0
   37.2860   28.5800   29.4530 C   0  0  0  0  0  0  0  0  0  0  0  0
   37.3560   27.5530   29.1600 H   0  0  0  0  0  0  0  0  0  0  0  0
   37.6990   29.6000   28.6110 C   0  0  0  0  0  0  0  0  0  0  0  0
   38.1020   29.3910   27.6340 H   0  0  0  0  0  0  0  0  0  0  0  0
   37.5620   30.8840   29.0970 C   0  0  0  0  0  3  0  0  0  0  0  0
   37.0430   31.1700   30.3570 C   0  0  0  0  0  3  0  0  0  0  0  0
   39.0410   26.8120   31.6880 O   0  0  0  0  0  0  0  0  0  0  0  0
   39.2520   25.3830   29.4860 O   0  0  0  0  0  0  0  0  0  0  0  0
   39.5400   25.3600   30.9860 P   0  0  1  0  0  0  0  0  0  0  0  0
   41.1720   25.0640   31.2980 O   0  0  0  0  0  0  0  0  0  0  0  0
   41.4790   25.6870   32.0150 H   0  0  0  0  0  0  0  0  0  0  0  0
   38.6250   24.0420   31.5770 O   0  0  0  0  0  0  0  0  0  0  0  0
   39.5150   23.1270   32.1640 C   0  0  0  0  0  0  0  0  0  0  0  0
   39.0980   22.1150   31.9070 H   0  0  0  0  0  0  0  0  0  0  0  0
   40.5150   23.2430   31.7540 H   0  0  0  0  0  0  0  0  0  0  0  0
   38.4110   23.4040   34.3460 C   0  0  0  0  0  3  0  0  0  0  0  0
   39.4930   23.2000   33.6430 C   0  0  0  0  0  3  0  0  0  0  0  0
   37.8010   24.0880   37.8920 C   0  0  0  0  0  0  0  0  0  0  0  0
   38.8920   23.4400   38.5080 C   0  0  0  0  0  0  0  0  0  0  0  0
   39.8120   22.7860   37.6880 C   0  0  0  0  0  0  0  0  0  0  0  0
   39.5550   22.8390   36.3400 N   0  0  0  0  0  0  0  0  0  0  0  0
   38.5250   23.4520   35.7910 C   0  0  0  0  0  0  0  0  0  0  0  0
   37.6580   24.0720   36.5850 N   0  0  0  0  0  0  0  0  0  0  0  0
   37.1590   24.5570   38.6140 H   0  0  0  0  0  0  0  0  0  0  0  0
   39.1260   23.3780   39.5630 H   0  0  0  0  0  0  0  0  0  0  0  0
   40.6870   22.2560   38.0580 H   0  0  0  0  0  0  0  0  0  0  0  0
  1  6  1  0  0  0  0
  2  1  2  0  0  0  0
  2  3  1  0  0  0  0
  3  4  2  0  0  0  0
  4  5  1  0  0  0  0
  4  8  1  0  0  0  0
  5  9  1  0  0  0  0
  6 10  1  0  0  0  0
  6  5  2  0  0  0  0
  7  3  1  0  0  0  0
 11 13  2  0  0  0  0
 11  1  1  0  0  0  0
 12 11  2  0  0  0  0
 15 14  1  0  0  0  0
 16 15  1  0  0  0  0
 16 11  1  0  0  0  0
 17 16  2  0  0  0  0
 18 17  1  0  0  0  0
 19 21  2  0  0  0  0
 19 17  1  0  0  0  0
 20 19  1  0  0  0  0
 21 22  1  0  0  0  0
 22 15  2  0  0  0  0
 23  2  1  0  0  0  0
 25 24  2  6  0  0  0
 25 26  1  0  0  0  0
 25 28  1  0  0  0  0
 25 23  1  0  0  0  0
 26 27  1  0  0  0  0
 28 29  1  0  0  0  0
 29 33  1  0  0  0  0
 30 29  1  0  0  0  0
 31 29  1  0  0  0  0
 32 38  1  0  0  0  0
 33 32  2  0  0  0  0
 34 35  1  0  0  0  0
 34 40  1  0  0  0  0
 35 41  1  0  0  0  0
 36 42  1  0  0  0  0
 36 35  2  0  0  0  0
 37 36  1  0  0  0  0
 38 37  2  0  0  0  0
 38 39  1  0  0  0  0
 39 34  2  0  0  0  0
M  END
>  <minimizedAffinity>
-5.76117897

$$$$

 OpenBabel03262520363D

 42 44  0  0  0  0  0  0  0  0999 V2000
   37.9710   25.8900   34.1790 C   0  0  0  0  0  0  0  0  0  0  0  0
   37.4630   26.1600   32.8970 C   0  0  0  0  0  0  0  0  0  0  0  0
   36.7420   27.3020   32.6290 C   0  0  0  0  0  0  0  0  0  0  0  0
   36.5130   28.2020   33.6430 C   0  0  0  0  0  0  0  0  0  0  0  0
   37.0010   27.9500   34.8890 C   0  0  0  0  0  0  0  0  0  0  0  0
   37.7250   26.8220   35.1980 C   0  0  0  0  0  0  0  0  0  0  0  0
   36.3860   27.4350   31.6180 H   0  0  0  0  0  0  0  0  0  0  0  0
   35.9440   29.0680   33.3600 H   0  0  0  0  0  0  0  0  0  0  0  0
   36.7760   28.7140   35.6400 H   0  0  0  0  0  0  0  0  0  0  0  0
   38.0350   26.7490   36.2050 H   0  0  0  0  0  0  0  0  0  0  0  0
   38.8910   24.4650   34.5920 S   0  0  0  0  0  0  0  0  0  0  0  0
   38.4270   23.2860   33.8290 O   0  0  0  0  0  0  0  0  0  0  0  0
   40.3700   24.7650   34.2930 O   0  0  0  0  0  0  0  0  0  0  0  0
   40.8770   22.2260   35.7410 Cl  0  0  0  0  0  0  0  0  0  0  0  0
   39.7380   23.1590   36.7100 C   0  0  0  0  0  0  0  0  0  0  0  0
   38.8280   24.1360   36.2870 C   0  0  0  0  0  0  0  0  0  0  0  0
   38.0110   24.7320   37.2080 C   0  0  0  0  0  0  0  0  0  0  0  0
   37.3400   25.4690   36.8170 H   0  0  0  0  0  0  0  0  0  0  0  0
   38.0340   24.4220   38.5580 C   0  0  0  0  0  0  0  0  0  0  0  0
   37.3760   24.9120   39.2570 H   0  0  0  0  0  0  0  0  0  0  0  0
   38.9410   23.4580   38.9470 C   0  0  0  0  0  3  0  0  0  0  0  0
   39.7980   22.8150   38.0560 C   0  0  0  0  0  3  0  0  0  0  0  0
   37.7740   25.1670   32.0020 O   0  0  0  0  0  0  0  0  0  0  0  0
   38.6820   26.4470   29.8870 O   0  0  0  0  0  0  0  0  0  0  0  0
   38.9190   25.2170   30.7620 P   0  0  1  0  0  0  0  0  0  0  0  0
   40.4890   25.1940   31.3830 O   0  0  0  0  0  0  0  0  0  0  0  0
   40.4470   24.9380   32.3470 H   0  0  0  0  0  0  0  0  0  0  0  0
   38.7350   23.8920   29.6970 O   0  0  0  0  0  0  0  0  0  0  0  0
   39.4480   22.8070   30.2320 C   0  0  0  0  0  0  0  0  0  0  0  0
   39.9790   22.3500   29.3520 H   0  0  0  0  0  0  0  0  0  0  0  0
   40.1630   23.1430   30.9770 H   0  0  0  0  0  0  0  0  0  0  0  0
   37.2450   21.8530   30.7780 C   0  0  0  0  0  3  0  0  0  0  0  0
   38.5470   21.7470   30.7440 C   0  0  0  0  0  3  0  0  0  0  0  0
   34.5650   19.8050   32.2030 C   0  0  0  0  0  0  0  0  0  0  0  0
   35.1680   18.5310   32.2620 C   0  0  0  0  0  0  0  0  0  0  0  0
   36.4820   18.4080   31.8100 C   0  0  0  0  0  0  0  0  0  0  0  0
   37.0640   19.5610   31.3460 N   0  0  0  0  0  0  0  0  0  0  0  0
   36.4770   20.7400   31.3020 C   0  0  0  0  0  0  0  0  0  0  0  0
   35.2240   20.8420   31.7360 N   0  0  0  0  0  0  0  0  0  0  0  0
   33.5570   19.7840   32.5740 H   0  0  0  0  0  0  0  0  0  0  0  0
   34.7410   17.6030   32.6200 H   0  0  0  0  0  0  0  0  0  0  0  0
   37.0400   17.4750   31.8110 H   0  0  0  0  0  0  0  0  0  0  0  0
  1 11  1  0  0  0  0
  1  6  1  0  0  0  0
  2  1  2  0  0  0  0
  3  2  1  0  0  0  0
  3  4  2  0  0  0  0
  4  5  1  0  0  0  0
  5  6  2  0  0  0  0
  5  9  1  0  0  0  0
  6 10  1  0  0  0  0
  7  3  1  0  0  0  0
  8  4  1  0  0  0  0
 11 16  1  0  0  0  0
 12 11  2  0  0  0  0
 13 11  2  0  0  0  0
 14 15  1  0  0  0  0
 15 22  1  0  0  0  0
 16 15  2  0  0  0  0
 16 17  1  0  0  0  0
 17 19  2  0  0  0  0
 18 17  1  0  0  0  0
 19 21  1  0  0  0  0
 19 20  1  0  0  0  0
 22 21  2  0  0  0  0
 23  2  1  0  0  0  0
 25 24  2  6  0  0  0
 25 26  1  0  0  0  0
 25 23  1  0  0  0  0
 26 27  1  0  0  0  0
 28 29  1  0  0  0  0
 28 25  1  0  0  0  0
 29 33  1  0  0  0  0
 29 31  1  0  0  0  0
 30 29  1  0  0  0  0
 32 38  1  0  0  0  0
 33 32  2  0  0  0  0
 34 35  1  0  0  0  0
 34 40  1  0  0  0  0
 35 41  1  0  0  0  0
 36 42  1  0  0  0  0
 36 35  2  0  0  0  0
 37 36  1  0  0  0  0
 38 37  2  0  0  0  0
 38 39  1  0  0  0  0
 39 34  2  0  0  0  0
M  END
>  <minimizedAffinity>
-5.69970989

$$$$

 OpenBabel03262520363D

 42 44  0  0  0  0  0  0  0  0999 V2000
   37.7940   23.0340   33.2420 C   0  0  0  0  0  0  0  0  0  0  0  0
   38.6510   24.1460   33.3040 C   0  0  0  0  0  0  0  0  0  0  0  0
   39.3740   24.4420   34.4370 C   0  0  0  0  0  0  0  0  0  0  0  0
   39.2530   23.6280   35.5390 C   0  0  0  0  0  0  0  0  0  0  0  0
   38.4260   22.5480   35.4900 C   0  0  0  0  0  0  0  0  0  0  0  0
   37.6860   22.2180   34.3780 C   0  0  0  0  0  0  0  0  0  0  0  0
   40.0110   25.3140   34.4040 H   0  0  0  0  0  0  0  0  0  0  0  0
   39.8470   23.9200   36.3860 H   0  0  0  0  0  0  0  0  0  0  0  0
   38.3850   21.9510   36.4070 H   0  0  0  0  0  0  0  0  0  0  0  0
   37.0790   21.3600   34.4810 H   0  0  0  0  0  0  0  0  0  0  0  0
   36.8460   22.5990   31.8420 S   0  0  0  0  0  0  0  0  0  0  0  0
   35.7060   23.5230   31.6570 O   0  0  0  0  0  0  0  0  0  0  0  0
   37.7820   22.6310   30.6210 O   0  0  0  0  0  0  0  0  0  0  0  0
   39.0220   20.2580   31.6030 Cl  0  0  0  0  0  0  0  0  0  0  0  0
   37.2940   20.0100   31.8430 C   0  0  0  0  0  0  0  0  0  0  0  0
   36.2790   20.9700   31.9380 C   0  0  0  0  0  0  0  0  0  0  0  0
   34.9850   20.5610   32.1070 C   0  0  0  0  0  0  0  0  0  0  0  0
   34.2610   21.3470   32.1720 H   0  0  0  0  0  0  0  0  0  0  0  0
   34.6140   19.2290   32.1910 C   0  0  0  0  0  0  0  0  0  0  0  0
   33.5830   18.9420   32.3240 H   0  0  0  0  0  0  0  0  0  0  0  0
   35.6330   18.3050   32.0940 C   0  0  0  0  0  3  0  0  0  0  0  0
   36.9690   18.6600   31.9220 C   0  0  0  0  0  3  0  0  0  0  0  0
   38.6570   24.8550   32.1280 O   0  0  0  0  0  0  0  0  0  0  0  0
   39.0750   27.4500   32.3000 O   0  0  0  0  0  0  0  0  0  0  0  0
   38.0500   26.4060   31.8560 P   0  0  1  0  0  0  0  0  0  0  0  0
   37.6190   26.6140   30.2370 O   0  0  0  0  0  0  0  0  0  0  0  0
   37.6000   25.7200   29.7940 H   0  0  0  0  0  0  0  0  0  0  0  0
   36.6780   26.7130   32.8280 O   0  0  0  0  0  0  0  0  0  0  0  0
   36.0790   27.8970   32.3690 C   0  0  0  0  0  0  0  0  0  0  0  0
   36.8370   28.3530   31.6760 H   0  0  0  0  0  0  0  0  0  0  0  0
   35.1560   27.6830   31.8380 H   0  0  0  0  0  0  0  0  0  0  0  0
   34.7420   29.4180   33.7680 C   0  0  0  0  0  3  0  0  0  0  0  0
   35.8940   28.8860   33.4570 C   0  0  0  0  0  3  0  0  0  0  0  0
   35.6460   31.9580   36.2470 C   0  0  0  0  0  0  0  0  0  0  0  0
   34.4300   32.1400   36.9380 C   0  0  0  0  0  0  0  0  0  0  0  0
   33.3290   31.3830   36.5350 C   0  0  0  0  0  0  0  0  0  0  0  0
   33.5460   30.5240   35.4860 N   0  0  0  0  0  0  0  0  0  0  0  0
   34.6950   30.3740   34.8580 C   0  0  0  0  0  0  0  0  0  0  0  0
   35.7350   31.1020   35.2530 N   0  0  0  0  0  0  0  0  0  0  0  0
   36.4230   32.5880   36.6390 H   0  0  0  0  0  0  0  0  0  0  0  0
   34.2220   32.8050   37.7660 H   0  0  0  0  0  0  0  0  0  0  0  0
   32.3470   31.4450   36.9980 H   0  0  0  0  0  0  0  0  0  0  0  0
  1  2  2  0  0  0  0
  1  6  1  0  0  0  0
  2  3  1  0  0  0  0
  3  4  2  0  0  0  0
  4  8  1  0  0  0  0
  5  4  1  0  0  0  0
  5  9  1  0  0  0  0
  6 10  1  0  0  0  0
  6  5  2  0  0  0  0
  7  3  1  0  0  0  0
 11 16  1  0  0  0  0
 11  1  1  0  0  0  0
 12 11  2  0  0  0  0
 13 11  2  0  0  0  0
 14 15  1  0  0  0  0
 15 22  2  0  0  0  0
 15 16  1  0  0  0  0
 16 17  2  0  0  0  0
 17 18  1  0  0  0  0
 17 19  1  0  0  0  0
 19 20  1  0  0  0  0
 21 19  2  0  0  0  0
 22 21  1  0  0  0  0
 23  2  1  0  0  0  0
 25 23  1  0  0  0  0
 25 24  2  1  0  0  0
 25 28  1  0  0  0  0
 26 25  1  0  0  0  0
 27 26  1  0  0  0  0
 29 28  1  0  0  0  0
 29 33  1  0  0  0  0
 30 29  1  0  0  0  0
 31 29  1  0  0  0  0
 32 38  1  0  0  0  0
 33 32  2  0  0  0  0
 34 40  1  0  0  0  0
 34 35  1  0  0  0  0
 35 41  1  0  0  0  0
 36 35  2  0  0  0  0
 36 42  1  0  0  0  0
 37 36  1  0  0  0  0
 38 39  1  0  0  0  0
 38 37  2  0  0  0  0
 39 34  2  0  0  0  0
M  END
>  <minimizedAffinity>
-5.66040087

$$$$

 OpenBabel03262520363D

 42 44  0  0  0  0  0  0  0  0999 V2000
   36.0420   29.5690   32.5040 C   0  0  0  0  0  0  0  0  0  0  0  0
   36.6590   28.3070   32.5210 C   0  0  0  0  0  0  0  0  0  0  0  0
   37.2200   27.7590   31.3890 C   0  0  0  0  0  0  0  0  0  0  0  0
   37.1740   28.4650   30.2110 C   0  0  0  0  0  0  0  0  0  0  0  0
   36.5780   29.6900   30.1830 C   0  0  0  0  0  0  0  0  0  0  0  0
   36.0060   30.2720   31.2900 C   0  0  0  0  0  0  0  0  0  0  0  0
   37.6760   26.7840   31.4860 H   0  0  0  0  0  0  0  0  0  0  0  0
   37.6310   27.9760   29.3700 H   0  0  0  0  0  0  0  0  0  0  0  0
   36.5820   30.1870   29.2080 H   0  0  0  0  0  0  0  0  0  0  0  0
   35.5710   31.2200   31.1250 H   0  0  0  0  0  0  0  0  0  0  0  0
   35.3100   30.3250   33.8970 S   0  0  0  0  0  0  0  0  0  0  0  0
   36.0500   30.0000   35.1350 O   0  0  0  0  0  0  0  0  0  0  0  0
   35.2980   31.8430   33.6480 O   0  0  0  0  0  0  0  0  0  0  0  0
   33.7570   31.3500   36.5070 Cl  0  0  0  0  0  0  0  0  0  0  0  0
   33.0410   30.3810   35.2210 C   0  0  0  0  0  0  0  0  0  0  0  0
   33.6500   29.8790   34.0640 C   0  0  0  0  0  0  0  0  0  0  0  0
   32.9120   29.1240   33.1950 C   0  0  0  0  0  0  0  0  0  0  0  0
   33.4390   28.7730   32.3320 H   0  0  0  0  0  0  0  0  0  0  0  0
   31.5740   28.8240   33.3950 C   0  0  0  0  0  0  0  0  0  0  0  0
   31.0220   28.2250   32.6880 H   0  0  0  0  0  0  0  0  0  0  0  0
   31.0000   29.3310   34.5410 C   0  0  0  0  0  3  0  0  0  0  0  0
   31.7000   30.1060   35.4650 C   0  0  0  0  0  3  0  0  0  0  0  0
   36.6200   27.7340   33.7670 O   0  0  0  0  0  0  0  0  0  0  0  0
   39.1880   27.1520   33.8140 O   0  0  0  0  0  0  0  0  0  0  0  0
   37.9030   27.0630   34.6360 P   0  0  1  0  0  0  0  0  0  0  0  0
   38.0770   27.8140   36.1380 O   0  0  0  0  0  0  0  0  0  0  0  0
   37.2620   28.3590   36.3190 H   0  0  0  0  0  0  0  0  0  0  0  0
   37.6710   25.3880   34.8880 O   0  0  0  0  0  0  0  0  0  0  0  0
   37.8570   25.1270   36.2550 C   0  0  0  0  0  0  0  0  0  0  0  0
   38.3250   26.0630   36.6660 H   0  0  0  0  0  0  0  0  0  0  0  0
   36.9070   24.9280   36.7440 H   0  0  0  0  0  0  0  0  0  0  0  0
   39.8850   23.8410   35.7150 C   0  0  0  0  0  3  0  0  0  0  0  0
   38.8520   24.0540   36.4860 C   0  0  0  0  0  3  0  0  0  0  0  0
   41.7330   21.2540   37.5340 C   0  0  0  0  0  0  0  0  0  0  0  0
   42.5440   20.7040   36.5190 C   0  0  0  0  0  0  0  0  0  0  0  0
   42.4360   21.2370   35.2340 C   0  0  0  0  0  0  0  0  0  0  0  0
   41.5330   22.2620   35.0870 N   0  0  0  0  0  0  0  0  0  0  0  0
   40.7870   22.7570   36.0530 C   0  0  0  0  0  0  0  0  0  0  0  0
   40.9010   22.2380   37.2720 N   0  0  0  0  0  0  0  0  0  0  0  0
   41.8970   20.7700   38.4790 H   0  0  0  0  0  0  0  0  0  0  0  0
   43.2640   19.9000   36.5990 H   0  0  0  0  0  0  0  0  0  0  0  0
   43.0130   20.8890   34.3810 H   0  0  0  0  0  0  0  0  0  0  0  0
  1  2  1  0  0  0  0
  1 11  1  0  0  0  0
  2 23  1  0  0  0  0
  3  7  1  0  0  0  0
  3  2  2  0  0  0  0
  4  3  1  0  0  0  0
  5  4  2  0  0  0  0
  5  6  1  0  0  0  0
  6  1  2  0  0  0  0
  8  4  1  0  0  0  0
  9  5  1  0  0  0  0
 10  6  1  0  0  0  0
 11 16  1  0  0  0  0
 11 12  2  0  0  0  0
 13 11  2  0  0  0  0
 15 22  1  0  0  0  0
 15 14  1  0  0  0  0
 16 15  2  0  0  0  0
 17 19  2  0  0  0  0
 17 16  1  0  0  0  0
 18 17  1  0  0  0  0
 19 21  1  0  0  0  0
 20 19  1  0  0  0  0
 21 22  2  0  0  0  0
 23 25  1  0  0  0  0
 25 24  2  6  0  0  0
 25 28  1  0  0  0  0
 25 26  1  0  0  0  0
 26 27  1  0  0  0  0
 28 29  1  0  0  0  0
 29 33  1  0  0  0  0
 29 30  1  0  0  0  0
 29 31  1  0  0  0  0
 32 38  1  0  0  0  0
 32 33  2  0  0  0  0
 34 40  1  0  0  0  0
 35 41  1  0  0  0  0
 35 34  2  0  0  0  0
 36 35  1  0  0  0  0
 37 36  2  0  0  0  0
 37 38  1  0  0  0  0
 38 39  2  0  0  0  0
 39 34  1  0  0  0  0
 42 36  1  0  0  0  0
M  END
>  <minimizedAffinity>
-5.62807369

$$$$
