
 OpenBabel03262520353D

 42 44  0  0  0  0  0  0  0  0999 V2000
   27.9360   28.2230   48.6150 C   0  0  0  0  0  0  0  0  0  0  0  0
   29.2290   27.9560   49.0950 C   0  0  0  0  0  0  0  0  0  0  0  0
   29.4440   27.4590   50.3610 C   0  0  0  0  0  0  0  0  0  0  0  0
   28.3640   27.2210   51.1780 C   0  0  0  0  0  0  0  0  0  0  0  0
   27.1070   27.4770   50.7230 C   0  0  0  0  0  0  0  0  0  0  0  0
   26.8500   27.9730   49.4660 C   0  0  0  0  0  0  0  0  0  0  0  0
   30.4680   27.2800   50.6540 H   0  0  0  0  0  0  0  0  0  0  0  0
   28.6080   26.8340   52.1510 H   0  0  0  0  0  0  0  0  0  0  0  0
   26.3020   27.2600   51.4320 H   0  0  0  0  0  0  0  0  0  0  0  0
   25.8290   28.1330   49.2460 H   0  0  0  0  0  0  0  0  0  0  0  0
   27.5880   28.8530   47.0240 S   0  0  0  0  0  0  0  0  0  0  0  0
   28.7950   28.8500   46.1700 O   0  0  0  0  0  0  0  0  0  0  0  0
   26.4800   27.9800   46.4110 O   0  0  0  0  0  0  0  0  0  0  0  0
   27.2370   30.4480   44.2660 Cl  0  0  0  0  0  0  0  0  0  0  0  0
   26.7850   31.0650   45.8540 C   0  0  0  0  0  0  0  0  0  0  0  0
   26.9210   30.4450   47.1020 C   0  0  0  0  0  0  0  0  0  0  0  0
   26.5220   31.1130   48.2270 C   0  0  0  0  0  0  0  0  0  0  0  0
   26.6540   30.5820   49.1470 H   0  0  0  0  0  0  0  0  0  0  0  0
   25.9790   32.3870   48.2020 C   0  0  0  0  0  0  0  0  0  0  0  0
   25.6740   32.8850   49.1090 H   0  0  0  0  0  0  0  0  0  0  0  0
   25.8550   32.9730   46.9600 C   0  0  0  0  0  0  0  0  0  0  0  0
   26.2450   32.3450   45.7790 C   0  0  0  0  0  0  0  0  0  0  0  0
   30.1930   28.2490   48.1630 O   0  0  0  0  0  0  0  0  0  0  0  0
   31.6110   26.0310   48.2700 O   0  0  0  0  0  0  0  0  0  0  0  0
   31.7110   27.5300   47.9860 P   0  0  1  0  0  0  0  0  0  0  0  0
   32.3490   27.8270   46.4520 O   0  0  0  0  0  0  0  0  0  0  0  0
   31.8120   28.5470   46.0170 H   0  0  0  0  0  0  0  0  0  0  0  0
   32.8110   28.1140   49.1560 O   0  0  0  0  0  0  0  0  0  0  0  0
   34.1090   27.7900   48.7280 C   0  0  0  0  0  0  0  0  0  0  0  0
   34.5470   27.1850   49.5690 H   0  0  0  0  0  0  0  0  0  0  0  0
   34.0800   27.2070   47.8120 H   0  0  0  0  0  0  0  0  0  0  0  0
   36.0650   29.1680   49.3070 C   0  0  0  0  0  0  0  0  0  0  0  0
   34.9730   28.9890   48.6130 C   0  0  0  0  0  0  0  0  0  0  0  0
   37.4150   32.5570   49.6260 C   0  0  0  0  0  0  0  0  0  0  0  0
   38.3400   32.6060   48.5620 C   0  0  0  0  0  0  0  0  0  0  0  0
   38.4760   31.4730   47.7600 C   0  0  0  0  0  0  0  0  0  0  0  0
   37.6810   30.4050   48.0960 N   0  0  0  0  0  0  0  0  0  0  0  0
   36.8240   30.3860   49.0980 C   0  0  0  0  0  0  0  0  0  0  0  0
   36.7050   31.4740   49.8520 N   0  0  0  0  0  0  0  0  0  0  0  0
   37.3920   33.4800   50.1750 H   0  0  0  0  0  0  0  0  0  0  0  0
   38.9810   33.4270   48.2690 H   0  0  0  0  0  0  0  0  0  0  0  0
   39.1580   31.4030   46.9170 H   0  0  0  0  0  0  0  0  0  0  0  0
  1  2  2  0  0  0  0
  1  6  1  0  0  0  0
  2  3  1  0  0  0  0
  3  7  1  0  0  0  0
  3  4  2  0  0  0  0
  4  8  1  0  0  0  0
  5  4  1  0  0  0  0
  5  9  1  0  0  0  0
  6  5  2  0  0  0  0
 10  6  1  0  0  0  0
 11 16  1  0  0  0  0
 11  1  1  0  0  0  0
 12 11  2  0  0  0  0
 13 11  2  0  0  0  0
 14 15  1  0  0  0  0
 15 16  1  0  0  0  0
 16 17  2  0  0  0  0
 17 18  1  0  0  0  0
 19 17  1  0  0  0  0
 19 20  1  0  0  0  0
 21 19  2  0  0  0  0
 22 15  2  0  0  0  0
 22 21  1  0  0  0  0
 23  2  1  0  0  0  0
 25 23  1  0  0  0  0
 25 24  2  1  0  0  0
 25 28  1  0  0  0  0
 26 25  1  0  0  0  0
 27 26  1  0  0  0  0
 29 28  1  0  0  0  0
 29 30  1  0  0  0  0
 31 29  1  0  0  0  0
 33 29  1  0  0  0  0
 33 32  2  0  0  0  0
 34 39  1  0  0  0  0
 34 40  1  0  0  0  0
 35 34  2  0  0  0  0
 36 37  2  0  0  0  0
 36 35  1  0  0  0  0
 37 38  1  0  0  0  0
 38 32  1  0  0  0  0
 38 39  2  0  0  0  0
 41 35  1  0  0  0  0
 42 36  1  0  0  0  0
M  END
>  <minimizedAffinity>
-7.07963753

>  <minimizedRMSD>
2.63253379

$$$$
