
 OpenBabel03272510113D

 35 38  0  0  0  0  0  0  0  0999 V2000
   33.3510   28.5370   47.9380 C   0  0  0  0  0  0  0  0  0  0  0  0
   34.3270   28.2320   48.8190 C   0  0  0  0  0  0  0  0  0  0  0  0
   35.4860   28.9520   49.0100 C   0  0  0  0  0  0  0  0  0  0  0  0
   35.6990   30.0750   48.2590 C   0  0  0  0  0  0  0  0  0  0  0  0
   34.7040   30.3990   47.3490 C   0  0  0  0  0  0  0  0  0  0  0  0
   33.5900   29.6510   47.2110 N   0  0  0  0  0  0  0  0  0  0  0  0
   34.2490   27.3560   49.4630 H   0  0  0  0  0  0  0  0  0  0  0  0
   36.2630   28.6980   49.7210 H   0  0  0  0  0  0  0  0  0  0  0  0
   34.7950   31.2760   46.7140 H   0  0  0  0  0  0  0  0  0  0  0  0
   31.1570   27.6050   48.7410 C   0  0  0  0  0  0  0  0  0  0  0  0
   32.1540   27.7670   47.7620 C   0  0  0  0  0  0  0  0  0  0  0  0
   31.9280   27.1220   46.5560 C   0  0  0  0  0  0  0  0  0  0  0  0
   30.7900   26.3870   46.3820 N   0  0  0  0  0  0  0  0  0  0  0  0
   29.8780   26.2760   47.3640 C   0  0  0  0  0  0  0  0  0  0  0  0
   30.0490   26.8840   48.5600 N   0  0  0  0  0  0  0  0  0  0  0  0
   31.3020   28.0900   49.6830 H   0  0  0  0  0  0  0  0  0  0  0  0
   32.6280   27.1790   45.7310 H   0  0  0  0  0  0  0  0  0  0  0  0
   28.9920   25.6830   47.1800 H   0  0  0  0  0  0  0  0  0  0  0  0
   36.8100   30.9210   48.3180 O   0  0  0  0  0  0  0  0  0  0  0  0
   37.6070   31.1390   47.2000 C   0  0  0  0  0  0  0  0  0  0  0  0
   38.9640   31.3000   47.5130 C   0  0  0  0  0  0  0  0  0  0  0  0
   39.6610   31.5110   46.3280 C   0  0  0  0  0  0  0  0  0  0  0  0
   38.7250   31.4730   45.3640 N   0  0  0  0  0  0  0  0  0  0  0  0
   37.5330   31.2580   45.8640 N   0  0  0  0  0  0  0  0  0  0  0  0
   39.5630   31.2950   48.4350 H   0  0  0  0  0  0  0  0  0  0  0  0
   40.7090   31.6790   46.1170 H   0  0  0  0  0  0  0  0  0  0  0  0
   39.0600   28.9300   43.8520 Cl  0  0  0  0  0  0  0  0  0  0  0  0
   39.0460   30.5270   43.1320 C   0  0  0  0  0  0  0  0  0  0  0  0
   38.8820   31.6300   43.9570 C   0  0  0  0  0  0  0  0  0  0  0  0
   38.8770   32.8760   43.3620 C   0  0  0  0  0  0  0  0  0  0  0  0
   38.7490   33.7700   43.9720 H   0  0  0  0  0  0  0  0  0  0  0  0
   39.0230   33.1060   42.0100 C   0  0  0  0  0  0  0  0  0  0  0  0
   39.0130   34.0940   41.5780 H   0  0  0  0  0  0  0  0  0  0  0  0
   39.1860   31.9670   41.2160 C   0  0  0  0  0  3  0  0  0  0  0  0
   39.2000   30.6980   41.7560 C   0  0  0  0  0  3  0  0  0  0  0  0
  1  2  1  0  0  0  0
  2  3  2  0  0  0  0
  2  7  1  0  0  0  0
  3  8  1  0  0  0  0
  4 19  1  0  0  0  0
  4  3  1  0  0  0  0
  5  4  2  0  0  0  0
  6  5  1  0  0  0  0
  6  1  2  0  0  0  0
  9  5  1  0  0  0  0
 10 16  1  0  0  0  0
 11  1  1  0  0  0  0
 11 10  2  0  0  0  0
 12 11  1  0  0  0  0
 13 12  2  0  0  0  0
 13 14  1  0  0  0  0
 14 15  2  0  0  0  0
 15 10  1  0  0  0  0
 17 12  1  0  0  0  0
 18 14  1  0  0  0  0
 20 21  1  0  0  0  0
 20 19  1  0  0  0  0
 21 25  1  0  0  0  0
 22 21  2  0  0  0  0
 23 24  1  0  0  0  0
 23 22  1  0  0  0  0
 24 20  2  0  0  0  0
 26 22  1  0  0  0  0
 28 27  1  0  0  0  0
 28 29  1  0  0  0  0
 29 23  1  0  0  0  0
 30 29  2  0  0  0  0
 30 31  1  0  0  0  0
 32 30  1  0  0  0  0
 33 32  1  0  0  0  0
 34 35  1  0  0  0  0
 34 32  2  0  0  0  0
 35 28  2  0  0  0  0
M  END
>  <minimizedAffinity>
-5.36513567

>  <minimizedRMSD>
2.87589836

$$$$
