
 OpenBabel03272508033D

 28 30  0  0  0  0  0  0  0  0999 V2000
   37.2550   26.6310   34.2470 C   0  0  0  0  0  0  0  0  0  0  0  0
   37.2820   27.0500   32.9530 C   0  0  0  0  0  0  0  0  0  0  0  0
   36.6640   28.2890   32.8220 C   0  0  0  0  0  0  0  0  0  0  0  0
   36.2700   28.5920   34.0810 N   0  0  0  0  0  0  0  0  0  0  0  0
   36.6170   27.6200   34.9090 N   0  0  0  0  0  0  0  0  0  0  0  0
   37.7130   26.5260   32.1060 H   0  0  0  0  0  0  0  0  0  0  0  0
   36.5000   28.9200   31.9600 H   0  0  0  0  0  0  0  0  0  0  0  0
   33.5270   28.9970   32.8760 Cl  0  0  0  0  0  0  0  0  0  0  0  0
   34.3120   30.0020   34.0770 C   0  0  0  0  0  0  0  0  0  0  0  0
   35.5840   29.7360   34.5770 C   0  0  0  0  0  0  0  0  0  0  0  0
   36.2190   30.5070   35.5170 C   0  0  0  0  0  0  0  0  0  0  0  0
   37.2090   30.2590   35.8740 H   0  0  0  0  0  0  0  0  0  0  0  0
   35.5610   31.6330   36.0140 C   0  0  0  0  0  0  0  0  0  0  0  0
   36.0970   32.2140   36.7550 H   0  0  0  0  0  0  0  0  0  0  0  0
   34.2970   31.9180   35.5330 C   0  0  0  0  0  3  0  0  0  0  0  0
   33.6690   31.1330   34.5870 C   0  0  0  0  0  3  0  0  0  0  0  0
   37.7860   25.4020   34.8070 C   0  0  0  0  0  0  0  0  0  0  0  0
   37.7600   25.2350   36.2100 C   0  0  0  0  0  0  0  0  0  0  0  0
   38.2660   24.0620   36.7570 C   0  0  0  0  0  0  0  0  0  0  0  0
   38.7640   23.1310   35.9010 N   0  0  0  0  0  0  0  0  0  0  0  0
   38.7850   23.3010   34.5590 C   0  0  0  0  0  0  0  0  0  0  0  0
   38.2930   24.4400   34.0340 N   0  0  0  0  0  0  0  0  0  0  0  0
   37.3500   26.0110   36.8590 H   0  0  0  0  0  0  0  0  0  0  0  0
   39.1780   22.5630   33.8810 H   0  0  0  0  0  0  0  0  0  0  0  0
   38.2430   23.8780   38.2290 C   0  0  0  0  0  0  0  0  0  0  0  0
   39.4700   23.3800   38.5720 F   0  0  0  0  0  0  0  0  0  0  0  0
   38.0280   25.0760   38.9070 F   0  0  0  0  0  0  0  0  0  0  0  0
   37.2780   22.9500   38.6200 F   0  0  0  0  0  0  0  0  0  0  0  0
  1 17  1  0  0  0  0
  1  5  2  0  0  0  0
  2  1  1  0  0  0  0
  3  2  2  0  0  0  0
  3  4  1  0  0  0  0
  4 10  1  0  0  0  0
  4  5  1  0  0  0  0
  6  2  1  0  0  0  0
  7  3  1  0  0  0  0
  8  9  1  0  0  0  0
  9 10  2  0  0  0  0
  9 16  1  0  0  0  0
 10 11  1  0  0  0  0
 11 12  1  0  0  0  0
 11 13  2  0  0  0  0
 13 14  1  0  0  0  0
 15 13  1  0  0  0  0
 16 15  2  0  0  0  0
 17 18  1  0  0  0  0
 18 19  2  0  0  0  0
 18 23  1  0  0  0  0
 19 25  1  0  0  0  0
 20 19  1  0  0  0  0
 21 20  2  0  0  0  0
 22 21  1  0  0  0  0
 22 17  2  0  0  0  0
 24 21  1  0  0  0  0
 25 26  1  0  0  0  0
 25 28  1  0  0  0  0
 25 27  1  0  0  0  0
M  END
>  <minimizedAffinity>
-6.06975031

$$$$

 OpenBabel03272508033D

 28 30  0  0  0  0  0  0  0  0999 V2000
   37.6500   25.3930   33.7600 C   0  0  0  0  0  0  0  0  0  0  0  0
   37.0340   25.0070   32.6100 C   0  0  0  0  0  0  0  0  0  0  0  0
   36.4330   26.0930   31.9820 C   0  0  0  0  0  0  0  0  0  0  0  0
   36.7140   27.1360   32.7970 N   0  0  0  0  0  0  0  0  0  0  0  0
   37.4250   26.7220   33.8330 N   0  0  0  0  0  0  0  0  0  0  0  0
   36.9880   24.0040   32.1990 H   0  0  0  0  0  0  0  0  0  0  0  0
   35.8640   26.1660   31.0670 H   0  0  0  0  0  0  0  0  0  0  0  0
   37.7680   28.4640   30.2940 Cl  0  0  0  0  0  0  0  0  0  0  0  0
   36.8070   29.2040   31.5580 C   0  0  0  0  0  0  0  0  0  0  0  0
   36.3640   28.5110   32.6800 C   0  0  0  0  0  0  0  0  0  0  0  0
   35.6110   29.0680   33.6820 C   0  0  0  0  0  0  0  0  0  0  0  0
   35.2900   28.4880   34.5360 H   0  0  0  0  0  0  0  0  0  0  0  0
   35.2580   30.4150   33.5840 C   0  0  0  0  0  0  0  0  0  0  0  0
   34.6630   30.8160   34.3960 H   0  0  0  0  0  0  0  0  0  0  0  0
   35.6870   31.1250   32.4780 C   0  0  0  0  0  3  0  0  0  0  0  0
   36.4440   30.5520   31.4770 C   0  0  0  0  0  3  0  0  0  0  0  0
   38.3880   24.5750   34.7040 C   0  0  0  0  0  0  0  0  0  0  0  0
   38.0040   24.6070   36.0650 C   0  0  0  0  0  0  0  0  0  0  0  0
   38.7040   23.8270   36.9780 C   0  0  0  0  0  0  0  0  0  0  0  0
   39.7290   23.0700   36.5070 N   0  0  0  0  0  0  0  0  0  0  0  0
   40.0880   23.0460   35.2020 C   0  0  0  0  0  0  0  0  0  0  0  0
   39.4070   23.8040   34.3210 N   0  0  0  0  0  0  0  0  0  0  0  0
   37.1740   25.2320   36.3980 H   0  0  0  0  0  0  0  0  0  0  0  0
   40.8990   22.4460   34.8290 H   0  0  0  0  0  0  0  0  0  0  0  0
   38.3080   23.8540   38.4080 C   0  0  0  0  0  0  0  0  0  0  0  0
   39.4250   23.5120   39.1210 F   0  0  0  0  0  0  0  0  0  0  0  0
   37.8750   25.1150   38.8120 F   0  0  0  0  0  0  0  0  0  0  0  0
   37.3150   22.9160   38.6900 F   0  0  0  0  0  0  0  0  0  0  0  0
  1  5  2  0  0  0  0
  1 17  1  0  0  0  0
  2  1  1  0  0  0  0
  3  2  2  0  0  0  0
  3  4  1  0  0  0  0
  4  5  1  0  0  0  0
  6  2  1  0  0  0  0
  7  3  1  0  0  0  0
  8  9  1  0  0  0  0
  9 10  1  0  0  0  0
 10  4  1  0  0  0  0
 10 11  2  0  0  0  0
 11 12  1  0  0  0  0
 13 11  1  0  0  0  0
 13 14  1  0  0  0  0
 15 13  2  0  0  0  0
 16  9  2  0  0  0  0
 16 15  1  0  0  0  0
 17 18  1  0  0  0  0
 18 23  1  0  0  0  0
 18 19  2  0  0  0  0
 19 25  1  0  0  0  0
 20 19  1  0  0  0  0
 21 20  2  0  0  0  0
 22 17  2  0  0  0  0
 22 21  1  0  0  0  0
 24 21  1  0  0  0  0
 25 28  1  0  0  0  0
 25 27  1  0  0  0  0
 25 26  1  0  0  0  0
M  END
>  <minimizedAffinity>
-5.87044716

$$$$

 OpenBabel03272508033D

 28 30  0  0  0  0  0  0  0  0999 V2000
   36.8000   27.6210   33.8170 C   0  0  0  0  0  0  0  0  0  0  0  0
   36.5830   28.2730   32.6420 C   0  0  0  0  0  0  0  0  0  0  0  0
   35.9260   29.4790   32.8610 C   0  0  0  0  0  0  0  0  0  0  0  0
   35.7610   29.5220   34.2040 N   0  0  0  0  0  0  0  0  0  0  0  0
   36.2720   28.4340   34.7560 N   0  0  0  0  0  0  0  0  0  0  0  0
   36.8630   27.9390   31.6480 H   0  0  0  0  0  0  0  0  0  0  0  0
   35.5950   30.2490   32.1780 H   0  0  0  0  0  0  0  0  0  0  0  0
   32.7450   29.3420   34.3180 Cl  0  0  0  0  0  0  0  0  0  0  0  0
   33.7660   30.5090   35.1330 C   0  0  0  0  0  0  0  0  0  0  0  0
   35.1520   30.5150   35.0210 C   0  0  0  0  0  0  0  0  0  0  0  0
   35.9720   31.4180   35.6500 C   0  0  0  0  0  0  0  0  0  0  0  0
   37.0460   31.3820   35.5320 H   0  0  0  0  0  0  0  0  0  0  0  0
   35.3940   32.3990   36.4560 C   0  0  0  0  0  0  0  0  0  0  0  0
   36.0750   33.0920   36.9340 H   0  0  0  0  0  0  0  0  0  0  0  0
   34.0170   32.4140   36.5820 C   0  0  0  0  0  3  0  0  0  0  0  0
   33.2040   31.5000   35.9440 C   0  0  0  0  0  3  0  0  0  0  0  0
   37.4490   26.3410   34.0280 C   0  0  0  0  0  0  0  0  0  0  0  0
   37.5400   25.8420   35.3480 C   0  0  0  0  0  0  0  0  0  0  0  0
   38.1600   24.6170   35.5630 C   0  0  0  0  0  0  0  0  0  0  0  0
   38.6500   23.9600   34.4790 N   0  0  0  0  0  0  0  0  0  0  0  0
   38.5580   24.4460   33.2190 C   0  0  0  0  0  0  0  0  0  0  0  0
   37.9560   25.6340   33.0170 N   0  0  0  0  0  0  0  0  0  0  0  0
   37.1310   26.4060   36.1890 H   0  0  0  0  0  0  0  0  0  0  0  0
   38.9450   23.9250   32.3610 H   0  0  0  0  0  0  0  0  0  0  0  0
   38.2590   24.0870   36.9440 C   0  0  0  0  0  0  0  0  0  0  0  0
   39.5120   23.5480   37.0590 F   0  0  0  0  0  0  0  0  0  0  0  0
   38.0990   25.0830   37.9060 F   0  0  0  0  0  0  0  0  0  0  0  0
   37.3330   23.0710   37.1780 F   0  0  0  0  0  0  0  0  0  0  0  0
  1 17  1  0  0  0  0
  1  5  2  0  0  0  0
  2  3  2  0  0  0  0
  2  1  1  0  0  0  0
  3  4  1  0  0  0  0
  4  5  1  0  0  0  0
  4 10  1  0  0  0  0
  6  2  1  0  0  0  0
  7  3  1  0  0  0  0
  8  9  1  0  0  0  0
  9 16  1  0  0  0  0
 10  9  2  0  0  0  0
 10 11  1  0  0  0  0
 11 13  2  0  0  0  0
 12 11  1  0  0  0  0
 13 15  1  0  0  0  0
 13 14  1  0  0  0  0
 16 15  2  0  0  0  0
 17 18  1  0  0  0  0
 18 19  2  0  0  0  0
 18 23  1  0  0  0  0
 19 25  1  0  0  0  0
 20 19  1  0  0  0  0
 21 20  2  0  0  0  0
 22 21  1  0  0  0  0
 22 17  2  0  0  0  0
 24 21  1  0  0  0  0
 25 26  1  0  0  0  0
 25 28  1  0  0  0  0
 25 27  1  0  0  0  0
M  END
>  <minimizedAffinity>
-5.74718285

$$$$

 OpenBabel03272508033D

 28 30  0  0  0  0  0  0  0  0999 V2000
   37.9550   24.9520   34.7170 C   0  0  0  0  0  0  0  0  0  0  0  0
   37.7630   24.4130   33.4820 C   0  0  0  0  0  0  0  0  0  0  0  0
   37.2820   25.3700   32.5950 C   0  0  0  0  0  0  0  0  0  0  0  0
   37.1950   26.4940   33.3430 N   0  0  0  0  0  0  0  0  0  0  0  0
   37.5890   26.2440   34.5810 N   0  0  0  0  0  0  0  0  0  0  0  0
   37.9450   23.3860   33.1820 H   0  0  0  0  0  0  0  0  0  0  0  0
   37.0190   25.3080   31.5490 H   0  0  0  0  0  0  0  0  0  0  0  0
   38.1950   27.4200   30.6450 Cl  0  0  0  0  0  0  0  0  0  0  0  0
   37.1790   28.3130   31.7580 C   0  0  0  0  0  0  0  0  0  0  0  0
   36.7660   27.8030   32.9850 C   0  0  0  0  0  0  0  0  0  0  0  0
   35.9710   28.4820   33.8730 C   0  0  0  0  0  0  0  0  0  0  0  0
   35.6760   28.0430   34.8160 H   0  0  0  0  0  0  0  0  0  0  0  0
   35.5400   29.7660   33.5390 C   0  0  0  0  0  0  0  0  0  0  0  0
   34.9140   30.2680   34.2670 H   0  0  0  0  0  0  0  0  0  0  0  0
   35.9380   30.2950   32.3240 C   0  0  0  0  0  3  0  0  0  0  0  0
   36.7380   29.6010   31.4410 C   0  0  0  0  0  3  0  0  0  0  0  0
   38.4420   24.2990   35.9170 C   0  0  0  0  0  0  0  0  0  0  0  0
   39.6450   23.5600   35.8410 C   0  0  0  0  0  0  0  0  0  0  0  0
   40.1210   22.9300   36.9850 C   0  0  0  0  0  0  0  0  0  0  0  0
   39.3940   23.0620   38.1250 N   0  0  0  0  0  0  0  0  0  0  0  0
   38.2440   23.7720   38.1880 C   0  0  0  0  0  0  0  0  0  0  0  0
   37.7870   24.3800   37.0770 N   0  0  0  0  0  0  0  0  0  0  0  0
   40.1950   23.4820   34.9010 H   0  0  0  0  0  0  0  0  0  0  0  0
   37.6690   23.8770   39.0920 H   0  0  0  0  0  0  0  0  0  0  0  0
   41.3820   22.1520   36.9130 C   0  0  0  0  0  0  0  0  0  0  0  0
   41.3900   21.3350   38.0110 F   0  0  0  0  0  0  0  0  0  0  0  0
   41.4580   21.3730   35.7610 F   0  0  0  0  0  0  0  0  0  0  0  0
   42.5050   22.9770   36.9840 F   0  0  0  0  0  0  0  0  0  0  0  0
  1 17  1  0  0  0  0
  2  1  1  0  0  0  0
  3  4  1  0  0  0  0
  3  2  2  0  0  0  0
  4  5  1  0  0  0  0
  5  1  2  0  0  0  0
  6  2  1  0  0  0  0
  7  3  1  0  0  0  0
  8  9  1  0  0  0  0
  9 10  1  0  0  0  0
 10  4  1  0  0  0  0
 10 11  2  0  0  0  0
 11 12  1  0  0  0  0
 13 11  1  0  0  0  0
 13 14  1  0  0  0  0
 15 13  2  0  0  0  0
 16  9  2  0  0  0  0
 16 15  1  0  0  0  0
 17 22  1  0  0  0  0
 18 17  2  0  0  0  0
 18 19  1  0  0  0  0
 19 20  2  0  0  0  0
 20 21  1  0  0  0  0
 21 24  1  0  0  0  0
 22 21  2  0  0  0  0
 23 18  1  0  0  0  0
 25 28  1  0  0  0  0
 25 19  1  0  0  0  0
 25 26  1  0  0  0  0
 27 25  1  0  0  0  0
M  END
>  <minimizedAffinity>
-5.71308279

$$$$

 OpenBabel03272508033D

 28 30  0  0  0  0  0  0  0  0999 V2000
   37.1180   26.4650   33.5500 C   0  0  0  0  0  0  0  0  0  0  0  0
   37.2350   25.3700   32.7510 C   0  0  0  0  0  0  0  0  0  0  0  0
   37.7750   24.3000   33.4560 C   0  0  0  0  0  0  0  0  0  0  0  0
   37.9750   24.7960   34.6990 N   0  0  0  0  0  0  0  0  0  0  0  0
   37.5890   26.0600   34.7480 N   0  0  0  0  0  0  0  0  0  0  0  0
   36.9590   25.2920   31.7040 H   0  0  0  0  0  0  0  0  0  0  0  0
   38.0080   23.2880   33.1550 H   0  0  0  0  0  0  0  0  0  0  0  0
   40.8070   23.7930   34.3690 Cl  0  0  0  0  0  0  0  0  0  0  0  0
   39.8050   23.6760   35.8010 C   0  0  0  0  0  0  0  0  0  0  0  0
   38.5060   24.1690   35.8620 C   0  0  0  0  0  0  0  0  0  0  0  0
   37.7030   24.0910   36.9710 C   0  0  0  0  0  0  0  0  0  0  0  0
   36.6980   24.4900   36.9690 H   0  0  0  0  0  0  0  0  0  0  0  0
   38.2060   23.4800   38.1200 C   0  0  0  0  0  0  0  0  0  0  0  0
   37.5410   23.4390   38.9740 H   0  0  0  0  0  0  0  0  0  0  0  0
   39.4960   22.9820   38.0840 C   0  0  0  0  0  3  0  0  0  0  0  0
   40.2930   23.0680   36.9620 C   0  0  0  0  0  3  0  0  0  0  0  0
   36.6040   27.7780   33.2070 C   0  0  0  0  0  0  0  0  0  0  0  0
   36.2080   28.6410   34.2550 C   0  0  0  0  0  0  0  0  0  0  0  0
   35.7150   29.9010   33.9380 C   0  0  0  0  0  0  0  0  0  0  0  0
   35.6400   30.2360   32.6230 N   0  0  0  0  0  0  0  0  0  0  0  0
   36.0220   29.4030   31.6270 C   0  0  0  0  0  0  0  0  0  0  0  0
   36.4990   28.1830   31.9400 N   0  0  0  0  0  0  0  0  0  0  0  0
   36.2860   28.3270   35.2980 H   0  0  0  0  0  0  0  0  0  0  0  0
   35.9630   29.6690   30.5860 H   0  0  0  0  0  0  0  0  0  0  0  0
   35.2970   30.8120   35.0310 C   0  0  0  0  0  0  0  0  0  0  0  0
   35.1780   32.0540   34.4700 F   0  0  0  0  0  0  0  0  0  0  0  0
   34.0750   30.4430   35.5890 F   0  0  0  0  0  0  0  0  0  0  0  0
   36.2570   30.8870   36.0400 F   0  0  0  0  0  0  0  0  0  0  0  0
  1  5  2  0  0  0  0
  2  3  2  0  0  0  0
  2  1  1  0  0  0  0
  3  4  1  0  0  0  0
  4  5  1  0  0  0  0
  4 10  1  0  0  0  0
  6  2  1  0  0  0  0
  7  3  1  0  0  0  0
  8  9  1  0  0  0  0
  9 10  2  0  0  0  0
  9 16  1  0  0  0  0
 10 11  1  0  0  0  0
 11 13  2  0  0  0  0
 12 11  1  0  0  0  0
 13 14  1  0  0  0  0
 15 13  1  0  0  0  0
 16 15  2  0  0  0  0
 17  1  1  0  0  0  0
 17 18  1  0  0  0  0
 18 23  1  0  0  0  0
 19 18  2  0  0  0  0
 19 25  1  0  0  0  0
 20 19  1  0  0  0  0
 21 22  1  0  0  0  0
 21 20  2  0  0  0  0
 22 17  2  0  0  0  0
 24 21  1  0  0  0  0
 25 27  1  0  0  0  0
 25 28  1  0  0  0  0
 26 25  1  0  0  0  0
M  END
>  <minimizedAffinity>
-5.70326948

$$$$

 OpenBabel03272508033D

 28 30  0  0  0  0  0  0  0  0999 V2000
   36.4710   28.1090   33.5290 C   0  0  0  0  0  0  0  0  0  0  0  0
   36.2460   28.9580   32.4900 C   0  0  0  0  0  0  0  0  0  0  0  0
   35.5850   30.1030   32.9220 C   0  0  0  0  0  0  0  0  0  0  0  0
   35.4260   29.9050   34.2520 N   0  0  0  0  0  0  0  0  0  0  0  0
   35.9440   28.7400   34.6000 N   0  0  0  0  0  0  0  0  0  0  0  0
   36.5230   28.8080   31.4520 H   0  0  0  0  0  0  0  0  0  0  0  0
   35.2480   30.9800   32.3880 H   0  0  0  0  0  0  0  0  0  0  0  0
   32.4620   29.4210   34.6040 Cl  0  0  0  0  0  0  0  0  0  0  0  0
   33.4530   30.5810   35.4650 C   0  0  0  0  0  0  0  0  0  0  0  0
   34.8160   30.7350   35.2350 C   0  0  0  0  0  0  0  0  0  0  0  0
   35.6130   31.6350   35.8960 C   0  0  0  0  0  0  0  0  0  0  0  0
   36.6690   31.7180   35.6820 H   0  0  0  0  0  0  0  0  0  0  0  0
   35.0330   32.4570   36.8640 C   0  0  0  0  0  0  0  0  0  0  0  0
   35.6960   33.1530   37.3630 H   0  0  0  0  0  0  0  0  0  0  0  0
   33.6790   32.3230   37.1100 C   0  0  0  0  0  3  0  0  0  0  0  0
   32.8900   31.4130   36.4380 C   0  0  0  0  0  3  0  0  0  0  0  0
   37.1260   26.8150   33.5080 C   0  0  0  0  0  0  0  0  0  0  0  0
   37.4900   26.2240   34.7400 C   0  0  0  0  0  0  0  0  0  0  0  0
   38.1190   24.9850   34.7310 C   0  0  0  0  0  0  0  0  0  0  0  0
   38.3510   24.4040   33.5250 N   0  0  0  0  0  0  0  0  0  0  0  0
   37.9990   24.9780   32.3510 C   0  0  0  0  0  0  0  0  0  0  0  0
   37.3900   26.1790   32.3650 N   0  0  0  0  0  0  0  0  0  0  0  0
   37.2830   26.7290   35.6850 H   0  0  0  0  0  0  0  0  0  0  0  0
   38.1830   24.5180   31.3960 H   0  0  0  0  0  0  0  0  0  0  0  0
   38.5040   24.3570   36.0190 C   0  0  0  0  0  0  0  0  0  0  0  0
   38.1920   25.2650   36.9950 F   0  0  0  0  0  0  0  0  0  0  0  0
   37.8110   23.1720   36.2570 F   0  0  0  0  0  0  0  0  0  0  0  0
   39.8740   24.1090   36.0860 F   0  0  0  0  0  0  0  0  0  0  0  0
  1  5  2  0  0  0  0
  2  3  2  0  0  0  0
  2  1  1  0  0  0  0
  3  4  1  0  0  0  0
  4  5  1  0  0  0  0
  4 10  1  0  0  0  0
  6  2  1  0  0  0  0
  7  3  1  0  0  0  0
  8  9  1  0  0  0  0
  9 16  1  0  0  0  0
 10  9  2  0  0  0  0
 10 11  1  0  0  0  0
 11 13  2  0  0  0  0
 12 11  1  0  0  0  0
 13 15  1  0  0  0  0
 13 14  1  0  0  0  0
 16 15  2  0  0  0  0
 17  1  1  0  0  0  0
 17 18  1  0  0  0  0
 18 23  1  0  0  0  0
 19 18  2  0  0  0  0
 19 25  1  0  0  0  0
 20 19  1  0  0  0  0
 21 22  1  0  0  0  0
 21 20  2  0  0  0  0
 22 17  2  0  0  0  0
 24 21  1  0  0  0  0
 25 28  1  0  0  0  0
 25 27  1  0  0  0  0
 25 26  1  0  0  0  0
M  END
>  <minimizedAffinity>
-5.63654518

$$$$

 OpenBabel03272508033D

 28 30  0  0  0  0  0  0  0  0999 V2000
   36.4500   28.3220   33.1380 C   0  0  0  0  0  0  0  0  0  0  0  0
   36.2090   29.2830   32.2040 C   0  0  0  0  0  0  0  0  0  0  0  0
   35.5330   30.3600   32.7680 C   0  0  0  0  0  0  0  0  0  0  0  0
   35.3820   30.0070   34.0660 N   0  0  0  0  0  0  0  0  0  0  0  0
   35.9190   28.8170   34.2760 N   0  0  0  0  0  0  0  0  0  0  0  0
   36.4850   29.2580   31.1550 H   0  0  0  0  0  0  0  0  0  0  0  0
   35.1810   31.2880   32.3400 H   0  0  0  0  0  0  0  0  0  0  0  0
   32.4370   29.4100   34.3920 Cl  0  0  0  0  0  0  0  0  0  0  0  0
   33.4090   30.4940   35.3650 C   0  0  0  0  0  0  0  0  0  0  0  0
   34.7650   30.7080   35.1410 C   0  0  0  0  0  0  0  0  0  0  0  0
   35.5470   31.5510   35.8880 C   0  0  0  0  0  0  0  0  0  0  0  0
   36.5980   31.6830   35.6750 H   0  0  0  0  0  0  0  0  0  0  0  0
   34.9590   32.2460   36.9460 C   0  0  0  0  0  0  0  0  0  0  0  0
   35.6100   32.9010   37.5120 H   0  0  0  0  0  0  0  0  0  0  0  0
   33.6120   32.0510   37.1890 C   0  0  0  0  0  3  0  0  0  0  0  0
   32.8370   31.1990   36.4290 C   0  0  0  0  0  3  0  0  0  0  0  0
   37.1250   27.0490   32.9650 C   0  0  0  0  0  0  0  0  0  0  0  0
   36.4440   26.0150   32.2820 C   0  0  0  0  0  0  0  0  0  0  0  0
   37.0800   24.7910   32.1110 C   0  0  0  0  0  0  0  0  0  0  0  0
   38.3350   24.6570   32.6150 N   0  0  0  0  0  0  0  0  0  0  0  0
   38.9780   25.6530   33.2670 C   0  0  0  0  0  0  0  0  0  0  0  0
   38.3560   26.8370   33.4310 N   0  0  0  0  0  0  0  0  0  0  0  0
   35.4350   26.1690   31.8940 H   0  0  0  0  0  0  0  0  0  0  0  0
   39.9710   25.5460   33.6660 H   0  0  0  0  0  0  0  0  0  0  0  0
   36.3740   23.7000   31.3960 C   0  0  0  0  0  0  0  0  0  0  0  0
   37.2580   23.2120   30.4730 F   0  0  0  0  0  0  0  0  0  0  0  0
   35.9890   22.6700   32.2510 F   0  0  0  0  0  0  0  0  0  0  0  0
   35.2530   24.1690   30.7100 F   0  0  0  0  0  0  0  0  0  0  0  0
  1  5  2  0  0  0  0
  2  3  2  0  0  0  0
  2  1  1  0  0  0  0
  3  4  1  0  0  0  0
  4  5  1  0  0  0  0
  4 10  1  0  0  0  0
  6  2  1  0  0  0  0
  7  3  1  0  0  0  0
  8  9  1  0  0  0  0
  9 16  1  0  0  0  0
 10  9  2  0  0  0  0
 10 11  1  0  0  0  0
 11 13  2  0  0  0  0
 12 11  1  0  0  0  0
 13 15  1  0  0  0  0
 13 14  1  0  0  0  0
 16 15  2  0  0  0  0
 17  1  1  0  0  0  0
 17 22  1  0  0  0  0
 18 17  2  0  0  0  0
 19 18  1  0  0  0  0
 19 20  2  0  0  0  0
 20 21  1  0  0  0  0
 21 22  2  0  0  0  0
 21 24  1  0  0  0  0
 23 18  1  0  0  0  0
 25 19  1  0  0  0  0
 25 27  1  0  0  0  0
 26 25  1  0  0  0  0
 28 25  1  0  0  0  0
M  END
>  <minimizedAffinity>
-5.50990391

$$$$

 OpenBabel03272508033D

 28 30  0  0  0  0  0  0  0  0999 V2000
   36.2890   28.3620   33.5330 C   0  0  0  0  0  0  0  0  0  0  0  0
   35.8770   29.1600   32.5110 C   0  0  0  0  0  0  0  0  0  0  0  0
   34.9850   30.1250   32.9670 C   0  0  0  0  0  0  0  0  0  0  0  0
   34.8820   29.8730   34.2930 N   0  0  0  0  0  0  0  0  0  0  0  0
   35.6440   28.8430   34.6170 N   0  0  0  0  0  0  0  0  0  0  0  0
   36.1740   29.0930   31.4700 H   0  0  0  0  0  0  0  0  0  0  0  0
   34.4620   30.9170   32.4510 H   0  0  0  0  0  0  0  0  0  0  0  0
   36.3910   32.0270   35.7840 Cl  0  0  0  0  0  0  0  0  0  0  0  0
   34.7270   31.5380   36.0320 C   0  0  0  0  0  0  0  0  0  0  0  0
   34.1130   30.5310   35.2940 C   0  0  0  0  0  0  0  0  0  0  0  0
   32.8130   30.1310   35.4690 C   0  0  0  0  0  0  0  0  0  0  0  0
   32.3800   29.3430   34.8700 H   0  0  0  0  0  0  0  0  0  0  0  0
   32.0440   30.7650   36.4460 C   0  0  0  0  0  0  0  0  0  0  0  0
   31.0220   30.4210   36.5520 H   0  0  0  0  0  0  0  0  0  0  0  0
   32.6320   31.7690   37.1920 C   0  0  0  0  0  3  0  0  0  0  0  0
   33.9410   32.1620   37.0050 C   0  0  0  0  0  3  0  0  0  0  0  0
   37.2100   27.2420   33.4850 C   0  0  0  0  0  0  0  0  0  0  0  0
   37.4330   26.5020   34.6690 C   0  0  0  0  0  0  0  0  0  0  0  0
   38.3150   25.4280   34.6340 C   0  0  0  0  0  0  0  0  0  0  0  0
   38.9190   25.1470   33.4500 N   0  0  0  0  0  0  0  0  0  0  0  0
   38.6990   25.8610   32.3220 C   0  0  0  0  0  0  0  0  0  0  0  0
   37.8450   26.9020   32.3610 N   0  0  0  0  0  0  0  0  0  0  0  0
   36.9240   26.7660   35.5980 H   0  0  0  0  0  0  0  0  0  0  0  0
   39.1780   25.6380   31.3850 H   0  0  0  0  0  0  0  0  0  0  0  0
   38.5540   24.6460   35.8720 C   0  0  0  0  0  0  0  0  0  0  0  0
   37.7330   23.5540   35.8000 F   0  0  0  0  0  0  0  0  0  0  0  0
   39.8760   24.2200   35.9800 F   0  0  0  0  0  0  0  0  0  0  0  0
   38.2100   25.3660   37.0160 F   0  0  0  0  0  0  0  0  0  0  0  0
  1  5  2  0  0  0  0
  2  3  2  0  0  0  0
  2  1  1  0  0  0  0
  3  4  1  0  0  0  0
  4  5  1  0  0  0  0
  4 10  1  0  0  0  0
  6  2  1  0  0  0  0
  7  3  1  0  0  0  0
  8  9  1  0  0  0  0
  9 16  1  0  0  0  0
 10 11  1  0  0  0  0
 10  9  2  0  0  0  0
 11 13  2  0  0  0  0
 12 11  1  0  0  0  0
 13 14  1  0  0  0  0
 13 15  1  0  0  0  0
 16 15  2  0  0  0  0
 17  1  1  0  0  0  0
 17 18  1  0  0  0  0
 18 23  1  0  0  0  0
 19 18  2  0  0  0  0
 19 25  1  0  0  0  0
 20 19  1  0  0  0  0
 21 22  1  0  0  0  0
 21 20  2  0  0  0  0
 22 17  2  0  0  0  0
 24 21  1  0  0  0  0
 25 27  1  0  0  0  0
 25 28  1  0  0  0  0
 26 25  1  0  0  0  0
M  END
>  <minimizedAffinity>
-5.4447155

$$$$

 OpenBabel03272508033D

 28 30  0  0  0  0  0  0  0  0999 V2000
   36.1070   28.6780   32.9940 C   0  0  0  0  0  0  0  0  0  0  0  0
   35.8120   29.7280   32.1800 C   0  0  0  0  0  0  0  0  0  0  0  0
   35.0310   30.6660   32.8460 C   0  0  0  0  0  0  0  0  0  0  0  0
   34.8720   30.1380   34.0830 N   0  0  0  0  0  0  0  0  0  0  0  0
   35.5020   28.9780   34.1630 N   0  0  0  0  0  0  0  0  0  0  0  0
   36.1200   29.8600   31.1480 H   0  0  0  0  0  0  0  0  0  0  0  0
   34.6150   31.6100   32.5240 H   0  0  0  0  0  0  0  0  0  0  0  0
   36.4360   32.1470   35.7140 Cl  0  0  0  0  0  0  0  0  0  0  0  0
   34.8090   31.5740   36.0200 C   0  0  0  0  0  0  0  0  0  0  0  0
   34.1660   30.6430   35.2110 C   0  0  0  0  0  0  0  0  0  0  0  0
   32.8940   30.1800   35.4300 C   0  0  0  0  0  0  0  0  0  0  0  0
   32.4360   29.4550   34.7710 H   0  0  0  0  0  0  0  0  0  0  0  0
   32.1860   30.6640   36.5310 C   0  0  0  0  0  0  0  0  0  0  0  0
   31.1840   30.2730   36.6680 H   0  0  0  0  0  0  0  0  0  0  0  0
   32.8040   31.5900   37.3510 C   0  0  0  0  0  3  0  0  0  0  0  0
   34.0840   32.0470   37.1190 C   0  0  0  0  0  3  0  0  0  0  0  0
   36.8910   27.4960   32.6900 C   0  0  0  0  0  0  0  0  0  0  0  0
   36.2380   26.3870   32.1060 C   0  0  0  0  0  0  0  0  0  0  0  0
   36.9800   25.2490   31.8110 C   0  0  0  0  0  0  0  0  0  0  0  0
   38.3070   25.2680   32.1040 N   0  0  0  0  0  0  0  0  0  0  0  0
   38.9230   26.3350   32.6640 C   0  0  0  0  0  0  0  0  0  0  0  0
   38.1990   27.4350   32.9480 N   0  0  0  0  0  0  0  0  0  0  0  0
   35.1690   26.4170   31.8880 H   0  0  0  0  0  0  0  0  0  0  0  0
   39.9730   26.3500   32.8950 H   0  0  0  0  0  0  0  0  0  0  0  0
   36.3030   24.0800   31.1970 C   0  0  0  0  0  0  0  0  0  0  0  0
   37.1680   23.5850   30.2600 F   0  0  0  0  0  0  0  0  0  0  0  0
   36.0180   23.0860   32.1300 F   0  0  0  0  0  0  0  0  0  0  0  0
   35.1270   24.4460   30.5430 F   0  0  0  0  0  0  0  0  0  0  0  0
  1  5  2  0  0  0  0
  2  3  2  0  0  0  0
  2  1  1  0  0  0  0
  3  4  1  0  0  0  0
  4  5  1  0  0  0  0
  4 10  1  0  0  0  0
  6  2  1  0  0  0  0
  7  3  1  0  0  0  0
  8  9  1  0  0  0  0
  9 16  1  0  0  0  0
 10 11  1  0  0  0  0
 10  9  2  0  0  0  0
 11 13  2  0  0  0  0
 12 11  1  0  0  0  0
 13 14  1  0  0  0  0
 13 15  1  0  0  0  0
 16 15  2  0  0  0  0
 17 22  1  0  0  0  0
 17  1  1  0  0  0  0
 18 17  2  0  0  0  0
 19 20  2  0  0  0  0
 19 18  1  0  0  0  0
 20 21  1  0  0  0  0
 21 24  1  0  0  0  0
 21 22  2  0  0  0  0
 23 18  1  0  0  0  0
 25 19  1  0  0  0  0
 25 27  1  0  0  0  0
 26 25  1  0  0  0  0
 28 25  1  0  0  0  0
M  END
>  <minimizedAffinity>
-5.43600368

$$$$
