
     RDKit          3D

 30 32  0  0  0  0  0  0  0  0999 V2000
   37.4945   30.2618   51.3291 C   0  0  0  0  0  0  0  0  0  0  0  0
   38.1492   30.9739   50.2963 C   0  0  0  0  0  0  0  0  0  0  0  0
   37.8188   30.7224   48.9748 C   0  0  0  0  0  0  0  0  0  0  0  0
   36.8742   29.7942   48.7430 N   0  0  0  0  0  0  0  0  0  0  0  0
   36.2377   29.1030   49.7093 C   0  0  0  0  0  0  0  0  0  0  0  0
   36.5520   29.3413   51.0023 N   0  0  0  0  0  0  0  0  0  0  0  0
   38.4452   31.4118   47.9091 N   0  0  0  0  0  0  0  0  0  0  0  0
   38.6660   30.8176   46.7182 C   0  0  0  0  0  0  0  0  0  0  0  0
   39.2923   31.5157   45.6814 C   0  0  0  0  0  0  0  0  0  0  0  0
   39.6806   32.8462   45.9212 C   0  0  0  0  0  0  0  0  0  0  0  0
   40.2442   33.5026   45.0178 O   0  0  0  0  0  0  0  0  0  0  0  0
   39.4441   33.4226   47.1369 N   0  0  0  0  0  0  0  0  0  0  0  0
   38.8388   32.6725   48.0627 C   0  0  0  0  0  0  0  0  0  0  0  0
   38.6405   33.2495   49.1649 O   0  0  0  0  0  0  0  0  0  0  0  0
   37.7066   30.4126   52.3798 H   0  0  0  0  0  0  0  0  0  0  0  0
   38.8671   31.6483   50.6789 H   0  0  0  0  0  0  0  0  0  0  0  0
   35.4795   28.3590   49.4973 H   0  0  0  0  0  0  0  0  0  0  0  0
   38.3714   29.8094   46.5380 H   0  0  0  0  0  0  0  0  0  0  0  0
   39.4621   31.0264   44.7332 H   0  0  0  0  0  0  0  0  0  0  0  0
   39.1025   34.9830   44.6910 Cl  0  0  0  0  0  0  0  0  0  0  0  0
   39.6925   35.5605   46.2344 C   0  0  0  0  0  0  0  0  0  0  0  0
   39.8372   34.7680   47.3782 C   0  0  0  0  0  0  0  0  0  0  0  0
   40.3115   35.3502   48.5225 C   0  0  0  0  0  0  0  0  0  0  0  0
   40.3889   34.6610   49.3513 H   0  0  0  0  0  0  0  0  0  0  0  0
   40.6357   36.6912   48.5316 C   0  0  0  0  0  0  0  0  0  0  0  0
   41.0074   37.0855   49.4789 H   0  0  0  0  0  0  0  0  0  0  0  0
   40.4988   37.4863   47.4122 C   0  0  0  0  0  0  0  0  0  0  0  0
   40.0188   36.8982   46.2537 C   0  0  0  0  0  0  0  0  0  0  0  0
   40.7582   38.5377   47.4378 H   0  0  0  0  0  0  0  0  0  0  0  0
   39.9258   37.5609   45.3927 H   0  0  0  0  0  0  0  0  0  0  0  0
  2  1  2  0
  3  2  1  0
  4  3  2  0
  4  5  1  0
  5  6  2  0
  6  1  1  0
  7 13  1  0
  7  3  1  0
  8  7  1  0
  9 10  1  0
  9  8  2  0
 10 12  1  0
 11 10  2  0
 12 13  1  0
 13 14  2  0
  1 15  1  0
  2 16  1  0
  5 17  1  0
  8 18  1  0
  9 19  1  0
 20 21  1  0
 21 22  2  0
 22 23  1  0
 23 24  1  0
 23 25  2  0
 25 26  1  0
 25 27  1  0
 27 28  2  0
 28 21  1  0
 27 29  1  0
 28 30  1  0
 12 22  1  0
M  ISO  7  15  14  16  14  17  14  18  14  19  14  24  15  26  16
M  END
>  <DihAtoms>  (1) 
9,11,21,20

>  <DihDeg>  (1) 
-114.66828473446735

$$$$
