
 OpenBabel03272510243D

 32 35  0  0  0  0  0  0  0  0999 V2000
   35.0070   29.7920   47.4100 C   0  0  0  0  0  0  0  0  0  0  0  0
   36.3060   30.1970   47.6730 C   0  0  0  0  0  0  0  0  0  0  0  0
   37.1570   30.5710   46.6470 C   0  0  0  0  0  0  0  0  0  0  0  0
   36.6220   30.5120   45.3540 C   0  0  0  0  0  0  0  0  0  0  0  0
   37.2770   30.8330   44.1900 N   0  0  0  0  0  0  0  0  0  0  0  0
   36.3820   30.6260   43.2160 C   0  0  0  0  0  0  0  0  0  0  0  0
   35.2270   30.2000   43.7040 N   0  0  0  0  0  0  0  0  0  0  0  0
   35.3380   30.1150   45.0520 C   0  0  0  0  0  0  0  0  0  0  0  0
   34.5230   29.7500   46.1110 C   0  0  0  0  0  0  0  0  0  0  0  0
   34.3530   29.5020   48.2190 H   0  0  0  0  0  0  0  0  0  0  0  0
   38.1630   30.8860   46.8360 H   0  0  0  0  0  0  0  0  0  0  0  0
   38.2720   31.1710   44.0840 H   0  0  0  0  0  0  0  0  0  0  0  0
   33.5120   29.4370   45.8850 H   0  0  0  0  0  0  0  0  0  0  0  0
   38.1600   30.7670   50.8940 C   0  0  0  0  0  0  0  0  0  0  0  0
   37.8760   30.8350   49.5340 C   0  0  0  0  0  0  0  0  0  0  0  0
   36.7340   30.2130   49.0610 C   0  0  0  0  0  0  0  0  0  0  0  0
   35.9670   29.5730   49.9780 N   0  0  0  0  0  0  0  0  0  0  0  0
   36.2520   29.5120   51.2970 C   0  0  0  0  0  0  0  0  0  0  0  0
   37.3440   30.1090   51.7370 N   0  0  0  0  0  0  0  0  0  0  0  0
   39.0830   31.2930   51.1480 H   0  0  0  0  0  0  0  0  0  0  0  0
   38.4870   31.3460   48.7970 H   0  0  0  0  0  0  0  0  0  0  0  0
   35.6000   28.9840   51.9800 H   0  0  0  0  0  0  0  0  0  0  0  0
   36.6790   30.8450   41.8730 O   0  0  0  0  0  0  0  0  0  0  0  0
   38.9580   32.8260   41.8140 Cl  0  0  0  0  0  0  0  0  0  0  0  0
   37.3300   33.1290   41.2380 C   0  0  0  0  0  0  0  0  0  0  0  0
   36.4170   32.1060   41.3440 C   0  0  0  0  0  0  0  0  0  0  0  0
   35.1170   32.2620   40.9150 C   0  0  0  0  0  0  0  0  0  0  0  0
   34.3300   31.4960   40.9650 H   0  0  0  0  0  0  0  0  0  0  0  0
   34.6910   33.4550   40.3640 C   0  0  0  0  0  0  0  0  0  0  0  0
   33.6930   33.6390   40.0110 H   0  0  0  0  0  0  0  0  0  0  0  0
   35.6060   34.4870   40.2550 C   0  0  0  0  0  3  0  0  0  0  0  0
   36.8970   34.3170   40.6870 C   0  0  0  0  0  3  0  0  0  0  0  0
  1  2  1  0  0  0  0
  1 10  1  0  0  0  0
  2 16  1  0  0  0  0
  3 11  1  0  0  0  0
  3  2  2  0  0  0  0
  4  3  1  0  0  0  0
  5  4  1  0  0  0  0
  6  7  2  0  0  0  0
  6  5  1  0  0  0  0
  7  8  1  0  0  0  0
  8  4  2  0  0  0  0
  8  9  1  0  0  0  0
  9  1  2  0  0  0  0
 12  5  1  0  0  0  0
 13  9  1  0  0  0  0
 14 20  1  0  0  0  0
 14 19  1  0  0  0  0
 15 14  2  0  0  0  0
 16 15  1  0  0  0  0
 16 17  2  0  0  0  0
 17 18  1  0  0  0  0
 18 19  2  0  0  0  0
 18 22  1  0  0  0  0
 21 15  1  0  0  0  0
 23  6  1  0  0  0  0
 25 26  1  0  0  0  0
 25 24  1  0  0  0  0
 26 23  1  0  0  0  0
 27 28  1  0  0  0  0
 27 26  2  0  0  0  0
 29 27  1  0  0  0  0
 30 29  1  0  0  0  0
 31 29  2  0  0  0  0
 31 32  1  0  0  0  0
 32 25  2  0  0  0  0
M  END
>  <minimizedAffinity>
-4.87737846

>  <minimizedRMSD>
3.44762611

$$$$
