
     RDKit          3D

 26 27  0  0  0  0  0  0  0  0999 V2000
   37.3376   30.1513   51.3621 C   0  0  0  0  0  0  0  0  0  0  0  0
   38.0003   30.5137   50.1744 C   0  0  0  0  0  0  0  0  0  0  0  0
   37.4207   30.1536   48.9586 C   0  0  0  0  0  0  0  0  0  0  0  0
   36.2353   29.4652   48.9898 N   0  0  0  0  0  0  0  0  0  0  0  0
   35.6343   29.1380   50.1488 C   0  0  0  0  0  0  0  0  0  0  0  0
   36.1867   29.4816   51.3249 N   0  0  0  0  0  0  0  0  0  0  0  0
   37.8582   30.3838   47.7038 O   0  0  0  0  0  0  0  0  0  0  0  0
   39.0516   32.7398   48.1401 O   0  0  0  0  0  0  0  0  0  0  0  0
   38.7230   31.7193   47.1121 P   0  0  2  0  0  0  0  0  0  0  0  0
   37.8333   32.4505   45.8467 O   0  0  0  0  0  0  0  0  0  0  0  0
   40.1390   31.1753   46.3918 O   0  0  0  0  0  0  0  0  0  0  0  0
   37.8739   30.4799   52.2499 H   0  0  0  0  0  0  0  0  0  0  0  0
   38.9250   31.0492   50.0734 H   0  0  0  0  0  0  0  0  0  0  0  0
   34.6900   28.5893   50.1580 H   0  0  0  0  0  0  0  0  0  0  0  0
   37.4107   31.7261   45.3155 H   0  0  0  0  0  0  0  0  0  0  0  0
   39.6781   34.0129   46.8388 Cl  0  0  0  0  0  0  0  0  0  0  0  0
   41.1983   33.2086   46.4111 C   0  0  0  0  0  0  0  0  0  0  0  0
   41.3259   31.8307   46.2149 C   0  0  0  0  0  0  0  0  0  0  0  0
   42.5786   31.3454   45.8842 C   0  0  0  0  0  0  0  0  0  0  0  0
   42.5875   30.2718   45.7508 H   0  0  0  0  0  0  0  0  0  0  0  0
   43.6553   32.2002   45.7556 C   0  0  0  0  0  0  0  0  0  0  0  0
   44.6043   31.7085   45.4898 H   0  0  0  0  0  0  0  0  0  0  0  0
   43.5434   33.5469   45.9446 C   0  0  0  0  0  0  0  0  0  0  0  0
   42.3108   34.0407   46.2719 C   0  0  0  0  0  0  0  0  0  0  0  0
   44.4245   34.1815   45.8314 H   0  0  0  0  0  0  0  0  0  0  0  0
   42.2392   35.1164   46.4190 H   0  0  0  0  0  0  0  0  0  0  0  0
  2  1  2  0
  3  4  2  0
  3  2  1  0
  4  5  1  0
  5  6  2  0
  6  1  1  0
  7  3  1  0
  9  7  1  1
  9  8  2  0
 10  9  1  0
 11  9  1  0
  1 12  1  0
  2 13  1  0
  5 14  1  0
 10 15  1  0
 16 17  1  0
 17 18  2  0
 18 19  1  0
 19 20  1  0
 19 21  2  0
 21 22  1  0
 21 23  1  0
 23 24  2  0
 24 17  1  0
 23 25  1  0
 24 26  1  0
 11 18  1  0
M  ISO  6  12  14  13  14  14  14  15   3  20  15  22  16
M  END
>  <DihAtoms>  (1) 
8,10,17,16

>  <DihDeg>  (1) 
179.99991570743518

$$$$
