REMARK  Name = 
REMARK  5 active torsions:
REMARK  status: ('A' for Active; 'I' for Inactive)
REMARK    1  A    between atoms: C_3  and  O_7
REMARK    2  A    between atoms: O_7  and  P_9
REMARK    3  A    between atoms: P_9  and  O_10
REMARK    4  A    between atoms: P_9  and  O_11
REMARK    5  A    between atoms: O_11  and  C_18
REMARK                            x       y       z     vdW  Elec       q    Type
REMARK                         _______ _______ _______ _____ _____    ______ ____
ROOT
ATOM      1  O   UNL     1      39.052  32.740  48.140  0.00  0.00    +0.000 OA
ATOM      2  P   UNL     1      38.723  31.719  47.112  0.00  0.00    +0.000 P 
ENDROOT
BRANCH   2   3
ATOM      3  O   UNL     1      37.833  32.450  45.847  0.00  0.00    +0.000 OA
ATOM      4  H   UNL     1      37.411  31.726  45.316  0.00  0.00    +0.000 HD
ENDBRANCH   2   3
BRANCH   2   5
ATOM      5  O   UNL     1      37.858  30.384  47.704  0.00  0.00    +0.000 OA
BRANCH   5   8
ATOM      6  C   UNL     1      37.338  30.151  51.362  0.00  0.00    +0.000 A 
ATOM      7  C   UNL     1      38.000  30.514  50.174  0.00  0.00    +0.000 A 
ATOM      8  C   UNL     1      37.421  30.154  48.959  0.00  0.00    +0.000 A 
ATOM      9  N   UNL     1      36.235  29.465  48.990  0.00  0.00    +0.000 NA
ATOM     10  C   UNL     1      35.634  29.138  50.149  0.00  0.00    +0.000 A 
ATOM     11  N   UNL     1      36.187  29.482  51.325  0.00  0.00    +0.000 NA
ATOM     12  H   UNL     1      37.874  30.480  52.250  0.00  0.00    +0.000 HD
ATOM     13  H   UNL     1      38.925  31.049  50.073  0.00  0.00    +0.000 HD
ATOM     14  H   UNL     1      34.690  28.589  50.158  0.00  0.00    +0.000 HD
ENDBRANCH   5   8
ENDBRANCH   2   5
BRANCH   2  15
ATOM     15  O   UNL     1      40.139  31.175  46.392  0.00  0.00    +0.000 OA
BRANCH  15  18
ATOM     16 CL   UNL     1      40.039  32.547  43.828  0.00  0.00    +0.000 Cl
ATOM     17  C   UNL     1      41.367  32.522  45.001  0.00  0.00    +0.000 A 
ATOM     18  C   UNL     1      41.326  31.831  46.215  0.00  0.00    +0.000 A 
ATOM     19  C   UNL     1      42.441  31.903  47.030  0.00  0.00    +0.000 A 
ATOM     20  H   UNL     1      42.325  31.341  47.947  0.00  0.00    +0.000 HD
ATOM     21  C   UNL     1      43.548  32.635  46.648  0.00  0.00    +0.000 A 
ATOM     22  H   UNL     1      44.379  32.624  47.371  0.00  0.00    +0.000 HD
ATOM     23  C   UNL     1      43.601  33.314  45.466  0.00  0.00    +0.000 A 
ATOM     24  C   UNL     1      42.505  33.251  44.650  0.00  0.00    +0.000 A 
ENDBRANCH  15  18
ENDBRANCH   2  15
TORSDOF 5
