
 OpenBabel03272503433D

 41 44  0  0  1  0  0  0  0  0999 V2000
   34.6200   29.5500   32.0500 C   0  0  2  0  0  0  0  0  0  0  0  0
   35.7830   28.9890   31.2000 C   0  0  1  0  0  0  0  0  0  0  0  0
   36.7510   30.1150   31.3560 C   0  0  0  0  0  0  0  0  0  0  0  0
   36.0280   31.2830   31.3810 O   0  0  0  0  0  0  0  0  0  0  0  0
   34.7060   31.0060   31.5340 C   0  0  0  0  0  0  0  0  0  0  0  0
   33.6770   29.0930   31.7530 H   0  0  0  0  0  0  0  0  0  0  0  0
   35.5130   28.8610   30.1560 H   0  0  0  0  0  0  0  0  0  0  0  0
   37.2060   30.0010   32.3770 H   0  0  0  0  0  0  0  0  0  0  0  0
   37.5200   30.1360   30.5520 H   0  0  0  0  0  0  0  0  0  0  0  0
   34.2330   31.6020   32.3370 H   0  0  0  0  0  0  0  0  0  0  0  0
   34.1070   31.1030   30.6040 H   0  0  0  0  0  0  0  0  0  0  0  0
   37.3350   26.2440   32.9360 C   0  0  0  0  0  0  0  0  0  0  0  0
   36.4560   25.5610   32.1500 C   0  0  0  0  0  0  0  0  0  0  0  0
   35.7930   26.5480   31.4250 C   0  0  0  0  0  0  0  0  0  0  0  0
   36.2680   27.7540   31.7760 N   0  0  0  0  0  0  0  0  0  0  0  0
   37.2130   27.5730   32.7010 N   0  0  0  0  0  0  0  0  0  0  0  0
   36.3360   24.4980   32.1270 H   0  0  0  0  0  0  0  0  0  0  0  0
   35.0190   26.3140   30.6990 H   0  0  0  0  0  0  0  0  0  0  0  0
   38.7880   24.2740   35.7720 C   0  0  0  0  0  0  0  0  0  0  0  0
   37.8620   24.8050   34.8960 C   0  0  0  0  0  0  0  0  0  0  0  0
   38.2680   25.6570   33.8850 C   0  0  0  0  0  0  0  0  0  0  0  0
   39.5830   25.9400   33.7960 N   0  0  0  0  0  0  0  0  0  0  0  0
   40.4790   25.4050   34.6730 C   0  0  0  0  0  0  0  0  0  0  0  0
   40.1050   24.5900   35.6420 N   0  0  0  0  0  0  0  0  0  0  0  0
   36.7970   24.6080   34.9250 H   0  0  0  0  0  0  0  0  0  0  0  0
   41.5360   25.6380   34.5950 H   0  0  0  0  0  0  0  0  0  0  0  0
   38.2090   23.4360   36.7290 O   0  0  0  0  0  0  0  0  0  0  0  0
   38.3020   23.6740   38.1130 C   0  0  0  0  0  0  0  0  0  0  0  0
   38.0670   25.0000   38.4410 F   0  0  0  0  0  0  0  0  0  0  0  0
   39.5470   23.2670   38.5310 F   0  0  0  0  0  0  0  0  0  0  0  0
   37.3680   22.8750   38.7450 F   0  0  0  0  0  0  0  0  0  0  0  0
   35.0300   29.5090   33.3410 O   0  0  0  0  0  0  0  0  0  0  0  0
   32.1300   29.5560   34.5360 Cl  0  0  0  0  0  0  0  0  0  0  0  0
   33.5120   30.3910   35.1730 C   0  0  0  0  0  0  0  0  0  0  0  0
   34.6590   30.1960   34.4540 C   0  0  0  0  0  0  0  0  0  0  0  0
   35.7980   30.8570   34.9420 C   0  0  0  0  0  0  0  0  0  0  0  0
   36.8240   30.8640   34.5530 H   0  0  0  0  0  0  0  0  0  0  0  0
   35.7550   31.6600   36.0900 C   0  0  0  0  0  0  0  0  0  0  0  0
   36.5750   32.1950   36.5250 H   0  0  0  0  0  0  0  0  0  0  0  0
   34.5650   31.8120   36.7670 C   0  0  0  0  0  3  0  0  0  0  0  0
   33.4420   31.1720   36.3030 C   0  0  0  0  0  3  0  0  0  0  0  0
  1  6  1  6  0  0  0
  1 32  1  0  0  0  0
  2  7  1  6  0  0  0
  2  3  1  0  0  0  0
  2 15  1  0  0  0  0
  2  1  1  0  0  0  0
  3  4  1  0  0  0  0
  3  8  1  0  0  0  0
  4  5  1  0  0  0  0
  5  1  1  0  0  0  0
  5 10  1  0  0  0  0
  9  3  1  0  0  0  0
 11  5  1  0  0  0  0
 12 21  1  0  0  0  0
 13 12  1  0  0  0  0
 14 15  1  0  0  0  0
 14 13  2  0  0  0  0
 15 16  1  0  0  0  0
 16 12  2  0  0  0  0
 17 13  1  0  0  0  0
 18 14  1  0  0  0  0
 19 27  1  0  0  0  0
 20 25  1  0  0  0  0
 20 19  2  0  0  0  0
 21 20  1  0  0  0  0
 22 21  2  0  0  0  0
 22 23  1  0  0  0  0
 23 24  2  0  0  0  0
 24 19  1  0  0  0  0
 26 23  1  0  0  0  0
 27 28  1  0  0  0  0
 28 29  1  0  0  0  0
 28 30  1  0  0  0  0
 28 31  1  0  0  0  0
 32 35  1  0  0  0  0
 33 34  1  0  0  0  0
 34 41  1  0  0  0  0
 35 36  1  0  0  0  0
 35 34  2  0  0  0  0
 36 38  2  0  0  0  0
 37 36  1  0  0  0  0
 38 39  1  0  0  0  0
 38 40  1  0  0  0  0
 41 40  2  0  0  0  0
M  END
>  <minimizedAffinity>
-6.24269485

$$$$

 OpenBabel03272503433D

 41 44  0  0  1  0  0  0  0  0999 V2000
   33.8150   31.3800   34.8260 C   0  0  2  0  0  0  0  0  0  0  0  0
   35.3370   31.3370   34.5550 C   0  0  1  0  0  0  0  0  0  0  0  0
   35.8280   31.4740   35.9580 C   0  0  0  0  0  0  0  0  0  0  0  0
   34.9720   32.3230   36.6160 O   0  0  0  0  0  0  0  0  0  0  0  0
   33.8510   32.5190   35.8720 C   0  0  0  0  0  0  0  0  0  0  0  0
   33.2780   31.6970   33.9330 H   0  0  0  0  0  0  0  0  0  0  0  0
   35.6760   32.1720   33.9490 H   0  0  0  0  0  0  0  0  0  0  0  0
   35.7040   30.4650   36.4350 H   0  0  0  0  0  0  0  0  0  0  0  0
   36.8770   31.8390   36.0130 H   0  0  0  0  0  0  0  0  0  0  0  0
   32.9210   32.3770   36.4540 H   0  0  0  0  0  0  0  0  0  0  0  0
   33.8120   33.4990   35.3520 H   0  0  0  0  0  0  0  0  0  0  0  0
   36.4310   28.0480   33.5850 C   0  0  0  0  0  0  0  0  0  0  0  0
   35.9320   28.4920   32.3970 C   0  0  0  0  0  0  0  0  0  0  0  0
   35.4750   29.7790   32.6680 C   0  0  0  0  0  0  0  0  0  0  0  0
   35.6990   30.0700   33.9590 N   0  0  0  0  0  0  0  0  0  0  0  0
   36.2840   29.0120   34.5250 N   0  0  0  0  0  0  0  0  0  0  0  0
   35.9170   27.9380   31.4810 H   0  0  0  0  0  0  0  0  0  0  0  0
   35.0160   30.4040   31.9060 H   0  0  0  0  0  0  0  0  0  0  0  0
   38.1800   25.1610   35.2100 C   0  0  0  0  0  0  0  0  0  0  0  0
   37.6240   26.4120   35.0310 C   0  0  0  0  0  0  0  0  0  0  0  0
   37.0310   26.7450   33.8260 C   0  0  0  0  0  0  0  0  0  0  0  0
   37.0230   25.8110   32.8550 N   0  0  0  0  0  0  0  0  0  0  0  0
   37.5790   24.5830   33.0540 C   0  0  0  0  0  0  0  0  0  0  0  0
   38.1480   24.2520   34.1980 N   0  0  0  0  0  0  0  0  0  0  0  0
   37.6050   27.1960   35.7800 H   0  0  0  0  0  0  0  0  0  0  0  0
   37.5690   23.8360   32.2660 H   0  0  0  0  0  0  0  0  0  0  0  0
   38.7340   24.9930   36.4820 O   0  0  0  0  0  0  0  0  0  0  0  0
   38.1530   24.1760   37.4690 C   0  0  0  0  0  0  0  0  0  0  0  0
   38.9180   23.0550   37.7510 F   0  0  0  0  0  0  0  0  0  0  0  0
   36.8920   23.8280   37.0450 F   0  0  0  0  0  0  0  0  0  0  0  0
   38.0120   24.9320   38.6180 F   0  0  0  0  0  0  0  0  0  0  0  0
   33.4990   30.2160   35.4430 O   0  0  0  0  0  0  0  0  0  0  0  0
   32.0820   28.8620   32.9940 Cl  0  0  0  0  0  0  0  0  0  0  0  0
   31.5470   28.8060   34.6450 C   0  0  0  0  0  0  0  0  0  0  0  0
   32.3550   29.4850   35.5140 C   0  0  0  0  0  0  0  0  0  0  0  0
   31.9520   29.4600   36.8590 C   0  0  0  0  0  0  0  0  0  0  0  0
   32.4200   29.9200   37.7390 H   0  0  0  0  0  0  0  0  0  0  0  0
   30.7980   28.7830   37.2760 C   0  0  0  0  0  0  0  0  0  0  0  0
   30.4230   28.7160   38.2770 H   0  0  0  0  0  0  0  0  0  0  0  0
   30.0290   28.1190   36.3450 C   0  0  0  0  0  3  0  0  0  0  0  0
   30.4090   28.1330   35.0250 C   0  0  0  0  0  3  0  0  0  0  0  0
  1  6  1  6  0  0  0
  1 32  1  0  0  0  0
  1  5  1  0  0  0  0
  2  7  1  6  0  0  0
  2  1  1  0  0  0  0
  2  3  1  0  0  0  0
  3  9  1  0  0  0  0
  3  8  1  0  0  0  0
  3  4  1  0  0  0  0
  5 10  1  0  0  0  0
  5  4  1  0  0  0  0
 11  5  1  0  0  0  0
 12 21  1  0  0  0  0
 12 16  2  0  0  0  0
 13 14  2  0  0  0  0
 13 12  1  0  0  0  0
 14 15  1  0  0  0  0
 15 16  1  0  0  0  0
 15  2  1  0  0  0  0
 17 13  1  0  0  0  0
 18 14  1  0  0  0  0
 19 27  1  0  0  0  0
 20 19  1  0  0  0  0
 20 25  1  0  0  0  0
 21 20  2  0  0  0  0
 22 23  2  0  0  0  0
 22 21  1  0  0  0  0
 23 24  1  0  0  0  0
 24 19  2  0  0  0  0
 26 23  1  0  0  0  0
 27 28  1  0  0  0  0
 28 29  1  0  0  0  0
 28 31  1  0  0  0  0
 30 28  1  0  0  0  0
 32 35  1  0  0  0  0
 33 34  1  0  0  0  0
 34 41  2  0  0  0  0
 34 35  1  0  0  0  0
 35 36  2  0  0  0  0
 36 38  1  0  0  0  0
 36 37  1  0  0  0  0
 38 39  1  0  0  0  0
 40 38  2  0  0  0  0
 41 40  1  0  0  0  0
M  END
>  <minimizedAffinity>
-6.1226697

$$$$

 OpenBabel03272503433D

 41 44  0  0  1  0  0  0  0  0999 V2000
   38.9160   23.0060   33.3320 C   0  0  2  0  0  0  0  0  0  0  0  0
   38.0480   23.5590   32.1780 C   0  0  1  0  0  0  0  0  0  0  0  0
   36.7430   22.9370   32.5490 C   0  0  0  0  0  0  0  0  0  0  0  0
   37.0080   21.6940   33.0690 O   0  0  0  0  0  0  0  0  0  0  0  0
   38.3390   21.5720   33.3210 C   0  0  0  0  0  0  0  0  0  0  0  0
   39.9680   22.9990   33.0480 H   0  0  0  0  0  0  0  0  0  0  0  0
   38.3750   23.2060   31.2040 H   0  0  0  0  0  0  0  0  0  0  0  0
   36.3290   23.5530   33.3940 H   0  0  0  0  0  0  0  0  0  0  0  0
   36.0380   22.8720   31.6910 H   0  0  0  0  0  0  0  0  0  0  0  0
   38.5490   21.1900   34.3380 H   0  0  0  0  0  0  0  0  0  0  0  0
   38.8910   20.9580   32.5780 H   0  0  0  0  0  0  0  0  0  0  0  0
   37.3990   27.0960   32.3430 C   0  0  0  0  0  0  0  0  0  0  0  0
   38.7590   27.1070   32.2620 C   0  0  0  0  0  0  0  0  0  0  0  0
   39.1190   25.7640   32.1930 C   0  0  0  0  0  0  0  0  0  0  0  0
   38.0120   25.0030   32.2320 N   0  0  0  0  0  0  0  0  0  0  0  0
   36.9570   25.8160   32.3240 N   0  0  0  0  0  0  0  0  0  0  0  0
   39.3760   27.9830   32.2550 H   0  0  0  0  0  0  0  0  0  0  0  0
   40.1550   25.4430   32.1180 H   0  0  0  0  0  0  0  0  0  0  0  0
   35.2280   29.8430   33.6750 C   0  0  0  0  0  0  0  0  0  0  0  0
   36.0430   28.7290   33.6410 C   0  0  0  0  0  0  0  0  0  0  0  0
   36.5380   28.2640   32.4360 C   0  0  0  0  0  0  0  0  0  0  0  0
   36.1950   28.9360   31.3190 N   0  0  0  0  0  0  0  0  0  0  0  0
   35.3890   30.0330   31.3770 C   0  0  0  0  0  0  0  0  0  0  0  0
   34.9090   30.4870   32.5200 N   0  0  0  0  0  0  0  0  0  0  0  0
   36.3470   28.1550   34.5100 H   0  0  0  0  0  0  0  0  0  0  0  0
   35.1160   30.5690   30.4730 H   0  0  0  0  0  0  0  0  0  0  0  0
   34.8190   30.1730   34.9700 O   0  0  0  0  0  0  0  0  0  0  0  0
   35.3590   31.2540   35.6920 C   0  0  0  0  0  0  0  0  0  0  0  0
   36.6920   31.0620   36.0180 F   0  0  0  0  0  0  0  0  0  0  0  0
   34.5890   31.4400   36.8160 F   0  0  0  0  0  0  0  0  0  0  0  0
   35.2390   32.3880   34.9120 F   0  0  0  0  0  0  0  0  0  0  0  0
   38.5120   23.6420   34.4590 O   0  0  0  0  0  0  0  0  0  0  0  0
   41.0900   22.2260   35.5500 Cl  0  0  0  0  0  0  0  0  0  0  0  0
   39.8190   22.9180   36.5090 C   0  0  0  0  0  0  0  0  0  0  0  0
   38.8090   23.4750   35.7750 C   0  0  0  0  0  0  0  0  0  0  0  0
   37.7640   24.0440   36.5200 C   0  0  0  0  0  0  0  0  0  0  0  0
   36.8500   24.5450   36.1740 H   0  0  0  0  0  0  0  0  0  0  0  0
   37.7620   24.0400   37.9210 C   0  0  0  0  0  0  0  0  0  0  0  0
   37.0070   24.4510   38.5600 H   0  0  0  0  0  0  0  0  0  0  0  0
   38.8140   23.4610   38.5980 C   0  0  0  0  0  3  0  0  0  0  0  0
   39.8440   22.8990   37.8840 C   0  0  0  0  0  3  0  0  0  0  0  0
  1  6  1  6  0  0  0
  1 32  1  0  0  0  0
  2  7  1  6  0  0  0
  2 15  1  0  0  0  0
  2  3  1  0  0  0  0
  2  1  1  0  0  0  0
  3  4  1  0  0  0  0
  3  8  1  0  0  0  0
  4  5  1  0  0  0  0
  5  1  1  0  0  0  0
  5 10  1  0  0  0  0
  9  3  1  0  0  0  0
 11  5  1  0  0  0  0
 12 21  1  0  0  0  0
 13 12  1  0  0  0  0
 14 15  1  0  0  0  0
 14 13  2  0  0  0  0
 15 16  1  0  0  0  0
 16 12  2  0  0  0  0
 17 13  1  0  0  0  0
 18 14  1  0  0  0  0
 19 27  1  0  0  0  0
 20 19  1  0  0  0  0
 20 25  1  0  0  0  0
 21 20  2  0  0  0  0
 22 23  2  0  0  0  0
 22 21  1  0  0  0  0
 23 24  1  0  0  0  0
 24 19  2  0  0  0  0
 26 23  1  0  0  0  0
 27 28  1  0  0  0  0
 28 29  1  0  0  0  0
 28 30  1  0  0  0  0
 31 28  1  0  0  0  0
 32 35  1  0  0  0  0
 33 34  1  0  0  0  0
 34 41  1  0  0  0  0
 35 34  2  0  0  0  0
 35 36  1  0  0  0  0
 36 38  2  0  0  0  0
 37 36  1  0  0  0  0
 38 39  1  0  0  0  0
 38 40  1  0  0  0  0
 41 40  2  0  0  0  0
M  END
>  <minimizedAffinity>
-6.07787085

$$$$

 OpenBabel03272503433D

 41 44  0  0  1  0  0  0  0  0999 V2000
   39.6800   23.7430   35.3520 C   0  0  2  0  0  0  0  0  0  0  0  0
   38.1440   23.9140   35.3480 C   0  0  1  0  0  0  0  0  0  0  0  0
   37.9530   24.3460   36.7640 C   0  0  0  0  0  0  0  0  0  0  0  0
   38.8620   23.6610   37.5330 O   0  0  0  0  0  0  0  0  0  0  0  0
   39.7810   23.0560   36.7350 C   0  0  0  0  0  0  0  0  0  0  0  0
   39.9900   23.0610   34.5620 H   0  0  0  0  0  0  0  0  0  0  0  0
   37.6210   22.9810   35.1600 H   0  0  0  0  0  0  0  0  0  0  0  0
   38.2530   25.4290   36.8070 H   0  0  0  0  0  0  0  0  0  0  0  0
   36.9150   24.1830   37.1280 H   0  0  0  0  0  0  0  0  0  0  0  0
   40.8220   23.2520   37.0550 H   0  0  0  0  0  0  0  0  0  0  0  0
   39.6340   21.9630   36.6140 H   0  0  0  0  0  0  0  0  0  0  0  0
   37.0690   26.7690   33.4360 C   0  0  0  0  0  0  0  0  0  0  0  0
   37.4010   25.9170   32.4250 C   0  0  0  0  0  0  0  0  0  0  0  0
   37.8380   24.7620   33.0680 C   0  0  0  0  0  0  0  0  0  0  0  0
   37.7610   24.9350   34.3980 N   0  0  0  0  0  0  0  0  0  0  0  0
   37.2910   26.1640   34.6270 N   0  0  0  0  0  0  0  0  0  0  0  0
   37.3260   26.1330   31.3790 H   0  0  0  0  0  0  0  0  0  0  0  0
   38.1760   23.8850   32.5210 H   0  0  0  0  0  0  0  0  0  0  0  0
   35.4560   30.0810   34.1120 C   0  0  0  0  0  0  0  0  0  0  0  0
   35.9280   28.7990   34.3100 C   0  0  0  0  0  0  0  0  0  0  0  0
   36.5530   28.1200   33.2810 C   0  0  0  0  0  0  0  0  0  0  0  0
   36.6770   28.7550   32.0980 N   0  0  0  0  0  0  0  0  0  0  0  0
   36.2020   30.0200   31.9250 C   0  0  0  0  0  0  0  0  0  0  0  0
   35.6030   30.6800   32.8990 N   0  0  0  0  0  0  0  0  0  0  0  0
   35.8530   28.2480   35.2410 H   0  0  0  0  0  0  0  0  0  0  0  0
   36.3050   30.5240   30.9690 H   0  0  0  0  0  0  0  0  0  0  0  0
   34.8540   30.6180   35.2530 O   0  0  0  0  0  0  0  0  0  0  0  0
   35.4070   31.6890   35.9810 C   0  0  0  0  0  0  0  0  0  0  0  0
   34.8990   31.7760   37.2670 F   0  0  0  0  0  0  0  0  0  0  0  0
   35.1820   32.8450   35.2720 F   0  0  0  0  0  0  0  0  0  0  0  0
   36.7750   31.4970   36.0430 F   0  0  0  0  0  0  0  0  0  0  0  0
   40.2090   24.9890   35.4330 O   0  0  0  0  0  0  0  0  0  0  0  0
   43.1360   24.0850   36.1090 Cl  0  0  0  0  0  0  0  0  0  0  0  0
   42.6850   25.3720   35.0350 C   0  0  0  0  0  0  0  0  0  0  0  0
   41.3340   25.5540   34.9210 C   0  0  0  0  0  0  0  0  0  0  0  0
   40.9340   26.5870   34.0590 C   0  0  0  0  0  0  0  0  0  0  0  0
   39.9240   26.9300   33.7990 H   0  0  0  0  0  0  0  0  0  0  0  0
   41.8610   27.3750   33.3640 C   0  0  0  0  0  0  0  0  0  0  0  0
   41.6380   28.1790   32.6910 H   0  0  0  0  0  0  0  0  0  0  0  0
   43.2080   27.1370   33.5250 C   0  0  0  0  0  3  0  0  0  0  0  0
   43.6170   26.1300   34.3650 C   0  0  0  0  0  3  0  0  0  0  0  0
  1  6  1  6  0  0  0
  1 32  1  0  0  0  0
  1  5  1  0  0  0  0
  2  7  1  6  0  0  0
  2  1  1  0  0  0  0
  2  3  1  0  0  0  0
  3  8  1  0  0  0  0
  3  9  1  0  0  0  0
  3  4  1  0  0  0  0
  5 10  1  0  0  0  0
  5  4  1  0  0  0  0
 11  5  1  0  0  0  0
 12 16  2  0  0  0  0
 13 14  2  0  0  0  0
 13 12  1  0  0  0  0
 14 15  1  0  0  0  0
 15 16  1  0  0  0  0
 15  2  1  0  0  0  0
 17 13  1  0  0  0  0
 18 14  1  0  0  0  0
 19 20  1  0  0  0  0
 19 27  1  0  0  0  0
 20 25  1  0  0  0  0
 21 12  1  0  0  0  0
 21 20  2  0  0  0  0
 22 21  1  0  0  0  0
 23 22  2  0  0  0  0
 23 24  1  0  0  0  0
 24 19  2  0  0  0  0
 26 23  1  0  0  0  0
 27 28  1  0  0  0  0
 28 31  1  0  0  0  0
 28 29  1  0  0  0  0
 30 28  1  0  0  0  0
 34 33  1  0  0  0  0
 35 34  1  0  0  0  0
 35 32  1  0  0  0  0
 36 35  2  0  0  0  0
 37 36  1  0  0  0  0
 38 40  2  0  0  0  0
 38 36  1  0  0  0  0
 39 38  1  0  0  0  0
 40 41  1  0  0  0  0
 41 34  2  0  0  0  0
M  END
>  <minimizedAffinity>
-6.06589365

$$$$

 OpenBabel03272503433D

 41 44  0  0  1  0  0  0  0  0999 V2000
   37.2290   27.9120   30.2760 C   0  0  2  0  0  0  0  0  0  0  0  0
   38.6030   27.2180   30.1260 C   0  0  1  0  0  0  0  0  0  0  0  0
   39.4460   28.4230   29.8670 C   0  0  0  0  0  0  0  0  0  0  0  0
   38.7010   29.2970   29.1130 O   0  0  0  0  0  0  0  0  0  0  0  0
   37.3990   28.9040   29.1010 C   0  0  0  0  0  0  0  0  0  0  0  0
   36.4230   27.2100   30.0700 H   0  0  0  0  0  0  0  0  0  0  0  0
   38.6370   26.5400   29.2790 H   0  0  0  0  0  0  0  0  0  0  0  0
   39.6040   28.9170   30.8640 H   0  0  0  0  0  0  0  0  0  0  0  0
   40.4060   28.1750   29.3630 H   0  0  0  0  0  0  0  0  0  0  0  0
   36.7010   29.7270   29.3420 H   0  0  0  0  0  0  0  0  0  0  0  0
   37.0780   28.4150   28.1570 H   0  0  0  0  0  0  0  0  0  0  0  0
   39.0410   25.2080   33.0800 C   0  0  0  0  0  0  0  0  0  0  0  0
   40.0710   26.0870   33.2350 C   0  0  0  0  0  0  0  0  0  0  0  0
   39.9900   26.9240   32.1250 C   0  0  0  0  0  0  0  0  0  0  0  0
   38.9550   26.5460   31.3570 N   0  0  0  0  0  0  0  0  0  0  0  0
   38.3710   25.4950   31.9380 N   0  0  0  0  0  0  0  0  0  0  0  0
   40.7650   26.0950   34.0500 H   0  0  0  0  0  0  0  0  0  0  0  0
   40.6870   27.7420   31.9630 H   0  0  0  0  0  0  0  0  0  0  0  0
   38.7340   23.0600   36.1330 C   0  0  0  0  0  0  0  0  0  0  0  0
   39.0870   24.1130   35.3140 C   0  0  0  0  0  0  0  0  0  0  0  0
   38.6980   24.1240   33.9860 C   0  0  0  0  0  0  0  0  0  0  0  0
   37.9740   23.0780   33.5390 N   0  0  0  0  0  0  0  0  0  0  0  0
   37.6390   22.0490   34.3660 C   0  0  0  0  0  0  0  0  0  0  0  0
   38.0030   22.0260   35.6350 N   0  0  0  0  0  0  0  0  0  0  0  0
   39.6660   24.9750   35.6250 H   0  0  0  0  0  0  0  0  0  0  0  0
   37.0560   21.2100   33.9990 H   0  0  0  0  0  0  0  0  0  0  0  0
   39.2080   23.2100   37.4400 O   0  0  0  0  0  0  0  0  0  0  0  0
   38.4130   23.7040   38.4910 C   0  0  0  0  0  0  0  0  0  0  0  0
   37.3530   22.8640   38.7960 F   0  0  0  0  0  0  0  0  0  0  0  0
   37.9740   24.9580   38.1380 F   0  0  0  0  0  0  0  0  0  0  0  0
   39.2200   23.8420   39.6050 F   0  0  0  0  0  0  0  0  0  0  0  0
   37.2660   28.5960   31.4450 O   0  0  0  0  0  0  0  0  0  0  0  0
   37.1040   27.7160   34.4520 Cl  0  0  0  0  0  0  0  0  0  0  0  0
   35.9960   28.7740   33.6340 C   0  0  0  0  0  0  0  0  0  0  0  0
   36.3030   28.9920   32.3190 C   0  0  0  0  0  0  0  0  0  0  0  0
   35.4280   29.8430   31.6270 C   0  0  0  0  0  0  0  0  0  0  0  0
   35.4520   30.1720   30.5800 H   0  0  0  0  0  0  0  0  0  0  0  0
   34.3160   30.4280   32.2480 C   0  0  0  0  0  0  0  0  0  0  0  0
   33.6030   31.0860   31.7920 H   0  0  0  0  0  0  0  0  0  0  0  0
   34.0650   30.1660   33.5770 C   0  0  0  0  0  3  0  0  0  0  0  0
   34.9120   29.3340   34.2690 C   0  0  0  0  0  3  0  0  0  0  0  0
  1  6  1  6  0  0  0
  1 32  1  0  0  0  0
  2  7  1  6  0  0  0
  2  1  1  0  0  0  0
  2 15  1  0  0  0  0
  3  2  1  0  0  0  0
  3  8  1  0  0  0  0
  4  3  1  0  0  0  0
  5  4  1  0  0  0  0
  5 10  1  0  0  0  0
  5  1  1  0  0  0  0
  9  3  1  0  0  0  0
 11  5  1  0  0  0  0
 12 13  1  0  0  0  0
 12 21  1  0  0  0  0
 13 17  1  0  0  0  0
 14 13  2  0  0  0  0
 15 16  1  0  0  0  0
 15 14  1  0  0  0  0
 16 12  2  0  0  0  0
 18 14  1  0  0  0  0
 19 27  1  0  0  0  0
 20 25  1  0  0  0  0
 20 19  2  0  0  0  0
 21 20  1  0  0  0  0
 22 21  2  0  0  0  0
 22 23  1  0  0  0  0
 23 24  2  0  0  0  0
 24 19  1  0  0  0  0
 26 23  1  0  0  0  0
 27 28  1  0  0  0  0
 28 29  1  0  0  0  0
 28 31  1  0  0  0  0
 30 28  1  0  0  0  0
 32 35  1  0  0  0  0
 34 41  1  0  0  0  0
 34 33  1  0  0  0  0
 35 34  2  0  0  0  0
 36 38  2  0  0  0  0
 36 35  1  0  0  0  0
 37 36  1  0  0  0  0
 38 40  1  0  0  0  0
 39 38  1  0  0  0  0
 40 41  2  0  0  0  0
M  END
>  <minimizedAffinity>
-6.01316261

$$$$

 OpenBabel03272503433D

 41 44  0  0  1  0  0  0  0  0999 V2000
   38.1960   23.0510   35.5440 C   0  0  2  0  0  0  0  0  0  0  0  0
   39.1100   24.2940   35.6510 C   0  0  1  0  0  0  0  0  0  0  0  0
   40.4110   23.6590   35.2890 C   0  0  0  0  0  0  0  0  0  0  0  0
   40.4150   22.3910   35.8160 O   0  0  0  0  0  0  0  0  0  0  0  0
   39.1640   22.0570   36.2300 C   0  0  0  0  0  0  0  0  0  0  0  0
   37.2970   23.1860   36.1440 H   0  0  0  0  0  0  0  0  0  0  0  0
   39.1490   24.6970   36.6590 H   0  0  0  0  0  0  0  0  0  0  0  0
   40.4040   23.5390   34.1720 H   0  0  0  0  0  0  0  0  0  0  0  0
   41.2880   24.2440   35.6430 H   0  0  0  0  0  0  0  0  0  0  0  0
   38.8390   21.0680   35.8580 H   0  0  0  0  0  0  0  0  0  0  0  0
   39.0190   22.1020   37.3300 H   0  0  0  0  0  0  0  0  0  0  0  0
   37.6740   26.9170   33.6460 C   0  0  0  0  0  0  0  0  0  0  0  0
   38.6860   26.5190   32.8270 C   0  0  0  0  0  0  0  0  0  0  0  0
   39.3160   25.4890   33.5210 C   0  0  0  0  0  0  0  0  0  0  0  0
   38.6950   25.2970   34.6960 N   0  0  0  0  0  0  0  0  0  0  0  0
   37.6880   26.1700   34.7770 N   0  0  0  0  0  0  0  0  0  0  0  0
   38.9110   26.9350   31.8660 H   0  0  0  0  0  0  0  0  0  0  0  0
   40.1760   24.9590   33.1190 H   0  0  0  0  0  0  0  0  0  0  0  0
   35.1900   29.6910   34.0590 C   0  0  0  0  0  0  0  0  0  0  0  0
   36.0930   28.6950   34.3740 C   0  0  0  0  0  0  0  0  0  0  0  0
   36.7160   27.9760   33.3700 C   0  0  0  0  0  0  0  0  0  0  0  0
   36.4070   28.2870   32.0950 N   0  0  0  0  0  0  0  0  0  0  0  0
   35.5130   29.2730   31.8080 C   0  0  0  0  0  0  0  0  0  0  0  0
   34.9100   29.9670   32.7560 N   0  0  0  0  0  0  0  0  0  0  0  0
   36.3740   28.4080   35.3810 H   0  0  0  0  0  0  0  0  0  0  0  0
   35.2680   29.5180   30.7790 H   0  0  0  0  0  0  0  0  0  0  0  0
   34.6560   30.3140   35.1900 O   0  0  0  0  0  0  0  0  0  0  0  0
   35.2020   31.4840   35.7510 C   0  0  0  0  0  0  0  0  0  0  0  0
   35.0470   32.5890   34.9290 F   0  0  0  0  0  0  0  0  0  0  0  0
   36.5280   31.2450   36.0250 F   0  0  0  0  0  0  0  0  0  0  0  0
   34.5630   31.7170   36.9540 F   0  0  0  0  0  0  0  0  0  0  0  0
   38.1060   22.7480   34.2260 O   0  0  0  0  0  0  0  0  0  0  0  0
   35.9530   20.7180   35.2680 Cl  0  0  0  0  0  0  0  0  0  0  0  0
   36.0880   21.3250   33.6470 C   0  0  0  0  0  0  0  0  0  0  0  0
   37.1210   22.2020   33.4650 C   0  0  0  0  0  0  0  0  0  0  0  0
   37.2590   22.7130   32.1650 C   0  0  0  0  0  0  0  0  0  0  0  0
   37.9960   23.4210   31.7650 H   0  0  0  0  0  0  0  0  0  0  0  0
   36.3910   22.3460   31.1270 C   0  0  0  0  0  0  0  0  0  0  0  0
   36.4280   22.6890   30.1130 H   0  0  0  0  0  0  0  0  0  0  0  0
   35.3690   21.4570   31.3810 C   0  0  0  0  0  3  0  0  0  0  0  0
   35.2210   20.9470   32.6480 C   0  0  0  0  0  3  0  0  0  0  0  0
  1  2  1  0  0  0  0
  1  6  1  1  0  0  0
  1  5  1  0  0  0  0
  2  7  1  1  0  0  0
  3  9  1  0  0  0  0
  3  2  1  0  0  0  0
  3  4  1  0  0  0  0
  4  5  1  0  0  0  0
  5 11  1  0  0  0  0
  8  3  1  0  0  0  0
 10  5  1  0  0  0  0
 12 16  2  0  0  0  0
 13 14  2  0  0  0  0
 13 12  1  0  0  0  0
 14 15  1  0  0  0  0
 15 16  1  0  0  0  0
 15  2  1  0  0  0  0
 17 13  1  0  0  0  0
 18 14  1  0  0  0  0
 19 20  1  0  0  0  0
 19 27  1  0  0  0  0
 20 25  1  0  0  0  0
 21 12  1  0  0  0  0
 21 20  2  0  0  0  0
 22 21  1  0  0  0  0
 23 22  2  0  0  0  0
 23 24  1  0  0  0  0
 24 19  2  0  0  0  0
 26 23  1  0  0  0  0
 27 28  1  0  0  0  0
 28 30  1  0  0  0  0
 28 31  1  0  0  0  0
 29 28  1  0  0  0  0
 32  1  1  0  0  0  0
 34 33  1  0  0  0  0
 35 34  1  0  0  0  0
 35 32  1  0  0  0  0
 36 35  2  0  0  0  0
 37 36  1  0  0  0  0
 38 40  2  0  0  0  0
 38 36  1  0  0  0  0
 39 38  1  0  0  0  0
 40 41  1  0  0  0  0
 41 34  2  0  0  0  0
M  END
>  <minimizedAffinity>
-5.92362833

$$$$

 OpenBabel03272503433D

 41 44  0  0  1  0  0  0  0  0999 V2000
   38.8600   26.4470   30.7780 C   0  0  2  0  0  0  0  0  0  0  0  0
   38.7560   27.5410   31.8660 C   0  0  1  0  0  0  0  0  0  0  0  0
   37.7000   28.3910   31.2420 C   0  0  0  0  0  0  0  0  0  0  0  0
   37.9030   28.3750   29.8830 O   0  0  0  0  0  0  0  0  0  0  0  0
   38.7910   27.3980   29.5600 C   0  0  0  0  0  0  0  0  0  0  0  0
   39.8300   25.9550   30.8250 H   0  0  0  0  0  0  0  0  0  0  0  0
   39.6780   28.1030   31.9820 H   0  0  0  0  0  0  0  0  0  0  0  0
   36.7230   27.8660   31.4230 H   0  0  0  0  0  0  0  0  0  0  0  0
   37.6970   29.4320   31.6340 H   0  0  0  0  0  0  0  0  0  0  0  0
   38.4360   26.7520   28.7360 H   0  0  0  0  0  0  0  0  0  0  0  0
   39.8110   27.7680   29.3230 H   0  0  0  0  0  0  0  0  0  0  0  0
   38.1660   25.7720   34.9450 C   0  0  0  0  0  0  0  0  0  0  0  0
   37.0700   26.5800   34.9220 C   0  0  0  0  0  0  0  0  0  0  0  0
   37.2030   27.3200   33.7500 C   0  0  0  0  0  0  0  0  0  0  0  0
   38.3310   26.9560   33.1180 N   0  0  0  0  0  0  0  0  0  0  0  0
   38.9240   26.0080   33.8470 N   0  0  0  0  0  0  0  0  0  0  0  0
   36.2990   26.6060   35.6650 H   0  0  0  0  0  0  0  0  0  0  0  0
   36.4710   28.0640   33.4460 H   0  0  0  0  0  0  0  0  0  0  0  0
   39.6150   22.8370   36.7670 C   0  0  0  0  0  0  0  0  0  0  0  0
   39.3390   23.7320   35.7520 C   0  0  0  0  0  0  0  0  0  0  0  0
   38.4910   24.8010   35.9780 C   0  0  0  0  0  0  0  0  0  0  0  0
   37.9570   24.9260   37.2100 N   0  0  0  0  0  0  0  0  0  0  0  0
   38.2440   24.0300   38.1950 C   0  0  0  0  0  0  0  0  0  0  0  0
   39.0510   23.0050   37.9940 N   0  0  0  0  0  0  0  0  0  0  0  0
   39.7430   23.6750   34.7480 H   0  0  0  0  0  0  0  0  0  0  0  0
   37.8100   24.1370   39.1840 H   0  0  0  0  0  0  0  0  0  0  0  0
   40.4880   21.8200   36.3680 O   0  0  0  0  0  0  0  0  0  0  0  0
   41.7870   21.6780   36.8890 C   0  0  0  0  0  0  0  0  0  0  0  0
   42.4530   22.8890   36.9960 F   0  0  0  0  0  0  0  0  0  0  0  0
   42.4730   20.7970   36.0860 F   0  0  0  0  0  0  0  0  0  0  0  0
   41.6820   21.1040   38.1430 F   0  0  0  0  0  0  0  0  0  0  0  0
   37.7150   25.7240   30.8450 O   0  0  0  0  0  0  0  0  0  0  0  0
   39.6860   23.4890   29.8640 Cl  0  0  0  0  0  0  0  0  0  0  0  0
   38.1120   23.2360   30.5540 C   0  0  0  0  0  0  0  0  0  0  0  0
   37.4640   24.3900   30.8970 C   0  0  0  0  0  0  0  0  0  0  0  0
   36.1880   24.2210   31.4580 C   0  0  0  0  0  0  0  0  0  0  0  0
   35.4730   24.9760   31.8110 H   0  0  0  0  0  0  0  0  0  0  0  0
   35.6230   22.9530   31.6520 C   0  0  0  0  0  0  0  0  0  0  0  0
   34.6610   22.7410   32.0720 H   0  0  0  0  0  0  0  0  0  0  0  0
   36.3340   21.8320   31.2840 C   0  0  0  0  0  3  0  0  0  0  0  0
   37.5830   21.9790   30.7330 C   0  0  0  0  0  3  0  0  0  0  0  0
  1  6  1  1  0  0  0
  1 32  1  0  0  0  0
  1  2  1  0  0  0  0
  2  7  1  1  0  0  0
  2 15  1  0  0  0  0
  3  8  1  0  0  0  0
  3  9  1  0  0  0  0
  3  2  1  0  0  0  0
  4  3  1  0  0  0  0
  5  4  1  0  0  0  0
  5  1  1  0  0  0  0
 10  5  1  0  0  0  0
 11  5  1  0  0  0  0
 12 21  1  0  0  0  0
 13 12  1  0  0  0  0
 13 17  1  0  0  0  0
 14 13  2  0  0  0  0
 15 14  1  0  0  0  0
 15 16  1  0  0  0  0
 16 12  2  0  0  0  0
 18 14  1  0  0  0  0
 19 24  1  0  0  0  0
 20 21  1  0  0  0  0
 20 19  2  0  0  0  0
 21 22  2  0  0  0  0
 22 23  1  0  0  0  0
 23 26  1  0  0  0  0
 24 23  2  0  0  0  0
 25 20  1  0  0  0  0
 27 19  1  0  0  0  0
 27 28  1  0  0  0  0
 28 29  1  0  0  0  0
 28 31  1  0  0  0  0
 30 28  1  0  0  0  0
 32 35  1  0  0  0  0
 33 34  1  0  0  0  0
 34 41  2  0  0  0  0
 34 35  1  0  0  0  0
 35 36  2  0  0  0  0
 36 38  1  0  0  0  0
 36 37  1  0  0  0  0
 38 39  1  0  0  0  0
 40 38  2  0  0  0  0
 41 40  1  0  0  0  0
M  END
>  <minimizedAffinity>
-5.91399956

$$$$

 OpenBabel03272503433D

 41 44  0  0  1  0  0  0  0  0999 V2000
   38.9590   22.3530   34.2760 C   0  0  2  0  0  0  0  0  0  0  0  0
   39.7430   23.6750   34.1080 C   0  0  1  0  0  0  0  0  0  0  0  0
   40.0410   23.5860   32.6480 C   0  0  0  0  0  0  0  0  0  0  0  0
   40.2710   22.2650   32.3510 O   0  0  0  0  0  0  0  0  0  0  0  0
   39.8840   21.4820   33.3930 C   0  0  0  0  0  0  0  0  0  0  0  0
   38.9930   22.0190   35.3110 H   0  0  0  0  0  0  0  0  0  0  0  0
   40.6630   23.6900   34.6840 H   0  0  0  0  0  0  0  0  0  0  0  0
   39.0940   23.8720   32.1150 H   0  0  0  0  0  0  0  0  0  0  0  0
   40.9020   24.2220   32.3450 H   0  0  0  0  0  0  0  0  0  0  0  0
   39.2400   20.6390   33.0800 H   0  0  0  0  0  0  0  0  0  0  0  0
   40.7220   21.0940   34.0090 H   0  0  0  0  0  0  0  0  0  0  0  0
   37.6510   26.5930   34.3730 C   0  0  0  0  0  0  0  0  0  0  0  0
   37.6790   26.2010   35.6780 C   0  0  0  0  0  0  0  0  0  0  0  0
   38.4760   25.0590   35.6850 C   0  0  0  0  0  0  0  0  0  0  0  0
   38.8940   24.7990   34.4360 N   0  0  0  0  0  0  0  0  0  0  0  0
   38.3910   25.7360   33.6290 N   0  0  0  0  0  0  0  0  0  0  0  0
   37.1820   26.6950   36.4870 H   0  0  0  0  0  0  0  0  0  0  0  0
   38.6910   24.5070   36.5960 H   0  0  0  0  0  0  0  0  0  0  0  0
   35.5280   29.6660   34.0830 C   0  0  0  0  0  0  0  0  0  0  0  0
   36.1800   28.5820   34.6370 C   0  0  0  0  0  0  0  0  0  0  0  0
   36.9450   27.7480   33.8420 C   0  0  0  0  0  0  0  0  0  0  0  0
   37.0210   28.0360   32.5270 N   0  0  0  0  0  0  0  0  0  0  0  0
   36.3690   29.1100   32.0020 C   0  0  0  0  0  0  0  0  0  0  0  0
   35.6360   29.9150   32.7500 N   0  0  0  0  0  0  0  0  0  0  0  0
   36.1500   28.3090   35.6860 H   0  0  0  0  0  0  0  0  0  0  0  0
   36.4350   29.3360   30.9430 H   0  0  0  0  0  0  0  0  0  0  0  0
   34.8040   30.4000   35.0260 O   0  0  0  0  0  0  0  0  0  0  0  0
   35.3390   31.5060   35.7130 C   0  0  0  0  0  0  0  0  0  0  0  0
   35.2790   32.6740   34.9690 F   0  0  0  0  0  0  0  0  0  0  0  0
   36.6320   31.2010   36.0650 F   0  0  0  0  0  0  0  0  0  0  0  0
   34.6160   31.6720   36.8800 F   0  0  0  0  0  0  0  0  0  0  0  0
   37.7720   22.5240   33.6450 O   0  0  0  0  0  0  0  0  0  0  0  0
   35.8930   20.8260   35.4960 Cl  0  0  0  0  0  0  0  0  0  0  0  0
   35.8990   20.8170   33.7600 C   0  0  0  0  0  0  0  0  0  0  0  0
   36.8230   21.6560   33.2030 C   0  0  0  0  0  0  0  0  0  0  0  0
   36.8550   21.6740   31.7990 C   0  0  0  0  0  0  0  0  0  0  0  0
   37.4950   22.2520   31.1210 H   0  0  0  0  0  0  0  0  0  0  0  0
   35.9930   20.8830   31.0270 C   0  0  0  0  0  0  0  0  0  0  0  0
   35.9540   20.8390   29.9580 H   0  0  0  0  0  0  0  0  0  0  0  0
   35.0840   20.0600   31.6550 C   0  0  0  0  0  3  0  0  0  0  0  0
   35.0410   20.0300   33.0270 C   0  0  0  0  0  3  0  0  0  0  0  0
  1  6  1  1  0  0  0
  2  1  1  0  0  0  0
  2 15  1  0  0  0  0
  2  7  1  1  0  0  0
  3  2  1  0  0  0  0
  4  3  1  0  0  0  0
  4  5  1  0  0  0  0
  5 11  1  0  0  0  0
  5  1  1  0  0  0  0
  8  3  1  0  0  0  0
  9  3  1  0  0  0  0
 10  5  1  0  0  0  0
 12 13  1  0  0  0  0
 13 14  2  0  0  0  0
 13 17  1  0  0  0  0
 14 18  1  0  0  0  0
 15 14  1  0  0  0  0
 16 12  2  0  0  0  0
 16 15  1  0  0  0  0
 19 20  1  0  0  0  0
 19 27  1  0  0  0  0
 20 25  1  0  0  0  0
 21 12  1  0  0  0  0
 21 20  2  0  0  0  0
 22 21  1  0  0  0  0
 23 22  2  0  0  0  0
 23 24  1  0  0  0  0
 24 19  2  0  0  0  0
 26 23  1  0  0  0  0
 27 28  1  0  0  0  0
 28 30  1  0  0  0  0
 28 31  1  0  0  0  0
 29 28  1  0  0  0  0
 32  1  1  0  0  0  0
 34 33  1  0  0  0  0
 35 32  1  0  0  0  0
 35 34  1  0  0  0  0
 36 35  2  0  0  0  0
 37 36  1  0  0  0  0
 38 40  2  0  0  0  0
 38 36  1  0  0  0  0
 39 38  1  0  0  0  0
 40 41  1  0  0  0  0
 41 34  2  0  0  0  0
M  END
>  <minimizedAffinity>
-5.85745001

$$$$

 OpenBabel03272503433D

 41 44  0  0  1  0  0  0  0  0999 V2000
   38.4150   22.9580   35.7650 C   0  0  2  0  0  0  0  0  0  0  0  0
   39.3340   24.1700   36.0420 C   0  0  1  0  0  0  0  0  0  0  0  0
   40.6450   23.5570   35.6760 C   0  0  0  0  0  0  0  0  0  0  0  0
   40.6120   22.2400   36.0670 O   0  0  0  0  0  0  0  0  0  0  0  0
   39.3390   21.8840   36.3860 C   0  0  0  0  0  0  0  0  0  0  0  0
   37.4900   23.0430   36.3340 H   0  0  0  0  0  0  0  0  0  0  0  0
   39.3310   24.4650   37.0880 H   0  0  0  0  0  0  0  0  0  0  0  0
   40.6890   23.5530   34.5530 H   0  0  0  0  0  0  0  0  0  0  0  0
   41.5100   24.0890   36.1290 H   0  0  0  0  0  0  0  0  0  0  0  0
   39.0220   20.9440   35.8990 H   0  0  0  0  0  0  0  0  0  0  0  0
   39.1430   21.8160   37.4770 H   0  0  0  0  0  0  0  0  0  0  0  0
   37.9150   26.8400   34.0900 C   0  0  0  0  0  0  0  0  0  0  0  0
   39.2160   26.9200   33.6920 C   0  0  0  0  0  0  0  0  0  0  0  0
   39.8630   25.9120   34.4020 C   0  0  0  0  0  0  0  0  0  0  0  0
   38.9740   25.2730   35.1800 N   0  0  0  0  0  0  0  0  0  0  0  0
   37.7800   25.8380   34.9920 N   0  0  0  0  0  0  0  0  0  0  0  0
   39.6090   27.6210   32.9850 H   0  0  0  0  0  0  0  0  0  0  0  0
   40.9280   25.7200   34.2970 H   0  0  0  0  0  0  0  0  0  0  0  0
   35.1830   29.4000   33.9640 C   0  0  0  0  0  0  0  0  0  0  0  0
   36.2120   28.6190   34.4490 C   0  0  0  0  0  0  0  0  0  0  0  0
   36.8270   27.6880   33.6310 C   0  0  0  0  0  0  0  0  0  0  0  0
   36.3800   27.5810   32.3630 N   0  0  0  0  0  0  0  0  0  0  0  0
   35.3610   28.3620   31.9060 C   0  0  0  0  0  0  0  0  0  0  0  0
   34.7670   29.2540   32.6770 N   0  0  0  0  0  0  0  0  0  0  0  0
   36.6060   28.6680   35.4580 H   0  0  0  0  0  0  0  0  0  0  0  0
   35.0070   28.2690   30.8850 H   0  0  0  0  0  0  0  0  0  0  0  0
   34.6780   30.2840   34.9220 O   0  0  0  0  0  0  0  0  0  0  0  0
   35.3090   31.4990   35.2510 C   0  0  0  0  0  0  0  0  0  0  0  0
   36.1330   31.9610   34.2370 F   0  0  0  0  0  0  0  0  0  0  0  0
   36.0070   31.3120   36.4200 F   0  0  0  0  0  0  0  0  0  0  0  0
   34.3230   32.4350   35.4990 F   0  0  0  0  0  0  0  0  0  0  0  0
   38.3830   22.7950   34.4200 O   0  0  0  0  0  0  0  0  0  0  0  0
   37.8370   24.1980   31.6680 Cl  0  0  0  0  0  0  0  0  0  0  0  0
   36.9470   22.8620   32.3300 C   0  0  0  0  0  0  0  0  0  0  0  0
   37.3990   22.4440   33.5510 C   0  0  0  0  0  0  0  0  0  0  0  0
   36.7020   21.3640   34.1160 C   0  0  0  0  0  0  0  0  0  0  0  0
   36.8640   20.8490   35.0710 H   0  0  0  0  0  0  0  0  0  0  0  0
   35.6170   20.7590   33.4660 C   0  0  0  0  0  0  0  0  0  0  0  0
   35.0360   19.9360   33.8270 H   0  0  0  0  0  0  0  0  0  0  0  0
   35.2150   21.2320   32.2360 C   0  0  0  0  0  3  0  0  0  0  0  0
   35.8860   22.2880   31.6700 C   0  0  0  0  0  3  0  0  0  0  0  0
  1  2  1  0  0  0  0
  1  6  1  1  0  0  0
  1  5  1  0  0  0  0
  2  7  1  1  0  0  0
  3  2  1  0  0  0  0
  3  4  1  0  0  0  0
  3  9  1  0  0  0  0
  4  5  1  0  0  0  0
  5 11  1  0  0  0  0
  8  3  1  0  0  0  0
 10  5  1  0  0  0  0
 12 16  2  0  0  0  0
 13 12  1  0  0  0  0
 13 14  2  0  0  0  0
 14 15  1  0  0  0  0
 15  2  1  0  0  0  0
 16 15  1  0  0  0  0
 17 13  1  0  0  0  0
 18 14  1  0  0  0  0
 19 20  1  0  0  0  0
 19 27  1  0  0  0  0
 20 25  1  0  0  0  0
 21 12  1  0  0  0  0
 21 20  2  0  0  0  0
 22 21  1  0  0  0  0
 23 22  2  0  0  0  0
 23 24  1  0  0  0  0
 24 19  2  0  0  0  0
 26 23  1  0  0  0  0
 27 28  1  0  0  0  0
 28 31  1  0  0  0  0
 28 30  1  0  0  0  0
 29 28  1  0  0  0  0
 32  1  1  0  0  0  0
 33 34  1  0  0  0  0
 34 35  1  0  0  0  0
 35 36  2  0  0  0  0
 35 32  1  0  0  0  0
 36 37  1  0  0  0  0
 38 39  1  0  0  0  0
 38 36  1  0  0  0  0
 40 38  2  0  0  0  0
 41 40  1  0  0  0  0
 41 34  2  0  0  0  0
M  END
>  <minimizedAffinity>
-5.81063223

$$$$
