
 OpenBabel03272510243D

 32 35  0  0  0  0  0  0  0  0999 V2000
   36.1480   30.1790   46.8400 C   0  0  0  0  0  0  0  0  0  0  0  0
   37.0340   30.7390   47.7480 C   0  0  0  0  0  0  0  0  0  0  0  0
   38.0180   31.6190   47.3310 C   0  0  0  0  0  0  0  0  0  0  0  0
   38.0520   31.8980   45.9590 C   0  0  0  0  0  0  0  0  0  0  0  0
   38.9350   32.7350   45.3230 N   0  0  0  0  0  0  0  0  0  0  0  0
   38.5930   32.6900   44.0300 C   0  0  0  0  0  0  0  0  0  0  0  0
   37.5620   31.8820   43.8310 N   0  0  0  0  0  0  0  0  0  0  0  0
   37.1910   31.3620   45.0260 C   0  0  0  0  0  0  0  0  0  0  0  0
   36.2230   30.4860   45.4900 C   0  0  0  0  0  0  0  0  0  0  0  0
   35.3850   29.4930   47.1780 H   0  0  0  0  0  0  0  0  0  0  0  0
   38.7090   32.0590   48.0210 H   0  0  0  0  0  0  0  0  0  0  0  0
   39.7180   33.2960   45.7590 H   0  0  0  0  0  0  0  0  0  0  0  0
   35.5410   30.0600   44.7660 H   0  0  0  0  0  0  0  0  0  0  0  0
   37.5350   30.2130   51.4360 C   0  0  0  0  0  0  0  0  0  0  0  0
   37.8110   30.6320   50.1390 C   0  0  0  0  0  0  0  0  0  0  0  0
   36.8880   30.3660   49.1430 C   0  0  0  0  0  0  0  0  0  0  0  0
   35.7640   29.7050   49.5180 N   0  0  0  0  0  0  0  0  0  0  0  0
   35.5050   29.3020   50.7810 C   0  0  0  0  0  0  0  0  0  0  0  0
   36.3950   29.5610   51.7220 N   0  0  0  0  0  0  0  0  0  0  0  0
   38.3340   30.4780   52.1320 H   0  0  0  0  0  0  0  0  0  0  0  0
   38.7080   31.1610   49.8350 H   0  0  0  0  0  0  0  0  0  0  0  0
   34.5900   28.7770   51.0180 H   0  0  0  0  0  0  0  0  0  0  0  0
   39.2680   33.4190   43.0540 O   0  0  0  0  0  0  0  0  0  0  0  0
   40.4980   30.8760   41.9890 Cl  0  0  0  0  0  0  0  0  0  0  0  0
   39.5060   31.9900   41.0690 C   0  0  0  0  0  0  0  0  0  0  0  0
   39.0280   33.1020   41.7200 C   0  0  0  0  0  0  0  0  0  0  0  0
   38.2400   34.0280   41.0690 C   0  0  0  0  0  0  0  0  0  0  0  0
   37.8210   34.9400   41.5170 H   0  0  0  0  0  0  0  0  0  0  0  0
   37.9060   33.8630   39.7380 C   0  0  0  0  0  0  0  0  0  0  0  0
   37.2980   34.5470   39.1760 H   0  0  0  0  0  0  0  0  0  0  0  0
   38.3850   32.7460   39.0790 C   0  0  0  0  0  0  0  0  0  0  0  0
   39.1680   31.8330   39.7400 C   0  0  0  0  0  0  0  0  0  0  0  0
  1 10  1  0  0  0  0
  1  2  1  0  0  0  0
  2 16  1  0  0  0  0
  3  2  2  0  0  0  0
  3 11  1  0  0  0  0
  4  3  1  0  0  0  0
  5 12  1  0  0  0  0
  5  4  1  0  0  0  0
  6  5  1  0  0  0  0
  7  6  2  0  0  0  0
  7  8  1  0  0  0  0
  8  9  1  0  0  0  0
  8  4  2  0  0  0  0
  9  1  2  0  0  0  0
 13  9  1  0  0  0  0
 14 19  1  0  0  0  0
 14 20  1  0  0  0  0
 15 14  2  0  0  0  0
 16 17  2  0  0  0  0
 16 15  1  0  0  0  0
 17 18  1  0  0  0  0
 18 22  1  0  0  0  0
 18 19  2  0  0  0  0
 21 15  1  0  0  0  0
 23  6  1  0  0  0  0
 25 26  1  0  0  0  0
 25 24  1  0  0  0  0
 26 23  1  0  0  0  0
 27 28  1  0  0  0  0
 27 26  2  0  0  0  0
 29 27  1  0  0  0  0
 30 29  1  0  0  0  0
 31 29  2  0  0  0  0
 31 32  1  0  0  0  0
 32 25  2  0  0  0  0
M  END
>  <minimizedAffinity>
-5.81626177

>  <minimizedRMSD>
1.56942213

$$$$
