REMARK  Name = 
REMARK  5 active torsions:
REMARK  status: ('A' for Active; 'I' for Inactive)
REMARK    1  A    between atoms: C_3  and  C_7
REMARK    2  A    between atoms: C_5  and  O_17
REMARK    3  A    between atoms: C_11  and  C_13
REMARK    4  A    between atoms: O_17  and  C_20
REMARK    5  A    between atoms: N_23  and  C_34
REMARK                            x       y       z     vdW  Elec       q    Type
REMARK                         _______ _______ _______ _____ _____    ______ ____
ROOT
ATOM      1  C   UNL     1      37.828  30.392  51.094  0.00  0.00    +0.000 A 
ATOM      2  C   UNL     1      38.220  30.975  49.884  0.00  0.00    +0.000 A 
ATOM      3  C   UNL     1      37.585  30.555  48.735  0.00  0.00    +0.000 A 
ATOM      4  N   UNL     1      36.634  29.617  48.849  0.00  0.00    +0.000 NA
ATOM      5  C   UNL     1      36.261  29.059  50.016  0.00  0.00    +0.000 A 
ATOM      6  N   UNL     1      36.864  29.452  51.136  0.00  0.00    +0.000 NA
ATOM      7  H   UNL     1      38.301  30.691  52.024  0.00  0.00    +0.000 HD
ATOM      8  H   UNL     1      38.992  31.729  49.835  0.00  0.00    +0.000 HD
ENDROOT
BRANCH   3   9
ATOM      9  C   UNL     1      37.895  31.087  47.422  0.00  0.00    +0.000 A 
ATOM     10  C   UNL     1      37.103  30.766  46.321  0.00  0.00    +0.000 A 
ATOM     11  C   UNL     1      37.349  31.246  45.054  0.00  0.00    +0.000 A 
ATOM     12  N   UNL     1      38.412  32.071  44.867  0.00  0.00    +0.000 NA
ATOM     13  C   UNL     1      39.163  32.369  45.939  0.00  0.00    +0.000 A 
ATOM     14  N   UNL     1      38.940  31.911  47.186  0.00  0.00    +0.000 NA
ATOM     15  H   UNL     1      36.265  30.107  46.507  0.00  0.00    +0.000 HD
ATOM     16  H   UNL     1      36.698  30.961  44.239  0.00  0.00    +0.000 HD
BRANCH  13  17
ATOM     17  C   UNL     1      40.326  33.267  45.753  0.00  0.00    +0.000 C 
ATOM     18  F   UNL     1      40.422  34.065  46.916  0.00  0.00    +0.000 F 
ATOM     19  F   UNL     1      41.474  32.575  45.516  0.00  0.00    +0.000 F 
ATOM     20  F   UNL     1      40.109  34.187  44.740  0.00  0.00    +0.000 F 
ENDBRANCH  13  17
ENDBRANCH   3   9
BRANCH   5  21
ATOM     21  O   UNL     1      35.258  28.100  49.953  0.00  0.00    +0.000 OA
BRANCH  21  24
ATOM     22  N   UNL     1      33.288  27.173  47.003  0.00  0.00    +0.000 N 
ATOM     23  C   UNL     1      34.171  27.013  48.001  0.00  0.00    +0.000 A 
ATOM     24  C   UNL     1      34.411  28.044  48.878  0.00  0.00    +0.000 A 
ATOM     25  C   UNL     1      33.714  29.248  48.698  0.00  0.00    +0.000 A 
ATOM     26  O   UNL     1      33.770  30.318  49.370  0.00  0.00    +0.000 OA
ATOM     27  N   UNL     1      32.831  29.344  47.663  0.00  0.00    +0.000 N 
ATOM     28  C   UNL     1      32.623  28.316  46.827  0.00  0.00    +0.000 A 
ATOM     29  O   UNL     1      31.810  28.372  45.857  0.00  0.00    +0.000 OA
ATOM     30  H   UNL     1      33.190  26.322  46.402  0.00  0.00    +0.000 HD
ATOM     31  H   UNL     1      34.745  26.120  48.206  0.00  0.00    +0.000 HD
BRANCH  27  34
ATOM     32 CL   UNL     1      29.911  29.117  46.854  0.00  0.00    +0.000 Cl
ATOM     33  C   UNL     1      30.755  30.629  47.006  0.00  0.00    +0.000 A 
ATOM     34  C   UNL     1      32.070  30.512  47.383  0.00  0.00    +0.000 A 
ATOM     35  C   UNL     1      32.838  31.671  47.533  0.00  0.00    +0.000 A 
ATOM     36  H   UNL     1      33.875  31.711  47.822  0.00  0.00    +0.000 HD
ATOM     37  C   UNL     1      32.306  32.934  47.311  0.00  0.00    +0.000 A 
ATOM     38  H   UNL     1      32.856  33.848  47.414  0.00  0.00    +0.000 HD
ATOM     39  C   UNL     1      30.972  33.037  46.930  0.00  0.00    +0.000 A 
ATOM     40  C   UNL     1      30.225  31.884  46.786  0.00  0.00    +0.000 A 
ENDBRANCH  27  34
ENDBRANCH  21  24
ENDBRANCH   5  21
TORSDOF 5
