
     RDKit          3D

 42 45  0  0  0  0  0  0  0  0999 V2000
   37.8285   30.3917   51.0943 C   0  0  0  0  0  0  0  0  0  0  0  0
   38.2204   30.9752   49.8842 C   0  0  0  0  0  0  0  0  0  0  0  0
   37.5848   30.5554   48.7352 C   0  0  0  0  0  0  0  0  0  0  0  0
   36.6344   29.6171   48.8490 N   0  0  0  0  0  0  0  0  0  0  0  0
   36.2610   29.0588   50.0160 C   0  0  0  0  0  0  0  0  0  0  0  0
   36.8641   29.4524   51.1359 N   0  0  0  0  0  0  0  0  0  0  0  0
   37.8948   31.0874   47.4223 C   0  0  0  0  0  0  0  0  0  0  0  0
   37.1030   30.7663   46.3206 C   0  0  0  0  0  0  0  0  0  0  0  0
   37.3492   31.2463   45.0545 C   0  0  0  0  0  0  0  0  0  0  0  0
   38.4117   32.0709   44.8668 N   0  0  0  0  0  0  0  0  0  0  0  0
   39.1634   32.3693   45.9394 C   0  0  0  0  0  0  0  0  0  0  0  0
   38.9399   31.9106   47.1857 N   0  0  0  0  0  0  0  0  0  0  0  0
   40.3261   33.2673   45.7529 C   0  0  0  0  0  0  0  0  0  0  0  0
   40.4219   34.0648   46.9163 F   0  0  0  0  0  0  0  0  0  0  0  0
   41.4735   32.5745   45.5161 F   0  0  0  0  0  0  0  0  0  0  0  0
   40.1087   34.1871   44.7399 F   0  0  0  0  0  0  0  0  0  0  0  0
   35.2583   28.1004   49.9530 O   0  0  0  0  0  0  0  0  0  0  0  0
   33.2882   27.1734   47.0033 N   0  0  0  0  0  0  0  0  0  0  0  0
   34.1708   27.0130   48.0007 C   0  0  0  0  0  0  0  0  0  0  0  0
   34.4112   28.0444   48.8782 C   0  0  0  0  0  0  0  0  0  0  0  0
   33.7144   29.2481   48.6979 C   0  0  0  0  0  0  0  0  0  0  0  0
   33.7696   30.3184   49.3699 O   0  0  0  0  0  0  0  0  0  0  0  0
   32.8314   29.3437   47.6633 N   0  0  0  0  0  0  0  0  0  0  0  0
   32.6227   28.3163   46.8270 C   0  0  0  0  0  0  0  0  0  0  0  0
   31.8099   28.3723   45.8566 O   0  0  0  0  0  0  0  0  0  0  0  0
   38.3006   30.6906   52.0242 H   0  0  0  0  0  0  0  0  0  0  0  0
   38.9916   31.7290   49.8350 H   0  0  0  0  0  0  0  0  0  0  0  0
   36.2648   30.1067   46.5065 H   0  0  0  0  0  0  0  0  0  0  0  0
   36.6984   30.9612   44.2389 H   0  0  0  0  0  0  0  0  0  0  0  0
   33.1897   26.3223   46.4023 H   0  0  0  0  0  0  0  0  0  0  0  0
   34.7453   26.1200   48.2058 H   0  0  0  0  0  0  0  0  0  0  0  0
   29.9108   29.1169   46.8544 Cl  0  0  0  0  0  0  0  0  0  0  0  0
   30.7546   30.6294   47.0059 C   0  0  0  0  0  0  0  0  0  0  0  0
   32.0698   30.5116   47.3827 C   0  0  0  0  0  0  0  0  0  0  0  0
   32.8380   31.6713   47.5329 C   0  0  0  0  0  0  0  0  0  0  0  0
   33.8746   31.7107   47.8224 H   0  0  0  0  0  0  0  0  0  0  0  0
   32.3057   32.9338   47.3114 C   0  0  0  0  0  0  0  0  0  0  0  0
   32.8565   33.8479   47.4145 H   0  0  0  0  0  0  0  0  0  0  0  0
   30.9719   33.0370   46.9303 C   0  0  0  0  0  0  0  0  0  0  0  0
   30.2248   31.8839   46.7856 C   0  0  0  0  0  0  0  0  0  0  0  0
   30.5028   33.9807   46.7447 H   0  0  0  0  0  0  0  0  0  0  0  0
   29.1717   31.9106   46.4878 H   0  0  0  0  0  0  0  0  0  0  0  0
  1  6  2  0
  2  1  1  0
  3  4  1  0
  3  2  2  0
  4  5  2  0
  5  6  1  0
  7  3  1  0
  8  7  2  0
  9  8  1  0
 10  9  2  0
 10 11  1  0
 11 12  2  0
 12  7  1  0
 13 11  1  0
 13 14  1  0
 15 13  1  0
 16 13  1  0
 17  5  1  0
 18 19  1  0
 19 20  2  0
 20 17  1  0
 21 20  1  0
 21 22  2  0
 23 21  1  0
 24 18  1  0
 24 23  1  0
 25 24  2  0
  1 26  1  0
  2 27  1  0
  8 28  1  0
  9 29  1  0
 18 30  1  0
 19 31  1  0
 32 33  1  0
 33 34  2  0
 34 35  1  0
 35 36  1  0
 35 37  2  0
 37 38  1  0
 37 39  1  0
 39 40  2  0
 40 33  1  0
 39 41  1  0
 40 42  1  0
 23 34  1  0
M  ISO  8  26  14  27  14  28  14  29  14  30   9  31  14  36  15  38  16
M  END
>  <DihAtoms>  (1) 
20,22,33,32

>  <DihDeg>  (1) 
-63.6188032496246

$$$$
