REMARK  Name = 
REMARK  1 active torsions:
REMARK  status: ('A' for Active; 'I' for Inactive)
REMARK    1  A    between atoms: N_12  and  C_22
REMARK                            x       y       z     vdW  Elec       q    Type
REMARK                         _______ _______ _______ _____ _____    ______ ____
ROOT
ATOM      1  C   UNL     1      37.495  30.262  51.329  0.00  0.00    +0.000 A 
ATOM      2  C   UNL     1      38.149  30.974  50.296  0.00  0.00    +0.000 A 
ATOM      3  C   UNL     1      37.819  30.722  48.975  0.00  0.00    +0.000 A 
ATOM      4  N   UNL     1      36.874  29.794  48.743  0.00  0.00    +0.000 NA
ATOM      5  C   UNL     1      36.238  29.103  49.709  0.00  0.00    +0.000 A 
ATOM      6  N   UNL     1      36.552  29.341  51.002  0.00  0.00    +0.000 NA
ATOM      7  N   UNL     1      38.445  31.412  47.909  0.00  0.00    +0.000 N 
ATOM      8  C   UNL     1      38.666  30.818  46.718  0.00  0.00    +0.000 A 
ATOM      9  C   UNL     1      39.292  31.516  45.681  0.00  0.00    +0.000 A 
ATOM     10  C   UNL     1      39.681  32.846  45.921  0.00  0.00    +0.000 A 
ATOM     11  O   UNL     1      40.244  33.503  45.018  0.00  0.00    +0.000 OA
ATOM     12  N   UNL     1      39.444  33.423  47.137  0.00  0.00    +0.000 N 
ATOM     13  C   UNL     1      38.839  32.672  48.063  0.00  0.00    +0.000 A 
ATOM     14  O   UNL     1      38.641  33.249  49.165  0.00  0.00    +0.000 OA
ATOM     15  H   UNL     1      37.707  30.413  52.380  0.00  0.00    +0.000 HD
ATOM     16  H   UNL     1      38.867  31.648  50.679  0.00  0.00    +0.000 HD
ATOM     17  H   UNL     1      35.480  28.359  49.497  0.00  0.00    +0.000 HD
ATOM     18  H   UNL     1      38.371  29.809  46.538  0.00  0.00    +0.000 HD
ATOM     19  H   UNL     1      39.462  31.026  44.733  0.00  0.00    +0.000 HD
ENDROOT
BRANCH  12  22
ATOM     20 CL   UNL     1      39.102  34.983  44.691  0.00  0.00    +0.000 Cl
ATOM     21  C   UNL     1      39.693  35.560  46.234  0.00  0.00    +0.000 A 
ATOM     22  C   UNL     1      39.837  34.768  47.378  0.00  0.00    +0.000 A 
ATOM     23  C   UNL     1      40.312  35.350  48.523  0.00  0.00    +0.000 A 
ATOM     24  H   UNL     1      40.389  34.661  49.351  0.00  0.00    +0.000 HD
ATOM     25  C   UNL     1      40.636  36.691  48.532  0.00  0.00    +0.000 A 
ATOM     26  H   UNL     1      41.007  37.086  49.479  0.00  0.00    +0.000 HD
ATOM     27  C   UNL     1      40.499  37.486  47.412  0.00  0.00    +0.000 A 
ATOM     28  C   UNL     1      40.019  36.898  46.254  0.00  0.00    +0.000 A 
ENDBRANCH  12  22
TORSDOF 1
