REMARK  Name = 
REMARK  4 active torsions:
REMARK  status: ('A' for Active; 'I' for Inactive)
REMARK    1  A    between atoms: C_1  and  C_7
REMARK    2  A    between atoms: C_2  and  C_10
REMARK    3  A    between atoms: C_10  and  C_11
REMARK    4  A    between atoms: C_11  and  C_25
REMARK                            x       y       z     vdW  Elec       q    Type
REMARK                         _______ _______ _______ _____ _____    ______ ____
ROOT
ATOM      1  C   UNL     1      37.144  31.227  48.596  0.00  0.00    +0.000 A 
ATOM      2  C   UNL     1      38.070  32.264  48.406  0.00  0.00    +0.000 A 
ATOM      3  C   UNL     1      38.418  32.421  47.094  0.00  0.00    +0.000 A 
ATOM      4  N   UNL     1      37.928  31.667  46.093  0.00  0.00    +0.000 NA
ATOM      5  C   UNL     1      37.044  30.684  46.308  0.00  0.00    +0.000 A 
ATOM      6  N   UNL     1      36.656  30.468  47.560  0.00  0.00    +0.000 NA
ATOM      7  H   UNL     1      39.126  33.180  46.785  0.00  0.00    +0.000 HD
ATOM      8  H   UNL     1      36.608  30.042  45.580  0.00  0.00    +0.000 HD
ENDROOT
BRANCH   1   9
ATOM      9  C   UNL     1      36.633  31.044  50.021  0.00  0.00    +0.000 C 
ATOM     10  C   UNL     1      35.897  29.897  50.399  0.00  0.00    +0.000 C 
ATOM     11  C   UNL     1      37.392  29.818  50.651  0.00  0.00    +0.000 C 
ATOM     12  H   UNL     1      36.778  31.925  50.700  0.00  0.00    +0.000 HD
ATOM     13  H   UNL     1      35.310  29.903  51.346  0.00  0.00    +0.000 HD
ATOM     14  H   UNL     1      35.447  29.180  49.674  0.00  0.00    +0.000 HD
ATOM     15  H   UNL     1      37.806  29.937  51.650  0.00  0.00    +0.000 HD
ATOM     16  H   UNL     1      37.907  29.136  49.988  0.00  0.00    +0.000 HD
ENDBRANCH   1   9
BRANCH   2  17
ATOM     17  C   UNL     1      38.605  33.059  49.493  0.00  0.00    +0.000 C 
ATOM     18  H   UNL     1      37.810  33.532  50.114  0.00  0.00    +0.000 HD
ATOM     19  H   UNL     1      39.128  32.372  50.206  0.00  0.00    +0.000 HD
BRANCH  17  20
ATOM     20  C   UNL     1      39.566  34.123  49.138  0.00  0.00    +0.000 C 
ATOM     21  H   UNL     1      39.873  34.697  50.038  0.00  0.00    +0.000 HD
ATOM     22  H   UNL     1      40.529  33.688  48.738  0.00  0.00    +0.000 HD
BRANCH  20  25
ATOM     23 CL   UNL     1      40.951  34.066  46.536  0.00  0.00    +0.000 Cl
ATOM     24  C   UNL     1      39.655  35.170  46.966  0.00  0.00    +0.000 A 
ATOM     25  C   UNL     1      39.032  35.160  48.213  0.00  0.00    +0.000 A 
ATOM     26  C   UNL     1      38.016  36.036  48.529  0.00  0.00    +0.000 A 
ATOM     27  H   UNL     1      37.592  35.963  49.504  0.00  0.00    +0.000 HD
ATOM     28  C   UNL     1      37.654  36.921  47.536  0.00  0.00    +0.000 A 
ATOM     29  H   UNL     1      36.842  37.620  47.787  0.00  0.00    +0.000 HD
ATOM     30  C   UNL     1      38.239  36.968  46.291  0.00  0.00    +0.000 A 
ATOM     31  C   UNL     1      39.246  36.088  46.002  0.00  0.00    +0.000 A 
ENDBRANCH  20  25
ENDBRANCH  17  20
ENDBRANCH   2  17
TORSDOF 4
