
 OpenBabel03272510253D

 32 35  0  0  0  0  0  0  0  0999 V2000
   38.1530   24.7870   33.8340 C   0  0  0  0  0  0  0  0  0  0  0  0
   38.2830   25.1520   35.1650 C   0  0  0  0  0  0  0  0  0  0  0  0
   37.7760   26.3560   35.6250 C   0  0  0  0  0  0  0  0  0  0  0  0
   37.1370   27.1580   34.6710 C   0  0  0  0  0  0  0  0  0  0  0  0
   36.5630   28.3840   34.8960 N   0  0  0  0  0  0  0  0  0  0  0  0
   36.0820   28.7710   33.7080 C   0  0  0  0  0  0  0  0  0  0  0  0
   36.3240   27.8650   32.7720 N   0  0  0  0  0  0  0  0  0  0  0  0
   36.9890   26.8300   33.3410 C   0  0  0  0  0  0  0  0  0  0  0  0
   37.5130   25.6160   32.9270 C   0  0  0  0  0  0  0  0  0  0  0  0
   38.5540   23.8450   33.4870 H   0  0  0  0  0  0  0  0  0  0  0  0
   37.8680   26.6500   36.6500 H   0  0  0  0  0  0  0  0  0  0  0  0
   36.5100   28.9120   35.8100 H   0  0  0  0  0  0  0  0  0  0  0  0
   37.4010   25.3490   31.8840 H   0  0  0  0  0  0  0  0  0  0  0  0
   39.3120   22.9870   38.0610 C   0  0  0  0  0  0  0  0  0  0  0  0
   38.5520   23.8920   37.3260 C   0  0  0  0  0  0  0  0  0  0  0  0
   38.9670   24.2270   36.0500 C   0  0  0  0  0  0  0  0  0  0  0  0
   40.1040   23.6350   35.6070 N   0  0  0  0  0  0  0  0  0  0  0  0
   40.8350   22.7580   36.3280 C   0  0  0  0  0  0  0  0  0  0  0  0
   40.4290   22.4460   37.5460 N   0  0  0  0  0  0  0  0  0  0  0  0
   38.8860   22.8010   39.0500 H   0  0  0  0  0  0  0  0  0  0  0  0
   37.6410   24.3670   37.6770 H   0  0  0  0  0  0  0  0  0  0  0  0
   41.7350   22.3190   35.9200 H   0  0  0  0  0  0  0  0  0  0  0  0
   35.4190   29.9830   33.5300 O   0  0  0  0  0  0  0  0  0  0  0  0
   32.5990   29.2920   34.3600 Cl  0  0  0  0  0  0  0  0  0  0  0  0
   33.6520   30.4290   35.1790 C   0  0  0  0  0  0  0  0  0  0  0  0
   34.9100   30.6190   34.6580 C   0  0  0  0  0  0  0  0  0  0  0  0
   35.8000   31.4960   35.2420 C   0  0  0  0  0  0  0  0  0  0  0  0
   36.8200   31.7040   34.8880 H   0  0  0  0  0  0  0  0  0  0  0  0
   35.4520   32.2100   36.3730 C   0  0  0  0  0  0  0  0  0  0  0  0
   36.0990   32.9070   36.8730 H   0  0  0  0  0  0  0  0  0  0  0  0
   34.1870   32.0220   36.9000 C   0  0  0  0  0  3  0  0  0  0  0  0
   33.3130   31.1460   36.3080 C   0  0  0  0  0  3  0  0  0  0  0  0
  1  2  1  0  0  0  0
  2  3  2  0  0  0  0
  2 16  1  0  0  0  0
  3 11  1  0  0  0  0
  4  5  1  0  0  0  0
  4  3  1  0  0  0  0
  5 12  1  0  0  0  0
  6  5  1  0  0  0  0
  7  8  1  0  0  0  0
  7  6  2  0  0  0  0
  8  4  2  0  0  0  0
  9  8  1  0  0  0  0
  9  1  2  0  0  0  0
 10  1  1  0  0  0  0
 13  9  1  0  0  0  0
 14 20  1  0  0  0  0
 15 21  1  0  0  0  0
 15 14  2  0  0  0  0
 16 15  1  0  0  0  0
 17 16  2  0  0  0  0
 17 18  1  0  0  0  0
 18 19  2  0  0  0  0
 19 14  1  0  0  0  0
 22 18  1  0  0  0  0
 23  6  1  0  0  0  0
 23 26  1  0  0  0  0
 24 25  1  0  0  0  0
 25 32  1  0  0  0  0
 26 25  2  0  0  0  0
 26 27  1  0  0  0  0
 27 29  2  0  0  0  0
 28 27  1  0  0  0  0
 29 30  1  0  0  0  0
 29 31  1  0  0  0  0
 32 31  2  0  0  0  0
M  END
>  <minimizedAffinity>
-6.06033182

$$$$

 OpenBabel03272510253D

 32 35  0  0  0  0  0  0  0  0999 V2000
   37.9410   25.0690   33.6930 C   0  0  0  0  0  0  0  0  0  0  0  0
   38.2370   25.3940   35.0080 C   0  0  0  0  0  0  0  0  0  0  0  0
   37.7970   26.5820   35.5650 C   0  0  0  0  0  0  0  0  0  0  0  0
   37.0460   27.4130   34.7230 C   0  0  0  0  0  0  0  0  0  0  0  0
   36.5080   28.6320   35.0560 N   0  0  0  0  0  0  0  0  0  0  0  0
   35.8840   29.0540   33.9500 C   0  0  0  0  0  0  0  0  0  0  0  0
   36.0030   28.1780   32.9640 N   0  0  0  0  0  0  0  0  0  0  0  0
   36.7300   27.1260   33.4130 C   0  0  0  0  0  0  0  0  0  0  0  0
   37.1940   25.9260   32.8990 C   0  0  0  0  0  0  0  0  0  0  0  0
   38.2910   24.1390   33.2700 H   0  0  0  0  0  0  0  0  0  0  0  0
   38.0180   26.8450   36.5780 H   0  0  0  0  0  0  0  0  0  0  0  0
   36.5720   29.1300   35.9860 H   0  0  0  0  0  0  0  0  0  0  0  0
   36.9520   25.6910   31.8710 H   0  0  0  0  0  0  0  0  0  0  0  0
   40.8960   23.0300   36.2260 C   0  0  0  0  0  0  0  0  0  0  0  0
   40.2550   23.9400   35.3900 C   0  0  0  0  0  0  0  0  0  0  0  0
   39.0250   24.4420   35.7720 C   0  0  0  0  0  0  0  0  0  0  0  0
   38.5290   24.0000   36.9540 N   0  0  0  0  0  0  0  0  0  0  0  0
   39.1580   23.1170   37.7600 C   0  0  0  0  0  0  0  0  0  0  0  0
   40.3330   22.6440   37.3840 N   0  0  0  0  0  0  0  0  0  0  0  0
   41.8560   22.7050   35.8200 H   0  0  0  0  0  0  0  0  0  0  0  0
   40.6480   24.2950   34.4430 H   0  0  0  0  0  0  0  0  0  0  0  0
   38.7110   22.8010   38.6920 H   0  0  0  0  0  0  0  0  0  0  0  0
   35.2070   30.2710   33.8940 O   0  0  0  0  0  0  0  0  0  0  0  0
   36.4580   32.3480   35.6940 Cl  0  0  0  0  0  0  0  0  0  0  0  0
   34.8940   31.5950   35.9410 C   0  0  0  0  0  0  0  0  0  0  0  0
   34.4830   30.6660   35.0140 C   0  0  0  0  0  0  0  0  0  0  0  0
   33.2660   30.0280   35.1350 C   0  0  0  0  0  0  0  0  0  0  0  0
   32.8660   29.2760   34.4400 H   0  0  0  0  0  0  0  0  0  0  0  0
   32.4220   30.3050   36.1920 C   0  0  0  0  0  0  0  0  0  0  0  0
   31.4640   29.8430   36.3420 H   0  0  0  0  0  0  0  0  0  0  0  0
   32.8320   31.2390   37.1260 C   0  0  0  0  0  3  0  0  0  0  0  0
   34.0450   31.8660   36.9940 C   0  0  0  0  0  3  0  0  0  0  0  0
  1  2  1  0  0  0  0
  2  3  2  0  0  0  0
  2 16  1  0  0  0  0
  3 11  1  0  0  0  0
  4  5  1  0  0  0  0
  4  3  1  0  0  0  0
  5 12  1  0  0  0  0
  6  5  1  0  0  0  0
  7  8  1  0  0  0  0
  7  6  2  0  0  0  0
  8  4  2  0  0  0  0
  9  8  1  0  0  0  0
  9  1  2  0  0  0  0
 10  1  1  0  0  0  0
 13  9  1  0  0  0  0
 14 19  1  0  0  0  0
 15 16  1  0  0  0  0
 15 14  2  0  0  0  0
 16 17  2  0  0  0  0
 17 18  1  0  0  0  0
 18 22  1  0  0  0  0
 19 18  2  0  0  0  0
 20 14  1  0  0  0  0
 21 15  1  0  0  0  0
 23  6  1  0  0  0  0
 23 26  1  0  0  0  0
 24 25  1  0  0  0  0
 25 32  1  0  0  0  0
 26 27  1  0  0  0  0
 26 25  2  0  0  0  0
 27 29  2  0  0  0  0
 28 27  1  0  0  0  0
 29 30  1  0  0  0  0
 29 31  1  0  0  0  0
 32 31  2  0  0  0  0
M  END
>  <minimizedAffinity>
-5.91321087

$$$$

 OpenBabel03272510253D

 32 35  0  0  0  0  0  0  0  0999 V2000
   35.4070   30.7520   32.7290 C   0  0  0  0  0  0  0  0  0  0  0  0
   35.4010   30.0780   33.9390 C   0  0  0  0  0  0  0  0  0  0  0  0
   35.8570   28.7740   34.0300 C   0  0  0  0  0  0  0  0  0  0  0  0
   36.3160   28.2000   32.8370 C   0  0  0  0  0  0  0  0  0  0  0  0
   36.8100   26.9280   32.6880 N   0  0  0  0  0  0  0  0  0  0  0  0
   37.1200   26.8220   31.3900 C   0  0  0  0  0  0  0  0  0  0  0  0
   36.8470   27.9410   30.7360 N   0  0  0  0  0  0  0  0  0  0  0  0
   36.3380   28.8360   31.6160 C   0  0  0  0  0  0  0  0  0  0  0  0
   35.8710   30.1400   31.5740 C   0  0  0  0  0  0  0  0  0  0  0  0
   35.0480   31.7700   32.6710 H   0  0  0  0  0  0  0  0  0  0  0  0
   35.8590   28.2410   34.9580 H   0  0  0  0  0  0  0  0  0  0  0  0
   36.9240   26.1890   33.4350 H   0  0  0  0  0  0  0  0  0  0  0  0
   35.8840   30.6500   30.6200 H   0  0  0  0  0  0  0  0  0  0  0  0
   35.0180   32.2880   36.9570 C   0  0  0  0  0  0  0  0  0  0  0  0
   35.6330   31.6770   35.8680 C   0  0  0  0  0  0  0  0  0  0  0  0
   34.9000   30.7910   35.1010 C   0  0  0  0  0  0  0  0  0  0  0  0
   33.6130   30.5830   35.4760 N   0  0  0  0  0  0  0  0  0  0  0  0
   33.0240   31.1810   36.5350 C   0  0  0  0  0  0  0  0  0  0  0  0
   33.7350   32.0250   37.2610 N   0  0  0  0  0  0  0  0  0  0  0  0
   35.6940   32.9640   37.4850 H   0  0  0  0  0  0  0  0  0  0  0  0
   36.6620   31.8400   35.5650 H   0  0  0  0  0  0  0  0  0  0  0  0
   31.9930   30.9740   36.7850 H   0  0  0  0  0  0  0  0  0  0  0  0
   37.6570   25.6580   30.8440 O   0  0  0  0  0  0  0  0  0  0  0  0
   34.7050   25.1400   30.4760 Cl  0  0  0  0  0  0  0  0  0  0  0  0
   35.8500   24.0330   31.2080 C   0  0  0  0  0  0  0  0  0  0  0  0
   37.1610   24.4380   31.2920 C   0  0  0  0  0  0  0  0  0  0  0  0
   38.1250   23.6270   31.8540 C   0  0  0  0  0  0  0  0  0  0  0  0
   39.1900   23.8760   31.9580 H   0  0  0  0  0  0  0  0  0  0  0  0
   37.8000   22.3790   32.3490 C   0  0  0  0  0  0  0  0  0  0  0  0
   38.5030   21.7020   32.7980 H   0  0  0  0  0  0  0  0  0  0  0  0
   36.4820   21.9680   32.2670 C   0  0  0  0  0  3  0  0  0  0  0  0
   35.5340   22.7860   31.7060 C   0  0  0  0  0  3  0  0  0  0  0  0
  1  2  1  0  0  0  0
  2  3  2  0  0  0  0
  2 16  1  0  0  0  0
  3 11  1  0  0  0  0
  4  3  1  0  0  0  0
  5  4  1  0  0  0  0
  5 12  1  0  0  0  0
  6  5  1  0  0  0  0
  7  6  2  0  0  0  0
  7  8  1  0  0  0  0
  8  4  2  0  0  0  0
  9  8  1  0  0  0  0
  9  1  2  0  0  0  0
 10  1  1  0  0  0  0
 13  9  1  0  0  0  0
 14 19  1  0  0  0  0
 14 20  1  0  0  0  0
 15 14  2  0  0  0  0
 16 17  2  0  0  0  0
 16 15  1  0  0  0  0
 17 18  1  0  0  0  0
 18 22  1  0  0  0  0
 18 19  2  0  0  0  0
 21 15  1  0  0  0  0
 23 26  1  0  0  0  0
 23  6  1  0  0  0  0
 24 25  1  0  0  0  0
 25 26  2  0  0  0  0
 25 32  1  0  0  0  0
 26 27  1  0  0  0  0
 27 28  1  0  0  0  0
 27 29  2  0  0  0  0
 29 30  1  0  0  0  0
 31 29  1  0  0  0  0
 32 31  2  0  0  0  0
M  END
>  <minimizedAffinity>
-5.87258291

$$$$

 OpenBabel03272510253D

 32 35  0  0  0  0  0  0  0  0999 V2000
   35.8220   29.9440   32.6870 C   0  0  0  0  0  0  0  0  0  0  0  0
   35.7620   29.5230   34.0060 C   0  0  0  0  0  0  0  0  0  0  0  0
   36.2230   28.2710   34.3760 C   0  0  0  0  0  0  0  0  0  0  0  0
   36.7430   27.4790   33.3440 C   0  0  0  0  0  0  0  0  0  0  0  0
   37.2540   26.2120   33.4750 N   0  0  0  0  0  0  0  0  0  0  0  0
   37.6270   25.8550   32.2400 C   0  0  0  0  0  0  0  0  0  0  0  0
   37.3780   26.8170   31.3640 N   0  0  0  0  0  0  0  0  0  0  0  0
   36.8200   27.8610   32.0230 C   0  0  0  0  0  0  0  0  0  0  0  0
   36.3460   29.1220   31.7010 C   0  0  0  0  0  0  0  0  0  0  0  0
   35.4590   30.9230   32.4110 H   0  0  0  0  0  0  0  0  0  0  0  0
   36.1830   27.9340   35.3910 H   0  0  0  0  0  0  0  0  0  0  0  0
   37.3360   25.6390   34.3590 H   0  0  0  0  0  0  0  0  0  0  0  0
   36.4020   29.4320   30.6650 H   0  0  0  0  0  0  0  0  0  0  0  0
   35.2480   32.1700   36.6270 C   0  0  0  0  0  0  0  0  0  0  0  0
   35.9260   31.3470   35.7320 C   0  0  0  0  0  0  0  0  0  0  0  0
   35.1990   30.4440   34.9780 C   0  0  0  0  0  0  0  0  0  0  0  0
   33.8570   30.4320   35.1720 N   0  0  0  0  0  0  0  0  0  0  0  0
   33.2080   31.2350   36.0440 C   0  0  0  0  0  0  0  0  0  0  0  0
   33.9130   32.0920   36.7590 N   0  0  0  0  0  0  0  0  0  0  0  0
   35.9250   32.8380   37.1640 H   0  0  0  0  0  0  0  0  0  0  0  0
   36.9990   31.3540   35.5730 H   0  0  0  0  0  0  0  0  0  0  0  0
   32.1340   31.1770   36.1550 H   0  0  0  0  0  0  0  0  0  0  0  0
   38.1990   24.6150   31.9620 O   0  0  0  0  0  0  0  0  0  0  0  0
   38.8300   22.9490   34.4000 Cl  0  0  0  0  0  0  0  0  0  0  0  0
   37.5720   22.6050   33.2290 C   0  0  0  0  0  0  0  0  0  0  0  0
   37.4270   23.4780   32.1770 C   0  0  0  0  0  0  0  0  0  0  0  0
   36.4610   23.2800   31.2120 C   0  0  0  0  0  0  0  0  0  0  0  0
   36.2820   23.9290   30.3430 H   0  0  0  0  0  0  0  0  0  0  0  0
   35.6070   22.1960   31.2760 C   0  0  0  0  0  0  0  0  0  0  0  0
   34.8370   21.9860   30.5570 H   0  0  0  0  0  0  0  0  0  0  0  0
   35.7500   21.3150   32.3330 C   0  0  0  0  0  3  0  0  0  0  0  0
   36.7150   21.5240   33.2850 C   0  0  0  0  0  3  0  0  0  0  0  0
  1  2  1  0  0  0  0
  2  3  2  0  0  0  0
  2 16  1  0  0  0  0
  3 11  1  0  0  0  0
  4  5  1  0  0  0  0
  4  3  1  0  0  0  0
  5 12  1  0  0  0  0
  6  5  1  0  0  0  0
  7  8  1  0  0  0  0
  7  6  2  0  0  0  0
  8  4  2  0  0  0  0
  9  8  1  0  0  0  0
  9  1  2  0  0  0  0
 10  1  1  0  0  0  0
 13  9  1  0  0  0  0
 14 19  1  0  0  0  0
 14 20  1  0  0  0  0
 15 14  2  0  0  0  0
 16 17  2  0  0  0  0
 16 15  1  0  0  0  0
 17 18  1  0  0  0  0
 18 22  1  0  0  0  0
 18 19  2  0  0  0  0
 21 15  1  0  0  0  0
 23 26  1  0  0  0  0
 23  6  1  0  0  0  0
 25 32  1  0  0  0  0
 25 24  1  0  0  0  0
 26 25  2  0  0  0  0
 27 29  2  0  0  0  0
 27 26  1  0  0  0  0
 28 27  1  0  0  0  0
 29 31  1  0  0  0  0
 30 29  1  0  0  0  0
 31 32  2  0  0  0  0
M  END
>  <minimizedAffinity>
-5.68599606

$$$$

 OpenBabel03272510253D

 32 35  0  0  0  0  0  0  0  0999 V2000
   35.9080   26.4320   31.0940 C   0  0  0  0  0  0  0  0  0  0  0  0
   36.5690   27.3110   31.9380 C   0  0  0  0  0  0  0  0  0  0  0  0
   37.3750   26.8450   32.9630 C   0  0  0  0  0  0  0  0  0  0  0  0
   37.4720   25.4520   33.0820 C   0  0  0  0  0  0  0  0  0  0  0  0
   38.2080   24.7690   34.0180 N   0  0  0  0  0  0  0  0  0  0  0  0
   38.0000   23.4740   33.7500 C   0  0  0  0  0  0  0  0  0  0  0  0
   37.1870   23.3190   32.7160 N   0  0  0  0  0  0  0  0  0  0  0  0
   36.8320   24.5470   32.2650 C   0  0  0  0  0  0  0  0  0  0  0  0
   36.0360   25.0610   31.2530 C   0  0  0  0  0  0  0  0  0  0  0  0
   35.2820   26.8080   30.2980 H   0  0  0  0  0  0  0  0  0  0  0  0
   37.8910   27.5120   33.6210 H   0  0  0  0  0  0  0  0  0  0  0  0
   38.8100   25.1750   34.7850 H   0  0  0  0  0  0  0  0  0  0  0  0
   35.5280   24.3570   30.6060 H   0  0  0  0  0  0  0  0  0  0  0  0
   36.4110   30.7520   30.4310 C   0  0  0  0  0  0  0  0  0  0  0  0
   36.6370   29.3810   30.5090 C   0  0  0  0  0  0  0  0  0  0  0  0
   36.3820   28.7320   31.7030 C   0  0  0  0  0  0  0  0  0  0  0  0
   35.9230   29.4970   32.7240 N   0  0  0  0  0  0  0  0  0  0  0  0
   35.7060   30.8280   32.6390 C   0  0  0  0  0  0  0  0  0  0  0  0
   35.9540   31.4370   31.4940 N   0  0  0  0  0  0  0  0  0  0  0  0
   36.6470   31.1520   29.4420 H   0  0  0  0  0  0  0  0  0  0  0  0
   37.0050   28.7660   29.6940 H   0  0  0  0  0  0  0  0  0  0  0  0
   35.3390   31.3850   33.4900 H   0  0  0  0  0  0  0  0  0  0  0  0
   38.5870   22.4540   34.4960 O   0  0  0  0  0  0  0  0  0  0  0  0
   41.4050   22.0490   35.5020 Cl  0  0  0  0  0  0  0  0  0  0  0  0
   40.0380   22.5540   36.4770 C   0  0  0  0  0  0  0  0  0  0  0  0
   38.8240   22.6880   35.8470 C   0  0  0  0  0  0  0  0  0  0  0  0
   37.6980   23.0810   36.5410 C   0  0  0  0  0  0  0  0  0  0  0  0
   36.6950   23.2110   36.1120 H   0  0  0  0  0  0  0  0  0  0  0  0
   37.7590   23.3540   37.8940 C   0  0  0  0  0  0  0  0  0  0  0  0
   36.9210   23.6630   38.4890 H   0  0  0  0  0  0  0  0  0  0  0  0
   38.9800   23.2200   38.5310 C   0  0  0  0  0  3  0  0  0  0  0  0
   40.0910   22.8280   37.8280 C   0  0  0  0  0  3  0  0  0  0  0  0
  1  9  2  0  0  0  0
  1  2  1  0  0  0  0
  2  3  2  0  0  0  0
  3  4  1  0  0  0  0
  3 11  1  0  0  0  0
  4  5  1  0  0  0  0
  5 12  1  0  0  0  0
  6  5  1  0  0  0  0
  6 23  1  0  0  0  0
  7  6  2  0  0  0  0
  8  7  1  0  0  0  0
  8  4  2  0  0  0  0
  9  8  1  0  0  0  0
 10  1  1  0  0  0  0
 13  9  1  0  0  0  0
 14 15  2  0  0  0  0
 14 19  1  0  0  0  0
 15 16  1  0  0  0  0
 16  2  1  0  0  0  0
 16 17  2  0  0  0  0
 18 17  1  0  0  0  0
 18 22  1  0  0  0  0
 19 18  2  0  0  0  0
 20 14  1  0  0  0  0
 21 15  1  0  0  0  0
 23 26  1  0  0  0  0
 24 25  1  0  0  0  0
 25 32  1  0  0  0  0
 26 25  2  0  0  0  0
 26 27  1  0  0  0  0
 27 29  2  0  0  0  0
 28 27  1  0  0  0  0
 29 30  1  0  0  0  0
 29 31  1  0  0  0  0
 32 31  2  0  0  0  0
M  END
>  <minimizedAffinity>
-5.64928484

$$$$

 OpenBabel03272510253D

 32 35  0  0  0  0  0  0  0  0999 V2000
   38.0410   25.2630   33.4980 C   0  0  0  0  0  0  0  0  0  0  0  0
   38.0600   25.5250   34.8590 C   0  0  0  0  0  0  0  0  0  0  0  0
   37.4600   26.6620   35.3740 C   0  0  0  0  0  0  0  0  0  0  0  0
   36.8460   27.5070   34.4410 C   0  0  0  0  0  0  0  0  0  0  0  0
   36.1930   28.6830   34.7190 N   0  0  0  0  0  0  0  0  0  0  0  0
   35.7750   29.1410   33.5320 C   0  0  0  0  0  0  0  0  0  0  0  0
   36.1270   28.3270   32.5490 N   0  0  0  0  0  0  0  0  0  0  0  0
   36.8060   27.2820   33.0820 C   0  0  0  0  0  0  0  0  0  0  0  0
   37.4200   26.1310   32.6140 C   0  0  0  0  0  0  0  0  0  0  0  0
   38.5130   24.3720   33.1090 H   0  0  0  0  0  0  0  0  0  0  0  0
   37.4670   26.8770   36.4220 H   0  0  0  0  0  0  0  0  0  0  0  0
   36.0500   29.1310   35.6650 H   0  0  0  0  0  0  0  0  0  0  0  0
   37.3940   25.9450   31.5480 H   0  0  0  0  0  0  0  0  0  0  0  0
   40.4220   22.9910   36.3200 C   0  0  0  0  0  0  0  0  0  0  0  0
   39.8920   23.8850   35.3950 C   0  0  0  0  0  0  0  0  0  0  0  0
   38.7310   24.5640   35.7170 C   0  0  0  0  0  0  0  0  0  0  0  0
   38.1900   24.3010   36.9330 N   0  0  0  0  0  0  0  0  0  0  0  0
   38.7130   23.4310   37.8240 C   0  0  0  0  0  0  0  0  0  0  0  0
   39.8210   22.7880   37.5050 N   0  0  0  0  0  0  0  0  0  0  0  0
   41.3360   22.5170   35.9560 H   0  0  0  0  0  0  0  0  0  0  0  0
   40.3210   24.0990   34.4220 H   0  0  0  0  0  0  0  0  0  0  0  0
   38.2340   23.2620   38.7790 H   0  0  0  0  0  0  0  0  0  0  0  0
   35.0620   30.3310   33.4020 O   0  0  0  0  0  0  0  0  0  0  0  0
   35.3530   31.7020   36.0760 Cl  0  0  0  0  0  0  0  0  0  0  0  0
   36.0070   32.2830   34.5570 C   0  0  0  0  0  0  0  0  0  0  0  0
   35.7750   31.5250   33.4340 C   0  0  0  0  0  0  0  0  0  0  0  0
   36.2550   31.9110   32.2000 C   0  0  0  0  0  0  0  0  0  0  0  0
   36.1130   31.3630   31.2580 H   0  0  0  0  0  0  0  0  0  0  0  0
   36.9850   33.0750   32.0560 C   0  0  0  0  0  0  0  0  0  0  0  0
   37.3850   33.4300   31.1240 H   0  0  0  0  0  0  0  0  0  0  0  0
   37.2200   33.8410   33.1830 C   0  0  0  0  0  3  0  0  0  0  0  0
   36.7370   33.4440   34.4040 C   0  0  0  0  0  3  0  0  0  0  0  0
  1  2  1  0  0  0  0
  2  3  2  0  0  0  0
  2 16  1  0  0  0  0
  3 11  1  0  0  0  0
  4  5  1  0  0  0  0
  4  3  1  0  0  0  0
  5 12  1  0  0  0  0
  6  5  1  0  0  0  0
  7  8  1  0  0  0  0
  7  6  2  0  0  0  0
  8  4  2  0  0  0  0
  9  8  1  0  0  0  0
  9  1  2  0  0  0  0
 10  1  1  0  0  0  0
 13  9  1  0  0  0  0
 14 19  1  0  0  0  0
 15 16  1  0  0  0  0
 15 14  2  0  0  0  0
 16 17  2  0  0  0  0
 17 18  1  0  0  0  0
 18 22  1  0  0  0  0
 19 18  2  0  0  0  0
 20 14  1  0  0  0  0
 21 15  1  0  0  0  0
 23 26  1  0  0  0  0
 23  6  1  0  0  0  0
 25 24  1  0  0  0  0
 26 25  2  0  0  0  0
 27 26  1  0  0  0  0
 28 27  1  0  0  0  0
 29 27  2  0  0  0  0
 29 31  1  0  0  0  0
 30 29  1  0  0  0  0
 31 32  2  0  0  0  0
 32 25  1  0  0  0  0
M  END
>  <minimizedAffinity>
-5.58559561

$$$$

 OpenBabel03272510253D

 32 35  0  0  0  0  0  0  0  0999 V2000
   36.0690   28.8150   31.4680 C   0  0  0  0  0  0  0  0  0  0  0  0
   36.1700   28.8580   32.8500 C   0  0  0  0  0  0  0  0  0  0  0  0
   36.5970   27.7540   33.5670 C   0  0  0  0  0  0  0  0  0  0  0  0
   36.9130   26.6170   32.8120 C   0  0  0  0  0  0  0  0  0  0  0  0
   37.3540   25.4130   33.3050 N   0  0  0  0  0  0  0  0  0  0  0  0
   37.5240   24.6350   32.2300 C   0  0  0  0  0  0  0  0  0  0  0  0
   37.2160   25.2790   31.1140 N   0  0  0  0  0  0  0  0  0  0  0  0
   36.8260   26.5350   31.4400 C   0  0  0  0  0  0  0  0  0  0  0  0
   36.3940   27.6650   30.7650 C   0  0  0  0  0  0  0  0  0  0  0  0
   35.7340   29.6840   30.9200 H   0  0  0  0  0  0  0  0  0  0  0  0
   36.6800   27.7720   34.6340 H   0  0  0  0  0  0  0  0  0  0  0  0
   37.5240   25.1550   34.3160 H   0  0  0  0  0  0  0  0  0  0  0  0
   36.3220   27.6120   29.6870 H   0  0  0  0  0  0  0  0  0  0  0  0
   35.1770   32.4000   33.6290 C   0  0  0  0  0  0  0  0  0  0  0  0
   35.5030   31.2850   32.8630 C   0  0  0  0  0  0  0  0  0  0  0  0
   35.8110   30.1010   33.5090 C   0  0  0  0  0  0  0  0  0  0  0  0
   35.7720   30.1210   34.8650 N   0  0  0  0  0  0  0  0  0  0  0  0
   35.4540   31.2100   35.6000 C   0  0  0  0  0  0  0  0  0  0  0  0
   35.1610   32.3340   34.9710 N   0  0  0  0  0  0  0  0  0  0  0  0
   34.9530   33.2720   33.0100 H   0  0  0  0  0  0  0  0  0  0  0  0
   35.5360   31.2640   31.7790 H   0  0  0  0  0  0  0  0  0  0  0  0
   35.4400   31.1640   36.6800 H   0  0  0  0  0  0  0  0  0  0  0  0
   37.9690   23.3180   32.3250 O   0  0  0  0  0  0  0  0  0  0  0  0
   37.9430   22.0320   35.0570 Cl  0  0  0  0  0  0  0  0  0  0  0  0
   36.8660   21.6330   33.7330 C   0  0  0  0  0  0  0  0  0  0  0  0
   37.0230   22.3250   32.5560 C   0  0  0  0  0  0  0  0  0  0  0  0
   36.2160   22.0710   31.4660 C   0  0  0  0  0  0  0  0  0  0  0  0
   36.2780   22.5790   30.4920 H   0  0  0  0  0  0  0  0  0  0  0  0
   35.2230   21.1130   31.5260 C   0  0  0  0  0  0  0  0  0  0  0  0
   34.5640   20.8690   30.7140 H   0  0  0  0  0  0  0  0  0  0  0  0
   35.0620   20.4140   32.7090 C   0  0  0  0  0  3  0  0  0  0  0  0
   35.8720   20.6770   33.7850 C   0  0  0  0  0  3  0  0  0  0  0  0
  1  2  1  0  0  0  0
  2 16  1  0  0  0  0
  2  3  2  0  0  0  0
  3 11  1  0  0  0  0
  4  5  1  0  0  0  0
  4  3  1  0  0  0  0
  5 12  1  0  0  0  0
  6 23  1  0  0  0  0
  6  5  1  0  0  0  0
  7  8  1  0  0  0  0
  7  6  2  0  0  0  0
  8  4  2  0  0  0  0
  9  8  1  0  0  0  0
  9  1  2  0  0  0  0
 10  1  1  0  0  0  0
 13  9  1  0  0  0  0
 14 19  1  0  0  0  0
 15 16  1  0  0  0  0
 15 14  2  0  0  0  0
 16 17  2  0  0  0  0
 17 18  1  0  0  0  0
 18 22  1  0  0  0  0
 19 18  2  0  0  0  0
 20 14  1  0  0  0  0
 21 15  1  0  0  0  0
 23 26  1  0  0  0  0
 25 32  1  0  0  0  0
 25 24  1  0  0  0  0
 26 25  2  0  0  0  0
 27 29  2  0  0  0  0
 27 26  1  0  0  0  0
 28 27  1  0  0  0  0
 29 31  1  0  0  0  0
 30 29  1  0  0  0  0
 31 32  2  0  0  0  0
M  END
>  <minimizedAffinity>
-5.46844721

$$$$

 OpenBabel03272510253D

 32 35  0  0  0  0  0  0  0  0999 V2000
   38.0600   24.7900   33.7760 C   0  0  0  0  0  0  0  0  0  0  0  0
   38.3360   25.1840   35.0760 C   0  0  0  0  0  0  0  0  0  0  0  0
   37.9030   26.4090   35.5560 C   0  0  0  0  0  0  0  0  0  0  0  0
   37.1810   27.2010   34.6530 C   0  0  0  0  0  0  0  0  0  0  0  0
   36.6570   28.4450   34.9060 N   0  0  0  0  0  0  0  0  0  0  0  0
   36.0600   28.8120   33.7660 C   0  0  0  0  0  0  0  0  0  0  0  0
   36.1850   27.8800   32.8340 N   0  0  0  0  0  0  0  0  0  0  0  0
   36.8870   26.8450   33.3560 C   0  0  0  0  0  0  0  0  0  0  0  0
   37.3420   25.6110   32.9200 C   0  0  0  0  0  0  0  0  0  0  0  0
   38.4040   23.8320   33.4140 H   0  0  0  0  0  0  0  0  0  0  0  0
   38.1080   26.7260   36.5570 H   0  0  0  0  0  0  0  0  0  0  0  0
   36.7100   28.9950   35.8070 H   0  0  0  0  0  0  0  0  0  0  0  0
   37.1160   25.3220   31.9020 H   0  0  0  0  0  0  0  0  0  0  0  0
   40.9010   22.8050   36.4520 C   0  0  0  0  0  0  0  0  0  0  0  0
   40.2860   23.6660   35.5490 C   0  0  0  0  0  0  0  0  0  0  0  0
   39.0930   24.2660   35.9080 C   0  0  0  0  0  0  0  0  0  0  0  0
   38.6060   23.9620   37.1370 N   0  0  0  0  0  0  0  0  0  0  0  0
   39.2110   23.1240   38.0070 C   0  0  0  0  0  0  0  0  0  0  0  0
   40.3490   22.5570   37.6530 N   0  0  0  0  0  0  0  0  0  0  0  0
   41.8330   22.3940   36.0580 H   0  0  0  0  0  0  0  0  0  0  0  0
   40.6720   23.9130   34.5650 H   0  0  0  0  0  0  0  0  0  0  0  0
   38.7720   22.9200   38.9750 H   0  0  0  0  0  0  0  0  0  0  0  0
   35.4040   30.0340   33.6270 O   0  0  0  0  0  0  0  0  0  0  0  0
   34.1300   31.1270   31.1180 Cl  0  0  0  0  0  0  0  0  0  0  0  0
   33.2670   30.4790   32.4990 C   0  0  0  0  0  0  0  0  0  0  0  0
   34.0150   30.0230   33.5590 C   0  0  0  0  0  0  0  0  0  0  0  0
   33.4140   29.4990   34.6840 C   0  0  0  0  0  0  0  0  0  0  0  0
   33.9390   29.1150   35.5700 H   0  0  0  0  0  0  0  0  0  0  0  0
   32.0380   29.4150   34.7790 C   0  0  0  0  0  0  0  0  0  0  0  0
   31.5110   29.0190   35.6270 H   0  0  0  0  0  0  0  0  0  0  0  0
   31.2820   29.8730   33.7150 C   0  0  0  0  0  3  0  0  0  0  0  0
   31.8940   30.3920   32.6020 C   0  0  0  0  0  3  0  0  0  0  0  0
  1  2  1  0  0  0  0
  2  3  2  0  0  0  0
  2 16  1  0  0  0  0
  3 11  1  0  0  0  0
  4  5  1  0  0  0  0
  4  3  1  0  0  0  0
  5 12  1  0  0  0  0
  6  5  1  0  0  0  0
  7  8  1  0  0  0  0
  7  6  2  0  0  0  0
  8  4  2  0  0  0  0
  9  8  1  0  0  0  0
  9  1  2  0  0  0  0
 10  1  1  0  0  0  0
 13  9  1  0  0  0  0
 14 19  1  0  0  0  0
 15 16  1  0  0  0  0
 15 14  2  0  0  0  0
 16 17  2  0  0  0  0
 17 18  1  0  0  0  0
 18 22  1  0  0  0  0
 19 18  2  0  0  0  0
 20 14  1  0  0  0  0
 21 15  1  0  0  0  0
 23  6  1  0  0  0  0
 24 25  1  0  0  0  0
 25 32  2  0  0  0  0
 25 26  1  0  0  0  0
 26 23  1  0  0  0  0
 26 27  2  0  0  0  0
 27 29  1  0  0  0  0
 27 28  1  0  0  0  0
 29 30  1  0  0  0  0
 31 29  2  0  0  0  0
 32 31  1  0  0  0  0
M  END
>  <minimizedAffinity>
-5.37724257

$$$$

 OpenBabel03272510253D

 32 35  0  0  0  0  0  0  0  0999 V2000
   36.0200   28.5580   32.4850 C   0  0  0  0  0  0  0  0  0  0  0  0
   36.0770   28.6370   33.8680 C   0  0  0  0  0  0  0  0  0  0  0  0
   36.6530   27.6240   34.6160 C   0  0  0  0  0  0  0  0  0  0  0  0
   37.1630   26.5400   33.8900 C   0  0  0  0  0  0  0  0  0  0  0  0
   37.7740   25.4280   34.4170 N   0  0  0  0  0  0  0  0  0  0  0  0
   38.0910   24.6690   33.3610 C   0  0  0  0  0  0  0  0  0  0  0  0
   37.7150   25.2390   32.2260 N   0  0  0  0  0  0  0  0  0  0  0  0
   37.1250   26.4240   32.5180 C   0  0  0  0  0  0  0  0  0  0  0  0
   36.5380   27.4620   31.8130 C   0  0  0  0  0  0  0  0  0  0  0  0
   35.5670   29.3540   31.9130 H   0  0  0  0  0  0  0  0  0  0  0  0
   36.7050   27.6730   35.6840 H   0  0  0  0  0  0  0  0  0  0  0  0
   37.9570   25.2160   35.4350 H   0  0  0  0  0  0  0  0  0  0  0  0
   36.5020   27.3810   30.7340 H   0  0  0  0  0  0  0  0  0  0  0  0
   33.8390   31.4660   34.9280 C   0  0  0  0  0  0  0  0  0  0  0  0
   34.2470   30.3210   34.2510 C   0  0  0  0  0  0  0  0  0  0  0  0
   35.5120   29.8190   34.4950 C   0  0  0  0  0  0  0  0  0  0  0  0
   36.2710   30.4950   35.3930 N   0  0  0  0  0  0  0  0  0  0  0  0
   35.8660   31.6060   36.0460 C   0  0  0  0  0  0  0  0  0  0  0  0
   34.6560   32.0760   35.8040 N   0  0  0  0  0  0  0  0  0  0  0  0
   32.8250   31.7660   34.6540 H   0  0  0  0  0  0  0  0  0  0  0  0
   33.6430   29.7770   33.5320 H   0  0  0  0  0  0  0  0  0  0  0  0
   36.5180   32.1020   36.7510 H   0  0  0  0  0  0  0  0  0  0  0  0
   38.7340   23.4410   33.4910 O   0  0  0  0  0  0  0  0  0  0  0  0
   37.3930   21.9020   35.7160 Cl  0  0  0  0  0  0  0  0  0  0  0  0
   39.0270   22.5340   35.7570 C   0  0  0  0  0  0  0  0  0  0  0  0
   39.4740   23.2120   34.6480 C   0  0  0  0  0  0  0  0  0  0  0  0
   40.7470   23.7410   34.5980 C   0  0  0  0  0  0  0  0  0  0  0  0
   41.1780   24.2940   33.7520 H   0  0  0  0  0  0  0  0  0  0  0  0
   41.6140   23.6030   35.6650 C   0  0  0  0  0  0  0  0  0  0  0  0
   42.6150   23.9910   35.6880 H   0  0  0  0  0  0  0  0  0  0  0  0
   41.1680   22.9220   36.7830 C   0  0  0  0  0  3  0  0  0  0  0  0
   39.8990   22.4010   36.8180 C   0  0  0  0  0  3  0  0  0  0  0  0
  1  2  1  0  0  0  0
  2 16  1  0  0  0  0
  2  3  2  0  0  0  0
  3 11  1  0  0  0  0
  4  5  1  0  0  0  0
  4  3  1  0  0  0  0
  5 12  1  0  0  0  0
  6 23  1  0  0  0  0
  6  5  1  0  0  0  0
  7  8  1  0  0  0  0
  7  6  2  0  0  0  0
  8  4  2  0  0  0  0
  9  1  2  0  0  0  0
  9  8  1  0  0  0  0
 10  1  1  0  0  0  0
 13  9  1  0  0  0  0
 14 19  1  0  0  0  0
 15 16  1  0  0  0  0
 15 14  2  0  0  0  0
 16 17  2  0  0  0  0
 17 18  1  0  0  0  0
 18 22  1  0  0  0  0
 19 18  2  0  0  0  0
 20 14  1  0  0  0  0
 21 15  1  0  0  0  0
 23 26  1  0  0  0  0
 24 25  1  0  0  0  0
 25 32  1  0  0  0  0
 26 25  2  0  0  0  0
 27 26  1  0  0  0  0
 27 29  2  0  0  0  0
 28 27  1  0  0  0  0
 29 30  1  0  0  0  0
 29 31  1  0  0  0  0
 31 32  2  0  0  0  0
M  END
>  <minimizedAffinity>
-5.36504793

$$$$
