REMARK  Name = 
REMARK  6 active torsions:
REMARK  status: ('A' for Active; 'I' for Inactive)
REMARK    1  A    between atoms: C_1  and  C_8
REMARK    2  A    between atoms: N_4  and  C_18
REMARK    3  A    between atoms: C_6  and  O_12
REMARK    4  A    between atoms: O_12  and  C_13
REMARK    5  A    between atoms: C_17  and  O_22
REMARK    6  A    between atoms: O_22  and  C_35
REMARK                            x       y       z     vdW  Elec       q    Type
REMARK                         _______ _______ _______ _____ _____    ______ ____
ROOT
ATOM      1  C   UNL     1      39.920  30.707  41.898  0.00  0.00    +0.000 C 
ATOM      2  C   UNL     1      39.927  31.980  42.776  0.00  0.00    +0.000 C 
ATOM      3  C   UNL     1      38.862  32.754  42.073  0.00  0.00    +0.000 C 
ATOM      4  O   UNL     1      38.973  32.488  40.730  0.00  0.00    +0.000 OA
ATOM      5  C   UNL     1      39.803  31.429  40.535  0.00  0.00    +0.000 C 
ATOM      6  H   UNL     1      40.873  30.186  41.975  0.00  0.00    +0.000 HD
ATOM      7  H   UNL     1      40.874  32.510  42.734  0.00  0.00    +0.000 HD
ATOM      8  H   UNL     1      37.882  32.315  42.404  0.00  0.00    +0.000 HD
ATOM      9  H   UNL     1      38.922  33.847  42.272  0.00  0.00    +0.000 HD
ATOM     10  H   UNL     1      39.371  30.664  39.863  0.00  0.00    +0.000 HD
ATOM     11  H   UNL     1      40.817  31.703  40.175  0.00  0.00    +0.000 HD
ENDROOT
BRANCH   2  15
ATOM     12  C   UNL     1      38.500  31.139  45.972  0.00  0.00    +0.000 A 
ATOM     13  C   UNL     1      39.819  31.195  46.308  0.00  0.00    +0.000 A 
ATOM     14  C   UNL     1      40.471  31.519  45.121  0.00  0.00    +0.000 A 
ATOM     15  N   UNL     1      39.567  31.646  44.136  0.00  0.00    +0.000 N 
ATOM     16  N   UNL     1      38.358  31.414  44.653  0.00  0.00    +0.000 NA
ATOM     17  H   UNL     1      40.221  31.021  47.285  0.00  0.00    +0.000 HD
ATOM     18  H   UNL     1      41.550  31.638  45.065  0.00  0.00    +0.000 HD
BRANCH  12  21
ATOM     19  C   UNL     1      36.442  30.627  49.060  0.00  0.00    +0.000 A 
ATOM     20  C   UNL     1      37.517  30.928  48.248  0.00  0.00    +0.000 A 
ATOM     21  C   UNL     1      37.400  30.834  46.873  0.00  0.00    +0.000 A 
ATOM     22  N   UNL     1      36.211  30.441  46.373  0.00  0.00    +0.000 NA
ATOM     23  C   UNL     1      35.164  30.148  47.194  0.00  0.00    +0.000 A 
ATOM     24  N   UNL     1      35.262  30.234  48.508  0.00  0.00    +0.000 NA
ATOM     25  H   UNL     1      38.491  31.248  48.601  0.00  0.00    +0.000 HD
ATOM     26  H   UNL     1      34.210  29.832  46.784  0.00  0.00    +0.000 HD
BRANCH  19  27
ATOM     27  O   UNL     1      36.733  30.775  50.419  0.00  0.00    +0.000 OA
BRANCH  27  28
ATOM     28  C   UNL     1      36.786  29.690  51.314  0.00  0.00    +0.000 C 
ATOM     29  F   UNL     1      35.529  29.195  51.624  0.00  0.00    +0.000 F 
ATOM     30  F   UNL     1      37.455  30.102  52.442  0.00  0.00    +0.000 F 
ATOM     31  F   UNL     1      37.537  28.690  50.725  0.00  0.00    +0.000 F 
ENDBRANCH  27  28
ENDBRANCH  19  27
ENDBRANCH  12  21
ENDBRANCH   2  15
BRANCH   1  32
ATOM     32  O   UNL     1      38.758  30.061  42.162  0.00  0.00    +0.000 OA
BRANCH  32  35
ATOM     33 CL   UNL     1      40.475  27.536  41.446  0.00  0.00    +0.000 Cl
ATOM     34  C   UNL     1      39.019  27.549  42.392  0.00  0.00    +0.000 A 
ATOM     35  C   UNL     1      38.471  28.791  42.552  0.00  0.00    +0.000 A 
ATOM     36  C   UNL     1      37.292  28.837  43.312  0.00  0.00    +0.000 A 
ATOM     37  H   UNL     1      36.666  29.698  43.583  0.00  0.00    +0.000 HD
ATOM     38  C   UNL     1      36.721  27.685  43.868  0.00  0.00    +0.000 A 
ATOM     39  H   UNL     1      35.828  27.636  44.457  0.00  0.00    +0.000 HD
ATOM     40  C   UNL     1      37.327  26.464  43.668  0.00  0.00    +0.000 A 
ATOM     41  C   UNL     1      38.481  26.401  42.926  0.00  0.00    +0.000 A 
ENDBRANCH  32  35
ENDBRANCH   1  32
TORSDOF 6
