
 OpenBabel03272508193D

 31 33  0  0  0  0  0  0  0  0999 V2000
   34.9830   30.1410   47.6510 C   0  0  0  0  0  0  0  0  0  0  0  0
   36.0760   30.2130   46.7740 C   0  0  0  0  0  0  0  0  0  0  0  0
   35.6950   30.2230   45.4620 C   0  0  0  0  0  0  0  0  0  0  0  0
   34.4140   30.1710   45.0530 N   0  0  0  0  0  0  0  0  0  0  0  0
   33.3920   30.1030   45.9170 C   0  0  0  0  0  0  0  0  0  0  0  0
   33.6820   30.0880   47.2130 N   0  0  0  0  0  0  0  0  0  0  0  0
   36.4240   30.2740   44.6630 H   0  0  0  0  0  0  0  0  0  0  0  0
   32.3550   30.0580   45.6820 H   0  0  0  0  0  0  0  0  0  0  0  0
   35.3160   30.2160   49.1370 C   0  0  0  0  0  0  0  0  0  0  0  0
   34.3670   29.8640   50.1240 C   0  0  0  0  0  0  0  0  0  0  0  0
   35.3100   28.7500   49.7070 C   0  0  0  0  0  0  0  0  0  0  0  0
   36.3080   30.6780   49.3840 H   0  0  0  0  0  0  0  0  0  0  0  0
   34.5260   30.1760   51.1820 H   0  0  0  0  0  0  0  0  0  0  0  0
   33.2790   29.7350   49.9230 H   0  0  0  0  0  0  0  0  0  0  0  0
   36.1450   28.4470   50.3360 H   0  0  0  0  0  0  0  0  0  0  0  0
   34.8320   27.9740   49.1250 H   0  0  0  0  0  0  0  0  0  0  0  0
   37.4530   30.2510   47.2240 C   0  0  0  0  0  0  0  0  0  0  0  0
   37.5440   30.3360   48.3310 H   0  0  0  0  0  0  0  0  0  0  0  0
   37.9260   29.2630   46.9920 H   0  0  0  0  0  0  0  0  0  0  0  0
   38.3230   31.2910   46.6380 C   0  0  0  0  0  0  0  0  0  0  0  0
   39.2790   30.8530   46.2790 H   0  0  0  0  0  0  0  0  0  0  0  0
   37.8550   31.7440   45.7150 H   0  0  0  0  0  0  0  0  0  0  0  0
   40.2930   33.1110   45.4140 Cl  0  0  0  0  0  0  0  0  0  0  0  0
   39.6790   33.2430   47.0540 C   0  0  0  0  0  0  0  0  0  0  0  0
   38.7480   32.3540   47.5890 C   0  0  0  0  0  0  0  0  0  0  0  0
   38.2800   32.4770   48.8790 C   0  0  0  0  0  0  0  0  0  0  0  0
   37.5690   31.7570   49.2130 H   0  0  0  0  0  0  0  0  0  0  0  0
   38.7870   33.5330   49.6060 C   0  0  0  0  0  0  0  0  0  0  0  0
   38.4130   33.6320   50.6360 H   0  0  0  0  0  0  0  0  0  0  0  0
   39.7060   34.4350   49.1200 C   0  0  0  0  0  0  0  0  0  0  0  0
   40.1560   34.2910   47.8360 C   0  0  0  0  0  0  0  0  0  0  0  0
  1  9  1  0  0  0  0
  2 17  1  0  0  0  0
  2  1  2  0  0  0  0
  3  2  1  0  0  0  0
  4  3  2  0  0  0  0
  4  5  1  0  0  0  0
  5  6  2  0  0  0  0
  6  1  1  0  0  0  0
  7  3  1  0  0  0  0
  8  5  1  0  0  0  0
  9 12  1  0  0  0  0
  9 11  1  0  0  0  0
  9 10  1  0  0  0  0
 10 13  1  0  0  0  0
 11 10  1  0  0  0  0
 11 15  1  0  0  0  0
 14 10  1  0  0  0  0
 16 11  1  0  0  0  0
 17 18  1  0  0  0  0
 19 17  1  0  0  0  0
 20 17  1  0  0  0  0
 20 25  1  0  0  0  0
 21 20  1  0  0  0  0
 22 20  1  0  0  0  0
 23 24  1  0  0  0  0
 24 25  2  0  0  0  0
 24 31  1  0  0  0  0
 25 26  1  0  0  0  0
 26 27  1  0  0  0  0
 26 28  2  0  0  0  0
 28 29  1  0  0  0  0
 30 28  1  0  0  0  0
 31 30  2  0  0  0  0
M  END
>  <minimizedAffinity>
-5.39605856

>  <minimizedRMSD>
3.17831469

$$$$
