
     RDKit          3D

 39 41  0  0  0  0  0  0  0  0999 V2000
   36.5305   29.8022   49.1952 N   0  0  0  0  0  0  0  0  0  0  0  0
   37.2353   30.9911   48.7432 C   0  0  1  0  0  0  0  0  0  0  0  0
   37.9864   31.3633   50.0133 C   0  0  0  0  0  0  0  0  0  0  0  0
   37.5595   30.3956   51.0999 C   0  0  0  0  0  0  0  0  0  0  0  0
   37.2322   29.1821   50.2864 C   0  0  0  0  0  0  0  0  0  0  0  0
   35.3133   29.3248   48.6358 C   0  0  0  0  0  0  0  0  0  0  0  0
   34.7333   30.0717   47.5987 C   0  0  0  0  0  0  0  0  0  0  0  0
   33.5383   29.6416   47.0197 C   0  0  0  0  0  0  0  0  0  0  0  0
   32.9981   28.4811   47.5223 N   0  0  0  0  0  0  0  0  0  0  0  0
   33.5784   27.7818   48.5220 C   0  0  0  0  0  0  0  0  0  0  0  0
   34.7397   28.2039   49.0814 N   0  0  0  0  0  0  0  0  0  0  0  0
   38.1449   30.7309   47.6202 C   0  0  0  0  0  0  0  0  0  0  0  0
   39.0170   31.5568   47.4189 O   0  0  0  0  0  0  0  0  0  0  0  0
   36.5053   31.7780   48.4637 H   0  0  0  0  0  0  0  0  0  0  0  0
   39.0683   31.4243   49.8696 H   0  0  0  0  0  0  0  0  0  0  0  0
   37.6196   32.3810   50.3306 H   0  0  0  0  0  0  0  0  0  0  0  0
   38.5001   30.1454   51.6611 H   0  0  0  0  0  0  0  0  0  0  0  0
   36.7379   30.7479   51.7159 H   0  0  0  0  0  0  0  0  0  0  0  0
   38.0601   28.5401   50.0322 H   0  0  0  0  0  0  0  0  0  0  0  0
   36.5167   28.5650   50.8939 H   0  0  0  0  0  0  0  0  0  0  0  0
   35.1372   30.9841   47.1869 H   0  0  0  0  0  0  0  0  0  0  0  0
   33.0749   30.1944   46.2259 H   0  0  0  0  0  0  0  0  0  0  0  0
   33.0735   26.8830   48.8447 H   0  0  0  0  0  0  0  0  0  0  0  0
   38.5006   29.8648   46.5509 N   0  0  0  0  0  0  0  0  0  0  0  0
   38.1539   30.2890   45.2135 C   0  0  0  0  0  0  0  0  0  0  0  0
   37.0725   29.4216   44.6065 C   0  0  0  0  0  0  0  0  0  0  0  0
   37.3928   27.9700   44.8939 C   0  0  0  0  0  0  0  0  0  0  0  0
   37.2817   27.4327   43.9376 H   0  0  0  0  0  0  0  0  0  0  0  0
   38.8361   27.7943   45.3134 C   0  0  0  0  0  0  0  0  0  0  0  0
   39.1840   28.5626   46.5713 C   0  0  0  0  0  0  0  0  0  0  0  0
   37.9227   31.3411   45.0902 H   0  0  0  0  0  0  0  0  0  0  0  0
   39.0722   30.1127   44.5769 H   0  0  0  0  0  0  0  0  0  0  0  0
   36.1236   29.7658   45.0449 H   0  0  0  0  0  0  0  0  0  0  0  0
   37.0643   29.6542   43.5183 H   0  0  0  0  0  0  0  0  0  0  0  0
   36.6784   27.5668   45.6082 H   0  0  0  0  0  0  0  0  0  0  0  0
   39.4970   28.1196   44.5088 H   0  0  0  0  0  0  0  0  0  0  0  0
   38.9744   26.7212   45.5350 H   0  0  0  0  0  0  0  0  0  0  0  0
   40.2659   28.8023   46.5237 H   0  0  0  0  0  0  0  0  0  0  0  0
   38.9747   27.9857   47.4728 H   0  0  0  0  0  0  0  0  0  0  0  0
  1  5  1  0
  2  1  1  0
  2  3  1  0
  3  4  1  0
  5  4  1  0
  6 11  1  0
  6  1  1  0
  7  6  2  0
  8  9  2  0
  8  7  1  0
  9 10  1  0
 10 11  2  0
 12  2  1  0
 13 12  2  0
  2 14  1  6
  3 15  1  0
  3 16  1  0
  4 17  1  0
  4 18  1  0
  5 19  1  0
  5 20  1  0
  7 21  1  0
  8 22  1  0
 10 23  1  0
 24 25  1  0
 25 26  1  0
 26 27  1  0
 27 28  1  0
 27 29  1  0
 29 30  1  0
 30 24  1  0
 25 31  1  0
 25 32  1  0
 26 33  1  0
 26 34  1  0
 27 35  1  0
 29 36  1  0
 29 37  1  0
 30 38  1  0
 30 39  1  0
 12 24  1  0
M  ISO  8  14  13  15  13  16  13  17  13  18  13  19  13  20  13  21  14
M  ISO  3  22  14  23  14  28  15
M  END
>  <DihAtoms>  (1) 
1,11,23,24

>  <DihDeg>  (1) 
179.78260340261426

$$$$
