
 OpenBabel03272500573D

 33 35  0  0  0  0  0  0  0  0999 V2000
   38.0670   31.9010   47.4200 C   0  0  0  0  0  0  0  0  0  0  0  0
   38.4980   32.8410   48.3140 C   0  0  0  0  0  0  0  0  0  0  0  0
   37.9760   32.9100   49.6040 C   0  0  0  0  0  0  0  0  0  0  0  0
   36.9570   31.9540   49.9720 C   0  0  0  0  0  0  0  0  0  0  0  0
   36.5700   31.0420   49.0340 C   0  0  0  0  0  0  0  0  0  0  0  0
   37.0760   30.9820   47.7940 C   0  0  0  0  0  0  0  0  0  0  0  0
   39.2710   33.5790   48.0620 H   0  0  0  0  0  0  0  0  0  0  0  0
   38.3570   33.6830   50.2770 H   0  0  0  0  0  0  0  0  0  0  0  0
   36.6620   32.1330   50.9750 H   0  0  0  0  0  0  0  0  0  0  0  0
   35.8390   30.4290   49.5350 H   0  0  0  0  0  0  0  0  0  0  0  0
   39.9950   31.2890   46.0350 C   0  0  0  0  0  0  0  0  0  0  0  0
   38.7210   31.9300   46.1270 C   0  0  0  0  0  0  0  0  0  0  0  0
   38.2640   32.4980   44.9650 C   0  0  0  0  0  0  0  0  0  0  0  0
   38.9900   32.4370   43.8370 N   0  0  0  0  0  0  0  0  0  0  0  0
   40.1700   31.8390   43.7620 C   0  0  0  0  0  0  0  0  0  0  0  0
   40.6660   31.2670   44.8670 N   0  0  0  0  0  0  0  0  0  0  0  0
   40.4660   30.8040   46.8810 H   0  0  0  0  0  0  0  0  0  0  0  0
   37.3020   32.9810   45.0390 H   0  0  0  0  0  0  0  0  0  0  0  0
   40.7860   31.7670   42.8730 H   0  0  0  0  0  0  0  0  0  0  0  0
   35.1360   29.9560   46.9270 C   0  0  0  0  0  0  0  0  0  0  0  0
   34.5050   30.6040   47.8210 O   0  0  0  0  0  0  0  0  0  0  0  0
   36.6180   30.0610   46.8840 N   0  0  0  0  0  0  0  0  0  0  0  0
   37.1390   29.4800   46.2280 H   0  0  0  0  0  0  0  0  0  0  0  0
   34.5210   29.1260   45.9400 O   0  0  0  0  0  0  0  0  0  0  0  0
   33.3370   29.5530   45.3710 C   0  0  0  0  0  0  0  0  0  0  0  0
   33.3980   30.6870   44.8330 O   0  0  0  0  0  0  0  0  0  0  0  0
   32.0010   29.0210   45.2370 N   0  0  0  0  0  0  0  0  0  0  0  0
   30.9150   29.7120   44.5790 C   0  0  0  0  0  2  0  0  0  0  0  0
   29.6720   29.7790   45.4070 C   0  0  0  0  0  2  0  0  0  0  0  0
   29.8310   29.2030   46.7840 C   0  0  0  0  0  3  0  0  0  0  0  0
   28.8360   29.0470   47.2510 H   0  0  0  0  0  0  0  0  0  0  0  0
   30.5540   27.8960   46.8420 C   0  0  0  0  0  2  0  0  0  0  0  0
   31.5440   27.7530   45.7230 C   0  0  0  0  0  2  0  0  0  0  0  0
  1  6  2  0  0  0  0
  1  2  1  0  0  0  0
  2  3  2  0  0  0  0
  3  4  1  0  0  0  0
  3  8  1  0  0  0  0
  4  9  1  0  0  0  0
  5 10  1  0  0  0  0
  5  4  2  0  0  0  0
  6  5  1  0  0  0  0
  7  2  1  0  0  0  0
 11 12  1  0  0  0  0
 11 17  1  0  0  0  0
 12  1  1  0  0  0  0
 13 18  1  0  0  0  0
 13 12  2  0  0  0  0
 14 13  1  0  0  0  0
 15 14  2  0  0  0  0
 15 16  1  0  0  0  0
 16 11  2  0  0  0  0
 19 15  1  0  0  0  0
 20 21  2  0  0  0  0
 22 20  1  0  0  0  0
 22  6  1  0  0  0  0
 23 22  1  0  0  0  0
 24 20  1  0  0  0  0
 25 24  1  0  0  0  0
 26 25  2  0  0  0  0
 27 25  1  0  0  0  0
 27 33  1  0  0  0  0
 28 27  1  0  0  0  0
 28 29  1  0  0  0  0
 29 30  1  0  0  0  0
 30 32  1  0  0  0  0
 30 31  1  0  0  0  0
 33 32  1  0  0  0  0
M  END
>  <minimizedAffinity>
-5.63450766

>  <minimizedRMSD>
0.444415808

$$$$
