
     RDKit          3D

 39 41  0  0  0  0  0  0  0  0999 V2000
   36.5305   29.8022   49.1952 N   0  0  0  0  0  0  0  0  0  0  0  0
   37.2353   30.9911   48.7432 C   0  0  1  0  0  0  0  0  0  0  0  0
   37.9864   31.3633   50.0133 C   0  0  0  0  0  0  0  0  0  0  0  0
   37.5595   30.3956   51.0999 C   0  0  0  0  0  0  0  0  0  0  0  0
   37.2322   29.1821   50.2864 C   0  0  0  0  0  0  0  0  0  0  0  0
   35.3133   29.3248   48.6358 C   0  0  0  0  0  0  0  0  0  0  0  0
   34.7333   30.0717   47.5987 C   0  0  0  0  0  0  0  0  0  0  0  0
   33.5383   29.6416   47.0197 C   0  0  0  0  0  0  0  0  0  0  0  0
   32.9981   28.4811   47.5223 N   0  0  0  0  0  0  0  0  0  0  0  0
   33.5784   27.7818   48.5220 C   0  0  0  0  0  0  0  0  0  0  0  0
   34.7397   28.2039   49.0814 N   0  0  0  0  0  0  0  0  0  0  0  0
   38.1449   30.7309   47.6202 C   0  0  0  0  0  0  0  0  0  0  0  0
   39.0170   31.5568   47.4189 O   0  0  0  0  0  0  0  0  0  0  0  0
   36.5053   31.7780   48.4637 H   0  0  0  0  0  0  0  0  0  0  0  0
   39.0683   31.4243   49.8696 H   0  0  0  0  0  0  0  0  0  0  0  0
   37.6196   32.3810   50.3306 H   0  0  0  0  0  0  0  0  0  0  0  0
   38.5001   30.1454   51.6611 H   0  0  0  0  0  0  0  0  0  0  0  0
   36.7379   30.7479   51.7159 H   0  0  0  0  0  0  0  0  0  0  0  0
   38.0601   28.5401   50.0322 H   0  0  0  0  0  0  0  0  0  0  0  0
   36.5167   28.5650   50.8939 H   0  0  0  0  0  0  0  0  0  0  0  0
   35.1372   30.9841   47.1869 H   0  0  0  0  0  0  0  0  0  0  0  0
   33.0749   30.1944   46.2259 H   0  0  0  0  0  0  0  0  0  0  0  0
   33.0735   26.8830   48.8447 H   0  0  0  0  0  0  0  0  0  0  0  0
   38.5006   29.8648   46.5509 N   0  0  0  0  0  0  0  0  0  0  0  0
   39.6289   30.2513   45.7346 C   0  0  0  0  0  0  0  0  0  0  0  0
   39.2086   30.6367   44.3329 C   0  0  0  0  0  0  0  0  0  0  0  0
   38.2062   29.6206   43.8275 C   0  0  0  0  0  0  0  0  0  0  0  0
   38.5390   29.3332   42.8165 H   0  0  0  0  0  0  0  0  0  0  0  0
   38.2335   28.3560   44.6580 C   0  0  0  0  0  0  0  0  0  0  0  0
   37.8953   28.5975   46.1144 C   0  0  0  0  0  0  0  0  0  0  0  0
   40.2938   30.9953   46.1590 H   0  0  0  0  0  0  0  0  0  0  0  0
   40.2646   29.3236   45.6127 H   0  0  0  0  0  0  0  0  0  0  0  0
   38.8109   31.6603   44.4044 H   0  0  0  0  0  0  0  0  0  0  0  0
   40.1412   30.6610   43.7263 H   0  0  0  0  0  0  0  0  0  0  0  0
   37.2206   30.0753   43.7568 H   0  0  0  0  0  0  0  0  0  0  0  0
   39.2207   27.8958   44.5982 H   0  0  0  0  0  0  0  0  0  0  0  0
   37.4558   27.6885   44.2464 H   0  0  0  0  0  0  0  0  0  0  0  0
   38.4072   27.8123   46.7073 H   0  0  0  0  0  0  0  0  0  0  0  0
   36.8209   28.5535   46.2964 H   0  0  0  0  0  0  0  0  0  0  0  0
  1  5  1  0
  2  1  1  0
  2  3  1  0
  3  4  1  0
  5  4  1  0
  6 11  1  0
  6  1  1  0
  7  6  2  0
  8  9  2  0
  8  7  1  0
  9 10  1  0
 10 11  2  0
 12  2  1  0
 13 12  2  0
  2 14  1  6
  3 15  1  0
  3 16  1  0
  4 17  1  0
  4 18  1  0
  5 19  1  0
  5 20  1  0
  7 21  1  0
  8 22  1  0
 10 23  1  0
 24 25  1  0
 25 26  1  0
 26 27  1  0
 27 28  1  0
 27 29  1  0
 29 30  1  0
 30 24  1  0
 25 31  1  0
 25 32  1  0
 26 33  1  0
 26 34  1  0
 27 35  1  0
 29 36  1  0
 29 37  1  0
 30 38  1  0
 30 39  1  0
 12 24  1  0
M  ISO  8  14  13  15  13  16  13  17  13  18  13  19  13  20  13  21  14
M  ISO  3  22  14  23  14  28  15
M  END
>  <DihAtoms>  (1) 
1,11,23,24

>  <DihDeg>  (1) 
179.78260340261426

$$$$
