
     RDKit          3D

 42 44  0  0  0  0  0  0  0  0999 V2000
   38.1099   31.8875   47.4164 C   0  0  0  0  0  0  0  0  0  0  0  0
   38.5774   32.8046   48.3150 C   0  0  0  0  0  0  0  0  0  0  0  0
   38.0756   32.8704   49.6131 C   0  0  0  0  0  0  0  0  0  0  0  0
   37.0400   31.9337   49.9854 C   0  0  0  0  0  0  0  0  0  0  0  0
   36.6175   31.0437   49.0422 C   0  0  0  0  0  0  0  0  0  0  0  0
   37.1021   30.9866   47.7939 C   0  0  0  0  0  0  0  0  0  0  0  0
   40.0036   31.2513   45.9963 C   0  0  0  0  0  0  0  0  0  0  0  0
   38.7454   31.9158   46.1144 C   0  0  0  0  0  0  0  0  0  0  0  0
   38.2821   32.5047   44.9646 C   0  0  0  0  0  0  0  0  0  0  0  0
   38.9885   32.4411   43.8249 N   0  0  0  0  0  0  0  0  0  0  0  0
   40.1559   31.8211   43.7259 C   0  0  0  0  0  0  0  0  0  0  0  0
   40.6569   31.2280   44.8178 N   0  0  0  0  0  0  0  0  0  0  0  0
   35.1268   30.0009   46.9616 C   0  0  0  0  0  0  0  0  0  0  0  0
   34.5294   30.6387   47.8853 O   0  0  0  0  0  0  0  0  0  0  0  0
   36.6083   30.0892   46.8800 N   0  0  0  0  0  0  0  0  0  0  0  0
   34.4750   29.1965   45.9770 O   0  0  0  0  0  0  0  0  0  0  0  0
   33.2903   29.6565   45.4357 C   0  0  0  0  0  0  0  0  0  0  0  0
   33.4243   30.6006   44.6184 O   0  0  0  0  0  0  0  0  0  0  0  0
   39.3638   33.5270   48.0596 H   0  0  0  0  0  0  0  0  0  0  0  0
   38.4859   33.6251   50.2902 H   0  0  0  0  0  0  0  0  0  0  0  0
   36.7651   32.1075   50.9950 H   0  0  0  0  0  0  0  0  0  0  0  0
   35.8792   30.4429   49.5472 H   0  0  0  0  0  0  0  0  0  0  0  0
   40.4778   30.7478   46.8304 H   0  0  0  0  0  0  0  0  0  0  0  0
   37.3307   33.0061   45.0583 H   0  0  0  0  0  0  0  0  0  0  0  0
   40.7567   31.7464   42.8271 H   0  0  0  0  0  0  0  0  0  0  0  0
   37.1036   29.5147   46.1993 H   0  0  0  0  0  0  0  0  0  0  0  0
   31.8906   29.3297   45.5785 N   0  0  0  0  0  0  0  0  0  0  0  0
   31.3015   28.7968   46.7860 C   0  0  0  0  0  0  0  0  0  0  0  0
   30.4819   27.5692   46.5499 C   0  0  0  0  0  0  0  0  0  0  0  0
   30.5135   27.0849   45.1288 C   0  0  0  0  0  0  0  0  0  0  0  0
   29.7049   26.3445   44.9585 H   0  0  0  0  0  0  0  0  0  0  0  0
   30.3578   28.1528   44.0951 C   0  0  0  0  0  0  0  0  0  0  0  0
   30.8819   29.4758   44.5722 C   0  0  0  0  0  0  0  0  0  0  0  0
   30.6869   29.5600   47.3231 H   0  0  0  0  0  0  0  0  0  0  0  0
   32.1371   28.5371   47.4690 H   0  0  0  0  0  0  0  0  0  0  0  0
   30.8204   26.7284   47.1898 H   0  0  0  0  0  0  0  0  0  0  0  0
   29.4104   27.7553   46.8276 H   0  0  0  0  0  0  0  0  0  0  0  0
   31.4551   26.5299   44.9380 H   0  0  0  0  0  0  0  0  0  0  0  0
   30.9435   27.8594   43.1993 H   0  0  0  0  0  0  0  0  0  0  0  0
   29.3050   28.2322   43.7148 H   0  0  0  0  0  0  0  0  0  0  0  0
   31.3191   30.0205   43.7019 H   0  0  0  0  0  0  0  0  0  0  0  0
   30.0801   30.1244   44.9816 H   0  0  0  0  0  0  0  0  0  0  0  0
  1  6  1  0
  1  2  2  0
  2  3  1  0
  3  4  2  0
  5  4  1  0
  6  5  2  0
  7  8  2  0
  8  1  1  0
  9  8  1  0
 10  9  2  0
 11 10  1  0
 11 12  2  0
 12  7  1  0
 13 14  2  0
 15 13  1  0
 15  6  1  0
 16 13  1  0
 17 16  1  0
 18 17  2  0
  2 19  1  0
  3 20  1  0
  4 21  1  0
  5 22  1  0
  7 23  1  0
  9 24  1  0
 11 25  1  0
 15 26  1  0
 27 28  1  0
 28 29  1  0
 29 30  1  0
 30 31  1  0
 30 32  1  0
 32 33  1  0
 33 27  1  0
 28 34  1  0
 28 35  1  0
 29 36  1  0
 29 37  1  0
 30 38  1  0
 32 39  1  0
 32 40  1  0
 33 41  1  0
 33 42  1  0
 17 27  1  0
M  ISO  8  19  14  20  14  21  14  22  14  23  14  24  14  25  14  31  15
M  END
>  <DihAtoms>  (1) 
15,16,26,27

>  <DihDeg>  (1) 
-0.6159254614650945

$$$$
