
 OpenBabel03272503253D

 30 32  0  0  1  0  0  0  0  0999 V2000
   38.7550   22.3080   35.6660 N   0  0  0  0  0  0  0  0  0  0  0  0
   38.4710   23.1760   36.7980 C   0  0  1  0  0  0  0  0  0  0  0  0
   39.7310   22.9690   37.6240 C   0  0  0  0  0  0  0  0  0  0  0  0
   40.5750   21.9230   36.9220 C   0  0  0  0  0  0  0  0  0  0  0  0
   40.1720   22.1450   35.4970 C   0  0  0  0  0  0  0  0  0  0  0  0
   37.5730   22.8110   37.3370 H   0  0  0  0  0  0  0  0  0  0  0  0
   40.2630   23.9000   37.8380 H   0  0  0  0  0  0  0  0  0  0  0  0
   39.4150   22.5170   38.6070 H   0  0  0  0  0  0  0  0  0  0  0  0
   41.6330   22.2910   37.0030 H   0  0  0  0  0  0  0  0  0  0  0  0
   40.4140   20.9090   37.2730 H   0  0  0  0  0  0  0  0  0  0  0  0
   40.6940   22.9270   34.9690 H   0  0  0  0  0  0  0  0  0  0  0  0
   40.3800   21.1880   34.9470 H   0  0  0  0  0  0  0  0  0  0  0  0
   37.7630   21.7020   34.8470 C   0  0  0  0  0  0  0  0  0  0  0  0
   36.5990   21.2280   35.4720 C   0  0  0  0  0  0  0  0  0  0  0  0
   35.5980   20.6260   34.7070 C   0  0  0  0  0  0  0  0  0  0  0  0
   35.8310   20.5370   33.3550 N   0  0  0  0  0  0  0  0  0  0  0  0
   36.9620   21.0010   32.7800 C   0  0  0  0  0  0  0  0  0  0  0  0
   37.9310   21.5870   33.5270 N   0  0  0  0  0  0  0  0  0  0  0  0
   36.3920   21.2870   36.5290 H   0  0  0  0  0  0  0  0  0  0  0  0
   34.6990   20.2560   35.1600 H   0  0  0  0  0  0  0  0  0  0  0  0
   37.0490   20.8840   31.7100 H   0  0  0  0  0  0  0  0  0  0  0  0
   38.2860   24.5820   36.4150 C   0  0  0  0  0  0  0  0  0  0  0  0
   38.0330   25.3660   37.3120 O   0  0  0  0  0  0  0  0  0  0  0  0
   38.2640   25.5370   35.3630 N   0  0  0  0  0  0  0  0  0  0  0  0
   38.9520   26.7870   35.5890 C   0  0  0  0  0  2  0  0  0  0  0  0
   37.9900   27.9510   35.7010 C   0  0  0  0  0  2  0  0  0  0  0  0
   36.9520   27.8330   34.6050 C   0  0  0  0  0  3  0  0  0  0  0  0
   36.8860   28.8260   34.1310 H   0  0  0  0  0  0  0  0  0  0  0  0
   37.3990   26.8760   33.5220 C   0  0  0  0  0  2  0  0  0  0  0  0
   37.6370   25.4700   34.0330 C   0  0  0  0  0  2  0  0  0  0  0  0
  1  2  1  0  0  0  0
  2  6  1  1  0  0  0
  2  3  1  0  0  0  0
  3  7  1  0  0  0  0
  3  8  1  0  0  0  0
  4  9  1  0  0  0  0
  4 10  1  0  0  0  0
  4  3  1  0  0  0  0
  5  1  1  0  0  0  0
  5  4  1  0  0  0  0
 11  5  1  0  0  0  0
 12  5  1  0  0  0  0
 13 14  1  0  0  0  0
 13  1  1  0  0  0  0
 14 19  1  0  0  0  0
 15 20  1  0  0  0  0
 15 14  2  0  0  0  0
 16 15  1  0  0  0  0
 17 16  2  0  0  0  0
 17 18  1  0  0  0  0
 18 13  2  0  0  0  0
 21 17  1  0  0  0  0
 22  2  1  0  0  0  0
 22 23  2  0  0  0  0
 24 25  1  0  0  0  0
 24 22  1  0  0  0  0
 25 26  1  0  0  0  0
 27 26  1  0  0  0  0
 28 27  1  0  0  0  0
 29 30  1  0  0  0  0
 29 27  1  0  0  0  0
 30 24  1  0  0  0  0
M  END
>  <minimizedAffinity>
-5.16487122

$$$$

 OpenBabel03272503253D

 30 32  0  0  1  0  0  0  0  0999 V2000
   37.1860   22.7800   32.0590 N   0  0  0  0  0  0  0  0  0  0  0  0
   37.0600   21.9930   33.2750 C   0  0  1  0  0  0  0  0  0  0  0  0
   37.2000   20.5880   32.7070 C   0  0  0  0  0  0  0  0  0  0  0  0
   37.2970   20.7090   31.1980 C   0  0  0  0  0  0  0  0  0  0  0  0
   37.9320   22.0590   31.0640 C   0  0  0  0  0  0  0  0  0  0  0  0
   36.0560   22.1460   33.7210 H   0  0  0  0  0  0  0  0  0  0  0  0
   38.0150   20.0190   33.1620 H   0  0  0  0  0  0  0  0  0  0  0  0
   36.2350   20.0440   32.9200 H   0  0  0  0  0  0  0  0  0  0  0  0
   38.0840   19.9680   30.8910 H   0  0  0  0  0  0  0  0  0  0  0  0
   36.3500   20.6140   30.6790 H   0  0  0  0  0  0  0  0  0  0  0  0
   39.0070   22.0920   31.1420 H   0  0  0  0  0  0  0  0  0  0  0  0
   37.6690   22.4430   30.0420 H   0  0  0  0  0  0  0  0  0  0  0  0
   36.6380   24.0800   31.8800 C   0  0  0  0  0  0  0  0  0  0  0  0
   35.5010   24.2050   31.0680 C   0  0  0  0  0  0  0  0  0  0  0  0
   34.9290   25.4620   30.8640 C   0  0  0  0  0  0  0  0  0  0  0  0
   35.5390   26.5210   31.4940 N   0  0  0  0  0  0  0  0  0  0  0  0
   36.6340   26.3720   32.2710 C   0  0  0  0  0  0  0  0  0  0  0  0
   37.1860   25.1480   32.4660 N   0  0  0  0  0  0  0  0  0  0  0  0
   35.0030   23.3900   30.5640 H   0  0  0  0  0  0  0  0  0  0  0  0
   34.0600   25.5840   30.2480 H   0  0  0  0  0  0  0  0  0  0  0  0
   37.0380   27.2670   32.7220 H   0  0  0  0  0  0  0  0  0  0  0  0
   38.1000   22.2930   34.2670 C   0  0  0  0  0  0  0  0  0  0  0  0
   39.1890   21.7750   34.0920 O   0  0  0  0  0  0  0  0  0  0  0  0
   38.4440   22.9800   35.4620 N   0  0  0  0  0  0  0  0  0  0  0  0
   39.7070   23.6820   35.4810 C   0  0  0  0  0  2  0  0  0  0  0  0
   40.7010   23.0320   36.4190 C   0  0  0  0  0  2  0  0  0  0  0  0
   39.9970   22.6820   37.7120 C   0  0  0  0  0  3  0  0  0  0  0  0
   40.6410   23.0510   38.5270 H   0  0  0  0  0  0  0  0  0  0  0  0
   38.6840   23.4240   37.8440 C   0  0  0  0  0  2  0  0  0  0  0  0
   37.7090   23.1050   36.7300 C   0  0  0  0  0  2  0  0  0  0  0  0
  1  2  1  0  0  0  0
  2  6  1  1  0  0  0
  2 22  1  0  0  0  0
  3  8  1  0  0  0  0
  3  7  1  0  0  0  0
  3  2  1  0  0  0  0
  4  3  1  0  0  0  0
  5 11  1  0  0  0  0
  5  4  1  0  0  0  0
  5  1  1  0  0  0  0
  9  4  1  0  0  0  0
 10  4  1  0  0  0  0
 12  5  1  0  0  0  0
 13  1  1  0  0  0  0
 13 18  1  0  0  0  0
 14 13  2  0  0  0  0
 15 14  1  0  0  0  0
 15 16  2  0  0  0  0
 16 17  1  0  0  0  0
 17 18  2  0  0  0  0
 17 21  1  0  0  0  0
 19 14  1  0  0  0  0
 20 15  1  0  0  0  0
 22 24  1  0  0  0  0
 23 22  2  0  0  0  0
 24 25  1  0  0  0  0
 24 30  1  0  0  0  0
 25 26  1  0  0  0  0
 26 27  1  0  0  0  0
 27 29  1  0  0  0  0
 27 28  1  0  0  0  0
 30 29  1  0  0  0  0
M  END
>  <minimizedAffinity>
-5.11176777

$$$$

 OpenBabel03272503253D

 30 32  0  0  1  0  0  0  0  0999 V2000
   39.5340   25.2250   34.9220 N   0  0  0  0  0  0  0  0  0  0  0  0
   38.5440   26.0570   34.2580 C   0  0  1  0  0  0  0  0  0  0  0  0
   39.4540   27.0460   33.5440 C   0  0  0  0  0  0  0  0  0  0  0  0
   40.8810   26.7340   33.9500 C   0  0  0  0  0  0  0  0  0  0  0  0
   40.7850   25.2630   34.2150 C   0  0  0  0  0  0  0  0  0  0  0  0
   37.9130   26.5680   35.0140 H   0  0  0  0  0  0  0  0  0  0  0  0
   39.2940   27.0740   32.4630 H   0  0  0  0  0  0  0  0  0  0  0  0
   39.2220   28.0700   33.9550 H   0  0  0  0  0  0  0  0  0  0  0  0
   41.4870   26.8380   33.0090 H   0  0  0  0  0  0  0  0  0  0  0  0
   41.2430   27.3120   34.7940 H   0  0  0  0  0  0  0  0  0  0  0  0
   40.8820   24.6160   33.3580 H   0  0  0  0  0  0  0  0  0  0  0  0
   41.6240   25.0030   34.9150 H   0  0  0  0  0  0  0  0  0  0  0  0
   39.2950   24.4810   36.1100 C   0  0  0  0  0  0  0  0  0  0  0  0
   38.2000   24.8530   36.9060 C   0  0  0  0  0  0  0  0  0  0  0  0
   37.9270   24.1510   38.0810 C   0  0  0  0  0  0  0  0  0  0  0  0
   38.7770   23.1130   38.3850 N   0  0  0  0  0  0  0  0  0  0  0  0
   39.8240   22.7770   37.6010 C   0  0  0  0  0  0  0  0  0  0  0  0
   40.0850   23.4620   36.4590 N   0  0  0  0  0  0  0  0  0  0  0  0
   37.5190   25.6610   36.6890 H   0  0  0  0  0  0  0  0  0  0  0  0
   37.0970   24.4150   38.7050 H   0  0  0  0  0  0  0  0  0  0  0  0
   40.4310   21.9450   37.9280 H   0  0  0  0  0  0  0  0  0  0  0  0
   37.6970   25.3100   33.3200 C   0  0  0  0  0  0  0  0  0  0  0  0
   36.6970   25.8750   32.9160 O   0  0  0  0  0  0  0  0  0  0  0  0
   37.4940   24.1010   32.6010 N   0  0  0  0  0  0  0  0  0  0  0  0
   37.1100   24.2140   31.2130 C   0  0  0  0  0  2  0  0  0  0  0  0
   35.6880   23.7510   30.9800 C   0  0  0  0  0  2  0  0  0  0  0  0
   35.4650   22.4590   31.7370 C   0  0  0  0  0  3  0  0  0  0  0  0
   34.9880   21.7620   31.0280 H   0  0  0  0  0  0  0  0  0  0  0  0
   36.7760   21.8210   32.1390 C   0  0  0  0  0  2  0  0  0  0  0  0
   37.6110   22.7030   33.0430 C   0  0  0  0  0  2  0  0  0  0  0  0
  1 13  1  0  0  0  0
  2  1  1  0  0  0  0
  2  6  1  1  0  0  0
  3  4  1  0  0  0  0
  3  8  1  0  0  0  0
  3  2  1  0  0  0  0
  4  5  1  0  0  0  0
  4 10  1  0  0  0  0
  5 12  1  0  0  0  0
  5  1  1  0  0  0  0
  7  3  1  0  0  0  0
  9  4  1  0  0  0  0
 11  5  1  0  0  0  0
 13 18  2  0  0  0  0
 13 14  1  0  0  0  0
 14 15  2  0  0  0  0
 15 16  1  0  0  0  0
 15 20  1  0  0  0  0
 17 21  1  0  0  0  0
 17 16  2  0  0  0  0
 18 17  1  0  0  0  0
 19 14  1  0  0  0  0
 22  2  1  0  0  0  0
 23 22  2  0  0  0  0
 24 30  1  0  0  0  0
 24 22  1  0  0  0  0
 25 24  1  0  0  0  0
 26 25  1  0  0  0  0
 26 27  1  0  0  0  0
 27 29  1  0  0  0  0
 28 27  1  0  0  0  0
 29 30  1  0  0  0  0
M  END
>  <minimizedAffinity>
-5.05705023

$$$$

 OpenBabel03272503253D

 30 32  0  0  1  0  0  0  0  0999 V2000
   38.8190   27.0070   33.6850 N   0  0  0  0  0  0  0  0  0  0  0  0
   38.3350   27.3270   35.0190 C   0  0  1  0  0  0  0  0  0  0  0  0
   36.9070   27.7430   34.6980 C   0  0  0  0  0  0  0  0  0  0  0  0
   36.7450   27.7100   33.1910 C   0  0  0  0  0  0  0  0  0  0  0  0
   37.7280   26.6410   32.8250 C   0  0  0  0  0  0  0  0  0  0  0  0
   38.9150   28.1750   35.4370 H   0  0  0  0  0  0  0  0  0  0  0  0
   36.1580   27.1600   35.2410 H   0  0  0  0  0  0  0  0  0  0  0  0
   36.7970   28.8220   35.0070 H   0  0  0  0  0  0  0  0  0  0  0  0
   35.7280   27.2670   33.0110 H   0  0  0  0  0  0  0  0  0  0  0  0
   36.9240   28.6610   32.7000 H   0  0  0  0  0  0  0  0  0  0  0  0
   37.3740   25.6240   32.8910 H   0  0  0  0  0  0  0  0  0  0  0  0
   38.0150   26.8160   31.7530 H   0  0  0  0  0  0  0  0  0  0  0  0
   40.1840   27.0580   33.2900 C   0  0  0  0  0  0  0  0  0  0  0  0
   40.4630   27.1800   31.9200 C   0  0  0  0  0  0  0  0  0  0  0  0
   41.7890   27.2340   31.4850 C   0  0  0  0  0  0  0  0  0  0  0  0
   42.7560   27.1620   32.4600 N   0  0  0  0  0  0  0  0  0  0  0  0
   42.4580   27.0450   33.7720 C   0  0  0  0  0  0  0  0  0  0  0  0
   41.1680   26.9930   34.1900 N   0  0  0  0  0  0  0  0  0  0  0  0
   39.7240   27.2390   31.1360 H   0  0  0  0  0  0  0  0  0  0  0  0
   42.0290   27.3270   30.4440 H   0  0  0  0  0  0  0  0  0  0  0  0
   43.2900   26.9960   34.4590 H   0  0  0  0  0  0  0  0  0  0  0  0
   38.3830   26.1840   35.9400 C   0  0  0  0  0  0  0  0  0  0  0  0
   38.1780   26.4200   37.1170 O   0  0  0  0  0  0  0  0  0  0  0  0
   38.5860   24.7860   36.0930 N   0  0  0  0  0  0  0  0  0  0  0  0
   37.6510   24.0710   36.9310 C   0  0  0  0  0  2  0  0  0  0  0  0
   38.2970   23.5780   38.2080 C   0  0  0  0  0  2  0  0  0  0  0  0
   39.6450   22.9760   37.8730 C   0  0  0  0  0  3  0  0  0  0  0  0
   39.6870   22.0030   38.3900 H   0  0  0  0  0  0  0  0  0  0  0  0
   39.7640   22.6760   36.3950 C   0  0  0  0  0  2  0  0  0  0  0  0
   39.6220   23.9090   35.5270 C   0  0  0  0  0  2  0  0  0  0  0  0
  1  2  1  0  0  0  0
  2  6  1  1  0  0  0
  2 22  1  0  0  0  0
  3  8  1  0  0  0  0
  3  2  1  0  0  0  0
  3  7  1  0  0  0  0
  4  3  1  0  0  0  0
  5 11  1  0  0  0  0
  5  4  1  0  0  0  0
  5  1  1  0  0  0  0
  9  4  1  0  0  0  0
 10  4  1  0  0  0  0
 12  5  1  0  0  0  0
 13  1  1  0  0  0  0
 13 18  1  0  0  0  0
 14 13  2  0  0  0  0
 15 14  1  0  0  0  0
 15 16  2  0  0  0  0
 16 17  1  0  0  0  0
 17 18  2  0  0  0  0
 17 21  1  0  0  0  0
 19 14  1  0  0  0  0
 20 15  1  0  0  0  0
 22 24  1  0  0  0  0
 22 23  2  0  0  0  0
 24 25  1  0  0  0  0
 25 26  1  0  0  0  0
 27 26  1  0  0  0  0
 27 28  1  0  0  0  0
 29 27  1  0  0  0  0
 30 24  1  0  0  0  0
 30 29  1  0  0  0  0
M  END
>  <minimizedAffinity>
-5.0080905

$$$$

 OpenBabel03272503253D

 30 32  0  0  1  0  0  0  0  0999 V2000
   37.5870   25.1840   32.8520 N   0  0  0  0  0  0  0  0  0  0  0  0
   38.7460   25.4020   33.7030 C   0  0  1  0  0  0  0  0  0  0  0  0
   38.8940   26.9120   33.5810 C   0  0  0  0  0  0  0  0  0  0  0  0
   37.8550   27.3970   32.5890 C   0  0  0  0  0  0  0  0  0  0  0  0
   36.7810   26.3720   32.7800 C   0  0  0  0  0  0  0  0  0  0  0  0
   39.6270   24.8780   33.2810 H   0  0  0  0  0  0  0  0  0  0  0  0
   38.8650   27.4250   34.5460 H   0  0  0  0  0  0  0  0  0  0  0  0
   39.9000   27.1110   33.1120 H   0  0  0  0  0  0  0  0  0  0  0  0
   37.4500   28.3510   33.0260 H   0  0  0  0  0  0  0  0  0  0  0  0
   38.2130   27.4760   31.5680 H   0  0  0  0  0  0  0  0  0  0  0  0
   36.0940   26.5450   33.5930 H   0  0  0  0  0  0  0  0  0  0  0  0
   36.1710   26.3590   31.8370 H   0  0  0  0  0  0  0  0  0  0  0  0
   37.2990   23.9640   32.1790 C   0  0  0  0  0  0  0  0  0  0  0  0
   38.3820   23.1540   31.8030 C   0  0  0  0  0  0  0  0  0  0  0  0
   38.1470   21.9480   31.1410 C   0  0  0  0  0  0  0  0  0  0  0  0
   36.8320   21.6300   30.8980 N   0  0  0  0  0  0  0  0  0  0  0  0
   35.8090   22.4290   31.2710 C   0  0  0  0  0  0  0  0  0  0  0  0
   36.0420   23.6000   31.9150 N   0  0  0  0  0  0  0  0  0  0  0  0
   39.4220   23.3810   31.9830 H   0  0  0  0  0  0  0  0  0  0  0  0
   38.9560   21.3110   30.8430 H   0  0  0  0  0  0  0  0  0  0  0  0
   34.8120   22.0890   31.0330 H   0  0  0  0  0  0  0  0  0  0  0  0
   38.5290   24.9790   35.0930 C   0  0  0  0  0  0  0  0  0  0  0  0
   37.9390   25.7610   35.8170 O   0  0  0  0  0  0  0  0  0  0  0  0
   38.7190   23.9700   36.0740 N   0  0  0  0  0  0  0  0  0  0  0  0
   37.5860   23.6340   36.9060 C   0  0  0  0  0  2  0  0  0  0  0  0
   37.7930   24.0640   38.3430 C   0  0  0  0  0  2  0  0  0  0  0  0
   39.1960   23.6890   38.7680 C   0  0  0  0  0  3  0  0  0  0  0  0
   39.1010   23.1850   39.7440 H   0  0  0  0  0  0  0  0  0  0  0  0
   39.8060   22.6740   37.8260 C   0  0  0  0  0  2  0  0  0  0  0  0
   39.9150   23.1780   36.4020 C   0  0  0  0  0  2  0  0  0  0  0  0
  1  2  1  0  0  0  0
  2  6  1  6  0  0  0
  2 22  1  0  0  0  0
  3  2  1  0  0  0  0
  3  7  1  0  0  0  0
  4  5  1  0  0  0  0
  4  9  1  0  0  0  0
  4  3  1  0  0  0  0
  5  1  1  0  0  0  0
  5 11  1  0  0  0  0
  8  3  1  0  0  0  0
 10  4  1  0  0  0  0
 12  5  1  0  0  0  0
 13  1  1  0  0  0  0
 14 19  1  0  0  0  0
 14 13  2  0  0  0  0
 15 14  1  0  0  0  0
 16 15  2  0  0  0  0
 16 17  1  0  0  0  0
 17 18  2  0  0  0  0
 18 13  1  0  0  0  0
 20 15  1  0  0  0  0
 21 17  1  0  0  0  0
 22 23  2  0  0  0  0
 22 24  1  0  0  0  0
 24 30  1  0  0  0  0
 24 25  1  0  0  0  0
 25 26  1  0  0  0  0
 26 27  1  0  0  0  0
 27 28  1  0  0  0  0
 29 27  1  0  0  0  0
 30 29  1  0  0  0  0
M  END
>  <minimizedAffinity>
-4.95299244

$$$$

 OpenBabel03272503253D

 30 32  0  0  1  0  0  0  0  0999 V2000
   39.0910   24.6310   35.6570 N   0  0  0  0  0  0  0  0  0  0  0  0
   38.8220   23.2020   35.6320 C   0  0  1  0  0  0  0  0  0  0  0  0
   37.9820   23.0610   36.8930 C   0  0  0  0  0  0  0  0  0  0  0  0
   37.9350   24.4170   37.5690 C   0  0  0  0  0  0  0  0  0  0  0  0
   38.0670   25.3270   36.3860 C   0  0  0  0  0  0  0  0  0  0  0  0
   39.7730   22.6380   35.7180 H   0  0  0  0  0  0  0  0  0  0  0  0
   36.9990   22.6200   36.7080 H   0  0  0  0  0  0  0  0  0  0  0  0
   38.5430   22.3770   37.5920 H   0  0  0  0  0  0  0  0  0  0  0  0
   36.8770   24.5330   37.9290 H   0  0  0  0  0  0  0  0  0  0  0  0
   38.6960   24.5670   38.3270 H   0  0  0  0  0  0  0  0  0  0  0  0
   37.1570   25.5540   35.8540 H   0  0  0  0  0  0  0  0  0  0  0  0
   38.4710   26.3020   36.7690 H   0  0  0  0  0  0  0  0  0  0  0  0
   40.2180   25.2490   35.0470 C   0  0  0  0  0  0  0  0  0  0  0  0
   40.0490   26.5380   34.5180 C   0  0  0  0  0  0  0  0  0  0  0  0
   41.1270   27.1840   33.9100 C   0  0  0  0  0  0  0  0  0  0  0  0
   42.3140   26.4900   33.8730 N   0  0  0  0  0  0  0  0  0  0  0  0
   42.4480   25.2490   34.3900 C   0  0  0  0  0  0  0  0  0  0  0  0
   41.3970   24.6260   34.9800 N   0  0  0  0  0  0  0  0  0  0  0  0
   39.1300   27.1030   34.5350 H   0  0  0  0  0  0  0  0  0  0  0  0
   41.0250   28.1690   33.4990 H   0  0  0  0  0  0  0  0  0  0  0  0
   43.4220   24.7900   34.3100 H   0  0  0  0  0  0  0  0  0  0  0  0
   38.0910   22.7730   34.4320 C   0  0  0  0  0  0  0  0  0  0  0  0
   38.0720   23.5510   33.4960 O   0  0  0  0  0  0  0  0  0  0  0  0
   37.3150   21.7590   33.8090 N   0  0  0  0  0  0  0  0  0  0  0  0
   37.6440   21.4200   32.4440 C   0  0  0  0  0  2  0  0  0  0  0  0
   36.5570   21.8430   31.4780 C   0  0  0  0  0  2  0  0  0  0  0  0
   35.2120   21.4670   32.0610 C   0  0  0  0  0  3  0  0  0  0  0  0
   34.6560   20.9580   31.2560 H   0  0  0  0  0  0  0  0  0  0  0  0
   35.3570   20.4560   33.1780 C   0  0  0  0  0  2  0  0  0  0  0  0
   36.1920   20.9660   34.3340 C   0  0  0  0  0  2  0  0  0  0  0  0
  1  5  1  0  0  0  0
  2  1  1  0  0  0  0
  2  6  1  1  0  0  0
  2  3  1  0  0  0  0
  3  4  1  0  0  0  0
  3  8  1  0  0  0  0
  4  9  1  0  0  0  0
  4 10  1  0  0  0  0
  5 12  1  0  0  0  0
  5  4  1  0  0  0  0
  7  3  1  0  0  0  0
 11  5  1  0  0  0  0
 13  1  1  0  0  0  0
 14 19  1  0  0  0  0
 14 13  2  0  0  0  0
 15 14  1  0  0  0  0
 16 15  2  0  0  0  0
 16 17  1  0  0  0  0
 17 18  2  0  0  0  0
 18 13  1  0  0  0  0
 20 15  1  0  0  0  0
 21 17  1  0  0  0  0
 22  2  1  0  0  0  0
 23 22  2  0  0  0  0
 24 30  1  0  0  0  0
 24 22  1  0  0  0  0
 25 24  1  0  0  0  0
 26 27  1  0  0  0  0
 26 25  1  0  0  0  0
 27 29  1  0  0  0  0
 28 27  1  0  0  0  0
 29 30  1  0  0  0  0
M  END
>  <minimizedAffinity>
-4.87925911

$$$$

 OpenBabel03272503253D

 30 32  0  0  1  0  0  0  0  0999 V2000
   35.5510   28.9640   32.2240 N   0  0  0  0  0  0  0  0  0  0  0  0
   35.8370   27.6080   31.7850 C   0  0  1  0  0  0  0  0  0  0  0  0
   36.5760   27.8920   30.4850 C   0  0  0  0  0  0  0  0  0  0  0  0
   36.5540   29.3920   30.2620 C   0  0  0  0  0  0  0  0  0  0  0  0
   36.5060   29.8870   31.6750 C   0  0  0  0  0  0  0  0  0  0  0  0
   34.8890   27.0650   31.5960 H   0  0  0  0  0  0  0  0  0  0  0  0
   37.5750   27.4510   30.4540 H   0  0  0  0  0  0  0  0  0  0  0  0
   35.9690   27.4380   29.6500 H   0  0  0  0  0  0  0  0  0  0  0  0
   37.5800   29.6500   29.8810 H   0  0  0  0  0  0  0  0  0  0  0  0
   35.7340   29.7410   29.6440 H   0  0  0  0  0  0  0  0  0  0  0  0
   37.4520   29.9710   32.1840 H   0  0  0  0  0  0  0  0  0  0  0  0
   36.0620   30.9180   31.6430 H   0  0  0  0  0  0  0  0  0  0  0  0
   34.4690   29.3240   33.0740 C   0  0  0  0  0  0  0  0  0  0  0  0
   34.7700   30.0150   34.2580 C   0  0  0  0  0  0  0  0  0  0  0  0
   33.7410   30.3900   35.1230 C   0  0  0  0  0  0  0  0  0  0  0  0
   32.4650   30.0440   34.7420 N   0  0  0  0  0  0  0  0  0  0  0  0
   32.2040   29.3780   33.5960 C   0  0  0  0  0  0  0  0  0  0  0  0
   33.2080   29.0170   32.7580 N   0  0  0  0  0  0  0  0  0  0  0  0
   35.7610   30.2990   34.5790 H   0  0  0  0  0  0  0  0  0  0  0  0
   33.9440   30.9190   36.0330 H   0  0  0  0  0  0  0  0  0  0  0  0
   31.1680   29.1530   33.3880 H   0  0  0  0  0  0  0  0  0  0  0  0
   36.6650   26.8560   32.7370 C   0  0  0  0  0  0  0  0  0  0  0  0
   36.6370   25.6420   32.6470 O   0  0  0  0  0  0  0  0  0  0  0  0
   37.5730   26.9110   33.8290 N   0  0  0  0  0  0  0  0  0  0  0  0
   38.7370   26.0580   33.7640 C   0  0  0  0  0  2  0  0  0  0  0  0
   38.6850   24.9500   34.7940 C   0  0  0  0  0  2  0  0  0  0  0  0
   38.2310   25.5320   36.1150 C   0  0  0  0  0  3  0  0  0  0  0  0
   38.9320   25.1550   36.8780 H   0  0  0  0  0  0  0  0  0  0  0  0
   38.3620   27.0390   36.1290 C   0  0  0  0  0  2  0  0  0  0  0  0
   37.5300   27.7160   35.0600 C   0  0  0  0  0  2  0  0  0  0  0  0
  1 13  1  0  0  0  0
  2  6  1  6  0  0  0
  2  1  1  0  0  0  0
  2 22  1  0  0  0  0
  3  2  1  0  0  0  0
  4  3  1  0  0  0  0
  4  5  1  0  0  0  0
  5 11  1  0  0  0  0
  5  1  1  0  0  0  0
  7  3  1  0  0  0  0
  8  3  1  0  0  0  0
  9  4  1  0  0  0  0
 10  4  1  0  0  0  0
 12  5  1  0  0  0  0
 13 14  1  0  0  0  0
 14 19  1  0  0  0  0
 14 15  2  0  0  0  0
 15 20  1  0  0  0  0
 16 15  1  0  0  0  0
 17 16  2  0  0  0  0
 18 13  2  0  0  0  0
 18 17  1  0  0  0  0
 21 17  1  0  0  0  0
 22 24  1  0  0  0  0
 23 22  2  0  0  0  0
 24 30  1  0  0  0  0
 25 24  1  0  0  0  0
 25 26  1  0  0  0  0
 26 27  1  0  0  0  0
 27 29  1  0  0  0  0
 27 28  1  0  0  0  0
 30 29  1  0  0  0  0
M  END
>  <minimizedAffinity>
-4.7998147

$$$$

 OpenBabel03272503253D

 30 32  0  0  1  0  0  0  0  0999 V2000
   38.5080   25.7280   35.4140 N   0  0  0  0  0  0  0  0  0  0  0  0
   37.3680   25.6660   34.5140 C   0  0  1  0  0  0  0  0  0  0  0  0
   36.9710   27.1340   34.4750 C   0  0  0  0  0  0  0  0  0  0  0  0
   37.8740   27.8810   35.4380 C   0  0  0  0  0  0  0  0  0  0  0  0
   39.1080   27.0340   35.3830 C   0  0  0  0  0  0  0  0  0  0  0  0
   36.5650   25.0460   34.9650 H   0  0  0  0  0  0  0  0  0  0  0  0
   36.9580   27.5490   33.4630 H   0  0  0  0  0  0  0  0  0  0  0  0
   35.9270   27.2100   34.8940 H   0  0  0  0  0  0  0  0  0  0  0  0
   38.1370   28.8410   34.9160 H   0  0  0  0  0  0  0  0  0  0  0  0
   37.4640   27.9990   36.4360 H   0  0  0  0  0  0  0  0  0  0  0  0
   39.7920   27.2380   34.5750 H   0  0  0  0  0  0  0  0  0  0  0  0
   39.6700   27.2150   36.3380 H   0  0  0  0  0  0  0  0  0  0  0  0
   38.9610   24.6450   36.2170 C   0  0  0  0  0  0  0  0  0  0  0  0
   38.2630   24.3750   37.4050 C   0  0  0  0  0  0  0  0  0  0  0  0
   38.6720   23.3220   38.2250 C   0  0  0  0  0  0  0  0  0  0  0  0
   39.7610   22.6000   37.7960 N   0  0  0  0  0  0  0  0  0  0  0  0
   40.4140   22.8820   36.6480 C   0  0  0  0  0  0  0  0  0  0  0  0
   40.0130   23.9070   35.8540 N   0  0  0  0  0  0  0  0  0  0  0  0
   37.4060   24.9250   37.7620 H   0  0  0  0  0  0  0  0  0  0  0  0
   38.1560   23.0950   39.1370 H   0  0  0  0  0  0  0  0  0  0  0  0
   41.2590   22.2560   36.4000 H   0  0  0  0  0  0  0  0  0  0  0  0
   37.7100   25.1510   33.1820 C   0  0  0  0  0  0  0  0  0  0  0  0
   37.8180   23.9430   33.0730 O   0  0  0  0  0  0  0  0  0  0  0  0
   38.0070   25.4570   31.8270 N   0  0  0  0  0  0  0  0  0  0  0  0
   37.3630   24.6560   30.8120 C   0  0  0  0  0  2  0  0  0  0  0  0
   38.3480   23.7710   30.0790 C   0  0  0  0  0  2  0  0  0  0  0  0
   39.5820   24.5840   29.7480 C   0  0  0  0  0  3  0  0  0  0  0  0
   39.8030   24.3940   28.6850 H   0  0  0  0  0  0  0  0  0  0  0  0
   39.3130   26.0690   29.8650 C   0  0  0  0  0  2  0  0  0  0  0  0
   38.8910   26.4860   31.2580 C   0  0  0  0  0  2  0  0  0  0  0  0
  1 13  1  0  0  0  0
  2  6  1  1  0  0  0
  2  1  1  0  0  0  0
  3  2  1  0  0  0  0
  3  8  1  0  0  0  0
  3  4  1  0  0  0  0
  4 10  1  0  0  0  0
  5  1  1  0  0  0  0
  5  4  1  0  0  0  0
  5 12  1  0  0  0  0
  7  3  1  0  0  0  0
  9  4  1  0  0  0  0
 11  5  1  0  0  0  0
 13 14  1  0  0  0  0
 14 19  1  0  0  0  0
 14 15  2  0  0  0  0
 15 20  1  0  0  0  0
 16 15  1  0  0  0  0
 17 16  2  0  0  0  0
 18 13  2  0  0  0  0
 18 17  1  0  0  0  0
 21 17  1  0  0  0  0
 22  2  1  0  0  0  0
 23 22  2  0  0  0  0
 24 22  1  0  0  0  0
 25 24  1  0  0  0  0
 26 25  1  0  0  0  0
 27 29  1  0  0  0  0
 27 26  1  0  0  0  0
 28 27  1  0  0  0  0
 29 30  1  0  0  0  0
 30 24  1  0  0  0  0
M  END
>  <minimizedAffinity>
-4.78248024

$$$$

 OpenBabel03272503253D

 30 32  0  0  1  0  0  0  0  0999 V2000
   37.2230   27.3090   33.4700 N   0  0  0  0  0  0  0  0  0  0  0  0
   38.1090   26.2260   33.0740 C   0  0  1  0  0  0  0  0  0  0  0  0
   38.8670   26.0050   34.3750 C   0  0  0  0  0  0  0  0  0  0  0  0
   38.4010   27.0550   35.3640 C   0  0  0  0  0  0  0  0  0  0  0  0
   37.0000   27.2880   34.8900 C   0  0  0  0  0  0  0  0  0  0  0  0
   38.7880   26.5700   32.2680 H   0  0  0  0  0  0  0  0  0  0  0  0
   38.7930   24.9790   34.7460 H   0  0  0  0  0  0  0  0  0  0  0  0
   39.9540   26.2220   34.1680 H   0  0  0  0  0  0  0  0  0  0  0  0
   38.3070   26.5180   36.3460 H   0  0  0  0  0  0  0  0  0  0  0  0
   39.0130   27.9510   35.3880 H   0  0  0  0  0  0  0  0  0  0  0  0
   36.2520   26.6030   35.2560 H   0  0  0  0  0  0  0  0  0  0  0  0
   36.7030   28.3130   35.2420 H   0  0  0  0  0  0  0  0  0  0  0  0
   36.6630   28.2610   32.5730 C   0  0  0  0  0  0  0  0  0  0  0  0
   35.5140   28.9520   32.9880 C   0  0  0  0  0  0  0  0  0  0  0  0
   34.9290   29.8950   32.1410 C   0  0  0  0  0  0  0  0  0  0  0  0
   35.5400   30.0860   30.9230 N   0  0  0  0  0  0  0  0  0  0  0  0
   36.6460   29.4050   30.5500 C   0  0  0  0  0  0  0  0  0  0  0  0
   37.2110   28.4900   31.3770 N   0  0  0  0  0  0  0  0  0  0  0  0
   35.0170   28.8210   33.9370 H   0  0  0  0  0  0  0  0  0  0  0  0
   34.0520   30.4370   32.4340 H   0  0  0  0  0  0  0  0  0  0  0  0
   37.0490   29.6280   29.5730 H   0  0  0  0  0  0  0  0  0  0  0  0
   37.3890   25.0210   32.6430 C   0  0  0  0  0  0  0  0  0  0  0  0
   36.3200   25.1910   32.0860 O   0  0  0  0  0  0  0  0  0  0  0  0
   37.3740   23.6010   32.5790 N   0  0  0  0  0  0  0  0  0  0  0  0
   36.9890   23.0000   31.3230 C   0  0  0  0  0  2  0  0  0  0  0  0
   35.6530   22.2940   31.4190 C   0  0  0  0  0  2  0  0  0  0  0  0
   35.6180   21.4880   32.7000 C   0  0  0  0  0  3  0  0  0  0  0  0
   35.2560   20.4840   32.4250 H   0  0  0  0  0  0  0  0  0  0  0  0
   37.0070   21.2950   33.2700 C   0  0  0  0  0  2  0  0  0  0  0  0
   37.6940   22.6010   33.6100 C   0  0  0  0  0  2  0  0  0  0  0  0
  1  5  1  0  0  0  0
  2  6  1  6  0  0  0
  2  1  1  0  0  0  0
  2  3  1  0  0  0  0
  3  7  1  0  0  0  0
  3  4  1  0  0  0  0
  4 10  1  0  0  0  0
  4  9  1  0  0  0  0
  5 12  1  0  0  0  0
  5 11  1  0  0  0  0
  5  4  1  0  0  0  0
  8  3  1  0  0  0  0
 13 14  1  0  0  0  0
 13  1  1  0  0  0  0
 14 19  1  0  0  0  0
 15 20  1  0  0  0  0
 15 14  2  0  0  0  0
 16 15  1  0  0  0  0
 17 16  2  0  0  0  0
 17 18  1  0  0  0  0
 18 13  2  0  0  0  0
 21 17  1  0  0  0  0
 22  2  1  0  0  0  0
 23 22  2  0  0  0  0
 24 22  1  0  0  0  0
 24 30  1  0  0  0  0
 25 26  1  0  0  0  0
 25 24  1  0  0  0  0
 26 27  1  0  0  0  0
 27 29  1  0  0  0  0
 28 27  1  0  0  0  0
 29 30  1  0  0  0  0
M  END
>  <minimizedAffinity>
-4.76746988

$$$$
