
 OpenBabel03272503243D

 30 32  0  0  1  0  0  0  0  0999 V2000
   36.4690   30.0350   49.2000 N   0  0  0  0  0  0  0  0  0  0  0  0
   36.8430   31.4380   49.1300 C   0  0  1  0  0  0  0  0  0  0  0  0
   37.6010   31.5840   50.4410 C   0  0  0  0  0  0  0  0  0  0  0  0
   37.5030   30.2640   51.1790 C   0  0  0  0  0  0  0  0  0  0  0  0
   37.3870   29.3070   50.0330 C   0  0  0  0  0  0  0  0  0  0  0  0
   35.9320   32.0710   49.1210 H   0  0  0  0  0  0  0  0  0  0  0  0
   38.6240   31.9460   50.3080 H   0  0  0  0  0  0  0  0  0  0  0  0
   37.0450   32.3400   51.0660 H   0  0  0  0  0  0  0  0  0  0  0  0
   38.5220   30.0920   51.6200 H   0  0  0  0  0  0  0  0  0  0  0  0
   36.6820   30.2050   51.8870 H   0  0  0  0  0  0  0  0  0  0  0  0
   38.3120   28.9910   49.5790 H   0  0  0  0  0  0  0  0  0  0  0  0
   36.8870   28.3820   50.4290 H   0  0  0  0  0  0  0  0  0  0  0  0
   35.3450   29.4670   48.5390 C   0  0  0  0  0  0  0  0  0  0  0  0
   34.6670   30.2610   47.6010 C   0  0  0  0  0  0  0  0  0  0  0  0
   33.5590   29.7450   46.9280 C   0  0  0  0  0  0  0  0  0  0  0  0
   33.2000   28.4550   47.2400 N   0  0  0  0  0  0  0  0  0  0  0  0
   33.8700   27.7120   48.1480 C   0  0  0  0  0  0  0  0  0  0  0  0
   34.9470   28.2190   48.8000 N   0  0  0  0  0  0  0  0  0  0  0  0
   34.9300   31.2740   47.3380 H   0  0  0  0  0  0  0  0  0  0  0  0
   33.0240   30.3310   46.2060 H   0  0  0  0  0  0  0  0  0  0  0  0
   33.5080   26.7100   48.3220 H   0  0  0  0  0  0  0  0  0  0  0  0
   37.6830   31.7550   47.9680 C   0  0  0  0  0  0  0  0  0  0  0  0
   38.3470   32.7730   48.0330 O   0  0  0  0  0  0  0  0  0  0  0  0
   38.1130   31.3720   46.6690 N   0  0  0  0  0  0  0  0  0  0  0  0
   39.5260   31.1360   46.4810 C   0  0  0  0  0  2  0  0  0  0  0  0
   40.1630   32.1890   45.6000 C   0  0  0  0  0  2  0  0  0  0  0  0
   39.2610   32.4400   44.4110 C   0  0  0  0  0  3  0  0  0  0  0  0
   39.9100   32.4100   43.5180 H   0  0  0  0  0  0  0  0  0  0  0  0
   38.2510   31.3280   44.2380 C   0  0  0  0  0  2  0  0  0  0  0  0
   37.3370   31.1670   45.4350 C   0  0  0  0  0  2  0  0  0  0  0  0
  1  5  1  0  0  0  0
  2  6  1  1  0  0  0
  2  1  1  0  0  0  0
  2  3  1  0  0  0  0
  3  8  1  0  0  0  0
  3  4  1  0  0  0  0
  4  9  1  0  0  0  0
  4 10  1  0  0  0  0
  5 12  1  0  0  0  0
  5  4  1  0  0  0  0
  7  3  1  0  0  0  0
 11  5  1  0  0  0  0
 13 18  1  0  0  0  0
 13  1  1  0  0  0  0
 14 13  2  0  0  0  0
 15 16  2  0  0  0  0
 15 14  1  0  0  0  0
 16 17  1  0  0  0  0
 17 21  1  0  0  0  0
 17 18  2  0  0  0  0
 19 14  1  0  0  0  0
 20 15  1  0  0  0  0
 22 23  2  0  0  0  0
 22  2  1  0  0  0  0
 24 22  1  0  0  0  0
 25 24  1  0  0  0  0
 26 25  1  0  0  0  0
 27 26  1  0  0  0  0
 28 27  1  0  0  0  0
 29 27  1  0  0  0  0
 29 30  1  0  0  0  0
 30 24  1  0  0  0  0
M  END
>  <minimizedAffinity>
-5.56252766

>  <minimizedRMSD>
1.31364369

$$$$
