
 OpenBabel03272508153D

 28 30  0  0  0  0  0  0  0  0999 V2000
   36.9670   30.0860   48.0210 Cl  0  0  0  0  0  0  0  0  0  0  0  0
   36.3870   30.3750   46.4150 C   0  0  0  0  0  0  0  0  0  0  0  0
   35.1900   29.7830   46.1460 C   0  0  0  0  0  0  0  0  0  0  0  0
   34.6170   29.9800   44.8660 C   0  0  0  0  0  0  0  0  0  0  0  0
   35.2390   30.7450   43.9100 C   0  0  0  0  0  0  0  0  0  0  0  0
   36.4510   31.3240   44.2280 C   0  0  0  0  0  0  0  0  0  0  0  0
   37.2540   32.3200   43.0360 Cl  0  0  0  0  0  0  0  0  0  0  0  0
   37.0130   31.1330   45.4720 C   0  0  0  0  0  0  0  0  0  0  0  0
   33.6770   29.5570   44.5580 H   0  0  0  0  0  0  0  0  0  0  0  0
   34.8150   30.9060   42.9280 H   0  0  0  0  0  0  0  0  0  0  0  0
   33.8390   27.7350   46.3940 C   0  0  0  0  0  0  0  0  0  0  0  0
   34.3530   28.9270   46.9850 C   0  0  0  0  0  0  0  0  0  0  0  0
   34.0230   29.1840   48.2990 C   0  0  0  0  0  0  0  0  0  0  0  0
   33.2280   28.2890   48.9520 N   0  0  0  0  0  0  0  0  0  0  0  0
   32.7600   27.1770   48.3690 C   0  0  0  0  0  0  0  0  0  0  0  0
   33.0640   26.8940   47.0810 N   0  0  0  0  0  0  0  0  0  0  0  0
   34.0730   27.4850   45.3530 H   0  0  0  0  0  0  0  0  0  0  0  0
   34.4160   30.0890   48.7430 H   0  0  0  0  0  0  0  0  0  0  0  0
   32.1600   26.6180   49.0580 H   0  0  0  0  0  0  0  0  0  0  0  0
   38.3150   31.7070   45.8030 C   0  0  0  0  0  0  0  0  0  0  0  0
   39.3990   31.5320   45.1410 O   0  0  0  0  0  0  0  0  0  0  0  0
   38.4840   32.5590   46.9760 N   0  0  0  0  0  0  0  0  0  0  0  0
   37.6590   33.4940   47.7560 C   0  0  0  0  0  2  0  0  0  0  0  0
   37.8120   33.2270   49.2370 C   0  0  0  0  0  2  0  0  0  0  0  0
   39.1670   33.6650   49.7430 C   0  0  0  0  0  3  0  0  0  0  0  0
   39.0520   34.6530   50.2080 H   0  0  0  0  0  0  0  0  0  0  0  0
   40.0500   33.7560   48.4900 C   0  0  0  0  0  2  0  0  0  0  0  0
   39.7630   32.5600   47.6570 C   0  0  0  0  0  2  0  0  0  0  0  0
  2  1  1  0  0  0  0
  3  2  1  0  0  0  0
  3 12  1  0  0  0  0
  4  3  2  0  0  0  0
  5  6  2  0  0  0  0
  5  4  1  0  0  0  0
  6  8  1  0  0  0  0
  7  6  1  0  0  0  0
  8 20  1  0  0  0  0
  8  2  2  0  0  0  0
  9  4  1  0  0  0  0
 10  5  1  0  0  0  0
 11 12  2  0  0  0  0
 11 16  1  0  0  0  0
 12 13  1  0  0  0  0
 13 18  1  0  0  0  0
 13 14  2  0  0  0  0
 15 14  1  0  0  0  0
 15 19  1  0  0  0  0
 16 15  2  0  0  0  0
 17 11  1  0  0  0  0
 20 22  1  0  0  0  0
 21 20  2  0  0  0  0
 22 28  1  0  0  0  0
 22 23  1  0  0  0  0
 23 24  1  0  0  0  0
 24 25  1  0  0  0  0
 25 26  1  0  0  0  0
 27 25  1  0  0  0  0
 28 27  1  0  0  0  0
M  END
>  <minimizedAffinity>
-1.8596468

>  <minimizedRMSD>
3.41473937

$$$$
