REMARK  Name = 
REMARK  4 active torsions:
REMARK  status: ('A' for Active; 'I' for Inactive)
REMARK    1  A    between atoms: C_1  and  C_8
REMARK    2  A    between atoms: C_6  and  N_15
REMARK    3  A    between atoms: C_13  and  O_16
REMARK    4  A    between atoms: O_16  and  C_17
REMARK                            x       y       z     vdW  Elec       q    Type
REMARK                         _______ _______ _______ _____ _____    ______ ____
ROOT
ATOM      1  C   UNL     1      38.110  31.887  47.416  0.00  0.00    +0.000 A 
ATOM      2  C   UNL     1      38.577  32.805  48.315  0.00  0.00    +0.000 A 
ATOM      3  C   UNL     1      38.076  32.870  49.613  0.00  0.00    +0.000 A 
ATOM      4  C   UNL     1      37.040  31.934  49.985  0.00  0.00    +0.000 A 
ATOM      5  C   UNL     1      36.617  31.044  49.042  0.00  0.00    +0.000 A 
ATOM      6  C   UNL     1      37.102  30.987  47.794  0.00  0.00    +0.000 A 
ATOM      7  H   UNL     1      39.364  33.527  48.060  0.00  0.00    +0.000 HD
ATOM      8  H   UNL     1      38.486  33.625  50.290  0.00  0.00    +0.000 HD
ATOM      9  H   UNL     1      36.765  32.108  50.995  0.00  0.00    +0.000 HD
ATOM     10  H   UNL     1      35.879  30.443  49.547  0.00  0.00    +0.000 HD
ENDROOT
BRANCH   1  12
ATOM     11  C   UNL     1      40.004  31.251  45.996  0.00  0.00    +0.000 A 
ATOM     12  C   UNL     1      38.745  31.916  46.114  0.00  0.00    +0.000 A 
ATOM     13  C   UNL     1      38.282  32.505  44.965  0.00  0.00    +0.000 A 
ATOM     14  N   UNL     1      38.989  32.441  43.825  0.00  0.00    +0.000 NA
ATOM     15  C   UNL     1      40.156  31.821  43.726  0.00  0.00    +0.000 A 
ATOM     16  N   UNL     1      40.657  31.228  44.818  0.00  0.00    +0.000 NA
ATOM     17  H   UNL     1      40.478  30.748  46.830  0.00  0.00    +0.000 HD
ATOM     18  H   UNL     1      37.331  33.006  45.058  0.00  0.00    +0.000 HD
ATOM     19  H   UNL     1      40.757  31.746  42.827  0.00  0.00    +0.000 HD
ENDBRANCH   1  12
BRANCH   6  22
ATOM     20  C   UNL     1      35.127  30.001  46.962  0.00  0.00    +0.000 C 
ATOM     21  O   UNL     1      34.529  30.639  47.885  0.00  0.00    +0.000 OA
ATOM     22  N   UNL     1      36.608  30.089  46.880  0.00  0.00    +0.000 N 
ATOM     23  H   UNL     1      37.104  29.515  46.199  0.00  0.00    +0.000 HD
BRANCH  20  24
ATOM     24  O   UNL     1      34.475  29.197  45.977  0.00  0.00    +0.000 OA
BRANCH  24  25
ATOM     25  C   UNL     1      33.290  29.657  45.436  0.00  0.00    +0.000 C 
ATOM     26  O   UNL     1      33.424  30.601  44.618  0.00  0.00    +0.000 OA
ATOM     27  N   UNL     1      31.891  29.330  45.578  0.00  0.00    +0.000 N 
ATOM     28  C   UNL     1      30.858  29.772  44.669  0.00  0.00    +0.000 C 
ATOM     29  C   UNL     1      29.697  30.411  45.361  0.00  0.00    +0.000 C 
ATOM     30  C   UNL     1      29.880  30.550  46.845  0.00  0.00    +0.000 C 
ATOM     31  H   UNL     1      28.910  30.787  47.329  0.00  0.00    +0.000 HD
ATOM     32  C   UNL     1      30.431  29.341  47.529  0.00  0.00    +0.000 C 
ATOM     33  C   UNL     1      31.310  28.535  46.619  0.00  0.00    +0.000 C 
ENDBRANCH  24  25
ENDBRANCH  20  24
ENDBRANCH   6  22
TORSDOF 4
