
     RDKit          3D

 36 38  0  0  0  0  0  0  0  0999 V2000
   37.1197   30.2725   50.3182 C   0  0  0  0  0  0  0  0  0  0  0  0
   37.5116   30.1276   51.4986 O   0  0  0  0  0  0  0  0  0  0  0  0
   37.7934   31.0912   49.3381 C   0  0  0  0  0  0  0  0  0  0  0  0
   38.1025   32.3950   49.7069 C   0  0  0  0  0  0  0  0  0  0  0  0
   38.7520   33.2029   48.7784 C   0  0  0  0  0  0  0  0  0  0  0  0
   39.0509   32.6678   47.5516 N   0  0  0  0  0  0  0  0  0  0  0  0
   38.7390   31.3979   47.2198 C   0  0  0  0  0  0  0  0  0  0  0  0
   38.1146   30.6189   48.1103 N   0  0  0  0  0  0  0  0  0  0  0  0
   35.9203   29.5806   49.9053 C   0  0  0  0  0  0  0  0  0  0  0  0
   34.6919   29.8899   50.3854 C   0  0  0  0  0  0  0  0  0  0  0  0
   33.7677   29.0337   49.7809 C   0  0  0  0  0  0  0  0  0  0  0  0
   34.5257   28.2259   48.9376 C   0  0  0  0  0  0  0  0  0  0  0  0
   35.7529   28.6059   49.0689 O   0  0  0  0  0  0  0  0  0  0  0  0
   33.9761   27.1625   48.0869 C   0  0  0  0  0  0  0  0  0  0  0  0
   32.7368   26.9196   48.1091 O   0  0  0  0  0  0  0  0  0  0  0  0
   37.8630   32.8015   50.6704 H   0  0  0  0  0  0  0  0  0  0  0  0
   39.0084   34.2244   49.0314 H   0  0  0  0  0  0  0  0  0  0  0  0
   39.0257   31.0986   46.2316 H   0  0  0  0  0  0  0  0  0  0  0  0
   34.4219   30.6658   51.1187 H   0  0  0  0  0  0  0  0  0  0  0  0
   32.6988   28.9736   49.9066 H   0  0  0  0  0  0  0  0  0  0  0  0
   34.8396   26.4136   47.2449 N   0  0  0  0  0  0  0  0  0  0  0  0
   35.9763   25.5797   47.5717 C   0  0  0  0  0  0  0  0  0  0  0  0
   36.2871   24.5526   46.5497 C   0  0  0  0  0  0  0  0  0  0  0  0
   35.1350   24.0566   45.7552 C   0  0  0  0  0  0  0  0  0  0  0  0
   35.5508   23.7944   44.7374 H   0  0  0  0  0  0  0  0  0  0  0  0
   34.0399   25.0594   45.5099 C   0  0  0  0  0  0  0  0  0  0  0  0
   34.6240   26.4256   45.8099 C   0  0  0  0  0  0  0  0  0  0  0  0
   36.8498   26.2531   47.6937 H   0  0  0  0  0  0  0  0  0  0  0  0
   35.8190   25.0823   48.5522 H   0  0  0  0  0  0  0  0  0  0  0  0
   37.1297   24.9253   45.8950 H   0  0  0  0  0  0  0  0  0  0  0  0
   36.7330   23.6696   47.0568 H   0  0  0  0  0  0  0  0  0  0  0  0
   34.7239   23.0754   46.1141 H   0  0  0  0  0  0  0  0  0  0  0  0
   33.2408   24.8185   46.2581 H   0  0  0  0  0  0  0  0  0  0  0  0
   33.6502   24.9799   44.4815 H   0  0  0  0  0  0  0  0  0  0  0  0
   33.9217   27.2278   45.5040 H   0  0  0  0  0  0  0  0  0  0  0  0
   35.5811   26.5268   45.2356 H   0  0  0  0  0  0  0  0  0  0  0  0
  1  2  2  0
  3  4  2  0
  3  1  1  0
  5  4  1  0
  6  5  2  0
  7  6  1  0
  7  8  2  0
  8  3  1  0
  9  1  1  0
  9 10  2  0
 11 10  1  0
 12 13  1  0
 12 11  2  0
 13  9  1  0
 14 15  2  0
 14 12  1  0
  4 16  1  0
  5 17  1  0
  7 18  1  0
 10 19  1  0
 11 20  1  0
 21 22  1  0
 22 23  1  0
 23 24  1  0
 24 25  1  0
 24 26  1  0
 26 27  1  0
 27 21  1  0
 22 28  1  0
 22 29  1  0
 23 30  1  0
 23 31  1  0
 24 32  1  0
 26 33  1  0
 26 34  1  0
 27 35  1  0
 27 36  1  0
 14 21  1  0
M  ISO  6  16  14  17  14  18  14  19  14  20  14  25  15
M  END
>  <DihAtoms>  (1) 
14,13,20,21

>  <DihDeg>  (1) 
-179.96343579081815

$$$$
