
     RDKit          3D

 46 48  0  0  0  0  0  0  0  0999 V2000
   36.6786   29.9140   49.0411 C   0  0  0  0  0  0  0  0  0  0  0  0
   37.6989   30.5887   48.3396 C   0  0  0  0  0  0  0  0  0  0  0  0
   37.4707   30.8950   46.9911 C   0  0  0  0  0  0  0  0  0  0  0  0
   36.3054   30.5316   46.4525 N   0  0  0  0  0  0  0  0  0  0  0  0
   35.3520   29.8883   47.1507 C   0  0  0  0  0  0  0  0  0  0  0  0
   35.5432   29.5849   48.4337 N   0  0  0  0  0  0  0  0  0  0  0  0
   38.4535   31.5646   46.2444 N   0  0  0  0  0  0  0  0  0  0  0  0
   39.4499   32.4995   46.7819 C   0  0  0  0  0  0  0  0  0  0  0  0
   40.1344   33.1307   45.6171 C   0  0  0  0  0  0  0  0  0  0  0  0
   39.1849   32.8785   44.5055 C   0  0  0  0  0  0  0  0  0  0  0  0
   38.7039   31.4920   44.8346 C   0  0  2  0  0  0  0  0  0  0  0  0
   37.5896   31.0334   43.9528 C   0  0  0  0  0  0  0  0  0  0  0  0
   36.4639   31.7466   44.3396 F   0  0  0  0  0  0  0  0  0  0  0  0
   37.2786   29.7091   44.0268 F   0  0  0  0  0  0  0  0  0  0  0  0
   37.9028   31.4656   42.6716 F   0  0  0  0  0  0  0  0  0  0  0  0
   39.8418   30.5446   44.6758 C   0  0  0  0  0  0  0  0  0  0  0  0
   40.3424   30.7736   43.5598 O   0  0  0  0  0  0  0  0  0  0  0  0
   40.8990   30.0622   42.5501 C   0  0  0  0  0  0  0  0  0  0  0  0
   40.6456   30.6429   41.4665 O   0  0  0  0  0  0  0  0  0  0  0  0
   36.8368   29.6738   50.0675 H   0  0  0  0  0  0  0  0  0  0  0  0
   38.6318   30.8640   48.8225 H   0  0  0  0  0  0  0  0  0  0  0  0
   34.4483   29.6460   46.6025 H   0  0  0  0  0  0  0  0  0  0  0  0
   38.8801   33.1985   47.4054 H   0  0  0  0  0  0  0  0  0  0  0  0
   40.1326   31.9356   47.4427 H   0  0  0  0  0  0  0  0  0  0  0  0
   41.1765   32.8327   45.4509 H   0  0  0  0  0  0  0  0  0  0  0  0
   40.1935   34.2346   45.8535 H   0  0  0  0  0  0  0  0  0  0  0  0
   38.3388   33.5612   44.5478 H   0  0  0  0  0  0  0  0  0  0  0  0
   39.6591   32.9224   43.5025 H   0  0  0  0  0  0  0  0  0  0  0  0
   39.4709   29.5753   45.0708 H   0  0  0  0  0  0  0  0  0  0  0  0
   40.6205   30.8738   45.4306 H   0  0  0  0  0  0  0  0  0  0  0  0
   41.6469   28.9590   42.0958 N   0  0  0  0  0  0  0  0  0  0  0  0
   40.9796   28.0634   41.1744 C   0  0  0  0  0  0  0  0  0  0  0  0
   41.9209   27.5523   40.1095 C   0  0  0  0  0  0  0  0  0  0  0  0
   42.9548   28.6216   39.8546 C   0  0  0  0  0  0  0  0  0  0  0  0
   43.5990   28.3084   39.0063 H   0  0  0  0  0  0  0  0  0  0  0  0
   43.8427   28.6538   41.0840 C   0  0  0  0  0  0  0  0  0  0  0  0
   43.0049   28.4393   42.3167 C   0  0  0  0  0  0  0  0  0  0  0  0
   40.1008   28.4827   40.6881 H   0  0  0  0  0  0  0  0  0  0  0  0
   40.6914   27.1626   41.7929 H   0  0  0  0  0  0  0  0  0  0  0  0
   42.4575   26.6570   40.4883 H   0  0  0  0  0  0  0  0  0  0  0  0
   41.3426   27.3422   39.2102 H   0  0  0  0  0  0  0  0  0  0  0  0
   42.5218   29.6012   39.6355 H   0  0  0  0  0  0  0  0  0  0  0  0
   44.6077   27.8832   41.0010 H   0  0  0  0  0  0  0  0  0  0  0  0
   44.2497   29.6850   41.1314 H   0  0  0  0  0  0  0  0  0  0  0  0
   43.4289   29.0592   43.1332 H   0  0  0  0  0  0  0  0  0  0  0  0
   42.9918   27.3875   42.5945 H   0  0  0  0  0  0  0  0  0  0  0  0
  2  1  2  0
  3  2  1  0
  4  3  2  0
  4  5  1  0
  5  6  2  0
  6  1  1  0
  7  8  1  0
  7  3  1  0
  9  8  1  0
 10 11  1  0
 10  9  1  0
 11 12  1  6
 11  7  1  0
 12 14  1  0
 12 13  1  0
 15 12  1  0
 16 11  1  0
 17 16  1  0
 18 17  1  0
 19 18  2  0
  1 20  1  0
  2 21  1  0
  5 22  1  0
  8 23  1  0
  8 24  1  0
  9 25  1  0
  9 26  1  0
 10 27  1  0
 10 28  1  0
 16 29  1  0
 16 30  1  0
 31 32  1  0
 32 33  1  0
 33 34  1  0
 34 35  1  0
 34 36  1  0
 36 37  1  0
 37 31  1  0
 32 38  1  0
 32 39  1  0
 33 40  1  0
 33 41  1  0
 34 42  1  0
 36 43  1  0
 36 44  1  0
 37 45  1  0
 37 46  1  0
 18 31  1  0
M  ISO  8  20  14  21  14  22  14  23  13  24  13  25  13  26  13  27  13
M  ISO  4  28  13  29   8  30   8  35  15
M  END
>  <DihAtoms>  (1) 
16,17,30,31

>  <DihDeg>  (1) 
-179.73790894230572

$$$$
