REMARK  Name = 
REMARK  1 active torsions:
REMARK  status: ('A' for Active; 'I' for Inactive)
REMARK    1  A    between atoms: C_5  and  C_7
REMARK                            x       y       z     vdW  Elec       q    Type
REMARK                         _______ _______ _______ _____ _____    ______ ____
ROOT
ATOM      1  C   UNL     1      37.267  30.181  51.418  0.00  0.00    +0.000 A 
ATOM      2  C   UNL     1      38.097  30.759  50.447  0.00  0.00    +0.000 A 
ATOM      3  C   UNL     1      37.808  30.499  49.110  0.00  0.00    +0.000 A 
ATOM      4  N   UNL     1      36.739  29.701  48.825  0.00  0.00    +0.000 NA
ATOM      5  C   UNL     1      35.965  29.165  49.792  0.00  0.00    +0.000 A 
ATOM      6  N   UNL     1      36.221  29.399  51.077  0.00  0.00    +0.000 NA
ATOM      7  H   UNL     1      37.500  30.390  52.472  0.00  0.00    +0.000 HD
ATOM      8  H   UNL     1      38.917  31.375  50.788  0.00  0.00    +0.000 HD
ATOM      9  H   UNL     1      38.438  30.936  48.353  0.00  0.00    +0.000 HD
ENDROOT
BRANCH   5  10
ATOM     10  C   UNL     1      34.827  28.316  49.498  0.00  0.00    +0.000 C 
ATOM     11  O   UNL     1      33.627  28.714  49.551  0.00  0.00    +0.000 OA
ATOM     12  N   UNL     1      34.860  26.946  49.115  0.00  0.00    +0.000 N 
ATOM     13  C   UNL     1      34.813  25.989  50.205  0.00  0.00    +0.000 C 
ATOM     14  C   UNL     1      36.129  25.214  50.072  0.00  0.00    +0.000 C 
ATOM     15  C   UNL     1      35.940  24.364  48.838  0.00  0.00    +0.000 C 
ATOM     16  H   UNL     1      36.846  23.733  48.724  0.00  0.00    +0.000 HD
ATOM     17  C   UNL     1      35.820  25.223  47.609  0.00  0.00    +0.000 C 
ATOM     18  C   UNL     1      34.934  26.418  47.781  0.00  0.00    +0.000 C 
ENDBRANCH   5  10
TORSDOF 1
