
 OpenBabel03272507273D

 37 39  0  0  1  0  0  0  0  0999 V2000
   36.7400   29.8130   49.5660 C   0  0  0  0  0  0  0  0  0  0  0  0
   37.7140   30.5370   48.8470 C   0  0  0  0  0  0  0  0  0  0  0  0
   37.4430   30.8380   47.5040 C   0  0  0  0  0  0  0  0  0  0  0  0
   36.2830   30.4250   46.9890 N   0  0  0  0  0  0  0  0  0  0  0  0
   35.3760   29.7350   47.7040 C   0  0  0  0  0  0  0  0  0  0  0  0
   35.6080   29.4360   48.9810 N   0  0  0  0  0  0  0  0  0  0  0  0
   38.3780   31.5550   46.7400 N   0  0  0  0  0  0  0  0  0  0  0  0
   39.3430   32.5310   47.2620 C   0  0  0  0  0  0  0  0  0  0  0  0
   39.9720   33.1980   46.0860 C   0  0  0  0  0  0  0  0  0  0  0  0
   39.0120   32.9080   44.9930 C   0  0  0  0  0  0  0  0  0  0  0  0
   38.6010   31.5000   45.3260 C   0  0  2  0  0  0  0  0  0  0  0  0
   36.9310   29.5760   50.5880 H   0  0  0  0  0  0  0  0  0  0  0  0
   38.6430   30.8520   49.3100 H   0  0  0  0  0  0  0  0  0  0  0  0
   34.4720   29.4550   47.1730 H   0  0  0  0  0  0  0  0  0  0  0  0
   38.7550   33.2020   47.9010 H   0  0  0  0  0  0  0  0  0  0  0  0
   40.0640   31.9970   47.9050 H   0  0  0  0  0  0  0  0  0  0  0  0
   41.0230   32.9480   45.8960 H   0  0  0  0  0  0  0  0  0  0  0  0
   39.9870   34.3030   46.3270 H   0  0  0  0  0  0  0  0  0  0  0  0
   38.1370   33.5510   45.0580 H   0  0  0  0  0  0  0  0  0  0  0  0
   39.4620   32.9770   43.9810 H   0  0  0  0  0  0  0  0  0  0  0  0
   37.4900   30.9940   44.4650 C   0  0  0  0  0  0  0  0  0  0  0  0
   36.3160   31.5020   45.0040 F   0  0  0  0  0  0  0  0  0  0  0  0
   37.3570   29.6410   44.3990 F   0  0  0  0  0  0  0  0  0  0  0  0
   37.6460   31.6050   43.2290 F   0  0  0  0  0  0  0  0  0  0  0  0
   39.7770   30.6060   45.1380 C   0  0  0  0  0  0  0  0  0  0  0  0
   39.4380   29.6030   45.4770 H   0  0  0  0  0  0  0  0  0  0  0  0
   40.5310   30.9250   45.9210 H   0  0  0  0  0  0  0  0  0  0  0  0
   40.2840   30.9100   44.0430 O   0  0  0  0  0  0  0  0  0  0  0  0
   40.5480   30.3020   42.8610 C   0  0  0  0  0  0  0  0  0  0  0  0
   40.3530   31.1280   41.9360 O   0  0  0  0  0  0  0  0  0  0  0  0
   40.9470   29.1670   42.1290 N   0  0  0  0  0  0  0  0  0  0  0  0
   40.1230   27.9840   42.2740 C   0  0  0  0  0  2  0  0  0  0  0  0
   39.9880   27.2340   40.9710 C   0  0  0  0  0  2  0  0  0  0  0  0
   40.0610   28.2400   39.8490 C   0  0  0  0  0  3  0  0  0  0  0  0
   39.8640   27.7240   38.8850 H   0  0  0  0  0  0  0  0  0  0  0  0
   41.5000   28.7160   39.7990 C   0  0  0  0  0  2  0  0  0  0  0  0
   42.0390   28.8390   41.2000 C   0  0  0  0  0  2  0  0  0  0  0  0
  1 12  1  0  0  0  0
  2 13  1  0  0  0  0
  2  1  2  0  0  0  0
  3  2  1  0  0  0  0
  4  3  2  0  0  0  0
  4  5  1  0  0  0  0
  5  6  2  0  0  0  0
  6  1  1  0  0  0  0
  7  8  1  0  0  0  0
  7  3  1  0  0  0  0
  8 15  1  0  0  0  0
  8 16  1  0  0  0  0
  9 18  1  0  0  0  0
  9  8  1  0  0  0  0
 10 19  1  0  0  0  0
 10 11  1  0  0  0  0
 10  9  1  0  0  0  0
 11 21  1  6  0  0  0
 11  7  1  0  0  0  0
 14  5  1  0  0  0  0
 17  9  1  0  0  0  0
 20 10  1  0  0  0  0
 21 22  1  0  0  0  0
 23 21  1  0  0  0  0
 24 21  1  0  0  0  0
 25 11  1  0  0  0  0
 25 26  1  0  0  0  0
 25 27  1  0  0  0  0
 28 25  1  0  0  0  0
 29 28  1  0  0  0  0
 30 29  2  0  0  0  0
 31 32  1  0  0  0  0
 31 29  1  0  0  0  0
 33 32  1  0  0  0  0
 34 33  1  0  0  0  0
 35 34  1  0  0  0  0
 36 34  1  0  0  0  0
 36 37  1  0  0  0  0
 37 31  1  0  0  0  0
M  END
>  <minimizedAffinity>
-5.4071846

>  <minimizedRMSD>
0.746198297

$$$$
