
 OpenBabel03272508433D

 18 19  0  0  0  0  0  0  0  0999 V2000
   39.9060   22.5320   37.3210 C   0  0  0  0  0  0  0  0  0  0  0  0
   38.9710   23.2150   38.1120 C   0  0  0  0  0  0  0  0  0  0  0  0
   37.7070   23.4390   37.5720 C   0  0  0  0  0  0  0  0  0  0  0  0
   37.4540   22.9820   36.3120 N   0  0  0  0  0  0  0  0  0  0  0  0
   38.3840   22.3280   35.5850 C   0  0  0  0  0  0  0  0  0  0  0  0
   39.5990   22.1010   36.0790 N   0  0  0  0  0  0  0  0  0  0  0  0
   40.9020   22.3580   37.7530 H   0  0  0  0  0  0  0  0  0  0  0  0
   39.2810   23.5320   39.0970 H   0  0  0  0  0  0  0  0  0  0  0  0
   36.9790   23.9640   38.1680 H   0  0  0  0  0  0  0  0  0  0  0  0
   38.1240   21.8380   34.2450 C   0  0  0  0  0  0  0  0  0  0  0  0
   39.0320   21.4400   33.4590 O   0  0  0  0  0  0  0  0  0  0  0  0
   36.8560   21.7260   33.6090 N   0  0  0  0  0  0  0  0  0  0  0  0
   35.8980   20.8600   34.2700 C   0  0  0  0  0  2  0  0  0  0  0  0
   35.6050   19.7730   33.2310 C   0  0  0  0  0  2  0  0  0  0  0  0
   34.7860   20.4760   32.1730 C   0  0  0  0  0  3  0  0  0  0  0  0
   34.4930   19.7170   31.4170 H   0  0  0  0  0  0  0  0  0  0  0  0
   35.6030   21.5290   31.4750 C   0  0  0  0  0  2  0  0  0  0  0  0
   36.4330   22.3700   32.3960 C   0  0  0  0  0  2  0  0  0  0  0  0
  1  7  1  0  0  0  0
  1  2  1  0  0  0  0
  2  8  1  0  0  0  0
  3  2  2  0  0  0  0
  3  9  1  0  0  0  0
  4  3  1  0  0  0  0
  5  6  1  0  0  0  0
  5  4  2  0  0  0  0
  6  1  2  0  0  0  0
 10  5  1  0  0  0  0
 11 10  2  0  0  0  0
 12 10  1  0  0  0  0
 12 13  1  0  0  0  0
 14 13  1  0  0  0  0
 15 14  1  0  0  0  0
 16 15  1  0  0  0  0
 17 15  1  0  0  0  0
 17 18  1  0  0  0  0
 18 12  1  0  0  0  0
M  END
>  <minimizedAffinity>
-4.60884237

$$$$

 OpenBabel03272508433D

 18 19  0  0  0  0  0  0  0  0999 V2000
   36.1250   22.7810   31.6210 C   0  0  0  0  0  0  0  0  0  0  0  0
   35.4640   21.5620   31.8220 C   0  0  0  0  0  0  0  0  0  0  0  0
   35.8260   20.8030   32.9320 C   0  0  0  0  0  0  0  0  0  0  0  0
   36.7990   21.2890   33.7550 N   0  0  0  0  0  0  0  0  0  0  0  0
   37.4110   22.4700   33.5250 C   0  0  0  0  0  0  0  0  0  0  0  0
   37.0820   23.2130   32.4700 N   0  0  0  0  0  0  0  0  0  0  0  0
   35.8350   23.3760   30.7430 H   0  0  0  0  0  0  0  0  0  0  0  0
   34.7080   21.2750   31.1040 H   0  0  0  0  0  0  0  0  0  0  0  0
   35.3260   19.8630   33.0990 H   0  0  0  0  0  0  0  0  0  0  0  0
   38.4460   22.9950   34.3940 C   0  0  0  0  0  0  0  0  0  0  0  0
   39.3570   23.7790   34.0010 O   0  0  0  0  0  0  0  0  0  0  0  0
   38.6100   22.7290   35.7830 N   0  0  0  0  0  0  0  0  0  0  0  0
   37.4970   23.1140   36.6300 C   0  0  0  0  0  2  0  0  0  0  0  0
   38.1020   24.1450   37.5880 C   0  0  0  0  0  2  0  0  0  0  0  0
   38.9890   23.3330   38.5040 C   0  0  0  0  0  3  0  0  0  0  0  0
   39.4120   24.0250   39.2620 H   0  0  0  0  0  0  0  0  0  0  0  0
   40.1360   22.7280   37.7400 C   0  0  0  0  0  2  0  0  0  0  0  0
   39.7470   22.1290   36.4240 C   0  0  0  0  0  2  0  0  0  0  0  0
  1  2  2  0  0  0  0
  1  6  1  0  0  0  0
  2  3  1  0  0  0  0
  3  9  1  0  0  0  0
  3  4  2  0  0  0  0
  5  4  1  0  0  0  0
  5 10  1  0  0  0  0
  6  5  2  0  0  0  0
  7  1  1  0  0  0  0
  8  2  1  0  0  0  0
 10 12  1  0  0  0  0
 11 10  2  0  0  0  0
 12 18  1  0  0  0  0
 12 13  1  0  0  0  0
 13 14  1  0  0  0  0
 14 15  1  0  0  0  0
 15 16  1  0  0  0  0
 17 15  1  0  0  0  0
 18 17  1  0  0  0  0
M  END
>  <minimizedAffinity>
-4.32453394

$$$$

 OpenBabel03272508433D

 18 19  0  0  0  0  0  0  0  0999 V2000
   36.4330   24.9650   31.9240 C   0  0  0  0  0  0  0  0  0  0  0  0
   35.9670   23.7320   31.4440 C   0  0  0  0  0  0  0  0  0  0  0  0
   36.4640   22.5760   32.0400 C   0  0  0  0  0  0  0  0  0  0  0  0
   37.3700   22.7100   33.0510 N   0  0  0  0  0  0  0  0  0  0  0  0
   37.7920   23.9170   33.4820 C   0  0  0  0  0  0  0  0  0  0  0  0
   37.3320   25.0370   32.9290 N   0  0  0  0  0  0  0  0  0  0  0  0
   36.0380   25.8740   31.4490 H   0  0  0  0  0  0  0  0  0  0  0  0
   35.2480   23.7450   30.6380 H   0  0  0  0  0  0  0  0  0  0  0  0
   36.1150   21.6220   31.6820 H   0  0  0  0  0  0  0  0  0  0  0  0
   38.7540   24.0690   34.5560 C   0  0  0  0  0  0  0  0  0  0  0  0
   39.7820   24.8020   34.4730 O   0  0  0  0  0  0  0  0  0  0  0  0
   38.7130   23.4450   35.8340 N   0  0  0  0  0  0  0  0  0  0  0  0
   37.5450   23.7460   36.6410 C   0  0  0  0  0  2  0  0  0  0  0  0
   38.1240   24.4170   37.8910 C   0  0  0  0  0  2  0  0  0  0  0  0
   38.8000   23.2930   38.6420 C   0  0  0  0  0  3  0  0  0  0  0  0
   39.1900   23.7130   39.5930 H   0  0  0  0  0  0  0  0  0  0  0  0
   39.9690   22.7560   37.8610 C   0  0  0  0  0  2  0  0  0  0  0  0
   39.6940   22.5610   36.4020 C   0  0  0  0  0  2  0  0  0  0  0  0
  1  6  1  0  0  0  0
  2  1  2  0  0  0  0
  2  3  1  0  0  0  0
  3  4  2  0  0  0  0
  4  5  1  0  0  0  0
  5 10  1  0  0  0  0
  6  5  2  0  0  0  0
  7  1  1  0  0  0  0
  8  2  1  0  0  0  0
  9  3  1  0  0  0  0
 10 12  1  0  0  0  0
 11 10  2  0  0  0  0
 12 18  1  0  0  0  0
 12 13  1  0  0  0  0
 13 14  1  0  0  0  0
 14 15  1  0  0  0  0
 15 16  1  0  0  0  0
 17 15  1  0  0  0  0
 18 17  1  0  0  0  0
M  END
>  <minimizedAffinity>
-4.24954176

$$$$

 OpenBabel03272508433D

 18 19  0  0  0  0  0  0  0  0999 V2000
   37.9250   23.4540   37.9620 C   0  0  0  0  0  0  0  0  0  0  0  0
   39.2630   23.2040   38.2980 C   0  0  0  0  0  0  0  0  0  0  0  0
   40.0580   22.5610   37.3530 C   0  0  0  0  0  0  0  0  0  0  0  0
   39.4910   22.2140   36.1620 N   0  0  0  0  0  0  0  0  0  0  0  0
   38.1980   22.4750   35.8790 C   0  0  0  0  0  0  0  0  0  0  0  0
   37.4170   23.0880   36.7660 N   0  0  0  0  0  0  0  0  0  0  0  0
   37.3010   23.9630   38.7110 H   0  0  0  0  0  0  0  0  0  0  0  0
   39.6050   23.5230   39.2720 H   0  0  0  0  0  0  0  0  0  0  0  0
   41.0880   22.3620   37.5980 H   0  0  0  0  0  0  0  0  0  0  0  0
   37.5880   22.1090   34.6160 C   0  0  0  0  0  0  0  0  0  0  0  0
   36.6420   21.2750   34.5130 O   0  0  0  0  0  0  0  0  0  0  0  0
   37.9310   22.6050   33.3270 N   0  0  0  0  0  0  0  0  0  0  0  0
   37.7910   24.0380   33.1490 C   0  0  0  0  0  2  0  0  0  0  0  0
   36.7550   24.1710   32.0270 C   0  0  0  0  0  2  0  0  0  0  0  0
   37.4890   23.7230   30.7840 C   0  0  0  0  0  3  0  0  0  0  0  0
   36.7990   23.8540   29.9230 H   0  0  0  0  0  0  0  0  0  0  0  0
   37.8460   22.2640   30.8700 C   0  0  0  0  0  2  0  0  0  0  0  0
   38.3950   21.8450   32.1990 C   0  0  0  0  0  2  0  0  0  0  0  0
  1  2  1  0  0  0  0
  1  7  1  0  0  0  0
  2  8  1  0  0  0  0
  3  9  1  0  0  0  0
  3  2  2  0  0  0  0
  4  3  1  0  0  0  0
  5  4  2  0  0  0  0
  5  6  1  0  0  0  0
  6  1  2  0  0  0  0
 10  5  1  0  0  0  0
 11 10  2  0  0  0  0
 12 10  1  0  0  0  0
 13 12  1  0  0  0  0
 14 13  1  0  0  0  0
 15 17  1  0  0  0  0
 15 14  1  0  0  0  0
 16 15  1  0  0  0  0
 17 18  1  0  0  0  0
 18 12  1  0  0  0  0
M  END
>  <minimizedAffinity>
-4.01681757

$$$$

 OpenBabel03272508433D

 18 19  0  0  0  0  0  0  0  0999 V2000
   38.0730   27.1860   35.8750 C   0  0  0  0  0  0  0  0  0  0  0  0
   37.4840   27.4760   34.6360 C   0  0  0  0  0  0  0  0  0  0  0  0
   37.2960   26.4220   33.7450 C   0  0  0  0  0  0  0  0  0  0  0  0
   37.6940   25.1750   34.1290 N   0  0  0  0  0  0  0  0  0  0  0  0
   38.2570   24.9400   35.3330 C   0  0  0  0  0  0  0  0  0  0  0  0
   38.4470   25.9310   36.2010 N   0  0  0  0  0  0  0  0  0  0  0  0
   38.2180   28.0220   36.5740 H   0  0  0  0  0  0  0  0  0  0  0  0
   37.2070   28.5020   34.4380 H   0  0  0  0  0  0  0  0  0  0  0  0
   36.8450   26.6310   32.7890 H   0  0  0  0  0  0  0  0  0  0  0  0
   38.6830   23.6180   35.7490 C   0  0  0  0  0  0  0  0  0  0  0  0
   37.9400   22.5960   35.6950 O   0  0  0  0  0  0  0  0  0  0  0  0
   39.9580   23.2560   36.2690 N   0  0  0  0  0  0  0  0  0  0  0  0
   41.0860   23.5050   35.3910 C   0  0  0  0  0  2  0  0  0  0  0  0
   41.6900   22.1150   35.1650 C   0  0  0  0  0  2  0  0  0  0  0  0
   42.3320   21.7640   36.4870 C   0  0  0  0  0  3  0  0  0  0  0  0
   42.8400   20.7850   36.3640 H   0  0  0  0  0  0  0  0  0  0  0  0
   41.2920   21.6120   37.5630 C   0  0  0  0  0  2  0  0  0  0  0  0
   40.2400   22.6770   37.5540 C   0  0  0  0  0  2  0  0  0  0  0  0
  1  6  1  0  0  0  0
  1  7  1  0  0  0  0
  2  1  2  0  0  0  0
  3  4  2  0  0  0  0
  3  2  1  0  0  0  0
  4  5  1  0  0  0  0
  5 10  1  0  0  0  0
  5  6  2  0  0  0  0
  8  2  1  0  0  0  0
  9  3  1  0  0  0  0
 10 12  1  0  0  0  0
 11 10  2  0  0  0  0
 12 18  1  0  0  0  0
 13 12  1  0  0  0  0
 14 13  1  0  0  0  0
 14 15  1  0  0  0  0
 15 17  1  0  0  0  0
 16 15  1  0  0  0  0
 18 17  1  0  0  0  0
M  END
>  <minimizedAffinity>
-4.00653124

$$$$

 OpenBabel03272508433D

 18 19  0  0  0  0  0  0  0  0999 V2000
   37.0880   27.3200   32.8710 C   0  0  0  0  0  0  0  0  0  0  0  0
   36.7280   26.4110   31.8660 C   0  0  0  0  0  0  0  0  0  0  0  0
   37.2050   25.1070   31.9710 C   0  0  0  0  0  0  0  0  0  0  0  0
   37.9890   24.7920   33.0420 N   0  0  0  0  0  0  0  0  0  0  0  0
   38.3100   25.6990   33.9890 C   0  0  0  0  0  0  0  0  0  0  0  0
   37.8670   26.9520   33.9100 N   0  0  0  0  0  0  0  0  0  0  0  0
   36.7080   28.3480   32.7820 H   0  0  0  0  0  0  0  0  0  0  0  0
   36.1020   26.7710   31.0620 H   0  0  0  0  0  0  0  0  0  0  0  0
   36.9370   24.3980   31.2050 H   0  0  0  0  0  0  0  0  0  0  0  0
   39.1430   25.3730   35.1300 C   0  0  0  0  0  0  0  0  0  0  0  0
   40.2000   26.0020   35.4250 O   0  0  0  0  0  0  0  0  0  0  0  0
   38.9250   24.3320   36.0760 N   0  0  0  0  0  0  0  0  0  0  0  0
   37.6820   24.4100   36.8190 C   0  0  0  0  0  2  0  0  0  0  0  0
   38.1310   24.5330   38.2790 C   0  0  0  0  0  2  0  0  0  0  0  0
   38.6710   23.1630   38.6210 C   0  0  0  0  0  3  0  0  0  0  0  0
   38.9600   23.1760   39.6930 H   0  0  0  0  0  0  0  0  0  0  0  0
   39.9030   22.8560   37.8150 C   0  0  0  0  0  2  0  0  0  0  0  0
   39.7970   23.2270   36.3680 C   0  0  0  0  0  2  0  0  0  0  0  0
  1  6  1  0  0  0  0
  2  3  1  0  0  0  0
  2  1  2  0  0  0  0
  3  4  2  0  0  0  0
  4  5  1  0  0  0  0
  5 10  1  0  0  0  0
  6  5  2  0  0  0  0
  7  1  1  0  0  0  0
  8  2  1  0  0  0  0
  9  3  1  0  0  0  0
 10 11  2  0  0  0  0
 10 12  1  0  0  0  0
 12 18  1  0  0  0  0
 12 13  1  0  0  0  0
 13 14  1  0  0  0  0
 14 15  1  0  0  0  0
 15 16  1  0  0  0  0
 17 15  1  0  0  0  0
 18 17  1  0  0  0  0
M  END
>  <minimizedAffinity>
-3.97519326

$$$$

 OpenBabel03272508433D

 18 19  0  0  0  0  0  0  0  0999 V2000
   38.1030   24.1170   38.0150 C   0  0  0  0  0  0  0  0  0  0  0  0
   38.9530   23.0350   37.7470 C   0  0  0  0  0  0  0  0  0  0  0  0
   39.7180   23.0850   36.5850 C   0  0  0  0  0  0  0  0  0  0  0  0
   39.5970   24.1790   35.7790 N   0  0  0  0  0  0  0  0  0  0  0  0
   38.7660   25.2000   36.0760 C   0  0  0  0  0  0  0  0  0  0  0  0
   38.0240   25.1760   37.1810 N   0  0  0  0  0  0  0  0  0  0  0  0
   37.5010   24.0730   38.9340 H   0  0  0  0  0  0  0  0  0  0  0  0
   38.9680   22.2200   38.4560 H   0  0  0  0  0  0  0  0  0  0  0  0
   40.3750   22.2590   36.3660 H   0  0  0  0  0  0  0  0  0  0  0  0
   38.6300   26.3670   35.2260 C   0  0  0  0  0  0  0  0  0  0  0  0
   39.5180   27.2630   35.1240 O   0  0  0  0  0  0  0  0  0  0  0  0
   37.5230   26.6930   34.3930 N   0  0  0  0  0  0  0  0  0  0  0  0
   37.2070   25.7220   33.3620 C   0  0  0  0  0  2  0  0  0  0  0  0
   37.3760   26.5040   32.0550 C   0  0  0  0  0  2  0  0  0  0  0  0
   36.2000   27.4530   32.0300 C   0  0  0  0  0  3  0  0  0  0  0  0
   36.2390   28.0090   31.0700 H   0  0  0  0  0  0  0  0  0  0  0  0
   36.2970   28.4550   33.1480 C   0  0  0  0  0  2  0  0  0  0  0  0
   36.6980   27.8670   34.4650 C   0  0  0  0  0  2  0  0  0  0  0  0
  1  7  1  0  0  0  0
  2  1  1  0  0  0  0
  2  8  1  0  0  0  0
  3  2  2  0  0  0  0
  4  5  2  0  0  0  0
  4  3  1  0  0  0  0
  5  6  1  0  0  0  0
  6  1  2  0  0  0  0
  9  3  1  0  0  0  0
 10  5  1  0  0  0  0
 11 10  2  0  0  0  0
 12 18  1  0  0  0  0
 12 10  1  0  0  0  0
 13 12  1  0  0  0  0
 14 13  1  0  0  0  0
 15 14  1  0  0  0  0
 15 17  1  0  0  0  0
 16 15  1  0  0  0  0
 17 18  1  0  0  0  0
M  END
>  <minimizedAffinity>
-3.97052288

$$$$

 OpenBabel03272508433D

 18 19  0  0  0  0  0  0  0  0999 V2000
   39.8370   22.8310   37.6960 C   0  0  0  0  0  0  0  0  0  0  0  0
   38.8530   23.3570   38.5450 C   0  0  0  0  0  0  0  0  0  0  0  0
   37.8490   24.1320   37.9710 C   0  0  0  0  0  0  0  0  0  0  0  0
   37.8820   24.3330   36.6220 N   0  0  0  0  0  0  0  0  0  0  0  0
   38.8480   23.8070   35.8410 C   0  0  0  0  0  0  0  0  0  0  0  0
   39.8190   23.0620   36.3660 N   0  0  0  0  0  0  0  0  0  0  0  0
   40.6280   22.2200   38.1550 H   0  0  0  0  0  0  0  0  0  0  0  0
   38.9270   23.1330   39.6000 H   0  0  0  0  0  0  0  0  0  0  0  0
   37.0870   24.5430   38.6110 H   0  0  0  0  0  0  0  0  0  0  0  0
   38.8910   24.0150   34.4070 C   0  0  0  0  0  0  0  0  0  0  0  0
   39.8980   24.4800   33.7980 O   0  0  0  0  0  0  0  0  0  0  0  0
   37.8510   23.7440   33.4730 N   0  0  0  0  0  0  0  0  0  0  0  0
   37.4120   22.3630   33.4090 C   0  0  0  0  0  2  0  0  0  0  0  0
   37.7060   21.9500   31.9620 C   0  0  0  0  0  2  0  0  0  0  0  0
   36.6770   22.6950   31.1430 C   0  0  0  0  0  3  0  0  0  0  0  0
   36.8060   22.3860   30.0840 H   0  0  0  0  0  0  0  0  0  0  0  0
   36.9030   24.1800   31.2210 C   0  0  0  0  0  2  0  0  0  0  0  0
   37.2010   24.6820   32.6000 C   0  0  0  0  0  2  0  0  0  0  0  0
  1  7  1  0  0  0  0
  1  2  1  0  0  0  0
  2  8  1  0  0  0  0
  3  2  2  0  0  0  0
  3  9  1  0  0  0  0
  4  3  1  0  0  0  0
  5  6  1  0  0  0  0
  5  4  2  0  0  0  0
  6  1  2  0  0  0  0
 10  5  1  0  0  0  0
 11 10  2  0  0  0  0
 12 10  1  0  0  0  0
 13 12  1  0  0  0  0
 14 13  1  0  0  0  0
 15 17  1  0  0  0  0
 15 14  1  0  0  0  0
 16 15  1  0  0  0  0
 17 18  1  0  0  0  0
 18 12  1  0  0  0  0
M  END
>  <minimizedAffinity>
-3.96057487

$$$$

 OpenBabel03272508433D

 18 19  0  0  0  0  0  0  0  0999 V2000
   39.9220   22.9130   37.2930 C   0  0  0  0  0  0  0  0  0  0  0  0
   39.0570   23.2000   38.3580 C   0  0  0  0  0  0  0  0  0  0  0  0
   37.8590   23.8460   38.0630 C   0  0  0  0  0  0  0  0  0  0  0  0
   37.5990   24.1590   36.7610 N   0  0  0  0  0  0  0  0  0  0  0  0
   38.4610   23.8630   35.7660 C   0  0  0  0  0  0  0  0  0  0  0  0
   39.6120   23.2470   36.0220 N   0  0  0  0  0  0  0  0  0  0  0  0
   40.8670   22.4030   37.5320 H   0  0  0  0  0  0  0  0  0  0  0  0
   39.3660   22.9060   39.3510 H   0  0  0  0  0  0  0  0  0  0  0  0
   37.1840   24.0730   38.8720 H   0  0  0  0  0  0  0  0  0  0  0  0
   38.1920   24.1920   34.3790 C   0  0  0  0  0  0  0  0  0  0  0  0
   37.6750   23.3820   33.5570 O   0  0  0  0  0  0  0  0  0  0  0  0
   38.4530   25.4320   33.7300 N   0  0  0  0  0  0  0  0  0  0  0  0
   37.7750   26.5860   34.2890 C   0  0  0  0  0  2  0  0  0  0  0  0
   36.9050   27.0980   33.1360 C   0  0  0  0  0  2  0  0  0  0  0  0
   37.8910   27.6960   32.1590 C   0  0  0  0  0  3  0  0  0  0  0  0
   37.3080   28.1380   31.3230 H   0  0  0  0  0  0  0  0  0  0  0  0
   38.7870   26.6320   31.5840 C   0  0  0  0  0  2  0  0  0  0  0  0
   39.3040   25.6550   32.5940 C   0  0  0  0  0  2  0  0  0  0  0  0
  1  7  1  0  0  0  0
  1  2  1  0  0  0  0
  2  8  1  0  0  0  0
  3  2  2  0  0  0  0
  3  9  1  0  0  0  0
  4  3  1  0  0  0  0
  5  6  1  0  0  0  0
  5  4  2  0  0  0  0
  6  1  2  0  0  0  0
 10  5  1  0  0  0  0
 11 10  2  0  0  0  0
 12 13  1  0  0  0  0
 12 10  1  0  0  0  0
 14 13  1  0  0  0  0
 15 14  1  0  0  0  0
 16 15  1  0  0  0  0
 17 15  1  0  0  0  0
 17 18  1  0  0  0  0
 18 12  1  0  0  0  0
M  END
>  <minimizedAffinity>
-3.93153334

$$$$
