
     RDKit          3D

 46 48  0  0  0  0  0  0  0  0999 V2000
   36.6786   29.9140   49.0411 C   0  0  0  0  0  0  0  0  0  0  0  0
   37.6989   30.5887   48.3396 C   0  0  0  0  0  0  0  0  0  0  0  0
   37.4707   30.8950   46.9911 C   0  0  0  0  0  0  0  0  0  0  0  0
   36.3054   30.5316   46.4525 N   0  0  0  0  0  0  0  0  0  0  0  0
   35.3520   29.8883   47.1507 C   0  0  0  0  0  0  0  0  0  0  0  0
   35.5432   29.5849   48.4337 N   0  0  0  0  0  0  0  0  0  0  0  0
   38.4535   31.5646   46.2444 N   0  0  0  0  0  0  0  0  0  0  0  0
   39.4499   32.4995   46.7819 C   0  0  0  0  0  0  0  0  0  0  0  0
   40.1344   33.1307   45.6171 C   0  0  0  0  0  0  0  0  0  0  0  0
   39.1849   32.8785   44.5055 C   0  0  0  0  0  0  0  0  0  0  0  0
   38.7039   31.4920   44.8346 C   0  0  2  0  0  0  0  0  0  0  0  0
   37.5896   31.0334   43.9528 C   0  0  0  0  0  0  0  0  0  0  0  0
   36.4639   31.7466   44.3396 F   0  0  0  0  0  0  0  0  0  0  0  0
   37.2786   29.7091   44.0268 F   0  0  0  0  0  0  0  0  0  0  0  0
   37.9028   31.4656   42.6716 F   0  0  0  0  0  0  0  0  0  0  0  0
   39.8418   30.5446   44.6758 C   0  0  0  0  0  0  0  0  0  0  0  0
   40.3424   30.7736   43.5598 O   0  0  0  0  0  0  0  0  0  0  0  0
   40.8990   30.0622   42.5501 C   0  0  0  0  0  0  0  0  0  0  0  0
   40.6456   30.6429   41.4665 O   0  0  0  0  0  0  0  0  0  0  0  0
   36.8368   29.6738   50.0675 H   0  0  0  0  0  0  0  0  0  0  0  0
   38.6318   30.8640   48.8225 H   0  0  0  0  0  0  0  0  0  0  0  0
   34.4483   29.6460   46.6025 H   0  0  0  0  0  0  0  0  0  0  0  0
   38.8801   33.1985   47.4054 H   0  0  0  0  0  0  0  0  0  0  0  0
   40.1326   31.9356   47.4427 H   0  0  0  0  0  0  0  0  0  0  0  0
   41.1765   32.8327   45.4509 H   0  0  0  0  0  0  0  0  0  0  0  0
   40.1935   34.2346   45.8535 H   0  0  0  0  0  0  0  0  0  0  0  0
   38.3388   33.5612   44.5478 H   0  0  0  0  0  0  0  0  0  0  0  0
   39.6591   32.9224   43.5025 H   0  0  0  0  0  0  0  0  0  0  0  0
   39.4709   29.5753   45.0708 H   0  0  0  0  0  0  0  0  0  0  0  0
   40.6205   30.8738   45.4306 H   0  0  0  0  0  0  0  0  0  0  0  0
   41.6469   28.9590   42.0958 N   0  0  0  0  0  0  0  0  0  0  0  0
   41.3098   27.6723   42.6676 C   0  0  0  0  0  0  0  0  0  0  0  0
   41.3965   26.5646   41.6444 C   0  0  0  0  0  0  0  0  0  0  0  0
   41.0566   27.1526   40.2969 C   0  0  0  0  0  0  0  0  0  0  0  0
   41.0181   26.3371   39.5445 H   0  0  0  0  0  0  0  0  0  0  0  0
   42.2264   28.0396   39.9147 C   0  0  0  0  0  0  0  0  0  0  0  0
   42.7437   28.7471   41.1392 C   0  0  0  0  0  0  0  0  0  0  0  0
   40.3323   27.6281   43.1444 H   0  0  0  0  0  0  0  0  0  0  0  0
   42.1229   27.4616   43.4235 H   0  0  0  0  0  0  0  0  0  0  0  0
   42.4412   26.1927   41.5891 H   0  0  0  0  0  0  0  0  0  0  0  0
   40.6898   25.7830   41.9219 H   0  0  0  0  0  0  0  0  0  0  0  0
   40.1086   27.6970   40.2868 H   0  0  0  0  0  0  0  0  0  0  0  0
   43.0099   27.4339   39.4617 H   0  0  0  0  0  0  0  0  0  0  0  0
   41.8073   28.8101   39.2350 H   0  0  0  0  0  0  0  0  0  0  0  0
   43.0719   29.7628   40.8368 H   0  0  0  0  0  0  0  0  0  0  0  0
   43.5647   28.1909   41.5866 H   0  0  0  0  0  0  0  0  0  0  0  0
  2  1  2  0
  3  2  1  0
  4  3  2  0
  4  5  1  0
  5  6  2  0
  6  1  1  0
  7  8  1  0
  7  3  1  0
  9  8  1  0
 10 11  1  0
 10  9  1  0
 11 12  1  6
 11  7  1  0
 12 14  1  0
 12 13  1  0
 15 12  1  0
 16 11  1  0
 17 16  1  0
 18 17  1  0
 19 18  2  0
  1 20  1  0
  2 21  1  0
  5 22  1  0
  8 23  1  0
  8 24  1  0
  9 25  1  0
  9 26  1  0
 10 27  1  0
 10 28  1  0
 16 29  1  0
 16 30  1  0
 31 32  1  0
 32 33  1  0
 33 34  1  0
 34 35  1  0
 34 36  1  0
 36 37  1  0
 37 31  1  0
 32 38  1  0
 32 39  1  0
 33 40  1  0
 33 41  1  0
 34 42  1  0
 36 43  1  0
 36 44  1  0
 37 45  1  0
 37 46  1  0
 18 31  1  0
M  ISO  8  20  14  21  14  22  14  23  13  24  13  25  13  26  13  27  13
M  ISO  4  28  13  29   8  30   8  35  15
M  END
>  <DihAtoms>  (1) 
16,17,30,31

>  <DihDeg>  (1) 
-179.73790894230572

$$$$
