
 OpenBabel03272509433D

 36 38  0  0  1  0  0  0  0  0999 V2000
   37.0240   30.9060   49.0920 C   0  0  0  0  0  0  0  0  0  0  0  0
   36.7300   31.8120   50.1110 C   0  0  0  0  0  0  0  0  0  0  0  0
   37.3070   33.0700   50.1640 C   0  0  0  0  0  0  0  0  0  0  0  0
   38.2120   33.4520   49.1720 C   0  0  0  0  0  0  0  0  0  0  0  0
   38.4930   32.5580   48.1790 C   0  0  0  0  0  0  0  0  0  0  0  0
   37.8960   31.3070   48.1600 C   0  0  0  0  0  0  0  0  0  0  0  0
   36.0240   31.5360   50.9010 H   0  0  0  0  0  0  0  0  0  0  0  0
   37.0290   33.7100   50.9820 H   0  0  0  0  0  0  0  0  0  0  0  0
   38.5990   34.4410   49.3030 H   0  0  0  0  0  0  0  0  0  0  0  0
   39.2110   33.0000   47.4870 H   0  0  0  0  0  0  0  0  0  0  0  0
   36.4470   29.5790   49.0550 C   0  0  2  0  0  0  0  0  0  0  0  0
   36.9490   29.0560   48.1520 H   0  0  0  0  0  0  0  0  0  0  0  0
   33.5870   29.9190   46.8410 C   0  0  0  0  0  0  0  0  0  0  0  0
   32.8420   28.7830   47.0720 C   0  0  0  0  0  0  0  0  0  0  0  0
   33.2830   27.9080   48.0460 C   0  0  0  0  0  0  0  0  0  0  0  0
   34.4370   28.1940   48.7440 N   0  0  0  0  0  0  0  0  0  0  0  0
   35.1050   29.2960   48.4720 C   0  0  0  0  0  0  0  0  0  0  0  0
   34.6880   30.1660   47.5250 N   0  0  0  0  0  0  0  0  0  0  0  0
   33.2090   30.5680   46.0820 H   0  0  0  0  0  0  0  0  0  0  0  0
   31.9300   28.4950   46.5650 H   0  0  0  0  0  0  0  0  0  0  0  0
   32.7740   26.9760   48.3200 H   0  0  0  0  0  0  0  0  0  0  0  0
   36.9290   28.8100   49.9660 O   0  0  0  0  0  0  0  0  0  0  0  0
   36.4170   28.4110   50.6830 H   0  0  0  0  0  0  0  0  0  0  0  0
   38.3070   30.4520   47.0720 C   0  0  0  0  0  3  0  0  0  0  0  0
   38.8020   30.8980   45.9130 C   0  0  0  0  0  3  0  0  0  0  0  0
   39.2900   30.1150   44.7530 C   0  0  0  0  0  0  0  0  0  0  0  0
   38.7030   29.1700   44.6250 H   0  0  0  0  0  0  0  0  0  0  0  0
   40.3370   29.7740   44.9210 H   0  0  0  0  0  0  0  0  0  0  0  0
   39.2700   31.1450   43.2820 S   0  0  0  0  0  0  0  0  0  0  0  0
   42.7780   30.4220   41.0000 H   0  0  0  0  0  0  0  0  0  0  0  0
   42.2260   29.8190   40.3680 N   0  0  0  0  0  0  0  0  0  0  0  0
   41.1920   30.5930   39.7080 C   0  0  0  0  0  2  0  0  0  0  0  0
   40.1220   31.0760   40.6700 C   0  0  0  0  0  2  0  0  0  0  0  0
   40.5410   30.6910   42.0740 C   0  0  0  0  0  3  0  0  0  0  0  0
   40.6680   29.1770   42.1140 C   0  0  0  0  0  2  0  0  0  0  0  0
   41.6390   28.6910   41.0750 C   0  0  0  0  0  2  0  0  0  0  0  0
  1  2  1  0  0  0  0
  2  3  2  0  0  0  0
  2  7  1  0  0  0  0
  3  8  1  0  0  0  0
  4  9  1  0  0  0  0
  4  3  1  0  0  0  0
  5  4  2  0  0  0  0
  6  5  1  0  0  0  0
  6  1  2  0  0  0  0
 10  5  1  0  0  0  0
 11 12  1  6  0  0  0
 11  1  1  0  0  0  0
 11 22  1  0  0  0  0
 13 14  2  0  0  0  0
 13 18  1  0  0  0  0
 14 15  1  0  0  0  0
 15 21  1  0  0  0  0
 15 16  2  0  0  0  0
 17 16  1  0  0  0  0
 17 11  1  0  0  0  0
 18 17  2  0  0  0  0
 19 13  1  0  0  0  0
 20 14  1  0  0  0  0
 22 23  1  0  0  0  0
 24  6  1  0  0  0  0
 25 24  2  0  0  0  0
 26 28  1  0  0  0  0
 26 25  1  0  0  0  0
 27 26  1  0  0  0  0
 29 26  1  0  0  0  0
 31 30  1  0  0  0  0
 31 36  1  0  0  0  0
 32 31  1  0  0  0  0
 32 33  1  0  0  0  0
 33 34  1  0  0  0  0
 34 35  1  0  0  0  0
 34 29  1  0  0  0  0
 36 35  1  0  0  0  0
M  END
>  <minimizedAffinity>
-5.99157572

>  <minimizedRMSD>
0.970692277

$$$$
