
 OpenBabel03262522093D

 18 19  0  0  0  0  0  0  0  0999 V2000
   37.0610   22.8320   32.4570 C   0  0  0  0  0  0  0  0  0  0  0  0
   37.4300   22.1370   33.6280 C   0  0  0  0  0  0  0  0  0  0  0  0
   36.5770   21.1360   34.0710 C   0  0  0  0  0  0  0  0  0  0  0  0
   35.4380   20.8570   33.3820 N   0  0  0  0  0  0  0  0  0  0  0  0
   35.1180   21.5460   32.2610 C   0  0  0  0  0  0  0  0  0  0  0  0
   35.9110   22.5260   31.7910 N   0  0  0  0  0  0  0  0  0  0  0  0
   37.6520   23.6300   32.0230 H   0  0  0  0  0  0  0  0  0  0  0  0
   36.8640   20.6040   34.9710 H   0  0  0  0  0  0  0  0  0  0  0  0
   34.1850   21.1940   31.8480 H   0  0  0  0  0  0  0  0  0  0  0  0
   38.6760   22.5160   34.2910 C   0  0  0  0  0  0  0  0  0  0  0  0
   39.7020   22.3570   33.6340 O   0  0  0  0  0  0  0  0  0  0  0  0
   38.7900   23.0420   35.6030 N   0  0  0  0  0  0  0  0  0  0  0  0
   39.6030   22.1910   36.4400 C   0  0  0  0  0  2  0  0  0  0  0  0
   39.9920   22.8590   37.7340 C   0  0  0  0  0  2  0  0  0  0  0  0
   38.7640   23.3430   38.4640 C   0  0  0  0  0  3  0  0  0  0  0  0
   39.0740   23.9600   39.3340 H   0  0  0  0  0  0  0  0  0  0  0  0
   37.7920   24.0850   37.5930 C   0  0  0  0  0  2  0  0  0  0  0  0
   38.2420   24.2230   36.1700 C   0  0  0  0  0  2  0  0  0  0  0  0
  1  2  1  0  0  0  0
  2  3  2  0  0  0  0
  2 10  1  0  0  0  0
  3  8  1  0  0  0  0
  4  3  1  0  0  0  0
  5  4  2  0  0  0  0
  6  5  1  0  0  0  0
  6  1  2  0  0  0  0
  7  1  1  0  0  0  0
  9  5  1  0  0  0  0
 10 12  1  0  0  0  0
 11 10  2  0  0  0  0
 12 18  1  0  0  0  0
 12 13  1  0  0  0  0
 13 14  1  0  0  0  0
 14 15  1  0  0  0  0
 15 16  1  0  0  0  0
 17 15  1  0  0  0  0
 18 17  1  0  0  0  0
M  END
>  <minimizedAffinity>
-4.22253561

$$$$

 OpenBabel03262522093D

 18 19  0  0  0  0  0  0  0  0999 V2000
   39.5590   23.1860   36.0180 C   0  0  0  0  0  0  0  0  0  0  0  0
   38.6450   24.1560   35.5540 C   0  0  0  0  0  0  0  0  0  0  0  0
   37.7730   24.7050   36.4820 C   0  0  0  0  0  0  0  0  0  0  0  0
   37.8190   24.3060   37.7820 N   0  0  0  0  0  0  0  0  0  0  0  0
   38.7120   23.3710   38.1890 C   0  0  0  0  0  0  0  0  0  0  0  0
   39.5790   22.8080   37.3280 N   0  0  0  0  0  0  0  0  0  0  0  0
   40.2850   22.6940   35.3800 H   0  0  0  0  0  0  0  0  0  0  0  0
   37.0720   25.4500   36.1230 H   0  0  0  0  0  0  0  0  0  0  0  0
   38.6080   23.1770   39.2460 H   0  0  0  0  0  0  0  0  0  0  0  0
   38.6800   24.5140   34.1380 C   0  0  0  0  0  0  0  0  0  0  0  0
   39.5080   25.3630   33.8190 O   0  0  0  0  0  0  0  0  0  0  0  0
   37.8500   23.9680   33.1250 N   0  0  0  0  0  0  0  0  0  0  0  0
   37.0600   24.9930   32.4850 C   0  0  0  0  0  2  0  0  0  0  0  0
   36.4000   24.5060   31.2210 C   0  0  0  0  0  2  0  0  0  0  0  0
   35.5830   23.2690   31.4970 C   0  0  0  0  0  3  0  0  0  0  0  0
   35.2290   22.8410   30.5360 H   0  0  0  0  0  0  0  0  0  0  0  0
   36.3010   22.2370   32.3170 C   0  0  0  0  0  2  0  0  0  0  0  0
   37.7020   22.6260   32.6830 C   0  0  0  0  0  2  0  0  0  0  0  0
  1  6  1  0  0  0  0
  2  1  2  0  0  0  0
  2  3  1  0  0  0  0
  3  4  2  0  0  0  0
  4  5  1  0  0  0  0
  5  9  1  0  0  0  0
  6  5  2  0  0  0  0
  7  1  1  0  0  0  0
  8  3  1  0  0  0  0
 10  2  1  0  0  0  0
 11 10  2  0  0  0  0
 12 10  1  0  0  0  0
 13 12  1  0  0  0  0
 14 15  1  0  0  0  0
 14 13  1  0  0  0  0
 15 17  1  0  0  0  0
 16 15  1  0  0  0  0
 17 18  1  0  0  0  0
 18 12  1  0  0  0  0
M  END
>  <minimizedAffinity>
-4.06453371

$$$$

 OpenBabel03262522093D

 18 19  0  0  0  0  0  0  0  0999 V2000
   35.5030   23.9860   31.0940 C   0  0  0  0  0  0  0  0  0  0  0  0
   36.9040   23.8180   31.0430 C   0  0  0  0  0  0  0  0  0  0  0  0
   37.6810   24.9670   31.0070 C   0  0  0  0  0  0  0  0  0  0  0  0
   37.0900   26.1920   31.0230 N   0  0  0  0  0  0  0  0  0  0  0  0
   35.7410   26.3110   31.0730 C   0  0  0  0  0  0  0  0  0  0  0  0
   34.9430   25.2290   31.1080 N   0  0  0  0  0  0  0  0  0  0  0  0
   34.8030   23.1590   31.1250 H   0  0  0  0  0  0  0  0  0  0  0  0
   38.7570   24.8360   30.9680 H   0  0  0  0  0  0  0  0  0  0  0  0
   35.4490   27.3510   31.0780 H   0  0  0  0  0  0  0  0  0  0  0  0
   37.4360   22.4580   31.0310 C   0  0  0  0  0  0  0  0  0  0  0  0
   38.3900   22.2610   30.2830 O   0  0  0  0  0  0  0  0  0  0  0  0
   36.9460   21.3700   31.7990 N   0  0  0  0  0  0  0  0  0  0  0  0
   36.5010   20.2890   30.9530 C   0  0  0  0  0  2  0  0  0  0  0  0
   36.2600   19.0160   31.7240 C   0  0  0  0  0  2  0  0  0  0  0  0
   35.2970   19.2640   32.8580 C   0  0  0  0  0  3  0  0  0  0  0  0
   35.2480   18.3600   33.5010 H   0  0  0  0  0  0  0  0  0  0  0  0
   35.6140   20.4870   33.6680 C   0  0  0  0  0  2  0  0  0  0  0  0
   36.8420   21.2150   33.2070 C   0  0  0  0  0  2  0  0  0  0  0  0
  1  6  1  0  0  0  0
  1  7  1  0  0  0  0
  2  1  2  0  0  0  0
  3  4  2  0  0  0  0
  3  2  1  0  0  0  0
  4  5  1  0  0  0  0
  5  9  1  0  0  0  0
  5  6  2  0  0  0  0
  8  3  1  0  0  0  0
 10  2  1  0  0  0  0
 10 12  1  0  0  0  0
 11 10  2  0  0  0  0
 12 18  1  0  0  0  0
 13 14  1  0  0  0  0
 13 12  1  0  0  0  0
 14 15  1  0  0  0  0
 15 16  1  0  0  0  0
 15 17  1  0  0  0  0
 18 17  1  0  0  0  0
M  END
>  <minimizedAffinity>
-4.0633316

$$$$

 OpenBabel03262522093D

 18 19  0  0  0  0  0  0  0  0999 V2000
   37.8170   24.6330   36.4140 C   0  0  0  0  0  0  0  0  0  0  0  0
   38.7840   24.0870   35.5430 C   0  0  0  0  0  0  0  0  0  0  0  0
   39.6840   23.1780   36.0810 C   0  0  0  0  0  0  0  0  0  0  0  0
   39.6130   22.8430   37.3970 N   0  0  0  0  0  0  0  0  0  0  0  0
   38.6690   23.3890   38.2020 C   0  0  0  0  0  0  0  0  0  0  0  0
   37.7740   24.2760   37.7300 N   0  0  0  0  0  0  0  0  0  0  0  0
   37.0670   25.3500   36.1010 H   0  0  0  0  0  0  0  0  0  0  0  0
   40.4260   22.7600   35.4090 H   0  0  0  0  0  0  0  0  0  0  0  0
   38.7600   23.0120   39.2090 H   0  0  0  0  0  0  0  0  0  0  0  0
   38.7730   24.5140   34.1460 C   0  0  0  0  0  0  0  0  0  0  0  0
   39.5680   25.4020   33.8500 O   0  0  0  0  0  0  0  0  0  0  0  0
   37.9340   23.9920   33.1280 N   0  0  0  0  0  0  0  0  0  0  0  0
   37.0980   25.0230   32.5580 C   0  0  0  0  0  2  0  0  0  0  0  0
   36.4210   24.5780   31.2880 C   0  0  0  0  0  2  0  0  0  0  0  0
   35.6470   23.3040   31.5230 C   0  0  0  0  0  3  0  0  0  0  0  0
   35.2820   22.9130   30.5500 H   0  0  0  0  0  0  0  0  0  0  0  0
   36.4160   22.2570   32.2740 C   0  0  0  0  0  2  0  0  0  0  0  0
   37.8140   22.6690   32.6250 C   0  0  0  0  0  2  0  0  0  0  0  0
  1  6  1  0  0  0  0
  2  3  1  0  0  0  0
  2  1  2  0  0  0  0
  3  4  2  0  0  0  0
  4  5  1  0  0  0  0
  5  9  1  0  0  0  0
  6  5  2  0  0  0  0
  7  1  1  0  0  0  0
  8  3  1  0  0  0  0
 10  2  1  0  0  0  0
 11 10  2  0  0  0  0
 12 10  1  0  0  0  0
 13 12  1  0  0  0  0
 14 15  1  0  0  0  0
 14 13  1  0  0  0  0
 15 17  1  0  0  0  0
 16 15  1  0  0  0  0
 17 18  1  0  0  0  0
 18 12  1  0  0  0  0
M  END
>  <minimizedAffinity>
-4.05032587

$$$$

 OpenBabel03262522093D

 18 19  0  0  0  0  0  0  0  0999 V2000
   37.5060   22.8690   32.5980 C   0  0  0  0  0  0  0  0  0  0  0  0
   37.9740   24.0600   33.1940 C   0  0  0  0  0  0  0  0  0  0  0  0
   37.3140   25.2360   32.8690 C   0  0  0  0  0  0  0  0  0  0  0  0
   36.2600   25.2130   32.0090 N   0  0  0  0  0  0  0  0  0  0  0  0
   35.8410   24.0490   31.4570 C   0  0  0  0  0  0  0  0  0  0  0  0
   36.4470   22.8810   31.7390 N   0  0  0  0  0  0  0  0  0  0  0  0
   37.9460   21.8950   32.7810 H   0  0  0  0  0  0  0  0  0  0  0  0
   37.6750   26.1500   33.3280 H   0  0  0  0  0  0  0  0  0  0  0  0
   34.9990   24.2170   30.8020 H   0  0  0  0  0  0  0  0  0  0  0  0
   39.1120   23.9740   34.1050 C   0  0  0  0  0  0  0  0  0  0  0  0
   40.2170   23.8870   33.5760 O   0  0  0  0  0  0  0  0  0  0  0  0
   39.0410   23.9820   35.5220 N   0  0  0  0  0  0  0  0  0  0  0  0
   39.5950   22.7720   36.0820 C   0  0  0  0  0  2  0  0  0  0  0  0
   39.8120   22.8720   37.5700 C   0  0  0  0  0  2  0  0  0  0  0  0
   38.5300   23.2670   38.2620 C   0  0  0  0  0  3  0  0  0  0  0  0
   38.7420   23.4810   39.3300 H   0  0  0  0  0  0  0  0  0  0  0  0
   37.8170   24.4150   37.6100 C   0  0  0  0  0  2  0  0  0  0  0  0
   38.5280   24.9650   36.4100 C   0  0  0  0  0  2  0  0  0  0  0  0
  1  7  1  0  0  0  0
  1  2  1  0  0  0  0
  2 10  1  0  0  0  0
  3  2  2  0  0  0  0
  3  8  1  0  0  0  0
  4  3  1  0  0  0  0
  5  6  1  0  0  0  0
  5  4  2  0  0  0  0
  6  1  2  0  0  0  0
  9  5  1  0  0  0  0
 10 12  1  0  0  0  0
 11 10  2  0  0  0  0
 12 13  1  0  0  0  0
 12 18  1  0  0  0  0
 13 14  1  0  0  0  0
 14 15  1  0  0  0  0
 15 16  1  0  0  0  0
 17 15  1  0  0  0  0
 18 17  1  0  0  0  0
M  END
>  <minimizedAffinity>
-4.03120422

$$$$

 OpenBabel03262522093D

 18 19  0  0  0  0  0  0  0  0999 V2000
   40.4280   23.0460   35.2180 C   0  0  0  0  0  0  0  0  0  0  0  0
   39.6340   23.4710   36.3040 C   0  0  0  0  0  0  0  0  0  0  0  0
   39.8610   22.8670   37.5320 C   0  0  0  0  0  0  0  0  0  0  0  0
   40.8160   21.9070   37.6550 N   0  0  0  0  0  0  0  0  0  0  0  0
   41.5590   21.5260   36.5880 C   0  0  0  0  0  0  0  0  0  0  0  0
   41.3780   22.0800   35.3750 N   0  0  0  0  0  0  0  0  0  0  0  0
   40.3370   23.4500   34.2150 H   0  0  0  0  0  0  0  0  0  0  0  0
   39.2490   23.1960   38.3660 H   0  0  0  0  0  0  0  0  0  0  0  0
   42.2640   20.7580   36.8670 H   0  0  0  0  0  0  0  0  0  0  0  0
   38.6360   24.5100   36.0640 C   0  0  0  0  0  0  0  0  0  0  0  0
   37.5940   24.4120   36.7060 O   0  0  0  0  0  0  0  0  0  0  0  0
   38.7740   25.6000   35.1660 N   0  0  0  0  0  0  0  0  0  0  0  0
   37.7470   25.5770   34.1510 C   0  0  0  0  0  2  0  0  0  0  0  0
   37.6790   26.8650   33.3720 C   0  0  0  0  0  2  0  0  0  0  0  0
   39.0300   27.1960   32.7860 C   0  0  0  0  0  3  0  0  0  0  0  0
   38.9980   28.2150   32.3460 H   0  0  0  0  0  0  0  0  0  0  0  0
   40.1630   27.0620   33.7600 C   0  0  0  0  0  2  0  0  0  0  0  0
   39.7330   26.6480   35.1350 C   0  0  0  0  0  2  0  0  0  0  0  0
  1  6  2  0  0  0  0
  1  2  1  0  0  0  0
  2  3  2  0  0  0  0
  3  4  1  0  0  0  0
  3  8  1  0  0  0  0
  5  9  1  0  0  0  0
  5  4  2  0  0  0  0
  6  5  1  0  0  0  0
  7  1  1  0  0  0  0
 10  2  1  0  0  0  0
 10 11  2  0  0  0  0
 12 10  1  0  0  0  0
 13 12  1  0  0  0  0
 14 13  1  0  0  0  0
 15 14  1  0  0  0  0
 15 17  1  0  0  0  0
 16 15  1  0  0  0  0
 17 18  1  0  0  0  0
 18 12  1  0  0  0  0
M  END
>  <minimizedAffinity>
-4.00154161

$$$$

 OpenBabel03262522093D

 18 19  0  0  0  0  0  0  0  0999 V2000
   37.8970   24.7940   36.6820 C   0  0  0  0  0  0  0  0  0  0  0  0
   38.0340   25.2620   35.3570 C   0  0  0  0  0  0  0  0  0  0  0  0
   38.1930   24.3110   34.3600 C   0  0  0  0  0  0  0  0  0  0  0  0
   38.2110   22.9880   34.6740 N   0  0  0  0  0  0  0  0  0  0  0  0
   38.0760   22.5780   35.9590 C   0  0  0  0  0  0  0  0  0  0  0  0
   37.9200   23.4600   36.9630 N   0  0  0  0  0  0  0  0  0  0  0  0
   37.7670   25.4480   37.5370 H   0  0  0  0  0  0  0  0  0  0  0  0
   38.2980   24.6730   33.3420 H   0  0  0  0  0  0  0  0  0  0  0  0
   38.1150   21.5010   36.0230 H   0  0  0  0  0  0  0  0  0  0  0  0
   37.9990   26.7040   35.1280 C   0  0  0  0  0  0  0  0  0  0  0  0
   38.5270   27.3980   35.9940 O   0  0  0  0  0  0  0  0  0  0  0  0
   37.4170   27.3510   34.0080 N   0  0  0  0  0  0  0  0  0  0  0  0
   36.3640   28.2540   34.4130 C   0  0  0  0  0  2  0  0  0  0  0  0
   35.9330   29.1710   33.2980 C   0  0  0  0  0  2  0  0  0  0  0  0
   35.5390   28.3710   32.0820 C   0  0  0  0  0  3  0  0  0  0  0  0
   35.3690   29.0610   31.2280 H   0  0  0  0  0  0  0  0  0  0  0  0
   36.5190   27.2930   31.7200 C   0  0  0  0  0  2  0  0  0  0  0  0
   37.7140   27.2360   32.6240 C   0  0  0  0  0  2  0  0  0  0  0  0
  1  6  1  0  0  0  0
  1  7  1  0  0  0  0
  2  1  2  0  0  0  0
  3  4  2  0  0  0  0
  3  2  1  0  0  0  0
  4  5  1  0  0  0  0
  5  9  1  0  0  0  0
  5  6  2  0  0  0  0
  8  3  1  0  0  0  0
 10  2  1  0  0  0  0
 10 11  2  0  0  0  0
 12 13  1  0  0  0  0
 12 10  1  0  0  0  0
 14 13  1  0  0  0  0
 15 14  1  0  0  0  0
 16 15  1  0  0  0  0
 17 15  1  0  0  0  0
 17 18  1  0  0  0  0
 18 12  1  0  0  0  0
M  END
>  <minimizedAffinity>
-3.98487973

$$$$

 OpenBabel03262522093D

 18 19  0  0  0  0  0  0  0  0999 V2000
   40.7390   22.1750   34.8740 C   0  0  0  0  0  0  0  0  0  0  0  0
   39.7410   22.5640   35.7920 C   0  0  0  0  0  0  0  0  0  0  0  0
   40.0040   22.3680   37.1400 C   0  0  0  0  0  0  0  0  0  0  0  0
   41.1860   21.8220   37.5320 N   0  0  0  0  0  0  0  0  0  0  0  0
   42.1210   21.4610   36.6200 C   0  0  0  0  0  0  0  0  0  0  0  0
   41.9130   21.6290   35.3010 N   0  0  0  0  0  0  0  0  0  0  0  0
   40.6390   22.2830   33.8000 H   0  0  0  0  0  0  0  0  0  0  0  0
   39.2350   22.6690   37.8440 H   0  0  0  0  0  0  0  0  0  0  0  0
   42.9910   21.0460   37.1060 H   0  0  0  0  0  0  0  0  0  0  0  0
   38.5070   23.1430   35.2650 C   0  0  0  0  0  0  0  0  0  0  0  0
   37.7240   22.3530   34.7440 O   0  0  0  0  0  0  0  0  0  0  0  0
   38.1510   24.5150   35.3080 N   0  0  0  0  0  0  0  0  0  0  0  0
   37.9600   25.0490   33.9800 C   0  0  0  0  0  2  0  0  0  0  0  0
   37.2960   26.4020   33.9940 C   0  0  0  0  0  2  0  0  0  0  0  0
   38.0700   27.3580   34.8690 C   0  0  0  0  0  3  0  0  0  0  0  0
   37.4900   28.2970   34.9870 H   0  0  0  0  0  0  0  0  0  0  0  0
   38.4520   26.7860   36.2030 C   0  0  0  0  0  2  0  0  0  0  0  0
   37.9700   25.3830   36.4180 C   0  0  0  0  0  2  0  0  0  0  0  0
  1  6  2  0  0  0  0
  1  2  1  0  0  0  0
  2  3  2  0  0  0  0
  3  4  1  0  0  0  0
  3  8  1  0  0  0  0
  5  9  1  0  0  0  0
  5  4  2  0  0  0  0
  6  5  1  0  0  0  0
  7  1  1  0  0  0  0
 10 12  1  0  0  0  0
 10  2  1  0  0  0  0
 11 10  2  0  0  0  0
 12 18  1  0  0  0  0
 13 14  1  0  0  0  0
 13 12  1  0  0  0  0
 14 15  1  0  0  0  0
 15 16  1  0  0  0  0
 15 17  1  0  0  0  0
 17 18  1  0  0  0  0
M  END
>  <minimizedAffinity>
-3.95728493

$$$$

 OpenBabel03262522093D

 18 19  0  0  0  0  0  0  0  0999 V2000
   36.8990   21.9430   36.4090 C   0  0  0  0  0  0  0  0  0  0  0  0
   37.7940   22.4690   35.4540 C   0  0  0  0  0  0  0  0  0  0  0  0
   37.6280   22.0660   34.1360 C   0  0  0  0  0  0  0  0  0  0  0  0
   36.6340   21.1980   33.8080 N   0  0  0  0  0  0  0  0  0  0  0  0
   35.7940   20.7140   34.7550 C   0  0  0  0  0  0  0  0  0  0  0  0
   35.9140   21.0730   36.0470 N   0  0  0  0  0  0  0  0  0  0  0  0
   36.9370   22.1900   37.4640 H   0  0  0  0  0  0  0  0  0  0  0  0
   38.3170   22.4720   33.4040 H   0  0  0  0  0  0  0  0  0  0  0  0
   35.0710   20.0420   34.3190 H   0  0  0  0  0  0  0  0  0  0  0  0
   38.8260   23.3960   35.9120 C   0  0  0  0  0  0  0  0  0  0  0  0
   38.5320   24.5880   35.8750 O   0  0  0  0  0  0  0  0  0  0  0  0
   40.1130   23.0330   36.3880 N   0  0  0  0  0  0  0  0  0  0  0  0
   41.1550   23.6170   35.5770 C   0  0  0  0  0  2  0  0  0  0  0  0
   42.5140   23.5060   36.2180 C   0  0  0  0  0  2  0  0  0  0  0  0
   42.8180   22.0680   36.5590 C   0  0  0  0  0  3  0  0  0  0  0  0
   43.7490   22.0230   37.1620 H   0  0  0  0  0  0  0  0  0  0  0  0
   41.6910   21.3560   37.2500 C   0  0  0  0  0  2  0  0  0  0  0  0
   40.4890   22.2190   37.4900 C   0  0  0  0  0  2  0  0  0  0  0  0
  1  7  1  0  0  0  0
  2 10  1  0  0  0  0
  2  1  2  0  0  0  0
  3  2  1  0  0  0  0
  4  3  2  0  0  0  0
  4  5  1  0  0  0  0
  5  6  2  0  0  0  0
  6  1  1  0  0  0  0
  8  3  1  0  0  0  0
  9  5  1  0  0  0  0
 10 12  1  0  0  0  0
 11 10  2  0  0  0  0
 12 18  1  0  0  0  0
 13 14  1  0  0  0  0
 13 12  1  0  0  0  0
 14 15  1  0  0  0  0
 15 16  1  0  0  0  0
 15 17  1  0  0  0  0
 17 18  1  0  0  0  0
M  END
>  <minimizedAffinity>
-3.95094085

$$$$
