
 OpenBabel03272509443D

 36 38  0  0  1  0  0  0  0  0999 V2000
   36.4400   28.3560   31.9470 C   0  0  0  0  0  0  0  0  0  0  0  0
   35.7300   29.5550   31.8830 C   0  0  0  0  0  0  0  0  0  0  0  0
   35.3090   30.2210   33.0220 C   0  0  0  0  0  0  0  0  0  0  0  0
   35.6010   29.6840   34.2770 C   0  0  0  0  0  0  0  0  0  0  0  0
   36.2960   28.5110   34.3290 C   0  0  0  0  0  0  0  0  0  0  0  0
   36.6990   27.8720   33.1670 C   0  0  0  0  0  0  0  0  0  0  0  0
   35.4880   29.9960   30.9100 H   0  0  0  0  0  0  0  0  0  0  0  0
   34.7660   31.1390   32.8880 H   0  0  0  0  0  0  0  0  0  0  0  0
   35.2340   30.2740   35.0910 H   0  0  0  0  0  0  0  0  0  0  0  0
   36.4440   28.2230   35.3710 H   0  0  0  0  0  0  0  0  0  0  0  0
   36.8490   27.6420   30.7560 C   0  0  2  0  0  0  0  0  0  0  0  0
   37.4900   26.7570   31.1400 H   0  0  0  0  0  0  0  0  0  0  0  0
   38.5540   29.3010   28.0110 C   0  0  0  0  0  0  0  0  0  0  0  0
   39.8870   29.2460   28.3570 C   0  0  0  0  0  0  0  0  0  0  0  0
   40.2270   28.5770   29.5160 C   0  0  0  0  0  0  0  0  0  0  0  0
   39.2370   27.9950   30.2790 N   0  0  0  0  0  0  0  0  0  0  0  0
   37.9810   28.0870   29.8950 C   0  0  0  0  0  0  0  0  0  0  0  0
   37.6290   28.7350   28.7620 N   0  0  0  0  0  0  0  0  0  0  0  0
   38.3370   29.8260   27.1070 H   0  0  0  0  0  0  0  0  0  0  0  0
   40.7150   29.6770   27.8080 H   0  0  0  0  0  0  0  0  0  0  0  0
   41.2520   28.4640   29.8910 H   0  0  0  0  0  0  0  0  0  0  0  0
   35.8970   26.9380   30.2560 O   0  0  0  0  0  0  0  0  0  0  0  0
   35.5150   27.0670   29.3760 H   0  0  0  0  0  0  0  0  0  0  0  0
   37.3990   26.6250   33.3670 C   0  0  0  0  0  3  0  0  0  0  0  0
   38.6840   26.5350   33.7250 C   0  0  0  0  0  3  0  0  0  0  0  0
   39.4860   25.3180   33.9960 C   0  0  0  0  0  0  0  0  0  0  0  0
   40.2380   25.5000   34.8060 H   0  0  0  0  0  0  0  0  0  0  0  0
   40.0960   25.0440   33.1050 H   0  0  0  0  0  0  0  0  0  0  0  0
   38.3890   23.9450   34.3640 S   0  0  0  0  0  0  0  0  0  0  0  0
   38.1270   22.0580   38.1600 H   0  0  0  0  0  0  0  0  0  0  0  0
   38.7680   22.7700   38.5430 N   0  0  0  0  0  0  0  0  0  0  0  0
   38.1710   24.0890   38.4500 C   0  0  0  0  0  2  0  0  0  0  0  0
   38.0230   24.5620   37.0170 C   0  0  0  0  0  2  0  0  0  0  0  0
   38.4440   23.4320   36.1000 C   0  0  0  0  0  3  0  0  0  0  0  0
   39.8930   23.1020   36.4190 C   0  0  0  0  0  2  0  0  0  0  0  0
   40.0590   22.7520   37.8700 C   0  0  0  0  0  2  0  0  0  0  0  0
  1  6  1  0  0  0  0
  2  1  2  0  0  0  0
  2  3  1  0  0  0  0
  3  4  2  0  0  0  0
  4  5  1  0  0  0  0
  4  9  1  0  0  0  0
  5 10  1  0  0  0  0
  6 24  1  0  0  0  0
  6  5  2  0  0  0  0
  7  2  1  0  0  0  0
  8  3  1  0  0  0  0
 11 12  1  1  0  0  0
 11  1  1  0  0  0  0
 13 14  2  0  0  0  0
 13 18  1  0  0  0  0
 14 15  1  0  0  0  0
 15 21  1  0  0  0  0
 15 16  2  0  0  0  0
 17 16  1  0  0  0  0
 17 11  1  0  0  0  0
 18 17  2  0  0  0  0
 19 13  1  0  0  0  0
 20 14  1  0  0  0  0
 22 11  1  0  0  0  0
 23 22  1  0  0  0  0
 24 25  2  0  0  0  0
 25 26  1  0  0  0  0
 26 29  1  0  0  0  0
 26 27  1  0  0  0  0
 28 26  1  0  0  0  0
 29 34  1  0  0  0  0
 30 31  1  0  0  0  0
 32 31  1  0  0  0  0
 33 32  1  0  0  0  0
 34 35  1  0  0  0  0
 34 33  1  0  0  0  0
 35 36  1  0  0  0  0
 36 31  1  0  0  0  0
M  END
>  <minimizedAffinity>
-5.87834787

$$$$

 OpenBabel03272509443D

 36 38  0  0  1  0  0  0  0  0999 V2000
   39.0940   26.9560   34.1720 C   0  0  0  0  0  0  0  0  0  0  0  0
   38.0770   27.2400   33.2600 C   0  0  0  0  0  0  0  0  0  0  0  0
   38.3370   27.4750   31.9200 C   0  0  0  0  0  0  0  0  0  0  0  0
   39.6540   27.4280   31.4580 C   0  0  0  0  0  0  0  0  0  0  0  0
   40.6410   27.1490   32.3580 C   0  0  0  0  0  0  0  0  0  0  0  0
   40.3430   26.9210   33.6920 C   0  0  0  0  0  0  0  0  0  0  0  0
   37.0370   27.2830   33.5980 H   0  0  0  0  0  0  0  0  0  0  0  0
   37.4990   27.6870   31.2820 H   0  0  0  0  0  0  0  0  0  0  0  0
   39.7470   27.6210   30.4100 H   0  0  0  0  0  0  0  0  0  0  0  0
   41.6060   27.1490   31.8490 H   0  0  0  0  0  0  0  0  0  0  0  0
   38.8270   26.7460   35.5780 C   0  0  2  0  0  0  0  0  0  0  0  0
   39.8630   26.5540   36.0580 H   0  0  0  0  0  0  0  0  0  0  0  0
   38.0570   23.1960   35.6690 C   0  0  0  0  0  0  0  0  0  0  0  0
   37.7790   22.9430   36.9950 C   0  0  0  0  0  0  0  0  0  0  0  0
   37.7910   24.0100   37.8730 C   0  0  0  0  0  0  0  0  0  0  0  0
   38.0760   25.2730   37.4020 N   0  0  0  0  0  0  0  0  0  0  0  0
   38.3360   25.4480   36.1230 C   0  0  0  0  0  0  0  0  0  0  0  0
   38.3270   24.4160   35.2480 N   0  0  0  0  0  0  0  0  0  0  0  0
   38.0350   22.3440   35.0260 H   0  0  0  0  0  0  0  0  0  0  0  0
   37.5480   21.9810   37.4340 H   0  0  0  0  0  0  0  0  0  0  0  0
   37.5820   23.9320   38.9470 H   0  0  0  0  0  0  0  0  0  0  0  0
   38.5700   27.8420   36.1980 O   0  0  0  0  0  0  0  0  0  0  0  0
   37.7330   28.0490   36.6370 H   0  0  0  0  0  0  0  0  0  0  0  0
   41.4860   26.6700   34.5390 C   0  0  0  0  0  3  0  0  0  0  0  0
   42.1070   25.4900   34.6270 C   0  0  0  0  0  3  0  0  0  0  0  0
   43.3040   25.1330   35.4260 C   0  0  0  0  0  0  0  0  0  0  0  0
   43.1270   25.3000   36.5200 H   0  0  0  0  0  0  0  0  0  0  0  0
   44.1580   25.8030   35.1760 H   0  0  0  0  0  0  0  0  0  0  0  0
   43.7930   23.4450   35.0540 S   0  0  0  0  0  0  0  0  0  0  0  0
   42.9620   21.1070   38.5000 H   0  0  0  0  0  0  0  0  0  0  0  0
   42.2360   20.6030   37.9670 N   0  0  0  0  0  0  0  0  0  0  0  0
   42.8320   19.8940   36.8500 C   0  0  0  0  0  2  0  0  0  0  0  0
   43.3830   20.8310   35.7920 C   0  0  0  0  0  2  0  0  0  0  0  0
   43.2450   22.2510   36.3000 C   0  0  0  0  0  3  0  0  0  0  0  0
   41.7660   22.5080   36.5390 C   0  0  0  0  0  2  0  0  0  0  0  0
   41.1920   21.5020   37.4960 C   0  0  0  0  0  2  0  0  0  0  0  0
  1 11  1  0  0  0  0
  2  7  1  0  0  0  0
  2  1  2  0  0  0  0
  3  2  1  0  0  0  0
  4  3  2  0  0  0  0
  4  5  1  0  0  0  0
  5  6  2  0  0  0  0
  6  1  1  0  0  0  0
  6 24  1  0  0  0  0
  8  3  1  0  0  0  0
  9  4  1  0  0  0  0
 10  5  1  0  0  0  0
 11 12  1  1  0  0  0
 11 17  1  0  0  0  0
 11 22  1  0  0  0  0
 13 14  1  0  0  0  0
 14 20  1  0  0  0  0
 14 15  2  0  0  0  0
 15 21  1  0  0  0  0
 16 15  1  0  0  0  0
 17 16  2  0  0  0  0
 18 13  2  0  0  0  0
 18 17  1  0  0  0  0
 19 13  1  0  0  0  0
 22 23  1  0  0  0  0
 24 25  2  0  0  0  0
 25 26  1  0  0  0  0
 26 27  1  0  0  0  0
 28 26  1  0  0  0  0
 29 26  1  0  0  0  0
 29 34  1  0  0  0  0
 31 30  1  0  0  0  0
 32 31  1  0  0  0  0
 33 34  1  0  0  0  0
 33 32  1  0  0  0  0
 34 35  1  0  0  0  0
 35 36  1  0  0  0  0
 36 31  1  0  0  0  0
M  END
>  <minimizedAffinity>
-5.74985695

$$$$

 OpenBabel03272509443D

 36 38  0  0  1  0  0  0  0  0999 V2000
   36.1170   28.7650   32.2210 C   0  0  0  0  0  0  0  0  0  0  0  0
   35.2790   29.7210   31.6470 C   0  0  0  0  0  0  0  0  0  0  0  0
   34.4660   30.5390   32.4130 C   0  0  0  0  0  0  0  0  0  0  0  0
   34.4780   30.4120   33.8030 C   0  0  0  0  0  0  0  0  0  0  0  0
   35.3020   29.4740   34.3550 C   0  0  0  0  0  0  0  0  0  0  0  0
   36.1010   28.6720   33.5560 C   0  0  0  0  0  0  0  0  0  0  0  0
   35.2510   29.8400   30.5590 H   0  0  0  0  0  0  0  0  0  0  0  0
   33.8480   31.2510   31.8940 H   0  0  0  0  0  0  0  0  0  0  0  0
   33.8170   31.0900   34.3010 H   0  0  0  0  0  0  0  0  0  0  0  0
   35.1990   29.4960   35.4410 H   0  0  0  0  0  0  0  0  0  0  0  0
   36.9410   27.8870   31.4190 C   0  0  2  0  0  0  0  0  0  0  0  0
   36.6900   28.1550   30.3210 H   0  0  0  0  0  0  0  0  0  0  0  0
   37.4250   24.3210   30.9140 C   0  0  0  0  0  0  0  0  0  0  0  0
   36.1530   23.7950   30.9710 C   0  0  0  0  0  0  0  0  0  0  0  0
   35.0970   24.6720   31.1220 C   0  0  0  0  0  0  0  0  0  0  0  0
   35.3450   26.0250   31.2100 N   0  0  0  0  0  0  0  0  0  0  0  0
   36.5850   26.4640   31.1520 C   0  0  0  0  0  0  0  0  0  0  0  0
   37.6320   25.6210   31.0020 N   0  0  0  0  0  0  0  0  0  0  0  0
   38.2110   23.6080   30.7950 H   0  0  0  0  0  0  0  0  0  0  0  0
   35.8840   22.7480   30.9090 H   0  0  0  0  0  0  0  0  0  0  0  0
   34.0430   24.3720   31.1770 H   0  0  0  0  0  0  0  0  0  0  0  0
   38.1710   28.2580   31.3910 O   0  0  0  0  0  0  0  0  0  0  0  0
   38.9160   27.7400   31.7280 H   0  0  0  0  0  0  0  0  0  0  0  0
   36.8990   27.7020   34.2690 C   0  0  0  0  0  3  0  0  0  0  0  0
   37.7350   28.0070   35.2660 C   0  0  0  0  0  3  0  0  0  0  0  0
   38.5650   27.0950   36.0890 C   0  0  0  0  0  0  0  0  0  0  0  0
   37.9750   26.6610   36.9360 H   0  0  0  0  0  0  0  0  0  0  0  0
   39.3920   27.6550   36.5820 H   0  0  0  0  0  0  0  0  0  0  0  0
   39.2960   25.8360   35.0370 S   0  0  0  0  0  0  0  0  0  0  0  0
   39.0260   21.8580   36.5020 H   0  0  0  0  0  0  0  0  0  0  0  0
   38.0110   21.8730   36.3160 N   0  0  0  0  0  0  0  0  0  0  0  0
   37.7610   22.0430   34.8980 C   0  0  0  0  0  2  0  0  0  0  0  0
   38.1760   23.4110   34.3920 C   0  0  0  0  0  2  0  0  0  0  0  0
   38.8510   24.1500   35.5280 C   0  0  0  0  0  3  0  0  0  0  0  0
   37.8420   24.2690   36.6580 C   0  0  0  0  0  2  0  0  0  0  0  0
   37.3390   22.9160   37.0760 C   0  0  0  0  0  2  0  0  0  0  0  0
  1  6  1  0  0  0  0
  2  1  2  0  0  0  0
  2  3  1  0  0  0  0
  3  4  2  0  0  0  0
  4  9  1  0  0  0  0
  4  5  1  0  0  0  0
  5 10  1  0  0  0  0
  6 24  1  0  0  0  0
  6  5  2  0  0  0  0
  7  2  1  0  0  0  0
  8  3  1  0  0  0  0
 11 12  1  6  0  0  0
 11  1  1  0  0  0  0
 13 14  2  0  0  0  0
 13 18  1  0  0  0  0
 14 15  1  0  0  0  0
 15 21  1  0  0  0  0
 15 16  2  0  0  0  0
 17 16  1  0  0  0  0
 17 11  1  0  0  0  0
 18 17  2  0  0  0  0
 19 13  1  0  0  0  0
 20 14  1  0  0  0  0
 22 11  1  0  0  0  0
 22 23  1  0  0  0  0
 24 25  2  0  0  0  0
 25 26  1  0  0  0  0
 26 28  1  0  0  0  0
 26 27  1  0  0  0  0
 29 34  1  0  0  0  0
 29 26  1  0  0  0  0
 31 30  1  0  0  0  0
 31 36  1  0  0  0  0
 32 31  1  0  0  0  0
 33 32  1  0  0  0  0
 33 34  1  0  0  0  0
 34 35  1  0  0  0  0
 35 36  1  0  0  0  0
M  END
>  <minimizedAffinity>
-5.6347723

$$$$

 OpenBabel03272509443D

 36 38  0  0  1  0  0  0  0  0999 V2000
   35.5980   30.3360   33.6820 C   0  0  0  0  0  0  0  0  0  0  0  0
   35.4430   31.2210   32.6160 C   0  0  0  0  0  0  0  0  0  0  0  0
   35.7660   30.8680   31.3160 C   0  0  0  0  0  0  0  0  0  0  0  0
   36.2610   29.5890   31.0550 C   0  0  0  0  0  0  0  0  0  0  0  0
   36.4080   28.7300   32.1060 C   0  0  0  0  0  0  0  0  0  0  0  0
   36.0760   29.1200   33.3940 C   0  0  0  0  0  0  0  0  0  0  0  0
   35.0570   32.2300   32.7940 H   0  0  0  0  0  0  0  0  0  0  0  0
   35.6190   31.6080   30.5490 H   0  0  0  0  0  0  0  0  0  0  0  0
   36.4780   29.4160   30.0220 H   0  0  0  0  0  0  0  0  0  0  0  0
   36.8030   27.7800   31.7440 H   0  0  0  0  0  0  0  0  0  0  0  0
   35.2940   30.7160   35.0450 C   0  0  2  0  0  0  0  0  0  0  0  0
   35.4270   29.7480   35.6660 H   0  0  0  0  0  0  0  0  0  0  0  0
   31.8340   29.8170   35.6930 C   0  0  0  0  0  0  0  0  0  0  0  0
   31.4130   30.7390   36.6260 C   0  0  0  0  0  0  0  0  0  0  0  0
   32.2990   31.7290   37.0020 C   0  0  0  0  0  0  0  0  0  0  0  0
   33.5580   31.7630   36.4410 N   0  0  0  0  0  0  0  0  0  0  0  0
   33.9000   30.8490   35.5560 C   0  0  0  0  0  0  0  0  0  0  0  0
   33.0450   29.8740   35.1730 N   0  0  0  0  0  0  0  0  0  0  0  0
   31.1160   29.0710   35.4300 H   0  0  0  0  0  0  0  0  0  0  0  0
   30.4430   30.7740   37.1070 H   0  0  0  0  0  0  0  0  0  0  0  0
   32.0770   32.5180   37.7310 H   0  0  0  0  0  0  0  0  0  0  0  0
   36.2460   31.3830   35.5920 O   0  0  0  0  0  0  0  0  0  0  0  0
   36.1750   32.2950   35.9070 H   0  0  0  0  0  0  0  0  0  0  0  0
   36.3110   28.1240   34.4120 C   0  0  0  0  0  3  0  0  0  0  0  0
   37.5120   27.6110   34.6960 C   0  0  0  0  0  3  0  0  0  0  0  0
   37.8720   26.6210   35.7400 C   0  0  0  0  0  0  0  0  0  0  0  0
   37.0820   26.5610   36.5320 H   0  0  0  0  0  0  0  0  0  0  0  0
   38.7890   26.9410   36.2840 H   0  0  0  0  0  0  0  0  0  0  0  0
   38.2050   25.0320   34.9720 S   0  0  0  0  0  0  0  0  0  0  0  0
   39.1790   21.5540   37.2050 H   0  0  0  0  0  0  0  0  0  0  0  0
   39.8170   22.1210   37.7860 N   0  0  0  0  0  0  0  0  0  0  0  0
   39.0750   23.1430   38.4990 C   0  0  0  0  0  2  0  0  0  0  0  0
   38.4980   24.1970   37.5740 C   0  0  0  0  0  2  0  0  0  0  0  0
   38.7790   23.7780   36.1460 C   0  0  0  0  0  3  0  0  0  0  0  0
   40.2880   23.6810   35.9880 C   0  0  0  0  0  2  0  0  0  0  0  0
   40.8740   22.7270   36.9890 C   0  0  0  0  0  2  0  0  0  0  0  0
  1 11  1  0  0  0  0
  2  7  1  0  0  0  0
  2  1  2  0  0  0  0
  3  2  1  0  0  0  0
  4  3  2  0  0  0  0
  4  5  1  0  0  0  0
  5  6  2  0  0  0  0
  6  1  1  0  0  0  0
  6 24  1  0  0  0  0
  8  3  1  0  0  0  0
  9  4  1  0  0  0  0
 10  5  1  0  0  0  0
 11 17  1  0  0  0  0
 11 22  1  0  0  0  0
 11 12  1  1  0  0  0
 13 14  1  0  0  0  0
 14 15  2  0  0  0  0
 14 20  1  0  0  0  0
 15 21  1  0  0  0  0
 16 15  1  0  0  0  0
 17 16  2  0  0  0  0
 18 17  1  0  0  0  0
 18 13  2  0  0  0  0
 19 13  1  0  0  0  0
 22 23  1  0  0  0  0
 24 25  2  0  0  0  0
 25 26  1  0  0  0  0
 26 28  1  0  0  0  0
 26 27  1  0  0  0  0
 29 26  1  0  0  0  0
 29 34  1  0  0  0  0
 30 31  1  0  0  0  0
 31 32  1  0  0  0  0
 33 32  1  0  0  0  0
 34 33  1  0  0  0  0
 35 34  1  0  0  0  0
 35 36  1  0  0  0  0
 36 31  1  0  0  0  0
M  END
>  <minimizedAffinity>
-5.53278971

$$$$

 OpenBabel03272509443D

 36 38  0  0  1  0  0  0  0  0999 V2000
   38.0360   26.8020   33.3390 C   0  0  0  0  0  0  0  0  0  0  0  0
   39.1680   26.2530   33.9410 C   0  0  0  0  0  0  0  0  0  0  0  0
   39.5160   26.5390   35.2510 C   0  0  0  0  0  0  0  0  0  0  0  0
   38.7150   27.4030   36.0000 C   0  0  0  0  0  0  0  0  0  0  0  0
   37.6090   27.9350   35.4020 C   0  0  0  0  0  0  0  0  0  0  0  0
   37.2940   27.6260   34.0880 C   0  0  0  0  0  0  0  0  0  0  0  0
   39.8130   25.5730   33.3740 H   0  0  0  0  0  0  0  0  0  0  0  0
   40.4040   26.0760   35.6410 H   0  0  0  0  0  0  0  0  0  0  0  0
   39.0680   27.5570   36.9980 H   0  0  0  0  0  0  0  0  0  0  0  0
   37.0920   28.5840   36.1100 H   0  0  0  0  0  0  0  0  0  0  0  0
   37.6920   26.5300   31.9600 C   0  0  2  0  0  0  0  0  0  0  0  0
   36.6680   27.0460   31.7970 H   0  0  0  0  0  0  0  0  0  0  0  0
   37.6030   23.0860   30.8080 C   0  0  0  0  0  0  0  0  0  0  0  0
   36.2840   22.7150   30.9520 C   0  0  0  0  0  0  0  0  0  0  0  0
   35.3870   23.6690   31.3910 C   0  0  0  0  0  0  0  0  0  0  0  0
   35.8330   24.9440   31.6670 N   0  0  0  0  0  0  0  0  0  0  0  0
   37.1090   25.2340   31.5120 C   0  0  0  0  0  0  0  0  0  0  0  0
   38.0010   24.3130   31.0810 N   0  0  0  0  0  0  0  0  0  0  0  0
   38.2600   22.3180   30.4650 H   0  0  0  0  0  0  0  0  0  0  0  0
   35.8630   21.7360   30.7550 H   0  0  0  0  0  0  0  0  0  0  0  0
   34.3150   23.4930   31.5400 H   0  0  0  0  0  0  0  0  0  0  0  0
   38.3630   27.2530   31.1360 O   0  0  0  0  0  0  0  0  0  0  0  0
   38.9770   26.9130   30.4710 H   0  0  0  0  0  0  0  0  0  0  0  0
   36.1160   28.2830   33.5730 C   0  0  0  0  0  3  0  0  0  0  0  0
   35.4880   29.2890   34.1890 C   0  0  0  0  0  3  0  0  0  0  0  0
   34.3050   30.0580   33.7350 C   0  0  0  0  0  0  0  0  0  0  0  0
   33.8090   29.5620   32.8610 H   0  0  0  0  0  0  0  0  0  0  0  0
   34.6100   31.0580   33.3520 H   0  0  0  0  0  0  0  0  0  0  0  0
   33.1850   30.3070   35.1160 S   0  0  0  0  0  0  0  0  0  0  0  0
   31.8970   26.4490   36.3380 H   0  0  0  0  0  0  0  0  0  0  0  0
   30.9430   26.8210   36.4630 N   0  0  0  0  0  0  0  0  0  0  0  0
   30.4160   27.2920   35.1960 C   0  0  0  0  0  2  0  0  0  0  0  0
   31.1470   28.5160   34.6790 C   0  0  0  0  0  2  0  0  0  0  0  0
   32.3090   28.8000   35.6080 C   0  0  0  0  0  3  0  0  0  0  0  0
   31.7340   29.0530   36.9920 C   0  0  0  0  0  2  0  0  0  0  0  0
   30.9060   27.8870   37.4530 C   0  0  0  0  0  2  0  0  0  0  0  0
  1  2  2  0  0  0  0
  1  6  1  0  0  0  0
  2  3  1  0  0  0  0
  3  8  1  0  0  0  0
  3  4  2  0  0  0  0
  4  9  1  0  0  0  0
  5  4  1  0  0  0  0
  5 10  1  0  0  0  0
  6  5  2  0  0  0  0
  7  2  1  0  0  0  0
 11 12  1  6  0  0  0
 11  1  1  0  0  0  0
 13 14  2  0  0  0  0
 13 18  1  0  0  0  0
 14 15  1  0  0  0  0
 15 21  1  0  0  0  0
 15 16  2  0  0  0  0
 17 16  1  0  0  0  0
 17 11  1  0  0  0  0
 18 17  2  0  0  0  0
 19 13  1  0  0  0  0
 20 14  1  0  0  0  0
 22 11  1  0  0  0  0
 23 22  1  0  0  0  0
 24  6  1  0  0  0  0
 24 25  2  0  0  0  0
 26 25  1  0  0  0  0
 26 29  1  0  0  0  0
 27 26  1  0  0  0  0
 28 26  1  0  0  0  0
 29 34  1  0  0  0  0
 30 31  1  0  0  0  0
 31 36  1  0  0  0  0
 32 31  1  0  0  0  0
 33 32  1  0  0  0  0
 33 34  1  0  0  0  0
 34 35  1  0  0  0  0
 35 36  1  0  0  0  0
M  END
>  <minimizedAffinity>
-5.51592541

$$$$

 OpenBabel03272509443D

 36 38  0  0  1  0  0  0  0  0999 V2000
   39.8960   23.0020   36.5630 C   0  0  0  0  0  0  0  0  0  0  0  0
   40.5850   22.0240   37.2790 C   0  0  0  0  0  0  0  0  0  0  0  0
   41.9390   21.7970   37.0970 C   0  0  0  0  0  0  0  0  0  0  0  0
   42.6450   22.5660   36.1710 C   0  0  0  0  0  0  0  0  0  0  0  0
   41.9610   23.5210   35.4750 C   0  0  0  0  0  0  0  0  0  0  0  0
   40.6060   23.7180   35.6830 C   0  0  0  0  0  0  0  0  0  0  0  0
   40.0540   21.4060   38.0120 H   0  0  0  0  0  0  0  0  0  0  0  0
   42.3970   21.0240   37.6880 H   0  0  0  0  0  0  0  0  0  0  0  0
   43.6830   22.3140   36.1060 H   0  0  0  0  0  0  0  0  0  0  0  0
   42.6450   24.0320   34.7950 H   0  0  0  0  0  0  0  0  0  0  0  0
   38.4740   23.2150   36.7280 C   0  0  2  0  0  0  0  0  0  0  0  0
   38.2020   22.6820   37.7190 H   0  0  0  0  0  0  0  0  0  0  0  0
   36.9080   21.3910   34.0050 C   0  0  0  0  0  0  0  0  0  0  0  0
   35.8690   20.7130   34.6040 C   0  0  0  0  0  0  0  0  0  0  0  0
   35.6510   20.9240   35.9520 C   0  0  0  0  0  0  0  0  0  0  0  0
   36.4680   21.7920   36.6440 N   0  0  0  0  0  0  0  0  0  0  0  0
   37.4470   22.4070   36.0120 C   0  0  0  0  0  0  0  0  0  0  0  0
   37.6730   22.2150   34.6930 N   0  0  0  0  0  0  0  0  0  0  0  0
   37.0380   21.1990   32.9620 H   0  0  0  0  0  0  0  0  0  0  0  0
   35.1890   20.0190   34.1260 H   0  0  0  0  0  0  0  0  0  0  0  0
   34.8550   20.4450   36.5350 H   0  0  0  0  0  0  0  0  0  0  0  0
   38.1990   24.4100   37.1140 O   0  0  0  0  0  0  0  0  0  0  0  0
   37.6760   25.0490   36.6120 H   0  0  0  0  0  0  0  0  0  0  0  0
   40.0030   24.7390   34.8570 C   0  0  0  0  0  3  0  0  0  0  0  0
   40.4050   26.0130   34.8280 C   0  0  0  0  0  3  0  0  0  0  0  0
   39.8900   27.1260   33.9960 C   0  0  0  0  0  0  0  0  0  0  0  0
   40.3910   28.0940   34.2570 H   0  0  0  0  0  0  0  0  0  0  0  0
   38.8110   27.3060   34.2050 H   0  0  0  0  0  0  0  0  0  0  0  0
   40.0580   26.7050   32.2590 S   0  0  0  0  0  0  0  0  0  0  0  0
   36.5570   26.4290   29.8710 H   0  0  0  0  0  0  0  0  0  0  0  0
   36.2760   27.3670   30.1970 N   0  0  0  0  0  0  0  0  0  0  0  0
   37.2490   28.3590   29.7810 C   0  0  0  0  0  2  0  0  0  0  0  0
   38.5870   28.1900   30.4740 C   0  0  0  0  0  2  0  0  0  0  0  0
   38.5280   26.9330   31.3170 C   0  0  0  0  0  3  0  0  0  0  0  0
   37.4080   27.1150   32.3290 C   0  0  0  0  0  2  0  0  0  0  0  0
   36.1040   27.4050   31.6420 C   0  0  0  0  0  2  0  0  0  0  0  0
  1 11  1  0  0  0  0
  1  2  1  0  0  0  0
  2  7  1  0  0  0  0
  3  2  2  0  0  0  0
  3  8  1  0  0  0  0
  4  3  1  0  0  0  0
  5  6  1  0  0  0  0
  5  4  2  0  0  0  0
  6  1  2  0  0  0  0
  9  4  1  0  0  0  0
 10  5  1  0  0  0  0
 11 22  1  0  0  0  0
 11 12  1  1  0  0  0
 13 14  2  0  0  0  0
 13 18  1  0  0  0  0
 14 15  1  0  0  0  0
 15 21  1  0  0  0  0
 15 16  2  0  0  0  0
 17 16  1  0  0  0  0
 17 11  1  0  0  0  0
 18 17  2  0  0  0  0
 19 13  1  0  0  0  0
 20 14  1  0  0  0  0
 23 22  1  0  0  0  0
 24  6  1  0  0  0  0
 25 24  2  0  0  0  0
 26 28  1  0  0  0  0
 26 27  1  0  0  0  0
 26 25  1  0  0  0  0
 29 26  1  0  0  0  0
 30 31  1  0  0  0  0
 31 36  1  0  0  0  0
 32 31  1  0  0  0  0
 32 33  1  0  0  0  0
 33 34  1  0  0  0  0
 34 29  1  0  0  0  0
 34 35  1  0  0  0  0
 36 35  1  0  0  0  0
M  END
>  <minimizedAffinity>
-5.48093128

$$$$

 OpenBabel03272509443D

 36 38  0  0  1  0  0  0  0  0999 V2000
   37.8080   27.0800   33.2300 C   0  0  0  0  0  0  0  0  0  0  0  0
   39.0290   26.5360   33.6320 C   0  0  0  0  0  0  0  0  0  0  0  0
   39.4970   26.6630   34.9290 C   0  0  0  0  0  0  0  0  0  0  0  0
   38.7320   27.3530   35.8700 C   0  0  0  0  0  0  0  0  0  0  0  0
   37.5390   27.8810   35.4670 C   0  0  0  0  0  0  0  0  0  0  0  0
   37.1040   27.7350   34.1590 C   0  0  0  0  0  0  0  0  0  0  0  0
   39.6480   25.9910   32.9120 H   0  0  0  0  0  0  0  0  0  0  0  0
   40.4470   26.2160   35.1590 H   0  0  0  0  0  0  0  0  0  0  0  0
   39.1800   27.3940   36.8410 H   0  0  0  0  0  0  0  0  0  0  0  0
   37.0640   28.3860   36.3090 H   0  0  0  0  0  0  0  0  0  0  0  0
   37.3350   26.9770   31.8660 C   0  0  2  0  0  0  0  0  0  0  0  0
   38.0430   26.2150   31.3570 H   0  0  0  0  0  0  0  0  0  0  0  0
   36.9270   29.8840   29.7250 C   0  0  0  0  0  0  0  0  0  0  0  0
   38.1740   30.0750   29.1710 C   0  0  0  0  0  0  0  0  0  0  0  0
   39.1640   29.1630   29.4780 C   0  0  0  0  0  0  0  0  0  0  0  0
   38.8790   28.1070   30.3170 N   0  0  0  0  0  0  0  0  0  0  0  0
   37.6670   27.9830   30.8170 C   0  0  0  0  0  0  0  0  0  0  0  0
   36.6830   28.8650   30.5260 N   0  0  0  0  0  0  0  0  0  0  0  0
   36.1920   30.6110   29.4600 H   0  0  0  0  0  0  0  0  0  0  0  0
   38.4690   30.8780   28.5070 H   0  0  0  0  0  0  0  0  0  0  0  0
   40.1920   29.2090   29.0960 H   0  0  0  0  0  0  0  0  0  0  0  0
   36.2610   26.2780   31.7710 O   0  0  0  0  0  0  0  0  0  0  0  0
   35.4080   26.6100   31.4570 H   0  0  0  0  0  0  0  0  0  0  0  0
   35.8410   28.3690   33.8620 C   0  0  0  0  0  3  0  0  0  0  0  0
   35.5310   29.6220   34.2090 C   0  0  0  0  0  3  0  0  0  0  0  0
   34.2910   30.3820   33.9220 C   0  0  0  0  0  0  0  0  0  0  0  0
   33.7470   29.9540   33.0410 H   0  0  0  0  0  0  0  0  0  0  0  0
   34.5310   31.4270   33.6220 H   0  0  0  0  0  0  0  0  0  0  0  0
   33.2720   30.4460   35.3990 S   0  0  0  0  0  0  0  0  0  0  0  0
   31.9320   26.5010   36.2200 H   0  0  0  0  0  0  0  0  0  0  0  0
   30.9730   26.8640   36.3340 N   0  0  0  0  0  0  0  0  0  0  0  0
   30.5030   27.4460   35.0910 C   0  0  0  0  0  2  0  0  0  0  0  0
   31.2570   28.7070   34.7160 C   0  0  0  0  0  2  0  0  0  0  0  0
   32.3750   28.9050   35.7180 C   0  0  0  0  0  3  0  0  0  0  0  0
   31.7390   29.0380   37.0920 C   0  0  0  0  0  2  0  0  0  0  0  0
   30.8920   27.8390   37.4110 C   0  0  0  0  0  2  0  0  0  0  0  0
  1  2  2  0  0  0  0
  1  6  1  0  0  0  0
  2  3  1  0  0  0  0
  3  8  1  0  0  0  0
  3  4  2  0  0  0  0
  4  9  1  0  0  0  0
  5  4  1  0  0  0  0
  5 10  1  0  0  0  0
  6  5  2  0  0  0  0
  7  2  1  0  0  0  0
 11 12  1  6  0  0  0
 11  1  1  0  0  0  0
 13 18  1  0  0  0  0
 14 15  1  0  0  0  0
 14 13  2  0  0  0  0
 15 16  2  0  0  0  0
 16 17  1  0  0  0  0
 17 11  1  0  0  0  0
 18 17  2  0  0  0  0
 19 13  1  0  0  0  0
 20 14  1  0  0  0  0
 21 15  1  0  0  0  0
 22 11  1  0  0  0  0
 23 22  1  0  0  0  0
 24  6  1  0  0  0  0
 24 25  2  0  0  0  0
 26 25  1  0  0  0  0
 26 29  1  0  0  0  0
 27 26  1  0  0  0  0
 28 26  1  0  0  0  0
 29 34  1  0  0  0  0
 30 31  1  0  0  0  0
 31 36  1  0  0  0  0
 32 31  1  0  0  0  0
 33 32  1  0  0  0  0
 33 34  1  0  0  0  0
 34 35  1  0  0  0  0
 35 36  1  0  0  0  0
M  END
>  <minimizedAffinity>
-5.37329149

$$$$

 OpenBabel03272509443D

 36 38  0  0  1  0  0  0  0  0999 V2000
   39.2190   26.1310   34.6850 C   0  0  0  0  0  0  0  0  0  0  0  0
   38.9480   27.1120   35.6380 C   0  0  0  0  0  0  0  0  0  0  0  0
   37.7940   27.8770   35.5970 C   0  0  0  0  0  0  0  0  0  0  0  0
   36.8680   27.6660   34.5740 C   0  0  0  0  0  0  0  0  0  0  0  0
   37.1430   26.7040   33.6460 C   0  0  0  0  0  0  0  0  0  0  0  0
   38.3100   25.9590   33.7190 C   0  0  0  0  0  0  0  0  0  0  0  0
   39.6590   27.2970   36.4510 H   0  0  0  0  0  0  0  0  0  0  0  0
   37.6580   28.6130   36.3690 H   0  0  0  0  0  0  0  0  0  0  0  0
   36.0120   28.3060   34.6320 H   0  0  0  0  0  0  0  0  0  0  0  0
   36.3320   26.6610   32.9170 H   0  0  0  0  0  0  0  0  0  0  0  0
   40.4420   25.3560   34.7080 C   0  0  2  0  0  0  0  0  0  0  0  0
   40.4130   24.7180   33.7420 H   0  0  0  0  0  0  0  0  0  0  0  0
   42.1220   22.7370   36.5830 C   0  0  0  0  0  0  0  0  0  0  0  0
   41.1020   22.0750   37.2290 C   0  0  0  0  0  0  0  0  0  0  0  0
   39.8060   22.4820   36.9790 C   0  0  0  0  0  0  0  0  0  0  0  0
   39.5780   23.5230   36.1040 N   0  0  0  0  0  0  0  0  0  0  0  0
   40.5980   24.1170   35.5200 C   0  0  0  0  0  0  0  0  0  0  0  0
   41.8740   23.7300   35.7510 N   0  0  0  0  0  0  0  0  0  0  0  0
   43.1070   22.3890   36.8040 H   0  0  0  0  0  0  0  0  0  0  0  0
   41.2050   21.2530   37.9270 H   0  0  0  0  0  0  0  0  0  0  0  0
   38.9140   22.0310   37.4310 H   0  0  0  0  0  0  0  0  0  0  0  0
   41.4730   26.0580   34.3990 O   0  0  0  0  0  0  0  0  0  0  0  0
   42.2230   26.2300   34.9850 H   0  0  0  0  0  0  0  0  0  0  0  0
   38.4880   24.9980   32.6560 C   0  0  0  0  0  3  0  0  0  0  0  0
   37.5400   24.6750   31.7710 C   0  0  0  0  0  3  0  0  0  0  0  0
   37.6250   23.7400   30.6240 C   0  0  0  0  0  0  0  0  0  0  0  0
   38.2140   24.1840   29.7810 H   0  0  0  0  0  0  0  0  0  0  0  0
   36.6150   23.5540   30.1920 H   0  0  0  0  0  0  0  0  0  0  0  0
   38.2910   22.1670   31.1790 S   0  0  0  0  0  0  0  0  0  0  0  0
   35.9540   19.0510   32.8720 H   0  0  0  0  0  0  0  0  0  0  0  0
   35.2630   19.7540   33.1800 N   0  0  0  0  0  0  0  0  0  0  0  0
   34.6840   20.4280   32.0330 C   0  0  0  0  0  2  0  0  0  0  0  0
   35.6870   21.2960   31.2990 C   0  0  0  0  0  2  0  0  0  0  0  0
   37.0460   21.0910   31.9360 C   0  0  0  0  0  3  0  0  0  0  0  0
   36.9330   21.5020   33.3950 C   0  0  0  0  0  2  0  0  0  0  0  0
   35.8520   20.7250   34.0910 C   0  0  0  0  0  2  0  0  0  0  0  0
  1 11  1  0  0  0  0
  1  2  1  0  0  0  0
  2  7  1  0  0  0  0
  3  2  2  0  0  0  0
  3  8  1  0  0  0  0
  4  9  1  0  0  0  0
  4  3  1  0  0  0  0
  5  6  1  0  0  0  0
  5  4  2  0  0  0  0
  6  1  2  0  0  0  0
 10  5  1  0  0  0  0
 11 12  1  6  0  0  0
 11 17  1  0  0  0  0
 13 19  1  0  0  0  0
 13 14  1  0  0  0  0
 14 20  1  0  0  0  0
 15 14  2  0  0  0  0
 15 21  1  0  0  0  0
 16 15  1  0  0  0  0
 17 18  1  0  0  0  0
 17 16  2  0  0  0  0
 18 13  2  0  0  0  0
 22 11  1  0  0  0  0
 22 23  1  0  0  0  0
 24  6  1  0  0  0  0
 25 24  2  0  0  0  0
 26 29  1  0  0  0  0
 26 25  1  0  0  0  0
 27 26  1  0  0  0  0
 28 26  1  0  0  0  0
 29 34  1  0  0  0  0
 30 31  1  0  0  0  0
 31 36  1  0  0  0  0
 32 31  1  0  0  0  0
 33 34  1  0  0  0  0
 33 32  1  0  0  0  0
 34 35  1  0  0  0  0
 35 36  1  0  0  0  0
M  END
>  <minimizedAffinity>
-5.31065798

$$$$

 OpenBabel03272509443D

 36 38  0  0  1  0  0  0  0  0999 V2000
   38.0420   26.6840   33.2740 C   0  0  0  0  0  0  0  0  0  0  0  0
   39.1460   26.1620   33.9490 C   0  0  0  0  0  0  0  0  0  0  0  0
   39.4440   26.5170   35.2540 C   0  0  0  0  0  0  0  0  0  0  0  0
   38.6200   27.4240   35.9230 C   0  0  0  0  0  0  0  0  0  0  0  0
   37.5430   27.9290   35.2540 C   0  0  0  0  0  0  0  0  0  0  0  0
   37.2770   27.5500   33.9470 C   0  0  0  0  0  0  0  0  0  0  0  0
   39.8070   25.4490   33.4460 H   0  0  0  0  0  0  0  0  0  0  0  0
   40.3120   26.0710   35.7040 H   0  0  0  0  0  0  0  0  0  0  0  0
   38.9350   27.6310   36.9250 H   0  0  0  0  0  0  0  0  0  0  0  0
   37.0030   28.6180   35.9050 H   0  0  0  0  0  0  0  0  0  0  0  0
   37.7500   26.3390   31.8990 C   0  0  2  0  0  0  0  0  0  0  0  0
   36.7250   26.8290   31.6760 H   0  0  0  0  0  0  0  0  0  0  0  0
   37.7560   22.8730   30.8120 C   0  0  0  0  0  0  0  0  0  0  0  0
   36.4590   22.4530   31.0110 C   0  0  0  0  0  0  0  0  0  0  0  0
   35.5420   23.3800   31.4650 C   0  0  0  0  0  0  0  0  0  0  0  0
   35.9470   24.6760   31.7030 N   0  0  0  0  0  0  0  0  0  0  0  0
   37.2030   25.0130   31.4960 C   0  0  0  0  0  0  0  0  0  0  0  0
   38.1150   24.1200   31.0490 N   0  0  0  0  0  0  0  0  0  0  0  0
   38.4310   22.1240   30.4590 H   0  0  0  0  0  0  0  0  0  0  0  0
   36.0710   21.4560   30.8470 H   0  0  0  0  0  0  0  0  0  0  0  0
   34.4830   23.1650   31.6570 H   0  0  0  0  0  0  0  0  0  0  0  0
   38.4380   27.0330   31.0640 O   0  0  0  0  0  0  0  0  0  0  0  0
   39.0800   26.6710   30.4380 H   0  0  0  0  0  0  0  0  0  0  0  0
   36.1250   28.1850   33.3510 C   0  0  0  0  0  3  0  0  0  0  0  0
   35.7850   29.4620   33.5500 C   0  0  0  0  0  3  0  0  0  0  0  0
   34.6560   30.2210   32.9620 C   0  0  0  0  0  0  0  0  0  0  0  0
   34.7860   30.3520   31.8570 H   0  0  0  0  0  0  0  0  0  0  0  0
   34.6290   31.2600   33.3640 H   0  0  0  0  0  0  0  0  0  0  0  0
   33.1060   29.4190   33.3860 S   0  0  0  0  0  0  0  0  0  0  0  0
   30.8020   30.9780   36.5950 H   0  0  0  0  0  0  0  0  0  0  0  0
   31.4910   30.5940   37.2590 N   0  0  0  0  0  0  0  0  0  0  0  0
   32.7880   31.2110   37.0540 C   0  0  0  0  0  2  0  0  0  0  0  0
   33.4110   30.8300   35.7240 C   0  0  0  0  0  2  0  0  0  0  0  0
   32.4070   30.0000   34.9530 C   0  0  0  0  0  3  0  0  0  0  0  0
   32.1000   28.7650   35.7850 C   0  0  0  0  0  2  0  0  0  0  0  0
   31.5980   29.1470   37.1490 C   0  0  0  0  0  2  0  0  0  0  0  0
  1  6  2  0  0  0  0
  1  2  1  0  0  0  0
  2  3  2  0  0  0  0
  3  8  1  0  0  0  0
  3  4  1  0  0  0  0
  4  9  1  0  0  0  0
  5 10  1  0  0  0  0
  5  4  2  0  0  0  0
  6  5  1  0  0  0  0
  7  2  1  0  0  0  0
 11 12  1  6  0  0  0
 11  1  1  0  0  0  0
 13 14  2  0  0  0  0
 13 18  1  0  0  0  0
 14 15  1  0  0  0  0
 15 21  1  0  0  0  0
 15 16  2  0  0  0  0
 17 16  1  0  0  0  0
 17 11  1  0  0  0  0
 18 17  2  0  0  0  0
 19 13  1  0  0  0  0
 20 14  1  0  0  0  0
 22 11  1  0  0  0  0
 23 22  1  0  0  0  0
 24 25  2  0  0  0  0
 24  6  1  0  0  0  0
 26 28  1  0  0  0  0
 26 29  1  0  0  0  0
 26 25  1  0  0  0  0
 27 26  1  0  0  0  0
 29 34  1  0  0  0  0
 30 31  1  0  0  0  0
 32 31  1  0  0  0  0
 33 32  1  0  0  0  0
 34 33  1  0  0  0  0
 34 35  1  0  0  0  0
 35 36  1  0  0  0  0
 36 31  1  0  0  0  0
M  END
>  <minimizedAffinity>
-5.29706573

$$$$
