
 OpenBabel03272509263D

 23 24  0  0  0  0  0  0  0  0999 V2000
   39.5060   26.4850   34.7350 C   0  0  0  0  0  0  0  0  0  0  0  0
   39.4450   26.3070   35.8190 H   0  0  0  0  0  0  0  0  0  0  0  0
   40.3810   27.1140   34.4780 H   0  0  0  0  0  0  0  0  0  0  0  0
   36.2430   28.3370   34.3120 C   0  0  0  0  0  0  0  0  0  0  0  0
   37.2920   27.7020   34.9500 C   0  0  0  0  0  0  0  0  0  0  0  0
   38.3170   27.1870   34.2010 C   0  0  0  0  0  0  0  0  0  0  0  0
   38.2360   27.3400   32.8310 N   0  0  0  0  0  0  0  0  0  0  0  0
   37.2120   27.9570   32.2470 C   0  0  0  0  0  0  0  0  0  0  0  0
   36.2000   28.4650   32.9860 N   0  0  0  0  0  0  0  0  0  0  0  0
   35.4580   28.7250   34.9710 H   0  0  0  0  0  0  0  0  0  0  0  0
   37.3440   27.5930   36.0050 H   0  0  0  0  0  0  0  0  0  0  0  0
   37.1680   28.0680   31.1640 H   0  0  0  0  0  0  0  0  0  0  0  0
   39.6910   25.1520   34.0500 C   0  0  0  0  0  0  0  0  0  0  0  0
   40.5770   24.6990   34.5820 H   0  0  0  0  0  0  0  0  0  0  0  0
   39.9700   25.1940   33.0050 H   0  0  0  0  0  0  0  0  0  0  0  0
   38.2990   24.0480   34.4320 S   0  0  0  0  0  0  0  0  0  0  0  0
   38.4080   21.8400   38.2350 H   0  0  0  0  0  0  0  0  0  0  0  0
   39.0210   22.6310   38.5360 N   0  0  0  0  0  0  0  0  0  0  0  0
   40.2330   22.6420   37.7210 C   0  0  0  0  0  2  0  0  0  0  0  0
   39.9600   23.3100   36.3970 C   0  0  0  0  0  2  0  0  0  0  0  0
   38.4820   23.4120   36.1160 C   0  0  0  0  0  3  0  0  0  0  0  0
   37.8540   24.3030   37.1420 C   0  0  0  0  0  2  0  0  0  0  0  0
   38.3350   23.9020   38.5150 C   0  0  0  0  0  2  0  0  0  0  0  0
  1  2  1  0  0  0  0
  3  1  1  0  0  0  0
  4  5  1  0  0  0  0
  4 10  1  0  0  0  0
  5 11  1  0  0  0  0
  6  1  1  0  0  0  0
  6  5  2  0  0  0  0
  7  6  1  0  0  0  0
  8  7  2  0  0  0  0
  8  9  1  0  0  0  0
  9  4  2  0  0  0  0
 12  8  1  0  0  0  0
 13 16  1  0  0  0  0
 13 14  1  0  0  0  0
 13  1  1  0  0  0  0
 15 13  1  0  0  0  0
 16 21  1  0  0  0  0
 17 18  1  0  0  0  0
 19 18  1  0  0  0  0
 20 19  1  0  0  0  0
 21 20  1  0  0  0  0
 21 22  1  0  0  0  0
 22 23  1  0  0  0  0
 23 18  1  0  0  0  0
M  END
>  <minimizedAffinity>
-4.35815477

$$$$

 OpenBabel03272509263D

 23 24  0  0  0  0  0  0  0  0999 V2000
   38.6540   24.4840   32.8020 C   0  0  0  0  0  0  0  0  0  0  0  0
   39.3140   24.7750   31.9710 H   0  0  0  0  0  0  0  0  0  0  0  0
   37.6340   24.2460   32.4410 H   0  0  0  0  0  0  0  0  0  0  0  0
   39.2050   27.0370   35.5270 C   0  0  0  0  0  0  0  0  0  0  0  0
   39.4950   26.0310   34.6260 C   0  0  0  0  0  0  0  0  0  0  0  0
   38.5000   25.5520   33.8150 C   0  0  0  0  0  0  0  0  0  0  0  0
   37.2480   26.1170   33.9510 N   0  0  0  0  0  0  0  0  0  0  0  0
   37.0010   27.0860   34.8290 C   0  0  0  0  0  0  0  0  0  0  0  0
   37.9820   27.5590   35.6300 N   0  0  0  0  0  0  0  0  0  0  0  0
   40.0460   27.3730   36.1450 H   0  0  0  0  0  0  0  0  0  0  0  0
   40.4630   25.6060   34.5290 H   0  0  0  0  0  0  0  0  0  0  0  0
   36.0060   27.5200   34.9200 H   0  0  0  0  0  0  0  0  0  0  0  0
   39.2160   23.2300   33.4290 C   0  0  0  0  0  0  0  0  0  0  0  0
   39.9440   23.6190   34.1980 H   0  0  0  0  0  0  0  0  0  0  0  0
   39.7980   22.5960   32.7730 H   0  0  0  0  0  0  0  0  0  0  0  0
   37.9310   22.3740   34.3870 S   0  0  0  0  0  0  0  0  0  0  0  0
   38.6640   21.8490   38.6940 H   0  0  0  0  0  0  0  0  0  0  0  0
   39.1600   22.7630   38.5960 N   0  0  0  0  0  0  0  0  0  0  0  0
   40.2950   22.6040   37.6890 C   0  0  0  0  0  2  0  0  0  0  0  0
   39.8240   22.6670   36.2580 C   0  0  0  0  0  2  0  0  0  0  0  0
   38.3330   22.4700   36.1490 C   0  0  0  0  0  3  0  0  0  0  0  0
   37.6430   23.6060   36.8380 C   0  0  0  0  0  2  0  0  0  0  0  0
   38.2790   23.8320   38.1890 C   0  0  0  0  0  2  0  0  0  0  0  0
  1 13  1  0  0  0  0
  1  6  1  0  0  0  0
  2  1  1  0  0  0  0
  3  1  1  0  0  0  0
  4  9  1  0  0  0  0
  4 10  1  0  0  0  0
  5  4  2  0  0  0  0
  6  7  2  0  0  0  0
  6  5  1  0  0  0  0
  7  8  1  0  0  0  0
  8 12  1  0  0  0  0
  8  9  2  0  0  0  0
 11  5  1  0  0  0  0
 13 14  1  0  0  0  0
 13 16  1  0  0  0  0
 15 13  1  0  0  0  0
 16 21  1  0  0  0  0
 18 17  1  0  0  0  0
 19 18  1  0  0  0  0
 20 19  1  0  0  0  0
 21 20  1  0  0  0  0
 21 22  1  0  0  0  0
 22 23  1  0  0  0  0
 23 18  1  0  0  0  0
M  END
>  <minimizedAffinity>
-4.29365635

$$$$

 OpenBabel03272509263D

 23 24  0  0  0  0  0  0  0  0999 V2000
   37.5430   27.2060   33.2720 C   0  0  0  0  0  0  0  0  0  0  0  0
   37.3860   28.1900   32.8070 H   0  0  0  0  0  0  0  0  0  0  0  0
   38.6190   26.9490   33.3190 H   0  0  0  0  0  0  0  0  0  0  0  0
   36.4880   23.8610   31.8750 C   0  0  0  0  0  0  0  0  0  0  0  0
   37.1940   24.7780   32.6300 C   0  0  0  0  0  0  0  0  0  0  0  0
   36.8830   26.1080   32.5300 C   0  0  0  0  0  0  0  0  0  0  0  0
   35.8650   26.4550   31.6630 N   0  0  0  0  0  0  0  0  0  0  0  0
   35.2040   25.5470   30.9490 C   0  0  0  0  0  0  0  0  0  0  0  0
   35.5100   24.2350   31.0480 N   0  0  0  0  0  0  0  0  0  0  0  0
   36.7870   22.8150   32.0040 H   0  0  0  0  0  0  0  0  0  0  0  0
   37.9730   24.4980   33.2950 H   0  0  0  0  0  0  0  0  0  0  0  0
   34.4030   25.8420   30.2720 H   0  0  0  0  0  0  0  0  0  0  0  0
   37.0320   27.2710   34.6930 C   0  0  0  0  0  0  0  0  0  0  0  0
   36.2560   26.4540   34.7350 H   0  0  0  0  0  0  0  0  0  0  0  0
   36.5110   28.1810   34.9630 H   0  0  0  0  0  0  0  0  0  0  0  0
   38.3280   26.7510   35.8540 S   0  0  0  0  0  0  0  0  0  0  0  0
   37.0560   22.5860   36.4790 H   0  0  0  0  0  0  0  0  0  0  0  0
   37.9910   22.4980   36.9360 N   0  0  0  0  0  0  0  0  0  0  0  0
   39.0400   22.7480   35.9500 C   0  0  0  0  0  2  0  0  0  0  0  0
   39.2310   24.2320   35.7640 C   0  0  0  0  0  2  0  0  0  0  0  0
   38.0660   25.0190   36.3090 C   0  0  0  0  0  3  0  0  0  0  0  0
   37.9940   24.8160   37.7910 C   0  0  0  0  0  2  0  0  0  0  0  0
   38.1210   23.3440   38.1000 C   0  0  0  0  0  2  0  0  0  0  0  0
  1  3  1  0  0  0  0
  1 13  1  0  0  0  0
  2  1  1  0  0  0  0
  4 10  1  0  0  0  0
  4  5  1  0  0  0  0
  5 11  1  0  0  0  0
  6  5  2  0  0  0  0
  6  1  1  0  0  0  0
  7  6  1  0  0  0  0
  8  9  1  0  0  0  0
  8  7  2  0  0  0  0
  9  4  2  0  0  0  0
 12  8  1  0  0  0  0
 13 14  1  0  0  0  0
 13 15  1  0  0  0  0
 13 16  1  0  0  0  0
 16 21  1  0  0  0  0
 17 18  1  0  0  0  0
 18 23  1  0  0  0  0
 19 18  1  0  0  0  0
 20 19  1  0  0  0  0
 20 21  1  0  0  0  0
 21 22  1  0  0  0  0
 22 23  1  0  0  0  0
M  END
>  <minimizedAffinity>
-4.24570704

$$$$

 OpenBabel03272509263D

 23 24  0  0  0  0  0  0  0  0999 V2000
   38.6160   27.0110   34.3550 C   0  0  0  0  0  0  0  0  0  0  0  0
   37.9090   26.9410   35.1940 H   0  0  0  0  0  0  0  0  0  0  0  0
   39.3300   27.8450   34.4980 H   0  0  0  0  0  0  0  0  0  0  0  0
   37.8000   27.5110   30.7030 C   0  0  0  0  0  0  0  0  0  0  0  0
   38.5580   27.2730   31.8330 C   0  0  0  0  0  0  0  0  0  0  0  0
   37.9440   27.2540   33.0580 C   0  0  0  0  0  0  0  0  0  0  0  0
   36.5820   27.4780   33.0850 N   0  0  0  0  0  0  0  0  0  0  0  0
   35.8800   27.7040   31.9770 C   0  0  0  0  0  0  0  0  0  0  0  0
   36.4850   27.7230   30.7690 N   0  0  0  0  0  0  0  0  0  0  0  0
   38.3540   27.5120   29.7570 H   0  0  0  0  0  0  0  0  0  0  0  0
   39.6050   27.1000   31.7990 H   0  0  0  0  0  0  0  0  0  0  0  0
   34.8050   27.8770   32.0200 H   0  0  0  0  0  0  0  0  0  0  0  0
   39.4180   25.7320   34.3080 C   0  0  0  0  0  0  0  0  0  0  0  0
   39.9940   25.7430   35.2790 H   0  0  0  0  0  0  0  0  0  0  0  0
   40.1660   25.6740   33.5280 H   0  0  0  0  0  0  0  0  0  0  0  0
   38.3170   24.2920   34.4300 S   0  0  0  0  0  0  0  0  0  0  0  0
   38.3610   21.8550   38.0930 H   0  0  0  0  0  0  0  0  0  0  0  0
   38.9870   22.6140   38.4430 N   0  0  0  0  0  0  0  0  0  0  0  0
   40.2040   22.6510   37.6370 C   0  0  0  0  0  2  0  0  0  0  0  0
   39.9520   23.4030   36.3550 C   0  0  0  0  0  2  0  0  0  0  0  0
   38.4780   23.5510   36.0730 C   0  0  0  0  0  3  0  0  0  0  0  0
   37.8610   24.3910   37.1480 C   0  0  0  0  0  2  0  0  0  0  0  0
   38.3260   23.8970   38.4970 C   0  0  0  0  0  2  0  0  0  0  0  0
  1  3  1  0  0  0  0
  1  2  1  0  0  0  0
  4  9  2  0  0  0  0
  4  5  1  0  0  0  0
  5  6  2  0  0  0  0
  6  7  1  0  0  0  0
  6  1  1  0  0  0  0
  8 12  1  0  0  0  0
  8  7  2  0  0  0  0
  9  8  1  0  0  0  0
 10  4  1  0  0  0  0
 11  5  1  0  0  0  0
 13  1  1  0  0  0  0
 13 16  1  0  0  0  0
 13 14  1  0  0  0  0
 15 13  1  0  0  0  0
 16 21  1  0  0  0  0
 17 18  1  0  0  0  0
 18 23  1  0  0  0  0
 19 18  1  0  0  0  0
 20 19  1  0  0  0  0
 21 20  1  0  0  0  0
 21 22  1  0  0  0  0
 22 23  1  0  0  0  0
M  END
>  <minimizedAffinity>
-4.19131231

$$$$

 OpenBabel03272509263D

 23 24  0  0  0  0  0  0  0  0999 V2000
   37.9690   23.2990   32.1090 C   0  0  0  0  0  0  0  0  0  0  0  0
   37.5820   24.3280   32.0590 H   0  0  0  0  0  0  0  0  0  0  0  0
   38.5280   23.0340   31.1900 H   0  0  0  0  0  0  0  0  0  0  0  0
   35.0310   20.9930   31.5610 C   0  0  0  0  0  0  0  0  0  0  0  0
   35.9770   21.9620   31.2880 C   0  0  0  0  0  0  0  0  0  0  0  0
   36.8960   22.2890   32.2500 C   0  0  0  0  0  0  0  0  0  0  0  0
   36.8170   21.6160   33.4530 N   0  0  0  0  0  0  0  0  0  0  0  0
   35.8930   20.6870   33.6840 C   0  0  0  0  0  0  0  0  0  0  0  0
   34.9860   20.3640   32.7360 N   0  0  0  0  0  0  0  0  0  0  0  0
   34.3270   20.7800   30.7480 H   0  0  0  0  0  0  0  0  0  0  0  0
   36.0290   22.4710   30.3580 H   0  0  0  0  0  0  0  0  0  0  0  0
   35.8490   20.1660   34.6410 H   0  0  0  0  0  0  0  0  0  0  0  0
   38.9360   23.2170   33.2670 C   0  0  0  0  0  0  0  0  0  0  0  0
   39.9120   23.5700   32.8250 H   0  0  0  0  0  0  0  0  0  0  0  0
   39.1320   22.2210   33.6450 H   0  0  0  0  0  0  0  0  0  0  0  0
   38.5160   24.4530   34.5290 S   0  0  0  0  0  0  0  0  0  0  0  0
   38.2210   21.9670   38.1470 H   0  0  0  0  0  0  0  0  0  0  0  0
   38.8910   22.6680   38.5350 N   0  0  0  0  0  0  0  0  0  0  0  0
   40.1390   22.6200   37.7760 C   0  0  0  0  0  2  0  0  0  0  0  0
   39.9980   23.4090   36.4990 C   0  0  0  0  0  2  0  0  0  0  0  0
   38.5520   23.6780   36.1640 C   0  0  0  0  0  3  0  0  0  0  0  0
   37.9620   24.5490   37.2290 C   0  0  0  0  0  2  0  0  0  0  0  0
   38.3330   23.9990   38.5860 C   0  0  0  0  0  2  0  0  0  0  0  0
  1  6  1  0  0  0  0
  1 13  1  0  0  0  0
  2  1  1  0  0  0  0
  3  1  1  0  0  0  0
  4  9  1  0  0  0  0
  5  4  2  0  0  0  0
  5  6  1  0  0  0  0
  6  7  2  0  0  0  0
  7  8  1  0  0  0  0
  8 12  1  0  0  0  0
  9  8  2  0  0  0  0
 10  4  1  0  0  0  0
 11  5  1  0  0  0  0
 13 15  1  0  0  0  0
 13 16  1  0  0  0  0
 14 13  1  0  0  0  0
 16 21  1  0  0  0  0
 17 18  1  0  0  0  0
 18 23  1  0  0  0  0
 19 18  1  0  0  0  0
 20 19  1  0  0  0  0
 21 20  1  0  0  0  0
 21 22  1  0  0  0  0
 22 23  1  0  0  0  0
M  END
>  <minimizedAffinity>
-4.14067459

$$$$

 OpenBabel03272509263D

 23 24  0  0  0  0  0  0  0  0999 V2000
   37.2960   24.1090   32.4980 C   0  0  0  0  0  0  0  0  0  0  0  0
   37.5450   23.4930   31.6220 H   0  0  0  0  0  0  0  0  0  0  0  0
   36.3030   23.8410   32.9100 H   0  0  0  0  0  0  0  0  0  0  0  0
   38.1090   27.7460   31.8960 C   0  0  0  0  0  0  0  0  0  0  0  0
   38.3080   26.4160   32.2150 C   0  0  0  0  0  0  0  0  0  0  0  0
   37.2430   25.5550   32.1870 C   0  0  0  0  0  0  0  0  0  0  0  0
   36.0160   26.0800   31.8340 N   0  0  0  0  0  0  0  0  0  0  0  0
   35.8570   27.3660   31.5320 C   0  0  0  0  0  0  0  0  0  0  0  0
   36.9070   28.2170   31.5600 N   0  0  0  0  0  0  0  0  0  0  0  0
   39.0030   28.3790   31.9380 H   0  0  0  0  0  0  0  0  0  0  0  0
   39.2580   26.0240   32.4820 H   0  0  0  0  0  0  0  0  0  0  0  0
   34.8800   27.7610   31.2550 H   0  0  0  0  0  0  0  0  0  0  0  0
   38.3210   23.8320   33.5730 C   0  0  0  0  0  0  0  0  0  0  0  0
   38.1120   24.6220   34.3510 H   0  0  0  0  0  0  0  0  0  0  0  0
   39.3540   23.9740   33.2850 H   0  0  0  0  0  0  0  0  0  0  0  0
   37.9600   22.2530   34.3970 S   0  0  0  0  0  0  0  0  0  0  0  0
   38.7250   21.8150   38.7070 H   0  0  0  0  0  0  0  0  0  0  0  0
   39.1940   22.7400   38.5930 N   0  0  0  0  0  0  0  0  0  0  0  0
   40.3290   22.6010   37.6840 C   0  0  0  0  0  2  0  0  0  0  0  0
   39.8520   22.6280   36.2540 C   0  0  0  0  0  2  0  0  0  0  0  0
   38.3660   22.3870   36.1550 C   0  0  0  0  0  3  0  0  0  0  0  0
   37.6470   23.5140   36.8300 C   0  0  0  0  0  2  0  0  0  0  0  0
   38.2810   23.7780   38.1740 C   0  0  0  0  0  2  0  0  0  0  0  0
  1  3  1  0  0  0  0
  1 13  1  0  0  0  0
  2  1  1  0  0  0  0
  4 10  1  0  0  0  0
  4  5  1  0  0  0  0
  5 11  1  0  0  0  0
  6  5  2  0  0  0  0
  6  1  1  0  0  0  0
  7  6  1  0  0  0  0
  8  9  1  0  0  0  0
  8  7  2  0  0  0  0
  9  4  2  0  0  0  0
 12  8  1  0  0  0  0
 13 14  1  0  0  0  0
 13 16  1  0  0  0  0
 15 13  1  0  0  0  0
 16 21  1  0  0  0  0
 18 17  1  0  0  0  0
 19 18  1  0  0  0  0
 20 19  1  0  0  0  0
 21 20  1  0  0  0  0
 21 22  1  0  0  0  0
 22 23  1  0  0  0  0
 23 18  1  0  0  0  0
M  END
>  <minimizedAffinity>
-4.03556967

$$$$

 OpenBabel03272509263D

 23 24  0  0  0  0  0  0  0  0999 V2000
   38.6750   27.0400   34.5700 C   0  0  0  0  0  0  0  0  0  0  0  0
   38.3300   27.9660   35.0520 H   0  0  0  0  0  0  0  0  0  0  0  0
   39.5900   26.6490   35.0560 H   0  0  0  0  0  0  0  0  0  0  0  0
   38.5690   27.6310   30.8430 C   0  0  0  0  0  0  0  0  0  0  0  0
   38.1100   27.4750   32.1360 C   0  0  0  0  0  0  0  0  0  0  0  0
   39.0090   27.2270   33.1400 C   0  0  0  0  0  0  0  0  0  0  0  0
   40.3420   27.1500   32.7880 N   0  0  0  0  0  0  0  0  0  0  0  0
   40.7520   27.3060   31.5320 C   0  0  0  0  0  0  0  0  0  0  0  0
   39.8660   27.5500   30.5410 N   0  0  0  0  0  0  0  0  0  0  0  0
   37.7970   27.8270   30.0900 H   0  0  0  0  0  0  0  0  0  0  0  0
   37.0820   27.5390   32.3950 H   0  0  0  0  0  0  0  0  0  0  0  0
   41.8090   27.2420   31.2750 H   0  0  0  0  0  0  0  0  0  0  0  0
   37.5950   25.9960   34.7330 C   0  0  0  0  0  0  0  0  0  0  0  0
   36.9360   26.1500   33.8300 H   0  0  0  0  0  0  0  0  0  0  0  0
   36.9460   26.1220   35.5900 H   0  0  0  0  0  0  0  0  0  0  0  0
   38.2910   24.3310   34.5300 S   0  0  0  0  0  0  0  0  0  0  0  0
   38.4170   21.8300   38.1480 H   0  0  0  0  0  0  0  0  0  0  0  0
   39.0530   22.5810   38.4960 N   0  0  0  0  0  0  0  0  0  0  0  0
   40.2510   22.6300   37.6610 C   0  0  0  0  0  2  0  0  0  0  0  0
   39.9700   23.4050   36.3990 C   0  0  0  0  0  2  0  0  0  0  0  0
   38.4890   23.5610   36.1550 C   0  0  0  0  0  3  0  0  0  0  0  0
   37.9010   24.3830   37.2600 C   0  0  0  0  0  2  0  0  0  0  0  0
   38.3980   23.8650   38.5880 C   0  0  0  0  0  2  0  0  0  0  0  0
  1 13  1  0  0  0  0
  1  2  1  0  0  0  0
  1  3  1  0  0  0  0
  4  5  1  0  0  0  0
  5 11  1  0  0  0  0
  5  6  2  0  0  0  0
  6  1  1  0  0  0  0
  7  6  1  0  0  0  0
  8  7  2  0  0  0  0
  9  4  2  0  0  0  0
  9  8  1  0  0  0  0
 10  4  1  0  0  0  0
 12  8  1  0  0  0  0
 13 15  1  0  0  0  0
 14 13  1  0  0  0  0
 16 13  1  0  0  0  0
 16 21  1  0  0  0  0
 17 18  1  0  0  0  0
 18 23  1  0  0  0  0
 19 18  1  0  0  0  0
 20 19  1  0  0  0  0
 21 20  1  0  0  0  0
 21 22  1  0  0  0  0
 22 23  1  0  0  0  0
M  END
>  <minimizedAffinity>
-4.01717329

$$$$

 OpenBabel03272509263D

 23 24  0  0  0  0  0  0  0  0999 V2000
   38.5130   22.5700   34.2770 C   0  0  0  0  0  0  0  0  0  0  0  0
   37.4760   22.2930   34.0400 H   0  0  0  0  0  0  0  0  0  0  0  0
   39.2230   21.7760   33.9700 H   0  0  0  0  0  0  0  0  0  0  0  0
   39.9390   22.7440   37.7680 C   0  0  0  0  0  0  0  0  0  0  0  0
   39.8760   22.4800   36.4130 C   0  0  0  0  0  0  0  0  0  0  0  0
   38.7330   22.7890   35.7240 C   0  0  0  0  0  0  0  0  0  0  0  0
   37.6970   23.3560   36.4410 N   0  0  0  0  0  0  0  0  0  0  0  0
   37.7900   23.5980   37.7460 C   0  0  0  0  0  0  0  0  0  0  0  0
   38.9170   23.2940   38.4260 N   0  0  0  0  0  0  0  0  0  0  0  0
   40.8820   22.4730   38.2570 H   0  0  0  0  0  0  0  0  0  0  0  0
   40.6800   22.0450   35.8730 H   0  0  0  0  0  0  0  0  0  0  0  0
   36.9620   24.0480   38.2930 H   0  0  0  0  0  0  0  0  0  0  0  0
   38.8580   23.8130   33.4910 C   0  0  0  0  0  0  0  0  0  0  0  0
   39.9670   23.9360   33.6590 H   0  0  0  0  0  0  0  0  0  0  0  0
   38.4070   24.7320   33.8440 H   0  0  0  0  0  0  0  0  0  0  0  0
   38.6830   23.5020   31.7100 S   0  0  0  0  0  0  0  0  0  0  0  0
   35.8780   25.9240   29.3370 H   0  0  0  0  0  0  0  0  0  0  0  0
   35.5220   26.2090   30.2760 N   0  0  0  0  0  0  0  0  0  0  0  0
   34.9910   25.0390   30.9710 C   0  0  0  0  0  2  0  0  0  0  0  0
   36.1160   24.2550   31.5980 C   0  0  0  0  0  2  0  0  0  0  0  0
   37.4550   24.6390   31.0200 C   0  0  0  0  0  3  0  0  0  0  0  0
   37.7380   26.0700   31.3610 C   0  0  0  0  0  2  0  0  0  0  0  0
   36.5170   26.9050   31.0580 C   0  0  0  0  0  2  0  0  0  0  0  0
  1  6  1  0  0  0  0
  2  1  1  0  0  0  0
  3  1  1  0  0  0  0
  4 10  1  0  0  0  0
  4  9  1  0  0  0  0
  5  4  2  0  0  0  0
  6  5  1  0  0  0  0
  6  7  2  0  0  0  0
  7  8  1  0  0  0  0
  8 12  1  0  0  0  0
  8  9  2  0  0  0  0
 11  5  1  0  0  0  0
 13 14  1  0  0  0  0
 13 15  1  0  0  0  0
 13  1  1  0  0  0  0
 16 13  1  0  0  0  0
 17 18  1  0  0  0  0
 18 19  1  0  0  0  0
 18 23  1  0  0  0  0
 19 20  1  0  0  0  0
 21 22  1  0  0  0  0
 21 20  1  0  0  0  0
 21 16  1  0  0  0  0
 23 22  1  0  0  0  0
M  END
>  <minimizedAffinity>
-3.99024105

$$$$

 OpenBabel03272509263D

 23 24  0  0  0  0  0  0  0  0999 V2000
   39.2430   26.2840   35.2100 C   0  0  0  0  0  0  0  0  0  0  0  0
   39.3780   26.3540   34.1210 H   0  0  0  0  0  0  0  0  0  0  0  0
   40.2110   26.3730   35.7420 H   0  0  0  0  0  0  0  0  0  0  0  0
   37.5610   23.4880   37.1090 C   0  0  0  0  0  0  0  0  0  0  0  0
   38.0780   24.7440   36.8530 C   0  0  0  0  0  0  0  0  0  0  0  0
   38.6510   24.9960   35.6340 C   0  0  0  0  0  0  0  0  0  0  0  0
   38.6740   23.9590   34.7220 N   0  0  0  0  0  0  0  0  0  0  0  0
   38.1670   22.7610   34.9990 C   0  0  0  0  0  0  0  0  0  0  0  0
   37.6020   22.5120   36.2010 N   0  0  0  0  0  0  0  0  0  0  0  0
   37.1180   23.3560   38.1030 H   0  0  0  0  0  0  0  0  0  0  0  0
   38.0520   25.5330   37.5620 H   0  0  0  0  0  0  0  0  0  0  0  0
   38.1940   21.9570   34.2640 H   0  0  0  0  0  0  0  0  0  0  0  0
   38.3770   27.4410   35.6510 C   0  0  0  0  0  0  0  0  0  0  0  0
   39.0110   28.3480   35.4310 H   0  0  0  0  0  0  0  0  0  0  0  0
   38.1590   27.4880   36.7100 H   0  0  0  0  0  0  0  0  0  0  0  0
   36.9340   27.6000   34.5590 S   0  0  0  0  0  0  0  0  0  0  0  0
   38.8440   26.5400   30.7400 H   0  0  0  0  0  0  0  0  0  0  0  0
   37.8570   26.4910   30.4000 N   0  0  0  0  0  0  0  0  0  0  0  0
   37.1470   25.4370   31.1210 C   0  0  0  0  0  2  0  0  0  0  0  0
   36.6970   25.9450   32.4680 C   0  0  0  0  0  2  0  0  0  0  0  0
   37.4210   27.2080   32.8610 C   0  0  0  0  0  3  0  0  0  0  0  0
   37.0640   28.2930   31.8920 C   0  0  0  0  0  2  0  0  0  0  0  0
   37.1790   27.7630   30.4830 C   0  0  0  0  0  2  0  0  0  0  0  0
  1  6  1  0  0  0  0
  1 13  1  0  0  0  0
  1  3  1  0  0  0  0
  2  1  1  0  0  0  0
  4 10  1  0  0  0  0
  5  4  1  0  0  0  0
  5 11  1  0  0  0  0
  6  5  2  0  0  0  0
  7  8  2  0  0  0  0
  7  6  1  0  0  0  0
  8  9  1  0  0  0  0
  9  4  2  0  0  0  0
 12  8  1  0  0  0  0
 13 15  1  0  0  0  0
 14 13  1  0  0  0  0
 16 13  1  0  0  0  0
 18 23  1  0  0  0  0
 18 17  1  0  0  0  0
 18 19  1  0  0  0  0
 19 20  1  0  0  0  0
 20 21  1  0  0  0  0
 21 16  1  0  0  0  0
 22 21  1  0  0  0  0
 23 22  1  0  0  0  0
M  END
>  <minimizedAffinity>
-3.88728142

$$$$
