
 OpenBabel03262521353D

 35 38  0  0  1  0  0  0  0  0999 V2000
   38.4890   31.4720   45.3520 C   0  0  1  0  0  0  0  0  0  0  0  0
   38.8100   32.4510   46.3830 C   0  0  2  0  0  0  0  0  0  0  0  0
   40.2710   32.8250   46.0520 C   0  0  0  0  0  0  0  0  0  0  0  0
   40.7920   31.6170   45.6890 O   0  0  0  0  0  0  0  0  0  0  0  0
   39.8550   30.8660   45.0200 C   0  0  0  0  0  0  0  0  0  0  0  0
   38.0960   31.9380   44.4270 H   0  0  0  0  0  0  0  0  0  0  0  0
   38.2420   33.3940   46.2380 H   0  0  0  0  0  0  0  0  0  0  0  0
   40.7120   33.1410   47.0120 H   0  0  0  0  0  0  0  0  0  0  0  0
   40.2940   33.6160   45.2790 H   0  0  0  0  0  0  0  0  0  0  0  0
   40.0590   30.9150   43.9420 H   0  0  0  0  0  0  0  0  0  0  0  0
   39.9330   29.8260   45.3350 H   0  0  0  0  0  0  0  0  0  0  0  0
   37.5650   32.3700   48.6830 C   0  0  1  0  0  0  0  0  0  0  0  0
   38.7810   33.1270   48.8290 C   0  0  0  0  0  0  0  0  0  0  0  0
   38.7590   31.9610   47.8180 C   0  0  2  0  0  0  0  0  0  0  0  0
   36.7390   32.7610   48.0530 H   0  0  0  0  0  0  0  0  0  0  0  0
   38.8380   34.1500   48.4670 H   0  0  0  0  0  0  0  0  0  0  0  0
   39.4120   32.9610   49.7410 H   0  0  0  0  0  0  0  0  0  0  0  0
   39.3330   31.0640   48.0570 H   0  0  0  0  0  0  0  0  0  0  0  0
   35.5720   29.6690   50.3570 C   0  0  0  0  0  0  0  0  0  0  0  0
   35.9560   30.6450   49.4420 C   0  0  0  0  0  0  0  0  0  0  0  0
   37.1510   31.3170   49.6240 C   0  0  0  0  0  0  0  0  0  0  0  0
   37.8960   30.9730   50.7110 N   0  0  0  0  0  0  0  0  0  0  0  0
   37.5160   30.0240   51.5970 C   0  0  0  0  0  0  0  0  0  0  0  0
   36.3390   29.3610   51.4190 N   0  0  0  0  0  0  0  0  0  0  0  0
   34.6320   29.1200   50.2410 H   0  0  0  0  0  0  0  0  0  0  0  0
   35.2810   30.8230   48.6270 H   0  0  0  0  0  0  0  0  0  0  0  0
   38.2130   29.8630   52.4090 H   0  0  0  0  0  0  0  0  0  0  0  0
   37.5870   30.4840   45.7540 O   0  0  0  0  0  0  0  0  0  0  0  0
   34.3010   30.7890   42.7980 H   0  0  0  0  0  0  0  0  0  0  0  0
   34.2570   29.9930   43.4420 N   0  0  0  0  0  0  0  0  0  0  0  0
   35.3470   29.0770   43.2450 C   0  0  0  0  0  0  0  0  0  0  0  0
   36.6690   29.6310   43.7690 C   0  0  0  0  0  0  0  0  0  0  0  0
   36.4450   30.5100   44.9740 C   0  0  0  0  0  0  0  0  0  0  0  0
   35.2330   29.9700   45.6850 C   0  0  0  0  0  0  0  0  0  0  0  0
   33.9950   30.2890   44.8160 C   0  0  0  0  0  0  0  0  0  0  0  0
  1  6  1  6  0  0  0
  1 28  1  0  0  0  0
  1  2  1  0  0  0  0
  2  7  1  6  0  0  0
  2 14  1  0  0  0  0
  3  2  1  0  0  0  0
  3  8  1  0  0  0  0
  4  3  1  0  0  0  0
  5 11  1  0  0  0  0
  5  1  1  0  0  0  0
  5  4  1  0  0  0  0
  9  3  1  0  0  0  0
 10  5  1  0  0  0  0
 12 15  1  6  0  0  0
 12 13  1  0  0  0  0
 12 21  1  0  0  0  0
 13 17  1  0  0  0  0
 14 18  1  1  0  0  0
 14 12  1  0  0  0  0
 14 13  1  0  0  0  0
 16 13  1  0  0  0  0
 19 24  1  0  0  0  0
 20 21  1  0  0  0  0
 20 19  2  0  0  0  0
 21 22  2  0  0  0  0
 22 23  1  0  0  0  0
 23 27  1  0  0  0  0
 24 23  2  0  0  0  0
 25 19  1  0  0  0  0
 26 20  1  0  0  0  0
 29 30  1  0  0  0  0
 30 35  1  0  0  0  0
 31 30  1  0  0  0  0
 31 32  1  0  0  0  0
 32 33  1  0  0  0  0
 33 34  1  0  0  0  0
 33 28  1  0  0  0  0
 35 34  1  0  0  0  0
M  END
>  <minimizedAffinity>
-5.45004368

>  <minimizedRMSD>
1.07104659

$$$$
