
 OpenBabel03272509313D

 36 38  0  0  1  0  0  0  0  0999 V2000
   36.3010   30.6630   49.0010 C   0  0  2  0  0  0  0  0  0  0  0  0
   37.2440   31.4210   49.8890 C   0  0  0  0  0  0  0  0  0  0  0  0
   37.9980   30.5250   50.8510 C   0  0  0  0  0  0  0  0  0  0  0  0
   36.9980   29.7540   51.7170 C   0  0  0  0  0  0  0  0  0  0  0  0
   35.7990   29.2560   50.9640 C   0  0  0  0  0  0  0  0  0  0  0  0
   36.1100   29.2570   49.4570 C   0  0  1  0  0  0  0  0  0  0  0  0
   35.2730   31.1240   48.9350 H   0  0  0  0  0  0  0  0  0  0  0  0
   36.5570   32.0160   50.5790 H   0  0  0  0  0  0  0  0  0  0  0  0
   37.8670   32.1640   49.4260 H   0  0  0  0  0  0  0  0  0  0  0  0
   38.6190   29.7610   50.3490 H   0  0  0  0  0  0  0  0  0  0  0  0
   38.5780   31.1890   51.4950 H   0  0  0  0  0  0  0  0  0  0  0  0
   37.5660   28.9630   52.2350 H   0  0  0  0  0  0  0  0  0  0  0  0
   36.6260   30.4900   52.4600 H   0  0  0  0  0  0  0  0  0  0  0  0
   34.8940   29.8680   51.0740 H   0  0  0  0  0  0  0  0  0  0  0  0
   35.5960   28.2060   51.2670 H   0  0  0  0  0  0  0  0  0  0  0  0
   37.0360   28.7370   49.4430 H   0  0  0  0  0  0  0  0  0  0  0  0
   33.8200   28.3930   48.7990 C   0  0  0  0  0  0  0  0  0  0  0  0
   33.0110   29.0040   49.5580 O   0  0  0  0  0  0  0  0  0  0  0  0
   35.2330   28.4680   48.6740 N   0  0  0  0  0  0  0  0  0  0  0  0
   35.5360   27.8230   47.8780 H   0  0  0  0  0  0  0  0  0  0  0  0
   32.9580   27.5440   48.0340 N   0  0  0  0  0  0  0  0  0  0  0  0
   33.1900   27.4810   46.6040 C   0  0  0  0  0  2  0  0  0  0  0  0
   33.8610   26.1490   46.2870 C   0  0  0  0  0  2  0  0  0  0  0  0
   33.3730   25.1200   47.3050 C   0  0  0  0  0  3  0  0  0  0  0  0
   33.9820   25.1770   48.2250 H   0  0  0  0  0  0  0  0  0  0  0  0
   31.9080   25.4190   47.6010 C   0  0  0  0  0  2  0  0  0  0  0  0
   31.8330   26.6870   48.4380 C   0  0  0  0  0  2  0  0  0  0  0  0
   36.7850   30.6470   47.5950 C   0  0  0  0  0  0  0  0  0  0  0  0
   38.1670   30.8800   47.4250 C   0  0  0  0  0  0  0  0  0  0  0  0
   38.6390   30.8650   46.1070 C   0  0  0  0  0  0  0  0  0  0  0  0
   37.7530   30.6310   45.0810 N   0  0  0  0  0  0  0  0  0  0  0  0
   36.4190   30.4100   45.3050 C   0  0  0  0  0  0  0  0  0  0  0  0
   35.9520   30.4220   46.5710 N   0  0  0  0  0  0  0  0  0  0  0  0
   38.9400   31.0630   48.1400 H   0  0  0  0  0  0  0  0  0  0  0  0
   39.6640   31.0270   45.8190 H   0  0  0  0  0  0  0  0  0  0  0  0
   35.7860   30.2330   44.4450 H   0  0  0  0  0  0  0  0  0  0  0  0
  1  7  1  1  0  0  0
  1  6  1  0  0  0  0
  1  2  1  0  0  0  0
  2  8  1  0  0  0  0
  2  3  1  0  0  0  0
  3 11  1  0  0  0  0
  3  4  1  0  0  0  0
  4 12  1  0  0  0  0
  4 13  1  0  0  0  0
  5 14  1  0  0  0  0
  5 15  1  0  0  0  0
  5  4  1  0  0  0  0
  6 16  1  6  0  0  0
  6  5  1  0  0  0  0
  9  2  1  0  0  0  0
 10  3  1  0  0  0  0
 17 18  2  0  0  0  0
 19 17  1  0  0  0  0
 19  6  1  0  0  0  0
 20 19  1  0  0  0  0
 21 27  1  0  0  0  0
 21 17  1  0  0  0  0
 22 21  1  0  0  0  0
 23 22  1  0  0  0  0
 23 24  1  0  0  0  0
 24 26  1  0  0  0  0
 24 25  1  0  0  0  0
 26 27  1  0  0  0  0
 28  1  1  0  0  0  0
 29 28  1  0  0  0  0
 29 34  1  0  0  0  0
 30 29  2  0  0  0  0
 31 32  2  0  0  0  0
 31 30  1  0  0  0  0
 32 33  1  0  0  0  0
 33 28  2  0  0  0  0
 35 30  1  0  0  0  0
 36 32  1  0  0  0  0
M  END
>  <minimizedAffinity>
-6.01152277

>  <minimizedRMSD>
0.723825932

$$$$
