
 OpenBabel03272509313D

 36 38  0  0  1  0  0  0  0  0999 V2000
   36.4480   30.8090   48.9590 C   0  0  2  0  0  0  0  0  0  0  0  0
   37.2880   31.5440   49.9630 C   0  0  0  0  0  0  0  0  0  0  0  0
   37.9840   30.6200   50.9420 C   0  0  0  0  0  0  0  0  0  0  0  0
   36.9380   29.7780   51.6770 C   0  0  0  0  0  0  0  0  0  0  0  0
   35.8230   29.2900   50.7990 C   0  0  0  0  0  0  0  0  0  0  0  0
   36.2620   29.3770   49.3280 C   0  0  1  0  0  0  0  0  0  0  0  0
   35.4170   31.2460   48.8270 H   0  0  0  0  0  0  0  0  0  0  0  0
   36.5270   32.0840   50.6200 H   0  0  0  0  0  0  0  0  0  0  0  0
   37.9260   32.3260   49.5940 H   0  0  0  0  0  0  0  0  0  0  0  0
   38.6690   29.8990   50.4590 H   0  0  0  0  0  0  0  0  0  0  0  0
   38.4860   31.2630   51.6660 H   0  0  0  0  0  0  0  0  0  0  0  0
   37.4830   28.9770   52.2040 H   0  0  0  0  0  0  0  0  0  0  0  0
   36.4800   30.4640   52.4210 H   0  0  0  0  0  0  0  0  0  0  0  0
   34.8940   29.8710   50.8600 H   0  0  0  0  0  0  0  0  0  0  0  0
   35.6270   28.2200   51.0310 H   0  0  0  0  0  0  0  0  0  0  0  0
   37.2010   28.8820   49.3680 H   0  0  0  0  0  0  0  0  0  0  0  0
   34.1150   28.2480   48.5930 C   0  0  0  0  0  0  0  0  0  0  0  0
   33.2710   28.5370   49.4920 O   0  0  0  0  0  0  0  0  0  0  0  0
   35.4800   28.6070   48.4320 N   0  0  0  0  0  0  0  0  0  0  0  0
   35.8300   28.1980   47.5100 H   0  0  0  0  0  0  0  0  0  0  0  0
   33.3590   27.4190   47.7030 N   0  0  0  0  0  0  0  0  0  0  0  0
   32.3980   28.0790   46.8410 C   0  0  0  0  0  2  0  0  0  0  0  0
   32.9700   28.1170   45.4280 C   0  0  0  0  0  2  0  0  0  0  0  0
   33.8560   26.8860   45.2420 C   0  0  0  0  0  3  0  0  0  0  0  0
   34.8700   27.0870   45.6300 H   0  0  0  0  0  0  0  0  0  0  0  0
   33.2030   25.7310   45.9920 C   0  0  0  0  0  2  0  0  0  0  0  0
   33.3720   25.9650   47.4870 C   0  0  0  0  0  2  0  0  0  0  0  0
   37.0520   30.8800   47.6030 C   0  0  0  0  0  0  0  0  0  0  0  0
   38.4110   31.2600   47.5590 C   0  0  0  0  0  0  0  0  0  0  0  0
   38.9930   31.3280   46.2890 C   0  0  0  0  0  0  0  0  0  0  0  0
   38.2300   31.0270   45.1850 N   0  0  0  0  0  0  0  0  0  0  0  0
   36.9130   30.6620   45.2860 C   0  0  0  0  0  0  0  0  0  0  0  0
   36.3390   30.5930   46.5050 N   0  0  0  0  0  0  0  0  0  0  0  0
   39.0950   31.5060   48.3430 H   0  0  0  0  0  0  0  0  0  0  0  0
   40.0160   31.6030   46.0960 H   0  0  0  0  0  0  0  0  0  0  0  0
   36.3800   30.4410   44.3700 H   0  0  0  0  0  0  0  0  0  0  0  0
  1  7  1  6  0  0  0
  1  6  1  0  0  0  0
  1  2  1  0  0  0  0
  2  8  1  0  0  0  0
  2  3  1  0  0  0  0
  3 11  1  0  0  0  0
  3  4  1  0  0  0  0
  4 12  1  0  0  0  0
  4 13  1  0  0  0  0
  5 14  1  0  0  0  0
  5 15  1  0  0  0  0
  5  4  1  0  0  0  0
  6 16  1  6  0  0  0
  6  5  1  0  0  0  0
  9  2  1  0  0  0  0
 10  3  1  0  0  0  0
 17 18  2  0  0  0  0
 19 17  1  0  0  0  0
 19  6  1  0  0  0  0
 20 19  1  0  0  0  0
 21 17  1  0  0  0  0
 22 21  1  0  0  0  0
 23 22  1  0  0  0  0
 24 23  1  0  0  0  0
 24 25  1  0  0  0  0
 24 26  1  0  0  0  0
 26 27  1  0  0  0  0
 27 21  1  0  0  0  0
 28  1  1  0  0  0  0
 29 28  1  0  0  0  0
 29 34  1  0  0  0  0
 30 29  2  0  0  0  0
 31 32  2  0  0  0  0
 31 30  1  0  0  0  0
 32 33  1  0  0  0  0
 33 28  2  0  0  0  0
 35 30  1  0  0  0  0
 36 32  1  0  0  0  0
M  END
>  <minimizedAffinity>
-5.95538139

>  <minimizedRMSD>
1.06848383

$$$$
