
 OpenBabel03272503053D

 30 32  0  0  0  0  0  0  0  0999 V2000
   38.0630   30.0870   47.2920 F   0  0  0  0  0  0  0  0  0  0  0  0
   38.4810   31.3260   47.6720 C   0  0  0  0  0  0  0  0  0  0  0  0
   38.1150   31.8020   48.9010 C   0  0  0  0  0  0  0  0  0  0  0  0
   38.5680   33.0580   49.2250 C   0  0  0  0  0  0  0  0  0  0  0  0
   39.3480   33.8190   48.3800 C   0  0  0  0  0  0  0  0  0  0  0  0
   39.7010   33.3040   47.1420 C   0  0  0  0  0  0  0  0  0  0  0  0
   39.2580   32.0310   46.7800 C   0  0  0  0  0  0  0  0  0  0  0  0
   38.2950   33.4620   50.1910 H   0  0  0  0  0  0  0  0  0  0  0  0
   39.6930   34.8140   48.6660 H   0  0  0  0  0  0  0  0  0  0  0  0
   40.3120   33.9040   46.4850 H   0  0  0  0  0  0  0  0  0  0  0  0
   38.5990   31.6550   44.5180 C   0  0  0  0  0  0  0  0  0  0  0  0
   37.5780   32.3090   44.8830 O   0  0  0  0  0  0  0  0  0  0  0  0
   39.6060   31.4780   45.5140 N   0  0  0  0  0  0  0  0  0  0  0  0
   40.4620   30.9740   45.2050 H   0  0  0  0  0  0  0  0  0  0  0  0
   38.6680   31.1620   43.1900 N   0  0  0  0  0  0  0  0  0  0  0  0
   39.9450   30.7090   42.6740 C   0  0  0  0  0  2  0  0  0  0  0  0
   40.1740   31.5150   41.4120 C   0  0  0  0  0  2  0  0  0  0  0  0
   39.1590   31.0540   40.3910 C   0  0  0  0  0  3  0  0  0  0  0  0
   39.6810   30.2310   39.8190 H   0  0  0  0  0  0  0  0  0  0  0  0
   37.8870   30.5380   40.9720 C   0  0  0  0  0  2  0  0  0  0  0  0
   37.5160   31.0870   42.3140 C   0  0  0  0  0  2  0  0  0  0  0  0
   36.9300   29.6150   51.7490 C   0  0  0  0  0  0  0  0  0  0  0  0
   37.7600   30.4240   50.9430 C   0  0  0  0  0  0  0  0  0  0  0  0
   37.2870   30.9610   49.7600 C   0  0  0  0  0  0  0  0  0  0  0  0
   35.9940   30.6730   49.4140 N   0  0  0  0  0  0  0  0  0  0  0  0
   35.2200   29.8950   50.2030 C   0  0  0  0  0  0  0  0  0  0  0  0
   35.6740   29.3840   51.3310 N   0  0  0  0  0  0  0  0  0  0  0  0
   37.3680   29.2250   52.6680 H   0  0  0  0  0  0  0  0  0  0  0  0
   38.7790   30.6480   51.2220 H   0  0  0  0  0  0  0  0  0  0  0  0
   34.1910   29.6410   49.9690 H   0  0  0  0  0  0  0  0  0  0  0  0
  1  2  1  0  0  0  0
  2  3  1  0  0  0  0
  3  4  2  0  0  0  0
  3 24  1  0  0  0  0
  4  8  1  0  0  0  0
  5  9  1  0  0  0  0
  5  4  1  0  0  0  0
  6  5  2  0  0  0  0
  7  6  1  0  0  0  0
  7  2  2  0  0  0  0
 10  6  1  0  0  0  0
 11 12  2  0  0  0  0
 11 13  1  0  0  0  0
 13  7  1  0  0  0  0
 14 13  1  0  0  0  0
 15 11  1  0  0  0  0
 16 15  1  0  0  0  0
 17 16  1  0  0  0  0
 18 20  1  0  0  0  0
 18 17  1  0  0  0  0
 19 18  1  0  0  0  0
 20 21  1  0  0  0  0
 21 15  1  0  0  0  0
 22 28  1  0  0  0  0
 23 29  1  0  0  0  0
 23 22  2  0  0  0  0
 24 23  1  0  0  0  0
 25 24  2  0  0  0  0
 25 26  1  0  0  0  0
 26 27  2  0  0  0  0
 27 22  1  0  0  0  0
 30 26  1  0  0  0  0
M  END
>  <minimizedAffinity>
-6.37559032

>  <minimizedRMSD>
0.71984762

$$$$
