
 OpenBabel03272503053D

 30 32  0  0  0  0  0  0  0  0999 V2000
   38.2610   30.2900   47.3750 F   0  0  0  0  0  0  0  0  0  0  0  0
   38.5910   31.5250   47.8410 C   0  0  0  0  0  0  0  0  0  0  0  0
   38.0770   31.9430   49.0370 C   0  0  0  0  0  0  0  0  0  0  0  0
   38.4480   33.1990   49.4530 C   0  0  0  0  0  0  0  0  0  0  0  0
   39.2890   34.0150   48.7260 C   0  0  0  0  0  0  0  0  0  0  0  0
   39.7910   33.5590   47.5170 C   0  0  0  0  0  0  0  0  0  0  0  0
   39.4350   32.2880   47.0650 C   0  0  0  0  0  0  0  0  0  0  0  0
   38.0570   33.5570   50.3970 H   0  0  0  0  0  0  0  0  0  0  0  0
   39.5650   35.0080   49.0830 H   0  0  0  0  0  0  0  0  0  0  0  0
   40.4490   34.2030   46.9530 H   0  0  0  0  0  0  0  0  0  0  0  0
   39.0380   31.9740   44.7330 C   0  0  0  0  0  0  0  0  0  0  0  0
   37.9600   32.5790   45.0070 O   0  0  0  0  0  0  0  0  0  0  0  0
   39.9390   31.7950   45.8260 N   0  0  0  0  0  0  0  0  0  0  0  0
   40.8420   31.3320   45.5960 H   0  0  0  0  0  0  0  0  0  0  0  0
   39.2690   31.5330   43.4050 N   0  0  0  0  0  0  0  0  0  0  0  0
   39.4660   30.1180   43.1580 C   0  0  0  0  0  2  0  0  0  0  0  0
   40.8000   30.0190   42.4490 C   0  0  0  0  0  2  0  0  0  0  0  0
   40.6290   30.6300   41.0770 C   0  0  0  0  0  3  0  0  0  0  0  0
   40.3450   29.7640   40.4100 H   0  0  0  0  0  0  0  0  0  0  0  0
   39.5880   31.6930   40.9990 C   0  0  0  0  0  2  0  0  0  0  0  0
   39.3190   32.4350   42.2710 C   0  0  0  0  0  2  0  0  0  0  0  0
   36.7060   29.5240   51.6010 C   0  0  0  0  0  0  0  0  0  0  0  0
   37.5920   30.3860   50.9180 C   0  0  0  0  0  0  0  0  0  0  0  0
   37.1900   31.0450   49.7710 C   0  0  0  0  0  0  0  0  0  0  0  0
   35.9100   30.8220   49.3360 N   0  0  0  0  0  0  0  0  0  0  0  0
   35.0820   29.9920   50.0070 C   0  0  0  0  0  0  0  0  0  0  0  0
   35.4680   29.3650   51.1020 N   0  0  0  0  0  0  0  0  0  0  0  0
   37.0890   29.0380   52.4980 H   0  0  0  0  0  0  0  0  0  0  0  0
   38.5990   30.5570   51.2660 H   0  0  0  0  0  0  0  0  0  0  0  0
   34.0620   29.7870   49.7010 H   0  0  0  0  0  0  0  0  0  0  0  0
  1  2  1  0  0  0  0
  2  3  1  0  0  0  0
  3  4  2  0  0  0  0
  3 24  1  0  0  0  0
  4  8  1  0  0  0  0
  5  9  1  0  0  0  0
  5  4  1  0  0  0  0
  6  5  2  0  0  0  0
  7  6  1  0  0  0  0
  7  2  2  0  0  0  0
 10  6  1  0  0  0  0
 11 12  2  0  0  0  0
 11 13  1  0  0  0  0
 13  7  1  0  0  0  0
 14 13  1  0  0  0  0
 15 11  1  0  0  0  0
 16 15  1  0  0  0  0
 17 16  1  0  0  0  0
 18 17  1  0  0  0  0
 19 18  1  0  0  0  0
 20 18  1  0  0  0  0
 20 21  1  0  0  0  0
 21 15  1  0  0  0  0
 22 28  1  0  0  0  0
 23 29  1  0  0  0  0
 23 22  2  0  0  0  0
 24 23  1  0  0  0  0
 25 24  2  0  0  0  0
 25 26  1  0  0  0  0
 26 27  2  0  0  0  0
 27 22  1  0  0  0  0
 30 26  1  0  0  0  0
M  END
>  <minimizedAffinity>
-6.97625923

>  <minimizedRMSD>
0.241235241

$$$$
