
 OpenBabel03272509263D

 23 24  0  0  0  0  0  0  0  0999 V2000
   36.3340   30.4750   47.4290 C   0  0  0  0  0  0  0  0  0  0  0  0
   37.0130   29.9100   46.7730 H   0  0  0  0  0  0  0  0  0  0  0  0
   36.3840   31.5610   47.2210 H   0  0  0  0  0  0  0  0  0  0  0  0
   36.3500   29.5030   51.0770 C   0  0  0  0  0  0  0  0  0  0  0  0
   35.9290   29.5700   49.7630 C   0  0  0  0  0  0  0  0  0  0  0  0
   36.6530   30.3090   48.8650 C   0  0  0  0  0  0  0  0  0  0  0  0
   37.7800   30.9510   49.3400 N   0  0  0  0  0  0  0  0  0  0  0  0
   38.1590   30.8660   50.6120 C   0  0  0  0  0  0  0  0  0  0  0  0
   37.4450   30.1380   51.4980 N   0  0  0  0  0  0  0  0  0  0  0  0
   35.7250   28.8950   51.7410 H   0  0  0  0  0  0  0  0  0  0  0  0
   35.0620   29.0690   49.4090 H   0  0  0  0  0  0  0  0  0  0  0  0
   39.0520   31.3800   50.9660 H   0  0  0  0  0  0  0  0  0  0  0  0
   34.9210   30.0240   47.1410 C   0  0  0  0  0  0  0  0  0  0  0  0
   34.3020   30.9480   47.3290 H   0  0  0  0  0  0  0  0  0  0  0  0
   34.5240   29.2680   47.8060 H   0  0  0  0  0  0  0  0  0  0  0  0
   34.7190   29.6750   45.3700 S   0  0  0  0  0  0  0  0  0  0  0  0
   30.6810   29.4190   43.6410 H   0  0  0  0  0  0  0  0  0  0  0  0
   30.3880   29.3860   44.6430 N   0  0  0  0  0  0  0  0  0  0  0  0
   30.9360   28.1860   45.2710 C   0  0  0  0  0  0  0  0  0  0  0  0
   32.3730   28.4180   45.6630 C   0  0  0  0  0  0  0  0  0  0  0  0
   32.9560   29.6220   44.9660 C   0  0  0  0  0  0  0  0  0  0  0  0
   32.2230   30.8470   45.4180 C   0  0  0  0  0  0  0  0  0  0  0  0
   30.7370   30.5880   45.3630 C   0  0  0  0  0  0  0  0  0  0  0  0
  1  6  1  0  0  0  0
  2  1  1  0  0  0  0
  3  1  1  0  0  0  0
  4  9  1  0  0  0  0
  4 10  1  0  0  0  0
  5  4  2  0  0  0  0
  6  7  2  0  0  0  0
  6  5  1  0  0  0  0
  7  8  1  0  0  0  0
  8 12  1  0  0  0  0
  8  9  2  0  0  0  0
 11  5  1  0  0  0  0
 13 14  1  0  0  0  0
 13  1  1  0  0  0  0
 13 15  1  0  0  0  0
 16 13  1  0  0  0  0
 17 18  1  0  0  0  0
 18 19  1  0  0  0  0
 18 23  1  0  0  0  0
 19 20  1  0  0  0  0
 21 16  1  0  0  0  0
 21 22  1  0  0  0  0
 21 20  1  0  0  0  0
 23 22  1  0  0  0  0
M  END
>  <minimizedAffinity>
-3.50231838

>  <minimizedRMSD>
7.91286755

$$$$
