
     RDKit          3D

 36 38  0  0  0  0  0  0  0  0999 V2000
   36.3687   30.4770   46.3873 Cl  0  0  0  0  0  0  0  0  0  0  0  0
   36.7985   30.5380   48.0732 C   0  0  0  0  0  0  0  0  0  0  0  0
   38.0238   31.0831   48.3827 C   0  0  0  0  0  0  0  0  0  0  0  0
   38.3904   31.1436   49.7333 C   0  0  0  0  0  0  0  0  0  0  0  0
   37.5324   30.6666   50.6911 C   0  0  0  0  0  0  0  0  0  0  0  0
   36.3141   30.1315   50.3022 C   0  0  0  0  0  0  0  0  0  0  0  0
   35.8917   30.0407   49.0020 C   0  0  0  0  0  0  0  0  0  0  0  0
   39.9981   33.4244   46.4052 C   0  0  0  0  0  0  0  0  0  0  0  0
   40.5706   32.6222   45.3838 C   0  0  0  0  0  0  0  0  0  0  0  0
   40.2476   31.2525   45.4090 C   0  0  0  0  0  0  0  0  0  0  0  0
   39.4240   30.7917   46.3905 N   0  0  0  0  0  0  0  0  0  0  0  0
   38.9145   31.5858   47.3237 C   0  0  0  0  0  0  0  0  0  0  0  0
   39.2005   32.9008   47.3319 N   0  0  0  0  0  0  0  0  0  0  0  0
   34.3419   29.3631   48.4861 S   0  0  0  0  0  0  0  0  0  0  0  0
   39.3545   31.5743   49.9629 H   0  0  0  0  0  0  0  0  0  0  0  0
   37.7856   30.7000   51.7278 H   0  0  0  0  0  0  0  0  0  0  0  0
   35.6432   29.7561   51.0730 H   0  0  0  0  0  0  0  0  0  0  0  0
   40.2619   34.4672   46.3624 H   0  0  0  0  0  0  0  0  0  0  0  0
   41.2184   32.9719   44.6069 H   0  0  0  0  0  0  0  0  0  0  0  0
   40.6233   30.5638   44.6936 H   0  0  0  0  0  0  0  0  0  0  0  0
   34.9489   24.0901   48.1562 H   0  0  0  0  0  0  0  0  0  0  0  0
   34.4103   24.7747   48.7223 N   0  0  0  0  0  0  0  0  0  0  0  0
   33.3407   25.4348   48.0164 C   0  0  0  0  0  0  0  0  0  0  0  0
   33.1363   26.8621   48.5439 C   0  0  0  0  0  0  0  0  0  0  0  0
   34.3792   27.6045   48.1512 C   0  0  0  0  0  0  0  0  0  0  0  0
   35.5234   26.9802   48.8925 C   0  0  0  0  0  0  0  0  0  0  0  0
   35.1976   25.6589   49.5355 C   0  0  0  0  0  0  0  0  0  0  0  0
   33.6357   25.5431   46.9468 H   0  0  0  0  0  0  0  0  0  0  0  0
   32.4215   24.8405   48.0539 H   0  0  0  0  0  0  0  0  0  0  0  0
   33.0815   26.7910   49.6480 H   0  0  0  0  0  0  0  0  0  0  0  0
   32.2400   27.2700   48.0813 H   0  0  0  0  0  0  0  0  0  0  0  0
   34.5453   27.4154   47.0501 H   0  0  0  0  0  0  0  0  0  0  0  0
   36.3971   26.8741   48.2120 H   0  0  0  0  0  0  0  0  0  0  0  0
   35.8245   27.6625   49.7169 H   0  0  0  0  0  0  0  0  0  0  0  0
   34.6951   25.7610   50.5070 H   0  0  0  0  0  0  0  0  0  0  0  0
   36.1701   25.1471   49.7330 H   0  0  0  0  0  0  0  0  0  0  0  0
  1  2  1  0
  2  3  2  0
  2  7  1  0
  3  4  1  0
  4  5  2  0
  6  5  1  0
  7  6  2  0
  8 13  2  0
  9 10  2  0
  9  8  1  0
 10 11  1  0
 11 12  2  0
 12  3  1  0
 13 12  1  0
 14  7  1  0
  4 15  1  0
  5 16  1  0
  6 17  1  0
  8 18  1  0
  9 19  1  0
 10 20  1  0
 21 22  1  0
 22 23  1  0
 23 24  1  0
 24 25  1  0
 25 26  1  0
 26 27  1  0
 27 22  1  0
 23 28  1  0
 23 29  1  0
 24 30  1  0
 24 31  1  0
 25 32  1  0
 26 33  1  0
 26 34  1  0
 27 35  1  0
 27 36  1  0
 14 25  1  0
M  ISO  7  15  14  16  14  17  14  18  14  19  14  20  14  21   5
M  END
>  <DihAtoms>  (1) 
6,13,24,23

>  <DihDeg>  (1) 
-66.31398965363663

$$$$
