REMARK  Name = 
REMARK  4 active torsions:
REMARK  status: ('A' for Active; 'I' for Inactive)
REMARK    1  A    between atoms: C_2  and  C_7
REMARK    2  A    between atoms: C_3  and  C_14
REMARK    3  A    between atoms: C_12  and  S_13
REMARK    4  A    between atoms: S_13  and  C_28
REMARK                            x       y       z     vdW  Elec       q    Type
REMARK                         _______ _______ _______ _____ _____    ______ ____
ROOT
ATOM      1  C   UNL     1      38.201  31.072  47.886  0.00  0.00    +0.000 A 
ATOM      2  C   UNL     1      38.525  30.270  46.824  0.00  0.00    +0.000 A 
ATOM      3  C   UNL     1      39.289  30.663  45.730  0.00  0.00    +0.000 A 
ATOM      4  C   UNL     1      39.771  31.988  45.708  0.00  0.00    +0.000 A 
ATOM      5  C   UNL     1      39.444  32.796  46.779  0.00  0.00    +0.000 A 
ATOM      6  C   UNL     1      38.684  32.383  47.852  0.00  0.00    +0.000 A 
ATOM      7  H   UNL     1      38.192  29.223  46.759  0.00  0.00    +0.000 HD
ATOM      8  H   UNL     1      39.521  29.995  44.912  0.00  0.00    +0.000 HD
ATOM      9  H   UNL     1      40.368  32.367  44.896  0.00  0.00    +0.000 HD
ATOM     10  H   UNL     1      39.807  33.816  46.775  0.00  0.00    +0.000 HD
ENDROOT
BRANCH   1  12
ATOM     11  C   UNL     1      38.019  30.319  50.197  0.00  0.00    +0.000 A 
ATOM     12  C   UNL     1      37.398  30.495  48.936  0.00  0.00    +0.000 A 
ATOM     13  C   UNL     1      36.066  30.097  48.809  0.00  0.00    +0.000 A 
ATOM     14  N   UNL     1      35.431  29.567  49.880  0.00  0.00    +0.000 NA
ATOM     15  C   UNL     1      36.051  29.407  51.086  0.00  0.00    +0.000 A 
ATOM     16  N   UNL     1      37.354  29.791  51.225  0.00  0.00    +0.000 NA
ATOM     17  H   UNL     1      39.053  30.617  50.323  0.00  0.00    +0.000 HD
ATOM     18  H   UNL     1      35.405  28.971  51.835  0.00  0.00    +0.000 HD
BRANCH  13  19
ATOM     19  C   UNL     1      35.297  30.230  47.532  0.00  0.00    +0.000 C 
ATOM     20  F   UNL     1      34.020  30.769  47.832  0.00  0.00    +0.000 F 
ATOM     21  F   UNL     1      35.851  30.977  46.563  0.00  0.00    +0.000 F 
ATOM     22  F   UNL     1      34.992  28.972  47.035  0.00  0.00    +0.000 F 
ENDBRANCH  13  19
ENDBRANCH   1  12
BRANCH   6  23
ATOM     23  S   UNL     1      38.267  33.414  49.225  0.00  0.00    +0.000 S 
BRANCH  23  28
ATOM     24  H   UNL     1      34.286  37.170  49.561  0.00  0.00    +0.000 HD
ATOM     25  N   UNL     1      34.843  36.328  49.261  0.00  0.00    +0.000 NA
ATOM     26  C   UNL     1      36.139  36.756  48.813  0.00  0.00    +0.000 C 
ATOM     27  C   UNL     1      36.888  35.590  48.196  0.00  0.00    +0.000 C 
ATOM     28  C   UNL     1      36.735  34.332  49.023  0.00  0.00    +0.000 C 
ATOM     29  C   UNL     1      36.312  34.745  50.432  0.00  0.00    +0.000 C 
ATOM     30  C   UNL     1      35.042  35.532  50.448  0.00  0.00    +0.000 C 
ENDBRANCH  23  28
ENDBRANCH   6  23
TORSDOF 4
