
 OpenBabel03272504223D

 37 39  0  0  1  0  0  0  0  0999 V2000
   38.8390   32.3950   47.8290 C   0  0  2  0  0  0  0  0  0  0  0  0
   38.1980   31.3780   48.7520 C   0  0  1  0  0  0  0  0  0  0  0  0
   38.7380   31.9140   50.0810 C   0  0  0  0  0  0  0  0  0  0  0  0
   38.4290   33.2470   49.9810 O   0  0  0  0  0  0  0  0  0  0  0  0
   38.6490   33.6560   48.6840 C   0  0  0  0  0  0  0  0  0  0  0  0
   39.9130   32.2780   47.7100 H   0  0  0  0  0  0  0  0  0  0  0  0
   38.5230   30.3410   48.5720 H   0  0  0  0  0  0  0  0  0  0  0  0
   39.8120   31.7320   50.1490 H   0  0  0  0  0  0  0  0  0  0  0  0
   38.1660   31.4980   50.9480 H   0  0  0  0  0  0  0  0  0  0  0  0
   37.8270   34.2800   48.2640 H   0  0  0  0  0  0  0  0  0  0  0  0
   39.5440   34.2930   48.6750 H   0  0  0  0  0  0  0  0  0  0  0  0
   36.8370   31.5890   48.6910 O   0  0  0  0  0  0  0  0  0  0  0  0
   35.9050   29.8620   46.9830 O   0  0  0  0  0  0  0  0  0  0  0  0
   35.9630   30.1730   48.4530 P   0  0  1  0  0  0  0  0  0  0  0  0
   36.7480   28.8730   49.2350 O   0  0  0  0  0  0  0  0  0  0  0  0
   37.3420   28.3720   48.6240 H   0  0  0  0  0  0  0  0  0  0  0  0
   34.4000   30.3280   49.0830 O   0  0  0  0  0  0  0  0  0  0  0  0
   34.1260   29.1900   49.8100 C   0  0  0  0  0  0  0  0  0  0  0  0
   35.0350   28.6340   50.1250 H   0  0  0  0  0  0  0  0  0  0  0  0
   33.6150   29.4860   50.7600 H   0  0  0  0  0  0  0  0  0  0  0  0
   33.2650   28.2230   49.0910 C   0  0  0  0  0  0  0  0  0  0  0  0
   33.8950   27.3320   48.2550 C   0  0  0  0  0  0  0  0  0  0  0  0
   33.1370   26.3960   47.5490 C   0  0  0  0  0  0  0  0  0  0  0  0
   31.7870   26.4250   47.7380 N   0  0  0  0  0  0  0  0  0  0  0  0
   31.1840   27.3120   48.5660 C   0  0  0  0  0  0  0  0  0  0  0  0
   31.9300   28.2170   49.2460 N   0  0  0  0  0  0  0  0  0  0  0  0
   34.9400   27.2350   48.0450 H   0  0  0  0  0  0  0  0  0  0  0  0
   33.5400   25.6560   46.8710 H   0  0  0  0  0  0  0  0  0  0  0  0
   30.1010   27.2970   48.6830 H   0  0  0  0  0  0  0  0  0  0  0  0
   38.1140   32.4490   46.6700 O   0  0  0  0  0  0  0  0  0  0  0  0
   39.9240   30.3560   42.5300 H   0  0  0  0  0  0  0  0  0  0  0  0
   39.5110   30.6660   43.4440 N   0  0  0  0  0  0  0  0  0  0  0  0
   38.4530   31.5820   43.1620 C   0  0  0  0  0  2  0  0  0  0  0  0
   38.1670   32.5640   44.2770 C   0  0  0  0  0  2  0  0  0  0  0  0
   38.6560   31.9280   45.5590 C   0  0  0  0  0  3  0  0  0  0  0  0
   40.1490   31.8910   45.4760 C   0  0  0  0  0  2  0  0  0  0  0  0
   40.5990   31.2000   44.2260 C   0  0  0  0  0  2  0  0  0  0  0  0
  1  6  1  6  0  0  0
  1  5  1  0  0  0  0
  1  2  1  0  0  0  0
  2  7  1  6  0  0  0
  2  3  1  0  0  0  0
  3  8  1  0  0  0  0
  3  9  1  0  0  0  0
  4  3  1  0  0  0  0
  5  4  1  0  0  0  0
 10  5  1  0  0  0  0
 11  5  1  0  0  0  0
 12  2  1  0  0  0  0
 14 13  2  6  0  0  0
 14 12  1  0  0  0  0
 14 17  1  0  0  0  0
 14 15  1  0  0  0  0
 16 15  1  0  0  0  0
 17 18  1  0  0  0  0
 18 19  1  0  0  0  0
 18 20  1  0  0  0  0
 21 26  1  0  0  0  0
 21 18  1  0  0  0  0
 22 21  2  0  0  0  0
 23 24  2  0  0  0  0
 23 22  1  0  0  0  0
 24 25  1  0  0  0  0
 25 29  1  0  0  0  0
 25 26  2  0  0  0  0
 27 22  1  0  0  0  0
 28 23  1  0  0  0  0
 30  1  1  0  0  0  0
 31 32  1  0  0  0  0
 32 37  1  0  0  0  0
 33 32  1  0  0  0  0
 33 34  1  0  0  0  0
 34 35  1  0  0  0  0
 35 30  1  0  0  0  0
 36 35  1  0  0  0  0
 37 36  1  0  0  0  0
M  END
>  <minimizedAffinity>
-4.77574825

>  <minimizedRMSD>
0.508910298

$$$$
