
     RDKit          3D

 46 48  0  0  0  0  0  0  0  0999 V2000
   36.0324   29.9461   46.9708 O   0  0  0  0  0  0  0  0  0  0  0  0
   36.0328   30.2293   48.4478 P   0  0  2  0  0  0  0  0  0  0  0  0
   36.7983   28.9200   49.2342 O   0  0  0  0  0  0  0  0  0  0  0  0
   34.4474   30.3617   49.0224 O   0  0  0  0  0  0  0  0  0  0  0  0
   34.1749   29.2357   49.7678 C   0  0  0  0  0  0  0  0  0  0  0  0
   33.3149   28.2561   49.0660 C   0  0  0  0  0  0  0  0  0  0  0  0
   33.9445   27.3694   48.2243 C   0  0  0  0  0  0  0  0  0  0  0  0
   33.1867   26.4205   47.5335 C   0  0  0  0  0  0  0  0  0  0  0  0
   31.8395   26.4341   47.7427 N   0  0  0  0  0  0  0  0  0  0  0  0
   31.2379   27.3160   48.5762 C   0  0  0  0  0  0  0  0  0  0  0  0
   31.9830   28.2325   49.2415 N   0  0  0  0  0  0  0  0  0  0  0  0
   36.8868   31.6461   48.7451 O   0  0  0  0  0  0  0  0  0  0  0  0
   38.8458   32.4739   47.8066 C   0  0  2  0  0  0  0  0  0  0  0  0
   38.2528   31.4584   48.7631 C   0  0  1  0  0  0  0  0  0  0  0  0
   38.8279   32.0192   50.0670 C   0  0  0  0  0  0  0  0  0  0  0  0
   38.4938   33.3462   49.9606 O   0  0  0  0  0  0  0  0  0  0  0  0
   38.6643   33.7420   48.6529 C   0  0  0  0  0  0  0  0  0  0  0  0
   38.0811   32.5017   46.6726 O   0  0  0  0  0  0  0  0  0  0  0  0
   37.4184   28.4337   48.6365 H   0  0  0  0  0  0  0  0  0  0  0  0
   35.0850   28.6872   50.0916 H   0  0  0  0  0  0  0  0  0  0  0  0
   33.6643   29.5469   50.7144 H   0  0  0  0  0  0  0  0  0  0  0  0
   34.9874   27.2842   47.9991 H   0  0  0  0  0  0  0  0  0  0  0  0
   33.5893   25.6835   46.8517 H   0  0  0  0  0  0  0  0  0  0  0  0
   30.1568   27.2875   48.7104 H   0  0  0  0  0  0  0  0  0  0  0  0
   39.9167   32.3729   47.6525 H   0  0  0  0  0  0  0  0  0  0  0  0
   38.5893   30.4245   48.5839 H   0  0  0  0  0  0  0  0  0  0  0  0
   39.9070   31.8551   50.0997 H   0  0  0  0  0  0  0  0  0  0  0  0
   38.2928   31.6045   50.9574 H   0  0  0  0  0  0  0  0  0  0  0  0
   37.8180   34.3468   48.2537 H   0  0  0  0  0  0  0  0  0  0  0  0
   39.5468   34.3931   48.6065 H   0  0  0  0  0  0  0  0  0  0  0  0
   40.1754   32.2267   42.1631 H   0  0  0  0  0  0  0  0  0  0  0  0
   39.6190   32.2273   43.0542 N   0  0  0  0  0  0  0  0  0  0  0  0
   39.5561   33.5698   43.5334 C   0  0  0  0  0  0  0  0  0  0  0  0
   39.3590   33.6889   45.0291 C   0  0  0  0  0  0  0  0  0  0  0  0
   38.7035   32.4037   45.4884 C   0  0  0  0  0  0  0  0  0  0  0  0
   39.7265   31.3233   45.3363 C   0  0  0  0  0  0  0  0  0  0  0  0
   40.2614   31.2853   43.9376 C   0  0  0  0  0  0  0  0  0  0  0  0
   38.6276   34.0138   43.0666 H   0  0  0  0  0  0  0  0  0  0  0  0
   40.3759   34.2212   43.1689 H   0  0  0  0  0  0  0  0  0  0  0  0
   40.3757   33.7630   45.4935 H   0  0  0  0  0  0  0  0  0  0  0  0
   38.7418   34.5740   45.2596 H   0  0  0  0  0  0  0  0  0  0  0  0
   37.9144   32.1676   44.7206 H   0  0  0  0  0  0  0  0  0  0  0  0
   40.5965   31.4312   46.0083 H   0  0  0  0  0  0  0  0  0  0  0  0
   39.2791   30.3378   45.5775 H   0  0  0  0  0  0  0  0  0  0  0  0
   40.1045   30.2881   43.4882 H   0  0  0  0  0  0  0  0  0  0  0  0
   41.3779   31.4365   43.8992 H   0  0  0  0  0  0  0  0  0  0  0  0
  2  1  2  0
  2 12  1  6
  2  4  1  0
  2  3  1  0
  4  5  1  0
  6 11  1  0
  6  5  1  0
  7  6  2  0
  8  9  2  0
  8  7  1  0
  9 10  1  0
 10 11  2  0
 13 18  1  0
 13 17  1  0
 13 14  1  0
 14 12  1  0
 14 15  1  0
 16 15  1  0
 17 16  1  0
  3 19  1  0
  5 20  1  0
  5 21  1  0
  7 22  1  0
  8 23  1  0
 10 24  1  0
 13 25  1  6
 14 26  1  6
 15 27  1  0
 15 28  1  0
 17 29  1  0
 17 30  1  0
 31 32  1  0
 32 33  1  0
 33 34  1  0
 34 35  1  0
 35 36  1  0
 36 37  1  0
 37 32  1  0
 33 38  1  0
 33 39  1  0
 34 40  1  0
 34 41  1  0
 35 42  1  0
 36 43  1  0
 36 44  1  0
 37 45  1  0
 37 46  1  0
 18 35  1  0
M  ISO  8  19   3  20   8  21   8  22  14  23  14  24  14  25  13  26  13
M  ISO  5  27  13  28  13  29  13  30  13  31   5
M  END
>  <DihAtoms>  (1) 
12,17,34,33

>  <DihDeg>  (1) 
116.79931859044645

$$$$
