
     RDKit          3D

 39 41  0  0  0  0  0  0  0  0999 V2000
   38.0189   30.3186   50.1965 C   0  0  0  0  0  0  0  0  0  0  0  0
   37.3980   30.4948   48.9356 C   0  0  0  0  0  0  0  0  0  0  0  0
   36.0656   30.0967   48.8091 C   0  0  0  0  0  0  0  0  0  0  0  0
   35.4313   29.5667   49.8799 N   0  0  0  0  0  0  0  0  0  0  0  0
   36.0515   29.4068   51.0864 C   0  0  0  0  0  0  0  0  0  0  0  0
   37.3537   29.7912   51.2254 N   0  0  0  0  0  0  0  0  0  0  0  0
   38.2014   31.0719   47.8855 C   0  0  0  0  0  0  0  0  0  0  0  0
   38.5248   30.2696   46.8235 C   0  0  0  0  0  0  0  0  0  0  0  0
   39.2892   30.6631   45.7304 C   0  0  0  0  0  0  0  0  0  0  0  0
   39.7707   31.9877   45.7079 C   0  0  0  0  0  0  0  0  0  0  0  0
   39.4441   32.7962   46.7791 C   0  0  0  0  0  0  0  0  0  0  0  0
   38.6843   32.3826   47.8518 C   0  0  0  0  0  0  0  0  0  0  0  0
   38.2669   33.4141   49.2254 S   0  0  0  0  0  0  0  0  0  0  0  0
   35.2971   30.2301   47.5325 C   0  0  0  0  0  0  0  0  0  0  0  0
   34.0203   30.7686   47.8321 F   0  0  0  0  0  0  0  0  0  0  0  0
   35.8511   30.9775   46.5635 F   0  0  0  0  0  0  0  0  0  0  0  0
   34.9923   28.9718   47.0346 F   0  0  0  0  0  0  0  0  0  0  0  0
   39.0527   30.6172   50.3231 H   0  0  0  0  0  0  0  0  0  0  0  0
   35.4046   28.9713   51.8352 H   0  0  0  0  0  0  0  0  0  0  0  0
   38.1921   29.2229   46.7586 H   0  0  0  0  0  0  0  0  0  0  0  0
   39.5213   29.9947   44.9119 H   0  0  0  0  0  0  0  0  0  0  0  0
   40.3684   32.3675   44.8959 H   0  0  0  0  0  0  0  0  0  0  0  0
   39.8075   33.8159   46.7751 H   0  0  0  0  0  0  0  0  0  0  0  0
   34.2864   37.1701   49.5612 H   0  0  0  0  0  0  0  0  0  0  0  0
   34.8425   36.3281   49.2606 N   0  0  0  0  0  0  0  0  0  0  0  0
   36.1390   36.7562   48.8129 C   0  0  0  0  0  0  0  0  0  0  0  0
   36.8876   35.5903   48.1964 C   0  0  0  0  0  0  0  0  0  0  0  0
   36.7353   34.3317   49.0233 C   0  0  0  0  0  0  0  0  0  0  0  0
   36.3115   34.7453   50.4316 C   0  0  0  0  0  0  0  0  0  0  0  0
   35.0417   35.5325   50.4480 C   0  0  0  0  0  0  0  0  0  0  0  0
   36.7006   37.1843   49.6445 H   0  0  0  0  0  0  0  0  0  0  0  0
   36.0939   37.5325   48.0278 H   0  0  0  0  0  0  0  0  0  0  0  0
   36.4445   35.4311   47.1790 H   0  0  0  0  0  0  0  0  0  0  0  0
   37.9553   35.8445   48.1402 H   0  0  0  0  0  0  0  0  0  0  0  0
   35.9228   33.7193   48.5775 H   0  0  0  0  0  0  0  0  0  0  0  0
   36.2261   33.8467   51.0659 H   0  0  0  0  0  0  0  0  0  0  0  0
   37.1356   35.3626   50.8359 H   0  0  0  0  0  0  0  0  0  0  0  0
   34.1568   34.8870   50.6156 H   0  0  0  0  0  0  0  0  0  0  0  0
   35.0972   36.1902   51.3644 H   0  0  0  0  0  0  0  0  0  0  0  0
  1  6  2  0
  2  1  1  0
  3  2  2  0
  3  4  1  0
  4  5  2  0
  5  6  1  0
  7  2  1  0
  8  7  2  0
  9  8  1  0
 10  9  2  0
 10 11  1  0
 11 12  2  0
 12  7  1  0
 12 13  1  0
 14 15  1  0
 14  3  1  0
 16 14  1  0
 17 14  1  0
  1 18  1  0
  5 19  1  0
  8 20  1  0
  9 21  1  0
 10 22  1  0
 11 23  1  0
 24 25  1  0
 25 26  1  0
 26 27  1  0
 27 28  1  0
 28 29  1  0
 29 30  1  0
 30 25  1  0
 26 31  1  0
 26 32  1  0
 27 33  1  0
 27 34  1  0
 28 35  1  0
 29 36  1  0
 29 37  1  0
 30 38  1  0
 30 39  1  0
 13 28  1  0
M  ISO  7  18  14  19  14  20  14  21  14  22  14  23  14  24   5
M  END
>  <DihAtoms>  (1) 
11,12,27,26

>  <DihDeg>  (1) 
-66.18833256607464

$$$$
