REMARK  Name = 
REMARK  8 active torsions:
REMARK  status: ('A' for Active; 'I' for Inactive)
REMARK    1  A    between atoms: P_2  and  O_3
REMARK    2  A    between atoms: P_2  and  O_4
REMARK    3  A    between atoms: P_2  and  O_12
REMARK    4  A    between atoms: O_4  and  C_5
REMARK    5  A    between atoms: C_5  and  C_6
REMARK    6  A    between atoms: O_12  and  C_14
REMARK    7  A    between atoms: C_13  and  O_18
REMARK    8  A    between atoms: O_18  and  C_35
REMARK                            x       y       z     vdW  Elec       q    Type
REMARK                         _______ _______ _______ _____ _____    ______ ____
ROOT
ATOM      1  C   UNL     1      38.846  32.474  47.807  0.00  0.00    +0.000 C 
ATOM      2  C   UNL     1      38.253  31.458  48.763  0.00  0.00    +0.000 C 
ATOM      3  C   UNL     1      38.828  32.019  50.067  0.00  0.00    +0.000 C 
ATOM      4  O   UNL     1      38.494  33.346  49.961  0.00  0.00    +0.000 OA
ATOM      5  C   UNL     1      38.664  33.742  48.653  0.00  0.00    +0.000 C 
ATOM      6  H   UNL     1      39.917  32.373  47.653  0.00  0.00    +0.000 HD
ATOM      7  H   UNL     1      38.589  30.424  48.584  0.00  0.00    +0.000 HD
ATOM      8  H   UNL     1      39.907  31.855  50.100  0.00  0.00    +0.000 HD
ATOM      9  H   UNL     1      38.293  31.605  50.957  0.00  0.00    +0.000 HD
ATOM     10  H   UNL     1      37.818  34.347  48.254  0.00  0.00    +0.000 HD
ATOM     11  H   UNL     1      39.547  34.393  48.606  0.00  0.00    +0.000 HD
ENDROOT
BRANCH   2  12
ATOM     12  O   UNL     1      36.887  31.646  48.745  0.00  0.00    +0.000 OA
BRANCH  12  14
ATOM     13  O   UNL     1      36.032  29.946  46.971  0.00  0.00    +0.000 OA
ATOM     14  P   UNL     1      36.033  30.229  48.448  0.00  0.00    +0.000 P 
BRANCH  14  15
ATOM     15  O   UNL     1      36.798  28.920  49.234  0.00  0.00    +0.000 OA
ATOM     16  H   UNL     1      37.418  28.434  48.636  0.00  0.00    +0.000 HD
ENDBRANCH  14  15
BRANCH  14  17
ATOM     17  O   UNL     1      34.447  30.362  49.022  0.00  0.00    +0.000 OA
BRANCH  17  18
ATOM     18  C   UNL     1      34.175  29.236  49.768  0.00  0.00    +0.000 C 
ATOM     19  H   UNL     1      35.085  28.687  50.092  0.00  0.00    +0.000 HD
ATOM     20  H   UNL     1      33.664  29.547  50.714  0.00  0.00    +0.000 HD
BRANCH  18  21
ATOM     21  C   UNL     1      33.315  28.256  49.066  0.00  0.00    +0.000 A 
ATOM     22  C   UNL     1      33.944  27.369  48.224  0.00  0.00    +0.000 A 
ATOM     23  C   UNL     1      33.187  26.421  47.533  0.00  0.00    +0.000 A 
ATOM     24  N   UNL     1      31.840  26.434  47.743  0.00  0.00    +0.000 NA
ATOM     25  C   UNL     1      31.238  27.316  48.576  0.00  0.00    +0.000 A 
ATOM     26  N   UNL     1      31.983  28.233  49.242  0.00  0.00    +0.000 NA
ATOM     27  H   UNL     1      34.987  27.284  47.999  0.00  0.00    +0.000 HD
ATOM     28  H   UNL     1      33.589  25.683  46.852  0.00  0.00    +0.000 HD
ATOM     29  H   UNL     1      30.157  27.288  48.710  0.00  0.00    +0.000 HD
ENDBRANCH  18  21
ENDBRANCH  17  18
ENDBRANCH  14  17
ENDBRANCH  12  14
ENDBRANCH   2  12
BRANCH   1  30
ATOM     30  O   UNL     1      38.081  32.502  46.673  0.00  0.00    +0.000 OA
BRANCH  30  35
ATOM     31  H   UNL     1      40.205  32.287  42.174  0.00  0.00    +0.000 HD
ATOM     32  N   UNL     1      39.634  32.310  43.055  0.00  0.00    +0.000 NA
ATOM     33  C   UNL     1      39.863  33.565  43.695  0.00  0.00    +0.000 C 
ATOM     34  C   UNL     1      39.649  33.549  45.193  0.00  0.00    +0.000 C 
ATOM     35  C   UNL     1      38.703  32.404  45.488  0.00  0.00    +0.000 C 
ATOM     36  C   UNL     1      39.459  31.143  45.210  0.00  0.00    +0.000 C 
ATOM     37  C   UNL     1      40.017  31.148  43.820  0.00  0.00    +0.000 C 
ENDBRANCH  30  35
ENDBRANCH   1  30
TORSDOF 8
