
 OpenBabel03272505093D

 27 29  0  0  0  0  0  0  0  0999 V2000
   36.2330   30.9190   45.3270 Cl  0  0  0  0  0  0  0  0  0  0  0  0
   36.4490   30.5520   47.0150 C   0  0  0  0  0  0  0  0  0  0  0  0
   37.7040   30.7600   47.5400 C   0  0  0  0  0  0  0  0  0  0  0  0
   37.9020   30.4730   48.8960 C   0  0  0  0  0  0  0  0  0  0  0  0
   36.8570   30.0010   49.6490 C   0  0  0  0  0  0  0  0  0  0  0  0
   35.6200   29.8160   49.0490 C   0  0  0  0  0  0  0  0  0  0  0  0
   35.3570   30.0760   47.7310 C   0  0  0  0  0  0  0  0  0  0  0  0
   38.8920   30.6410   49.2960 H   0  0  0  0  0  0  0  0  0  0  0  0
   36.9790   29.7730   50.6850 H   0  0  0  0  0  0  0  0  0  0  0  0
   34.8000   29.4400   49.6590 H   0  0  0  0  0  0  0  0  0  0  0  0
   40.0650   33.1110   46.0600 C   0  0  0  0  0  0  0  0  0  0  0  0
   40.8290   32.3210   45.1620 C   0  0  0  0  0  0  0  0  0  0  0  0
   40.4950   30.9560   45.0920 C   0  0  0  0  0  0  0  0  0  0  0  0
   39.4820   30.4880   45.8730 N   0  0  0  0  0  0  0  0  0  0  0  0
   38.7980   31.2710   46.6980 C   0  0  0  0  0  0  0  0  0  0  0  0
   39.0880   32.5820   46.7920 N   0  0  0  0  0  0  0  0  0  0  0  0
   40.3410   34.1510   46.0940 H   0  0  0  0  0  0  0  0  0  0  0  0
   41.6250   32.6770   44.5430 H   0  0  0  0  0  0  0  0  0  0  0  0
   41.0030   30.2750   44.4550 H   0  0  0  0  0  0  0  0  0  0  0  0
   33.7870   29.8490   46.9480 S   0  0  0  0  0  0  0  0  0  0  0  0
   32.7830   24.7910   45.6480 H   0  0  0  0  0  0  0  0  0  0  0  0
   33.5640   25.3490   46.0460 N   0  0  0  0  0  0  0  0  0  0  0  0
   33.3500   25.8160   47.3920 C   0  0  0  0  0  2  0  0  0  0  0  0
   34.0440   27.1670   47.6200 C   0  0  0  0  0  2  0  0  0  0  0  0
   33.3020   28.1370   46.7480 C   0  0  0  0  0  3  0  0  0  0  0  0
   33.5250   27.7190   45.3260 C   0  0  0  0  0  2  0  0  0  0  0  0
   34.1190   26.3440   45.1710 C   0  0  0  0  0  2  0  0  0  0  0  0
  1  2  1  0  0  0  0
  2  3  2  0  0  0  0
  2  7  1  0  0  0  0
  3  4  1  0  0  0  0
  4  8  1  0  0  0  0
  4  5  2  0  0  0  0
  5  9  1  0  0  0  0
  6  5  1  0  0  0  0
  6 10  1  0  0  0  0
  7  6  2  0  0  0  0
 11 17  1  0  0  0  0
 11 16  1  0  0  0  0
 12 11  2  0  0  0  0
 13 12  1  0  0  0  0
 13 14  2  0  0  0  0
 14 15  1  0  0  0  0
 15 16  2  0  0  0  0
 15  3  1  0  0  0  0
 18 12  1  0  0  0  0
 19 13  1  0  0  0  0
 20  7  1  0  0  0  0
 21 22  1  0  0  0  0
 22 23  1  0  0  0  0
 23 24  1  0  0  0  0
 25 20  1  0  0  0  0
 25 24  1  0  0  0  0
 26 25  1  0  0  0  0
 27 26  1  0  0  0  0
 27 22  1  0  0  0  0
M  END
>  <minimizedAffinity>
-5.151021

>  <minimizedRMSD>
1.53324842

$$$$
