
     RDKit          3D

 36 38  0  0  0  0  0  0  0  0999 V2000
   36.3687   30.4770   46.3873 Cl  0  0  0  0  0  0  0  0  0  0  0  0
   36.7985   30.5380   48.0732 C   0  0  0  0  0  0  0  0  0  0  0  0
   38.0238   31.0831   48.3827 C   0  0  0  0  0  0  0  0  0  0  0  0
   38.3904   31.1436   49.7333 C   0  0  0  0  0  0  0  0  0  0  0  0
   37.5324   30.6666   50.6911 C   0  0  0  0  0  0  0  0  0  0  0  0
   36.3141   30.1315   50.3022 C   0  0  0  0  0  0  0  0  0  0  0  0
   35.8917   30.0407   49.0020 C   0  0  0  0  0  0  0  0  0  0  0  0
   39.9981   33.4244   46.4052 C   0  0  0  0  0  0  0  0  0  0  0  0
   40.5706   32.6222   45.3838 C   0  0  0  0  0  0  0  0  0  0  0  0
   40.2476   31.2525   45.4090 C   0  0  0  0  0  0  0  0  0  0  0  0
   39.4240   30.7917   46.3905 N   0  0  0  0  0  0  0  0  0  0  0  0
   38.9145   31.5858   47.3237 C   0  0  0  0  0  0  0  0  0  0  0  0
   39.2005   32.9008   47.3319 N   0  0  0  0  0  0  0  0  0  0  0  0
   34.3419   29.3631   48.4861 S   0  0  0  0  0  0  0  0  0  0  0  0
   39.3545   31.5743   49.9629 H   0  0  0  0  0  0  0  0  0  0  0  0
   37.7856   30.7000   51.7278 H   0  0  0  0  0  0  0  0  0  0  0  0
   35.6432   29.7561   51.0730 H   0  0  0  0  0  0  0  0  0  0  0  0
   40.2619   34.4672   46.3624 H   0  0  0  0  0  0  0  0  0  0  0  0
   41.2184   32.9719   44.6069 H   0  0  0  0  0  0  0  0  0  0  0  0
   40.6233   30.5638   44.6936 H   0  0  0  0  0  0  0  0  0  0  0  0
   33.6290   24.1683   47.5984 H   0  0  0  0  0  0  0  0  0  0  0  0
   33.5031   25.0661   47.0911 N   0  0  0  0  0  0  0  0  0  0  0  0
   34.7284   25.7154   46.6973 C   0  0  0  0  0  0  0  0  0  0  0  0
   34.5660   27.2421   46.7076 C   0  0  0  0  0  0  0  0  0  0  0  0
   34.3792   27.6045   48.1512 C   0  0  0  0  0  0  0  0  0  0  0  0
   33.0910   26.9838   48.6027 C   0  0  0  0  0  0  0  0  0  0  0  0
   32.5296   25.9611   47.6519 C   0  0  0  0  0  0  0  0  0  0  0  0
   35.5112   25.4858   47.4570 H   0  0  0  0  0  0  0  0  0  0  0  0
   35.0772   25.3395   45.7296 H   0  0  0  0  0  0  0  0  0  0  0  0
   33.6386   27.4696   46.1463 H   0  0  0  0  0  0  0  0  0  0  0  0
   35.4633   27.6819   46.2773 H   0  0  0  0  0  0  0  0  0  0  0  0
   35.2144   27.1099   48.7288 H   0  0  0  0  0  0  0  0  0  0  0  0
   33.2236   26.5398   49.6141 H   0  0  0  0  0  0  0  0  0  0  0  0
   32.3243   27.7841   48.6884 H   0  0  0  0  0  0  0  0  0  0  0  0
   31.9619   26.4047   46.8225 H   0  0  0  0  0  0  0  0  0  0  0  0
   31.8077   25.3399   48.2346 H   0  0  0  0  0  0  0  0  0  0  0  0
  1  2  1  0
  2  3  2  0
  2  7  1  0
  3  4  1  0
  4  5  2  0
  6  5  1  0
  7  6  2  0
  8 13  2  0
  9 10  2  0
  9  8  1  0
 10 11  1  0
 11 12  2  0
 12  3  1  0
 13 12  1  0
 14  7  1  0
  4 15  1  0
  5 16  1  0
  6 17  1  0
  8 18  1  0
  9 19  1  0
 10 20  1  0
 21 22  1  0
 22 23  1  0
 23 24  1  0
 24 25  1  0
 25 26  1  0
 26 27  1  0
 27 22  1  0
 23 28  1  0
 23 29  1  0
 24 30  1  0
 24 31  1  0
 25 32  1  0
 26 33  1  0
 26 34  1  0
 27 35  1  0
 27 36  1  0
 14 25  1  0
M  ISO  7  15  14  16  14  17  14  18  14  19  14  20  14  21   5
M  END
>  <DihAtoms>  (1) 
6,13,24,23

>  <DihDeg>  (1) 
-66.31398965363663

$$$$
