
 OpenBabel03272503423D

 39 42  0  0  1  0  0  0  0  0999 V2000
   38.4860   31.1180   45.8990 C   0  0  0  0  0  0  0  0  0  0  0  0
   39.8250   31.0130   46.1610 C   0  0  0  0  0  0  0  0  0  0  0  0
   40.4390   31.3830   44.9620 C   0  0  0  0  0  0  0  0  0  0  0  0
   39.5100   31.6870   44.0570 N   0  0  0  0  0  0  0  0  0  0  0  0
   38.3120   31.5290   44.6180 N   0  0  0  0  0  0  0  0  0  0  0  0
   40.2430   30.7010   47.1180 H   0  0  0  0  0  0  0  0  0  0  0  0
   41.5190   31.4000   44.8480 H   0  0  0  0  0  0  0  0  0  0  0  0
   39.9080   30.9160   41.7770 C   0  0  2  0  0  0  0  0  0  0  0  0
   39.8300   32.1050   42.7180 C   0  0  1  0  0  0  0  0  0  0  0  0
   38.6810   32.8350   42.0500 C   0  0  0  0  0  0  0  0  0  0  0  0
   38.7940   32.6440   40.6950 O   0  0  0  0  0  0  0  0  0  0  0  0
   39.6990   31.6620   40.4400 C   0  0  0  0  0  0  0  0  0  0  0  0
   40.8660   30.4070   41.7560 H   0  0  0  0  0  0  0  0  0  0  0  0
   40.7200   32.7300   42.6920 H   0  0  0  0  0  0  0  0  0  0  0  0
   37.7060   32.4440   42.4130 H   0  0  0  0  0  0  0  0  0  0  0  0
   38.6960   33.9290   42.2470 H   0  0  0  0  0  0  0  0  0  0  0  0
   39.2320   30.8920   39.7760 H   0  0  0  0  0  0  0  0  0  0  0  0
   40.6690   31.9980   40.0440 H   0  0  0  0  0  0  0  0  0  0  0  0
   38.8050   30.1170   42.0070 O   0  0  0  0  0  0  0  0  0  0  0  0
   40.6930   26.4900   41.5860 H   0  0  0  0  0  0  0  0  0  0  0  0
   39.7010   26.2700   41.7060 N   0  0  0  0  0  0  0  0  0  0  0  0
   39.1820   26.5900   43.0160 C   0  0  0  0  0  0  0  0  0  0  0  0
   39.0720   28.0730   43.2780 C   0  0  0  0  0  0  0  0  0  0  0  0
   39.0510   28.7680   41.9340 C   0  0  0  0  0  0  0  0  0  0  0  0
   38.1050   28.0140   41.0410 C   0  0  0  0  0  0  0  0  0  0  0  0
   38.8430   26.7330   40.6410 C   0  0  0  0  0  0  0  0  0  0  0  0
   36.5200   30.6340   49.0540 C   0  0  0  0  0  0  0  0  0  0  0  0
   37.5730   30.9210   48.2040 C   0  0  0  0  0  0  0  0  0  0  0  0
   37.4310   30.8350   46.8420 C   0  0  0  0  0  0  0  0  0  0  0  0
   36.2060   30.4540   46.3770 N   0  0  0  0  0  0  0  0  0  0  0  0
   35.1790   30.1750   47.2330 C   0  0  0  0  0  0  0  0  0  0  0  0
   35.3190   30.2580   48.5400 N   0  0  0  0  0  0  0  0  0  0  0  0
   38.5730   31.2300   48.5220 H   0  0  0  0  0  0  0  0  0  0  0  0
   34.2370   29.8800   46.7920 H   0  0  0  0  0  0  0  0  0  0  0  0
   36.8550   30.7770   50.4010 O   0  0  0  0  0  0  0  0  0  0  0  0
   36.8980   29.6940   51.3080 C   0  0  0  0  0  0  0  0  0  0  0  0
   35.6240   29.2500   51.6260 F   0  0  0  0  0  0  0  0  0  0  0  0
   37.5680   30.0790   52.4330 F   0  0  0  0  0  0  0  0  0  0  0  0
   37.6130   28.6610   50.7230 F   0  0  0  0  0  0  0  0  0  0  0  0
  1  2  1  0  0  0  0
  1 29  1  0  0  0  0
  2  6  1  0  0  0  0
  3  2  2  0  0  0  0
  4  5  1  0  0  0  0
  4  3  1  0  0  0  0
  5  1  2  0  0  0  0
  7  3  1  0  0  0  0
  8 13  1  1  0  0  0
  8 19  1  0  0  0  0
  8  9  1  0  0  0  0
  9 14  1  6  0  0  0
  9  4  1  0  0  0  0
 10 16  1  0  0  0  0
 10 15  1  0  0  0  0
 10  9  1  0  0  0  0
 11 10  1  0  0  0  0
 12 11  1  0  0  0  0
 12  8  1  0  0  0  0
 17 12  1  0  0  0  0
 18 12  1  0  0  0  0
 20 21  1  0  0  0  0
 21 22  1  0  0  0  0
 22 23  1  0  0  0  0
 24 19  1  0  0  0  0
 24 23  1  0  0  0  0
 25 24  1  0  0  0  0
 26 25  1  0  0  0  0
 26 21  1  0  0  0  0
 27 35  1  0  0  0  0
 28 33  1  0  0  0  0
 28 27  2  0  0  0  0
 29 28  1  0  0  0  0
 30 29  2  0  0  0  0
 30 31  1  0  0  0  0
 31 32  2  0  0  0  0
 32 27  1  0  0  0  0
 34 31  1  0  0  0  0
 35 36  1  0  0  0  0
 36 37  1  0  0  0  0
 36 38  1  0  0  0  0
 39 36  1  0  0  0  0
M  END
>  <minimizedAffinity>
-6.38669634

>  <minimizedRMSD>
0.399072587

$$$$
