REMARK  Name = 
REMARK  5 active torsions:
REMARK  status: ('A' for Active; 'I' for Inactive)
REMARK    1  A    between atoms: C_1  and  C_4
REMARK    2  A    between atoms: C_2  and  C_11
REMARK    3  A    between atoms: C_10  and  O_15
REMARK    4  A    between atoms: C_14  and  O_16
REMARK    5  A    between atoms: O_16  and  C_34
REMARK                            x       y       z     vdW  Elec       q    Type
REMARK                         _______ _______ _______ _____ _____    ______ ____
ROOT
ATOM      1  C   UNL     1      33.966  29.082  47.378  0.00  0.00    +0.000 C 
ATOM      2  C   UNL     1      34.740  28.282  48.417  0.00  0.00    +0.000 C 
ATOM      3  O   UNL     1      33.862  28.073  49.445  0.00  0.00    +0.000 OA
ATOM      4  C   UNL     1      32.582  28.131  49.002  0.00  0.00    +0.000 C 
ATOM      5  C   UNL     1      32.604  28.391  47.509  0.00  0.00    +0.000 C 
ATOM      6  H   UNL     1      33.817  30.130  47.673  0.00  0.00    +0.000 HD
ATOM      7  H   UNL     1      35.023  27.325  47.963  0.00  0.00    +0.000 HD
ATOM      8  H   UNL     1      32.081  27.150  49.152  0.00  0.00    +0.000 HD
ATOM      9  H   UNL     1      31.944  28.882  49.519  0.00  0.00    +0.000 HD
ATOM     10  H   UNL     1      32.713  27.420  47.004  0.00  0.00    +0.000 HD
ENDROOT
BRANCH   2  12
ATOM     11  C   UNL     1      35.819  30.541  49.077  0.00  0.00    +0.000 C 
ATOM     12  C   UNL     1      35.905  29.119  48.838  0.00  0.00    +0.000 C 
ATOM     13  C   UNL     1      36.071  29.579  50.249  0.00  0.00    +0.000 C 
ATOM     14  H   UNL     1      34.912  31.140  49.295  0.00  0.00    +0.000 HD
ATOM     15  H   UNL     1      36.867  28.769  48.364  0.00  0.00    +0.000 HD
ATOM     16  H   UNL     1      37.067  29.575  50.721  0.00  0.00    +0.000 HD
ATOM     17  H   UNL     1      35.244  29.324  50.925  0.00  0.00    +0.000 HD
BRANCH  11  18
ATOM     18  C   UNL     1      37.008  31.454  48.829  0.00  0.00    +0.000 A 
ATOM     19  C   UNL     1      37.186  32.525  49.705  0.00  0.00    +0.000 A 
ATOM     20  C   UNL     1      38.272  33.341  49.412  0.00  0.00    +0.000 A 
ATOM     21  N   UNL     1      39.083  33.086  48.338  0.00  0.00    +0.000 NA
ATOM     22  C   UNL     1      38.869  32.032  47.515  0.00  0.00    +0.000 A 
ATOM     23  N   UNL     1      37.815  31.204  47.766  0.00  0.00    +0.000 NA
ATOM     24  H   UNL     1      36.539  32.702  50.535  0.00  0.00    +0.000 HD
ATOM     25  H   UNL     1      38.485  34.203  50.046  0.00  0.00    +0.000 HD
ATOM     26  H   UNL     1      39.501  31.819  46.666  0.00  0.00    +0.000 HD
ENDBRANCH  11  18
ENDBRANCH   2  12
BRANCH   1  27
ATOM     27  O   UNL     1      34.472  28.957  46.098  0.00  0.00    +0.000 OA
ATOM     28  H   UNL     1      34.257  29.785  45.608  0.00  0.00    +0.000 HD
ENDBRANCH   1  27
BRANCH   5  29
ATOM     29  O   UNL     1      31.591  29.176  47.042  0.00  0.00    +0.000 OA
BRANCH  29  34
ATOM     30  H   UNL     1      33.176  25.668  45.946  0.00  0.00    +0.000 HD
ATOM     31  N   UNL     1      32.419  26.322  45.603  0.00  0.00    +0.000 NA
ATOM     32  C   UNL     1      32.938  27.654  45.436  0.00  0.00    +0.000 C 
ATOM     33  C   UNL     1      31.812  28.504  44.841  0.00  0.00    +0.000 C 
ATOM     34  C   UNL     1      30.837  28.678  46.017  0.00  0.00    +0.000 C 
ATOM     35  C   UNL     1      30.301  27.291  46.270  0.00  0.00    +0.000 C 
ATOM     36  C   UNL     1      31.412  26.330  46.633  0.00  0.00    +0.000 C 
ENDBRANCH  29  34
ENDBRANCH   5  29
TORSDOF 5
