
     RDKit          3D

 40 42  0  0  0  0  0  0  0  0999 V2000
   38.0008   31.3981   47.6364 C   0  0  0  0  0  0  0  0  0  0  0  0
   37.0805   31.3285   48.6748 C   0  0  0  0  0  0  0  0  0  0  0  0
   37.1924   32.3536   49.6312 C   0  0  0  0  0  0  0  0  0  0  0  0
   38.1791   33.3444   49.4937 C   0  0  0  0  0  0  0  0  0  0  0  0
   39.0503   33.3195   48.4138 C   0  0  0  0  0  0  0  0  0  0  0  0
   38.9616   32.3313   47.4681 C   0  0  0  0  0  0  0  0  0  0  0  0
   34.9365   30.3464   47.9841 C   0  0  0  0  0  0  0  0  0  0  0  0
   36.0811   30.3092   48.7952 C   0  0  0  0  0  0  0  0  0  0  0  0
   36.1958   29.2594   49.7021 C   0  0  0  0  0  0  0  0  0  0  0  0
   35.1922   28.3360   49.7457 N   0  0  0  0  0  0  0  0  0  0  0  0
   34.1076   28.4026   48.9524 C   0  0  0  0  0  0  0  0  0  0  0  0
   33.9788   29.4114   48.0680 N   0  0  0  0  0  0  0  0  0  0  0  0
   37.3740   29.1633   50.5806 C   0  0  0  0  0  0  0  0  0  0  0  0
   37.9496   30.4035   46.6397 O   0  0  0  0  0  0  0  0  0  0  0  0
   39.8358   32.3369   46.4114 O   0  0  0  0  0  0  0  0  0  0  0  0
   36.4761   32.2989   50.4386 H   0  0  0  0  0  0  0  0  0  0  0  0
   38.1401   34.0574   50.3003 H   0  0  0  0  0  0  0  0  0  0  0  0
   39.7110   34.1577   48.5082 H   0  0  0  0  0  0  0  0  0  0  0  0
   34.7741   31.1373   47.2489 H   0  0  0  0  0  0  0  0  0  0  0  0
   33.4398   27.5733   49.1508 H   0  0  0  0  0  0  0  0  0  0  0  0
   38.2196   29.7293   50.1133 H   0  0  0  0  0  0  0  0  0  0  0  0
   37.7070   28.1194   50.7664 H   0  0  0  0  0  0  0  0  0  0  0  0
   37.1341   29.5912   51.5758 H   0  0  0  0  0  0  0  0  0  0  0  0
   37.4032   30.5195   45.7952 H   0  0  0  0  0  0  0  0  0  0  0  0
   39.0637   34.6964   43.2265 H   0  0  0  0  0  0  0  0  0  0  0  0
   39.1019   34.2412   44.1772 N   0  0  0  0  0  0  0  0  0  0  0  0
   39.7006   35.2089   45.0530 C   0  0  0  0  0  0  0  0  0  0  0  0
   40.1313   34.6565   46.3870 C   0  0  0  0  0  0  0  0  0  0  0  0
   40.8168   33.3028   46.2486 C   0  0  0  0  0  0  0  0  0  0  0  0
   41.2198   33.2237   44.7577 C   0  0  0  0  0  0  0  0  0  0  0  0
   39.9032   33.0441   44.0214 C   0  0  0  0  0  0  0  0  0  0  0  0
   38.9087   35.9791   45.2624 H   0  0  0  0  0  0  0  0  0  0  0  0
   40.5190   35.7479   44.5627 H   0  0  0  0  0  0  0  0  0  0  0  0
   39.3109   34.6025   47.1329 H   0  0  0  0  0  0  0  0  0  0  0  0
   40.8853   35.3530   46.8045 H   0  0  0  0  0  0  0  0  0  0  0  0
   41.6989   33.2534   46.8852 H   0  0  0  0  0  0  0  0  0  0  0  0
   41.7509   34.1202   44.4267 H   0  0  0  0  0  0  0  0  0  0  0  0
   41.8575   32.3327   44.5811 H   0  0  0  0  0  0  0  0  0  0  0  0
   40.0566   32.7446   42.9672 H   0  0  0  0  0  0  0  0  0  0  0  0
   39.3480   32.2223   44.5456 H   0  0  0  0  0  0  0  0  0  0  0  0
  1  2  2  0
  2  8  1  0
  2  3  1  0
  4  3  2  0
  5  4  1  0
  6  1  1  0
  6  5  2  0
  7 12  2  0
  7  8  1  0
  8  9  2  0
  9 10  1  0
  9 13  1  0
 11 10  2  0
 12 11  1  0
 14  1  1  0
 15  6  1  0
  3 16  1  0
  4 17  1  0
  5 18  1  0
  7 19  1  0
 11 20  1  0
 13 21  1  0
 13 22  1  0
 13 23  1  0
 14 24  1  0
 25 26  1  0
 26 27  1  0
 27 28  1  0
 28 29  1  0
 29 30  1  0
 30 31  1  0
 31 26  1  0
 27 32  1  0
 27 33  1  0
 28 34  1  0
 28 35  1  0
 29 36  1  0
 30 37  1  0
 30 38  1  0
 31 39  1  0
 31 40  1  0
 15 29  1  0
M  ISO  8  16  14  17  14  18  14  19  14  20  14  21   8  22   8  23   8
M  ISO  2  24   3  25   5
M  END
>  <DihAtoms>  (1) 
5,14,28,27

>  <DihDeg>  (1) 
-125.46594472554561

$$$$
