
     RDKit          3D

 33 35  0  0  0  0  0  0  0  0999 V2000
   37.5270   31.4107   49.3273 C   0  0  0  0  0  0  0  0  0  0  0  0
   38.1565   32.6538   49.3971 C   0  0  0  0  0  0  0  0  0  0  0  0
   38.9388   32.9804   48.3052 C   0  0  0  0  0  0  0  0  0  0  0  0
   39.0589   32.1139   47.2495 N   0  0  0  0  0  0  0  0  0  0  0  0
   38.4313   30.9187   47.2222 C   0  0  0  0  0  0  0  0  0  0  0  0
   37.6488   30.5541   48.2792 N   0  0  0  0  0  0  0  0  0  0  0  0
   36.6387   31.0352   50.4958 C   0  0  1  0  0  0  0  0  0  0  0  0
   36.1363   29.6922   50.6595 C   0  0  2  0  0  0  0  0  0  0  0  0
   37.3470   30.0934   51.4800 C   0  0  0  0  0  0  0  0  0  0  0  0
   36.3928   28.7355   49.6633 O   0  0  0  0  0  0  0  0  0  0  0  0
   38.0094   33.2765   50.2645 H   0  0  0  0  0  0  0  0  0  0  0  0
   39.4445   33.9382   48.3225 H   0  0  0  0  0  0  0  0  0  0  0  0
   38.5716   30.2865   46.3566 H   0  0  0  0  0  0  0  0  0  0  0  0
   36.1149   31.8986   50.9576 H   0  0  0  0  0  0  0  0  0  0  0  0
   35.2094   29.5216   51.2062 H   0  0  0  0  0  0  0  0  0  0  0  0
   38.3115   29.6628   51.1939 H   0  0  0  0  0  0  0  0  0  0  0  0
   37.1902   30.3468   52.5472 H   0  0  0  0  0  0  0  0  0  0  0  0
   31.8663   28.2704   50.4666 H   0  0  0  0  0  0  0  0  0  0  0  0
   32.5735   28.7513   49.8540 N   0  0  0  0  0  0  0  0  0  0  0  0
   33.6847   29.1042   50.7077 C   0  0  0  0  0  0  0  0  0  0  0  0
   34.5732   27.8989   50.8684 C   0  0  0  0  0  0  0  0  0  0  0  0
   35.4060   27.7773   49.5918 C   0  0  0  0  0  0  0  0  0  0  0  0
   34.4763   28.1370   48.4514 C   0  0  0  0  0  0  0  0  0  0  0  0
   33.0378   27.8248   48.8662 C   0  0  0  0  0  0  0  0  0  0  0  0
   33.3541   29.5169   51.6821 H   0  0  0  0  0  0  0  0  0  0  0  0
   34.2851   29.8907   50.1968 H   0  0  0  0  0  0  0  0  0  0  0  0
   34.0447   26.9747   51.1233 H   0  0  0  0  0  0  0  0  0  0  0  0
   35.2892   28.1472   51.6772 H   0  0  0  0  0  0  0  0  0  0  0  0
   35.8018   26.7435   49.5109 H   0  0  0  0  0  0  0  0  0  0  0  0
   34.5638   29.1930   48.1669 H   0  0  0  0  0  0  0  0  0  0  0  0
   34.7196   27.4967   47.5832 H   0  0  0  0  0  0  0  0  0  0  0  0
   33.0328   26.7858   49.2864 H   0  0  0  0  0  0  0  0  0  0  0  0
   32.4117   27.8978   47.9618 H   0  0  0  0  0  0  0  0  0  0  0  0
  1  2  2  0
  1  7  1  0
  3  2  1  0
  4  3  2  0
  5  4  1  0
  5  6  2  0
  6  1  1  0
  7  8  1  0
  7  9  1  0
  8  9  1  0
 10  8  1  0
  2 11  1  0
  3 12  1  0
  5 13  1  0
  7 14  1  1
  8 15  1  1
  9 16  1  0
  9 17  1  0
 18 19  1  0
 19 20  1  0
 20 21  1  0
 21 22  1  0
 22 23  1  0
 23 24  1  0
 24 19  1  0
 20 25  1  0
 20 26  1  0
 21 27  1  0
 21 28  1  0
 22 29  1  0
 23 30  1  0
 23 31  1  0
 24 32  1  0
 24 33  1  0
 10 22  1  0
M  ISO  8  11  14  12  14  13  14  14  13  15  13  16  13  17  13  18   5
M  END
>  <DihAtoms>  (1) 
7,9,21,20

>  <DihDeg>  (1) 
120.41584094338796

$$$$
