REMARK  Name = 
REMARK  3 active torsions:
REMARK  status: ('A' for Active; 'I' for Inactive)
REMARK    1  A    between atoms: C_1  and  C_7
REMARK    2  A    between atoms: C_8  and  O_10
REMARK    3  A    between atoms: O_10  and  C_22
REMARK                            x       y       z     vdW  Elec       q    Type
REMARK                         _______ _______ _______ _____ _____    ______ ____
ROOT
ATOM      1  C   UNL     1      36.639  31.035  50.496  0.00  0.00    +0.000 C 
ATOM      2  C   UNL     1      36.136  29.692  50.660  0.00  0.00    +0.000 C 
ATOM      3  C   UNL     1      37.347  30.093  51.480  0.00  0.00    +0.000 C 
ATOM      4  H   UNL     1      36.115  31.899  50.958  0.00  0.00    +0.000 HD
ATOM      5  H   UNL     1      35.209  29.522  51.206  0.00  0.00    +0.000 HD
ATOM      6  H   UNL     1      38.312  29.663  51.194  0.00  0.00    +0.000 HD
ATOM      7  H   UNL     1      37.190  30.347  52.547  0.00  0.00    +0.000 HD
ENDROOT
BRANCH   1   8
ATOM      8  C   UNL     1      37.527  31.411  49.327  0.00  0.00    +0.000 A 
ATOM      9  C   UNL     1      38.157  32.654  49.397  0.00  0.00    +0.000 A 
ATOM     10  C   UNL     1      38.939  32.980  48.305  0.00  0.00    +0.000 A 
ATOM     11  N   UNL     1      39.059  32.114  47.249  0.00  0.00    +0.000 NA
ATOM     12  C   UNL     1      38.431  30.919  47.222  0.00  0.00    +0.000 A 
ATOM     13  N   UNL     1      37.649  30.554  48.279  0.00  0.00    +0.000 NA
ATOM     14  H   UNL     1      38.009  33.276  50.264  0.00  0.00    +0.000 HD
ATOM     15  H   UNL     1      39.444  33.938  48.322  0.00  0.00    +0.000 HD
ATOM     16  H   UNL     1      38.572  30.287  46.357  0.00  0.00    +0.000 HD
ENDBRANCH   1   8
BRANCH   2  17
ATOM     17  O   UNL     1      36.393  28.735  49.663  0.00  0.00    +0.000 OA
BRANCH  17  22
ATOM     18  H   UNL     1      32.085  27.993  51.162  0.00  0.00    +0.000 HD
ATOM     19  N   UNL     1      32.672  28.600  50.533  0.00  0.00    +0.000 NA
ATOM     20  C   UNL     1      33.920  28.823  51.225  0.00  0.00    +0.000 C 
ATOM     21  C   UNL     1      34.819  27.636  50.997  0.00  0.00    +0.000 C 
ATOM     22  C   UNL     1      35.406  27.777  49.592  0.00  0.00    +0.000 C 
ATOM     23  C   UNL     1      34.286  28.312  48.724  0.00  0.00    +0.000 C 
ATOM     24  C   UNL     1      32.946  27.886  49.323  0.00  0.00    +0.000 C 
ENDBRANCH  17  22
ENDBRANCH   2  17
TORSDOF 3
