
 OpenBabel03262522173D

 43 46  0  0  1  0  0  0  0  0999 V2000
   37.4150   28.2400   31.7680 C   0  0  0  0  0  0  0  0  0  0  0  0
   37.8140   28.8230   32.6050 H   0  0  0  0  0  0  0  0  0  0  0  0
   38.0980   28.4490   30.9000 H   0  0  0  0  0  0  0  0  0  0  0  0
   34.7380   30.4030   32.5620 C   0  0  1  0  0  0  0  0  0  0  0  0
   35.9900   30.2820   31.7290 C   0  0  0  0  0  0  0  0  0  0  0  0
   36.0280   28.7890   31.4940 C   0  0  2  0  0  0  0  0  0  0  0  0
   35.0800   28.1980   32.2700 O   0  0  0  0  0  0  0  0  0  0  0  0
   34.7480   29.0690   33.2940 C   0  0  0  0  0  0  0  0  0  0  0  0
   33.8270   30.3920   31.9440 H   0  0  0  0  0  0  0  0  0  0  0  0
   36.8750   30.6940   32.2060 H   0  0  0  0  0  0  0  0  0  0  0  0
   35.7600   30.7670   30.7420 H   0  0  0  0  0  0  0  0  0  0  0  0
   35.8160   28.5360   30.4250 H   0  0  0  0  0  0  0  0  0  0  0  0
   33.7680   28.8920   33.7370 H   0  0  0  0  0  0  0  0  0  0  0  0
   35.4890   29.0800   34.1100 H   0  0  0  0  0  0  0  0  0  0  0  0
   34.7800   31.4630   33.4450 O   0  0  0  0  0  0  0  0  0  0  0  0
   35.3160   31.1680   37.6240 H   0  0  0  0  0  0  0  0  0  0  0  0
   34.7820   32.0390   37.4070 N   0  0  0  0  0  0  0  0  0  0  0  0
   35.5280   32.7910   36.4190 C   0  0  0  0  0  2  0  0  0  0  0  0
   35.9930   31.7480   35.3990 C   0  0  0  0  0  2  0  0  0  0  0  0
   34.7980   31.0550   34.7770 C   0  0  0  0  0  3  0  0  0  0  0  0
   33.4900   31.4100   35.3910 C   0  0  0  0  0  2  0  0  0  0  0  0
   33.5120   31.6820   36.8620 C   0  0  0  0  0  2  0  0  0  0  0  0
   37.2500   26.4760   32.1130 S   0  0  0  0  0  0  0  0  0  0  0  0
   38.1230   24.7830   35.6040 C   0  0  0  0  0  0  0  0  0  0  0  0
   38.3610   25.8820   36.4500 C   0  0  0  0  0  0  0  0  0  0  0  0
   38.2660   27.1750   35.9930 C   0  0  0  0  0  0  0  0  0  0  0  0
   37.9270   27.3310   34.6680 C   0  0  0  0  0  0  0  0  0  0  0  0
   37.7000   26.2640   33.8680 C   0  0  0  0  0  0  0  0  0  0  0  0
   37.7910   24.9770   34.3100 N   0  0  0  0  0  0  0  0  0  0  0  0
   38.6290   25.7010   37.4980 H   0  0  0  0  0  0  0  0  0  0  0  0
   38.4560   27.9880   36.6700 H   0  0  0  0  0  0  0  0  0  0  0  0
   37.8460   28.3420   34.2880 H   0  0  0  0  0  0  0  0  0  0  0  0
   38.2400   23.4610   36.1520 C   0  0  0  0  0  0  0  0  0  0  0  0
   37.2580   22.8500   36.5610 O   0  0  0  0  0  0  0  0  0  0  0  0
   40.1780   22.3820   35.0550 C   0  0  0  0  0  0  0  0  0  0  0  0
   39.5360   22.7700   36.2480 C   0  0  0  0  0  0  0  0  0  0  0  0
   40.1500   22.4870   37.4720 C   0  0  0  0  0  0  0  0  0  0  0  0
   41.3530   21.8440   37.4710 N   0  0  0  0  0  0  0  0  0  0  0  0
   41.9490   21.4810   36.3120 C   0  0  0  0  0  0  0  0  0  0  0  0
   41.3690   21.7480   35.1440 N   0  0  0  0  0  0  0  0  0  0  0  0
   39.7050   22.6000   34.1160 H   0  0  0  0  0  0  0  0  0  0  0  0
   39.6470   22.7910   38.3910 H   0  0  0  0  0  0  0  0  0  0  0  0
   42.8970   20.9790   36.4510 H   0  0  0  0  0  0  0  0  0  0  0  0
  1 23  1  0  0  0  0
  1  2  1  0  0  0  0
  3  1  1  0  0  0  0
  4  9  1  6  0  0  0
  4  8  1  0  0  0  0
  4 15  1  0  0  0  0
  5 10  1  0  0  0  0
  5  4  1  0  0  0  0
  6 12  1  6  0  0  0
  6  5  1  0  0  0  0
  6  1  1  0  0  0  0
  6  7  1  0  0  0  0
  7  8  1  0  0  0  0
  8 13  1  0  0  0  0
  8 14  1  0  0  0  0
 11  5  1  0  0  0  0
 15 20  1  0  0  0  0
 17 16  1  0  0  0  0
 18 17  1  0  0  0  0
 19 18  1  0  0  0  0
 20 21  1  0  0  0  0
 20 19  1  0  0  0  0
 21 22  1  0  0  0  0
 22 17  1  0  0  0  0
 23 28  1  0  0  0  0
 24 33  1  0  0  0  0
 24 25  1  0  0  0  0
 25 30  1  0  0  0  0
 26 25  2  0  0  0  0
 26 31  1  0  0  0  0
 27 26  1  0  0  0  0
 28 29  1  0  0  0  0
 28 27  2  0  0  0  0
 29 24  2  0  0  0  0
 32 27  1  0  0  0  0
 33 36  1  0  0  0  0
 33 34  2  0  0  0  0
 35 40  2  0  0  0  0
 35 36  1  0  0  0  0
 36 37  2  0  0  0  0
 37 42  1  0  0  0  0
 38 37  1  0  0  0  0
 39 43  1  0  0  0  0
 39 38  2  0  0  0  0
 40 39  1  0  0  0  0
 41 35  1  0  0  0  0
M  END
>  <minimizedAffinity>
-5.99309301

$$$$

 OpenBabel03262522173D

 43 46  0  0  1  0  0  0  0  0999 V2000
   37.5410   28.6040   30.7690 C   0  0  0  0  0  0  0  0  0  0  0  0
   38.1390   29.1590   31.5000 H   0  0  0  0  0  0  0  0  0  0  0  0
   37.6300   29.1780   29.8070 H   0  0  0  0  0  0  0  0  0  0  0  0
   35.0510   29.9270   32.8960 C   0  0  1  0  0  0  0  0  0  0  0  0
   35.6710   30.0630   31.5270 C   0  0  0  0  0  0  0  0  0  0  0  0
   36.1130   28.6390   31.2760 C   0  0  2  0  0  0  0  0  0  0  0  0
   35.9560   27.9230   32.4220 O   0  0  0  0  0  0  0  0  0  0  0  0
   35.8950   28.8060   33.4850 C   0  0  0  0  0  0  0  0  0  0  0  0
   34.0260   29.5280   32.8490 H   0  0  0  0  0  0  0  0  0  0  0  0
   36.4640   30.8050   31.4770 H   0  0  0  0  0  0  0  0  0  0  0  0
   34.8260   30.2780   30.8190 H   0  0  0  0  0  0  0  0  0  0  0  0
   35.5010   28.1560   30.4730 H   0  0  0  0  0  0  0  0  0  0  0  0
   35.4030   28.4110   34.3740 H   0  0  0  0  0  0  0  0  0  0  0  0
   36.8840   29.1860   33.7910 H   0  0  0  0  0  0  0  0  0  0  0  0
   35.1500   31.0810   33.6480 O   0  0  0  0  0  0  0  0  0  0  0  0
   35.2750   31.3590   37.8600 H   0  0  0  0  0  0  0  0  0  0  0  0
   34.6590   32.1140   37.4850 N   0  0  0  0  0  0  0  0  0  0  0  0
   35.4010   32.8430   36.4760 C   0  0  0  0  0  2  0  0  0  0  0  0
   36.1020   31.7640   35.6470 C   0  0  0  0  0  2  0  0  0  0  0  0
   35.0800   30.8400   35.0180 C   0  0  0  0  0  3  0  0  0  0  0  0
   33.6790   31.0760   35.4630 C   0  0  0  0  0  2  0  0  0  0  0  0
   33.5100   31.5200   36.8820 C   0  0  0  0  0  2  0  0  0  0  0  0
   38.0190   26.8720   30.5910 S   0  0  0  0  0  0  0  0  0  0  0  0
   39.1860   24.9090   33.8470 C   0  0  0  0  0  0  0  0  0  0  0  0
   40.1850   25.7380   34.3880 C   0  0  0  0  0  0  0  0  0  0  0  0
   40.5420   26.9220   33.7870 C   0  0  0  0  0  0  0  0  0  0  0  0
   39.8680   27.2460   32.6300 C   0  0  0  0  0  0  0  0  0  0  0  0
   38.9080   26.4380   32.1230 C   0  0  0  0  0  0  0  0  0  0  0  0
   38.5470   25.2620   32.7110 N   0  0  0  0  0  0  0  0  0  0  0  0
   40.6910   25.4320   35.3120 H   0  0  0  0  0  0  0  0  0  0  0  0
   41.3100   27.5280   34.2310 H   0  0  0  0  0  0  0  0  0  0  0  0
   40.1330   28.1750   32.1410 H   0  0  0  0  0  0  0  0  0  0  0  0
   38.8660   23.6870   34.5310 C   0  0  0  0  0  0  0  0  0  0  0  0
   38.5920   22.6630   33.9130 O   0  0  0  0  0  0  0  0  0  0  0  0
   37.8380   24.2790   36.7020 C   0  0  0  0  0  0  0  0  0  0  0  0
   38.8530   23.5980   35.9990 C   0  0  0  0  0  0  0  0  0  0  0  0
   39.8030   22.8690   36.7200 C   0  0  0  0  0  0  0  0  0  0  0  0
   39.7170   22.8390   38.0810 N   0  0  0  0  0  0  0  0  0  0  0  0
   38.7330   23.5010   38.7310 C   0  0  0  0  0  0  0  0  0  0  0  0
   37.8250   24.1970   38.0510 N   0  0  0  0  0  0  0  0  0  0  0  0
   37.1080   24.8400   36.1470 H   0  0  0  0  0  0  0  0  0  0  0  0
   40.5860   22.3440   36.1690 H   0  0  0  0  0  0  0  0  0  0  0  0
   38.7790   23.3950   39.8070 H   0  0  0  0  0  0  0  0  0  0  0  0
  1  6  1  0  0  0  0
  1  2  1  0  0  0  0
  3  1  1  0  0  0  0
  4  9  1  6  0  0  0
  4  8  1  0  0  0  0
  4 15  1  0  0  0  0
  5  4  1  0  0  0  0
  6 12  1  6  0  0  0
  6  5  1  0  0  0  0
  6  7  1  0  0  0  0
  7  8  1  0  0  0  0
  8 14  1  0  0  0  0
  8 13  1  0  0  0  0
 10  5  1  0  0  0  0
 11  5  1  0  0  0  0
 15 20  1  0  0  0  0
 17 16  1  0  0  0  0
 18 17  1  0  0  0  0
 19 18  1  0  0  0  0
 20 21  1  0  0  0  0
 20 19  1  0  0  0  0
 21 22  1  0  0  0  0
 22 17  1  0  0  0  0
 23  1  1  0  0  0  0
 23 28  1  0  0  0  0
 24 25  1  0  0  0  0
 24 33  1  0  0  0  0
 25 30  1  0  0  0  0
 26 31  1  0  0  0  0
 26 25  2  0  0  0  0
 27 26  1  0  0  0  0
 28 27  2  0  0  0  0
 28 29  1  0  0  0  0
 29 24  2  0  0  0  0
 32 27  1  0  0  0  0
 33 36  1  0  0  0  0
 34 33  2  0  0  0  0
 35 40  1  0  0  0  0
 36 35  2  0  0  0  0
 36 37  1  0  0  0  0
 37 38  2  0  0  0  0
 38 39  1  0  0  0  0
 39 43  1  0  0  0  0
 40 39  2  0  0  0  0
 41 35  1  0  0  0  0
 42 37  1  0  0  0  0
M  END
>  <minimizedAffinity>
-5.89938879

$$$$

 OpenBabel03262522173D

 43 46  0  0  1  0  0  0  0  0999 V2000
   37.9150   25.1540   36.0270 C   0  0  0  0  0  0  0  0  0  0  0  0
   37.9420   24.9210   37.0970 H   0  0  0  0  0  0  0  0  0  0  0  0
   36.8260   25.2130   35.7570 H   0  0  0  0  0  0  0  0  0  0  0  0
   37.7160   22.2090   34.0870 C   0  0  1  0  0  0  0  0  0  0  0  0
   37.8920   23.7060   34.0020 C   0  0  0  0  0  0  0  0  0  0  0  0
   38.5730   23.9840   35.3230 C   0  0  2  0  0  0  0  0  0  0  0  0
   38.5500   22.8520   36.0760 O   0  0  0  0  0  0  0  0  0  0  0  0
   37.5550   22.0230   35.5890 C   0  0  0  0  0  0  0  0  0  0  0  0
   38.6380   21.6690   33.8220 H   0  0  0  0  0  0  0  0  0  0  0  0
   36.9630   24.2470   33.8420 H   0  0  0  0  0  0  0  0  0  0  0  0
   38.6490   23.8880   33.1930 H   0  0  0  0  0  0  0  0  0  0  0  0
   39.6400   24.2890   35.1770 H   0  0  0  0  0  0  0  0  0  0  0  0
   37.6820   20.9700   35.8380 H   0  0  0  0  0  0  0  0  0  0  0  0
   36.5440   22.3240   35.9100 H   0  0  0  0  0  0  0  0  0  0  0  0
   36.6070   21.7580   33.4010 O   0  0  0  0  0  0  0  0  0  0  0  0
   36.2340   18.0060   31.4990 H   0  0  0  0  0  0  0  0  0  0  0  0
   35.6290   18.7010   31.0070 N   0  0  0  0  0  0  0  0  0  0  0  0
   34.7810   19.3390   31.9930 C   0  0  0  0  0  2  0  0  0  0  0  0
   35.7070   19.6350   33.1760 C   0  0  0  0  0  2  0  0  0  0  0  0
   36.8330   20.5510   32.7440 C   0  0  0  0  0  3  0  0  0  0  0  0
   36.8840   20.8180   31.2810 C   0  0  0  0  0  2  0  0  0  0  0  0
   36.4590   19.6880   30.3960 C   0  0  0  0  0  2  0  0  0  0  0  0
   38.8230   26.6490   35.5770 S   0  0  0  0  0  0  0  0  0  0  0  0
   36.0760   28.6290   33.4920 C   0  0  0  0  0  0  0  0  0  0  0  0
   36.5210   28.5040   32.1630 C   0  0  0  0  0  0  0  0  0  0  0  0
   37.6690   27.8150   31.8500 C   0  0  0  0  0  0  0  0  0  0  0  0
   38.3540   27.2580   32.9080 C   0  0  0  0  0  0  0  0  0  0  0  0
   37.9120   27.3880   34.1800 C   0  0  0  0  0  0  0  0  0  0  0  0
   36.7750   28.0680   34.5020 N   0  0  0  0  0  0  0  0  0  0  0  0
   35.9370   28.9670   31.3580 H   0  0  0  0  0  0  0  0  0  0  0  0
   37.9760   27.7410   30.8230 H   0  0  0  0  0  0  0  0  0  0  0  0
   39.2610   26.7110   32.6830 H   0  0  0  0  0  0  0  0  0  0  0  0
   34.8670   29.3630   33.7420 C   0  0  0  0  0  0  0  0  0  0  0  0
   33.8810   29.2310   33.0240 O   0  0  0  0  0  0  0  0  0  0  0  0
   33.5100   30.3910   35.5380 C   0  0  0  0  0  0  0  0  0  0  0  0
   34.7470   30.3050   34.8660 C   0  0  0  0  0  0  0  0  0  0  0  0
   35.8060   31.1120   35.2910 C   0  0  0  0  0  0  0  0  0  0  0  0
   35.6090   31.9570   36.3430 N   0  0  0  0  0  0  0  0  0  0  0  0
   34.4120   32.0210   36.9710 C   0  0  0  0  0  0  0  0  0  0  0  0
   33.3990   31.2560   36.5710 N   0  0  0  0  0  0  0  0  0  0  0  0
   32.6960   29.7710   35.2100 H   0  0  0  0  0  0  0  0  0  0  0  0
   36.7610   31.0390   34.7670 H   0  0  0  0  0  0  0  0  0  0  0  0
   34.3890   32.7310   37.7870 H   0  0  0  0  0  0  0  0  0  0  0  0
  1  2  1  0  0  0  0
  3  1  1  0  0  0  0
  4  9  1  6  0  0  0
  4  8  1  0  0  0  0
  5  4  1  0  0  0  0
  5  6  1  0  0  0  0
  6 12  1  6  0  0  0
  6  1  1  0  0  0  0
  6  7  1  0  0  0  0
  8 13  1  0  0  0  0
  8 14  1  0  0  0  0
  8  7  1  0  0  0  0
 10  5  1  0  0  0  0
 11  5  1  0  0  0  0
 15  4  1  0  0  0  0
 17 16  1  0  0  0  0
 17 18  1  0  0  0  0
 18 19  1  0  0  0  0
 20 19  1  0  0  0  0
 20 15  1  0  0  0  0
 21 20  1  0  0  0  0
 22 17  1  0  0  0  0
 22 21  1  0  0  0  0
 23  1  1  0  0  0  0
 24 33  1  0  0  0  0
 24 29  1  0  0  0  0
 25 24  2  0  0  0  0
 26 25  1  0  0  0  0
 26 27  2  0  0  0  0
 27 28  1  0  0  0  0
 28 29  2  0  0  0  0
 28 23  1  0  0  0  0
 30 25  1  0  0  0  0
 31 26  1  0  0  0  0
 32 27  1  0  0  0  0
 33 36  1  0  0  0  0
 34 33  2  0  0  0  0
 35 40  1  0  0  0  0
 36 37  1  0  0  0  0
 36 35  2  0  0  0  0
 37 38  2  0  0  0  0
 38 39  1  0  0  0  0
 39 43  1  0  0  0  0
 40 39  2  0  0  0  0
 41 35  1  0  0  0  0
 42 37  1  0  0  0  0
M  END
>  <minimizedAffinity>
-5.89025021

$$$$

 OpenBabel03262522173D

 43 46  0  0  1  0  0  0  0  0999 V2000
   36.6450   27.7050   30.6870 C   0  0  0  0  0  0  0  0  0  0  0  0
   37.5700   27.1940   30.3990 H   0  0  0  0  0  0  0  0  0  0  0  0
   36.2380   28.1520   29.7400 H   0  0  0  0  0  0  0  0  0  0  0  0
   35.8260   30.1570   33.0940 C   0  0  1  0  0  0  0  0  0  0  0  0
   36.2330   28.7130   32.9260 C   0  0  0  0  0  0  0  0  0  0  0  0
   37.0500   28.7980   31.6570 C   0  0  2  0  0  0  0  0  0  0  0  0
   36.9040   30.0400   31.1220 O   0  0  0  0  0  0  0  0  0  0  0  0
   35.7530   30.6070   31.6420 C   0  0  0  0  0  0  0  0  0  0  0  0
   36.6260   30.7620   33.5490 H   0  0  0  0  0  0  0  0  0  0  0  0
   35.3950   28.0230   32.8860 H   0  0  0  0  0  0  0  0  0  0  0  0
   36.9460   28.4880   33.7650 H   0  0  0  0  0  0  0  0  0  0  0  0
   38.1380   28.6270   31.8570 H   0  0  0  0  0  0  0  0  0  0  0  0
   35.7280   31.6960   31.6020 H   0  0  0  0  0  0  0  0  0  0  0  0
   34.8320   30.2320   31.1670 H   0  0  0  0  0  0  0  0  0  0  0  0
   34.6090   30.3020   33.7290 O   0  0  0  0  0  0  0  0  0  0  0  0
   35.4400   31.3600   37.7330 H   0  0  0  0  0  0  0  0  0  0  0  0
   34.8800   32.1210   37.2860 N   0  0  0  0  0  0  0  0  0  0  0  0
   35.5460   32.5080   36.0580 C   0  0  0  0  0  2  0  0  0  0  0  0
   35.9520   31.1880   35.3970 C   0  0  0  0  0  2  0  0  0  0  0  0
   34.7260   30.3440   35.1170 C   0  0  0  0  0  3  0  0  0  0  0  0
   33.4590   30.8910   35.6750 C   0  0  0  0  0  2  0  0  0  0  0  0
   33.5810   31.6210   36.9750 C   0  0  0  0  0  2  0  0  0  0  0  0
   35.4480   26.6440   31.5240 S   0  0  0  0  0  0  0  0  0  0  0  0
   38.0740   24.3160   33.3940 C   0  0  0  0  0  0  0  0  0  0  0  0
   37.7840   23.0320   32.8990 C   0  0  0  0  0  0  0  0  0  0  0  0
   36.7820   22.8240   31.9800 C   0  0  0  0  0  0  0  0  0  0  0  0
   36.0840   23.9400   31.5760 C   0  0  0  0  0  0  0  0  0  0  0  0
   36.3760   25.1690   32.0620 C   0  0  0  0  0  0  0  0  0  0  0  0
   37.3670   25.3860   32.9730 N   0  0  0  0  0  0  0  0  0  0  0  0
   38.3720   22.1760   33.2540 H   0  0  0  0  0  0  0  0  0  0  0  0
   36.5910   21.8280   31.6250 H   0  0  0  0  0  0  0  0  0  0  0  0
   35.2910   23.7990   30.8530 H   0  0  0  0  0  0  0  0  0  0  0  0
   39.1360   24.4560   34.3520 C   0  0  0  0  0  0  0  0  0  0  0  0
   40.2380   24.8840   34.0250 O   0  0  0  0  0  0  0  0  0  0  0  0
   39.8350   23.1490   36.3340 C   0  0  0  0  0  0  0  0  0  0  0  0
   38.9580   24.0970   35.7680 C   0  0  0  0  0  0  0  0  0  0  0  0
   37.9590   24.6580   36.5690 C   0  0  0  0  0  0  0  0  0  0  0  0
   37.8650   24.2700   37.8730 N   0  0  0  0  0  0  0  0  0  0  0  0
   38.7190   23.3580   38.3920 C   0  0  0  0  0  0  0  0  0  0  0  0
   39.6730   22.8200   37.6340 N   0  0  0  0  0  0  0  0  0  0  0  0
   40.6020   22.7180   35.7170 H   0  0  0  0  0  0  0  0  0  0  0  0
   37.2840   25.3910   36.1240 H   0  0  0  0  0  0  0  0  0  0  0  0
   38.5360   23.1380   39.4350 H   0  0  0  0  0  0  0  0  0  0  0  0
  1 23  1  0  0  0  0
  1  6  1  0  0  0  0
  2  1  1  0  0  0  0
  3  1  1  0  0  0  0
  4  9  1  1  0  0  0
  4 15  1  0  0  0  0
  5  4  1  0  0  0  0
  5 11  1  0  0  0  0
  6 12  1  1  0  0  0
  6  5  1  0  0  0  0
  7  8  1  0  0  0  0
  7  6  1  0  0  0  0
  8  4  1  0  0  0  0
 10  5  1  0  0  0  0
 13  8  1  0  0  0  0
 14  8  1  0  0  0  0
 15 20  1  0  0  0  0
 17 16  1  0  0  0  0
 18 17  1  0  0  0  0
 19 18  1  0  0  0  0
 20 19  1  0  0  0  0
 20 21  1  0  0  0  0
 21 22  1  0  0  0  0
 22 17  1  0  0  0  0
 23 28  1  0  0  0  0
 24 33  1  0  0  0  0
 25 30  1  0  0  0  0
 25 24  2  0  0  0  0
 26 25  1  0  0  0  0
 27 26  2  0  0  0  0
 27 28  1  0  0  0  0
 28 29  2  0  0  0  0
 29 24  1  0  0  0  0
 31 26  1  0  0  0  0
 32 27  1  0  0  0  0
 33 36  1  0  0  0  0
 34 33  2  0  0  0  0
 35 40  1  0  0  0  0
 36 35  2  0  0  0  0
 36 37  1  0  0  0  0
 37 38  2  0  0  0  0
 38 39  1  0  0  0  0
 39 43  1  0  0  0  0
 40 39  2  0  0  0  0
 41 35  1  0  0  0  0
 42 37  1  0  0  0  0
M  END
>  <minimizedAffinity>
-5.86219645

$$$$

 OpenBabel03262522173D

 43 46  0  0  1  0  0  0  0  0999 V2000
   35.9810   26.5270   31.3840 C   0  0  0  0  0  0  0  0  0  0  0  0
   35.9330   26.2840   32.4520 H   0  0  0  0  0  0  0  0  0  0  0  0
   35.0210   27.0610   31.1500 H   0  0  0  0  0  0  0  0  0  0  0  0
   36.1890   23.0010   31.3930 C   0  0  1  0  0  0  0  0  0  0  0  0
   35.2190   24.1560   31.3710 C   0  0  0  0  0  0  0  0  0  0  0  0
   36.0420   25.2010   30.6520 C   0  0  2  0  0  0  0  0  0  0  0  0
   37.3160   24.7430   30.5220 O   0  0  0  0  0  0  0  0  0  0  0  0
   37.5180   23.7410   31.4550 C   0  0  0  0  0  0  0  0  0  0  0  0
   36.2030   22.4530   30.4380 H   0  0  0  0  0  0  0  0  0  0  0  0
   34.8650   24.4500   32.3560 H   0  0  0  0  0  0  0  0  0  0  0  0
   34.3870   23.8550   30.6800 H   0  0  0  0  0  0  0  0  0  0  0  0
   35.6370   25.4090   29.6290 H   0  0  0  0  0  0  0  0  0  0  0  0
   38.3270   23.0520   31.2120 H   0  0  0  0  0  0  0  0  0  0  0  0
   37.7000   24.1250   32.4720 H   0  0  0  0  0  0  0  0  0  0  0  0
   36.0190   22.1770   32.4870 O   0  0  0  0  0  0  0  0  0  0  0  0
   34.6210   18.4810   30.9950 H   0  0  0  0  0  0  0  0  0  0  0  0
   35.5400   18.3340   31.4680 N   0  0  0  0  0  0  0  0  0  0  0  0
   36.4920   19.2710   30.9040 C   0  0  0  0  0  2  0  0  0  0  0  0
   35.7320   20.5980   30.8160 C   0  0  0  0  0  2  0  0  0  0  0  0
   35.2780   21.0340   32.1930 C   0  0  0  0  0  3  0  0  0  0  0  0
   35.5170   20.0330   33.2680 C   0  0  0  0  0  2  0  0  0  0  0  0
   35.3940   18.5980   32.8620 C   0  0  0  0  0  2  0  0  0  0  0  0
   37.4390   27.4820   30.9130 S   0  0  0  0  0  0  0  0  0  0  0  0
   39.0080   26.6850   34.4790 C   0  0  0  0  0  0  0  0  0  0  0  0
   40.3880   26.8710   34.2780 C   0  0  0  0  0  0  0  0  0  0  0  0
   40.8940   27.2440   33.0550 C   0  0  0  0  0  0  0  0  0  0  0  0
   39.9750   27.4240   32.0450 C   0  0  0  0  0  0  0  0  0  0  0  0
   38.6510   27.2420   32.2540 C   0  0  0  0  0  0  0  0  0  0  0  0
   38.1390   26.8720   33.4630 N   0  0  0  0  0  0  0  0  0  0  0  0
   41.0770   26.7140   35.1180 H   0  0  0  0  0  0  0  0  0  0  0  0
   41.9540   27.3760   32.9410 H   0  0  0  0  0  0  0  0  0  0  0  0
   40.3530   27.7190   31.0730 H   0  0  0  0  0  0  0  0  0  0  0  0
   38.5540   26.2960   35.7850 C   0  0  0  0  0  0  0  0  0  0  0  0
   38.4340   27.1160   36.6890 O   0  0  0  0  0  0  0  0  0  0  0  0
   38.2310   23.9500   35.0640 C   0  0  0  0  0  0  0  0  0  0  0  0
   38.2080   24.9020   36.1040 C   0  0  0  0  0  0  0  0  0  0  0  0
   37.8580   24.4880   37.3930 C   0  0  0  0  0  0  0  0  0  0  0  0
   37.5530   23.1750   37.6030 N   0  0  0  0  0  0  0  0  0  0  0  0
   37.5830   22.2820   36.5870 C   0  0  0  0  0  0  0  0  0  0  0  0
   37.9140   22.6700   35.3580 N   0  0  0  0  0  0  0  0  0  0  0  0
   38.5000   24.2700   34.0740 H   0  0  0  0  0  0  0  0  0  0  0  0
   37.8430   25.2300   38.1930 H   0  0  0  0  0  0  0  0  0  0  0  0
   37.3190   21.2760   36.8880 H   0  0  0  0  0  0  0  0  0  0  0  0
  1  2  1  0  0  0  0
  3  1  1  0  0  0  0
  4  9  1  6  0  0  0
  4  8  1  0  0  0  0
  4 15  1  0  0  0  0
  5  4  1  0  0  0  0
  5 10  1  0  0  0  0
  6 12  1  6  0  0  0
  6  5  1  0  0  0  0
  6  1  1  0  0  0  0
  7  6  1  0  0  0  0
  7  8  1  0  0  0  0
  8 14  1  0  0  0  0
 11  5  1  0  0  0  0
 13  8  1  0  0  0  0
 16 17  1  0  0  0  0
 17 22  1  0  0  0  0
 18 17  1  0  0  0  0
 19 18  1  0  0  0  0
 19 20  1  0  0  0  0
 20 15  1  0  0  0  0
 20 21  1  0  0  0  0
 22 21  1  0  0  0  0
 23  1  1  0  0  0  0
 23 28  1  0  0  0  0
 24 33  1  0  0  0  0
 25 24  1  0  0  0  0
 25 30  1  0  0  0  0
 26 25  2  0  0  0  0
 27 28  2  0  0  0  0
 27 26  1  0  0  0  0
 28 29  1  0  0  0  0
 29 24  2  0  0  0  0
 31 26  1  0  0  0  0
 32 27  1  0  0  0  0
 33 36  1  0  0  0  0
 33 34  2  0  0  0  0
 35 40  2  0  0  0  0
 35 36  1  0  0  0  0
 36 37  2  0  0  0  0
 37 38  1  0  0  0  0
 37 42  1  0  0  0  0
 39 43  1  0  0  0  0
 39 38  2  0  0  0  0
 40 39  1  0  0  0  0
 41 35  1  0  0  0  0
M  END
>  <minimizedAffinity>
-5.80465937

$$$$

 OpenBabel03262522173D

 43 46  0  0  1  0  0  0  0  0999 V2000
   35.7590   26.4060   31.6090 C   0  0  0  0  0  0  0  0  0  0  0  0
   35.4900   26.0820   32.6210 H   0  0  0  0  0  0  0  0  0  0  0  0
   34.8370   26.8920   31.1900 H   0  0  0  0  0  0  0  0  0  0  0  0
   36.3830   22.9320   31.4900 C   0  0  1  0  0  0  0  0  0  0  0  0
   35.2980   23.9720   31.3620 C   0  0  0  0  0  0  0  0  0  0  0  0
   36.0930   25.1450   30.8360 C   0  0  2  0  0  0  0  0  0  0  0  0
   37.4170   24.8400   30.8970 O   0  0  0  0  0  0  0  0  0  0  0  0
   37.5870   23.8090   31.8030 C   0  0  0  0  0  0  0  0  0  0  0  0
   36.6130   22.4530   30.5260 H   0  0  0  0  0  0  0  0  0  0  0  0
   34.7600   24.1610   32.2880 H   0  0  0  0  0  0  0  0  0  0  0  0
   34.6270   23.6260   30.5300 H   0  0  0  0  0  0  0  0  0  0  0  0
   35.8330   25.3730   29.7720 H   0  0  0  0  0  0  0  0  0  0  0  0
   38.5010   23.2310   31.6650 H   0  0  0  0  0  0  0  0  0  0  0  0
   37.5590   24.1440   32.8530 H   0  0  0  0  0  0  0  0  0  0  0  0
   36.1430   22.0250   32.5020 O   0  0  0  0  0  0  0  0  0  0  0  0
   34.8570   18.4110   30.7350 H   0  0  0  0  0  0  0  0  0  0  0  0
   35.6870   18.2210   31.3400 N   0  0  0  0  0  0  0  0  0  0  0  0
   36.7480   19.1280   30.9500 C   0  0  0  0  0  2  0  0  0  0  0  0
   36.0600   20.4840   30.7740 C   0  0  0  0  0  2  0  0  0  0  0  0
   35.4140   20.9180   32.0730 C   0  0  0  0  0  3  0  0  0  0  0  0
   35.4470   19.8910   33.1510 C   0  0  0  0  0  2  0  0  0  0  0  0
   35.3360   18.4690   32.7010 C   0  0  0  0  0  2  0  0  0  0  0  0
   37.2030   27.4890   31.5450 S   0  0  0  0  0  0  0  0  0  0  0  0
   40.0130   26.8520   34.2860 C   0  0  0  0  0  0  0  0  0  0  0  0
   39.3290   27.0280   35.5030 C   0  0  0  0  0  0  0  0  0  0  0  0
   37.9920   27.3460   35.5370 C   0  0  0  0  0  0  0  0  0  0  0  0
   37.3650   27.4820   34.3180 C   0  0  0  0  0  0  0  0  0  0  0  0
   38.0380   27.3080   33.1560 C   0  0  0  0  0  0  0  0  0  0  0  0
   39.3630   26.9930   33.1110 N   0  0  0  0  0  0  0  0  0  0  0  0
   39.8760   26.9080   36.4460 H   0  0  0  0  0  0  0  0  0  0  0  0
   37.5040   27.4730   36.4860 H   0  0  0  0  0  0  0  0  0  0  0  0
   36.3120   27.7310   34.3230 H   0  0  0  0  0  0  0  0  0  0  0  0
   41.4100   26.5200   34.3290 C   0  0  0  0  0  0  0  0  0  0  0  0
   42.2670   27.3170   33.9620 O   0  0  0  0  0  0  0  0  0  0  0  0
   43.1050   25.1650   35.5180 C   0  0  0  0  0  0  0  0  0  0  0  0
   41.8850   25.2140   34.8140 C   0  0  0  0  0  0  0  0  0  0  0  0
   41.1760   24.0280   34.6040 C   0  0  0  0  0  0  0  0  0  0  0  0
   41.6880   22.8600   35.0890 N   0  0  0  0  0  0  0  0  0  0  0  0
   42.8610   22.8400   35.7610 C   0  0  0  0  0  0  0  0  0  0  0  0
   43.5420   23.9670   35.9640 N   0  0  0  0  0  0  0  0  0  0  0  0
   43.6500   26.0780   35.6780 H   0  0  0  0  0  0  0  0  0  0  0  0
   40.2320   24.0740   34.0580 H   0  0  0  0  0  0  0  0  0  0  0  0
   43.1550   21.8520   36.0900 H   0  0  0  0  0  0  0  0  0  0  0  0
  1  2  1  0  0  0  0
  3  1  1  0  0  0  0
  4  9  1  6  0  0  0
  4  8  1  0  0  0  0
  4 15  1  0  0  0  0
  5  4  1  0  0  0  0
  5 10  1  0  0  0  0
  6 12  1  6  0  0  0
  6  7  1  0  0  0  0
  6  5  1  0  0  0  0
  6  1  1  0  0  0  0
  7  8  1  0  0  0  0
  8 14  1  0  0  0  0
 11  5  1  0  0  0  0
 13  8  1  0  0  0  0
 16 17  1  0  0  0  0
 17 22  1  0  0  0  0
 18 17  1  0  0  0  0
 19 18  1  0  0  0  0
 19 20  1  0  0  0  0
 20 15  1  0  0  0  0
 20 21  1  0  0  0  0
 22 21  1  0  0  0  0
 23  1  1  0  0  0  0
 23 28  1  0  0  0  0
 24 33  1  0  0  0  0
 24 25  1  0  0  0  0
 25 26  2  0  0  0  0
 25 30  1  0  0  0  0
 26 31  1  0  0  0  0
 27 32  1  0  0  0  0
 27 26  1  0  0  0  0
 28 27  2  0  0  0  0
 29 28  1  0  0  0  0
 29 24  2  0  0  0  0
 33 36  1  0  0  0  0
 34 33  2  0  0  0  0
 35 41  1  0  0  0  0
 35 40  1  0  0  0  0
 36 35  2  0  0  0  0
 37 36  1  0  0  0  0
 37 38  2  0  0  0  0
 38 39  1  0  0  0  0
 39 40  2  0  0  0  0
 39 43  1  0  0  0  0
 42 37  1  0  0  0  0
M  END
>  <minimizedAffinity>
-5.74567509

$$$$

 OpenBabel03262522173D

 43 46  0  0  1  0  0  0  0  0999 V2000
   37.7840   26.5420   31.1210 C   0  0  0  0  0  0  0  0  0  0  0  0
   37.8050   26.2810   30.0570 H   0  0  0  0  0  0  0  0  0  0  0  0
   38.4120   27.4680   31.2190 H   0  0  0  0  0  0  0  0  0  0  0  0
   38.6540   24.8770   34.1120 C   0  0  1  0  0  0  0  0  0  0  0  0
   37.5950   24.9680   33.0410 C   0  0  0  0  0  0  0  0  0  0  0  0
   38.4320   25.3820   31.8520 C   0  0  2  0  0  0  0  0  0  0  0  0
   39.6870   25.6830   32.2820 O   0  0  0  0  0  0  0  0  0  0  0  0
   39.6330   25.9420   33.6400 C   0  0  0  0  0  0  0  0  0  0  0  0
   39.2090   23.9270   34.0650 H   0  0  0  0  0  0  0  0  0  0  0  0
   36.7810   25.6450   33.2870 H   0  0  0  0  0  0  0  0  0  0  0  0
   37.2470   23.9170   32.8520 H   0  0  0  0  0  0  0  0  0  0  0  0
   38.5060   24.5600   31.0960 H   0  0  0  0  0  0  0  0  0  0  0  0
   40.5820   25.8180   34.1620 H   0  0  0  0  0  0  0  0  0  0  0  0
   39.2520   26.9500   33.8740 H   0  0  0  0  0  0  0  0  0  0  0  0
   38.1700   25.1600   35.3730 O   0  0  0  0  0  0  0  0  0  0  0  0
   38.8360   21.6700   37.6560 H   0  0  0  0  0  0  0  0  0  0  0  0
   39.4200   22.4460   38.0380 N   0  0  0  0  0  0  0  0  0  0  0  0
   40.1890   23.0120   36.9470 C   0  0  0  0  0  2  0  0  0  0  0  0
   39.1980   23.1240   35.7860 C   0  0  0  0  0  2  0  0  0  0  0  0
   38.0410   24.0240   36.1690 C   0  0  0  0  0  3  0  0  0  0  0  0
   38.0380   24.4510   37.5950 C   0  0  0  0  0  2  0  0  0  0  0  0
   38.5630   23.4520   38.5770 C   0  0  0  0  0  2  0  0  0  0  0  0
   36.1220   26.7560   31.7930 S   0  0  0  0  0  0  0  0  0  0  0  0
   35.5890   30.2060   33.6980 C   0  0  0  0  0  0  0  0  0  0  0  0
   35.6610   31.1620   32.6680 C   0  0  0  0  0  0  0  0  0  0  0  0
   35.8740   30.7970   31.3600 C   0  0  0  0  0  0  0  0  0  0  0  0
   36.0110   29.4480   31.1180 C   0  0  0  0  0  0  0  0  0  0  0  0
   35.9390   28.5410   32.1190 C   0  0  0  0  0  0  0  0  0  0  0  0
   35.7290   28.8920   33.4200 N   0  0  0  0  0  0  0  0  0  0  0  0
   35.5440   32.2240   32.9170 H   0  0  0  0  0  0  0  0  0  0  0  0
   35.9230   31.5570   30.6020 H   0  0  0  0  0  0  0  0  0  0  0  0
   36.1790   29.1390   30.0940 H   0  0  0  0  0  0  0  0  0  0  0  0
   35.3640   30.6620   35.0410 C   0  0  0  0  0  0  0  0  0  0  0  0
   36.2990   30.9400   35.7860 O   0  0  0  0  0  0  0  0  0  0  0  0
   32.9600   30.0740   35.0190 C   0  0  0  0  0  0  0  0  0  0  0  0
   34.0090   30.8230   35.5910 C   0  0  0  0  0  0  0  0  0  0  0  0
   33.7230   31.6870   36.6530 C   0  0  0  0  0  0  0  0  0  0  0  0
   32.4390   31.7750   37.1030 N   0  0  0  0  0  0  0  0  0  0  0  0
   31.4510   31.0450   36.5370 C   0  0  0  0  0  0  0  0  0  0  0  0
   31.7160   30.2210   35.5250 N   0  0  0  0  0  0  0  0  0  0  0  0
   33.1810   29.4120   34.2020 H   0  0  0  0  0  0  0  0  0  0  0  0
   34.5410   32.2630   37.0910 H   0  0  0  0  0  0  0  0  0  0  0  0
   30.4800   31.2080   36.9860 H   0  0  0  0  0  0  0  0  0  0  0  0
  1  3  1  0  0  0  0
  1 23  1  0  0  0  0
  1  6  1  0  0  0  0
  2  1  1  0  0  0  0
  4  9  1  6  0  0  0
  4 15  1  0  0  0  0
  5 10  1  0  0  0  0
  5  4  1  0  0  0  0
  6 12  1  6  0  0  0
  6  7  1  0  0  0  0
  6  5  1  0  0  0  0
  7  8  1  0  0  0  0
  8 14  1  0  0  0  0
  8  4  1  0  0  0  0
  8 13  1  0  0  0  0
 11  5  1  0  0  0  0
 15 20  1  0  0  0  0
 16 17  1  0  0  0  0
 17 22  1  0  0  0  0
 18 17  1  0  0  0  0
 19 20  1  0  0  0  0
 19 18  1  0  0  0  0
 20 21  1  0  0  0  0
 21 22  1  0  0  0  0
 23 28  1  0  0  0  0
 24 33  1  0  0  0  0
 25 30  1  0  0  0  0
 25 24  2  0  0  0  0
 26 25  1  0  0  0  0
 27 26  2  0  0  0  0
 27 28  1  0  0  0  0
 28 29  2  0  0  0  0
 29 24  1  0  0  0  0
 31 26  1  0  0  0  0
 32 27  1  0  0  0  0
 33 36  1  0  0  0  0
 33 34  2  0  0  0  0
 35 40  2  0  0  0  0
 35 36  1  0  0  0  0
 36 37  2  0  0  0  0
 37 42  1  0  0  0  0
 37 38  1  0  0  0  0
 39 43  1  0  0  0  0
 39 38  2  0  0  0  0
 40 39  1  0  0  0  0
 41 35  1  0  0  0  0
M  END
>  <minimizedAffinity>
-5.72963142

$$$$

 OpenBabel03262522173D

 43 46  0  0  1  0  0  0  0  0999 V2000
   38.0110   26.2010   31.0190 C   0  0  0  0  0  0  0  0  0  0  0  0
   37.9200   26.8410   30.1340 H   0  0  0  0  0  0  0  0  0  0  0  0
   38.9900   26.4810   31.4960 H   0  0  0  0  0  0  0  0  0  0  0  0
   37.6720   22.7230   31.5300 C   0  0  1  0  0  0  0  0  0  0  0  0
   36.9280   23.9610   31.0900 C   0  0  0  0  0  0  0  0  0  0  0  0
   38.0600   24.7750   30.5060 C   0  0  2  0  0  0  0  0  0  0  0  0
   39.2390   24.1630   30.8000 O   0  0  0  0  0  0  0  0  0  0  0  0
   39.0340   23.3100   31.8700 C   0  0  0  0  0  0  0  0  0  0  0  0
   37.8520   22.0300   30.6940 H   0  0  0  0  0  0  0  0  0  0  0  0
   36.3770   24.4480   31.8900 H   0  0  0  0  0  0  0  0  0  0  0  0
   36.2710   23.6460   30.2350 H   0  0  0  0  0  0  0  0  0  0  0  0
   37.9740   24.8580   29.3930 H   0  0  0  0  0  0  0  0  0  0  0  0
   39.7640   22.5060   31.9530 H   0  0  0  0  0  0  0  0  0  0  0  0
   38.9990   23.8330   32.8400 H   0  0  0  0  0  0  0  0  0  0  0  0
   37.0970   22.1120   32.6260 O   0  0  0  0  0  0  0  0  0  0  0  0
   35.6650   18.1630   32.1880 H   0  0  0  0  0  0  0  0  0  0  0  0
   35.2610   18.7600   31.4320 N   0  0  0  0  0  0  0  0  0  0  0  0
   34.6440   19.9160   32.0520 C   0  0  0  0  0  2  0  0  0  0  0  0
   35.6460   20.3740   33.1160 C   0  0  0  0  0  2  0  0  0  0  0  0
   36.9680   20.7340   32.4700 C   0  0  0  0  0  3  0  0  0  0  0  0
   37.0520   20.4180   31.0180 C   0  0  0  0  0  2  0  0  0  0  0  0
   36.3130   19.1970   30.5720 C   0  0  0  0  0  2  0  0  0  0  0  0
   36.6200   26.3270   32.1630 S   0  0  0  0  0  0  0  0  0  0  0  0
   38.0310   25.1440   35.6870 C   0  0  0  0  0  0  0  0  0  0  0  0
   38.4150   26.3470   36.3060 C   0  0  0  0  0  0  0  0  0  0  0  0
   38.2610   27.5610   35.6790 C   0  0  0  0  0  0  0  0  0  0  0  0
   37.7120   27.5290   34.4160 C   0  0  0  0  0  0  0  0  0  0  0  0
   37.3470   26.3630   33.8350 C   0  0  0  0  0  0  0  0  0  0  0  0
   37.4950   25.1540   34.4480 N   0  0  0  0  0  0  0  0  0  0  0  0
   38.8480   26.3160   37.3140 H   0  0  0  0  0  0  0  0  0  0  0  0
   38.5670   28.4590   36.1840 H   0  0  0  0  0  0  0  0  0  0  0  0
   37.5810   28.4750   33.9040 H   0  0  0  0  0  0  0  0  0  0  0  0
   38.2220   23.9150   36.4050 C   0  0  0  0  0  0  0  0  0  0  0  0
   37.3070   23.3950   37.0350 O   0  0  0  0  0  0  0  0  0  0  0  0
   39.9420   22.6190   37.6250 C   0  0  0  0  0  0  0  0  0  0  0  0
   39.5170   23.2150   36.4200 C   0  0  0  0  0  0  0  0  0  0  0  0
   40.3360   23.1210   35.2910 C   0  0  0  0  0  0  0  0  0  0  0  0
   41.5210   22.4530   35.3930 N   0  0  0  0  0  0  0  0  0  0  0  0
   41.9060   21.8900   36.5610 C   0  0  0  0  0  0  0  0  0  0  0  0
   41.1300   21.9770   37.6390 N   0  0  0  0  0  0  0  0  0  0  0  0
   39.3110   22.6930   38.4920 H   0  0  0  0  0  0  0  0  0  0  0  0
   40.0000   23.5850   34.3620 H   0  0  0  0  0  0  0  0  0  0  0  0
   42.8660   21.3920   36.5060 H   0  0  0  0  0  0  0  0  0  0  0  0
  1  3  1  0  0  0  0
  1 23  1  0  0  0  0
  2  1  1  0  0  0  0
  4  9  1  6  0  0  0
  4  8  1  0  0  0  0
  4 15  1  0  0  0  0
  5  4  1  0  0  0  0
  5 10  1  0  0  0  0
  6 12  1  6  0  0  0
  6  7  1  0  0  0  0
  6  1  1  0  0  0  0
  6  5  1  0  0  0  0
  7  8  1  0  0  0  0
  8 13  1  0  0  0  0
  8 14  1  0  0  0  0
 11  5  1  0  0  0  0
 17 18  1  0  0  0  0
 17 16  1  0  0  0  0
 18 19  1  0  0  0  0
 20 15  1  0  0  0  0
 20 19  1  0  0  0  0
 21 20  1  0  0  0  0
 22 21  1  0  0  0  0
 22 17  1  0  0  0  0
 23 28  1  0  0  0  0
 24 25  1  0  0  0  0
 24 33  1  0  0  0  0
 25 30  1  0  0  0  0
 26 31  1  0  0  0  0
 26 25  2  0  0  0  0
 27 26  1  0  0  0  0
 28 27  2  0  0  0  0
 28 29  1  0  0  0  0
 29 24  2  0  0  0  0
 32 27  1  0  0  0  0
 33 36  1  0  0  0  0
 33 34  2  0  0  0  0
 35 40  1  0  0  0  0
 35 41  1  0  0  0  0
 36 35  2  0  0  0  0
 37 38  2  0  0  0  0
 37 36  1  0  0  0  0
 38 39  1  0  0  0  0
 39 40  2  0  0  0  0
 42 37  1  0  0  0  0
 43 39  1  0  0  0  0
M  END
>  <minimizedAffinity>
-5.70459175

$$$$

 OpenBabel03262522173D

 43 46  0  0  1  0  0  0  0  0999 V2000
   38.0450   25.2180   30.7450 C   0  0  0  0  0  0  0  0  0  0  0  0
   38.1670   24.8890   29.7070 H   0  0  0  0  0  0  0  0  0  0  0  0
   38.7110   26.1160   30.8590 H   0  0  0  0  0  0  0  0  0  0  0  0
   39.1070   23.9440   33.8630 C   0  0  1  0  0  0  0  0  0  0  0  0
   37.8990   24.1280   32.9790 C   0  0  0  0  0  0  0  0  0  0  0  0
   38.5410   24.0770   31.6110 C   0  0  2  0  0  0  0  0  0  0  0  0
   39.8930   24.0940   31.7600 O   0  0  0  0  0  0  0  0  0  0  0  0
   40.1880   24.5980   33.0140 C   0  0  0  0  0  0  0  0  0  0  0  0
   39.4010   22.8860   33.9480 H   0  0  0  0  0  0  0  0  0  0  0  0
   37.3370   25.0350   33.1880 H   0  0  0  0  0  0  0  0  0  0  0  0
   37.2820   23.1960   33.0910 H   0  0  0  0  0  0  0  0  0  0  0  0
   38.2590   23.1440   31.0600 H   0  0  0  0  0  0  0  0  0  0  0  0
   41.1690   24.3150   33.3960 H   0  0  0  0  0  0  0  0  0  0  0  0
   40.1120   25.6960   33.0690 H   0  0  0  0  0  0  0  0  0  0  0  0
   38.9790   24.5700   35.0860 O   0  0  0  0  0  0  0  0  0  0  0  0
   38.2390   21.8950   38.2690 H   0  0  0  0  0  0  0  0  0  0  0  0
   38.8280   22.6840   38.6150 N   0  0  0  0  0  0  0  0  0  0  0  0
   39.9780   22.8050   37.7430 C   0  0  0  0  0  2  0  0  0  0  0  0
   39.4150   22.6620   36.3260 C   0  0  0  0  0  2  0  0  0  0  0  0
   38.3990   23.7520   36.0540 C   0  0  0  0  0  3  0  0  0  0  0  0
   38.0640   24.5920   37.2350 C   0  0  0  0  0  2  0  0  0  0  0  0
   38.0680   23.8910   38.5570 C   0  0  0  0  0  2  0  0  0  0  0  0
   36.3350   25.5600   31.2120 S   0  0  0  0  0  0  0  0  0  0  0  0
   35.1950   29.2520   32.1490 C   0  0  0  0  0  0  0  0  0  0  0  0
   35.8590   30.0500   31.1990 C   0  0  0  0  0  0  0  0  0  0  0  0
   36.6760   29.4990   30.2410 C   0  0  0  0  0  0  0  0  0  0  0  0
   36.8050   28.1280   30.2650 C   0  0  0  0  0  0  0  0  0  0  0  0
   36.1600   27.3740   31.1850 C   0  0  0  0  0  0  0  0  0  0  0  0
   35.3480   27.9110   32.1390 N   0  0  0  0  0  0  0  0  0  0  0  0
   35.7210   31.1380   31.2250 H   0  0  0  0  0  0  0  0  0  0  0  0
   37.1660   30.1420   29.5320 H   0  0  0  0  0  0  0  0  0  0  0  0
   37.4440   27.6730   29.5170 H   0  0  0  0  0  0  0  0  0  0  0  0
   34.3580   29.8990   33.1200 C   0  0  0  0  0  0  0  0  0  0  0  0
   33.1710   29.6090   33.2340 O   0  0  0  0  0  0  0  0  0  0  0  0
   35.7230   30.5410   35.0820 C   0  0  0  0  0  0  0  0  0  0  0  0
   34.8760   30.9360   34.0270 C   0  0  0  0  0  0  0  0  0  0  0  0
   34.5600   32.2910   33.8820 C   0  0  0  0  0  0  0  0  0  0  0  0
   35.0850   33.1870   34.7660 N   0  0  0  0  0  0  0  0  0  0  0  0
   35.8950   32.7820   35.7710 C   0  0  0  0  0  0  0  0  0  0  0  0
   36.1990   31.4940   35.9140 N   0  0  0  0  0  0  0  0  0  0  0  0
   35.9640   29.5000   35.1920 H   0  0  0  0  0  0  0  0  0  0  0  0
   33.9040   32.5890   33.0620 H   0  0  0  0  0  0  0  0  0  0  0  0
   36.2410   33.5910   36.4000 H   0  0  0  0  0  0  0  0  0  0  0  0
  1  3  1  0  0  0  0
  1 23  1  0  0  0  0
  1  6  1  0  0  0  0
  2  1  1  0  0  0  0
  4  9  1  1  0  0  0
  4 15  1  0  0  0  0
  5 11  1  0  0  0  0
  5 10  1  0  0  0  0
  5  4  1  0  0  0  0
  6 12  1  6  0  0  0
  6  7  1  0  0  0  0
  6  5  1  0  0  0  0
  7  8  1  0  0  0  0
  8 14  1  0  0  0  0
  8 13  1  0  0  0  0
  8  4  1  0  0  0  0
 15 20  1  0  0  0  0
 16 17  1  0  0  0  0
 18 17  1  0  0  0  0
 19 18  1  0  0  0  0
 20 19  1  0  0  0  0
 20 21  1  0  0  0  0
 21 22  1  0  0  0  0
 22 17  1  0  0  0  0
 24 33  1  0  0  0  0
 25 30  1  0  0  0  0
 25 24  2  0  0  0  0
 26 27  2  0  0  0  0
 26 25  1  0  0  0  0
 27 28  1  0  0  0  0
 28 23  1  0  0  0  0
 28 29  2  0  0  0  0
 29 24  1  0  0  0  0
 31 26  1  0  0  0  0
 32 27  1  0  0  0  0
 33 34  2  0  0  0  0
 33 36  1  0  0  0  0
 35 41  1  0  0  0  0
 35 40  1  0  0  0  0
 36 35  2  0  0  0  0
 37 36  1  0  0  0  0
 37 38  2  0  0  0  0
 38 39  1  0  0  0  0
 39 40  2  0  0  0  0
 39 43  1  0  0  0  0
 42 37  1  0  0  0  0
M  END
>  <minimizedAffinity>
-5.70105076

$$$$
