
     RDKit          3D

 39 41  0  0  0  0  0  0  0  0999 V2000
   34.8057   29.5331   47.5072 S   0  0  0  0  0  0  0  0  0  0  0  0
   37.3720   29.4696   50.5408 C   0  0  0  0  0  0  0  0  0  0  0  0
   37.9713   30.7421   50.5155 C   0  0  0  0  0  0  0  0  0  0  0  0
   37.5665   31.6489   49.5258 C   0  0  0  0  0  0  0  0  0  0  0  0
   36.6194   31.2500   48.6470 N   0  0  0  0  0  0  0  0  0  0  0  0
   36.0624   30.0233   48.6957 C   0  0  0  0  0  0  0  0  0  0  0  0
   36.4265   29.1270   49.6317 N   0  0  0  0  0  0  0  0  0  0  0  0
   32.3908   28.3505   47.4790 C   0  0  2  0  0  0  0  0  0  0  0  0
   33.6342   28.4061   48.3440 C   0  0  1  0  0  0  0  0  0  0  0  0
   34.1927   27.1549   48.3498 O   0  0  0  0  0  0  0  0  0  0  0  0
   33.5488   26.3683   47.4130 C   0  0  0  0  0  0  0  0  0  0  0  0
   32.8384   27.3409   46.4587 C   0  0  1  0  0  0  0  0  0  0  0  0
   32.1402   29.5987   46.8914 O   0  0  0  0  0  0  0  0  0  0  0  0
   31.7872   26.6986   45.8274 O   0  0  0  0  0  0  0  0  0  0  0  0
   37.6660   28.7499   51.2944 H   0  0  0  0  0  0  0  0  0  0  0  0
   38.7260   31.0222   51.2374 H   0  0  0  0  0  0  0  0  0  0  0  0
   37.9960   32.6470   49.4587 H   0  0  0  0  0  0  0  0  0  0  0  0
   31.5301   27.9719   48.0315 H   0  0  0  0  0  0  0  0  0  0  0  0
   33.4340   28.8079   49.3405 H   0  0  0  0  0  0  0  0  0  0  0  0
   34.3605   25.8208   46.8565 H   0  0  0  0  0  0  0  0  0  0  0  0
   32.8252   25.7128   47.9000 H   0  0  0  0  0  0  0  0  0  0  0  0
   33.5510   27.7363   45.7287 H   0  0  0  0  0  0  0  0  0  0  0  0
   32.1586   30.3205   47.5560 H   0  0  0  0  0  0  0  0  0  0  0  0
   31.4389   26.3042   41.7171 H   0  0  0  0  0  0  0  0  0  0  0  0
   32.2528   26.9098   41.8977 N   0  0  0  0  0  0  0  0  0  0  0  0
   33.2952   26.1638   42.5465 C   0  0  0  0  0  0  0  0  0  0  0  0
   32.9056   25.6975   43.9518 C   0  0  0  0  0  0  0  0  0  0  0  0
   31.8964   26.7153   44.4455 C   0  0  0  0  0  0  0  0  0  0  0  0
   32.3827   28.0743   43.9578 C   0  0  0  0  0  0  0  0  0  0  0  0
   31.9630   28.1811   42.4996 C   0  0  0  0  0  0  0  0  0  0  0  0
   33.4437   25.2411   41.9462 H   0  0  0  0  0  0  0  0  0  0  0  0
   34.2548   26.7265   42.5543 H   0  0  0  0  0  0  0  0  0  0  0  0
   33.8405   25.7189   44.5488 H   0  0  0  0  0  0  0  0  0  0  0  0
   32.4715   24.6732   43.9216 H   0  0  0  0  0  0  0  0  0  0  0  0
   30.9428   26.4441   43.9337 H   0  0  0  0  0  0  0  0  0  0  0  0
   33.5103   28.1084   43.9575 H   0  0  0  0  0  0  0  0  0  0  0  0
   32.0058   28.9121   44.5692 H   0  0  0  0  0  0  0  0  0  0  0  0
   30.8543   28.2893   42.4992 H   0  0  0  0  0  0  0  0  0  0  0  0
   32.4185   29.0507   41.9863 H   0  0  0  0  0  0  0  0  0  0  0  0
  1  6  1  0
  3  2  2  0
  4  3  1  0
  5  6  1  0
  5  4  2  0
  6  7  2  0
  7  2  1  0
  8 13  1  0
  8  9  1  0
  9  1  1  0
  9 10  1  0
 11 10  1  0
 12 14  1  0
 12 11  1  0
 12  8  1  0
  2 15  1  0
  3 16  1  0
  4 17  1  0
  8 18  1  1
  9 19  1  1
 11 20  1  0
 11 21  1  0
 12 22  1  6
 13 23  1  0
 24 25  1  0
 25 26  1  0
 26 27  1  0
 27 28  1  0
 28 29  1  0
 29 30  1  0
 30 25  1  0
 26 31  1  0
 26 32  1  0
 27 33  1  0
 27 34  1  0
 28 35  1  0
 29 36  1  0
 29 37  1  0
 30 38  1  0
 30 39  1  0
 14 28  1  0
M  ISO  8  15  14  16  14  17  14  18  13  19  13  20  13  21  13  22  13
M  ISO  2  23   3  24   5
M  END
>  <DihAtoms>  (1) 
11,13,27,26

>  <DihDeg>  (1) 
-117.75839133619374

$$$$
