
 OpenBabel03272508273D

 36 39  0  0  1  0  0  0  0  0999 V2000
   33.8050   28.8630   47.2230 C   0  0  2  0  0  0  0  0  0  0  0  0
   34.4810   28.1210   48.3680 C   0  0  2  0  0  0  0  0  0  0  0  0
   33.5240   27.9960   49.3370 O   0  0  0  0  0  0  0  0  0  0  0  0
   32.2830   28.0460   48.7950 C   0  0  0  0  0  0  0  0  0  0  0  0
   32.4220   28.2060   47.2950 C   0  0  1  0  0  0  0  0  0  0  0  0
   33.6570   29.9310   47.4370 H   0  0  0  0  0  0  0  0  0  0  0  0
   34.7760   27.1320   48.0000 H   0  0  0  0  0  0  0  0  0  0  0  0
   31.7500   27.0860   48.9700 H   0  0  0  0  0  0  0  0  0  0  0  0
   31.6240   28.8400   49.2120 H   0  0  0  0  0  0  0  0  0  0  0  0
   32.5470   27.2020   46.8640 H   0  0  0  0  0  0  0  0  0  0  0  0
   35.5510   30.3980   48.9780 C   0  0  1  0  0  0  0  0  0  0  0  0
   35.6290   28.9650   48.8210 C   0  0  1  0  0  0  0  0  0  0  0  0
   35.7090   29.4980   50.2140 C   0  0  0  0  0  0  0  0  0  0  0  0
   34.6420   31.0200   49.1030 H   0  0  0  0  0  0  0  0  0  0  0  0
   36.6150   28.5770   48.4320 H   0  0  0  0  0  0  0  0  0  0  0  0
   36.6720   29.5060   50.7510 H   0  0  0  0  0  0  0  0  0  0  0  0
   34.8350   29.2900   50.8450 H   0  0  0  0  0  0  0  0  0  0  0  0
   36.7690   31.2810   48.7630 C   0  0  0  0  0  0  0  0  0  0  0  0
   37.0280   32.2600   49.7220 C   0  0  0  0  0  0  0  0  0  0  0  0
   38.1370   33.0550   49.4570 C   0  0  0  0  0  0  0  0  0  0  0  0
   38.8940   32.8650   48.3320 N   0  0  0  0  0  0  0  0  0  0  0  0
   38.6020   31.9000   47.4280 C   0  0  0  0  0  0  0  0  0  0  0  0
   37.5230   31.0960   47.6480 N   0  0  0  0  0  0  0  0  0  0  0  0
   36.4220   32.3870   50.5910 H   0  0  0  0  0  0  0  0  0  0  0  0
   38.4120   33.8460   50.1560 H   0  0  0  0  0  0  0  0  0  0  0  0
   39.1910   31.7390   46.5370 H   0  0  0  0  0  0  0  0  0  0  0  0
   34.4030   28.6450   45.9960 O   0  0  0  0  0  0  0  0  0  0  0  0
   34.2430   29.4420   45.4390 H   0  0  0  0  0  0  0  0  0  0  0  0
   31.4640   28.9750   46.7020 O   0  0  0  0  0  0  0  0  0  0  0  0
   28.1820   31.1820   46.0960 H   0  0  0  0  0  0  0  0  0  0  0  0
   28.5840   30.2720   45.7400 N   0  0  0  0  0  0  0  0  0  0  0  0
   28.9130   29.3990   46.8370 C   0  0  0  0  0  2  0  0  0  0  0  0
   29.3880   28.0750   46.2320 C   0  0  0  0  0  2  0  0  0  0  0  0
   30.7730   28.4200   45.6620 C   0  0  0  0  0  3  0  0  0  0  0  0
   30.4880   29.3820   44.5350 C   0  0  0  0  0  2  0  0  0  0  0  0
   29.7920   30.6270   45.0380 C   0  0  0  0  0  2  0  0  0  0  0  0
  1  5  1  0  0  0  0
  1  6  1  1  0  0  0
  1  2  1  0  0  0  0
  2  7  1  6  0  0  0
  2 12  1  0  0  0  0
  2  3  1  0  0  0  0
  4  8  1  0  0  0  0
  4  9  1  0  0  0  0
  4  3  1  0  0  0  0
  5 10  1  6  0  0  0
  5  4  1  0  0  0  0
 11 14  1  6  0  0  0
 11 13  1  0  0  0  0
 12 15  1  6  0  0  0
 12 11  1  0  0  0  0
 12 13  1  0  0  0  0
 13 16  1  0  0  0  0
 13 17  1  0  0  0  0
 18 11  1  0  0  0  0
 18 19  1  0  0  0  0
 19 24  1  0  0  0  0
 20 19  2  0  0  0  0
 20 25  1  0  0  0  0
 21 20  1  0  0  0  0
 22 23  1  0  0  0  0
 22 21  2  0  0  0  0
 23 18  2  0  0  0  0
 26 22  1  0  0  0  0
 27  1  1  0  0  0  0
 28 27  1  0  0  0  0
 29  5  1  0  0  0  0
 31 30  1  0  0  0  0
 31 32  1  0  0  0  0
 33 32  1  0  0  0  0
 34 33  1  0  0  0  0
 34 29  1  0  0  0  0
 35 36  1  0  0  0  0
 35 34  1  0  0  0  0
 36 31  1  0  0  0  0
M  END
>  <minimizedAffinity>
-5.09302568

>  <minimizedRMSD>
0.572281539

$$$$
