REMARK  Name = 
REMARK  5 active torsions:
REMARK  status: ('A' for Active; 'I' for Inactive)
REMARK    1  A    between atoms: S_1  and  C_6
REMARK    2  A    between atoms: S_1  and  C_9
REMARK    3  A    between atoms: C_8  and  O_13
REMARK    4  A    between atoms: C_12  and  O_14
REMARK    5  A    between atoms: O_14  and  C_28
REMARK                            x       y       z     vdW  Elec       q    Type
REMARK                         _______ _______ _______ _____ _____    ______ ____
ROOT
ATOM      1  C   UNL     1      32.391  28.351  47.479  0.00  0.00    +0.000 C 
ATOM      2  C   UNL     1      33.634  28.406  48.344  0.00  0.00    +0.000 C 
ATOM      3  O   UNL     1      34.193  27.155  48.350  0.00  0.00    +0.000 OA
ATOM      4  C   UNL     1      33.549  26.368  47.413  0.00  0.00    +0.000 C 
ATOM      5  C   UNL     1      32.838  27.341  46.459  0.00  0.00    +0.000 C 
ATOM      6  H   UNL     1      31.530  27.972  48.032  0.00  0.00    +0.000 HD
ATOM      7  H   UNL     1      33.434  28.808  49.340  0.00  0.00    +0.000 HD
ATOM      8  H   UNL     1      34.361  25.821  46.856  0.00  0.00    +0.000 HD
ATOM      9  H   UNL     1      32.825  25.713  47.900  0.00  0.00    +0.000 HD
ATOM     10  H   UNL     1      33.551  27.736  45.729  0.00  0.00    +0.000 HD
ENDROOT
BRANCH   1  11
ATOM     11  O   UNL     1      32.140  29.599  46.891  0.00  0.00    +0.000 OA
ATOM     12  H   UNL     1      32.159  30.320  47.556  0.00  0.00    +0.000 HD
ENDBRANCH   1  11
BRANCH   2  13
ATOM     13  S   UNL     1      34.806  29.533  47.507  0.00  0.00    +0.000 S 
BRANCH  13  18
ATOM     14  C   UNL     1      37.372  29.470  50.541  0.00  0.00    +0.000 A 
ATOM     15  C   UNL     1      37.971  30.742  50.516  0.00  0.00    +0.000 A 
ATOM     16  C   UNL     1      37.566  31.649  49.526  0.00  0.00    +0.000 A 
ATOM     17  N   UNL     1      36.619  31.250  48.647  0.00  0.00    +0.000 NA
ATOM     18  C   UNL     1      36.062  30.023  48.696  0.00  0.00    +0.000 A 
ATOM     19  N   UNL     1      36.426  29.127  49.632  0.00  0.00    +0.000 NA
ATOM     20  H   UNL     1      37.666  28.750  51.294  0.00  0.00    +0.000 HD
ATOM     21  H   UNL     1      38.726  31.022  51.237  0.00  0.00    +0.000 HD
ATOM     22  H   UNL     1      37.996  32.647  49.459  0.00  0.00    +0.000 HD
ENDBRANCH  13  18
ENDBRANCH   2  13
BRANCH   5  23
ATOM     23  O   UNL     1      31.787  26.699  45.827  0.00  0.00    +0.000 OA
BRANCH  23  28
ATOM     24  H   UNL     1      31.439  26.304  41.717  0.00  0.00    +0.000 HD
ATOM     25  N   UNL     1      32.253  26.910  41.898  0.00  0.00    +0.000 NA
ATOM     26  C   UNL     1      33.295  26.164  42.547  0.00  0.00    +0.000 C 
ATOM     27  C   UNL     1      32.906  25.698  43.952  0.00  0.00    +0.000 C 
ATOM     28  C   UNL     1      31.896  26.715  44.446  0.00  0.00    +0.000 C 
ATOM     29  C   UNL     1      32.383  28.074  43.958  0.00  0.00    +0.000 C 
ATOM     30  C   UNL     1      31.963  28.181  42.500  0.00  0.00    +0.000 C 
ENDBRANCH  23  28
ENDBRANCH   5  23
TORSDOF 5
