
 OpenBabel03272500053D

 27 29  0  0  0  0  0  0  0  0999 V2000
   38.5730   26.2790   36.0750 C   0  0  0  0  0  0  0  0  0  0  0  0
   38.6750   25.0190   35.4430 C   0  0  0  0  0  0  0  0  0  0  0  0
   37.9690   24.8430   34.2610 C   0  0  0  0  0  0  0  0  0  0  0  0
   37.2260   25.8680   33.7730 N   0  0  0  0  0  0  0  0  0  0  0  0
   37.1490   27.0450   34.3920 C   0  0  0  0  0  0  0  0  0  0  0  0
   37.8210   27.2650   35.5500 N   0  0  0  0  0  0  0  0  0  0  0  0
   39.1210   26.4190   36.9940 H   0  0  0  0  0  0  0  0  0  0  0  0
   38.0470   23.8880   33.7830 H   0  0  0  0  0  0  0  0  0  0  0  0
   39.4900   24.0290   36.0610 N   0  0  0  0  0  0  0  0  0  0  0  0
   40.7360   23.7730   35.6500 C   0  0  0  0  0  0  0  0  0  0  0  0
   41.4820   22.7890   36.2990 C   0  0  0  0  0  0  0  0  0  0  0  0
   40.8450   22.1630   37.3280 C   0  0  0  0  0  0  0  0  0  0  0  0
   41.5230   21.2660   37.9200 O   0  0  0  0  0  0  0  0  0  0  0  0
   39.6040   22.3960   37.7630 N   0  0  0  0  0  0  0  0  0  0  0  0
   38.9300   23.3620   37.0920 C   0  0  0  0  0  0  0  0  0  0  0  0
   37.7440   23.5920   37.4990 O   0  0  0  0  0  0  0  0  0  0  0  0
   41.1540   24.3380   34.8080 H   0  0  0  0  0  0  0  0  0  0  0  0
   42.4940   22.5620   35.9840 H   0  0  0  0  0  0  0  0  0  0  0  0
   39.1580   21.8850   38.5610 H   0  0  0  0  0  0  0  0  0  0  0  0
   36.3830   28.1010   33.8870 O   0  0  0  0  0  0  0  0  0  0  0  0
   34.6220   30.4940   30.1570 H   0  0  0  0  0  0  0  0  0  0  0  0
   35.5170   30.5490   30.7070 N   0  0  0  0  0  0  0  0  0  0  0  0
   35.1400   30.5200   32.1000 C   0  0  0  0  0  2  0  0  0  0  0  0
   34.7500   29.0750   32.4230 C   0  0  0  0  0  2  0  0  0  0  0  0
   35.9920   28.2150   32.5590 C   0  0  0  0  0  3  0  0  0  0  0  0
   37.0250   28.8360   31.6470 C   0  0  0  0  0  2  0  0  0  0  0  0
   36.2740   29.3560   30.4200 C   0  0  0  0  0  2  0  0  0  0  0  0
  1  7  1  0  0  0  0
  2  9  1  0  0  0  0
  2  1  2  0  0  0  0
  3  2  1  0  0  0  0
  4  3  2  0  0  0  0
  4  5  1  0  0  0  0
  5  6  2  0  0  0  0
  6  1  1  0  0  0  0
  8  3  1  0  0  0  0
  9 15  1  0  0  0  0
 10  9  1  0  0  0  0
 10 11  2  0  0  0  0
 11 12  1  0  0  0  0
 12 14  1  0  0  0  0
 12 13  2  0  0  0  0
 14 19  1  0  0  0  0
 15 16  2  0  0  0  0
 15 14  1  0  0  0  0
 17 10  1  0  0  0  0
 18 11  1  0  0  0  0
 20  5  1  0  0  0  0
 21 22  1  0  0  0  0
 22 23  1  0  0  0  0
 23 24  1  0  0  0  0
 24 25  1  0  0  0  0
 25 20  1  0  0  0  0
 26 25  1  0  0  0  0
 27 22  1  0  0  0  0
 27 26  1  0  0  0  0
M  END
>  <minimizedAffinity>
-5.53403234

$$$$

 OpenBabel03272500053D

 27 29  0  0  0  0  0  0  0  0999 V2000
   38.4300   26.6900   35.8900 C   0  0  0  0  0  0  0  0  0  0  0  0
   38.4750   25.4300   35.2530 C   0  0  0  0  0  0  0  0  0  0  0  0
   37.7700   25.2940   34.0650 C   0  0  0  0  0  0  0  0  0  0  0  0
   37.0810   26.3550   33.5770 N   0  0  0  0  0  0  0  0  0  0  0  0
   37.0580   27.5320   34.2000 C   0  0  0  0  0  0  0  0  0  0  0  0
   37.7310   27.7140   35.3640 N   0  0  0  0  0  0  0  0  0  0  0  0
   38.9770   26.7990   36.8130 H   0  0  0  0  0  0  0  0  0  0  0  0
   37.8050   24.3380   33.5830 H   0  0  0  0  0  0  0  0  0  0  0  0
   39.2360   24.3990   35.8720 N   0  0  0  0  0  0  0  0  0  0  0  0
   40.5030   24.1420   35.5290 C   0  0  0  0  0  0  0  0  0  0  0  0
   41.1930   23.1170   36.1740 C   0  0  0  0  0  0  0  0  0  0  0  0
   40.4830   22.4530   37.1300 C   0  0  0  0  0  0  0  0  0  0  0  0
   41.1110   21.5180   37.7200 O   0  0  0  0  0  0  0  0  0  0  0  0
   39.2210   22.6840   37.4960 N   0  0  0  0  0  0  0  0  0  0  0  0
   38.6030   23.6920   36.8320 C   0  0  0  0  0  0  0  0  0  0  0  0
   37.3970   23.9210   37.1750 O   0  0  0  0  0  0  0  0  0  0  0  0
   40.9800   24.7400   34.7430 H   0  0  0  0  0  0  0  0  0  0  0  0
   42.2200   22.8890   35.9140 H   0  0  0  0  0  0  0  0  0  0  0  0
   38.7180   22.1430   38.2390 H   0  0  0  0  0  0  0  0  0  0  0  0
   36.3470   28.6260   33.6950 O   0  0  0  0  0  0  0  0  0  0  0  0
   33.6470   32.3580   34.9300 H   0  0  0  0  0  0  0  0  0  0  0  0
   33.8280   31.8510   34.0260 N   0  0  0  0  0  0  0  0  0  0  0  0
   35.2590   31.6840   33.9330 C   0  0  0  0  0  2  0  0  0  0  0  0
   35.6390   30.5690   34.9120 C   0  0  0  0  0  2  0  0  0  0  0  0
   35.2660   29.2170   34.3360 C   0  0  0  0  0  3  0  0  0  0  0  0
   34.0640   29.4620   33.4520 C   0  0  0  0  0  2  0  0  0  0  0  0
   33.2280   30.5450   34.1370 C   0  0  0  0  0  2  0  0  0  0  0  0
  1  7  1  0  0  0  0
  2  9  1  0  0  0  0
  2  1  2  0  0  0  0
  3  2  1  0  0  0  0
  4  3  2  0  0  0  0
  4  5  1  0  0  0  0
  5  6  2  0  0  0  0
  6  1  1  0  0  0  0
  8  3  1  0  0  0  0
  9 15  1  0  0  0  0
 10  9  1  0  0  0  0
 10 11  2  0  0  0  0
 11 12  1  0  0  0  0
 12 14  1  0  0  0  0
 12 13  2  0  0  0  0
 14 19  1  0  0  0  0
 15 16  2  0  0  0  0
 15 14  1  0  0  0  0
 17 10  1  0  0  0  0
 18 11  1  0  0  0  0
 20  5  1  0  0  0  0
 20 25  1  0  0  0  0
 22 27  1  0  0  0  0
 22 21  1  0  0  0  0
 23 22  1  0  0  0  0
 23 24  1  0  0  0  0
 25 24  1  0  0  0  0
 26 27  1  0  0  0  0
 26 25  1  0  0  0  0
M  END
>  <minimizedAffinity>
-5.38487768

$$$$

 OpenBabel03272500053D

 27 29  0  0  0  0  0  0  0  0999 V2000
   36.6460   28.1990   34.4490 C   0  0  0  0  0  0  0  0  0  0  0  0
   36.1530   27.9720   33.1440 C   0  0  0  0  0  0  0  0  0  0  0  0
   36.4860   26.7660   32.5410 C   0  0  0  0  0  0  0  0  0  0  0  0
   37.2540   25.8760   33.2160 N   0  0  0  0  0  0  0  0  0  0  0  0
   37.7030   26.1180   34.4470 C   0  0  0  0  0  0  0  0  0  0  0  0
   37.4050   27.2810   35.0770 N   0  0  0  0  0  0  0  0  0  0  0  0
   36.3890   29.1340   34.9200 H   0  0  0  0  0  0  0  0  0  0  0  0
   36.1120   26.5950   31.5510 H   0  0  0  0  0  0  0  0  0  0  0  0
   35.3570   28.9890   32.5470 N   0  0  0  0  0  0  0  0  0  0  0  0
   34.1210   29.2680   32.9710 C   0  0  0  0  0  0  0  0  0  0  0  0
   33.3930   30.2780   32.3420 C   0  0  0  0  0  0  0  0  0  0  0  0
   34.0390   30.9080   31.3200 C   0  0  0  0  0  0  0  0  0  0  0  0
   33.3760   31.8280   30.7460 O   0  0  0  0  0  0  0  0  0  0  0  0
   35.2710   30.6540   30.8740 N   0  0  0  0  0  0  0  0  0  0  0  0
   35.9270   29.6610   31.5240 C   0  0  0  0  0  0  0  0  0  0  0  0
   37.1040   29.4110   31.1050 O   0  0  0  0  0  0  0  0  0  0  0  0
   33.6950   28.6990   33.8050 H   0  0  0  0  0  0  0  0  0  0  0  0
   32.3880   30.5240   32.6670 H   0  0  0  0  0  0  0  0  0  0  0  0
   35.7230   31.1680   30.0810 H   0  0  0  0  0  0  0  0  0  0  0  0
   38.4950   25.1980   35.1430 O   0  0  0  0  0  0  0  0  0  0  0  0
   38.9620   21.6510   38.2960 H   0  0  0  0  0  0  0  0  0  0  0  0
   39.2160   22.6710   38.2980 N   0  0  0  0  0  0  0  0  0  0  0  0
   39.8640   22.9310   37.0350 C   0  0  0  0  0  2  0  0  0  0  0  0
   38.7630   22.9620   35.9700 C   0  0  0  0  0  2  0  0  0  0  0  0
   37.9970   24.2680   36.0460 C   0  0  0  0  0  3  0  0  0  0  0  0
   38.0570   24.6980   37.4950 C   0  0  0  0  0  2  0  0  0  0  0  0
   37.9860   23.4220   38.3360 C   0  0  0  0  0  2  0  0  0  0  0  0
  1  7  1  0  0  0  0
  1  6  1  0  0  0  0
  2  1  2  0  0  0  0
  3  2  1  0  0  0  0
  3  4  2  0  0  0  0
  4  5  1  0  0  0  0
  5  6  2  0  0  0  0
  5 20  1  0  0  0  0
  8  3  1  0  0  0  0
  9 10  1  0  0  0  0
  9  2  1  0  0  0  0
 10 17  1  0  0  0  0
 11 18  1  0  0  0  0
 11 10  2  0  0  0  0
 12 11  1  0  0  0  0
 13 12  2  0  0  0  0
 14 12  1  0  0  0  0
 14 15  1  0  0  0  0
 15  9  1  0  0  0  0
 16 15  2  0  0  0  0
 19 14  1  0  0  0  0
 20 25  1  0  0  0  0
 21 22  1  0  0  0  0
 22 27  1  0  0  0  0
 23 22  1  0  0  0  0
 24 25  1  0  0  0  0
 24 23  1  0  0  0  0
 25 26  1  0  0  0  0
 26 27  1  0  0  0  0
M  END
>  <minimizedAffinity>
-5.38466549

$$$$

 OpenBabel03272500053D

 27 29  0  0  0  0  0  0  0  0999 V2000
   38.5740   26.6150   32.7920 C   0  0  0  0  0  0  0  0  0  0  0  0
   37.9000   26.2970   31.5920 C   0  0  0  0  0  0  0  0  0  0  0  0
   37.2530   25.0690   31.5320 C   0  0  0  0  0  0  0  0  0  0  0  0
   37.2960   24.2450   32.6070 N   0  0  0  0  0  0  0  0  0  0  0  0
   37.9390   24.5720   33.7270 C   0  0  0  0  0  0  0  0  0  0  0  0
   38.5860   25.7600   33.8330 N   0  0  0  0  0  0  0  0  0  0  0  0
   39.0770   27.5670   32.8410 H   0  0  0  0  0  0  0  0  0  0  0  0
   36.7430   24.8300   30.6210 H   0  0  0  0  0  0  0  0  0  0  0  0
   37.9320   27.2530   30.5370 N   0  0  0  0  0  0  0  0  0  0  0  0
   38.9480   27.3250   29.6710 C   0  0  0  0  0  0  0  0  0  0  0  0
   38.9190   28.2850   28.6600 C   0  0  0  0  0  0  0  0  0  0  0  0
   37.8150   29.0840   28.6520 C   0  0  0  0  0  0  0  0  0  0  0  0
   37.7870   29.9610   27.7310 O   0  0  0  0  0  0  0  0  0  0  0  0
   36.7850   29.0380   29.5000 N   0  0  0  0  0  0  0  0  0  0  0  0
   36.8720   28.0840   30.4610 C   0  0  0  0  0  0  0  0  0  0  0  0
   35.8930   28.0310   31.2760 O   0  0  0  0  0  0  0  0  0  0  0  0
   39.7910   26.6300   29.7690 H   0  0  0  0  0  0  0  0  0  0  0  0
   39.7300   28.3650   27.9460 H   0  0  0  0  0  0  0  0  0  0  0  0
   35.9570   29.6780   29.4520 H   0  0  0  0  0  0  0  0  0  0  0  0
   37.9820   23.7200   34.8350 O   0  0  0  0  0  0  0  0  0  0  0  0
   39.2220   23.5440   39.4370 H   0  0  0  0  0  0  0  0  0  0  0  0
   38.9690   22.8190   38.7180 N   0  0  0  0  0  0  0  0  0  0  0  0
   37.7800   23.3010   38.0560 C   0  0  0  0  0  2  0  0  0  0  0  0
   38.2210   24.4270   37.1160 C   0  0  0  0  0  2  0  0  0  0  0  0
   38.8860   23.8480   35.8820 C   0  0  0  0  0  3  0  0  0  0  0  0
   39.5250   22.5520   36.3270 C   0  0  0  0  0  2  0  0  0  0  0  0
   40.0370   22.7800   37.7510 C   0  0  0  0  0  2  0  0  0  0  0  0
  1  7  1  0  0  0  0
  1  6  1  0  0  0  0
  2  1  2  0  0  0  0
  3  2  1  0  0  0  0
  3  4  2  0  0  0  0
  4  5  1  0  0  0  0
  5  6  2  0  0  0  0
  5 20  1  0  0  0  0
  8  3  1  0  0  0  0
  9  2  1  0  0  0  0
 10 17  1  0  0  0  0
 10  9  1  0  0  0  0
 11 10  2  0  0  0  0
 12 11  1  0  0  0  0
 12 14  1  0  0  0  0
 13 12  2  0  0  0  0
 14 15  1  0  0  0  0
 15  9  1  0  0  0  0
 15 16  2  0  0  0  0
 18 11  1  0  0  0  0
 19 14  1  0  0  0  0
 20 25  1  0  0  0  0
 22 21  1  0  0  0  0
 23 22  1  0  0  0  0
 24 23  1  0  0  0  0
 25 26  1  0  0  0  0
 25 24  1  0  0  0  0
 26 27  1  0  0  0  0
 27 22  1  0  0  0  0
M  END
>  <minimizedAffinity>
-5.3712244

$$$$

 OpenBabel03272500053D

 27 29  0  0  0  0  0  0  0  0999 V2000
   39.2640   25.5710   35.7310 C   0  0  0  0  0  0  0  0  0  0  0  0
   39.1740   24.2180   35.3330 C   0  0  0  0  0  0  0  0  0  0  0  0
   38.2210   23.9000   34.3750 C   0  0  0  0  0  0  0  0  0  0  0  0
   37.4330   24.8820   33.8720 N   0  0  0  0  0  0  0  0  0  0  0  0
   37.5410   26.1500   34.2660 C   0  0  0  0  0  0  0  0  0  0  0  0
   38.4580   26.5090   35.2000 N   0  0  0  0  0  0  0  0  0  0  0  0
   40.0040   25.8210   36.4750 H   0  0  0  0  0  0  0  0  0  0  0  0
   38.1540   22.8740   34.0740 H   0  0  0  0  0  0  0  0  0  0  0  0
   40.0620   23.2860   35.9400 N   0  0  0  0  0  0  0  0  0  0  0  0
   41.2270   22.9410   35.3810 C   0  0  0  0  0  0  0  0  0  0  0  0
   42.0510   22.0220   36.0280 C   0  0  0  0  0  0  0  0  0  0  0  0
   41.5730   21.5480   37.2120 C   0  0  0  0  0  0  0  0  0  0  0  0
   42.3240   20.7090   37.8030 O   0  0  0  0  0  0  0  0  0  0  0  0
   40.4170   21.8710   37.7970 N   0  0  0  0  0  0  0  0  0  0  0  0
   39.6590   22.7680   37.1200 C   0  0  0  0  0  0  0  0  0  0  0  0
   38.5540   23.0840   37.6700 O   0  0  0  0  0  0  0  0  0  0  0  0
   41.5160   23.3850   34.4210 H   0  0  0  0  0  0  0  0  0  0  0  0
   43.0000   21.7260   35.5950 H   0  0  0  0  0  0  0  0  0  0  0  0
   40.0940   21.4760   38.7120 H   0  0  0  0  0  0  0  0  0  0  0  0
   36.7280   27.1620   33.7460 O   0  0  0  0  0  0  0  0  0  0  0  0
   37.5320   28.2240   29.1660 H   0  0  0  0  0  0  0  0  0  0  0  0
   36.6680   28.0330   29.7340 N   0  0  0  0  0  0  0  0  0  0  0  0
   36.9460   26.8510   30.5140 C   0  0  0  0  0  2  0  0  0  0  0  0
   37.8840   27.2770   31.6460 C   0  0  0  0  0  2  0  0  0  0  0  0
   37.1080   28.0170   32.7190 C   0  0  0  0  0  3  0  0  0  0  0  0
   35.9620   28.6960   32.0050 C   0  0  0  0  0  2  0  0  0  0  0  0
   36.4940   29.1400   30.6410 C   0  0  0  0  0  2  0  0  0  0  0  0
  1  7  1  0  0  0  0
  2  1  1  0  0  0  0
  2  9  1  0  0  0  0
  3  2  2  0  0  0  0
  4  5  2  0  0  0  0
  4  3  1  0  0  0  0
  5  6  1  0  0  0  0
  6  1  2  0  0  0  0
  8  3  1  0  0  0  0
  9 15  1  0  0  0  0
 10  9  1  0  0  0  0
 10 11  2  0  0  0  0
 11 12  1  0  0  0  0
 12 14  1  0  0  0  0
 12 13  2  0  0  0  0
 14 19  1  0  0  0  0
 15 16  2  0  0  0  0
 15 14  1  0  0  0  0
 17 10  1  0  0  0  0
 18 11  1  0  0  0  0
 20  5  1  0  0  0  0
 21 22  1  0  0  0  0
 22 23  1  0  0  0  0
 22 27  1  0  0  0  0
 23 24  1  0  0  0  0
 24 25  1  0  0  0  0
 25 20  1  0  0  0  0
 26 25  1  0  0  0  0
 27 26  1  0  0  0  0
M  END
>  <minimizedAffinity>
-5.31772852

$$$$

 OpenBabel03272500053D

 27 29  0  0  0  0  0  0  0  0999 V2000
   36.9510   25.9380   32.7110 C   0  0  0  0  0  0  0  0  0  0  0  0
   37.6290   27.1760   32.7840 C   0  0  0  0  0  0  0  0  0  0  0  0
   38.8160   27.2080   33.5030 C   0  0  0  0  0  0  0  0  0  0  0  0
   39.2660   26.0720   34.0920 N   0  0  0  0  0  0  0  0  0  0  0  0
   38.6050   24.9190   34.0040 C   0  0  0  0  0  0  0  0  0  0  0  0
   37.4400   24.8380   33.3140 N   0  0  0  0  0  0  0  0  0  0  0  0
   36.0280   25.9100   32.1530 H   0  0  0  0  0  0  0  0  0  0  0  0
   39.3290   28.1470   33.5570 H   0  0  0  0  0  0  0  0  0  0  0  0
   37.0480   28.2930   32.1200 N   0  0  0  0  0  0  0  0  0  0  0  0
   37.3640   28.6190   30.8630 C   0  0  0  0  0  0  0  0  0  0  0  0
   36.7580   29.7260   30.2700 C   0  0  0  0  0  0  0  0  0  0  0  0
   35.8680   30.3910   31.0580 C   0  0  0  0  0  0  0  0  0  0  0  0
   35.3150   31.4010   30.5190 O   0  0  0  0  0  0  0  0  0  0  0  0
   35.5300   30.0920   32.3140 N   0  0  0  0  0  0  0  0  0  0  0  0
   36.1520   29.0060   32.8360 C   0  0  0  0  0  0  0  0  0  0  0  0
   35.8360   28.7110   34.0350 O   0  0  0  0  0  0  0  0  0  0  0  0
   38.0970   28.0130   30.3160 H   0  0  0  0  0  0  0  0  0  0  0  0
   36.9980   30.0120   29.2520 H   0  0  0  0  0  0  0  0  0  0  0  0
   34.8370   30.6370   32.8800 H   0  0  0  0  0  0  0  0  0  0  0  0
   39.0700   23.7480   34.6120 O   0  0  0  0  0  0  0  0  0  0  0  0
   39.1370   21.8700   38.9950 H   0  0  0  0  0  0  0  0  0  0  0  0
   39.2580   22.8420   38.6120 N   0  0  0  0  0  0  0  0  0  0  0  0
   40.1710   22.7300   37.5000 C   0  0  0  0  0  2  0  0  0  0  0  0
   39.3840   22.1130   36.3400 C   0  0  0  0  0  2  0  0  0  0  0  0
   38.4730   23.1520   35.7150 C   0  0  0  0  0  3  0  0  0  0  0  0
   38.1090   24.1060   36.8300 C   0  0  0  0  0  2  0  0  0  0  0  0
   37.9780   23.2670   38.1020 C   0  0  0  0  0  2  0  0  0  0  0  0
  1  2  2  0  0  0  0
  1  6  1  0  0  0  0
  2  3  1  0  0  0  0
  3  8  1  0  0  0  0
  3  4  2  0  0  0  0
  5  4  1  0  0  0  0
  5 20  1  0  0  0  0
  6  5  2  0  0  0  0
  7  1  1  0  0  0  0
  9  2  1  0  0  0  0
  9 15  1  0  0  0  0
 10  9  1  0  0  0  0
 11 10  2  0  0  0  0
 11 12  1  0  0  0  0
 12 14  1  0  0  0  0
 13 12  2  0  0  0  0
 14 15  1  0  0  0  0
 14 19  1  0  0  0  0
 15 16  2  0  0  0  0
 17 10  1  0  0  0  0
 18 11  1  0  0  0  0
 20 25  1  0  0  0  0
 22 21  1  0  0  0  0
 23 22  1  0  0  0  0
 24 23  1  0  0  0  0
 25 24  1  0  0  0  0
 25 26  1  0  0  0  0
 26 27  1  0  0  0  0
 27 22  1  0  0  0  0
M  END
>  <minimizedAffinity>
-5.11178637

$$$$

 OpenBabel03272500053D

 27 29  0  0  0  0  0  0  0  0999 V2000
   37.7570   25.2630   34.3710 C   0  0  0  0  0  0  0  0  0  0  0  0
   38.5190   25.5280   35.5310 C   0  0  0  0  0  0  0  0  0  0  0  0
   38.5250   26.8340   36.0020 C   0  0  0  0  0  0  0  0  0  0  0  0
   37.8130   27.7810   35.3410 N   0  0  0  0  0  0  0  0  0  0  0  0
   37.1040   27.5000   34.2490 C   0  0  0  0  0  0  0  0  0  0  0  0
   37.0670   26.2390   33.7510 N   0  0  0  0  0  0  0  0  0  0  0  0
   37.7510   24.2490   34.0030 H   0  0  0  0  0  0  0  0  0  0  0  0
   39.1020   27.0340   36.8820 H   0  0  0  0  0  0  0  0  0  0  0  0
   39.2200   24.4430   36.1290 N   0  0  0  0  0  0  0  0  0  0  0  0
   38.7400   23.7790   37.1860 C   0  0  0  0  0  0  0  0  0  0  0  0
   39.4770   22.7250   37.7240 C   0  0  0  0  0  0  0  0  0  0  0  0
   40.6580   22.4630   37.0960 C   0  0  0  0  0  0  0  0  0  0  0  0
   41.3310   21.5020   37.5860 O   0  0  0  0  0  0  0  0  0  0  0  0
   41.1640   23.1050   36.0410 N   0  0  0  0  0  0  0  0  0  0  0  0
   40.4020   24.1200   35.5630 C   0  0  0  0  0  0  0  0  0  0  0  0
   40.8760   24.7390   34.5550 O   0  0  0  0  0  0  0  0  0  0  0  0
   37.7760   24.0740   37.6160 H   0  0  0  0  0  0  0  0  0  0  0  0
   39.1110   22.1720   38.5810 H   0  0  0  0  0  0  0  0  0  0  0  0
   42.0790   22.8640   35.5930 H   0  0  0  0  0  0  0  0  0  0  0  0
   36.3700   28.4770   33.5680 O   0  0  0  0  0  0  0  0  0  0  0  0
   35.4820   30.5360   29.3590 H   0  0  0  0  0  0  0  0  0  0  0  0
   36.3230   30.4890   29.9890 N   0  0  0  0  0  0  0  0  0  0  0  0
   35.8490   30.7740   31.3220 C   0  0  0  0  0  2  0  0  0  0  0  0
   35.1150   29.5210   31.8090 C   0  0  0  0  0  2  0  0  0  0  0  0
   36.1130   28.4490   32.2030 C   0  0  0  0  0  3  0  0  0  0  0  0
   37.3260   28.6730   31.3270 C   0  0  0  0  0  2  0  0  0  0  0  0
   36.8050   29.1300   29.9640 C   0  0  0  0  0  2  0  0  0  0  0  0
  1  2  1  0  0  0  0
  2  3  2  0  0  0  0
  2  9  1  0  0  0  0
  3  8  1  0  0  0  0
  4  3  1  0  0  0  0
  5  4  2  0  0  0  0
  6  5  1  0  0  0  0
  6  1  2  0  0  0  0
  7  1  1  0  0  0  0
  9 10  1  0  0  0  0
 10 17  1  0  0  0  0
 10 11  2  0  0  0  0
 11 18  1  0  0  0  0
 12 13  2  0  0  0  0
 12 11  1  0  0  0  0
 14 12  1  0  0  0  0
 15 14  1  0  0  0  0
 15  9  1  0  0  0  0
 16 15  2  0  0  0  0
 19 14  1  0  0  0  0
 20  5  1  0  0  0  0
 21 22  1  0  0  0  0
 22 23  1  0  0  0  0
 23 24  1  0  0  0  0
 24 25  1  0  0  0  0
 25 20  1  0  0  0  0
 26 25  1  0  0  0  0
 27 22  1  0  0  0  0
 27 26  1  0  0  0  0
M  END
>  <minimizedAffinity>
-5.08500147

$$$$

 OpenBabel03272500053D

 27 29  0  0  0  0  0  0  0  0999 V2000
   35.2690   25.7030   31.0140 C   0  0  0  0  0  0  0  0  0  0  0  0
   36.0710   26.6310   31.7160 C   0  0  0  0  0  0  0  0  0  0  0  0
   37.0800   26.1180   32.5200 C   0  0  0  0  0  0  0  0  0  0  0  0
   37.2500   24.7750   32.5950 N   0  0  0  0  0  0  0  0  0  0  0  0
   36.4790   23.9240   31.9210 C   0  0  0  0  0  0  0  0  0  0  0  0
   35.4800   24.3770   31.1230 N   0  0  0  0  0  0  0  0  0  0  0  0
   34.4850   26.0980   30.3890 H   0  0  0  0  0  0  0  0  0  0  0  0
   37.6870   26.8240   33.0510 H   0  0  0  0  0  0  0  0  0  0  0  0
   35.7860   28.0160   31.5490 N   0  0  0  0  0  0  0  0  0  0  0  0
   34.9420   28.6720   32.3510 C   0  0  0  0  0  0  0  0  0  0  0  0
   34.7070   30.0290   32.1330 C   0  0  0  0  0  0  0  0  0  0  0  0
   35.3870   30.5750   31.0860 C   0  0  0  0  0  0  0  0  0  0  0  0
   35.1740   31.8120   30.8860 O   0  0  0  0  0  0  0  0  0  0  0  0
   36.2360   29.9480   30.2690 N   0  0  0  0  0  0  0  0  0  0  0  0
   36.4230   28.6310   30.5300 C   0  0  0  0  0  0  0  0  0  0  0  0
   37.2320   28.0240   29.7550 O   0  0  0  0  0  0  0  0  0  0  0  0
   34.4450   28.1350   33.1670 H   0  0  0  0  0  0  0  0  0  0  0  0
   34.0260   30.5840   32.7690 H   0  0  0  0  0  0  0  0  0  0  0  0
   36.7360   30.4150   29.4750 H   0  0  0  0  0  0  0  0  0  0  0  0
   36.6560   22.5390   31.9990 O   0  0  0  0  0  0  0  0  0  0  0  0
   35.2350   18.1820   30.6780 H   0  0  0  0  0  0  0  0  0  0  0  0
   35.6070   18.5920   31.5720 N   0  0  0  0  0  0  0  0  0  0  0  0
   36.7580   19.3840   31.2080 C   0  0  0  0  0  2  0  0  0  0  0  0
   36.2270   20.6660   30.5610 C   0  0  0  0  0  2  0  0  0  0  0  0
   35.6960   21.6080   31.6240 C   0  0  0  0  0  3  0  0  0  0  0  0
   35.2000   20.7250   32.7470 C   0  0  0  0  0  2  0  0  0  0  0  0
   34.5980   19.4790   32.0930 C   0  0  0  0  0  2  0  0  0  0  0  0
  1  6  2  0  0  0  0
  1  2  1  0  0  0  0
  2  3  2  0  0  0  0
  3  4  1  0  0  0  0
  3  8  1  0  0  0  0
  5 20  1  0  0  0  0
  5  4  2  0  0  0  0
  6  5  1  0  0  0  0
  7  1  1  0  0  0  0
  9  2  1  0  0  0  0
  9 10  1  0  0  0  0
 10 17  1  0  0  0  0
 11 10  2  0  0  0  0
 11 18  1  0  0  0  0
 12 11  1  0  0  0  0
 13 12  2  0  0  0  0
 14 15  1  0  0  0  0
 14 12  1  0  0  0  0
 15  9  1  0  0  0  0
 16 15  2  0  0  0  0
 19 14  1  0  0  0  0
 21 22  1  0  0  0  0
 22 27  1  0  0  0  0
 23 22  1  0  0  0  0
 24 23  1  0  0  0  0
 24 25  1  0  0  0  0
 25 20  1  0  0  0  0
 25 26  1  0  0  0  0
 27 26  1  0  0  0  0
M  END
>  <minimizedAffinity>
-5.06578588

$$$$

 OpenBabel03272500053D

 27 29  0  0  0  0  0  0  0  0999 V2000
   35.9650   28.4630   31.8680 C   0  0  0  0  0  0  0  0  0  0  0  0
   37.0110   27.6550   32.3690 C   0  0  0  0  0  0  0  0  0  0  0  0
   37.1410   27.5700   33.7490 C   0  0  0  0  0  0  0  0  0  0  0  0
   36.2770   28.2510   34.5400 N   0  0  0  0  0  0  0  0  0  0  0  0
   35.3000   29.0050   34.0380 C   0  0  0  0  0  0  0  0  0  0  0  0
   35.1320   29.1200   32.6970 N   0  0  0  0  0  0  0  0  0  0  0  0
   35.8610   28.5310   30.7960 H   0  0  0  0  0  0  0  0  0  0  0  0
   37.9340   26.9570   34.1270 H   0  0  0  0  0  0  0  0  0  0  0  0
   37.8490   26.9920   31.4280 N   0  0  0  0  0  0  0  0  0  0  0  0
   38.9900   27.5300   30.9860 C   0  0  0  0  0  0  0  0  0  0  0  0
   39.7650   26.8280   30.0640 C   0  0  0  0  0  0  0  0  0  0  0  0
   39.2670   25.6150   29.6920 C   0  0  0  0  0  0  0  0  0  0  0  0
   39.9730   24.9740   28.8510 O   0  0  0  0  0  0  0  0  0  0  0  0
   38.1340   25.0510   30.1150 N   0  0  0  0  0  0  0  0  0  0  0  0
   37.4240   25.7820   31.0090 C   0  0  0  0  0  0  0  0  0  0  0  0
   36.3400   25.2510   31.4190 O   0  0  0  0  0  0  0  0  0  0  0  0
   39.2990   28.5160   31.3520 H   0  0  0  0  0  0  0  0  0  0  0  0
   40.6940   27.2430   29.6900 H   0  0  0  0  0  0  0  0  0  0  0  0
   37.7940   24.1130   29.7960 H   0  0  0  0  0  0  0  0  0  0  0  0
   34.4080   29.7070   34.8560 O   0  0  0  0  0  0  0  0  0  0  0  0
   33.5470   33.6240   37.4380 H   0  0  0  0  0  0  0  0  0  0  0  0
   34.1550   32.7760   37.5720 N   0  0  0  0  0  0  0  0  0  0  0  0
   33.3350   31.6330   37.2500 C   0  0  0  0  0  2  0  0  0  0  0  0
   33.2070   31.5950   35.7250 C   0  0  0  0  0  2  0  0  0  0  0  0
   34.4880   31.0720   35.1050 C   0  0  0  0  0  3  0  0  0  0  0  0
   35.5990   31.4780   36.0470 C   0  0  0  0  0  2  0  0  0  0  0  0
   35.2210   32.8520   36.6050 C   0  0  0  0  0  2  0  0  0  0  0  0
  1  2  2  0  0  0  0
  1  6  1  0  0  0  0
  2  3  1  0  0  0  0
  3  8  1  0  0  0  0
  3  4  2  0  0  0  0
  5  4  1  0  0  0  0
  5 20  1  0  0  0  0
  6  5  2  0  0  0  0
  7  1  1  0  0  0  0
  9  2  1  0  0  0  0
 10 17  1  0  0  0  0
 10  9  1  0  0  0  0
 11 10  2  0  0  0  0
 12 11  1  0  0  0  0
 12 14  1  0  0  0  0
 13 12  2  0  0  0  0
 14 15  1  0  0  0  0
 15 16  2  0  0  0  0
 15  9  1  0  0  0  0
 18 11  1  0  0  0  0
 19 14  1  0  0  0  0
 20 25  1  0  0  0  0
 21 22  1  0  0  0  0
 23 22  1  0  0  0  0
 24 23  1  0  0  0  0
 25 24  1  0  0  0  0
 25 26  1  0  0  0  0
 26 27  1  0  0  0  0
 27 22  1  0  0  0  0
M  END
>  <minimizedAffinity>
-4.8385148

$$$$
