
 OpenBabel03272504173D

 24 25  0  0  0  0  0  0  0  0999 V2000
   34.6410   30.5140   48.7150 O   0  0  0  0  0  0  0  0  0  0  0  0
   35.8660   30.5940   49.3820 C   0  0  0  0  0  0  0  0  0  0  0  0
   36.2100   29.9450   50.5640 C   0  0  0  0  0  0  0  0  0  0  0  0
   37.4770   30.1410   51.0830 C   0  0  0  0  0  0  0  0  0  0  0  0
   38.3510   30.9660   50.4220 N   0  0  0  0  0  0  0  0  0  0  0  0
   37.9690   31.5850   49.2610 C   0  0  0  0  0  0  0  0  0  0  0  0
   36.7350   31.4010   48.7430 N   0  0  0  0  0  0  0  0  0  0  0  0
   37.6660   29.6180   51.9820 H   0  0  0  0  0  0  0  0  0  0  0  0
   38.7120   32.2230   48.7920 H   0  0  0  0  0  0  0  0  0  0  0  0
   35.1880   29.1380   51.1050 N   0  0  0  0  0  0  0  0  0  0  0  0
   35.6520   28.2060   51.0470 H   0  0  0  0  0  0  0  0  0  0  0  0
   34.2320   29.3360   51.4730 H   0  0  0  0  0  0  0  0  0  0  0  0
   35.1730   29.6230   46.2430 O   0  0  0  0  0  0  0  0  0  0  0  0
   34.3440   29.3500   47.4840 P   0  0  1  0  0  0  0  0  0  0  0  0
   34.7010   27.8430   48.1420 O   0  0  0  0  0  0  0  0  0  0  0  0
   34.3900   27.7920   49.0580 H   0  0  0  0  0  0  0  0  0  0  0  0
   32.7400   29.4610   46.9750 O   0  0  0  0  0  0  0  0  0  0  0  0
   29.6930   29.3370   48.9810 H   0  0  0  0  0  0  0  0  0  0  0  0
   29.5630   28.3500   48.7260 N   0  0  0  0  0  0  0  0  0  0  0  0
   29.4680   28.1200   47.3060 C   0  0  0  0  0  0  0  0  0  0  0  0
   30.7260   28.3280   46.5440 C   0  0  0  0  0  0  0  0  0  0  0  0
   32.0030   28.3070   47.3040 C   0  0  0  0  0  0  0  0  0  0  0  0
   31.9130   28.2360   48.7850 C   0  0  0  0  0  0  0  0  0  0  0  0
   30.6450   27.5630   49.2730 C   0  0  0  0  0  0  0  0  0  0  0  0
  1  2  1  0  0  0  0
  2  3  1  0  0  0  0
  3  4  2  0  0  0  0
  3 10  1  0  0  0  0
  4  8  1  0  0  0  0
  5  4  1  0  0  0  0
  6  5  2  0  0  0  0
  7  6  1  0  0  0  0
  7  2  2  0  0  0  0
  9  6  1  0  0  0  0
 10 12  1  0  0  0  0
 11 10  1  0  0  0  0
 14 13  2  6  0  0  0
 14 15  1  0  0  0  0
 14  1  1  0  0  0  0
 15 16  1  0  0  0  0
 17 22  1  0  0  0  0
 17 14  1  0  0  0  0
 19 18  1  0  0  0  0
 19 24  1  0  0  0  0
 20 19  1  0  0  0  0
 21 22  1  0  0  0  0
 21 20  1  0  0  0  0
 22 23  1  0  0  0  0
 23 24  1  0  0  0  0
M  END
>  <minimizedAffinity>
-4.18162012

>  <minimizedRMSD>
1.23539317

$$$$
