
     RDKit          3D

 53 56  0  0  0  0  0  0  0  0999 V2000
   38.7403   32.8726   48.3478 C   0  0  0  0  0  0  0  0  0  0  0  0
   39.0435   32.2027   47.1503 C   0  0  0  0  0  0  0  0  0  0  0  0
   38.5385   30.9477   47.0046 C   0  0  0  0  0  0  0  0  0  0  0  0
   37.7849   30.4178   47.9999 N   0  0  0  0  0  0  0  0  0  0  0  0
   37.5195   31.0637   49.1018 C   0  0  0  0  0  0  0  0  0  0  0  0
   37.9913   32.3360   49.3280 N   0  0  0  0  0  0  0  0  0  0  0  0
   39.8078   32.8509   46.2408 O   0  0  0  0  0  0  0  0  0  0  0  0
   39.9611   32.2990   44.9737 C   0  0  0  0  0  0  0  0  0  0  0  0
   40.6590   31.1698   44.6119 C   0  0  0  0  0  0  0  0  0  0  0  0
   40.6942   30.7866   43.3185 C   0  0  0  0  0  0  0  0  0  0  0  0
   40.0329   31.5333   42.3969 C   0  0  0  0  0  0  0  0  0  0  0  0
   39.3226   32.6814   42.7603 C   0  0  0  0  0  0  0  0  0  0  0  0
   39.3017   33.0472   44.0698 N   0  0  0  0  0  0  0  0  0  0  0  0
   38.5976   33.4903   41.7116 C   0  0  0  0  0  0  0  0  0  0  0  0
   36.4896   30.1074   50.2526 S   0  0  0  0  0  0  0  0  0  0  0  0
   34.7895   30.5472   49.8008 C   0  0  0  0  0  0  0  0  0  0  0  0
   34.4612   27.8233   49.9352 F   0  0  0  0  0  0  0  0  0  0  0  0
   34.3292   28.4335   48.7179 C   0  0  0  0  0  0  0  0  0  0  0  0
   34.4731   29.8109   48.5271 C   0  0  0  0  0  0  0  0  0  0  0  0
   34.3321   30.3802   47.3016 C   0  0  0  0  0  0  0  0  0  0  0  0
   34.0347   29.5800   46.1900 C   0  0  0  0  0  0  0  0  0  0  0  0
   33.8905   28.2228   46.3640 C   0  0  0  0  0  0  0  0  0  0  0  0
   34.0353   27.6587   47.6077 C   0  0  0  0  0  0  0  0  0  0  0  0
   33.8801   26.2969   47.7224 O   0  0  0  0  0  0  0  0  0  0  0  0
   39.0876   33.8712   48.5701 H   0  0  0  0  0  0  0  0  0  0  0  0
   38.7598   30.4119   46.0885 H   0  0  0  0  0  0  0  0  0  0  0  0
   41.1428   30.6616   45.4351 H   0  0  0  0  0  0  0  0  0  0  0  0
   41.2641   29.8877   43.1143 H   0  0  0  0  0  0  0  0  0  0  0  0
   40.0612   31.2235   41.3498 H   0  0  0  0  0  0  0  0  0  0  0  0
   38.4578   34.4920   42.1587 H   0  0  0  0  0  0  0  0  0  0  0  0
   39.2934   33.5567   40.8451 H   0  0  0  0  0  0  0  0  0  0  0  0
   37.6532   32.9901   41.4263 H   0  0  0  0  0  0  0  0  0  0  0  0
   34.0732   30.2443   50.6056 H   0  0  0  0  0  0  0  0  0  0  0  0
   34.6900   31.6393   49.6454 H   0  0  0  0  0  0  0  0  0  0  0  0
   34.4742   31.4542   47.3239 H   0  0  0  0  0  0  0  0  0  0  0  0
   33.9400   30.1000   45.2660 H   0  0  0  0  0  0  0  0  0  0  0  0
   33.6642   27.7228   45.4372 H   0  0  0  0  0  0  0  0  0  0  0  0
   30.7473   26.9677   45.3198 H   0  0  0  0  0  0  0  0  0  0  0  0
   31.0238   25.9624   45.3962 N   0  0  0  0  0  0  0  0  0  0  0  0
   31.1740   25.7017   46.8249 C   0  0  0  0  0  0  0  0  0  0  0  0
   32.2596   24.6698   46.9466 C   0  0  0  0  0  0  0  0  0  0  0  0
   33.5893   25.3671   46.7462 C   0  0  0  0  0  0  0  0  0  0  0  0
   33.4472   26.1215   45.4172 C   0  0  0  0  0  0  0  0  0  0  0  0
   32.2148   25.6860   44.6539 C   0  0  0  0  0  0  0  0  0  0  0  0
   30.1975   25.3428   47.2143 H   0  0  0  0  0  0  0  0  0  0  0  0
   31.4586   26.6181   47.3828 H   0  0  0  0  0  0  0  0  0  0  0  0
   32.2333   24.0854   47.8871 H   0  0  0  0  0  0  0  0  0  0  0  0
   32.1500   23.9382   46.1193 H   0  0  0  0  0  0  0  0  0  0  0  0
   34.3267   24.5636   46.5823 H   0  0  0  0  0  0  0  0  0  0  0  0
   33.3141   27.2024   45.6169 H   0  0  0  0  0  0  0  0  0  0  0  0
   34.3556   25.9912   44.8288 H   0  0  0  0  0  0  0  0  0  0  0  0
   32.1864   26.3768   43.7620 H   0  0  0  0  0  0  0  0  0  0  0  0
   32.2854   24.6799   44.2255 H   0  0  0  0  0  0  0  0  0  0  0  0
  1  6  2  0
  2  1  1  0
  3  2  2  0
  3  4  1  0
  4  5  2  0
  5  6  1  0
  5 15  1  0
  7  2  1  0
  8  7  1  0
  9  8  2  0
 10  9  1  0
 11 12  1  0
 11 10  2  0
 12 13  2  0
 13  8  1  0
 14 12  1  0
 16 15  1  0
 18 17  1  0
 19 18  2  0
 19 16  1  0
 20 19  1  0
 21 22  1  0
 21 20  2  0
 22 23  2  0
 23 24  1  0
 23 18  1  0
  1 25  1  0
  3 26  1  0
  9 27  1  0
 10 28  1  0
 11 29  1  0
 14 30  1  0
 14 31  1  0
 14 32  1  0
 16 33  1  0
 16 34  1  0
 20 35  1  0
 21 36  1  0
 22 37  1  0
 38 39  1  0
 39 40  1  0
 40 41  1  0
 41 42  1  0
 42 43  1  0
 43 44  1  0
 44 39  1  0
 40 45  1  0
 40 46  1  0
 41 47  1  0
 41 48  1  0
 42 49  1  0
 43 50  1  0
 43 51  1  0
 44 52  1  0
 44 53  1  0
 24 42  1  0
M  ISO  8  25  14  26  14  27  14  28  14  29  14  30   8  31   8  32   8
M  ISO  6  33   8  34   8  35  14  36  14  37  14  38   5
M  END
>  <DihAtoms>  (1) 
22,23,41,40

>  <DihDeg>  (1) 
123.92684346143372

$$$$
