
     RDKit          3D

 35 37  0  0  0  0  0  0  0  0999 V2000
   37.9129   30.8751   46.7234 C   0  0  0  0  0  0  0  0  0  0  0  0
   38.0500   31.0426   48.1324 C   0  0  0  0  0  0  0  0  0  0  0  0
   36.9267   30.8170   48.9361 C   0  0  0  0  0  0  0  0  0  0  0  0
   35.7696   30.4510   48.3239 N   0  0  0  0  0  0  0  0  0  0  0  0
   35.6756   30.3013   46.9822 C   0  0  0  0  0  0  0  0  0  0  0  0
   36.7509   30.5164   46.2043 N   0  0  0  0  0  0  0  0  0  0  0  0
   39.0953   31.1152   45.9075 C   0  0  0  0  0  0  0  0  0  0  0  0
   39.9166   32.2160   45.9118 C   0  0  0  0  0  0  0  0  0  0  0  0
   40.9414   32.0283   44.9626 C   0  0  0  0  0  0  0  0  0  0  0  0
   40.6832   30.7951   44.4187 N   0  0  0  0  0  0  0  0  0  0  0  0
   39.6110   30.2779   44.9756 N   0  0  0  0  0  0  0  0  0  0  0  0
   37.0520   30.9863   50.3980 C   0  0  0  0  0  0  0  0  0  0  0  0
   36.5572   32.2450   50.6801 F   0  0  0  0  0  0  0  0  0  0  0  0
   36.3074   30.0514   51.1081 F   0  0  0  0  0  0  0  0  0  0  0  0
   38.3743   30.9353   50.8245 F   0  0  0  0  0  0  0  0  0  0  0  0
   39.0250   31.3395   48.5254 H   0  0  0  0  0  0  0  0  0  0  0  0
   34.7080   30.0074   46.6020 H   0  0  0  0  0  0  0  0  0  0  0  0
   39.7986   33.1013   46.5492 H   0  0  0  0  0  0  0  0  0  0  0  0
   41.7360   32.7273   44.7429 H   0  0  0  0  0  0  0  0  0  0  0  0
   43.2463   28.9997   41.9059 H   0  0  0  0  0  0  0  0  0  0  0  0
   42.8114   29.5911   41.1778 N   0  0  0  0  0  0  0  0  0  0  0  0
   43.0048   30.9931   41.5469 C   0  0  0  0  0  0  0  0  0  0  0  0
   42.6546   31.1073   43.0314 C   0  0  0  0  0  0  0  0  0  0  0  0
   41.5089   30.2023   43.3839 C   0  0  0  0  0  0  0  0  0  0  0  0
   40.6159   29.9739   42.1781 C   0  0  0  0  0  0  0  0  0  0  0  0
   41.3891   29.3679   41.0386 C   0  0  0  0  0  0  0  0  0  0  0  0
   44.0479   31.3119   41.3857 H   0  0  0  0  0  0  0  0  0  0  0  0
   42.2455   31.5565   40.9868 H   0  0  0  0  0  0  0  0  0  0  0  0
   42.4762   32.1390   43.3330 H   0  0  0  0  0  0  0  0  0  0  0  0
   43.5596   30.6820   43.5551 H   0  0  0  0  0  0  0  0  0  0  0  0
   41.8718   29.1935   43.6950 H   0  0  0  0  0  0  0  0  0  0  0  0
   39.8048   29.3054   42.5117 H   0  0  0  0  0  0  0  0  0  0  0  0
   40.1714   30.9658   41.9427 H   0  0  0  0  0  0  0  0  0  0  0  0
   41.0763   29.8041   40.0614 H   0  0  0  0  0  0  0  0  0  0  0  0
   41.2203   28.2698   40.9503 H   0  0  0  0  0  0  0  0  0  0  0  0
  1  2  2  0
  2  3  1  0
  3 12  1  0
  4  3  2  0
  5  4  1  0
  6  1  1  0
  6  5  2  0
  7  1  1  0
  8  7  1  0
  9  8  2  0
 10  9  1  0
 10 11  1  0
 11  7  2  0
 12 13  1  0
 12 15  1  0
 12 14  1  0
  2 16  1  0
  5 17  1  0
  8 18  1  0
  9 19  1  0
 20 21  1  0
 21 22  1  0
 22 23  1  0
 23 24  1  0
 24 25  1  0
 25 26  1  0
 26 21  1  0
 22 27  1  0
 22 28  1  0
 23 29  1  0
 23 30  1  0
 24 31  1  0
 25 32  1  0
 25 33  1  0
 26 34  1  0
 26 35  1  0
 10 24  1  0
M  ISO  5  16  14  17  14  18  14  19  14  20   5
M  END
>  <DihAtoms>  (1) 
8,9,23,22

>  <DihDeg>  (1) 
-104.23089689452655

$$$$
