
 OpenBabel03272508023D

 26 28  0  0  0  0  0  0  0  0999 V2000
   36.9900   30.4380   45.1150 C   0  0  0  0  0  0  0  0  0  0  0  0
   35.8190   30.1110   44.4760 C   0  0  0  0  0  0  0  0  0  0  0  0
   34.8000   29.9530   45.4360 C   0  0  0  0  0  0  0  0  0  0  0  0
   35.4190   30.1980   46.6360 N   0  0  0  0  0  0  0  0  0  0  0  0
   36.6870   30.4770   46.4340 N   0  0  0  0  0  0  0  0  0  0  0  0
   35.6910   29.9910   43.3930 H   0  0  0  0  0  0  0  0  0  0  0  0
   33.7700   29.6960   45.2300 H   0  0  0  0  0  0  0  0  0  0  0  0
   38.2950   30.6930   44.5210 C   0  0  0  0  0  0  0  0  0  0  0  0
   38.8380   29.6760   43.6830 C   0  0  0  0  0  0  0  0  0  0  0  0
   40.0910   29.8990   43.1020 C   0  0  0  0  0  0  0  0  0  0  0  0
   40.7170   31.0750   43.3710 N   0  0  0  0  0  0  0  0  0  0  0  0
   40.1700   32.0200   44.1720 C   0  0  0  0  0  0  0  0  0  0  0  0
   38.9670   31.8120   44.7340 N   0  0  0  0  0  0  0  0  0  0  0  0
   38.2550   28.7650   43.5310 H   0  0  0  0  0  0  0  0  0  0  0  0
   40.7540   32.9180   44.3170 H   0  0  0  0  0  0  0  0  0  0  0  0
   40.6690   28.8550   42.2320 C   0  0  0  0  0  0  0  0  0  0  0  0
   40.1620   29.0880   40.9680 F   0  0  0  0  0  0  0  0  0  0  0  0
   42.0570   28.9220   42.1690 F   0  0  0  0  0  0  0  0  0  0  0  0
   40.2920   27.5740   42.6200 F   0  0  0  0  0  0  0  0  0  0  0  0
   33.4260   30.5060   50.1060 H   0  0  0  0  0  0  0  0  0  0  0  0
   33.8410   29.5850   50.3260 N   0  0  0  0  0  0  0  0  0  0  0  0
   35.2970   29.7160   50.3010 C   0  0  0  0  0  2  0  0  0  0  0  0
   35.6440   30.5060   49.0370 C   0  0  0  0  0  2  0  0  0  0  0  0
   34.7230   30.1410   47.9080 C   0  0  0  0  0  3  0  0  0  0  0  0
   34.2100   28.7220   48.0720 C   0  0  0  0  0  2  0  0  0  0  0  0
   33.4780   28.5570   49.3750 C   0  0  0  0  0  2  0  0  0  0  0  0
  1  5  2  0  0  0  0
  2  1  1  0  0  0  0
  2  3  2  0  0  0  0
  3  4  1  0  0  0  0
  4 24  1  0  0  0  0
  5  4  1  0  0  0  0
  6  2  1  0  0  0  0
  7  3  1  0  0  0  0
  8 13  1  0  0  0  0
  8  1  1  0  0  0  0
  9  8  2  0  0  0  0
 10 11  2  0  0  0  0
 10  9  1  0  0  0  0
 11 12  1  0  0  0  0
 12 15  1  0  0  0  0
 12 13  2  0  0  0  0
 14  9  1  0  0  0  0
 16 19  1  0  0  0  0
 16 10  1  0  0  0  0
 17 16  1  0  0  0  0
 18 16  1  0  0  0  0
 20 21  1  0  0  0  0
 22 21  1  0  0  0  0
 23 22  1  0  0  0  0
 24 25  1  0  0  0  0
 24 23  1  0  0  0  0
 25 26  1  0  0  0  0
 26 21  1  0  0  0  0
M  END
>  <minimizedAffinity>
-5.19430447

>  <minimizedRMSD>
7.9547472

$$$$
