
     RDKit          3D

 33 34  0  0  0  0  0  0  0  0999 V2000
   35.9506   30.7949   49.6257 C   0  0  0  0  0  0  0  0  0  0  0  0
   36.2268   29.8980   50.6536 C   0  0  0  0  0  0  0  0  0  0  0  0
   37.4966   29.8893   51.2019 C   0  0  0  0  0  0  0  0  0  0  0  0
   38.4414   30.7600   50.7194 N   0  0  0  0  0  0  0  0  0  0  0  0
   38.1242   31.6256   49.7059 C   0  0  0  0  0  0  0  0  0  0  0  0
   36.8882   31.6441   49.1619 N   0  0  0  0  0  0  0  0  0  0  0  0
   35.1391   29.0797   51.0222 N   0  0  0  0  0  0  0  0  0  0  0  0
   34.7339   30.9444   48.9570 O   0  0  0  0  0  0  0  0  0  0  0  0
   35.5207   30.0967   46.5385 O   0  0  0  0  0  0  0  0  0  0  0  0
   34.3663   30.0709   47.5207 P   0  0  1  0  0  0  0  0  0  0  0  0
   33.9932   28.4983   47.9897 O   0  0  0  0  0  0  0  0  0  0  0  0
   33.0859   30.8190   46.7156 O   0  0  0  0  0  0  0  0  0  0  0  0
   37.6329   29.1832   51.9766 H   0  0  0  0  0  0  0  0  0  0  0  0
   38.9201   32.2858   49.3738 H   0  0  0  0  0  0  0  0  0  0  0  0
   35.5332   28.1463   50.7788 H   0  0  0  0  0  0  0  0  0  0  0  0
   34.1947   29.2735   51.4230 H   0  0  0  0  0  0  0  0  0  0  0  0
   33.4638   28.5040   48.8011 H   0  0  0  0  0  0  0  0  0  0  0  0
   33.5990   27.2599   46.0852 H   0  0  0  0  0  0  0  0  0  0  0  0
   32.5821   27.1243   46.0182 N   0  0  0  0  0  0  0  0  0  0  0  0
   31.8589   27.5221   47.2001 C   0  0  0  0  0  0  0  0  0  0  0  0
   31.8175   28.9852   47.4559 C   0  0  0  0  0  0  0  0  0  0  0  0
   32.1046   29.8919   46.3149 C   0  0  0  0  0  0  0  0  0  0  0  0
   32.5640   29.2684   45.0478 C   0  0  0  0  0  0  0  0  0  0  0  0
   32.0720   27.8430   44.8732 C   0  0  0  0  0  0  0  0  0  0  0  0
   30.8268   27.1265   47.0791 H   0  0  0  0  0  0  0  0  0  0  0  0
   32.3092   26.9515   48.0472 H   0  0  0  0  0  0  0  0  0  0  0  0
   32.5075   29.1809   48.3201 H   0  0  0  0  0  0  0  0  0  0  0  0
   30.8145   29.2433   47.8590 H   0  0  0  0  0  0  0  0  0  0  0  0
   31.2204   30.5483   46.0655 H   0  0  0  0  0  0  0  0  0  0  0  0
   33.6797   29.2104   45.0651 H   0  0  0  0  0  0  0  0  0  0  0  0
   32.2510   29.8444   44.1545 H   0  0  0  0  0  0  0  0  0  0  0  0
   30.9894   27.7739   44.7597 H   0  0  0  0  0  0  0  0  0  0  0  0
   32.5959   27.4486   43.9778 H   0  0  0  0  0  0  0  0  0  0  0  0
  1  2  2  0
  2  7  1  0
  2  3  1  0
  4  3  2  0
  5  4  1  0
  6  1  1  0
  6  5  2  0
  8  1  1  0
  9 10  2  0
 10 11  1  1
 10  8  1  0
 12 10  1  0
  3 13  1  0
  5 14  1  0
  7 15  1  0
  7 16  1  0
 11 17  1  0
 18 19  1  0
 19 20  1  0
 20 21  1  0
 21 22  1  0
 22 23  1  0
 23 24  1  0
 24 19  1  0
 20 25  1  0
 20 26  1  0
 21 27  1  0
 21 28  1  0
 22 29  1  0
 23 30  1  0
 23 31  1  0
 24 32  1  0
 24 33  1  0
 12 22  1  0
M  ISO  4  13  14  14  14  17   3  18   5
M  END
>  <DihAtoms>  (1) 
9,11,21,20

>  <DihDeg>  (1) 
-118.7996029013143

$$$$
