
 OpenBabel03272504173D

 24 25  0  0  0  0  0  0  0  0999 V2000
   34.6410   30.5140   48.7160 O   0  0  0  0  0  0  0  0  0  0  0  0
   35.8660   30.5940   49.3830 C   0  0  0  0  0  0  0  0  0  0  0  0
   36.2110   29.9450   50.5650 C   0  0  0  0  0  0  0  0  0  0  0  0
   37.4780   30.1420   51.0840 C   0  0  0  0  0  0  0  0  0  0  0  0
   38.3520   30.9670   50.4220 N   0  0  0  0  0  0  0  0  0  0  0  0
   37.9690   31.5860   49.2610 C   0  0  0  0  0  0  0  0  0  0  0  0
   36.7350   31.4010   48.7440 N   0  0  0  0  0  0  0  0  0  0  0  0
   37.6680   29.6180   51.9820 H   0  0  0  0  0  0  0  0  0  0  0  0
   38.7120   32.2240   48.7920 H   0  0  0  0  0  0  0  0  0  0  0  0
   35.1890   29.1380   51.1060 N   0  0  0  0  0  0  0  0  0  0  0  0
   35.6540   28.2060   51.0490 H   0  0  0  0  0  0  0  0  0  0  0  0
   34.2330   29.3350   51.4750 H   0  0  0  0  0  0  0  0  0  0  0  0
   35.1730   29.6230   46.2440 O   0  0  0  0  0  0  0  0  0  0  0  0
   34.3440   29.3500   47.4850 P   0  0  1  0  0  0  0  0  0  0  0  0
   34.7020   27.8420   48.1440 O   0  0  0  0  0  0  0  0  0  0  0  0
   34.3900   27.7910   49.0590 H   0  0  0  0  0  0  0  0  0  0  0  0
   32.7390   29.4610   46.9760 O   0  0  0  0  0  0  0  0  0  0  0  0
   29.6910   29.3360   48.9800 H   0  0  0  0  0  0  0  0  0  0  0  0
   29.5620   28.3490   48.7250 N   0  0  0  0  0  0  0  0  0  0  0  0
   29.4680   28.1180   47.3050 C   0  0  0  0  0  2  0  0  0  0  0  0
   30.7280   28.3260   46.5440 C   0  0  0  0  0  2  0  0  0  0  0  0
   32.0030   28.3060   47.3050 C   0  0  0  0  0  3  0  0  0  0  0  0
   31.9120   28.2360   48.7860 C   0  0  0  0  0  2  0  0  0  0  0  0
   30.6430   27.5620   49.2730 C   0  0  0  0  0  2  0  0  0  0  0  0
  1  2  1  0  0  0  0
  2  3  1  0  0  0  0
  3  4  2  0  0  0  0
  3 10  1  0  0  0  0
  4  8  1  0  0  0  0
  5  4  1  0  0  0  0
  6  5  2  0  0  0  0
  7  6  1  0  0  0  0
  7  2  2  0  0  0  0
  9  6  1  0  0  0  0
 10 12  1  0  0  0  0
 11 10  1  0  0  0  0
 14 13  2  6  0  0  0
 14 15  1  0  0  0  0
 14  1  1  0  0  0  0
 15 16  1  0  0  0  0
 17 22  1  0  0  0  0
 17 14  1  0  0  0  0
 19 18  1  0  0  0  0
 19 24  1  0  0  0  0
 20 19  1  0  0  0  0
 21 22  1  0  0  0  0
 21 20  1  0  0  0  0
 22 23  1  0  0  0  0
 23 24  1  0  0  0  0
M  END
>  <minimizedAffinity>
-4.18025446

>  <minimizedRMSD>
1.17533863

$$$$
