
 OpenBabel03272505493D

 38 42  0  0  0  0  0  0  0  0999 V2000
   36.3530   30.4260   45.8920 C   0  0  0  0  0  0  0  0  0  0  0  0
   36.8920   30.7330   47.1060 C   0  0  0  0  0  0  0  0  0  0  0  0
   36.1850   30.4750   48.2740 C   0  0  0  0  0  0  0  0  0  0  0  0
   34.9210   29.9000   48.1670 C   0  0  0  0  0  0  0  0  0  0  0  0
   34.3790   29.5900   46.9290 C   0  0  0  0  0  0  0  0  0  0  0  0
   35.1260   29.8710   45.8440 N   0  0  0  0  0  0  0  0  0  0  0  0
   37.8760   31.1790   47.1670 H   0  0  0  0  0  0  0  0  0  0  0  0
   36.6070   30.7170   49.2510 H   0  0  0  0  0  0  0  0  0  0  0  0
   34.3280   29.6780   49.0460 H   0  0  0  0  0  0  0  0  0  0  0  0
   37.1140   30.7030   44.6200 C   0  0  0  0  0  0  0  0  0  0  0  0
   36.9110   29.7840   43.4840 C   0  0  0  0  0  0  0  0  0  0  0  0
   36.3310   31.1770   43.4400 C   0  0  0  0  0  0  0  0  0  0  0  0
   37.7270   29.6070   42.7570 H   0  0  0  0  0  0  0  0  0  0  0  0
   36.2410   28.9110   43.5860 H   0  0  0  0  0  0  0  0  0  0  0  0
   35.2330   31.2410   43.5700 H   0  0  0  0  0  0  0  0  0  0  0  0
   36.7760   31.9340   42.7850 H   0  0  0  0  0  0  0  0  0  0  0  0
   39.7200   33.2940   44.9940 C   0  0  0  0  0  0  0  0  0  0  0  0
   40.8380   32.5480   45.3790 C   0  0  0  0  0  0  0  0  0  0  0  0
   40.7010   31.1420   45.5110 C   0  0  0  0  0  0  0  0  0  0  0  0
   39.4910   30.5950   45.2580 N   0  0  0  0  0  0  0  0  0  0  0  0
   38.4190   31.3500   44.8860 C   0  0  0  0  0  0  0  0  0  0  0  0
   38.5360   32.6790   44.7570 N   0  0  0  0  0  0  0  0  0  0  0  0
   39.8500   34.3660   44.9000 H   0  0  0  0  0  0  0  0  0  0  0  0
   41.8170   32.9480   45.5870 H   0  0  0  0  0  0  0  0  0  0  0  0
   41.4740   30.4640   45.7960 H   0  0  0  0  0  0  0  0  0  0  0  0
   33.0570   28.9850   46.7560 C   0  0  0  0  0  0  0  0  0  0  0  0
   32.3970   28.6060   45.6260 N   0  0  0  0  0  0  0  0  0  0  0  0
   31.1900   28.0920   46.0010 C   0  0  0  0  0  0  0  0  0  0  0  0
   31.1070   28.1540   47.3450 N   0  0  0  0  0  0  0  0  0  0  0  0
   32.2330   28.6920   47.8060 N   0  0  0  0  0  0  0  0  0  0  0  0
   30.5080   27.7340   45.2720 H   0  0  0  0  0  0  0  0  0  0  0  0
   27.3060   26.2680   49.8440 H   0  0  0  0  0  0  0  0  0  0  0  0
   28.0360   26.8600   49.4360 N   0  0  0  0  0  0  0  0  0  0  0  0
   27.5950   27.8160   48.4680 C   0  0  0  0  0  2  0  0  0  0  0  0
   28.7990   28.6250   48.0150 C   0  0  0  0  0  2  0  0  0  0  0  0
   29.9990   27.7160   48.1360 C   0  0  0  0  0  3  0  0  0  0  0  0
   30.3280   27.6600   49.6210 C   0  0  0  0  0  2  0  0  0  0  0  0
   29.0330   27.3390   50.3450 C   0  0  0  0  0  2  0  0  0  0  0  0
  1  2  1  0  0  0  0
  2  7  1  0  0  0  0
  2  3  2  0  0  0  0
  3  8  1  0  0  0  0
  4  3  1  0  0  0  0
  4  9  1  0  0  0  0
  5  4  2  0  0  0  0
  6  1  2  0  0  0  0
  6  5  1  0  0  0  0
 10 21  1  0  0  0  0
 10  1  1  0  0  0  0
 11 14  1  0  0  0  0
 11 10  1  0  0  0  0
 12 11  1  0  0  0  0
 12 15  1  0  0  0  0
 12 10  1  0  0  0  0
 13 11  1  0  0  0  0
 16 12  1  0  0  0  0
 17 18  1  0  0  0  0
 18 19  2  0  0  0  0
 18 24  1  0  0  0  0
 19 25  1  0  0  0  0
 20 19  1  0  0  0  0
 21 20  2  0  0  0  0
 22 21  1  0  0  0  0
 22 17  2  0  0  0  0
 23 17  1  0  0  0  0
 26  5  1  0  0  0  0
 26 30  2  0  0  0  0
 27 28  2  0  0  0  0
 27 26  1  0  0  0  0
 28 29  1  0  0  0  0
 29 30  1  0  0  0  0
 29 36  1  0  0  0  0
 31 28  1  0  0  0  0
 33 32  1  0  0  0  0
 33 38  1  0  0  0  0
 34 33  1  0  0  0  0
 35 36  1  0  0  0  0
 35 34  1  0  0  0  0
 36 37  1  0  0  0  0
 37 38  1  0  0  0  0
M  END
>  <minimizedAffinity>
-5.96683979

>  <minimizedRMSD>
1.028162

$$$$
