REMARK  Name = 
REMARK  8 active torsions:
REMARK  status: ('A' for Active; 'I' for Inactive)
REMARK    1  A    between atoms: C_2  and  O_7
REMARK    2  A    between atoms: C_5  and  S_15
REMARK    3  A    between atoms: O_7  and  C_8
REMARK    4  A    between atoms: C_12  and  C_14
REMARK    5  A    between atoms: S_15  and  C_16
REMARK    6  A    between atoms: C_16  and  C_19
REMARK    7  A    between atoms: C_23  and  O_24
REMARK    8  A    between atoms: O_24  and  C_42
REMARK                            x       y       z     vdW  Elec       q    Type
REMARK                         _______ _______ _______ _____ _____    ______ ____
ROOT
ATOM      1  C   UNL     1      38.740  32.873  48.348  0.00  0.00    +0.000 A 
ATOM      2  C   UNL     1      39.044  32.203  47.150  0.00  0.00    +0.000 A 
ATOM      3  C   UNL     1      38.538  30.948  47.005  0.00  0.00    +0.000 A 
ATOM      4  N   UNL     1      37.785  30.418  48.000  0.00  0.00    +0.000 NA
ATOM      5  C   UNL     1      37.520  31.064  49.102  0.00  0.00    +0.000 A 
ATOM      6  N   UNL     1      37.991  32.336  49.328  0.00  0.00    +0.000 NA
ATOM      7  H   UNL     1      39.088  33.871  48.570  0.00  0.00    +0.000 HD
ATOM      8  H   UNL     1      38.760  30.412  46.089  0.00  0.00    +0.000 HD
ENDROOT
BRANCH   2   9
ATOM      9  O   UNL     1      39.808  32.851  46.241  0.00  0.00    +0.000 OA
BRANCH   9  10
ATOM     10  C   UNL     1      39.961  32.299  44.974  0.00  0.00    +0.000 A 
ATOM     11  C   UNL     1      40.659  31.170  44.612  0.00  0.00    +0.000 A 
ATOM     12  C   UNL     1      40.694  30.787  43.319  0.00  0.00    +0.000 A 
ATOM     13  C   UNL     1      40.033  31.533  42.397  0.00  0.00    +0.000 A 
ATOM     14  C   UNL     1      39.323  32.681  42.760  0.00  0.00    +0.000 A 
ATOM     15  N   UNL     1      39.302  33.047  44.070  0.00  0.00    +0.000 NA
ATOM     16  H   UNL     1      41.143  30.662  45.435  0.00  0.00    +0.000 HD
ATOM     17  H   UNL     1      41.264  29.888  43.114  0.00  0.00    +0.000 HD
ATOM     18  H   UNL     1      40.061  31.224  41.350  0.00  0.00    +0.000 HD
BRANCH  14  19
ATOM     19  C   UNL     1      38.598  33.490  41.712  0.00  0.00    +0.000 C 
ATOM     20  H   UNL     1      38.458  34.492  42.159  0.00  0.00    +0.000 HD
ATOM     21  H   UNL     1      39.293  33.557  40.845  0.00  0.00    +0.000 HD
ATOM     22  H   UNL     1      37.653  32.990  41.426  0.00  0.00    +0.000 HD
ENDBRANCH  14  19
ENDBRANCH   9  10
ENDBRANCH   2   9
BRANCH   5  23
ATOM     23  S   UNL     1      36.490  30.107  50.253  0.00  0.00    +0.000 S 
BRANCH  23  24
ATOM     24  C   UNL     1      34.789  30.547  49.801  0.00  0.00    +0.000 C 
ATOM     25  H   UNL     1      34.073  30.244  50.606  0.00  0.00    +0.000 HD
ATOM     26  H   UNL     1      34.690  31.639  49.645  0.00  0.00    +0.000 HD
BRANCH  24  29
ATOM     27  F   UNL     1      34.461  27.823  49.935  0.00  0.00    +0.000 F 
ATOM     28  C   UNL     1      34.329  28.433  48.718  0.00  0.00    +0.000 A 
ATOM     29  C   UNL     1      34.473  29.811  48.527  0.00  0.00    +0.000 A 
ATOM     30  C   UNL     1      34.332  30.380  47.302  0.00  0.00    +0.000 A 
ATOM     31  C   UNL     1      34.035  29.580  46.190  0.00  0.00    +0.000 A 
ATOM     32  C   UNL     1      33.891  28.223  46.364  0.00  0.00    +0.000 A 
ATOM     33  C   UNL     1      34.035  27.659  47.608  0.00  0.00    +0.000 A 
ATOM     34  H   UNL     1      34.474  31.454  47.324  0.00  0.00    +0.000 HD
ATOM     35  H   UNL     1      33.940  30.100  45.266  0.00  0.00    +0.000 HD
ATOM     36  H   UNL     1      33.664  27.723  45.437  0.00  0.00    +0.000 HD
BRANCH  33  37
ATOM     37  O   UNL     1      33.880  26.297  47.722  0.00  0.00    +0.000 OA
BRANCH  37  42
ATOM     38  H   UNL     1      31.383  27.344  44.772  0.00  0.00    +0.000 HD
ATOM     39  N   UNL     1      31.448  26.313  44.936  0.00  0.00    +0.000 NA
ATOM     40  C   UNL     1      31.302  26.132  46.377  0.00  0.00    +0.000 C 
ATOM     41  C   UNL     1      32.138  24.934  46.731  0.00  0.00    +0.000 C 
ATOM     42  C   UNL     1      33.589  25.367  46.746  0.00  0.00    +0.000 C 
ATOM     43  C   UNL     1      33.819  26.039  45.385  0.00  0.00    +0.000 C 
ATOM     44  C   UNL     1      32.674  25.777  44.431  0.00  0.00    +0.000 C 
ENDBRANCH  37  42
ENDBRANCH  33  37
ENDBRANCH  24  29
ENDBRANCH  23  24
ENDBRANCH   5  23
TORSDOF 8
