
 OpenBabel03262522283D

 44 47  0  0  0  0  0  0  0  0999 V2000
   39.0200   32.8550   47.9500 C   0  0  0  0  0  0  0  0  0  0  0  0
   39.3030   32.1480   46.7680 C   0  0  0  0  0  0  0  0  0  0  0  0
   38.7580   30.9060   46.6530 C   0  0  0  0  0  0  0  0  0  0  0  0
   37.9900   30.4230   47.6600 N   0  0  0  0  0  0  0  0  0  0  0  0
   37.7460   31.1030   48.7460 C   0  0  0  0  0  0  0  0  0  0  0  0
   38.2560   32.3650   48.9420 N   0  0  0  0  0  0  0  0  0  0  0  0
   39.3990   33.8470   48.1480 H   0  0  0  0  0  0  0  0  0  0  0  0
   38.9630   30.3420   45.7500 H   0  0  0  0  0  0  0  0  0  0  0  0
   40.0860   32.7500   45.8440 O   0  0  0  0  0  0  0  0  0  0  0  0
   40.0960   32.2560   44.5450 C   0  0  0  0  0  0  0  0  0  0  0  0
   40.6550   31.0890   44.0780 C   0  0  0  0  0  0  0  0  0  0  0  0
   40.5620   30.7750   42.7700 C   0  0  0  0  0  0  0  0  0  0  0  0
   39.9130   31.6270   41.9360 C   0  0  0  0  0  0  0  0  0  0  0  0
   39.3430   32.8150   42.4050 C   0  0  0  0  0  0  0  0  0  0  0  0
   39.4490   33.1090   43.7290 N   0  0  0  0  0  0  0  0  0  0  0  0
   41.1450   30.4950   44.8380 H   0  0  0  0  0  0  0  0  0  0  0  0
   41.0280   29.8400   42.4800 H   0  0  0  0  0  0  0  0  0  0  0  0
   39.8370   31.3740   40.8760 H   0  0  0  0  0  0  0  0  0  0  0  0
   38.6270   33.7420   41.4540 C   0  0  0  0  0  0  0  0  0  0  0  0
   38.6160   34.7270   41.9570 H   0  0  0  0  0  0  0  0  0  0  0  0
   39.2630   33.7920   40.5420 H   0  0  0  0  0  0  0  0  0  0  0  0
   37.6210   33.3480   41.2170 H   0  0  0  0  0  0  0  0  0  0  0  0
   36.6870   30.2050   49.9200 S   0  0  0  0  0  0  0  0  0  0  0  0
   35.0060   30.7470   49.5080 C   0  0  0  0  0  0  0  0  0  0  0  0
   34.3430   30.7040   50.4090 H   0  0  0  0  0  0  0  0  0  0  0  0
   35.0060   31.7880   49.1300 H   0  0  0  0  0  0  0  0  0  0  0  0
   33.1530   28.8570   50.2440 F   0  0  0  0  0  0  0  0  0  0  0  0
   33.5580   28.8940   48.9380 C   0  0  0  0  0  0  0  0  0  0  0  0
   34.4940   29.8100   48.4470 C   0  0  0  0  0  0  0  0  0  0  0  0
   34.8700   29.8170   47.1420 C   0  0  0  0  0  0  0  0  0  0  0  0
   34.3160   28.8870   46.2510 C   0  0  0  0  0  0  0  0  0  0  0  0
   33.3940   27.9810   46.7210 C   0  0  0  0  0  0  0  0  0  0  0  0
   33.0210   27.9840   48.0430 C   0  0  0  0  0  0  0  0  0  0  0  0
   35.6010   30.5860   46.9240 H   0  0  0  0  0  0  0  0  0  0  0  0
   34.6610   28.9570   45.2460 H   0  0  0  0  0  0  0  0  0  0  0  0
   33.0450   27.3250   45.9400 H   0  0  0  0  0  0  0  0  0  0  0  0
   32.0960   27.0540   48.4560 O   0  0  0  0  0  0  0  0  0  0  0  0
   29.5190   29.9390   49.4930 H   0  0  0  0  0  0  0  0  0  0  0  0
   29.0750   29.0080   49.3140 N   0  0  0  0  0  0  0  0  0  0  0  0
   29.8730   28.0400   50.0600 C   0  0  0  0  0  0  0  0  0  0  0  0
   29.8290   26.7660   49.2640 C   0  0  0  0  0  0  0  0  0  0  0  0
   30.7730   26.9170   48.0900 C   0  0  0  0  0  0  0  0  0  0  0  0
   30.3460   28.2210   47.4010 C   0  0  0  0  0  0  0  0  0  0  0  0
   29.0120   28.7160   47.9150 C   0  0  0  0  0  0  0  0  0  0  0  0
  1  7  1  0  0  0  0
  1  6  1  0  0  0  0
  2  1  2  0  0  0  0
  3  2  1  0  0  0  0
  3  4  2  0  0  0  0
  4  5  1  0  0  0  0
  5  6  2  0  0  0  0
  5 23  1  0  0  0  0
  8  3  1  0  0  0  0
  9  2  1  0  0  0  0
 10  9  1  0  0  0  0
 11 10  1  0  0  0  0
 11 16  1  0  0  0  0
 12 11  2  0  0  0  0
 13 14  2  0  0  0  0
 13 12  1  0  0  0  0
 14 15  1  0  0  0  0
 15 10  2  0  0  0  0
 17 12  1  0  0  0  0
 18 13  1  0  0  0  0
 19 20  1  0  0  0  0
 19 14  1  0  0  0  0
 21 19  1  0  0  0  0
 22 19  1  0  0  0  0
 24 23  1  0  0  0  0
 24 25  1  0  0  0  0
 26 24  1  0  0  0  0
 28 27  1  0  0  0  0
 29 28  1  0  0  0  0
 29 24  1  0  0  0  0
 30 29  2  0  0  0  0
 31 32  2  0  0  0  0
 31 30  1  0  0  0  0
 32 33  1  0  0  0  0
 33 37  1  0  0  0  0
 33 28  2  0  0  0  0
 34 30  1  0  0  0  0
 35 31  1  0  0  0  0
 36 32  1  0  0  0  0
 39 38  1  0  0  0  0
 39 40  1  0  0  0  0
 41 40  1  0  0  0  0
 42 37  1  0  0  0  0
 42 41  1  0  0  0  0
 43 44  1  0  0  0  0
 43 42  1  0  0  0  0
 44 39  1  0  0  0  0
M  END
>  <minimizedAffinity>
-6.58724833

>  <minimizedRMSD>
2.48093677

$$$$
