
 OpenBabel03272504183D

 24 25  0  0  0  0  0  0  0  0999 V2000
   34.7730   30.7750   48.6780 O   0  0  0  0  0  0  0  0  0  0  0  0
   35.9830   30.7700   49.3750 C   0  0  0  0  0  0  0  0  0  0  0  0
   36.2790   30.0320   50.5180 C   0  0  0  0  0  0  0  0  0  0  0  0
   37.5390   30.1510   51.0760 C   0  0  0  0  0  0  0  0  0  0  0  0
   38.4540   30.9890   50.4900 N   0  0  0  0  0  0  0  0  0  0  0  0
   38.1190   31.6960   49.3660 C   0  0  0  0  0  0  0  0  0  0  0  0
   36.8930   31.5880   48.8110 N   0  0  0  0  0  0  0  0  0  0  0  0
   37.6900   29.5620   51.9410 H   0  0  0  0  0  0  0  0  0  0  0  0
   38.8930   32.3380   48.9560 H   0  0  0  0  0  0  0  0  0  0  0  0
   35.2190   29.2250   50.9810 N   0  0  0  0  0  0  0  0  0  0  0  0
   35.6550   28.2850   50.8710 H   0  0  0  0  0  0  0  0  0  0  0  0
   34.2610   29.4300   51.3420 H   0  0  0  0  0  0  0  0  0  0  0  0
   35.4100   29.8690   46.2370 O   0  0  0  0  0  0  0  0  0  0  0  0
   34.4500   29.6760   47.3950 P   0  0  1  0  0  0  0  0  0  0  0  0
   34.5710   28.1260   48.0410 O   0  0  0  0  0  0  0  0  0  0  0  0
   34.1770   28.0960   48.9250 H   0  0  0  0  0  0  0  0  0  0  0  0
   32.9200   29.9850   46.7560 O   0  0  0  0  0  0  0  0  0  0  0  0
   34.0440   26.5130   46.8550 H   0  0  0  0  0  0  0  0  0  0  0  0
   33.2970   26.2520   46.1990 N   0  0  0  0  0  0  0  0  0  0  0  0
   31.9700   26.5640   46.6690 C   0  0  0  0  0  2  0  0  0  0  0  0
   31.6440   28.0120   46.7270 C   0  0  0  0  0  2  0  0  0  0  0  0
   32.4790   28.9400   45.9210 C   0  0  0  0  0  3  0  0  0  0  0  0
   33.6710   28.3690   45.2440 C   0  0  0  0  0  2  0  0  0  0  0  0
   33.5240   26.8920   44.9250 C   0  0  0  0  0  2  0  0  0  0  0  0
  1  2  1  0  0  0  0
  2  3  1  0  0  0  0
  3 10  1  0  0  0  0
  3  4  2  0  0  0  0
  4  8  1  0  0  0  0
  5  4  1  0  0  0  0
  6  5  2  0  0  0  0
  7  6  1  0  0  0  0
  7  2  2  0  0  0  0
  9  6  1  0  0  0  0
 10 12  1  0  0  0  0
 11 10  1  0  0  0  0
 14 13  2  6  0  0  0
 14 15  1  0  0  0  0
 14  1  1  0  0  0  0
 15 16  1  0  0  0  0
 17 14  1  0  0  0  0
 19 20  1  0  0  0  0
 19 18  1  0  0  0  0
 20 21  1  0  0  0  0
 22 21  1  0  0  0  0
 22 17  1  0  0  0  0
 23 22  1  0  0  0  0
 24 23  1  0  0  0  0
 24 19  1  0  0  0  0
M  END
>  <minimizedAffinity>
-3.82623219

>  <minimizedRMSD>
0.868701398

$$$$
