
 OpenBabel03262522283D

 44 47  0  0  0  0  0  0  0  0999 V2000
   38.7310   32.8630   48.3550 C   0  0  0  0  0  0  0  0  0  0  0  0
   39.0360   32.1970   47.1560 C   0  0  0  0  0  0  0  0  0  0  0  0
   38.5360   30.9390   47.0100 C   0  0  0  0  0  0  0  0  0  0  0  0
   37.7880   30.4040   48.0050 N   0  0  0  0  0  0  0  0  0  0  0  0
   37.5220   31.0470   49.1090 C   0  0  0  0  0  0  0  0  0  0  0  0
   37.9870   32.3210   49.3360 N   0  0  0  0  0  0  0  0  0  0  0  0
   39.0750   33.8620   48.5780 H   0  0  0  0  0  0  0  0  0  0  0  0
   38.7590   30.4060   46.0920 H   0  0  0  0  0  0  0  0  0  0  0  0
   39.7950   32.8500   46.2460 O   0  0  0  0  0  0  0  0  0  0  0  0
   39.9520   32.2990   44.9790 C   0  0  0  0  0  0  0  0  0  0  0  0
   40.6540   31.1720   44.6180 C   0  0  0  0  0  0  0  0  0  0  0  0
   40.6920   30.7890   43.3250 C   0  0  0  0  0  0  0  0  0  0  0  0
   40.0300   31.5330   42.4020 C   0  0  0  0  0  0  0  0  0  0  0  0
   39.3160   32.6790   42.7640 C   0  0  0  0  0  0  0  0  0  0  0  0
   39.2920   33.0450   44.0740 N   0  0  0  0  0  0  0  0  0  0  0  0
   41.1390   30.6660   45.4420 H   0  0  0  0  0  0  0  0  0  0  0  0
   41.2660   29.8920   43.1210 H   0  0  0  0  0  0  0  0  0  0  0  0
   40.0610   31.2250   41.3550 H   0  0  0  0  0  0  0  0  0  0  0  0
   38.5900   33.4860   41.7150 C   0  0  0  0  0  0  0  0  0  0  0  0
   38.4460   34.4870   42.1620 H   0  0  0  0  0  0  0  0  0  0  0  0
   39.2860   33.5550   40.8490 H   0  0  0  0  0  0  0  0  0  0  0  0
   37.6470   32.9830   41.4280 H   0  0  0  0  0  0  0  0  0  0  0  0
   36.4990   30.0820   50.2600 S   0  0  0  0  0  0  0  0  0  0  0  0
   34.7950   30.5230   49.8200 C   0  0  0  0  0  0  0  0  0  0  0  0
   34.0840   30.2140   50.6260 H   0  0  0  0  0  0  0  0  0  0  0  0
   34.6940   31.6150   49.6700 H   0  0  0  0  0  0  0  0  0  0  0  0
   34.5030   27.7940   49.9330 F   0  0  0  0  0  0  0  0  0  0  0  0
   34.3490   28.4120   48.7230 C   0  0  0  0  0  0  0  0  0  0  0  0
   34.4740   29.7940   48.5430 C   0  0  0  0  0  0  0  0  0  0  0  0
   34.3110   30.3710   47.3250 C   0  0  0  0  0  0  0  0  0  0  0  0
   34.0110   29.5770   46.2090 C   0  0  0  0  0  0  0  0  0  0  0  0
   33.8870   28.2170   46.3730 C   0  0  0  0  0  0  0  0  0  0  0  0
   34.0520   27.6440   47.6100 C   0  0  0  0  0  0  0  0  0  0  0  0
   34.4400   31.4470   47.3540 H   0  0  0  0  0  0  0  0  0  0  0  0
   33.8990   30.1040   45.2910 H   0  0  0  0  0  0  0  0  0  0  0  0
   33.6550   27.7220   45.4440 H   0  0  0  0  0  0  0  0  0  0  0  0
   33.9160   26.2800   47.7140 O   0  0  0  0  0  0  0  0  0  0  0  0
   32.8850   22.6110   48.9460 H   0  0  0  0  0  0  0  0  0  0  0  0
   33.1420   22.6700   47.9340 N   0  0  0  0  0  0  0  0  0  0  0  0
   34.3980   23.4130   47.8880 C   0  0  0  0  0  2  0  0  0  0  0  0
   34.3790   24.1800   46.5960 C   0  0  0  0  0  2  0  0  0  0  0  0
   33.4650   25.3740   46.7770 C   0  0  0  0  0  3  0  0  0  0  0  0
   32.1440   24.7900   47.2970 C   0  0  0  0  0  2  0  0  0  0  0  0
   32.1060   23.2830   47.1620 C   0  0  0  0  0  2  0  0  0  0  0  0
  1  7  1  0  0  0  0
  1  6  1  0  0  0  0
  2  1  2  0  0  0  0
  3  2  1  0  0  0  0
  3  4  2  0  0  0  0
  4  5  1  0  0  0  0
  5  6  2  0  0  0  0
  5 23  1  0  0  0  0
  8  3  1  0  0  0  0
  9  2  1  0  0  0  0
 10  9  1  0  0  0  0
 11 10  1  0  0  0  0
 11 16  1  0  0  0  0
 12 11  2  0  0  0  0
 13 14  2  0  0  0  0
 13 12  1  0  0  0  0
 14 15  1  0  0  0  0
 15 10  2  0  0  0  0
 17 12  1  0  0  0  0
 18 13  1  0  0  0  0
 19 20  1  0  0  0  0
 19 14  1  0  0  0  0
 21 19  1  0  0  0  0
 22 19  1  0  0  0  0
 24 23  1  0  0  0  0
 24 25  1  0  0  0  0
 26 24  1  0  0  0  0
 28 27  1  0  0  0  0
 29 28  1  0  0  0  0
 29 24  1  0  0  0  0
 30 34  1  0  0  0  0
 30 29  2  0  0  0  0
 31 32  2  0  0  0  0
 31 30  1  0  0  0  0
 32 33  1  0  0  0  0
 33 37  1  0  0  0  0
 33 28  2  0  0  0  0
 35 31  1  0  0  0  0
 36 32  1  0  0  0  0
 39 38  1  0  0  0  0
 40 39  1  0  0  0  0
 41 42  1  0  0  0  0
 41 40  1  0  0  0  0
 42 43  1  0  0  0  0
 42 37  1  0  0  0  0
 44 43  1  0  0  0  0
 44 39  1  0  0  0  0
M  END
>  <minimizedAffinity>
-6.20395851

>  <minimizedRMSD>
1.44335794

$$$$
