REMARK  Name = 
REMARK  3 active torsions:
REMARK  status: ('A' for Active; 'I' for Inactive)
REMARK    1  A    between atoms: C_3  and  C_9
REMARK    2  A    between atoms: C_7  and  O_14
REMARK    3  A    between atoms: O_14  and  C_25
REMARK                            x       y       z     vdW  Elec       q    Type
REMARK                         _______ _______ _______ _____ _____    ______ ____
ROOT
ATOM      1 CL   UNL     1      38.411  30.610  46.786  0.00  0.00    +0.000 Cl
ATOM      2  C   UNL     1      38.834  32.049  47.681  0.00  0.00    +0.000 A 
ATOM      3  C   UNL     1      38.339  32.204  48.952  0.00  0.00    +0.000 A 
ATOM      4  C   UNL     1      38.711  33.364  49.620  0.00  0.00    +0.000 A 
ATOM      5  C   UNL     1      39.542  34.283  48.989  0.00  0.00    +0.000 A 
ATOM      6  C   UNL     1      40.008  34.076  47.713  0.00  0.00    +0.000 A 
ATOM      7  C   UNL     1      39.653  32.940  47.035  0.00  0.00    +0.000 A 
ATOM      8  H   UNL     1      38.318  33.478  50.618  0.00  0.00    +0.000 HD
ATOM      9  H   UNL     1      39.741  35.131  49.637  0.00  0.00    +0.000 HD
ATOM     10  H   UNL     1      40.623  34.906  47.435  0.00  0.00    +0.000 HD
ENDROOT
BRANCH   3  12
ATOM     11  C   UNL     1      37.936  30.427  50.662  0.00  0.00    +0.000 A 
ATOM     12  C   UNL     1      37.462  31.234  49.619  0.00  0.00    +0.000 A 
ATOM     13  C   UNL     1      36.143  31.085  49.239  0.00  0.00    +0.000 A 
ATOM     14  N   UNL     1      35.372  30.179  49.881  0.00  0.00    +0.000 NA
ATOM     15  C   UNL     1      35.855  29.417  50.882  0.00  0.00    +0.000 A 
ATOM     16  N   UNL     1      37.133  29.537  51.275  0.00  0.00    +0.000 NA
ATOM     17  H   UNL     1      38.959  30.543  50.957  0.00  0.00    +0.000 HD
ATOM     18  H   UNL     1      35.720  31.689  48.430  0.00  0.00    +0.000 HD
ATOM     19  H   UNL     1      35.286  28.678  51.429  0.00  0.00    +0.000 HD
ENDBRANCH   3  12
BRANCH   7  20
ATOM     20  O   UNL     1      40.122  32.746  45.769  0.00  0.00    +0.000 OA
BRANCH  20  25
ATOM     21  H   UNL     1      43.196  32.963  47.882  0.00  0.00    +0.000 HD
ATOM     22  N   UNL     1      42.587  33.172  47.088  0.00  0.00    +0.000 NA
ATOM     23  C   UNL     1      41.901  34.452  47.229  0.00  0.00    +0.000 C 
ATOM     24  C   UNL     1      41.286  34.856  45.899  0.00  0.00    +0.000 C 
ATOM     25  C   UNL     1      40.948  33.617  45.080  0.00  0.00    +0.000 C 
ATOM     26  C   UNL     1      42.266  32.970  44.673  0.00  0.00    +0.000 C 
ATOM     27  C   UNL     1      43.231  33.062  45.803  0.00  0.00    +0.000 C 
ENDBRANCH  20  25
ENDBRANCH   7  20
TORSDOF 3
