
 OpenBabel03272508033D

 26 28  0  0  0  0  0  0  0  0999 V2000
   37.7840   25.6820   33.9680 C   0  0  0  0  0  0  0  0  0  0  0  0
   37.2540   26.8810   34.3810 C   0  0  0  0  0  0  0  0  0  0  0  0
   37.0040   27.6840   33.2510 C   0  0  0  0  0  0  0  0  0  0  0  0
   37.4040   26.9150   32.1870 N   0  0  0  0  0  0  0  0  0  0  0  0
   37.8540   25.7580   32.6180 N   0  0  0  0  0  0  0  0  0  0  0  0
   37.0560   27.1700   35.4200 H   0  0  0  0  0  0  0  0  0  0  0  0
   36.5870   28.6820   33.2640 H   0  0  0  0  0  0  0  0  0  0  0  0
   38.1930   24.5520   34.7910 C   0  0  0  0  0  0  0  0  0  0  0  0
   38.0320   24.6820   36.2010 C   0  0  0  0  0  0  0  0  0  0  0  0
   38.4190   23.6090   37.0120 C   0  0  0  0  0  0  0  0  0  0  0  0
   38.9260   22.5040   36.4040 N   0  0  0  0  0  0  0  0  0  0  0  0
   39.0650   22.4150   35.0610 C   0  0  0  0  0  0  0  0  0  0  0  0
   38.6960   23.4420   34.2770 N   0  0  0  0  0  0  0  0  0  0  0  0
   37.6140   25.6130   36.5900 H   0  0  0  0  0  0  0  0  0  0  0  0
   39.4800   21.4910   34.6850 H   0  0  0  0  0  0  0  0  0  0  0  0
   38.2590   23.7270   38.4750 C   0  0  0  0  0  0  0  0  0  0  0  0
   39.4970   23.4410   39.0190 F   0  0  0  0  0  0  0  0  0  0  0  0
   37.8920   25.0090   38.8690 F   0  0  0  0  0  0  0  0  0  0  0  0
   37.3420   22.8140   38.9830 F   0  0  0  0  0  0  0  0  0  0  0  0
   37.0090   27.7340   28.2770 H   0  0  0  0  0  0  0  0  0  0  0  0
   37.6250   28.5410   28.4740 N   0  0  0  0  0  0  0  0  0  0  0  0
   38.8950   28.0360   28.9940 C   0  0  0  0  0  2  0  0  0  0  0  0
   38.5480   26.9780   30.0430 C   0  0  0  0  0  2  0  0  0  0  0  0
   37.3180   27.3680   30.8110 C   0  0  0  0  0  3  0  0  0  0  0  0
   37.1660   28.8780   30.8490 C   0  0  0  0  0  2  0  0  0  0  0  0
   37.0800   29.4480   29.4580 C   0  0  0  0  0  2  0  0  0  0  0  0
  1  2  1  0  0  0  0
  1  8  1  0  0  0  0
  2  6  1  0  0  0  0
  3  7  1  0  0  0  0
  3  2  2  0  0  0  0
  4  5  1  0  0  0  0
  4  3  1  0  0  0  0
  5  1  2  0  0  0  0
  8  9  1  0  0  0  0
  9 14  1  0  0  0  0
  9 10  2  0  0  0  0
 10 16  1  0  0  0  0
 11 10  1  0  0  0  0
 12 11  2  0  0  0  0
 13  8  2  0  0  0  0
 13 12  1  0  0  0  0
 15 12  1  0  0  0  0
 16 18  1  0  0  0  0
 16 19  1  0  0  0  0
 16 17  1  0  0  0  0
 20 21  1  0  0  0  0
 21 22  1  0  0  0  0
 21 26  1  0  0  0  0
 22 23  1  0  0  0  0
 23 24  1  0  0  0  0
 24 25  1  0  0  0  0
 24  4  1  0  0  0  0
 26 25  1  0  0  0  0
M  END
>  <minimizedAffinity>
-5.84231186

$$$$

 OpenBabel03272508033D

 26 28  0  0  0  0  0  0  0  0999 V2000
   37.4550   25.8680   33.5910 C   0  0  0  0  0  0  0  0  0  0  0  0
   38.0540   24.8790   32.8490 C   0  0  0  0  0  0  0  0  0  0  0  0
   38.4730   23.8470   33.7120 C   0  0  0  0  0  0  0  0  0  0  0  0
   38.0990   24.2730   34.9620 N   0  0  0  0  0  0  0  0  0  0  0  0
   37.5110   25.4450   34.8760 N   0  0  0  0  0  0  0  0  0  0  0  0
   38.1860   24.8860   31.7600 H   0  0  0  0  0  0  0  0  0  0  0  0
   38.9750   22.9370   33.4140 H   0  0  0  0  0  0  0  0  0  0  0  0
   36.8760   27.1170   33.1180 C   0  0  0  0  0  0  0  0  0  0  0  0
   36.5010   28.0750   34.1050 C   0  0  0  0  0  0  0  0  0  0  0  0
   35.9410   29.2830   33.6740 C   0  0  0  0  0  0  0  0  0  0  0  0
   35.7900   29.4720   32.3360 N   0  0  0  0  0  0  0  0  0  0  0  0
   36.1580   28.5400   31.4270 C   0  0  0  0  0  0  0  0  0  0  0  0
   36.6950   27.3770   31.8340 N   0  0  0  0  0  0  0  0  0  0  0  0
   36.6640   27.8260   35.1560 H   0  0  0  0  0  0  0  0  0  0  0  0
   35.9920   28.7950   30.3900 H   0  0  0  0  0  0  0  0  0  0  0  0
   35.5470   30.2860   34.6840 C   0  0  0  0  0  0  0  0  0  0  0  0
   35.5710   31.5080   34.0380 F   0  0  0  0  0  0  0  0  0  0  0  0
   34.2630   30.0730   35.1730 F   0  0  0  0  0  0  0  0  0  0  0  0
   36.4370   30.3420   35.7500 F   0  0  0  0  0  0  0  0  0  0  0  0
   38.3610   21.9220   38.2050 H   0  0  0  0  0  0  0  0  0  0  0  0
   39.0890   22.5850   38.5190 N   0  0  0  0  0  0  0  0  0  0  0  0
   38.4890   23.9140   38.6220 C   0  0  0  0  0  2  0  0  0  0  0  0
   37.6660   24.1220   37.3490 C   0  0  0  0  0  2  0  0  0  0  0  0
   38.3440   23.4980   36.1640 C   0  0  0  0  0  3  0  0  0  0  0  0
   39.8480   23.4570   36.3670 C   0  0  0  0  0  2  0  0  0  0  0  0
   40.2060   22.6800   37.6050 C   0  0  0  0  0  2  0  0  0  0  0  0
  1  5  2  0  0  0  0
  2  1  1  0  0  0  0
  2  3  2  0  0  0  0
  3  4  1  0  0  0  0
  4 24  1  0  0  0  0
  5  4  1  0  0  0  0
  6  2  1  0  0  0  0
  7  3  1  0  0  0  0
  8  1  1  0  0  0  0
  8  9  1  0  0  0  0
  9 14  1  0  0  0  0
 10  9  2  0  0  0  0
 10 16  1  0  0  0  0
 11 10  1  0  0  0  0
 12 13  1  0  0  0  0
 12 11  2  0  0  0  0
 13  8  2  0  0  0  0
 15 12  1  0  0  0  0
 16 18  1  0  0  0  0
 16 19  1  0  0  0  0
 17 16  1  0  0  0  0
 20 21  1  0  0  0  0
 21 22  1  0  0  0  0
 23 22  1  0  0  0  0
 24 25  1  0  0  0  0
 24 23  1  0  0  0  0
 25 26  1  0  0  0  0
 26 21  1  0  0  0  0
M  END
>  <minimizedAffinity>
-5.78490257

$$$$

 OpenBabel03272508033D

 26 28  0  0  0  0  0  0  0  0999 V2000
   37.3570   26.4400   34.2500 C   0  0  0  0  0  0  0  0  0  0  0  0
   37.1720   26.6620   32.9070 C   0  0  0  0  0  0  0  0  0  0  0  0
   36.4680   27.8690   32.7330 C   0  0  0  0  0  0  0  0  0  0  0  0
   36.2550   28.3290   34.0080 N   0  0  0  0  0  0  0  0  0  0  0  0
   36.7750   27.4910   34.8770 N   0  0  0  0  0  0  0  0  0  0  0  0
   37.5170   26.0080   32.0960 H   0  0  0  0  0  0  0  0  0  0  0  0
   36.1780   28.3020   31.7860 H   0  0  0  0  0  0  0  0  0  0  0  0
   38.0310   25.3190   34.8900 C   0  0  0  0  0  0  0  0  0  0  0  0
   37.8260   25.1500   36.2900 C   0  0  0  0  0  0  0  0  0  0  0  0
   38.4650   24.0800   36.9260 C   0  0  0  0  0  0  0  0  0  0  0  0
   39.2420   23.2620   36.1690 N   0  0  0  0  0  0  0  0  0  0  0  0
   39.4140   23.4530   34.8400 C   0  0  0  0  0  0  0  0  0  0  0  0
   38.8040   24.4790   34.2230 N   0  0  0  0  0  0  0  0  0  0  0  0
   37.1810   25.8630   36.8090 H   0  0  0  0  0  0  0  0  0  0  0  0
   40.0540   22.7430   34.3350 H   0  0  0  0  0  0  0  0  0  0  0  0
   38.2640   23.8910   38.3780 C   0  0  0  0  0  0  0  0  0  0  0  0
   39.4730   23.4420   38.8750 F   0  0  0  0  0  0  0  0  0  0  0  0
   37.9320   25.0740   39.0280 F   0  0  0  0  0  0  0  0  0  0  0  0
   37.2980   22.9310   38.6570 F   0  0  0  0  0  0  0  0  0  0  0  0
   33.9330   31.5510   34.5910 H   0  0  0  0  0  0  0  0  0  0  0  0
   34.8230   32.0560   34.7430 N   0  0  0  0  0  0  0  0  0  0  0  0
   35.6310   31.9430   33.5290 C   0  0  0  0  0  2  0  0  0  0  0  0
   35.5690   30.4760   33.0980 C   0  0  0  0  0  2  0  0  0  0  0  0
   35.5530   29.5660   34.2930 C   0  0  0  0  0  3  0  0  0  0  0  0
   36.2550   30.2160   35.4710 C   0  0  0  0  0  2  0  0  0  0  0  0
   35.6020   31.5210   35.8380 C   0  0  0  0  0  2  0  0  0  0  0  0
  1  5  2  0  0  0  0
  1  8  1  0  0  0  0
  2  1  1  0  0  0  0
  3  2  2  0  0  0  0
  3  4  1  0  0  0  0
  4 24  1  0  0  0  0
  4  5  1  0  0  0  0
  6  2  1  0  0  0  0
  7  3  1  0  0  0  0
  8  9  1  0  0  0  0
  9 14  1  0  0  0  0
  9 10  2  0  0  0  0
 10 16  1  0  0  0  0
 11 10  1  0  0  0  0
 12 11  2  0  0  0  0
 13 12  1  0  0  0  0
 13  8  2  0  0  0  0
 15 12  1  0  0  0  0
 16 19  1  0  0  0  0
 16 17  1  0  0  0  0
 16 18  1  0  0  0  0
 20 21  1  0  0  0  0
 21 26  1  0  0  0  0
 22 21  1  0  0  0  0
 23 22  1  0  0  0  0
 23 24  1  0  0  0  0
 24 25  1  0  0  0  0
 25 26  1  0  0  0  0
M  END
>  <minimizedAffinity>
-5.72164774

$$$$

 OpenBabel03272508033D

 26 28  0  0  0  0  0  0  0  0999 V2000
   38.1150   25.6070   33.7220 C   0  0  0  0  0  0  0  0  0  0  0  0
   39.1930   26.3160   33.2490 C   0  0  0  0  0  0  0  0  0  0  0  0
   38.7270   27.3900   32.4660 C   0  0  0  0  0  0  0  0  0  0  0  0
   37.3610   27.2750   32.5020 N   0  0  0  0  0  0  0  0  0  0  0  0
   37.0200   26.2370   33.2330 N   0  0  0  0  0  0  0  0  0  0  0  0
   40.2470   26.0870   33.4480 H   0  0  0  0  0  0  0  0  0  0  0  0
   39.3450   28.1210   31.9630 H   0  0  0  0  0  0  0  0  0  0  0  0
   38.1220   24.4220   34.5690 C   0  0  0  0  0  0  0  0  0  0  0  0
   38.1970   24.6300   35.9770 C   0  0  0  0  0  0  0  0  0  0  0  0
   38.2060   23.5060   36.8110 C   0  0  0  0  0  0  0  0  0  0  0  0
   38.1420   22.2810   36.2270 N   0  0  0  0  0  0  0  0  0  0  0  0
   38.0710   22.1210   34.8850 C   0  0  0  0  0  0  0  0  0  0  0  0
   38.0630   23.1960   34.0780 N   0  0  0  0  0  0  0  0  0  0  0  0
   38.2440   25.6570   36.3470 H   0  0  0  0  0  0  0  0  0  0  0  0
   38.0250   21.1010   34.5280 H   0  0  0  0  0  0  0  0  0  0  0  0
   38.2830   23.7040   38.2730 C   0  0  0  0  0  0  0  0  0  0  0  0
   37.3350   22.8630   38.8220 F   0  0  0  0  0  0  0  0  0  0  0  0
   39.5280   23.3630   38.7910 F   0  0  0  0  0  0  0  0  0  0  0  0
   37.9750   25.0070   38.6470 F   0  0  0  0  0  0  0  0  0  0  0  0
   34.8290   29.4690   30.2910 H   0  0  0  0  0  0  0  0  0  0  0  0
   35.2430   30.2810   30.7800 N   0  0  0  0  0  0  0  0  0  0  0  0
   36.6780   30.3060   30.4970 C   0  0  0  0  0  2  0  0  0  0  0  0
   37.1860   28.8750   30.6810 C   0  0  0  0  0  2  0  0  0  0  0  0
   36.4740   28.1950   31.8150 C   0  0  0  0  0  3  0  0  0  0  0  0
   36.0050   29.2110   32.8400 C   0  0  0  0  0  2  0  0  0  0  0  0
   35.0830   30.2230   32.2160 C   0  0  0  0  0  2  0  0  0  0  0  0
  1  8  1  0  0  0  0
  2  6  1  0  0  0  0
  2  1  1  0  0  0  0
  3  4  1  0  0  0  0
  3  2  2  0  0  0  0
  4  5  1  0  0  0  0
  5  1  2  0  0  0  0
  7  3  1  0  0  0  0
  8  9  1  0  0  0  0
  9 14  1  0  0  0  0
  9 10  2  0  0  0  0
 10 16  1  0  0  0  0
 11 10  1  0  0  0  0
 12 11  2  0  0  0  0
 13  8  2  0  0  0  0
 13 12  1  0  0  0  0
 15 12  1  0  0  0  0
 16 19  1  0  0  0  0
 16 18  1  0  0  0  0
 16 17  1  0  0  0  0
 20 21  1  0  0  0  0
 21 26  1  0  0  0  0
 22 23  1  0  0  0  0
 22 21  1  0  0  0  0
 23 24  1  0  0  0  0
 24  4  1  0  0  0  0
 24 25  1  0  0  0  0
 26 25  1  0  0  0  0
M  END
>  <minimizedAffinity>
-5.66498041

$$$$

 OpenBabel03272508033D

 26 28  0  0  0  0  0  0  0  0999 V2000
   37.1810   27.2980   34.1160 C   0  0  0  0  0  0  0  0  0  0  0  0
   36.6280   27.4090   32.8630 C   0  0  0  0  0  0  0  0  0  0  0  0
   35.8330   28.5710   32.8130 C   0  0  0  0  0  0  0  0  0  0  0  0
   35.9460   29.1180   34.0670 N   0  0  0  0  0  0  0  0  0  0  0  0
   36.7300   28.3690   34.8100 N   0  0  0  0  0  0  0  0  0  0  0  0
   36.7780   26.7090   32.0320 H   0  0  0  0  0  0  0  0  0  0  0  0
   35.2740   28.9190   31.9560 H   0  0  0  0  0  0  0  0  0  0  0  0
   38.0660   26.2560   34.6160 C   0  0  0  0  0  0  0  0  0  0  0  0
   37.7240   25.6530   35.8620 C   0  0  0  0  0  0  0  0  0  0  0  0
   38.5610   24.6500   36.3620 C   0  0  0  0  0  0  0  0  0  0  0  0
   39.6530   24.3090   35.6280 N   0  0  0  0  0  0  0  0  0  0  0  0
   39.9480   24.9020   34.4480 C   0  0  0  0  0  0  0  0  0  0  0  0
   39.1480   25.8670   33.9620 N   0  0  0  0  0  0  0  0  0  0  0  0
   36.8230   26.0000   36.3740 H   0  0  0  0  0  0  0  0  0  0  0  0
   40.8410   24.5530   33.9490 H   0  0  0  0  0  0  0  0  0  0  0  0
   38.2210   24.0160   37.6520 C   0  0  0  0  0  0  0  0  0  0  0  0
   37.0790   23.2720   37.4210 F   0  0  0  0  0  0  0  0  0  0  0  0
   39.2200   23.1600   38.1050 F   0  0  0  0  0  0  0  0  0  0  0  0
   37.9370   24.9490   38.6420 F   0  0  0  0  0  0  0  0  0  0  0  0
   34.3940   32.7350   34.8520 H   0  0  0  0  0  0  0  0  0  0  0  0
   33.9680   32.2770   35.6750 N   0  0  0  0  0  0  0  0  0  0  0  0
   35.0400   31.7410   36.5120 C   0  0  0  0  0  2  0  0  0  0  0  0
   36.0130   31.0260   35.5710 C   0  0  0  0  0  2  0  0  0  0  0  0
   35.2760   30.3450   34.4540 C   0  0  0  0  0  3  0  0  0  0  0  0
   33.8730   29.9660   34.8910 C   0  0  0  0  0  2  0  0  0  0  0  0
   33.0950   31.1780   35.3260 C   0  0  0  0  0  2  0  0  0  0  0  0
  1  8  1  0  0  0  0
  1  5  2  0  0  0  0
  2  1  1  0  0  0  0
  3  2  2  0  0  0  0
  3  4  1  0  0  0  0
  4 24  1  0  0  0  0
  4  5  1  0  0  0  0
  6  2  1  0  0  0  0
  7  3  1  0  0  0  0
  8  9  1  0  0  0  0
  9 10  2  0  0  0  0
  9 14  1  0  0  0  0
 10 16  1  0  0  0  0
 11 10  1  0  0  0  0
 12 11  2  0  0  0  0
 13 12  1  0  0  0  0
 13  8  2  0  0  0  0
 15 12  1  0  0  0  0
 16 18  1  0  0  0  0
 16 19  1  0  0  0  0
 17 16  1  0  0  0  0
 20 21  1  0  0  0  0
 21 22  1  0  0  0  0
 23 22  1  0  0  0  0
 24 25  1  0  0  0  0
 24 23  1  0  0  0  0
 25 26  1  0  0  0  0
 26 21  1  0  0  0  0
M  END
>  <minimizedAffinity>
-5.52129507

$$$$

 OpenBabel03272508033D

 26 28  0  0  0  0  0  0  0  0999 V2000
   37.5000   25.9400   33.6300 C   0  0  0  0  0  0  0  0  0  0  0  0
   37.9160   24.8900   32.8470 C   0  0  0  0  0  0  0  0  0  0  0  0
   38.3000   23.8210   33.6800 C   0  0  0  0  0  0  0  0  0  0  0  0
   38.0930   24.2870   34.9540 N   0  0  0  0  0  0  0  0  0  0  0  0
   37.6310   25.5160   34.9090 N   0  0  0  0  0  0  0  0  0  0  0  0
   37.9450   24.8800   31.7510 H   0  0  0  0  0  0  0  0  0  0  0  0
   38.6700   22.8610   33.3480 H   0  0  0  0  0  0  0  0  0  0  0  0
   37.0180   27.2440   33.1970 C   0  0  0  0  0  0  0  0  0  0  0  0
   37.3410   27.6500   31.8700 C   0  0  0  0  0  0  0  0  0  0  0  0
   36.8890   28.9000   31.4330 C   0  0  0  0  0  0  0  0  0  0  0  0
   36.1660   29.6540   32.3030 N   0  0  0  0  0  0  0  0  0  0  0  0
   35.8770   29.2370   33.5580 C   0  0  0  0  0  0  0  0  0  0  0  0
   36.3090   28.0370   33.9830 N   0  0  0  0  0  0  0  0  0  0  0  0
   37.9280   26.9690   31.2490 H   0  0  0  0  0  0  0  0  0  0  0  0
   35.2960   29.9160   34.1640 H   0  0  0  0  0  0  0  0  0  0  0  0
   37.2150   29.3360   30.0600 C   0  0  0  0  0  0  0  0  0  0  0  0
   38.5890   29.4810   30.0230 F   0  0  0  0  0  0  0  0  0  0  0  0
   36.8450   28.4000   29.1010 F   0  0  0  0  0  0  0  0  0  0  0  0
   36.6410   30.5630   29.7440 F   0  0  0  0  0  0  0  0  0  0  0  0
   38.4340   21.8720   38.1420 H   0  0  0  0  0  0  0  0  0  0  0  0
   39.1450   22.5480   38.4690 N   0  0  0  0  0  0  0  0  0  0  0  0
   38.5090   23.8580   38.6040 C   0  0  0  0  0  2  0  0  0  0  0  0
   37.6750   24.0710   37.3390 C   0  0  0  0  0  2  0  0  0  0  0  0
   38.3650   23.4930   36.1370 C   0  0  0  0  0  3  0  0  0  0  0  0
   39.8700   23.4890   36.3340 C   0  0  0  0  0  2  0  0  0  0  0  0
   40.2540   22.6940   37.5530 C   0  0  0  0  0  2  0  0  0  0  0  0
  1  5  2  0  0  0  0
  2  1  1  0  0  0  0
  2  3  2  0  0  0  0
  3  4  1  0  0  0  0
  4 24  1  0  0  0  0
  5  4  1  0  0  0  0
  6  2  1  0  0  0  0
  7  3  1  0  0  0  0
  8  1  1  0  0  0  0
  8 13  1  0  0  0  0
  9  8  2  0  0  0  0
 10  9  1  0  0  0  0
 10 11  2  0  0  0  0
 11 12  1  0  0  0  0
 12 13  2  0  0  0  0
 12 15  1  0  0  0  0
 14  9  1  0  0  0  0
 16 10  1  0  0  0  0
 17 16  1  0  0  0  0
 18 16  1  0  0  0  0
 19 16  1  0  0  0  0
 20 21  1  0  0  0  0
 21 22  1  0  0  0  0
 23 22  1  0  0  0  0
 24 25  1  0  0  0  0
 24 23  1  0  0  0  0
 25 26  1  0  0  0  0
 26 21  1  0  0  0  0
M  END
>  <minimizedAffinity>
-5.48159075

$$$$

 OpenBabel03272508033D

 26 28  0  0  0  0  0  0  0  0999 V2000
   37.7790   24.0300   33.0970 C   0  0  0  0  0  0  0  0  0  0  0  0
   38.1080   24.3820   31.8100 C   0  0  0  0  0  0  0  0  0  0  0  0
   37.7320   23.3400   30.9400 C   0  0  0  0  0  0  0  0  0  0  0  0
   37.1830   22.3880   31.7610 N   0  0  0  0  0  0  0  0  0  0  0  0
   37.2170   22.8010   33.0070 N   0  0  0  0  0  0  0  0  0  0  0  0
   38.5860   25.3210   31.5050 H   0  0  0  0  0  0  0  0  0  0  0  0
   37.8660   23.3330   29.8670 H   0  0  0  0  0  0  0  0  0  0  0  0
   37.9830   24.7990   34.3170 C   0  0  0  0  0  0  0  0  0  0  0  0
   38.0020   24.0770   35.5460 C   0  0  0  0  0  0  0  0  0  0  0  0
   38.1960   24.7960   36.7310 C   0  0  0  0  0  0  0  0  0  0  0  0
   38.3560   26.1420   36.6390 N   0  0  0  0  0  0  0  0  0  0  0  0
   38.3320   26.7960   35.4540 C   0  0  0  0  0  0  0  0  0  0  0  0
   38.1460   26.1110   34.3120 N   0  0  0  0  0  0  0  0  0  0  0  0
   37.8650   22.9940   35.5110 H   0  0  0  0  0  0  0  0  0  0  0  0
   38.4690   27.8670   35.4970 H   0  0  0  0  0  0  0  0  0  0  0  0
   38.2190   24.0630   38.0130 C   0  0  0  0  0  0  0  0  0  0  0  0
   37.9890   25.0070   38.9960 F   0  0  0  0  0  0  0  0  0  0  0  0
   37.2230   23.0950   38.0910 F   0  0  0  0  0  0  0  0  0  0  0  0
   39.4510   23.4690   38.2610 F   0  0  0  0  0  0  0  0  0  0  0  0
   35.5440   19.1550   30.0350 H   0  0  0  0  0  0  0  0  0  0  0  0
   35.6910   18.7000   30.9520 N   0  0  0  0  0  0  0  0  0  0  0  0
   34.9470   19.4490   31.9640 C   0  0  0  0  0  2  0  0  0  0  0  0
   35.2380   20.9300   31.7130 C   0  0  0  0  0  2  0  0  0  0  0  0
   36.6580   21.1290   31.2660 C   0  0  0  0  0  3  0  0  0  0  0  0
   37.5510   20.0300   31.8120 C   0  0  0  0  0  2  0  0  0  0  0  0
   37.0780   18.6740   31.3600 C   0  0  0  0  0  2  0  0  0  0  0  0
  1  8  1  0  0  0  0
  2  1  1  0  0  0  0
  3  4  1  0  0  0  0
  3  2  2  0  0  0  0
  4  5  1  0  0  0  0
  5  1  2  0  0  0  0
  6  2  1  0  0  0  0
  7  3  1  0  0  0  0
  8  9  1  0  0  0  0
  9 10  2  0  0  0  0
 10 16  1  0  0  0  0
 11 10  1  0  0  0  0
 12 15  1  0  0  0  0
 12 11  2  0  0  0  0
 13  8  2  0  0  0  0
 13 12  1  0  0  0  0
 14  9  1  0  0  0  0
 16 18  1  0  0  0  0
 16 19  1  0  0  0  0
 16 17  1  0  0  0  0
 20 21  1  0  0  0  0
 21 26  1  0  0  0  0
 21 22  1  0  0  0  0
 23 22  1  0  0  0  0
 24 23  1  0  0  0  0
 24  4  1  0  0  0  0
 24 25  1  0  0  0  0
 26 25  1  0  0  0  0
M  END
>  <minimizedAffinity>
-5.45938301

$$$$

 OpenBabel03272508033D

 26 28  0  0  0  0  0  0  0  0999 V2000
   39.8680   24.0870   33.8270 C   0  0  0  0  0  0  0  0  0  0  0  0
   40.8160   24.2780   32.8510 C   0  0  0  0  0  0  0  0  0  0  0  0
   40.2250   24.9530   31.7640 C   0  0  0  0  0  0  0  0  0  0  0  0
   38.9200   25.1400   32.1450 N   0  0  0  0  0  0  0  0  0  0  0  0
   38.7280   24.6330   33.3410 N   0  0  0  0  0  0  0  0  0  0  0  0
   41.8640   23.9600   32.9040 H   0  0  0  0  0  0  0  0  0  0  0  0
   40.7260   25.2410   30.8500 H   0  0  0  0  0  0  0  0  0  0  0  0
   40.0300   23.4350   35.1190 C   0  0  0  0  0  0  0  0  0  0  0  0
   39.1900   23.8790   36.1820 C   0  0  0  0  0  0  0  0  0  0  0  0
   39.3290   23.2670   37.4330 C   0  0  0  0  0  0  0  0  0  0  0  0
   40.2590   22.2840   37.5600 N   0  0  0  0  0  0  0  0  0  0  0  0
   41.0410   21.8880   36.5290 C   0  0  0  0  0  0  0  0  0  0  0  0
   40.9130   22.4720   35.3240 N   0  0  0  0  0  0  0  0  0  0  0  0
   38.4730   24.6770   35.9760 H   0  0  0  0  0  0  0  0  0  0  0  0
   41.7470   21.0980   36.7420 H   0  0  0  0  0  0  0  0  0  0  0  0
   38.4660   23.7150   38.5450 C   0  0  0  0  0  0  0  0  0  0  0  0
   37.9520   24.9390   38.1600 F   0  0  0  0  0  0  0  0  0  0  0  0
   37.4060   22.8470   38.7800 F   0  0  0  0  0  0  0  0  0  0  0  0
   39.1770   23.8970   39.7260 F   0  0  0  0  0  0  0  0  0  0  0  0
   36.3130   26.6550   29.4950 H   0  0  0  0  0  0  0  0  0  0  0  0
   36.3500   27.5080   30.0790 N   0  0  0  0  0  0  0  0  0  0  0  0
   37.7310   27.9880   30.1070 C   0  0  0  0  0  2  0  0  0  0  0  0
   38.6140   26.7650   30.3630 C   0  0  0  0  0  2  0  0  0  0  0  0
   37.9430   25.8070   31.3050 C   0  0  0  0  0  3  0  0  0  0  0  0
   36.9900   26.5430   32.2290 C   0  0  0  0  0  2  0  0  0  0  0  0
   35.9380   27.2810   31.4460 C   0  0  0  0  0  2  0  0  0  0  0  0
  1  8  1  0  0  0  0
  2  6  1  0  0  0  0
  2  1  1  0  0  0  0
  3  4  1  0  0  0  0
  3  2  2  0  0  0  0
  4  5  1  0  0  0  0
  5  1  2  0  0  0  0
  7  3  1  0  0  0  0
  8 13  2  0  0  0  0
  8  9  1  0  0  0  0
  9 10  2  0  0  0  0
 10 11  1  0  0  0  0
 10 16  1  0  0  0  0
 12 15  1  0  0  0  0
 12 11  2  0  0  0  0
 13 12  1  0  0  0  0
 14  9  1  0  0  0  0
 16 18  1  0  0  0  0
 16 19  1  0  0  0  0
 17 16  1  0  0  0  0
 20 21  1  0  0  0  0
 21 22  1  0  0  0  0
 21 26  1  0  0  0  0
 22 23  1  0  0  0  0
 23 24  1  0  0  0  0
 24  4  1  0  0  0  0
 24 25  1  0  0  0  0
 26 25  1  0  0  0  0
M  END
>  <minimizedAffinity>
-5.39374399

$$$$

 OpenBabel03272508033D

 26 28  0  0  0  0  0  0  0  0999 V2000
   37.9450   25.2020   34.9400 C   0  0  0  0  0  0  0  0  0  0  0  0
   37.8140   24.7540   33.6470 C   0  0  0  0  0  0  0  0  0  0  0  0
   37.3640   25.8160   32.8380 C   0  0  0  0  0  0  0  0  0  0  0  0
   37.2420   26.8770   33.6990 N   0  0  0  0  0  0  0  0  0  0  0  0
   37.5810   26.5060   34.9130 N   0  0  0  0  0  0  0  0  0  0  0  0
   38.0240   23.7360   33.2970 H   0  0  0  0  0  0  0  0  0  0  0  0
   37.1700   25.7630   31.7750 H   0  0  0  0  0  0  0  0  0  0  0  0
   38.3800   24.4500   36.1090 C   0  0  0  0  0  0  0  0  0  0  0  0
   39.5750   23.6830   35.9810 C   0  0  0  0  0  0  0  0  0  0  0  0
   40.0120   22.9520   37.0920 C   0  0  0  0  0  0  0  0  0  0  0  0
   39.2700   23.0190   38.2290 N   0  0  0  0  0  0  0  0  0  0  0  0
   38.1400   23.7590   38.3140 C   0  0  0  0  0  0  0  0  0  0  0  0
   37.7140   24.4620   37.2510 N   0  0  0  0  0  0  0  0  0  0  0  0
   40.0990   23.6970   35.0220 H   0  0  0  0  0  0  0  0  0  0  0  0
   37.6280   23.7390   39.2660 H   0  0  0  0  0  0  0  0  0  0  0  0
   41.2480   22.1510   36.9760 C   0  0  0  0  0  0  0  0  0  0  0  0
   42.2920   23.0550   37.0140 F   0  0  0  0  0  0  0  0  0  0  0  0
   41.4020   21.2560   38.0290 F   0  0  0  0  0  0  0  0  0  0  0  0
   41.3180   21.4580   35.7740 F   0  0  0  0  0  0  0  0  0  0  0  0
   36.3600   30.6860   32.7920 H   0  0  0  0  0  0  0  0  0  0  0  0
   35.4530   30.3070   32.4710 N   0  0  0  0  0  0  0  0  0  0  0  0
   34.7990   29.6520   33.6040 C   0  0  0  0  0  2  0  0  0  0  0  0
   35.8660   28.7930   34.2860 C   0  0  0  0  0  2  0  0  0  0  0  0
   36.7970   28.1900   33.2730 C   0  0  0  0  0  3  0  0  0  0  0  0
   36.0960   28.0120   31.9390 C   0  0  0  0  0  2  0  0  0  0  0  0
   35.5850   29.3280   31.4160 C   0  0  0  0  0  2  0  0  0  0  0  0
  1  8  1  0  0  0  0
  2  1  1  0  0  0  0
  3  2  2  0  0  0  0
  3  4  1  0  0  0  0
  4  5  1  0  0  0  0
  5  1  2  0  0  0  0
  6  2  1  0  0  0  0
  7  3  1  0  0  0  0
  8 13  1  0  0  0  0
  9  8  2  0  0  0  0
  9 10  1  0  0  0  0
 10 11  2  0  0  0  0
 11 12  1  0  0  0  0
 12 15  1  0  0  0  0
 13 12  2  0  0  0  0
 14  9  1  0  0  0  0
 16 17  1  0  0  0  0
 16 10  1  0  0  0  0
 16 18  1  0  0  0  0
 19 16  1  0  0  0  0
 21 20  1  0  0  0  0
 21 22  1  0  0  0  0
 22 23  1  0  0  0  0
 24  4  1  0  0  0  0
 24 23  1  0  0  0  0
 25 24  1  0  0  0  0
 26 25  1  0  0  0  0
 26 21  1  0  0  0  0
M  END
>  <minimizedAffinity>
-5.3567977

$$$$
