
     RDKit          3D

 39 41  0  0  0  0  0  0  0  0999 V2000
   35.6486   29.3284   49.8401 C   0  0  0  0  0  0  0  0  0  0  0  0
   35.7468   30.2812   48.8057 C   0  0  0  0  0  0  0  0  0  0  0  0
   34.9072   30.1600   47.6881 C   0  0  0  0  0  0  0  0  0  0  0  0
   34.0380   29.1235   47.6616 N   0  0  0  0  0  0  0  0  0  0  0  0
   33.9468   28.2304   48.6314 C   0  0  0  0  0  0  0  0  0  0  0  0
   34.7448   28.3317   49.7106 N   0  0  0  0  0  0  0  0  0  0  0  0
   37.6439   30.0540   51.3497 C   0  0  0  0  0  0  0  0  0  0  0  0
   38.2066   30.8352   50.5398 O   0  0  0  0  0  0  0  0  0  0  0  0
   36.4336   29.3607   51.0127 N   0  0  0  0  0  0  0  0  0  0  0  0
   36.7140   31.3289   48.9629 N   0  0  0  0  0  0  0  0  0  0  0  0
   36.5573   32.3336   49.8176 C   0  0  0  0  0  0  0  0  0  0  0  0
   37.5277   33.3258   49.9352 C   0  0  0  0  0  0  0  0  0  0  0  0
   38.5978   33.1524   49.1142 C   0  0  0  0  0  0  0  0  0  0  0  0
   39.5056   34.0432   49.1962 O   0  0  0  0  0  0  0  0  0  0  0  0
   38.8048   32.1704   48.2438 N   0  0  0  0  0  0  0  0  0  0  0  0
   37.8242   31.2365   48.1765 C   0  0  0  0  0  0  0  0  0  0  0  0
   37.9923   30.2771   47.3478 O   0  0  0  0  0  0  0  0  0  0  0  0
   34.9998   30.8930   46.9184 H   0  0  0  0  0  0  0  0  0  0  0  0
   33.2547   27.3840   48.6359 H   0  0  0  0  0  0  0  0  0  0  0  0
   38.1337   29.9471   52.3022 H   0  0  0  0  0  0  0  0  0  0  0  0
   36.1106   28.7782   51.8397 H   0  0  0  0  0  0  0  0  0  0  0  0
   35.6571   32.3648   50.4222 H   0  0  0  0  0  0  0  0  0  0  0  0
   37.4212   34.1434   50.6172 H   0  0  0  0  0  0  0  0  0  0  0  0
   42.0214   31.8121   44.2531 H   0  0  0  0  0  0  0  0  0  0  0  0
   41.5875   31.8041   45.2074 N   0  0  0  0  0  0  0  0  0  0  0  0
   40.5024   30.8684   45.2503 C   0  0  0  0  0  0  0  0  0  0  0  0
   40.1096   30.7217   46.7183 C   0  0  0  0  0  0  0  0  0  0  0  0
   39.9752   32.0498   47.3976 C   0  0  0  0  0  0  0  0  0  0  0  0
   40.0090   33.2325   46.4609 C   0  0  0  0  0  0  0  0  0  0  0  0
   41.1178   33.1478   45.4568 C   0  0  0  0  0  0  0  0  0  0  0  0
   39.6223   31.1889   44.6686 H   0  0  0  0  0  0  0  0  0  0  0  0
   40.8909   29.8790   44.8930 H   0  0  0  0  0  0  0  0  0  0  0  0
   40.9149   30.0810   47.1619 H   0  0  0  0  0  0  0  0  0  0  0  0
   39.2037   30.0970   46.7685 H   0  0  0  0  0  0  0  0  0  0  0  0
   40.8819   32.1576   48.0391 H   0  0  0  0  0  0  0  0  0  0  0  0
   40.2479   34.1200   47.1144 H   0  0  0  0  0  0  0  0  0  0  0  0
   39.0153   33.4112   46.0460 H   0  0  0  0  0  0  0  0  0  0  0  0
   42.0221   33.7590   45.7335 H   0  0  0  0  0  0  0  0  0  0  0  0
   40.7583   33.5807   44.5065 H   0  0  0  0  0  0  0  0  0  0  0  0
  1  9  1  0
  2 10  1  0
  2  1  2  0
  3  2  1  0
  4  3  2  0
  4  5  1  0
  5  6  2  0
  6  1  1  0
  8  7  2  0
  9  7  1  0
 10 11  1  0
 11 12  2  0
 13 14  2  0
 13 12  1  0
 15 13  1  0
 16 15  1  0
 16 10  1  0
 17 16  2  0
  3 18  1  0
  5 19  1  0
  7 20  1  0
  9 21  1  0
 11 22  1  0
 12 23  1  0
 24 25  1  0
 25 26  1  0
 26 27  1  0
 27 28  1  0
 28 29  1  0
 29 30  1  0
 30 25  1  0
 26 31  1  0
 26 32  1  0
 27 33  1  0
 27 34  1  0
 28 35  1  0
 29 36  1  0
 29 37  1  0
 30 38  1  0
 30 39  1  0
 15 28  1  0
M  ISO  6  18  14  19  14  20   6  22  14  23  14  24   5
M  END
>  <DihAtoms>  (1) 
12,14,27,26

>  <DihDeg>  (1) 
122.86496476358315

$$$$
