
     RDKit          3D

 38 40  0  0  0  0  0  0  0  0999 V2000
   34.6690   28.2923   49.5747 C   0  0  0  0  0  0  0  0  0  0  0  0
   37.2851   30.1818   51.3969 C   0  0  0  0  0  0  0  0  0  0  0  0
   38.0747   30.6985   50.3442 C   0  0  0  0  0  0  0  0  0  0  0  0
   37.6819   30.3797   49.0216 C   0  0  0  0  0  0  0  0  0  0  0  0
   36.5874   29.6081   48.8241 N   0  0  0  0  0  0  0  0  0  0  0  0
   35.8674   29.1399   49.8726 C   0  0  0  0  0  0  0  0  0  0  0  0
   36.2160   29.4251   51.1156 N   0  0  0  0  0  0  0  0  0  0  0  0
   34.4428   28.2453   48.0896 C   0  0  0  0  0  0  0  0  0  0  0  0
   32.9603   28.2644   47.8859 C   0  0  0  0  0  0  0  0  0  0  0  0
   32.0126   27.6033   48.6348 C   0  0  0  0  0  0  0  0  0  0  0  0
   30.7374   27.8569   48.1500 C   0  0  0  0  0  0  0  0  0  0  0  0
   30.9612   28.6776   47.1053 N   0  0  0  0  0  0  0  0  0  0  0  0
   32.2523   28.9130   46.9536 N   0  0  0  0  0  0  0  0  0  0  0  0
   33.8279   28.7609   50.1113 H   0  0  0  0  0  0  0  0  0  0  0  0
   34.8473   27.2676   49.9790 H   0  0  0  0  0  0  0  0  0  0  0  0
   37.5673   30.4129   52.4090 H   0  0  0  0  0  0  0  0  0  0  0  0
   38.9369   31.3089   50.5777 H   0  0  0  0  0  0  0  0  0  0  0  0
   38.2807   30.7709   48.2044 H   0  0  0  0  0  0  0  0  0  0  0  0
   34.8959   29.1033   47.5516 H   0  0  0  0  0  0  0  0  0  0  0  0
   34.9089   27.3407   47.6729 H   0  0  0  0  0  0  0  0  0  0  0  0
   32.2776   26.9752   49.4869 H   0  0  0  0  0  0  0  0  0  0  0  0
   29.8328   27.4482   48.5747 H   0  0  0  0  0  0  0  0  0  0  0  0
   27.3613   26.8465   47.5877 H   0  0  0  0  0  0  0  0  0  0  0  0
   28.1276   27.4882   47.2549 N   0  0  0  0  0  0  0  0  0  0  0  0
   28.2437   27.3630   45.8312 C   0  0  0  0  0  0  0  0  0  0  0  0
   29.3707   28.2095   45.3009 C   0  0  0  0  0  0  0  0  0  0  0  0
   29.8959   29.2199   46.2688 C   0  0  0  0  0  0  0  0  0  0  0  0
   28.7729   29.8165   47.0528 C   0  0  0  0  0  0  0  0  0  0  0  0
   27.8289   28.8306   47.6572 C   0  0  0  0  0  0  0  0  0  0  0  0
   28.4123   26.2706   45.6181 H   0  0  0  0  0  0  0  0  0  0  0  0
   27.2622   27.6065   45.3321 H   0  0  0  0  0  0  0  0  0  0  0  0
   30.2035   27.5800   44.8970 H   0  0  0  0  0  0  0  0  0  0  0  0
   28.9713   28.7677   44.4057 H   0  0  0  0  0  0  0  0  0  0  0  0
   30.3498   30.0397   45.6745 H   0  0  0  0  0  0  0  0  0  0  0  0
   28.2124   30.4778   46.3502 H   0  0  0  0  0  0  0  0  0  0  0  0
   29.2077   30.4943   47.8412 H   0  0  0  0  0  0  0  0  0  0  0  0
   27.8807   28.8619   48.7624 H   0  0  0  0  0  0  0  0  0  0  0  0
   26.7791   29.0923   47.4035 H   0  0  0  0  0  0  0  0  0  0  0  0
  1  6  1  0
  3  2  2  0
  4  3  1  0
  5  4  2  0
  5  6  1  0
  6  7  2  0
  7  2  1  0
  8  1  1  0
  9  8  1  0
  9 10  1  0
 11 10  2  0
 12 11  1  0
 13 12  1  0
 13  9  2  0
  1 14  1  0
  1 15  1  0
  2 16  1  0
  3 17  1  0
  4 18  1  0
  8 19  1  0
  8 20  1  0
 10 21  1  0
 11 22  1  0
 23 24  1  0
 24 25  1  0
 25 26  1  0
 26 27  1  0
 27 28  1  0
 28 29  1  0
 29 24  1  0
 25 30  1  0
 25 31  1  0
 26 32  1  0
 26 33  1  0
 27 34  1  0
 28 35  1  0
 28 36  1  0
 29 37  1  0
 29 38  1  0
 12 27  1  0
M  ISO  8  14   8  15   8  16  14  17  14  18  14  19   8  20   8  21  14
M  ISO  2  22  14  23   5
M  END
>  <DihAtoms>  (1) 
10,11,26,25

>  <DihDeg>  (1) 
-16.926621502705846

$$$$
