
     RDKit          3D

 38 40  0  0  0  0  0  0  0  0999 V2000
   34.6690   28.2923   49.5747 C   0  0  0  0  0  0  0  0  0  0  0  0
   37.2851   30.1818   51.3969 C   0  0  0  0  0  0  0  0  0  0  0  0
   38.0747   30.6985   50.3442 C   0  0  0  0  0  0  0  0  0  0  0  0
   37.6819   30.3797   49.0216 C   0  0  0  0  0  0  0  0  0  0  0  0
   36.5874   29.6081   48.8241 N   0  0  0  0  0  0  0  0  0  0  0  0
   35.8674   29.1399   49.8726 C   0  0  0  0  0  0  0  0  0  0  0  0
   36.2160   29.4251   51.1156 N   0  0  0  0  0  0  0  0  0  0  0  0
   34.4428   28.2453   48.0896 C   0  0  0  0  0  0  0  0  0  0  0  0
   32.9603   28.2644   47.8859 C   0  0  0  0  0  0  0  0  0  0  0  0
   32.0126   27.6033   48.6348 C   0  0  0  0  0  0  0  0  0  0  0  0
   30.7374   27.8569   48.1500 C   0  0  0  0  0  0  0  0  0  0  0  0
   30.9612   28.6776   47.1053 N   0  0  0  0  0  0  0  0  0  0  0  0
   32.2523   28.9130   46.9536 N   0  0  0  0  0  0  0  0  0  0  0  0
   33.8279   28.7609   50.1113 H   0  0  0  0  0  0  0  0  0  0  0  0
   34.8473   27.2676   49.9790 H   0  0  0  0  0  0  0  0  0  0  0  0
   37.5673   30.4129   52.4090 H   0  0  0  0  0  0  0  0  0  0  0  0
   38.9369   31.3089   50.5777 H   0  0  0  0  0  0  0  0  0  0  0  0
   38.2807   30.7709   48.2044 H   0  0  0  0  0  0  0  0  0  0  0  0
   34.8959   29.1033   47.5516 H   0  0  0  0  0  0  0  0  0  0  0  0
   34.9089   27.3407   47.6729 H   0  0  0  0  0  0  0  0  0  0  0  0
   32.2776   26.9752   49.4869 H   0  0  0  0  0  0  0  0  0  0  0  0
   29.8328   27.4482   48.5747 H   0  0  0  0  0  0  0  0  0  0  0  0
   28.1153   25.9669   46.0572 H   0  0  0  0  0  0  0  0  0  0  0  0
   28.6697   26.8574   46.1556 N   0  0  0  0  0  0  0  0  0  0  0  0
   29.0036   27.3361   44.8460 C   0  0  0  0  0  0  0  0  0  0  0  0
   29.8555   28.5757   44.9209 C   0  0  0  0  0  0  0  0  0  0  0  0
   29.8959   29.2199   46.2688 C   0  0  0  0  0  0  0  0  0  0  0  0
   28.5487   29.1579   46.9114 C   0  0  0  0  0  0  0  0  0  0  0  0
   27.9038   27.8116   46.9013 C   0  0  0  0  0  0  0  0  0  0  0  0
   29.5423   26.4960   44.3252 H   0  0  0  0  0  0  0  0  0  0  0  0
   28.0697   27.5022   44.2362 H   0  0  0  0  0  0  0  0  0  0  0  0
   30.8920   28.3863   44.5429 H   0  0  0  0  0  0  0  0  0  0  0  0
   29.4170   29.3218   44.1974 H   0  0  0  0  0  0  0  0  0  0  0  0
   30.1338   30.2926   46.1136 H   0  0  0  0  0  0  0  0  0  0  0  0
   27.9008   29.8791   46.3589 H   0  0  0  0  0  0  0  0  0  0  0  0
   28.6350   29.5559   47.9622 H   0  0  0  0  0  0  0  0  0  0  0  0
   27.7989   27.4173   47.9301 H   0  0  0  0  0  0  0  0  0  0  0  0
   26.8680   27.8802   46.5045 H   0  0  0  0  0  0  0  0  0  0  0  0
  1  6  1  0
  3  2  2  0
  4  3  1  0
  5  4  2  0
  5  6  1  0
  6  7  2  0
  7  2  1  0
  8  1  1  0
  9  8  1  0
  9 10  1  0
 11 10  2  0
 12 11  1  0
 13 12  1  0
 13  9  2  0
  1 14  1  0
  1 15  1  0
  2 16  1  0
  3 17  1  0
  4 18  1  0
  8 19  1  0
  8 20  1  0
 10 21  1  0
 11 22  1  0
 23 24  1  0
 24 25  1  0
 25 26  1  0
 26 27  1  0
 27 28  1  0
 28 29  1  0
 29 24  1  0
 25 30  1  0
 25 31  1  0
 26 32  1  0
 26 33  1  0
 27 34  1  0
 28 35  1  0
 28 36  1  0
 29 37  1  0
 29 38  1  0
 12 27  1  0
M  ISO  8  14   8  15   8  16  14  17  14  18  14  19   8  20   8  21  14
M  ISO  2  22  14  23   5
M  END
>  <DihAtoms>  (1) 
10,11,26,25

>  <DihDeg>  (1) 
-16.926621502705846

$$$$
