REMARK  Name = 
REMARK  3 active torsions:
REMARK  status: ('A' for Active; 'I' for Inactive)
REMARK    1  A    between atoms: C_2  and  C_12
REMARK    2  A    between atoms: C_6  and  O_16
REMARK    3  A    between atoms: O_16  and  C_28
REMARK                            x       y       z     vdW  Elec       q    Type
REMARK                         _______ _______ _______ _____ _____    ______ ____
ROOT
ATOM      1  C   UNL     1      36.847  30.551  46.905  0.00  0.00    +0.000 A 
ATOM      2  C   UNL     1      37.515  31.036  48.025  0.00  0.00    +0.000 A 
ATOM      3  C   UNL     1      38.514  31.994  47.899  0.00  0.00    +0.000 A 
ATOM      4  C   UNL     1      38.793  32.425  46.602  0.00  0.00    +0.000 A 
ATOM      5  N   UNL     1      39.730  33.357  46.228  0.00  0.00    +0.000 N 
ATOM      6  C   UNL     1      39.642  33.446  44.893  0.00  0.00    +0.000 A 
ATOM      7  N   UNL     1      38.707  32.625  44.422  0.00  0.00    +0.000 NA
ATOM      8  C   UNL     1      38.160  31.975  45.470  0.00  0.00    +0.000 A 
ATOM      9  C   UNL     1      37.164  31.014  45.634  0.00  0.00    +0.000 A 
ATOM     10  H   UNL     1      36.068  29.805  46.989  0.00  0.00    +0.000 HD
ATOM     11  H   UNL     1      39.029  32.368  48.763  0.00  0.00    +0.000 HD
ATOM     12  H   UNL     1      40.379  33.884  46.886  0.00  0.00    +0.000 HD
ATOM     13  H   UNL     1      36.663  30.657  44.745  0.00  0.00    +0.000 HD
ENDROOT
BRANCH   2  16
ATOM     14  C   UNL     1      37.387  30.087  51.667  0.00  0.00    +0.000 A 
ATOM     15  C   UNL     1      37.849  30.637  50.481  0.00  0.00    +0.000 A 
ATOM     16  C   UNL     1      37.126  30.502  49.316  0.00  0.00    +0.000 A 
ATOM     17  N   UNL     1      35.954  29.811  49.395  0.00  0.00    +0.000 NA
ATOM     18  C   UNL     1      35.515  29.278  50.562  0.00  0.00    +0.000 A 
ATOM     19  N   UNL     1      36.225  29.418  51.676  0.00  0.00    +0.000 NA
ATOM     20  H   UNL     1      37.962  30.198  52.578  0.00  0.00    +0.000 HD
ATOM     21  H   UNL     1      38.782  31.184  50.431  0.00  0.00    +0.000 HD
ATOM     22  H   UNL     1      34.573  28.725  50.615  0.00  0.00    +0.000 HD
ENDBRANCH   2  16
BRANCH   6  23
ATOM     23  O   UNL     1      40.469  34.318  44.182  0.00  0.00    +0.000 OA
BRANCH  23  28
ATOM     24  H   UNL     1      38.423  34.059  39.602  0.00  0.00    +0.000 HD
ATOM     25  N   UNL     1      38.697  33.642  40.502  0.00  0.00    +0.000 NA
ATOM     26  C   UNL     1      40.116  33.380  40.608  0.00  0.00    +0.000 C 
ATOM     27  C   UNL     1      40.452  33.124  42.079  0.00  0.00    +0.000 C 
ATOM     28  C   UNL     1      40.424  34.457  42.779  0.00  0.00    +0.000 C 
ATOM     29  C   UNL     1      39.230  35.221  42.304  0.00  0.00    +0.000 C 
ATOM     30  C   UNL     1      38.178  34.343  41.651  0.00  0.00    +0.000 C 
ENDBRANCH  23  28
ENDBRANCH   6  23
TORSDOF 3
