
 OpenBabel03272501583D

 29 31  0  0  0  0  0  0  0  0999 V2000
   34.1490   28.8470   48.0310 C   0  0  0  0  0  0  0  0  0  0  0  0
   34.0820   29.9550   48.0170 H   0  0  0  0  0  0  0  0  0  0  0  0
   34.7810   28.5680   47.1750 H   0  0  0  0  0  0  0  0  0  0  0  0
   32.7720   28.2700   47.9320 C   0  0  0  0  0  0  0  0  0  0  0  0
   32.0760   27.6150   48.9220 C   0  0  0  0  0  0  0  0  0  0  0  0
   30.8260   27.2190   48.4660 C   0  0  0  0  0  0  0  0  0  0  0  0
   30.8090   27.6560   47.1910 N   0  0  0  0  0  0  0  0  0  0  0  0
   31.9400   28.2660   46.8830 N   0  0  0  0  0  0  0  0  0  0  0  0
   32.4920   27.4530   49.9180 H   0  0  0  0  0  0  0  0  0  0  0  0
   30.1000   26.6890   49.0640 H   0  0  0  0  0  0  0  0  0  0  0  0
   27.7410   30.2560   47.7970 H   0  0  0  0  0  0  0  0  0  0  0  0
   28.3400   29.4780   47.4180 N   0  0  0  0  0  0  0  0  0  0  0  0
   27.6010   28.2510   47.4970 C   0  0  0  0  0  2  0  0  0  0  0  0
   28.4320   27.0860   47.0290 C   0  0  0  0  0  2  0  0  0  0  0  0
   29.6760   27.4660   46.2930 C   0  0  0  0  0  3  0  0  0  0  0  0
   29.4140   28.6420   45.4110 C   0  0  0  0  0  2  0  0  0  0  0  0
   28.7270   29.7900   46.0740 C   0  0  0  0  0  2  0  0  0  0  0  0
   34.7470   28.3070   49.2990 C   0  0  0  0  0  0  0  0  0  0  0  0
   34.0380   28.3380   50.1420 H   0  0  0  0  0  0  0  0  0  0  0  0
   35.1080   27.2620   49.1510 H   0  0  0  0  0  0  0  0  0  0  0  0
   37.2020   30.1610   51.3660 C   0  0  0  0  0  0  0  0  0  0  0  0
   38.0500   30.7330   50.3900 C   0  0  0  0  0  0  0  0  0  0  0  0
   37.7500   30.4640   49.0330 C   0  0  0  0  0  0  0  0  0  0  0  0
   36.6860   29.6840   48.7310 N   0  0  0  0  0  0  0  0  0  0  0  0
   35.9070   29.1610   49.7100 C   0  0  0  0  0  0  0  0  0  0  0  0
   36.1680   29.3990   50.9840 N   0  0  0  0  0  0  0  0  0  0  0  0
   37.4130   30.3540   52.4030 H   0  0  0  0  0  0  0  0  0  0  0  0
   38.8830   31.3480   50.7050 H   0  0  0  0  0  0  0  0  0  0  0  0
   38.3940   30.8990   48.2730 H   0  0  0  0  0  0  0  0  0  0  0  0
  1 18  1  0  0  0  0
  2  1  1  0  0  0  0
  3  1  1  0  0  0  0
  4  1  1  0  0  0  0
  4  5  1  0  0  0  0
  5  9  1  0  0  0  0
  6  5  2  0  0  0  0
  6 10  1  0  0  0  0
  7  6  1  0  0  0  0
  8  7  1  0  0  0  0
  8  4  2  0  0  0  0
 12 13  1  0  0  0  0
 12 11  1  0  0  0  0
 14 13  1  0  0  0  0
 15 14  1  0  0  0  0
 15  7  1  0  0  0  0
 16 17  1  0  0  0  0
 16 15  1  0  0  0  0
 17 12  1  0  0  0  0
 18 25  1  0  0  0  0
 18 19  1  0  0  0  0
 20 18  1  0  0  0  0
 21 27  1  0  0  0  0
 22 28  1  0  0  0  0
 22 21  2  0  0  0  0
 23 22  1  0  0  0  0
 24 23  2  0  0  0  0
 24 25  1  0  0  0  0
 25 26  2  0  0  0  0
 26 21  1  0  0  0  0
 29 23  1  0  0  0  0
M  END
>  <minimizedAffinity>
-4.81039

>  <minimizedRMSD>
1.02043736

$$$$
