REMARK  Name = 
REMARK  4 active torsions:
REMARK  status: ('A' for Active; 'I' for Inactive)
REMARK    1  A    between atoms: C_1  and  C_6
REMARK    2  A    between atoms: C_1  and  C_8
REMARK    3  A    between atoms: C_8  and  C_9
REMARK    4  A    between atoms: N_12  and  C_27
REMARK                            x       y       z     vdW  Elec       q    Type
REMARK                         _______ _______ _______ _____ _____    ______ ____
ROOT
ATOM      1  C   UNL     1      34.443  28.245  48.090  0.00  0.00    +0.000 C 
ATOM      2  H   UNL     1      34.896  29.103  47.552  0.00  0.00    +0.000 HD
ATOM      3  H   UNL     1      34.909  27.341  47.673  0.00  0.00    +0.000 HD
ENDROOT
BRANCH   1   4
ATOM      4  C   UNL     1      32.960  28.264  47.886  0.00  0.00    +0.000 A 
ATOM      5  C   UNL     1      32.013  27.603  48.635  0.00  0.00    +0.000 A 
ATOM      6  C   UNL     1      30.737  27.857  48.150  0.00  0.00    +0.000 A 
ATOM      7  N   UNL     1      30.961  28.678  47.105  0.00  0.00    +0.000 N 
ATOM      8  N   UNL     1      32.252  28.913  46.954  0.00  0.00    +0.000 NA
ATOM      9  H   UNL     1      32.278  26.975  49.487  0.00  0.00    +0.000 HD
ATOM     10  H   UNL     1      29.833  27.448  48.575  0.00  0.00    +0.000 HD
BRANCH   7  15
ATOM     11  H   UNL     1      27.361  26.846  47.588  0.00  0.00    +0.000 HD
ATOM     12  N   UNL     1      28.128  27.488  47.255  0.00  0.00    +0.000 NA
ATOM     13  C   UNL     1      28.244  27.363  45.831  0.00  0.00    +0.000 C 
ATOM     14  C   UNL     1      29.371  28.209  45.301  0.00  0.00    +0.000 C 
ATOM     15  C   UNL     1      29.896  29.220  46.269  0.00  0.00    +0.000 C 
ATOM     16  C   UNL     1      28.773  29.817  47.053  0.00  0.00    +0.000 C 
ATOM     17  C   UNL     1      27.829  28.831  47.657  0.00  0.00    +0.000 C 
ENDBRANCH   7  15
ENDBRANCH   1   4
BRANCH   1  18
ATOM     18  C   UNL     1      34.669  28.292  49.575  0.00  0.00    +0.000 C 
ATOM     19  H   UNL     1      33.828  28.761  50.111  0.00  0.00    +0.000 HD
ATOM     20  H   UNL     1      34.847  27.268  49.979  0.00  0.00    +0.000 HD
BRANCH  18  25
ATOM     21  C   UNL     1      37.285  30.182  51.397  0.00  0.00    +0.000 A 
ATOM     22  C   UNL     1      38.075  30.698  50.344  0.00  0.00    +0.000 A 
ATOM     23  C   UNL     1      37.682  30.380  49.022  0.00  0.00    +0.000 A 
ATOM     24  N   UNL     1      36.587  29.608  48.824  0.00  0.00    +0.000 NA
ATOM     25  C   UNL     1      35.867  29.140  49.873  0.00  0.00    +0.000 A 
ATOM     26  N   UNL     1      36.216  29.425  51.116  0.00  0.00    +0.000 NA
ATOM     27  H   UNL     1      37.567  30.413  52.409  0.00  0.00    +0.000 HD
ATOM     28  H   UNL     1      38.937  31.309  50.578  0.00  0.00    +0.000 HD
ATOM     29  H   UNL     1      38.281  30.771  48.204  0.00  0.00    +0.000 HD
ENDBRANCH  18  25
ENDBRANCH   1  18
TORSDOF 4
