
 OpenBabel03272501573D

 29 31  0  0  0  0  0  0  0  0999 V2000
   34.3720   28.4910   48.0380 C   0  0  0  0  0  0  0  0  0  0  0  0
   34.5990   29.5170   47.6820 H   0  0  0  0  0  0  0  0  0  0  0  0
   34.9360   27.8090   47.3870 H   0  0  0  0  0  0  0  0  0  0  0  0
   32.8950   28.2590   47.9600 C   0  0  0  0  0  0  0  0  0  0  0  0
   32.0850   27.7430   48.9460 C   0  0  0  0  0  0  0  0  0  0  0  0
   30.7670   27.6730   48.5130 C   0  0  0  0  0  0  0  0  0  0  0  0
   30.8280   28.1570   47.2570 N   0  0  0  0  0  0  0  0  0  0  0  0
   32.0640   28.4970   46.9380 N   0  0  0  0  0  0  0  0  0  0  0  0
   32.4720   27.4450   49.9210 H   0  0  0  0  0  0  0  0  0  0  0  0
   29.9500   27.3020   49.1120 H   0  0  0  0  0  0  0  0  0  0  0  0
   30.0770   24.8580   45.0010 H   0  0  0  0  0  0  0  0  0  0  0  0
   30.0180   25.8160   45.4320 N   0  0  0  0  0  0  0  0  0  0  0  0
   30.0460   26.7930   44.3820 C   0  0  0  0  0  2  0  0  0  0  0  0
   30.0300   28.1920   44.9400 C   0  0  0  0  0  2  0  0  0  0  0  0
   29.6640   28.2780   46.3870 C   0  0  0  0  0  3  0  0  0  0  0  0
   28.5820   27.2990   46.7060 C   0  0  0  0  0  2  0  0  0  0  0  0
   28.8260   25.9070   46.2230 C   0  0  0  0  0  2  0  0  0  0  0  0
   34.7630   28.2620   49.4710 C   0  0  0  0  0  0  0  0  0  0  0  0
   33.9600   28.5410   50.1730 H   0  0  0  0  0  0  0  0  0  0  0  0
   35.0530   27.1980   49.6350 H   0  0  0  0  0  0  0  0  0  0  0  0
   37.2740   30.1890   51.4000 C   0  0  0  0  0  0  0  0  0  0  0  0
   38.0810   30.7420   50.3790 C   0  0  0  0  0  0  0  0  0  0  0  0
   37.7360   30.4350   49.0410 C   0  0  0  0  0  0  0  0  0  0  0  0
   36.6680   29.6390   48.7990 N   0  0  0  0  0  0  0  0  0  0  0  0
   35.9290   29.1360   49.8180 C   0  0  0  0  0  0  0  0  0  0  0  0
   36.2340   29.4100   51.0750 N   0  0  0  0  0  0  0  0  0  0  0  0
   37.5200   30.4110   52.4230 H   0  0  0  0  0  0  0  0  0  0  0  0
   38.9190   31.3710   50.6480 H   0  0  0  0  0  0  0  0  0  0  0  0
   38.3490   30.8550   48.2480 H   0  0  0  0  0  0  0  0  0  0  0  0
  1 18  1  0  0  0  0
  2  1  1  0  0  0  0
  3  1  1  0  0  0  0
  4  1  1  0  0  0  0
  4  5  1  0  0  0  0
  5  9  1  0  0  0  0
  6  5  2  0  0  0  0
  6 10  1  0  0  0  0
  7  6  1  0  0  0  0
  8  7  1  0  0  0  0
  8  4  2  0  0  0  0
 11 12  1  0  0  0  0
 12 17  1  0  0  0  0
 13 14  1  0  0  0  0
 13 12  1  0  0  0  0
 14 15  1  0  0  0  0
 15 16  1  0  0  0  0
 15  7  1  0  0  0  0
 17 16  1  0  0  0  0
 18 20  1  0  0  0  0
 18 25  1  0  0  0  0
 18 19  1  0  0  0  0
 21 27  1  0  0  0  0
 22 28  1  0  0  0  0
 22 21  2  0  0  0  0
 23 22  1  0  0  0  0
 24 23  2  0  0  0  0
 24 25  1  0  0  0  0
 25 26  2  0  0  0  0
 26 21  1  0  0  0  0
 29 23  1  0  0  0  0
M  END
>  <minimizedAffinity>
-4.60515833

>  <minimizedRMSD>
1.12856126

$$$$
