
     RDKit          3D

 30 31  0  0  0  0  0  0  0  0999 V2000
   36.7829   29.6812   51.1224 C   0  0  0  0  0  0  0  0  0  0  0  0
   37.3016   30.0690   49.8908 C   0  0  0  0  0  0  0  0  0  0  0  0
   36.5474   29.8575   48.7551 C   0  0  0  0  0  0  0  0  0  0  0  0
   35.3174   29.2723   48.8991 N   0  0  0  0  0  0  0  0  0  0  0  0
   34.8339   28.9043   50.1012 C   0  0  0  0  0  0  0  0  0  0  0  0
   35.5715   29.1146   51.1829 N   0  0  0  0  0  0  0  0  0  0  0  0
   38.6317   32.0616   49.5016 C   0  0  0  0  0  0  0  0  0  0  0  0
   37.8107   33.0316   49.4577 O   0  0  0  0  0  0  0  0  0  0  0  0
   38.5405   30.6675   49.6709 N   0  0  0  0  0  0  0  0  0  0  0  0
   37.6563   29.9593   52.1622 O   0  0  0  0  0  0  0  0  0  0  0  0
   36.8860   30.1344   47.7540 H   0  0  0  0  0  0  0  0  0  0  0  0
   33.8634   28.4416   50.2224 H   0  0  0  0  0  0  0  0  0  0  0  0
   39.4102   32.8032   49.3508 H   0  0  0  0  0  0  0  0  0  0  0  0
   39.5065   30.2857   49.5955 H   0  0  0  0  0  0  0  0  0  0  0  0
   36.0415   30.2343   57.0025 H   0  0  0  0  0  0  0  0  0  0  0  0
   36.3759   29.8799   56.0693 N   0  0  0  0  0  0  0  0  0  0  0  0
   37.7594   30.2548   55.8686 C   0  0  0  0  0  0  0  0  0  0  0  0
   38.0639   30.5813   54.4306 C   0  0  0  0  0  0  0  0  0  0  0  0
   37.3137   29.6409   53.4917 C   0  0  0  0  0  0  0  0  0  0  0  0
   35.8443   29.7212   53.7446 C   0  0  0  0  0  0  0  0  0  0  0  0
   35.5649   30.4813   55.0317 C   0  0  0  0  0  0  0  0  0  0  0  0
   37.9902   31.1548   56.4735 H   0  0  0  0  0  0  0  0  0  0  0  0
   38.4474   29.4546   56.2459 H   0  0  0  0  0  0  0  0  0  0  0  0
   39.1628   30.4201   54.2872 H   0  0  0  0  0  0  0  0  0  0  0  0
   37.7905   31.6322   54.2114 H   0  0  0  0  0  0  0  0  0  0  0  0
   37.6550   28.5998   53.7556 H   0  0  0  0  0  0  0  0  0  0  0  0
   35.2969   30.2181   52.9076 H   0  0  0  0  0  0  0  0  0  0  0  0
   35.3839   28.7183   53.8650 H   0  0  0  0  0  0  0  0  0  0  0  0
   34.4860   30.3261   55.2412 H   0  0  0  0  0  0  0  0  0  0  0  0
   35.7623   31.5744   54.9171 H   0  0  0  0  0  0  0  0  0  0  0  0
  1  6  1  0
  1 10  1  0
  2  1  2  0
  3  4  2  0
  3  2  1  0
  4  5  1  0
  5  6  2  0
  7  9  1  0
  8  7  2  0
  9  2  1  0
  3 11  1  0
  5 12  1  0
  7 13  1  0
  9 14  1  0
 15 16  1  0
 16 17  1  0
 17 18  1  0
 18 19  1  0
 19 20  1  0
 20 21  1  0
 21 16  1  0
 17 22  1  0
 17 23  1  0
 18 24  1  0
 18 25  1  0
 19 26  1  0
 20 27  1  0
 20 28  1  0
 21 29  1  0
 21 30  1  0
 10 19  1  0
M  ISO  4  11  14  12  14  13   6  15   5
M  END
>  <DihAtoms>  (1) 
0,9,18,17

>  <DihDeg>  (1) 
116.20626524893599

$$$$
