
     RDKit          3D

 38 40  0  0  0  0  0  0  0  0999 V2000
   36.8028   32.1840   50.1242 Cl  0  0  0  0  0  0  0  0  0  0  0  0
   37.5405   31.9228   48.5823 C   0  0  0  0  0  0  0  0  0  0  0  0
   36.9642   30.9120   47.8810 C   0  0  0  0  0  0  0  0  0  0  0  0
   37.4870   30.6076   46.5998 C   0  0  0  0  0  0  0  0  0  0  0  0
   38.5390   31.3050   46.0779 C   0  0  0  0  0  0  0  0  0  0  0  0
   39.0995   32.3224   46.8138 C   0  0  0  0  0  0  0  0  0  0  0  0
   40.4406   33.2433   46.1988 Cl  0  0  0  0  0  0  0  0  0  0  0  0
   38.5968   32.6128   48.0423 C   0  0  0  0  0  0  0  0  0  0  0  0
   36.0418   29.0919   49.2620 C   0  0  0  0  0  0  0  0  0  0  0  0
   35.8334   30.0308   48.2356 C   0  0  0  0  0  0  0  0  0  0  0  0
   34.5852   30.0966   47.5966 C   0  0  0  0  0  0  0  0  0  0  0  0
   33.6365   29.2124   48.0370 N   0  0  0  0  0  0  0  0  0  0  0  0
   33.8582   28.3249   49.0187 C   0  0  0  0  0  0  0  0  0  0  0  0
   35.0786   28.2579   49.6460 N   0  0  0  0  0  0  0  0  0  0  0  0
   39.1375   33.6874   48.8977 C   0  0  0  0  0  0  0  0  0  0  0  0
   39.2825   34.8870   48.6746 O   0  0  0  0  0  0  0  0  0  0  0  0
   39.6200   33.5343   50.2126 O   0  0  0  0  0  0  0  0  0  0  0  0
   37.1007   29.8282   45.9698 H   0  0  0  0  0  0  0  0  0  0  0  0
   38.9602   31.0953   45.1015 H   0  0  0  0  0  0  0  0  0  0  0  0
   36.9800   28.9974   49.7869 H   0  0  0  0  0  0  0  0  0  0  0  0
   34.4586   30.8134   46.8279 H   0  0  0  0  0  0  0  0  0  0  0  0
   33.0913   27.6576   49.3276 H   0  0  0  0  0  0  0  0  0  0  0  0
   41.1529   36.9838   53.1560 H   0  0  0  0  0  0  0  0  0  0  0  0
   40.2618   36.5171   52.9237 N   0  0  0  0  0  0  0  0  0  0  0  0
   40.0839   35.2078   53.4111 C   0  0  0  0  0  0  0  0  0  0  0  0
   40.1938   34.0924   52.4153 C   0  0  0  0  0  0  0  0  0  0  0  0
   40.1209   34.5686   50.9857 C   0  0  0  0  0  0  0  0  0  0  0  0
   39.2081   35.7654   50.8337 C   0  0  0  0  0  0  0  0  0  0  0  0
   39.5805   36.8944   51.7534 C   0  0  0  0  0  0  0  0  0  0  0  0
   40.8093   35.0235   54.2300 H   0  0  0  0  0  0  0  0  0  0  0  0
   39.0584   35.1452   53.8665 H   0  0  0  0  0  0  0  0  0  0  0  0
   39.4132   33.3280   52.5688 H   0  0  0  0  0  0  0  0  0  0  0  0
   41.1774   33.5559   52.5268 H   0  0  0  0  0  0  0  0  0  0  0  0
   41.1316   34.9358   50.7329 H   0  0  0  0  0  0  0  0  0  0  0  0
   38.1809   35.4090   50.9854 H   0  0  0  0  0  0  0  0  0  0  0  0
   39.2929   36.1064   49.7822 H   0  0  0  0  0  0  0  0  0  0  0  0
   40.2256   37.6287   51.2056 H   0  0  0  0  0  0  0  0  0  0  0  0
   38.6483   37.4407   52.0069 H   0  0  0  0  0  0  0  0  0  0  0  0
  2  1  1  0
  3 10  1  0
  3  2  2  0
  4  3  1  0
  5  4  2  0
  5  6  1  0
  6  8  2  0
  7  6  1  0
  8  2  1  0
  8 15  1  0
  9 14  2  0
 10  9  1  0
 11 12  1  0
 11 10  2  0
 12 13  2  0
 13 14  1  0
 15 17  1  0
 16 15  2  0
  4 18  1  0
  5 19  1  0
  9 20  1  0
 11 21  1  0
 13 22  1  0
 23 24  1  0
 24 25  1  0
 25 26  1  0
 26 27  1  0
 27 28  1  0
 28 29  1  0
 29 24  1  0
 25 30  1  0
 25 31  1  0
 26 32  1  0
 26 33  1  0
 27 34  1  0
 28 35  1  0
 28 36  1  0
 29 37  1  0
 29 38  1  0
 17 27  1  0
M  ISO  6  18  14  19  14  20  14  21  14  22  14  23   5
M  END
>  <DihAtoms>  (1) 
14,16,26,25

>  <DihDeg>  (1) 
-119.51514804080249

$$$$
