
     RDKit          3D

 30 31  0  0  0  0  0  0  0  0999 V2000
   36.7829   29.6812   51.1224 C   0  0  0  0  0  0  0  0  0  0  0  0
   37.3016   30.0690   49.8908 C   0  0  0  0  0  0  0  0  0  0  0  0
   36.5474   29.8575   48.7551 C   0  0  0  0  0  0  0  0  0  0  0  0
   35.3174   29.2723   48.8991 N   0  0  0  0  0  0  0  0  0  0  0  0
   34.8339   28.9043   50.1012 C   0  0  0  0  0  0  0  0  0  0  0  0
   35.5715   29.1146   51.1829 N   0  0  0  0  0  0  0  0  0  0  0  0
   38.6317   32.0616   49.5016 C   0  0  0  0  0  0  0  0  0  0  0  0
   37.8107   33.0316   49.4577 O   0  0  0  0  0  0  0  0  0  0  0  0
   38.5405   30.6675   49.6709 N   0  0  0  0  0  0  0  0  0  0  0  0
   37.6563   29.9593   52.1622 O   0  0  0  0  0  0  0  0  0  0  0  0
   36.8860   30.1344   47.7540 H   0  0  0  0  0  0  0  0  0  0  0  0
   33.8634   28.4416   50.2224 H   0  0  0  0  0  0  0  0  0  0  0  0
   39.4102   32.8032   49.3508 H   0  0  0  0  0  0  0  0  0  0  0  0
   39.5065   30.2857   49.5955 H   0  0  0  0  0  0  0  0  0  0  0  0
   37.1225   30.0749   57.2429 H   0  0  0  0  0  0  0  0  0  0  0  0
   37.0362   29.8200   56.2251 N   0  0  0  0  0  0  0  0  0  0  0  0
   38.2760   29.2371   55.7580 C   0  0  0  0  0  0  0  0  0  0  0  0
   38.5865   29.6116   54.3330 C   0  0  0  0  0  0  0  0  0  0  0  0
   37.3137   29.6409   53.4917 C   0  0  0  0  0  0  0  0  0  0  0  0
   36.3275   30.5961   54.0787 C   0  0  0  0  0  0  0  0  0  0  0  0
   36.7635   31.0253   55.4708 C   0  0  0  0  0  0  0  0  0  0  0  0
   39.1140   29.5950   56.3896 H   0  0  0  0  0  0  0  0  0  0  0  0
   38.2627   28.1231   55.8795 H   0  0  0  0  0  0  0  0  0  0  0  0
   39.2591   28.8134   53.9272 H   0  0  0  0  0  0  0  0  0  0  0  0
   39.0860   30.5998   54.2979 H   0  0  0  0  0  0  0  0  0  0  0  0
   36.8742   28.6052   53.5557 H   0  0  0  0  0  0  0  0  0  0  0  0
   36.1930   31.5074   53.4473 H   0  0  0  0  0  0  0  0  0  0  0  0
   35.3201   30.1435   54.1899 H   0  0  0  0  0  0  0  0  0  0  0  0
   35.8954   31.5664   55.9014 H   0  0  0  0  0  0  0  0  0  0  0  0
   37.6426   31.7129   55.4348 H   0  0  0  0  0  0  0  0  0  0  0  0
  1  6  1  0
  1 10  1  0
  2  1  2  0
  3  4  2  0
  3  2  1  0
  4  5  1  0
  5  6  2  0
  7  9  1  0
  8  7  2  0
  9  2  1  0
  3 11  1  0
  5 12  1  0
  7 13  1  0
  9 14  1  0
 15 16  1  0
 16 17  1  0
 17 18  1  0
 18 19  1  0
 19 20  1  0
 20 21  1  0
 21 16  1  0
 17 22  1  0
 17 23  1  0
 18 24  1  0
 18 25  1  0
 19 26  1  0
 20 27  1  0
 20 28  1  0
 21 29  1  0
 21 30  1  0
 10 19  1  0
M  ISO  4  11  14  12  14  13   6  15   5
M  END
>  <DihAtoms>  (1) 
0,9,18,17

>  <DihDeg>  (1) 
116.20626524893599

$$$$
