
 OpenBabel03272502593D

 32 34  0  0  1  0  0  0  0  0999 V2000
   36.8020   30.1740   48.5240 N   0  0  0  0  0  0  0  0  0  0  0  0
   37.6880   29.8120   49.6070 C   0  0  0  0  0  0  0  0  0  0  0  0
   38.3120   30.8940   50.3740 C   0  0  0  0  0  0  0  0  0  0  0  0
   38.4810   32.2040   49.7290 C   0  0  0  0  0  0  0  0  0  0  0  0
   37.5650   32.4530   48.5700 C   0  0  0  0  0  0  0  0  0  0  0  0
   37.4530   31.1840   47.7230 C   0  0  1  0  0  0  0  0  0  0  0  0
   38.4650   29.1370   49.1670 H   0  0  0  0  0  0  0  0  0  0  0  0
   37.0930   29.1490   50.2700 H   0  0  0  0  0  0  0  0  0  0  0  0
   39.3060   30.5360   50.7240 H   0  0  0  0  0  0  0  0  0  0  0  0
   37.7340   31.0330   51.3350 H   0  0  0  0  0  0  0  0  0  0  0  0
   39.5250   32.4020   49.3850 H   0  0  0  0  0  0  0  0  0  0  0  0
   38.2830   33.0360   50.4570 H   0  0  0  0  0  0  0  0  0  0  0  0
   37.9430   33.2740   47.9330 H   0  0  0  0  0  0  0  0  0  0  0  0
   36.5300   32.6710   48.9360 H   0  0  0  0  0  0  0  0  0  0  0  0
   36.9260   31.4150   46.7890 H   0  0  0  0  0  0  0  0  0  0  0  0
   35.4990   29.6120   48.2950 C   0  0  0  0  0  0  0  0  0  0  0  0
   34.6580   29.9990   47.2550 C   0  0  0  0  0  0  0  0  0  0  0  0
   33.4170   29.3610   47.1620 C   0  0  0  0  0  0  0  0  0  0  0  0
   33.1060   28.4150   48.0770 N   0  0  0  0  0  0  0  0  0  0  0  0
   33.9570   28.0710   49.0750 C   0  0  0  0  0  0  0  0  0  0  0  0
   35.1560   28.6780   49.1750 N   0  0  0  0  0  0  0  0  0  0  0  0
   35.0000   30.7530   46.5890 H   0  0  0  0  0  0  0  0  0  0  0  0
   32.7620   29.6580   46.3550 H   0  0  0  0  0  0  0  0  0  0  0  0
   33.6590   27.3070   49.7810 H   0  0  0  0  0  0  0  0  0  0  0  0
   38.7750   30.8190   47.4290 O   0  0  0  0  0  0  0  0  0  0  0  0
   38.7180   34.2310   45.4420 H   0  0  0  0  0  0  0  0  0  0  0  0
   39.1270   33.3960   44.9920 N   0  0  0  0  0  0  0  0  0  0  0  0
   38.2110   32.4690   44.4120 C   0  0  0  0  0  2  0  0  0  0  0  0
   37.8160   31.3260   45.2990 C   0  0  0  0  0  2  0  0  0  0  0  0
   38.9660   30.7560   46.0590 C   0  0  0  0  0  3  0  0  0  0  0  0
   40.3010   31.3730   45.7430 C   0  0  0  0  0  2  0  0  0  0  0  0
   40.2960   32.8510   45.5870 C   0  0  0  0  0  2  0  0  0  0  0  0
  1  2  1  0  0  0  0
  2  8  1  0  0  0  0
  2  3  1  0  0  0  0
  3  9  1  0  0  0  0
  3 10  1  0  0  0  0
  4  3  1  0  0  0  0
  4 12  1  0  0  0  0
  5 14  1  0  0  0  0
  5  4  1  0  0  0  0
  6 15  1  6  0  0  0
  6  1  1  0  0  0  0
  6  5  1  0  0  0  0
  7  2  1  0  0  0  0
 11  4  1  0  0  0  0
 13  5  1  0  0  0  0
 16  1  1  0  0  0  0
 16 21  1  0  0  0  0
 17 16  2  0  0  0  0
 18 17  1  0  0  0  0
 18 19  2  0  0  0  0
 19 20  1  0  0  0  0
 20 21  2  0  0  0  0
 20 24  1  0  0  0  0
 22 17  1  0  0  0  0
 23 18  1  0  0  0  0
 25  6  1  0  0  0  0
 27 26  1  0  0  0  0
 27 32  1  0  0  0  0
 28 27  1  0  0  0  0
 28 29  1  0  0  0  0
 29 30  1  0  0  0  0
 30 25  1  0  0  0  0
 31 30  1  0  0  0  0
 32 31  1  0  0  0  0
M  END
>  <minimizedAffinity>
-5.87443161

>  <minimizedRMSD>
1.49214625

$$$$
