
 OpenBabel03272502593D

 32 34  0  0  1  0  0  0  0  0999 V2000
   35.8120   29.6830   48.7340 N   0  0  0  0  0  0  0  0  0  0  0  0
   36.7160   28.9100   49.5550 C   0  0  0  0  0  0  0  0  0  0  0  0
   37.2910   29.5560   50.7390 C   0  0  0  0  0  0  0  0  0  0  0  0
   37.3970   31.0220   50.7560 C   0  0  0  0  0  0  0  0  0  0  0  0
   36.4680   31.7270   49.8160 C   0  0  0  0  0  0  0  0  0  0  0  0
   36.4130   30.9720   48.4870 C   0  0  1  0  0  0  0  0  0  0  0  0
   37.5220   28.5390   48.8730 H   0  0  0  0  0  0  0  0  0  0  0  0
   36.1540   27.9950   49.8370 H   0  0  0  0  0  0  0  0  0  0  0  0
   38.3010   29.1210   50.9080 H   0  0  0  0  0  0  0  0  0  0  0  0
   36.7090   29.2220   51.6480 H   0  0  0  0  0  0  0  0  0  0  0  0
   38.4300   31.3980   50.5580 H   0  0  0  0  0  0  0  0  0  0  0  0
   37.1620   31.4270   51.7760 H   0  0  0  0  0  0  0  0  0  0  0  0
   36.8060   32.7620   49.6240 H   0  0  0  0  0  0  0  0  0  0  0  0
   35.4240   31.7130   50.2210 H   0  0  0  0  0  0  0  0  0  0  0  0
   35.8740   31.5770   47.7470 H   0  0  0  0  0  0  0  0  0  0  0  0
   34.5360   29.2290   48.2530 C   0  0  0  0  0  0  0  0  0  0  0  0
   33.9690   29.6420   47.0500 C   0  0  0  0  0  0  0  0  0  0  0  0
   32.7170   29.1130   46.7150 C   0  0  0  0  0  0  0  0  0  0  0  0
   32.1350   28.2410   47.5700 N   0  0  0  0  0  0  0  0  0  0  0  0
   32.7250   27.8680   48.7320 C   0  0  0  0  0  0  0  0  0  0  0  0
   33.9310   28.3710   49.0660 N   0  0  0  0  0  0  0  0  0  0  0  0
   34.5110   30.3310   46.4500 H   0  0  0  0  0  0  0  0  0  0  0  0
   32.2750   29.4300   45.7820 H   0  0  0  0  0  0  0  0  0  0  0  0
   32.2160   27.1670   49.3810 H   0  0  0  0  0  0  0  0  0  0  0  0
   37.7500   30.8360   48.0850 O   0  0  0  0  0  0  0  0  0  0  0  0
   40.7250   29.8370   45.6890 H   0  0  0  0  0  0  0  0  0  0  0  0
   40.0400   30.5430   45.3700 N   0  0  0  0  0  0  0  0  0  0  0  0
   40.2210   31.8710   45.8570 C   0  0  0  0  0  2  0  0  0  0  0  0
   39.4270   32.2140   47.0830 C   0  0  0  0  0  2  0  0  0  0  0  0
   38.0290   31.6940   47.0340 C   0  0  0  0  0  3  0  0  0  0  0  0
   37.6570   31.0000   45.7520 C   0  0  0  0  0  2  0  0  0  0  0  0
   38.7010   30.1060   45.1870 C   0  0  0  0  0  2  0  0  0  0  0  0
  1  2  1  0  0  0  0
  2  8  1  0  0  0  0
  2  3  1  0  0  0  0
  3  4  1  0  0  0  0
  3  9  1  0  0  0  0
  3 10  1  0  0  0  0
  4 12  1  0  0  0  0
  5 14  1  0  0  0  0
  5  4  1  0  0  0  0
  6 15  1  6  0  0  0
  6  1  1  0  0  0  0
  6  5  1  0  0  0  0
  7  2  1  0  0  0  0
 11  4  1  0  0  0  0
 13  5  1  0  0  0  0
 16  1  1  0  0  0  0
 16 21  1  0  0  0  0
 17 16  2  0  0  0  0
 18 17  1  0  0  0  0
 18 19  2  0  0  0  0
 19 20  1  0  0  0  0
 20 21  2  0  0  0  0
 20 24  1  0  0  0  0
 22 17  1  0  0  0  0
 23 18  1  0  0  0  0
 25  6  1  0  0  0  0
 27 26  1  0  0  0  0
 27 28  1  0  0  0  0
 28 29  1  0  0  0  0
 30 29  1  0  0  0  0
 30 25  1  0  0  0  0
 31 30  1  0  0  0  0
 32 27  1  0  0  0  0
 32 31  1  0  0  0  0
M  END
>  <minimizedAffinity>
-5.53667974

>  <minimizedRMSD>
1.04892552

$$$$
