REMARK  Name = 
REMARK  3 active torsions:
REMARK  status: ('A' for Active; 'I' for Inactive)
REMARK    1  A    between atoms: N_1  and  C_7
REMARK    2  A    between atoms: C_6  and  O_13
REMARK    3  A    between atoms: O_13  and  C_30
REMARK                            x       y       z     vdW  Elec       q    Type
REMARK                         _______ _______ _______ _____ _____    ______ ____
ROOT
ATOM      1  N   UNL     1      35.972  29.637  48.867  0.00  0.00    +0.000 N 
ATOM      2  C   UNL     1      36.563  28.859  49.932  0.00  0.00    +0.000 C 
ATOM      3  C   UNL     1      37.048  29.573  51.117  0.00  0.00    +0.000 C 
ATOM      4  C   UNL     1      37.428  30.986  50.977  0.00  0.00    +0.000 C 
ATOM      5  C   UNL     1      36.819  31.684  49.800  0.00  0.00    +0.000 C 
ATOM      6  C   UNL     1      36.841  30.755  48.585  0.00  0.00    +0.000 C 
ATOM      7  H   UNL     1      37.385  28.259  49.465  0.00  0.00    +0.000 HD
ATOM      8  H   UNL     1      35.798  28.104  50.210  0.00  0.00    +0.000 HD
ATOM      9  H   UNL     1      37.914  29.007  51.526  0.00  0.00    +0.000 HD
ATOM     10  H   UNL     1      36.271  29.484  51.932  0.00  0.00    +0.000 HD
ATOM     11  H   UNL     1      38.532  31.150  50.935  0.00  0.00    +0.000 HD
ATOM     12  H   UNL     1      37.110  31.576  51.878  0.00  0.00    +0.000 HD
ATOM     13  H   UNL     1      37.376  32.607  49.553  0.00  0.00    +0.000 HD
ATOM     14  H   UNL     1      35.740  31.906  49.998  0.00  0.00    +0.000 HD
ATOM     15  H   UNL     1      36.557  31.321  47.689  0.00  0.00    +0.000 HD
ENDROOT
BRANCH   1  16
ATOM     16  C   UNL     1      34.730  29.334  48.210  0.00  0.00    +0.000 A 
ATOM     17  C   UNL     1      34.257  30.016  47.092  0.00  0.00    +0.000 A 
ATOM     18  C   UNL     1      33.028  29.607  46.563  0.00  0.00    +0.000 A 
ATOM     19  N   UNL     1      32.376  28.584  47.161  0.00  0.00    +0.000 NA
ATOM     20  C   UNL     1      32.875  27.949  48.250  0.00  0.00    +0.000 A 
ATOM     21  N   UNL     1      34.058  28.334  48.769  0.00  0.00    +0.000 NA
ATOM     22  H   UNL     1      34.849  30.806  46.699  0.00  0.00    +0.000 HD
ATOM     23  H   UNL     1      32.658  30.133  45.695  0.00  0.00    +0.000 HD
ATOM     24  H   UNL     1      32.312  27.136  48.690  0.00  0.00    +0.000 HD
ENDBRANCH   1  16
BRANCH   6  25
ATOM     25  O   UNL     1      38.175  30.338  48.464  0.00  0.00    +0.000 OA
BRANCH  25  30
ATOM     26  H   UNL     1      41.084  28.169  46.909  0.00  0.00    +0.000 HD
ATOM     27  N   UNL     1      40.586  28.844  46.306  0.00  0.00    +0.000 NA
ATOM     28  C   UNL     1      40.985  30.209  46.407  0.00  0.00    +0.000 C 
ATOM     29  C   UNL     1      40.174  31.041  47.356  0.00  0.00    +0.000 C 
ATOM     30  C   UNL     1      38.709  30.769  47.261  0.00  0.00    +0.000 C 
ATOM     31  C   UNL     1      38.317  29.783  46.195  0.00  0.00    +0.000 C 
ATOM     32  C   UNL     1      39.206  28.598  46.068  0.00  0.00    +0.000 C 
ENDBRANCH  25  30
ENDBRANCH   6  25
TORSDOF 3
