
 OpenBabel03272502593D

 32 34  0  0  1  0  0  0  0  0999 V2000
   36.7960   30.1750   48.5600 N   0  0  0  0  0  0  0  0  0  0  0  0
   37.6860   29.7810   49.6290 C   0  0  0  0  0  0  0  0  0  0  0  0
   38.3060   30.8400   50.4320 C   0  0  0  0  0  0  0  0  0  0  0  0
   38.4650   32.1720   49.8310 C   0  0  0  0  0  0  0  0  0  0  0  0
   37.5460   32.4550   48.6830 C   0  0  0  0  0  0  0  0  0  0  0  0
   37.4390   31.2160   47.7940 C   0  0  1  0  0  0  0  0  0  0  0  0
   38.4650   29.1260   49.1650 H   0  0  0  0  0  0  0  0  0  0  0  0
   37.0960   29.0930   50.2700 H   0  0  0  0  0  0  0  0  0  0  0  0
   39.3020   30.4750   50.7670 H   0  0  0  0  0  0  0  0  0  0  0  0
   37.7280   30.9430   51.3970 H   0  0  0  0  0  0  0  0  0  0  0  0
   39.5070   32.3880   49.4930 H   0  0  0  0  0  0  0  0  0  0  0  0
   38.2640   32.9780   50.5870 H   0  0  0  0  0  0  0  0  0  0  0  0
   37.9180   33.3000   48.0740 H   0  0  0  0  0  0  0  0  0  0  0  0
   36.5100   32.6550   49.0580 H   0  0  0  0  0  0  0  0  0  0  0  0
   36.9090   31.4760   46.8690 H   0  0  0  0  0  0  0  0  0  0  0  0
   35.4960   29.6140   48.3150 C   0  0  0  0  0  0  0  0  0  0  0  0
   34.6650   30.0070   47.2690 C   0  0  0  0  0  0  0  0  0  0  0  0
   33.4250   29.3690   47.1590 C   0  0  0  0  0  0  0  0  0  0  0  0
   33.1060   28.4170   48.0650 N   0  0  0  0  0  0  0  0  0  0  0  0
   33.9470   28.0660   49.0690 C   0  0  0  0  0  0  0  0  0  0  0  0
   35.1450   28.6740   49.1860 N   0  0  0  0  0  0  0  0  0  0  0  0
   35.0130   30.7660   46.6110 H   0  0  0  0  0  0  0  0  0  0  0  0
   32.7780   29.6710   46.3480 H   0  0  0  0  0  0  0  0  0  0  0  0
   33.6420   27.2980   49.7670 H   0  0  0  0  0  0  0  0  0  0  0  0
   38.7630   30.8690   47.4850 O   0  0  0  0  0  0  0  0  0  0  0  0
   38.7480   34.2500   45.4450 H   0  0  0  0  0  0  0  0  0  0  0  0
   39.1320   33.3990   45.0010 N   0  0  0  0  0  0  0  0  0  0  0  0
   38.1890   32.4840   44.4500 C   0  0  0  0  0  2  0  0  0  0  0  0
   37.7830   31.3620   45.3600 C   0  0  0  0  0  2  0  0  0  0  0  0
   38.9320   30.7800   46.1130 C   0  0  0  0  0  3  0  0  0  0  0  0
   40.2750   31.3630   45.7680 C   0  0  0  0  0  2  0  0  0  0  0  0
   40.3000   32.8380   45.5880 C   0  0  0  0  0  2  0  0  0  0  0  0
  1  2  1  0  0  0  0
  2  8  1  0  0  0  0
  2  3  1  0  0  0  0
  3  9  1  0  0  0  0
  3 10  1  0  0  0  0
  4  3  1  0  0  0  0
  4 12  1  0  0  0  0
  5 14  1  0  0  0  0
  5  4  1  0  0  0  0
  6 15  1  6  0  0  0
  6  1  1  0  0  0  0
  6  5  1  0  0  0  0
  7  2  1  0  0  0  0
 11  4  1  0  0  0  0
 13  5  1  0  0  0  0
 16  1  1  0  0  0  0
 16 21  1  0  0  0  0
 17 16  2  0  0  0  0
 18 17  1  0  0  0  0
 18 19  2  0  0  0  0
 19 20  1  0  0  0  0
 20 21  2  0  0  0  0
 20 24  1  0  0  0  0
 22 17  1  0  0  0  0
 23 18  1  0  0  0  0
 25  6  1  0  0  0  0
 27 26  1  0  0  0  0
 27 32  1  0  0  0  0
 28 27  1  0  0  0  0
 28 29  1  0  0  0  0
 29 30  1  0  0  0  0
 30 25  1  0  0  0  0
 31 30  1  0  0  0  0
 32 31  1  0  0  0  0
M  END
>  <minimizedAffinity>
-5.87096071

>  <minimizedRMSD>
1.53780305

$$$$
