
 OpenBabel03262520113D

 34 36  0  0  0  0  0  0  0  0999 V2000
   37.2940   31.7320   48.1920 Br  0  0  0  0  0  0  0  0  0  0  0  0
   36.5190   30.8320   46.6900 C   0  0  0  0  0  0  0  0  0  0  0  0
   37.1900   30.7510   45.4980 C   0  0  0  0  0  0  0  0  0  0  0  0
   36.5830   30.0940   44.4510 C   0  0  0  0  0  0  0  0  0  0  0  0
   35.3390   29.5230   44.5630 C   0  0  0  0  0  0  0  0  0  0  0  0
   34.6850   29.6220   45.7840 C   0  0  0  0  0  0  0  0  0  0  0  0
   35.2920   30.2830   46.8460 C   0  0  0  0  0  0  0  0  0  0  0  0
   37.1550   30.0580   43.5330 H   0  0  0  0  0  0  0  0  0  0  0  0
   34.9720   29.0400   43.6860 H   0  0  0  0  0  0  0  0  0  0  0  0
   33.7260   29.1350   45.7280 H   0  0  0  0  0  0  0  0  0  0  0  0
   39.7810   33.2200   44.7550 C   0  0  0  0  0  0  0  0  0  0  0  0
   40.9990   32.5160   45.0000 C   0  0  0  0  0  0  0  0  0  0  0  0
   40.8920   31.1990   45.4190 C   0  0  0  0  0  0  0  0  0  0  0  0
   39.6520   30.6320   45.5810 N   0  0  0  0  0  0  0  0  0  0  0  0
   38.5230   31.3500   45.3330 C   0  0  0  0  0  0  0  0  0  0  0  0
   38.6080   32.6330   44.9240 N   0  0  0  0  0  0  0  0  0  0  0  0
   39.8170   34.2340   44.4330 H   0  0  0  0  0  0  0  0  0  0  0  0
   41.9600   33.0150   44.8580 H   0  0  0  0  0  0  0  0  0  0  0  0
   41.8010   30.6160   45.6200 H   0  0  0  0  0  0  0  0  0  0  0  0
   34.4790   30.3140   48.0980 C   0  0  0  0  0  0  0  0  0  0  0  0
   33.4630   30.6710   47.8050 H   0  0  0  0  0  0  0  0  0  0  0  0
   34.8810   31.0620   48.8180 H   0  0  0  0  0  0  0  0  0  0  0  0
   34.3940   28.9940   48.7810 C   0  0  0  0  0  0  0  0  0  0  0  0
   33.9790   29.2280   49.8140 H   0  0  0  0  0  0  0  0  0  0  0  0
   33.7180   28.2550   48.3790 H   0  0  0  0  0  0  0  0  0  0  0  0
   35.7440   28.5350   49.0580 N   0  0  0  0  0  0  0  0  0  0  0  0
   36.0110   27.7020   48.4990 H   0  0  0  0  0  0  0  0  0  0  0  0
   38.4540   30.6050   52.2540 H   0  0  0  0  0  0  0  0  0  0  0  0
   37.7830   30.2880   51.5590 N   0  0  0  0  0  0  0  0  0  0  0  0
   36.4260   30.5870   51.6500 C   0  0  0  0  0  2  0  0  0  0  0  0
   35.4530   29.5190   51.2810 C   0  0  0  0  0  2  0  0  0  0  0  0
   35.9840   28.3990   50.4690 C   0  0  0  0  0  3  0  0  0  0  0  0
   37.4530   28.1250   50.6960 C   0  0  0  0  0  2  0  0  0  0  0  0
   38.2520   29.4300   50.5320 C   0  0  0  0  0  2  0  0  0  0  0  0
  2  7  1  0  0  0  0
  2  1  1  0  0  0  0
  3  2  2  0  0  0  0
  4  5  2  0  0  0  0
  4  3  1  0  0  0  0
  5  6  1  0  0  0  0
  6  7  2  0  0  0  0
  7 20  1  0  0  0  0
  8  4  1  0  0  0  0
  9  5  1  0  0  0  0
 10  6  1  0  0  0  0
 11 16  2  0  0  0  0
 11 12  1  0  0  0  0
 12 13  2  0  0  0  0
 13 14  1  0  0  0  0
 13 19  1  0  0  0  0
 15  3  1  0  0  0  0
 15 14  2  0  0  0  0
 16 15  1  0  0  0  0
 17 11  1  0  0  0  0
 18 12  1  0  0  0  0
 20 23  1  0  0  0  0
 20 22  1  0  0  0  0
 21 20  1  0  0  0  0
 23 26  1  0  0  0  0
 23 24  1  0  0  0  0
 25 23  1  0  0  0  0
 26 32  1  0  0  0  0
 27 26  1  0  0  0  0
 29 30  1  0  0  0  0
 29 28  1  0  0  0  0
 31 30  1  0  0  0  0
 32 33  1  0  0  0  0
 32 31  1  0  0  0  0
 34 33  1  0  0  0  0
 34 29  1  0  0  0  0
M  END
>  <minimizedAffinity>
-2.81009436

>  <minimizedRMSD>
0.954235375

$$$$
