
 OpenBabel03262520113D

 34 36  0  0  0  0  0  0  0  0999 V2000
   37.2940   31.7300   48.1920 Br  0  0  0  0  0  0  0  0  0  0  0  0
   36.5190   30.8310   46.6900 C   0  0  0  0  0  0  0  0  0  0  0  0
   37.1890   30.7520   45.4980 C   0  0  0  0  0  0  0  0  0  0  0  0
   36.5830   30.0950   44.4500 C   0  0  0  0  0  0  0  0  0  0  0  0
   35.3390   29.5240   44.5620 C   0  0  0  0  0  0  0  0  0  0  0  0
   34.6860   29.6210   45.7830 C   0  0  0  0  0  0  0  0  0  0  0  0
   35.2920   30.2820   46.8460 C   0  0  0  0  0  0  0  0  0  0  0  0
   37.1540   30.0600   43.5320 H   0  0  0  0  0  0  0  0  0  0  0  0
   34.9710   29.0410   43.6840 H   0  0  0  0  0  0  0  0  0  0  0  0
   33.7270   29.1340   45.7270 H   0  0  0  0  0  0  0  0  0  0  0  0
   39.7790   33.2220   44.7540 C   0  0  0  0  0  0  0  0  0  0  0  0
   40.9970   32.5190   44.9990 C   0  0  0  0  0  0  0  0  0  0  0  0
   40.8920   31.2010   45.4200 C   0  0  0  0  0  0  0  0  0  0  0  0
   39.6510   30.6340   45.5810 N   0  0  0  0  0  0  0  0  0  0  0  0
   38.5220   31.3510   45.3320 C   0  0  0  0  0  0  0  0  0  0  0  0
   38.6070   32.6340   44.9230 N   0  0  0  0  0  0  0  0  0  0  0  0
   39.8150   34.2360   44.4320 H   0  0  0  0  0  0  0  0  0  0  0  0
   41.9580   33.0180   44.8580 H   0  0  0  0  0  0  0  0  0  0  0  0
   41.8010   30.6190   45.6210 H   0  0  0  0  0  0  0  0  0  0  0  0
   34.4800   30.3110   48.0980 C   0  0  0  0  0  0  0  0  0  0  0  0
   33.4630   30.6670   47.8060 H   0  0  0  0  0  0  0  0  0  0  0  0
   34.8810   31.0600   48.8180 H   0  0  0  0  0  0  0  0  0  0  0  0
   34.3960   28.9910   48.7800 C   0  0  0  0  0  0  0  0  0  0  0  0
   33.9800   29.2240   49.8130 H   0  0  0  0  0  0  0  0  0  0  0  0
   33.7220   28.2510   48.3770 H   0  0  0  0  0  0  0  0  0  0  0  0
   35.7470   28.5340   49.0590 N   0  0  0  0  0  0  0  0  0  0  0  0
   36.0150   27.7010   48.5000 H   0  0  0  0  0  0  0  0  0  0  0  0
   38.4540   30.6080   52.2550 H   0  0  0  0  0  0  0  0  0  0  0  0
   37.7830   30.2900   51.5590 N   0  0  0  0  0  0  0  0  0  0  0  0
   36.4250   30.5880   51.6490 C   0  0  0  0  0  2  0  0  0  0  0  0
   35.4530   29.5180   51.2810 C   0  0  0  0  0  2  0  0  0  0  0  0
   35.9860   28.3990   50.4700 C   0  0  0  0  0  3  0  0  0  0  0  0
   37.4550   28.1260   50.6990 C   0  0  0  0  0  2  0  0  0  0  0  0
   38.2530   29.4320   50.5340 C   0  0  0  0  0  2  0  0  0  0  0  0
  2  7  1  0  0  0  0
  2  1  1  0  0  0  0
  3  2  2  0  0  0  0
  4  5  2  0  0  0  0
  4  3  1  0  0  0  0
  5  6  1  0  0  0  0
  6  7  2  0  0  0  0
  7 20  1  0  0  0  0
  8  4  1  0  0  0  0
  9  5  1  0  0  0  0
 10  6  1  0  0  0  0
 11 16  2  0  0  0  0
 11 12  1  0  0  0  0
 12 13  2  0  0  0  0
 13 14  1  0  0  0  0
 13 19  1  0  0  0  0
 15  3  1  0  0  0  0
 15 14  2  0  0  0  0
 16 15  1  0  0  0  0
 17 11  1  0  0  0  0
 18 12  1  0  0  0  0
 20 23  1  0  0  0  0
 20 22  1  0  0  0  0
 21 20  1  0  0  0  0
 23 26  1  0  0  0  0
 23 24  1  0  0  0  0
 25 23  1  0  0  0  0
 26 32  1  0  0  0  0
 27 26  1  0  0  0  0
 29 30  1  0  0  0  0
 29 28  1  0  0  0  0
 31 30  1  0  0  0  0
 32 33  1  0  0  0  0
 32 31  1  0  0  0  0
 34 33  1  0  0  0  0
 34 29  1  0  0  0  0
M  END
>  <minimizedAffinity>
-2.81167531

>  <minimizedRMSD>
1.06447351

$$$$
