
 OpenBabel03262522443D

 35 38  0  0  1  0  0  0  0  0999 V2000
   35.7060   30.3350   45.7670 C   0  0  1  0  0  0  0  0  0  0  0  0
   34.3840   30.4390   46.3040 C   0  0  0  0  0  0  0  0  0  0  0  0
   35.2090   29.2680   46.8000 C   0  0  2  0  0  0  0  0  0  0  0  0
   36.6080   30.8280   46.2190 H   0  0  0  0  0  0  0  0  0  0  0  0
   34.0890   31.1690   47.1030 H   0  0  0  0  0  0  0  0  0  0  0  0
   33.5090   30.1800   45.6820 H   0  0  0  0  0  0  0  0  0  0  0  0
   34.6200   28.3820   46.5610 H   0  0  0  0  0  0  0  0  0  0  0  0
   34.8360   29.1930   43.6110 C   0  0  0  0  0  0  0  0  0  0  0  0
   35.9170   29.7990   44.3780 C   0  0  0  0  0  0  0  0  0  0  0  0
   37.1330   29.9430   43.7860 C   0  0  0  0  0  0  0  0  0  0  0  0
   37.2540   29.5010   42.5080 N   0  0  0  0  0  0  0  0  0  0  0  0
   36.2590   28.9410   41.8010 C   0  0  0  0  0  0  0  0  0  0  0  0
   35.0550   28.7940   42.3660 N   0  0  0  0  0  0  0  0  0  0  0  0
   36.4580   28.4690   40.4870 N   0  0  0  0  0  0  0  0  0  0  0  0
   33.8920   29.1000   44.1130 H   0  0  0  0  0  0  0  0  0  0  0  0
   36.8010   27.4940   40.6780 H   0  0  0  0  0  0  0  0  0  0  0  0
   36.2520   29.1040   39.6650 H   0  0  0  0  0  0  0  0  0  0  0  0
   38.3380   30.4500   44.3050 N   0  0  0  0  0  0  0  0  0  0  0  0
   39.2760   31.3230   43.5730 C   0  0  0  0  0  2  0  0  0  0  0  0
   39.0040   32.7360   44.1050 C   0  0  0  0  0  2  0  0  0  0  0  0
   38.9460   32.7070   45.6160 C   0  0  0  0  0  3  0  0  0  0  0  0
   37.9190   32.8080   46.0180 H   0  0  0  0  0  0  0  0  0  0  0  0
   39.5960   31.4580   46.1480 C   0  0  0  0  0  2  0  0  0  0  0  0
   38.8620   30.2010   45.6590 C   0  0  0  0  0  2  0  0  0  0  0  0
   33.4590   28.3140   49.1710 Cl  0  0  0  0  0  0  0  0  0  0  0  0
   35.0330   29.0240   49.3650 C   0  0  0  0  0  0  0  0  0  0  0  0
   35.6340   29.4350   48.1940 C   0  0  0  0  0  0  0  0  0  0  0  0
   36.8860   30.0230   48.3230 C   0  0  0  0  0  0  0  0  0  0  0  0
   37.4920   30.1860   49.5680 C   0  0  0  0  0  0  0  0  0  0  0  0
   36.8300   29.7490   50.7370 C   0  0  0  0  0  0  0  0  0  0  0  0
   37.4890   29.9320   52.3480 Cl  0  0  0  0  0  0  0  0  0  0  0  0
   35.5710   29.1570   50.5990 C   0  0  0  0  0  0  0  0  0  0  0  0
   37.5960   30.4390   47.6340 H   0  0  0  0  0  0  0  0  0  0  0  0
   38.4450   30.6170   49.8130 H   0  0  0  0  0  0  0  0  0  0  0  0
   35.0050   28.7980   51.4480 H   0  0  0  0  0  0  0  0  0  0  0  0
  1  4  1  1  0  0  0
  1  2  1  0  0  0  0
  1  3  1  0  0  0  0
  2  3  1  0  0  0  0
  2  5  1  0  0  0  0
  3  7  1  6  0  0  0
  3 27  1  0  0  0  0
  6  2  1  0  0  0  0
  8 15  1  0  0  0  0
  8  9  1  0  0  0  0
  9  1  1  0  0  0  0
 10 18  1  0  0  0  0
 10  9  2  0  0  0  0
 11 10  1  0  0  0  0
 12 13  1  0  0  0  0
 12 11  2  0  0  0  0
 13  8  2  0  0  0  0
 14 16  1  0  0  0  0
 14 12  1  0  0  0  0
 17 14  1  0  0  0  0
 18 24  1  0  0  0  0
 19 20  1  0  0  0  0
 19 18  1  0  0  0  0
 20 21  1  0  0  0  0
 21 22  1  0  0  0  0
 21 23  1  0  0  0  0
 24 23  1  0  0  0  0
 25 26  1  0  0  0  0
 26 32  1  0  0  0  0
 27 28  1  0  0  0  0
 27 26  2  0  0  0  0
 28 29  2  0  0  0  0
 29 34  1  0  0  0  0
 29 30  1  0  0  0  0
 30 31  1  0  0  0  0
 32 30  2  0  0  0  0
 32 35  1  0  0  0  0
 33 28  1  0  0  0  0
M  END
>  <minimizedAffinity>
-5.59750366

>  <minimizedRMSD>
2.86986852

$$$$
