REMARK  Name = 
REMARK  2 active torsions:
REMARK  status: ('A' for Active; 'I' for Inactive)
REMARK    1  A    between atoms: C_1  and  C_13
REMARK    2  A    between atoms: C_3  and  C_6
REMARK                            x       y       z     vdW  Elec       q    Type
REMARK                         _______ _______ _______ _____ _____    ______ ____
ROOT
ATOM      1  C   UNL     1      37.754  31.488  45.950  0.00  0.00    +0.000 C 
ATOM      2  C   UNL     1      36.340  31.269  45.957  0.00  0.00    +0.000 C 
ATOM      3  C   UNL     1      37.184  30.164  46.561  0.00  0.00    +0.000 C 
ATOM      4  H   UNL     1      38.312  32.011  46.772  0.00  0.00    +0.000 HD
ATOM      5  H   UNL     1      35.635  31.759  46.678  0.00  0.00    +0.000 HD
ATOM      6  H   UNL     1      35.812  31.012  45.022  0.00  0.00    +0.000 HD
ATOM      7  H   UNL     1      36.926  29.267  45.998  0.00  0.00    +0.000 HD
ENDROOT
BRANCH   1   9
ATOM      8  C   UNL     1      37.919  31.366  43.368  0.00  0.00    +0.000 A 
ATOM      9  C   UNL     1      38.541  31.295  44.683  0.00  0.00    +0.000 A 
ATOM     10  C   UNL     1      39.888  31.117  44.757  0.00  0.00    +0.000 A 
ATOM     11  N   UNL     1      40.562  31.013  43.583  0.00  0.00    +0.000 NA
ATOM     12  C   UNL     1      39.989  31.076  42.370  0.00  0.00    +0.000 A 
ATOM     13  N   UNL     1      38.666  31.254  42.278  0.00  0.00    +0.000 NA
ATOM     14  N   UNL     1      40.741  30.925  41.187  0.00  0.00    +0.000 N 
ATOM     15  H   UNL     1      36.855  31.510  43.353  0.00  0.00    +0.000 HD
ATOM     16  H   UNL     1      40.730  29.879  41.079  0.00  0.00    +0.000 HD
ATOM     17  H   UNL     1      41.124  31.781  40.696  0.00  0.00    +0.000 HD
ATOM     18  N   UNL     1      40.722  30.976  45.880  0.00  0.00    +0.000 N 
ATOM     19  C   UNL     1      42.057  31.588  46.028  0.00  0.00    +0.000 C 
ATOM     20  C   UNL     1      41.840  32.807  46.934  0.00  0.00    +0.000 C 
ATOM     21  C   UNL     1      41.003  32.408  48.128  0.00  0.00    +0.000 C 
ATOM     22  H   UNL     1      39.961  32.782  48.078  0.00  0.00    +0.000 HD
ATOM     23  C   UNL     1      41.015  30.914  48.311  0.00  0.00    +0.000 C 
ATOM     24  C   UNL     1      40.405  30.204  47.094  0.00  0.00    +0.000 C 
ENDBRANCH   1   9
BRANCH   3  27
ATOM     25 CL   UNL     1      34.809  28.729  47.937  0.00  0.00    +0.000 Cl
ATOM     26  C   UNL     1      36.122  29.462  48.808  0.00  0.00    +0.000 A 
ATOM     27  C   UNL     1      37.058  30.100  48.021  0.00  0.00    +0.000 A 
ATOM     28  C   UNL     1      38.109  30.710  48.694  0.00  0.00    +0.000 A 
ATOM     29  C   UNL     1      38.203  30.676  50.085  0.00  0.00    +0.000 A 
ATOM     30  C   UNL     1      37.215  30.010  50.843  0.00  0.00    +0.000 A 
ATOM     31 CL   UNL     1      37.225  29.933  52.591  0.00  0.00    +0.000 Cl
ATOM     32  C   UNL     1      36.161  29.397  50.158  0.00  0.00    +0.000 A 
ATOM     33  H   UNL     1      38.971  31.272  48.390  0.00  0.00    +0.000 HD
ATOM     34  H   UNL     1      38.952  31.098  50.729  0.00  0.00    +0.000 HD
ATOM     35  H   UNL     1      35.369  28.869  50.671  0.00  0.00    +0.000 HD
ENDBRANCH   3  27
TORSDOF 2
