
     RDKit          3D

 28 29  0  0  0  0  0  0  0  0999 V2000
   38.3011   31.2392   50.1222 C   0  0  0  0  0  0  0  0  0  0  0  0
   38.2930   31.6096   48.7780 C   0  0  0  0  0  0  0  0  0  0  0  0
   37.2074   31.2220   47.9976 C   0  0  0  0  0  0  0  0  0  0  0  0
   36.2178   30.5049   48.5906 N   0  0  0  0  0  0  0  0  0  0  0  0
   36.2602   30.1675   49.8850 C   0  0  0  0  0  0  0  0  0  0  0  0
   37.2956   30.5327   50.6453 N   0  0  0  0  0  0  0  0  0  0  0  0
   35.1355   29.3803   50.4592 C   0  0  0  0  0  0  0  0  0  0  0  0
   35.2720   29.1266   51.8021 F   0  0  0  0  0  0  0  0  0  0  0  0
   33.9217   30.0598   50.3009 F   0  0  0  0  0  0  0  0  0  0  0  0
   34.9447   28.1694   49.8230 F   0  0  0  0  0  0  0  0  0  0  0  0
   39.1814   31.5858   50.6394 H   0  0  0  0  0  0  0  0  0  0  0  0
   39.0362   32.1686   48.2598 H   0  0  0  0  0  0  0  0  0  0  0  0
   36.9930   31.4877   46.6163 N   0  0  0  0  0  0  0  0  0  0  0  0
   37.8442   31.0789   45.5437 C   0  0  0  0  0  0  0  0  0  0  0  0
   37.1722   30.2904   44.4679 C   0  0  0  0  0  0  0  0  0  0  0  0
   35.9308   30.9943   43.9665 C   0  0  0  0  0  0  0  0  0  0  0  0
   35.4146   30.4171   43.2027 H   0  0  0  0  0  0  0  0  0  0  0  0
   35.0712   31.2446   45.2065 C   0  0  0  0  0  0  0  0  0  0  0  0
   35.8801   32.2159   46.0539 C   0  0  0  0  0  0  0  0  0  0  0  0
   38.6743   30.4196   45.9292 H   0  0  0  0  0  0  0  0  0  0  0  0
   38.3978   31.9372   45.0675 H   0  0  0  0  0  0  0  0  0  0  0  0
   36.8306   29.3036   44.8444 H   0  0  0  0  0  0  0  0  0  0  0  0
   37.8640   30.1373   43.6414 H   0  0  0  0  0  0  0  0  0  0  0  0
   36.1576   32.0051   43.5701 H   0  0  0  0  0  0  0  0  0  0  0  0
   34.0946   31.6714   44.9819 H   0  0  0  0  0  0  0  0  0  0  0  0
   34.9915   30.2693   45.7190 H   0  0  0  0  0  0  0  0  0  0  0  0
   36.2129   33.0381   45.3863 H   0  0  0  0  0  0  0  0  0  0  0  0
   35.2164   32.6054   46.8384 H   0  0  0  0  0  0  0  0  0  0  0  0
  1  6  2  0
  2  1  1  0
  3  4  1  0
  3  2  2  0
  4  5  2  0
  5  7  1  0
  5  6  1  0
  7  8  1  0
  9  7  1  0
 10  7  1  0
  1 11  1  0
  2 12  1  0
 13 14  1  0
 14 15  1  0
 15 16  1  0
 16 17  1  0
 16 18  1  0
 18 19  1  0
 19 13  1  0
 14 20  1  0
 14 21  1  0
 15 22  1  0
 15 23  1  0
 16 24  1  0
 18 25  1  0
 18 26  1  0
 19 27  1  0
 19 28  1  0
  3 13  1  0
M  ISO  3  11  14  12  14  17  15
M  END
>  <DihAtoms>  (1) 
3,2,12,13

>  <DihDeg>  (1) 
0.01884235541995465

$$$$
