REMARK  Name = 
REMARK  2 active torsions:
REMARK  status: ('A' for Active; 'I' for Inactive)
REMARK    1  A    between atoms: C_3  and  N_13
REMARK    2  A    between atoms: C_5  and  C_7
REMARK                            x       y       z     vdW  Elec       q    Type
REMARK                         _______ _______ _______ _____ _____    ______ ____
ROOT
ATOM      1  C   UNL     1      38.301  31.239  50.122  0.00  0.00    +0.000 A 
ATOM      2  C   UNL     1      38.293  31.610  48.778  0.00  0.00    +0.000 A 
ATOM      3  C   UNL     1      37.207  31.222  47.998  0.00  0.00    +0.000 A 
ATOM      4  N   UNL     1      36.218  30.505  48.591  0.00  0.00    +0.000 NA
ATOM      5  C   UNL     1      36.260  30.168  49.885  0.00  0.00    +0.000 A 
ATOM      6  N   UNL     1      37.296  30.533  50.645  0.00  0.00    +0.000 NA
ATOM      7  H   UNL     1      39.181  31.586  50.639  0.00  0.00    +0.000 HD
ATOM      8  H   UNL     1      39.036  32.169  48.260  0.00  0.00    +0.000 HD
ENDROOT
BRANCH   3   9
ATOM      9  N   UNL     1      36.993  31.488  46.616  0.00  0.00    +0.000 N 
ATOM     10  C   UNL     1      37.697  32.452  45.831  0.00  0.00    +0.000 C 
ATOM     11  C   UNL     1      38.345  31.913  44.598  0.00  0.00    +0.000 C 
ATOM     12  C   UNL     1      37.364  31.115  43.767  0.00  0.00    +0.000 C 
ATOM     13  H   UNL     1      37.830  30.691  42.881  0.00  0.00    +0.000 HD
ATOM     14  C   UNL     1      36.798  30.051  44.709  0.00  0.00    +0.000 C 
ATOM     15  C   UNL     1      36.029  30.832  45.765  0.00  0.00    +0.000 C 
ENDBRANCH   3   9
BRANCH   5  16
ATOM     16  C   UNL     1      35.136  29.380  50.459  0.00  0.00    +0.000 C 
ATOM     17  F   UNL     1      35.272  29.127  51.802  0.00  0.00    +0.000 F 
ATOM     18  F   UNL     1      33.922  30.060  50.301  0.00  0.00    +0.000 F 
ATOM     19  F   UNL     1      34.945  28.169  49.823  0.00  0.00    +0.000 F 
ENDBRANCH   5  16
TORSDOF 2
