
 OpenBabel03262522103D

 27 29  0  0  0  0  0  0  0  0999 V2000
   38.2250   25.2080   35.7020 C   0  0  0  0  0  0  0  0  0  0  0  0
   38.2850   26.4850   36.2020 C   0  0  0  0  0  0  0  0  0  0  0  0
   38.0100   27.5590   35.3790 C   0  0  0  0  0  0  0  0  0  0  0  0
   37.6810   27.2540   34.0670 C   0  0  0  0  0  0  0  0  0  0  0  0
   37.6250   25.9740   33.5840 C   0  0  0  0  0  0  0  0  0  0  0  0
   37.9010   24.9450   34.4170 N   0  0  0  0  0  0  0  0  0  0  0  0
   38.5490   26.6720   37.2440 H   0  0  0  0  0  0  0  0  0  0  0  0
   38.0370   28.5920   35.7000 H   0  0  0  0  0  0  0  0  0  0  0  0
   37.4610   28.0580   33.3980 H   0  0  0  0  0  0  0  0  0  0  0  0
   37.2970   25.6010   32.2540 N   0  0  0  0  0  0  0  0  0  0  0  0
   38.2540   25.1440   31.2680 C   0  0  0  0  0  2  0  0  0  0  0  0
   37.7380   24.0160   30.4090 C   0  0  0  0  0  2  0  0  0  0  0  0
   36.6780   23.2430   31.1650 C   0  0  0  0  0  3  0  0  0  0  0  0
   36.3820   22.3560   30.6060 H   0  0  0  0  0  0  0  0  0  0  0  0
   35.5120   24.1960   31.3380 C   0  0  0  0  0  2  0  0  0  0  0  0
   36.0040   25.6010   31.6440 C   0  0  0  0  0  2  0  0  0  0  0  0
   38.5260   24.1190   36.6300 C   0  0  0  0  0  0  0  0  0  0  0  0
   37.7090   23.7580   37.4830 O   0  0  0  0  0  0  0  0  0  0  0  0
   40.0530   22.4080   37.5410 C   0  0  0  0  0  0  0  0  0  0  0  0
   39.7970   23.4040   36.5960 C   0  0  0  0  0  0  0  0  0  0  0  0
   40.7860   23.6700   35.6500 C   0  0  0  0  0  0  0  0  0  0  0  0
   41.9550   22.9650   35.6730 N   0  0  0  0  0  0  0  0  0  0  0  0
   42.1580   22.0070   36.6120 C   0  0  0  0  0  0  0  0  0  0  0  0
   41.2280   21.7300   37.5310 N   0  0  0  0  0  0  0  0  0  0  0  0
   39.2930   22.2020   38.2700 H   0  0  0  0  0  0  0  0  0  0  0  0
   40.6180   24.4340   34.9070 H   0  0  0  0  0  0  0  0  0  0  0  0
   43.0420   21.4050   36.7050 H   0  0  0  0  0  0  0  0  0  0  0  0
  1  2  1  0  0  0  0
  1 17  1  0  0  0  0
  2  7  1  0  0  0  0
  3  8  1  0  0  0  0
  3  2  2  0  0  0  0
  4  3  1  0  0  0  0
  5  4  2  0  0  0  0
  5  6  1  0  0  0  0
  6  1  2  0  0  0  0
  9  4  1  0  0  0  0
 10  5  1  0  0  0  0
 11 10  1  0  0  0  0
 12 13  1  0  0  0  0
 12 11  1  0  0  0  0
 13 15  1  0  0  0  0
 14 13  1  0  0  0  0
 15 16  1  0  0  0  0
 16 10  1  0  0  0  0
 17 18  2  0  0  0  0
 19 25  1  0  0  0  0
 20 17  1  0  0  0  0
 20 19  2  0  0  0  0
 21 22  2  0  0  0  0
 21 20  1  0  0  0  0
 22 23  1  0  0  0  0
 23 27  1  0  0  0  0
 23 24  2  0  0  0  0
 24 19  1  0  0  0  0
 26 21  1  0  0  0  0
M  END
>  <minimizedAffinity>
-5.68054104

$$$$

 OpenBabel03262522103D

 27 29  0  0  0  0  0  0  0  0999 V2000
   37.4790   26.5370   34.1080 C   0  0  0  0  0  0  0  0  0  0  0  0
   36.9370   27.7560   33.7890 C   0  0  0  0  0  0  0  0  0  0  0  0
   36.2480   27.9130   32.6030 C   0  0  0  0  0  0  0  0  0  0  0  0
   36.1530   26.7880   31.7980 C   0  0  0  0  0  0  0  0  0  0  0  0
   36.7000   25.5770   32.1320 C   0  0  0  0  0  0  0  0  0  0  0  0
   37.3690   25.4590   33.3010 N   0  0  0  0  0  0  0  0  0  0  0  0
   37.0390   28.6120   34.4580 H   0  0  0  0  0  0  0  0  0  0  0  0
   35.7940   28.8420   32.2840 H   0  0  0  0  0  0  0  0  0  0  0  0
   35.6270   26.8680   30.8710 H   0  0  0  0  0  0  0  0  0  0  0  0
   36.6380   24.3940   31.3510 N   0  0  0  0  0  0  0  0  0  0  0  0
   37.7440   23.8510   30.5890 C   0  0  0  0  0  2  0  0  0  0  0  0
   37.8310   22.3460   30.6450 C   0  0  0  0  0  2  0  0  0  0  0  0
   37.1950   21.8460   31.9260 C   0  0  0  0  0  3  0  0  0  0  0  0
   37.3550   20.7750   32.0380 H   0  0  0  0  0  0  0  0  0  0  0  0
   35.7190   22.1710   31.8120 C   0  0  0  0  0  2  0  0  0  0  0  0
   35.5130   23.5300   31.1660 C   0  0  0  0  0  2  0  0  0  0  0  0
   38.1930   26.4420   35.3810 C   0  0  0  0  0  0  0  0  0  0  0  0
   38.4600   27.4490   36.0440 O   0  0  0  0  0  0  0  0  0  0  0  0
   39.8320   24.6020   35.5140 C   0  0  0  0  0  0  0  0  0  0  0  0
   38.6220   25.1610   35.9320 C   0  0  0  0  0  0  0  0  0  0  0  0
   37.8730   24.4560   36.8730 C   0  0  0  0  0  0  0  0  0  0  0  0
   38.3310   23.2620   37.3500 N   0  0  0  0  0  0  0  0  0  0  0  0
   39.5130   22.7580   36.9130 C   0  0  0  0  0  0  0  0  0  0  0  0
   40.2530   23.4120   36.0110 N   0  0  0  0  0  0  0  0  0  0  0  0
   40.4100   25.1440   34.7900 H   0  0  0  0  0  0  0  0  0  0  0  0
   36.9340   24.8630   37.2160 H   0  0  0  0  0  0  0  0  0  0  0  0
   39.9500   21.8320   37.2310 H   0  0  0  0  0  0  0  0  0  0  0  0
  1 17  1  0  0  0  0
  2  1  1  0  0  0  0
  2  7  1  0  0  0  0
  3  2  2  0  0  0  0
  4  5  2  0  0  0  0
  4  3  1  0  0  0  0
  5  6  1  0  0  0  0
  6  1  2  0  0  0  0
  8  3  1  0  0  0  0
  9  4  1  0  0  0  0
 10  5  1  0  0  0  0
 11 12  1  0  0  0  0
 11 10  1  0  0  0  0
 12 13  1  0  0  0  0
 13 14  1  0  0  0  0
 15 13  1  0  0  0  0
 16 10  1  0  0  0  0
 16 15  1  0  0  0  0
 17 20  1  0  0  0  0
 17 18  2  0  0  0  0
 19 20  2  0  0  0  0
 19 24  1  0  0  0  0
 20 21  1  0  0  0  0
 21 26  1  0  0  0  0
 21 22  2  0  0  0  0
 23 27  1  0  0  0  0
 23 22  1  0  0  0  0
 24 23  2  0  0  0  0
 25 19  1  0  0  0  0
M  END
>  <minimizedAffinity>
-5.40244055

$$$$

 OpenBabel03262522103D

 27 29  0  0  0  0  0  0  0  0999 V2000
   37.3470   27.2490   34.3410 C   0  0  0  0  0  0  0  0  0  0  0  0
   37.2290   26.6140   33.1310 C   0  0  0  0  0  0  0  0  0  0  0  0
   36.3950   27.1340   32.1600 C   0  0  0  0  0  0  0  0  0  0  0  0
   35.7180   28.2960   32.4950 C   0  0  0  0  0  0  0  0  0  0  0  0
   35.8470   28.9180   33.7080 C   0  0  0  0  0  0  0  0  0  0  0  0
   36.6720   28.3820   34.6360 N   0  0  0  0  0  0  0  0  0  0  0  0
   37.7850   25.7000   32.9160 H   0  0  0  0  0  0  0  0  0  0  0  0
   36.2510   26.6900   31.1840 H   0  0  0  0  0  0  0  0  0  0  0  0
   35.0630   28.7300   31.7710 H   0  0  0  0  0  0  0  0  0  0  0  0
   35.1820   30.1060   34.1080 N   0  0  0  0  0  0  0  0  0  0  0  0
   34.0670   30.1530   35.0330 C   0  0  0  0  0  2  0  0  0  0  0  0
   34.1250   31.3240   35.9830 C   0  0  0  0  0  2  0  0  0  0  0  0
   35.5640   31.7560   36.1730 C   0  0  0  0  0  3  0  0  0  0  0  0
   35.6340   32.5200   36.9450 H   0  0  0  0  0  0  0  0  0  0  0  0
   36.0190   32.2920   34.8290 C   0  0  0  0  0  2  0  0  0  0  0  0
   35.4660   31.4450   33.6950 C   0  0  0  0  0  2  0  0  0  0  0  0
   38.2490   26.6460   35.3210 C   0  0  0  0  0  0  0  0  0  0  0  0
   38.9880   27.3400   36.0260 O   0  0  0  0  0  0  0  0  0  0  0  0
   37.5880   24.6070   36.5440 C   0  0  0  0  0  0  0  0  0  0  0  0
   38.3240   25.2020   35.5160 C   0  0  0  0  0  0  0  0  0  0  0  0
   39.1050   24.3720   34.7130 C   0  0  0  0  0  0  0  0  0  0  0  0
   39.1310   23.0280   34.9490 N   0  0  0  0  0  0  0  0  0  0  0  0
   38.3990   22.4960   35.9610 C   0  0  0  0  0  0  0  0  0  0  0  0
   37.6410   23.2670   36.7470 N   0  0  0  0  0  0  0  0  0  0  0  0
   36.9870   25.2450   37.1630 H   0  0  0  0  0  0  0  0  0  0  0  0
   39.6840   24.8020   33.9110 H   0  0  0  0  0  0  0  0  0  0  0  0
   38.3590   21.4540   36.2180 H   0  0  0  0  0  0  0  0  0  0  0  0
  1  6  1  0  0  0  0
  1 17  1  0  0  0  0
  2  1  2  0  0  0  0
  3  4  2  0  0  0  0
  3  2  1  0  0  0  0
  4  5  1  0  0  0  0
  5 10  1  0  0  0  0
  5  6  2  0  0  0  0
  7  2  1  0  0  0  0
  8  3  1  0  0  0  0
  9  4  1  0  0  0  0
 10 11  1  0  0  0  0
 11 12  1  0  0  0  0
 12 13  1  0  0  0  0
 13 14  1  0  0  0  0
 15 13  1  0  0  0  0
 16 10  1  0  0  0  0
 16 15  1  0  0  0  0
 17 20  1  0  0  0  0
 17 18  2  0  0  0  0
 19 24  1  0  0  0  0
 19 25  1  0  0  0  0
 20 19  2  0  0  0  0
 21 22  2  0  0  0  0
 21 20  1  0  0  0  0
 22 23  1  0  0  0  0
 23 27  1  0  0  0  0
 23 24  2  0  0  0  0
 26 21  1  0  0  0  0
M  END
>  <minimizedAffinity>
-5.29172134

$$$$

 OpenBabel03262522103D

 27 29  0  0  0  0  0  0  0  0999 V2000
   37.8400   23.6540   33.0290 C   0  0  0  0  0  0  0  0  0  0  0  0
   37.2680   24.8480   32.6670 C   0  0  0  0  0  0  0  0  0  0  0  0
   36.1530   24.8560   31.8520 C   0  0  0  0  0  0  0  0  0  0  0  0
   35.6820   23.6170   31.4490 C   0  0  0  0  0  0  0  0  0  0  0  0
   36.2650   22.4340   31.8190 C   0  0  0  0  0  0  0  0  0  0  0  0
   37.3560   22.4620   32.6180 N   0  0  0  0  0  0  0  0  0  0  0  0
   37.6780   25.7990   33.0110 H   0  0  0  0  0  0  0  0  0  0  0  0
   35.6480   25.7560   31.5250 H   0  0  0  0  0  0  0  0  0  0  0  0
   34.8200   23.5800   30.8170 H   0  0  0  0  0  0  0  0  0  0  0  0
   35.8300   21.1380   31.4390 N   0  0  0  0  0  0  0  0  0  0  0  0
   36.4910   20.3030   30.4570 C   0  0  0  0  0  2  0  0  0  0  0  0
   36.5270   18.8430   30.8360 C   0  0  0  0  0  2  0  0  0  0  0  0
   36.4640   18.7060   32.3430 C   0  0  0  0  0  3  0  0  0  0  0  0
   36.6100   17.6680   32.6380 H   0  0  0  0  0  0  0  0  0  0  0  0
   35.0910   19.2050   32.7500 C   0  0  0  0  0  2  0  0  0  0  0  0
   34.6940   20.4210   31.9310 C   0  0  0  0  0  2  0  0  0  0  0  0
   39.0160   23.7200   33.8960 C   0  0  0  0  0  0  0  0  0  0  0  0
   40.1490   23.8780   33.4300 O   0  0  0  0  0  0  0  0  0  0  0  0
   39.8230   22.8010   36.0390 C   0  0  0  0  0  0  0  0  0  0  0  0
   38.9140   23.6040   35.3460 C   0  0  0  0  0  0  0  0  0  0  0  0
   37.9380   24.2680   36.0890 C   0  0  0  0  0  0  0  0  0  0  0  0
   37.8960   24.1180   37.4450 N   0  0  0  0  0  0  0  0  0  0  0  0
   38.8010   23.3250   38.0740 C   0  0  0  0  0  0  0  0  0  0  0  0
   39.7480   22.6770   37.3880 N   0  0  0  0  0  0  0  0  0  0  0  0
   40.5740   22.2890   35.4700 H   0  0  0  0  0  0  0  0  0  0  0  0
   37.2220   24.8960   35.5820 H   0  0  0  0  0  0  0  0  0  0  0  0
   38.8440   23.1500   39.1320 H   0  0  0  0  0  0  0  0  0  0  0  0
  1 17  1  0  0  0  0
  2  7  1  0  0  0  0
  2  1  1  0  0  0  0
  3  2  2  0  0  0  0
  4  5  2  0  0  0  0
  4  3  1  0  0  0  0
  5  6  1  0  0  0  0
  6  1  2  0  0  0  0
  8  3  1  0  0  0  0
  9  4  1  0  0  0  0
 10  5  1  0  0  0  0
 10 16  1  0  0  0  0
 11 12  1  0  0  0  0
 11 10  1  0  0  0  0
 12 13  1  0  0  0  0
 13 14  1  0  0  0  0
 13 15  1  0  0  0  0
 16 15  1  0  0  0  0
 17 20  1  0  0  0  0
 18 17  2  0  0  0  0
 19 24  1  0  0  0  0
 20 19  2  0  0  0  0
 20 21  1  0  0  0  0
 21 22  2  0  0  0  0
 22 23  1  0  0  0  0
 23 27  1  0  0  0  0
 24 23  2  0  0  0  0
 25 19  1  0  0  0  0
 26 21  1  0  0  0  0
M  END
>  <minimizedAffinity>
-5.24819231

$$$$

 OpenBabel03262522103D

 27 29  0  0  0  0  0  0  0  0999 V2000
   36.5460   23.3730   32.1100 C   0  0  0  0  0  0  0  0  0  0  0  0
   35.5980   23.6640   31.1610 C   0  0  0  0  0  0  0  0  0  0  0  0
   35.2720   24.9790   30.8960 C   0  0  0  0  0  0  0  0  0  0  0  0
   35.9500   25.9370   31.6340 C   0  0  0  0  0  0  0  0  0  0  0  0
   36.8940   25.6300   32.5770 C   0  0  0  0  0  0  0  0  0  0  0  0
   37.1890   24.3320   32.8120 N   0  0  0  0  0  0  0  0  0  0  0  0
   35.0920   22.8720   30.6070 H   0  0  0  0  0  0  0  0  0  0  0  0
   34.5360   25.2860   30.1640 H   0  0  0  0  0  0  0  0  0  0  0  0
   35.7260   26.9680   31.4580 H   0  0  0  0  0  0  0  0  0  0  0  0
   37.6190   26.5640   33.3620 N   0  0  0  0  0  0  0  0  0  0  0  0
   37.3700   26.8290   34.7650 C   0  0  0  0  0  2  0  0  0  0  0  0
   38.6300   27.0290   35.5700 C   0  0  0  0  0  2  0  0  0  0  0  0
   39.7800   26.2990   34.9080 C   0  0  0  0  0  3  0  0  0  0  0  0
   40.6670   26.3330   35.5380 H   0  0  0  0  0  0  0  0  0  0  0  0
   40.0170   27.0060   33.5880 C   0  0  0  0  0  2  0  0  0  0  0  0
   38.7000   27.4020   32.9430 C   0  0  0  0  0  2  0  0  0  0  0  0
   36.8440   21.9600   32.3370 C   0  0  0  0  0  0  0  0  0  0  0  0
   36.8980   21.4900   33.4770 O   0  0  0  0  0  0  0  0  0  0  0  0
   38.2620   21.1560   30.4840 C   0  0  0  0  0  0  0  0  0  0  0  0
   37.0910   21.0360   31.2350 C   0  0  0  0  0  0  0  0  0  0  0  0
   36.2000   20.0200   30.8900 C   0  0  0  0  0  0  0  0  0  0  0  0
   36.4900   19.1880   29.8470 N   0  0  0  0  0  0  0  0  0  0  0  0
   37.6410   19.3440   29.1460 C   0  0  0  0  0  0  0  0  0  0  0  0
   38.5140   20.3090   29.4540 N   0  0  0  0  0  0  0  0  0  0  0  0
   38.9490   21.9370   30.7480 H   0  0  0  0  0  0  0  0  0  0  0  0
   35.2870   19.9020   31.4520 H   0  0  0  0  0  0  0  0  0  0  0  0
   37.9500   18.7390   28.3150 H   0  0  0  0  0  0  0  0  0  0  0  0
  1 17  1  0  0  0  0
  1  6  1  0  0  0  0
  2  1  2  0  0  0  0
  3  2  1  0  0  0  0
  3  4  2  0  0  0  0
  4  5  1  0  0  0  0
  5  6  2  0  0  0  0
  5 10  1  0  0  0  0
  7  2  1  0  0  0  0
  8  3  1  0  0  0  0
  9  4  1  0  0  0  0
 10 11  1  0  0  0  0
 11 12  1  0  0  0  0
 13 14  1  0  0  0  0
 13 12  1  0  0  0  0
 15 13  1  0  0  0  0
 16 10  1  0  0  0  0
 16 15  1  0  0  0  0
 17 18  2  0  0  0  0
 19 25  1  0  0  0  0
 19 20  1  0  0  0  0
 20 17  1  0  0  0  0
 21 20  2  0  0  0  0
 21 26  1  0  0  0  0
 22 21  1  0  0  0  0
 23 24  1  0  0  0  0
 23 22  2  0  0  0  0
 24 19  2  0  0  0  0
 27 23  1  0  0  0  0
M  END
>  <minimizedAffinity>
-5.1256218

$$$$

 OpenBabel03262522103D

 27 29  0  0  0  0  0  0  0  0999 V2000
   35.1970   30.0560   34.4100 C   0  0  0  0  0  0  0  0  0  0  0  0
   35.8720   31.0770   35.0300 C   0  0  0  0  0  0  0  0  0  0  0  0
   35.2680   31.7780   36.0560 C   0  0  0  0  0  0  0  0  0  0  0  0
   33.9820   31.3830   36.3910 C   0  0  0  0  0  0  0  0  0  0  0  0
   33.3220   30.3610   35.7620 C   0  0  0  0  0  0  0  0  0  0  0  0
   33.9430   29.6960   34.7610 N   0  0  0  0  0  0  0  0  0  0  0  0
   36.8850   31.3500   34.7290 H   0  0  0  0  0  0  0  0  0  0  0  0
   35.7360   32.5930   36.5910 H   0  0  0  0  0  0  0  0  0  0  0  0
   33.4800   31.9000   37.1800 H   0  0  0  0  0  0  0  0  0  0  0  0
   32.0090   29.9120   36.0590 N   0  0  0  0  0  0  0  0  0  0  0  0
   30.8430   30.1820   35.2430 C   0  0  0  0  0  2  0  0  0  0  0  0
   29.9000   29.0090   35.1370 C   0  0  0  0  0  2  0  0  0  0  0  0
   30.6670   27.7190   35.3390 C   0  0  0  0  0  3  0  0  0  0  0  0
   30.0250   26.8600   35.1470 H   0  0  0  0  0  0  0  0  0  0  0  0
   31.1410   27.7380   36.7790 C   0  0  0  0  0  2  0  0  0  0  0  0
   31.5870   29.1330   37.1820 C   0  0  0  0  0  2  0  0  0  0  0  0
   35.8970   29.3550   33.3350 C   0  0  0  0  0  0  0  0  0  0  0  0
   36.0070   29.8520   32.2100 O   0  0  0  0  0  0  0  0  0  0  0  0
   36.6470   27.1790   32.4460 C   0  0  0  0  0  0  0  0  0  0  0  0
   36.5020   28.0420   33.5340 C   0  0  0  0  0  0  0  0  0  0  0  0
   36.9500   27.6000   34.7780 C   0  0  0  0  0  0  0  0  0  0  0  0
   37.5070   26.3590   34.8970 N   0  0  0  0  0  0  0  0  0  0  0  0
   37.6260   25.5550   33.8100 C   0  0  0  0  0  0  0  0  0  0  0  0
   37.2050   25.9530   32.6050 N   0  0  0  0  0  0  0  0  0  0  0  0
   36.3020   27.5180   31.4880 H   0  0  0  0  0  0  0  0  0  0  0  0
   36.8520   28.2440   35.6380 H   0  0  0  0  0  0  0  0  0  0  0  0
   38.0490   24.5690   33.8100 H   0  0  0  0  0  0  0  0  0  0  0  0
  1  6  2  0  0  0  0
  1  2  1  0  0  0  0
  2  3  2  0  0  0  0
  3  4  1  0  0  0  0
  3  8  1  0  0  0  0
  4  9  1  0  0  0  0
  5 10  1  0  0  0  0
  5  4  2  0  0  0  0
  6  5  1  0  0  0  0
  7  2  1  0  0  0  0
 10 16  1  0  0  0  0
 11 10  1  0  0  0  0
 12 11  1  0  0  0  0
 12 13  1  0  0  0  0
 13 15  1  0  0  0  0
 14 13  1  0  0  0  0
 15 16  1  0  0  0  0
 17 20  1  0  0  0  0
 17  1  1  0  0  0  0
 18 17  2  0  0  0  0
 19 24  2  0  0  0  0
 19 20  1  0  0  0  0
 20 21  2  0  0  0  0
 21 22  1  0  0  0  0
 21 26  1  0  0  0  0
 23 22  2  0  0  0  0
 24 23  1  0  0  0  0
 25 19  1  0  0  0  0
 27 23  1  0  0  0  0
M  END
>  <minimizedAffinity>
-5.1001668

$$$$

 OpenBabel03262522103D

 27 29  0  0  0  0  0  0  0  0999 V2000
   36.7010   22.0710   32.6230 C   0  0  0  0  0  0  0  0  0  0  0  0
   35.7740   21.0590   32.6330 C   0  0  0  0  0  0  0  0  0  0  0  0
   35.5010   20.3890   33.8090 C   0  0  0  0  0  0  0  0  0  0  0  0
   36.2080   20.8040   34.9270 C   0  0  0  0  0  0  0  0  0  0  0  0
   37.1300   21.8160   34.9000 C   0  0  0  0  0  0  0  0  0  0  0  0
   37.3740   22.4510   33.7320 N   0  0  0  0  0  0  0  0  0  0  0  0
   35.2440   20.7700   31.7250 H   0  0  0  0  0  0  0  0  0  0  0  0
   34.7850   19.5830   33.8950 H   0  0  0  0  0  0  0  0  0  0  0  0
   36.0240   20.3110   35.8580 H   0  0  0  0  0  0  0  0  0  0  0  0
   37.8830   22.2840   36.0090 N   0  0  0  0  0  0  0  0  0  0  0  0
   39.2880   22.0050   36.2250 C   0  0  0  0  0  2  0  0  0  0  0  0
   40.0580   23.1840   36.7680 C   0  0  0  0  0  2  0  0  0  0  0  0
   39.3750   24.4720   36.3560 C   0  0  0  0  0  3  0  0  0  0  0  0
   39.9810   25.3320   36.6370 H   0  0  0  0  0  0  0  0  0  0  0  0
   38.0400   24.4840   37.0750 C   0  0  0  0  0  2  0  0  0  0  0  0
   37.4250   23.0950   37.0940 C   0  0  0  0  0  2  0  0  0  0  0  0
   36.9390   22.7390   31.3440 C   0  0  0  0  0  0  0  0  0  0  0  0
   37.3500   22.1150   30.3610 O   0  0  0  0  0  0  0  0  0  0  0  0
   35.3940   24.6530   31.1560 C   0  0  0  0  0  0  0  0  0  0  0  0
   36.7030   24.1670   31.1630 C   0  0  0  0  0  0  0  0  0  0  0  0
   37.7380   25.0860   30.9950 C   0  0  0  0  0  0  0  0  0  0  0  0
   37.4500   26.4100   30.8300 N   0  0  0  0  0  0  0  0  0  0  0  0
   36.1610   26.8360   30.8290 C   0  0  0  0  0  0  0  0  0  0  0  0
   35.1480   25.9770   30.9880 N   0  0  0  0  0  0  0  0  0  0  0  0
   34.5960   23.9470   31.2850 H   0  0  0  0  0  0  0  0  0  0  0  0
   38.7600   24.7410   30.9960 H   0  0  0  0  0  0  0  0  0  0  0  0
   35.8420   27.8530   30.7070 H   0  0  0  0  0  0  0  0  0  0  0  0
  1  2  2  0  0  0  0
  1  6  1  0  0  0  0
  2  3  1  0  0  0  0
  3  8  1  0  0  0  0
  3  4  2  0  0  0  0
  4  9  1  0  0  0  0
  5  4  1  0  0  0  0
  5 10  1  0  0  0  0
  6  5  2  0  0  0  0
  7  2  1  0  0  0  0
 10 11  1  0  0  0  0
 10 16  1  0  0  0  0
 11 12  1  0  0  0  0
 13 14  1  0  0  0  0
 13 12  1  0  0  0  0
 13 15  1  0  0  0  0
 15 16  1  0  0  0  0
 17  1  1  0  0  0  0
 18 17  2  0  0  0  0
 19 20  1  0  0  0  0
 19 25  1  0  0  0  0
 20 17  1  0  0  0  0
 21 26  1  0  0  0  0
 21 20  2  0  0  0  0
 22 21  1  0  0  0  0
 23 22  2  0  0  0  0
 23 24  1  0  0  0  0
 24 19  2  0  0  0  0
 27 23  1  0  0  0  0
M  END
>  <minimizedAffinity>
-5.0206666

$$$$

 OpenBabel03262522103D

 27 29  0  0  0  0  0  0  0  0999 V2000
   36.9230   24.8990   31.9260 C   0  0  0  0  0  0  0  0  0  0  0  0
   35.9910   24.2560   31.1510 C   0  0  0  0  0  0  0  0  0  0  0  0
   35.7420   22.9120   31.3490 C   0  0  0  0  0  0  0  0  0  0  0  0
   36.4770   22.2950   32.3490 C   0  0  0  0  0  0  0  0  0  0  0  0
   37.4040   22.9520   33.1150 C   0  0  0  0  0  0  0  0  0  0  0  0
   37.6230   24.2680   32.8940 N   0  0  0  0  0  0  0  0  0  0  0  0
   35.4380   24.7870   30.3750 H   0  0  0  0  0  0  0  0  0  0  0  0
   35.0240   22.3380   30.7780 H   0  0  0  0  0  0  0  0  0  0  0  0
   36.3140   21.2550   32.5340 H   0  0  0  0  0  0  0  0  0  0  0  0
   38.1860   22.3770   34.1500 N   0  0  0  0  0  0  0  0  0  0  0  0
   39.5940   22.0560   34.0360 C   0  0  0  0  0  2  0  0  0  0  0  0
   40.3820   22.3640   35.2850 C   0  0  0  0  0  2  0  0  0  0  0  0
   39.6970   23.4680   36.0620 C   0  0  0  0  0  3  0  0  0  0  0  0
   40.3140   23.7840   36.9020 H   0  0  0  0  0  0  0  0  0  0  0  0
   38.3790   22.8870   36.5370 C   0  0  0  0  0  2  0  0  0  0  0  0
   37.7580   22.0100   35.4640 C   0  0  0  0  0  2  0  0  0  0  0  0
   37.1340   26.3220   31.6640 C   0  0  0  0  0  0  0  0  0  0  0  0
   37.8530   26.7040   30.7360 O   0  0  0  0  0  0  0  0  0  0  0  0
   35.4660   28.1200   31.9420 C   0  0  0  0  0  0  0  0  0  0  0  0
   36.5080   27.3580   32.4780 C   0  0  0  0  0  0  0  0  0  0  0  0
   36.9030   27.6310   33.7870 C   0  0  0  0  0  0  0  0  0  0  0  0
   36.2760   28.6150   34.4950 N   0  0  0  0  0  0  0  0  0  0  0  0
   35.2690   29.3290   33.9310 C   0  0  0  0  0  0  0  0  0  0  0  0
   34.8690   29.0900   32.6780 N   0  0  0  0  0  0  0  0  0  0  0  0
   35.1600   27.9110   30.9350 H   0  0  0  0  0  0  0  0  0  0  0  0
   37.7050   27.0590   34.2280 H   0  0  0  0  0  0  0  0  0  0  0  0
   34.7220   30.1170   34.4120 H   0  0  0  0  0  0  0  0  0  0  0  0
  1  6  1  0  0  0  0
  2  3  1  0  0  0  0
  2  1  2  0  0  0  0
  3  4  2  0  0  0  0
  4  9  1  0  0  0  0
  4  5  1  0  0  0  0
  5 10  1  0  0  0  0
  6  5  2  0  0  0  0
  7  2  1  0  0  0  0
  8  3  1  0  0  0  0
 10 16  1  0  0  0  0
 11 10  1  0  0  0  0
 11 12  1  0  0  0  0
 12 13  1  0  0  0  0
 13 15  1  0  0  0  0
 13 14  1  0  0  0  0
 16 15  1  0  0  0  0
 17  1  1  0  0  0  0
 17 20  1  0  0  0  0
 18 17  2  0  0  0  0
 19 20  2  0  0  0  0
 19 24  1  0  0  0  0
 20 21  1  0  0  0  0
 21 26  1  0  0  0  0
 21 22  2  0  0  0  0
 23 27  1  0  0  0  0
 23 22  1  0  0  0  0
 24 23  2  0  0  0  0
 25 19  1  0  0  0  0
M  END
>  <minimizedAffinity>
-4.95614195

$$$$

 OpenBabel03262522103D

 27 29  0  0  0  0  0  0  0  0999 V2000
   36.7970   25.3480   32.1780 C   0  0  0  0  0  0  0  0  0  0  0  0
   36.9500   26.6080   31.6580 C   0  0  0  0  0  0  0  0  0  0  0  0
   37.7670   27.5200   32.2950 C   0  0  0  0  0  0  0  0  0  0  0  0
   38.3920   27.0780   33.4510 C   0  0  0  0  0  0  0  0  0  0  0  0
   38.2290   25.8150   33.9570 C   0  0  0  0  0  0  0  0  0  0  0  0
   37.4210   24.9470   33.3070 N   0  0  0  0  0  0  0  0  0  0  0  0
   36.4350   26.9080   30.7440 H   0  0  0  0  0  0  0  0  0  0  0  0
   37.9360   28.5310   31.9460 H   0  0  0  0  0  0  0  0  0  0  0  0
   39.0340   27.7540   33.9740 H   0  0  0  0  0  0  0  0  0  0  0  0
   38.8400   25.3060   35.1320 N   0  0  0  0  0  0  0  0  0  0  0  0
   38.1560   25.1010   36.3920 C   0  0  0  0  0  2  0  0  0  0  0  0
   38.5710   23.8360   37.1020 C   0  0  0  0  0  2  0  0  0  0  0  0
   39.0700   22.8240   36.0910 C   0  0  0  0  0  3  0  0  0  0  0  0
   39.2600   21.8660   36.5730 H   0  0  0  0  0  0  0  0  0  0  0  0
   40.3430   23.4080   35.5100 C   0  0  0  0  0  2  0  0  0  0  0  0
   40.2030   24.9070   35.3030 C   0  0  0  0  0  2  0  0  0  0  0  0
   35.9190   24.4330   31.4500 C   0  0  0  0  0  0  0  0  0  0  0  0
   34.9120   24.8400   30.8630 O   0  0  0  0  0  0  0  0  0  0  0  0
   35.2590   22.0990   31.9090 C   0  0  0  0  0  0  0  0  0  0  0  0
   36.1860   23.0000   31.3780 C   0  0  0  0  0  0  0  0  0  0  0  0
   37.3380   22.4760   30.7930 C   0  0  0  0  0  0  0  0  0  0  0  0
   37.5270   21.1250   30.7570 N   0  0  0  0  0  0  0  0  0  0  0  0
   36.5990   20.2890   31.2880 C   0  0  0  0  0  0  0  0  0  0  0  0
   35.4840   20.7630   31.8550 N   0  0  0  0  0  0  0  0  0  0  0  0
   34.3720   22.5010   32.3590 H   0  0  0  0  0  0  0  0  0  0  0  0
   38.0720   23.1460   30.3740 H   0  0  0  0  0  0  0  0  0  0  0  0
   36.6640   19.2180   31.3040 H   0  0  0  0  0  0  0  0  0  0  0  0
  1  6  1  0  0  0  0
  2  1  2  0  0  0  0
  2  3  1  0  0  0  0
  3  4  2  0  0  0  0
  4  5  1  0  0  0  0
  4  9  1  0  0  0  0
  5 10  1  0  0  0  0
  6  5  2  0  0  0  0
  7  2  1  0  0  0  0
  8  3  1  0  0  0  0
 10 16  1  0  0  0  0
 10 11  1  0  0  0  0
 11 12  1  0  0  0  0
 13 14  1  0  0  0  0
 13 12  1  0  0  0  0
 15 13  1  0  0  0  0
 16 15  1  0  0  0  0
 17  1  1  0  0  0  0
 18 17  2  0  0  0  0
 19 25  1  0  0  0  0
 20 17  1  0  0  0  0
 20 19  2  0  0  0  0
 21 20  1  0  0  0  0
 22 21  2  0  0  0  0
 22 23  1  0  0  0  0
 23 27  1  0  0  0  0
 23 24  2  0  0  0  0
 24 19  1  0  0  0  0
 26 21  1  0  0  0  0
M  END
>  <minimizedAffinity>
-4.93125677

$$$$
