
     RDKit          3D

 28 29  0  0  0  0  0  0  0  0999 V2000
   38.3011   31.2392   50.1222 C   0  0  0  0  0  0  0  0  0  0  0  0
   38.2930   31.6096   48.7780 C   0  0  0  0  0  0  0  0  0  0  0  0
   37.2074   31.2220   47.9976 C   0  0  0  0  0  0  0  0  0  0  0  0
   36.2178   30.5049   48.5906 N   0  0  0  0  0  0  0  0  0  0  0  0
   36.2602   30.1675   49.8850 C   0  0  0  0  0  0  0  0  0  0  0  0
   37.2956   30.5327   50.6453 N   0  0  0  0  0  0  0  0  0  0  0  0
   35.1355   29.3803   50.4592 C   0  0  0  0  0  0  0  0  0  0  0  0
   35.2720   29.1266   51.8021 F   0  0  0  0  0  0  0  0  0  0  0  0
   33.9217   30.0598   50.3009 F   0  0  0  0  0  0  0  0  0  0  0  0
   34.9447   28.1694   49.8230 F   0  0  0  0  0  0  0  0  0  0  0  0
   39.1814   31.5858   50.6394 H   0  0  0  0  0  0  0  0  0  0  0  0
   39.0362   32.1686   48.2598 H   0  0  0  0  0  0  0  0  0  0  0  0
   36.9930   31.4877   46.6163 N   0  0  0  0  0  0  0  0  0  0  0  0
   38.0118   31.6486   45.6272 C   0  0  0  0  0  0  0  0  0  0  0  0
   37.8929   30.7456   44.4436 C   0  0  0  0  0  0  0  0  0  0  0  0
   36.5067   30.8105   43.8417 C   0  0  0  0  0  0  0  0  0  0  0  0
   36.3968   30.1354   42.9961 H   0  0  0  0  0  0  0  0  0  0  0  0
   35.5458   30.4910   44.9879 C   0  0  0  0  0  0  0  0  0  0  0  0
   35.7111   31.6418   45.9697 C   0  0  0  0  0  0  0  0  0  0  0  0
   39.0273   31.4360   46.0699 H   0  0  0  0  0  0  0  0  0  0  0  0
   38.1083   32.7100   45.2611 H   0  0  0  0  0  0  0  0  0  0  0  0
   38.0510   29.6844   44.7282 H   0  0  0  0  0  0  0  0  0  0  0  0
   38.6300   31.0278   43.6938 H   0  0  0  0  0  0  0  0  0  0  0  0
   36.2386   31.8393   43.5257 H   0  0  0  0  0  0  0  0  0  0  0  0
   34.5048   30.4145   44.6764 H   0  0  0  0  0  0  0  0  0  0  0  0
   35.9158   29.5523   45.4376 H   0  0  0  0  0  0  0  0  0  0  0  0
   35.6474   32.5845   45.3868 H   0  0  0  0  0  0  0  0  0  0  0  0
   34.8859   31.5831   46.6931 H   0  0  0  0  0  0  0  0  0  0  0  0
  1  6  2  0
  2  1  1  0
  3  4  1  0
  3  2  2  0
  4  5  2  0
  5  7  1  0
  5  6  1  0
  7  8  1  0
  9  7  1  0
 10  7  1  0
  1 11  1  0
  2 12  1  0
 13 14  1  0
 14 15  1  0
 15 16  1  0
 16 17  1  0
 16 18  1  0
 18 19  1  0
 19 13  1  0
 14 20  1  0
 14 21  1  0
 15 22  1  0
 15 23  1  0
 16 24  1  0
 18 25  1  0
 18 26  1  0
 19 27  1  0
 19 28  1  0
  3 13  1  0
M  ISO  3  11  14  12  14  17  15
M  END
>  <DihAtoms>  (1) 
3,2,12,13

>  <DihDeg>  (1) 
0.01884235541995465

$$$$
