
     RDKit          3D

 28 29  0  0  0  0  0  0  0  0999 V2000
   38.3011   31.2392   50.1222 C   0  0  0  0  0  0  0  0  0  0  0  0
   38.2930   31.6096   48.7780 C   0  0  0  0  0  0  0  0  0  0  0  0
   37.2074   31.2220   47.9976 C   0  0  0  0  0  0  0  0  0  0  0  0
   36.2178   30.5049   48.5906 N   0  0  0  0  0  0  0  0  0  0  0  0
   36.2602   30.1675   49.8850 C   0  0  0  0  0  0  0  0  0  0  0  0
   37.2956   30.5327   50.6453 N   0  0  0  0  0  0  0  0  0  0  0  0
   35.1355   29.3803   50.4592 C   0  0  0  0  0  0  0  0  0  0  0  0
   35.2720   29.1266   51.8021 F   0  0  0  0  0  0  0  0  0  0  0  0
   33.9217   30.0598   50.3009 F   0  0  0  0  0  0  0  0  0  0  0  0
   34.9447   28.1694   49.8230 F   0  0  0  0  0  0  0  0  0  0  0  0
   39.1814   31.5858   50.6394 H   0  0  0  0  0  0  0  0  0  0  0  0
   39.0362   32.1686   48.2598 H   0  0  0  0  0  0  0  0  0  0  0  0
   36.9930   31.4877   46.6163 N   0  0  0  0  0  0  0  0  0  0  0  0
   37.4147   30.6606   45.5299 C   0  0  0  0  0  0  0  0  0  0  0  0
   36.3294   30.2479   44.5906 C   0  0  0  0  0  0  0  0  0  0  0  0
   35.5329   31.4424   44.1144 C   0  0  0  0  0  0  0  0  0  0  0  0
   34.7200   31.1534   43.4522 H   0  0  0  0  0  0  0  0  0  0  0  0
   35.0465   32.1441   45.3834 C   0  0  0  0  0  0  0  0  0  0  0  0
   36.3130   32.6374   46.0677 C   0  0  0  0  0  0  0  0  0  0  0  0
   37.8622   29.7002   45.9168 H   0  0  0  0  0  0  0  0  0  0  0  0
   38.2554   31.1128   44.9310 H   0  0  0  0  0  0  0  0  0  0  0  0
   35.5998   29.5750   45.0876 H   0  0  0  0  0  0  0  0  0  0  0  0
   36.7635   29.7339   43.7347 H   0  0  0  0  0  0  0  0  0  0  0  0
   36.1720   32.1914   43.6037 H   0  0  0  0  0  0  0  0  0  0  0  0
   34.3779   32.9820   45.1900 H   0  0  0  0  0  0  0  0  0  0  0  0
   34.5654   31.3601   45.9949 H   0  0  0  0  0  0  0  0  0  0  0  0
   36.9228   33.1564   45.2988 H   0  0  0  0  0  0  0  0  0  0  0  0
   36.0125   33.3413   46.8564 H   0  0  0  0  0  0  0  0  0  0  0  0
  1  6  2  0
  2  1  1  0
  3  4  1  0
  3  2  2  0
  4  5  2  0
  5  7  1  0
  5  6  1  0
  7  8  1  0
  9  7  1  0
 10  7  1  0
  1 11  1  0
  2 12  1  0
 13 14  1  0
 14 15  1  0
 15 16  1  0
 16 17  1  0
 16 18  1  0
 18 19  1  0
 19 13  1  0
 14 20  1  0
 14 21  1  0
 15 22  1  0
 15 23  1  0
 16 24  1  0
 18 25  1  0
 18 26  1  0
 19 27  1  0
 19 28  1  0
  3 13  1  0
M  ISO  3  11  14  12  14  17  15
M  END
>  <DihAtoms>  (1) 
3,2,12,13

>  <DihDeg>  (1) 
0.01884235541995465

$$$$
