
     RDKit          3D

 28 29  0  0  0  0  0  0  0  0999 V2000
   38.3011   31.2392   50.1222 C   0  0  0  0  0  0  0  0  0  0  0  0
   38.2930   31.6096   48.7780 C   0  0  0  0  0  0  0  0  0  0  0  0
   37.2074   31.2220   47.9976 C   0  0  0  0  0  0  0  0  0  0  0  0
   36.2178   30.5049   48.5906 N   0  0  0  0  0  0  0  0  0  0  0  0
   36.2602   30.1675   49.8850 C   0  0  0  0  0  0  0  0  0  0  0  0
   37.2956   30.5327   50.6453 N   0  0  0  0  0  0  0  0  0  0  0  0
   35.1355   29.3803   50.4592 C   0  0  0  0  0  0  0  0  0  0  0  0
   35.2720   29.1266   51.8021 F   0  0  0  0  0  0  0  0  0  0  0  0
   33.9217   30.0598   50.3009 F   0  0  0  0  0  0  0  0  0  0  0  0
   34.9447   28.1694   49.8230 F   0  0  0  0  0  0  0  0  0  0  0  0
   39.1814   31.5858   50.6394 H   0  0  0  0  0  0  0  0  0  0  0  0
   39.0362   32.1686   48.2598 H   0  0  0  0  0  0  0  0  0  0  0  0
   36.9930   31.4877   46.6163 N   0  0  0  0  0  0  0  0  0  0  0  0
   37.6563   30.8425   45.5273 C   0  0  0  0  0  0  0  0  0  0  0  0
   36.7520   30.2141   44.5185 C   0  0  0  0  0  0  0  0  0  0  0  0
   35.7014   31.1914   44.0400 C   0  0  0  0  0  0  0  0  0  0  0  0
   35.0172   30.7384   43.3262 H   0  0  0  0  0  0  0  0  0  0  0  0
   34.9992   31.6911   45.3035 C   0  0  0  0  0  0  0  0  0  0  0  0
   36.0695   32.4542   46.0703 C   0  0  0  0  0  0  0  0  0  0  0  0
   38.3144   30.0082   45.9059 H   0  0  0  0  0  0  0  0  0  0  0  0
   38.3810   31.5172   44.9893 H   0  0  0  0  0  0  0  0  0  0  0  0
   36.1949   29.3583   44.9535 H   0  0  0  0  0  0  0  0  0  0  0  0
   37.3384   29.8644   43.6705 H   0  0  0  0  0  0  0  0  0  0  0  0
   36.1525   32.0988   43.5890 H   0  0  0  0  0  0  0  0  0  0  0  0
   34.1499   32.3428   45.1024 H   0  0  0  0  0  0  0  0  0  0  0  0
   34.7054   30.7847   45.8625 H   0  0  0  0  0  0  0  0  0  0  0  0
   36.5614   33.1435   45.3525 H   0  0  0  0  0  0  0  0  0  0  0  0
   35.5672   33.0240   46.8645 H   0  0  0  0  0  0  0  0  0  0  0  0
  1  6  2  0
  2  1  1  0
  3  4  1  0
  3  2  2  0
  4  5  2  0
  5  7  1  0
  5  6  1  0
  7  8  1  0
  9  7  1  0
 10  7  1  0
  1 11  1  0
  2 12  1  0
 13 14  1  0
 14 15  1  0
 15 16  1  0
 16 17  1  0
 16 18  1  0
 18 19  1  0
 19 13  1  0
 14 20  1  0
 14 21  1  0
 15 22  1  0
 15 23  1  0
 16 24  1  0
 18 25  1  0
 18 26  1  0
 19 27  1  0
 19 28  1  0
  3 13  1  0
M  ISO  3  11  14  12  14  17  15
M  END
>  <DihAtoms>  (1) 
3,2,12,13

>  <DihDeg>  (1) 
0.01884235541995465

$$$$
