
 OpenBabel03272510003D

 19 20  0  0  0  0  0  0  0  0999 V2000
   37.8710   32.8870   49.8100 C   0  0  0  0  0  0  0  0  0  0  0  0
   38.5390   33.0010   48.5920 C   0  0  0  0  0  0  0  0  0  0  0  0
   38.1780   32.1360   47.5630 C   0  0  0  0  0  0  0  0  0  0  0  0
   37.1940   31.2310   47.8040 N   0  0  0  0  0  0  0  0  0  0  0  0
   36.5740   31.1520   48.9870 C   0  0  0  0  0  0  0  0  0  0  0  0
   36.9110   31.9750   49.9830 N   0  0  0  0  0  0  0  0  0  0  0  0
   38.2220   33.5990   50.5390 H   0  0  0  0  0  0  0  0  0  0  0  0
   39.3150   33.6870   48.3440 H   0  0  0  0  0  0  0  0  0  0  0  0
   38.7230   32.0750   46.2490 N   0  0  0  0  0  0  0  0  0  0  0  0
   39.8280   32.8410   45.7660 C   0  0  0  0  0  2  0  0  0  0  0  0
   40.9460   32.0380   45.1840 C   0  0  0  0  0  2  0  0  0  0  0  0
   40.4390   31.0620   44.1470 C   0  0  0  0  0  3  0  0  0  0  0  0
   41.2390   30.4510   43.7350 H   0  0  0  0  0  0  0  0  0  0  0  0
   39.3610   30.2370   44.8510 C   0  0  0  0  0  2  0  0  0  0  0  0
   38.2550   31.2310   45.1740 C   0  0  0  0  0  2  0  0  0  0  0  0
   35.5070   30.1320   49.1720 C   0  0  0  0  0  0  0  0  0  0  0  0
   35.1600   29.9310   50.4860 F   0  0  0  0  0  0  0  0  0  0  0  0
   34.3370   30.5110   48.5030 F   0  0  0  0  0  0  0  0  0  0  0  0
   35.8360   28.9030   48.6350 F   0  0  0  0  0  0  0  0  0  0  0  0
  1  6  1  0  0  0  0
  1  7  1  0  0  0  0
  2  1  2  0  0  0  0
  3  4  2  0  0  0  0
  3  2  1  0  0  0  0
  4  5  1  0  0  0  0
  5 16  1  0  0  0  0
  5  6  2  0  0  0  0
  8  2  1  0  0  0  0
  9  3  1  0  0  0  0
 10  9  1  0  0  0  0
 11 10  1  0  0  0  0
 12 14  1  0  0  0  0
 12 11  1  0  0  0  0
 13 12  1  0  0  0  0
 14 15  1  0  0  0  0
 15  9  1  0  0  0  0
 16 17  1  0  0  0  0
 18 16  1  0  0  0  0
 19 16  1  0  0  0  0
M  END
>  <minimizedAffinity>
-5.47171593

>  <minimizedRMSD>
1.94031644

$$$$
