
 OpenBabel03272503003D

 26 28  0  0  0  0  0  0  0  0999 V2000
   38.2200   30.7330   47.2200 F   0  0  0  0  0  0  0  0  0  0  0  0
   38.6280   31.8810   47.8200 C   0  0  0  0  0  0  0  0  0  0  0  0
   38.2240   32.1570   49.0810 C   0  0  0  0  0  0  0  0  0  0  0  0
   38.6650   33.3340   49.6460 C   0  0  0  0  0  0  0  0  0  0  0  0
   39.4950   34.2010   48.9400 C   0  0  0  0  0  0  0  0  0  0  0  0
   39.8840   33.8900   47.6630 C   0  0  0  0  0  0  0  0  0  0  0  0
   39.4470   32.7190   47.0980 C   0  0  0  0  0  0  0  0  0  0  0  0
   38.3510   33.5700   50.6550 H   0  0  0  0  0  0  0  0  0  0  0  0
   39.8140   35.1210   49.4380 H   0  0  0  0  0  0  0  0  0  0  0  0
   40.5370   34.5860   47.1280 H   0  0  0  0  0  0  0  0  0  0  0  0
   36.9010   29.5620   51.5100 C   0  0  0  0  0  0  0  0  0  0  0  0
   37.7570   30.4670   50.8760 C   0  0  0  0  0  0  0  0  0  0  0  0
   37.3510   31.2000   49.7680 C   0  0  0  0  0  0  0  0  0  0  0  0
   36.0730   30.9930   49.3310 N   0  0  0  0  0  0  0  0  0  0  0  0
   35.2700   30.1130   49.9640 C   0  0  0  0  0  0  0  0  0  0  0  0
   35.6630   29.4130   51.0240 N   0  0  0  0  0  0  0  0  0  0  0  0
   37.4100   29.0960   52.3480 H   0  0  0  0  0  0  0  0  0  0  0  0
   38.7800   30.6830   51.1670 H   0  0  0  0  0  0  0  0  0  0  0  0
   34.2560   29.9440   49.6220 H   0  0  0  0  0  0  0  0  0  0  0  0
   39.8540   32.3980   45.7690 N   0  0  0  0  0  0  0  0  0  0  0  0
   39.9710   33.4270   44.7610 C   0  0  0  0  0  0  0  0  0  0  0  0
   39.3650   33.0070   43.4440 C   0  0  0  0  0  0  0  0  0  0  0  0
   39.7560   31.6010   43.0570 C   0  0  0  0  0  0  0  0  0  0  0  0
   38.9030   30.8890   43.0780 H   0  0  0  0  0  0  0  0  0  0  0  0
   40.7950   31.0370   44.0240 C   0  0  0  0  0  0  0  0  0  0  0  0
   40.1600   31.0430   45.3920 C   0  0  0  0  0  0  0  0  0  0  0  0
  1  2  1  0  0  0  0
  2  3  1  0  0  0  0
  3  4  2  0  0  0  0
  3 13  1  0  0  0  0
  4  8  1  0  0  0  0
  5  9  1  0  0  0  0
  5  4  1  0  0  0  0
  6  5  2  0  0  0  0
  7  6  1  0  0  0  0
  7  2  2  0  0  0  0
 10  6  1  0  0  0  0
 11 17  1  0  0  0  0
 12 18  1  0  0  0  0
 12 11  2  0  0  0  0
 13 12  1  0  0  0  0
 14 13  2  0  0  0  0
 14 15  1  0  0  0  0
 15 16  2  0  0  0  0
 16 11  1  0  0  0  0
 19 15  1  0  0  0  0
 20  7  1  0  0  0  0
 21 20  1  0  0  0  0
 22 21  1  0  0  0  0
 23 24  1  0  0  0  0
 23 22  1  0  0  0  0
 23 25  1  0  0  0  0
 25 26  1  0  0  0  0
 26 20  1  0  0  0  0
M  END
>  <minimizedAffinity>
-6.82044077

>  <minimizedRMSD>
0.237180203

$$$$
