
     RDKit          3D

 28 29  0  0  0  0  0  0  0  0999 V2000
   38.3011   31.2392   50.1222 C   0  0  0  0  0  0  0  0  0  0  0  0
   38.2930   31.6096   48.7780 C   0  0  0  0  0  0  0  0  0  0  0  0
   37.2074   31.2220   47.9976 C   0  0  0  0  0  0  0  0  0  0  0  0
   36.2178   30.5049   48.5906 N   0  0  0  0  0  0  0  0  0  0  0  0
   36.2602   30.1675   49.8850 C   0  0  0  0  0  0  0  0  0  0  0  0
   37.2956   30.5327   50.6453 N   0  0  0  0  0  0  0  0  0  0  0  0
   35.1355   29.3803   50.4592 C   0  0  0  0  0  0  0  0  0  0  0  0
   35.2720   29.1266   51.8021 F   0  0  0  0  0  0  0  0  0  0  0  0
   33.9217   30.0598   50.3009 F   0  0  0  0  0  0  0  0  0  0  0  0
   34.9447   28.1694   49.8230 F   0  0  0  0  0  0  0  0  0  0  0  0
   39.1814   31.5858   50.6394 H   0  0  0  0  0  0  0  0  0  0  0  0
   39.0362   32.1686   48.2598 H   0  0  0  0  0  0  0  0  0  0  0  0
   36.9930   31.4877   46.6163 N   0  0  0  0  0  0  0  0  0  0  0  0
   35.8897   32.2090   46.0644 C   0  0  0  0  0  0  0  0  0  0  0  0
   36.2608   33.3703   45.2018 C   0  0  0  0  0  0  0  0  0  0  0  0
   37.2595   32.9672   44.1397 C   0  0  0  0  0  0  0  0  0  0  0  0
   37.5613   33.8101   43.5222 H   0  0  0  0  0  0  0  0  0  0  0  0
   38.4287   32.3331   44.8947 C   0  0  0  0  0  0  0  0  0  0  0  0
   37.8498   31.0768   45.5290 C   0  0  0  0  0  0  0  0  0  0  0  0
   35.2471   32.6358   46.8874 H   0  0  0  0  0  0  0  0  0  0  0  0
   35.1735   31.5521   45.4939 H   0  0  0  0  0  0  0  0  0  0  0  0
   36.7525   34.1710   45.7928 H   0  0  0  0  0  0  0  0  0  0  0  0
   35.3672   33.7735   44.7284 H   0  0  0  0  0  0  0  0  0  0  0  0
   36.8702   32.1578   43.4889 H   0  0  0  0  0  0  0  0  0  0  0  0
   39.2713   32.0725   44.2555 H   0  0  0  0  0  0  0  0  0  0  0  0
   38.7096   33.0591   45.6785 H   0  0  0  0  0  0  0  0  0  0  0  0
   37.2905   30.5353   44.7376 H   0  0  0  0  0  0  0  0  0  0  0  0
   38.6910   30.4674   45.8879 H   0  0  0  0  0  0  0  0  0  0  0  0
  1  6  2  0
  2  1  1  0
  3  4  1  0
  3  2  2  0
  4  5  2  0
  5  7  1  0
  5  6  1  0
  7  8  1  0
  9  7  1  0
 10  7  1  0
  1 11  1  0
  2 12  1  0
 13 14  1  0
 14 15  1  0
 15 16  1  0
 16 17  1  0
 16 18  1  0
 18 19  1  0
 19 13  1  0
 14 20  1  0
 14 21  1  0
 15 22  1  0
 15 23  1  0
 16 24  1  0
 18 25  1  0
 18 26  1  0
 19 27  1  0
 19 28  1  0
  3 13  1  0
M  ISO  3  11  14  12  14  17  15
M  END
>  <DihAtoms>  (1) 
3,2,12,13

>  <DihDeg>  (1) 
0.01884235541995465

$$$$
