
     RDKit          3D

 28 29  0  0  0  0  0  0  0  0999 V2000
   38.3011   31.2392   50.1222 C   0  0  0  0  0  0  0  0  0  0  0  0
   38.2930   31.6096   48.7780 C   0  0  0  0  0  0  0  0  0  0  0  0
   37.2074   31.2220   47.9976 C   0  0  0  0  0  0  0  0  0  0  0  0
   36.2178   30.5049   48.5906 N   0  0  0  0  0  0  0  0  0  0  0  0
   36.2602   30.1675   49.8850 C   0  0  0  0  0  0  0  0  0  0  0  0
   37.2956   30.5327   50.6453 N   0  0  0  0  0  0  0  0  0  0  0  0
   35.1355   29.3803   50.4592 C   0  0  0  0  0  0  0  0  0  0  0  0
   35.2720   29.1266   51.8021 F   0  0  0  0  0  0  0  0  0  0  0  0
   33.9217   30.0598   50.3009 F   0  0  0  0  0  0  0  0  0  0  0  0
   34.9447   28.1694   49.8230 F   0  0  0  0  0  0  0  0  0  0  0  0
   39.1814   31.5858   50.6394 H   0  0  0  0  0  0  0  0  0  0  0  0
   39.0362   32.1686   48.2598 H   0  0  0  0  0  0  0  0  0  0  0  0
   36.9930   31.4877   46.6163 N   0  0  0  0  0  0  0  0  0  0  0  0
   36.5981   32.7421   46.0570 C   0  0  0  0  0  0  0  0  0  0  0  0
   37.4998   33.2712   44.9905 C   0  0  0  0  0  0  0  0  0  0  0  0
   37.7535   32.2315   43.9215 C   0  0  0  0  0  0  0  0  0  0  0  0
   38.4326   32.5934   43.1529 H   0  0  0  0  0  0  0  0  0  0  0  0
   38.2900   31.0047   44.6607 C   0  0  0  0  0  0  0  0  0  0  0  0
   37.1358   30.5396   45.5365 C   0  0  0  0  0  0  0  0  0  0  0  0
   36.5729   33.5386   46.8553 H   0  0  0  0  0  0  0  0  0  0  0  0
   35.5417   32.7379   45.6648 H   0  0  0  0  0  0  0  0  0  0  0  0
   38.4972   33.5356   45.3997 H   0  0  0  0  0  0  0  0  0  0  0  0
   37.0527   34.1559   44.5404 H   0  0  0  0  0  0  0  0  0  0  0  0
   36.8129   31.8865   43.4456 H   0  0  0  0  0  0  0  0  0  0  0  0
   38.6029   30.1983   43.9987 H   0  0  0  0  0  0  0  0  0  0  0  0
   39.1200   31.3722   45.2903 H   0  0  0  0  0  0  0  0  0  0  0  0
   36.2309   30.4974   44.8948 H   0  0  0  0  0  0  0  0  0  0  0  0
   37.3856   29.5373   45.9116 H   0  0  0  0  0  0  0  0  0  0  0  0
  1  6  2  0
  2  1  1  0
  3  4  1  0
  3  2  2  0
  4  5  2  0
  5  7  1  0
  5  6  1  0
  7  8  1  0
  9  7  1  0
 10  7  1  0
  1 11  1  0
  2 12  1  0
 13 14  1  0
 14 15  1  0
 15 16  1  0
 16 17  1  0
 16 18  1  0
 18 19  1  0
 19 13  1  0
 14 20  1  0
 14 21  1  0
 15 22  1  0
 15 23  1  0
 16 24  1  0
 18 25  1  0
 18 26  1  0
 19 27  1  0
 19 28  1  0
  3 13  1  0
M  ISO  3  11  14  12  14  17  15
M  END
>  <DihAtoms>  (1) 
3,2,12,13

>  <DihDeg>  (1) 
0.01884235541995465

$$$$
