
     RDKit          3D

 39 41  0  0  0  0  0  0  0  0999 V2000
   35.1728   28.6671   50.0263 C   0  0  0  0  0  0  0  0  0  0  0  0
   36.2379   29.5956   49.8499 C   0  0  0  0  0  0  0  0  0  0  0  0
   36.1560   30.5076   48.7982 C   0  0  0  0  0  0  0  0  0  0  0  0
   35.0557   30.4659   47.9865 N   0  0  0  0  0  0  0  0  0  0  0  0
   34.0624   29.5540   48.2008 C   0  0  0  0  0  0  0  0  0  0  0  0
   34.1101   28.6706   49.1950 N   0  0  0  0  0  0  0  0  0  0  0  0
   33.0250   29.7013   47.2333 N   0  0  0  0  0  0  0  0  0  0  0  0
   37.2334   31.4719   48.5932 C   0  0  0  0  0  0  0  0  0  0  0  0
   37.1907   32.5074   49.5190 C   0  0  0  0  0  0  0  0  0  0  0  0
   38.1540   33.5050   49.4523 C   0  0  0  0  0  0  0  0  0  0  0  0
   39.1344   33.4488   48.4685 C   0  0  0  0  0  0  0  0  0  0  0  0
   39.1338   32.4059   47.5775 C   0  0  0  0  0  0  0  0  0  0  0  0
   38.1948   31.4623   47.6673 N   0  0  0  0  0  0  0  0  0  0  0  0
   37.3863   29.5457   50.7986 C   0  0  0  0  0  0  0  0  0  0  0  0
   38.5827   29.8091   50.1521 F   0  0  0  0  0  0  0  0  0  0  0  0
   37.1942   30.5015   51.7604 F   0  0  0  0  0  0  0  0  0  0  0  0
   37.5048   28.3313   51.4353 F   0  0  0  0  0  0  0  0  0  0  0  0
   35.2044   27.9511   50.8265 H   0  0  0  0  0  0  0  0  0  0  0  0
   32.3657   30.5200   47.3266 H   0  0  0  0  0  0  0  0  0  0  0  0
   32.9364   28.9951   46.4489 H   0  0  0  0  0  0  0  0  0  0  0  0
   36.4859   32.6807   50.3389 H   0  0  0  0  0  0  0  0  0  0  0  0
   38.1990   34.3472   50.1292 H   0  0  0  0  0  0  0  0  0  0  0  0
   39.8815   34.2282   48.4219 H   0  0  0  0  0  0  0  0  0  0  0  0
   40.0975   32.2734   46.5439 N   0  0  0  0  0  0  0  0  0  0  0  0
   41.5265   32.4495   46.6123 C   0  0  0  0  0  0  0  0  0  0  0  0
   42.1768   31.1005   46.4714 C   0  0  0  0  0  0  0  0  0  0  0  0
   41.7398   30.3805   45.2192 C   0  0  0  0  0  0  0  0  0  0  0  0
   42.3688   30.7926   44.3960 H   0  0  0  0  0  0  0  0  0  0  0  0
   40.3026   30.5526   44.8828 C   0  0  0  0  0  0  0  0  0  0  0  0
   39.7324   31.9164   45.1886 C   0  0  0  0  0  0  0  0  0  0  0  0
   41.9058   33.1908   45.8843 H   0  0  0  0  0  0  0  0  0  0  0  0
   41.7935   32.8570   47.6057 H   0  0  0  0  0  0  0  0  0  0  0  0
   41.9926   30.5158   47.3990 H   0  0  0  0  0  0  0  0  0  0  0  0
   43.2762   31.2604   46.4092 H   0  0  0  0  0  0  0  0  0  0  0  0
   41.9635   29.3066   45.3748 H   0  0  0  0  0  0  0  0  0  0  0  0
   39.6343   29.8260   45.3955 H   0  0  0  0  0  0  0  0  0  0  0  0
   40.1742   30.3449   43.7941 H   0  0  0  0  0  0  0  0  0  0  0  0
   38.6239   31.8234   45.0914 H   0  0  0  0  0  0  0  0  0  0  0  0
   40.1498   32.6438   44.4741 H   0  0  0  0  0  0  0  0  0  0  0  0
  2  1  2  0
  2 14  1  0
  3  2  1  0
  4  5  1  0
  4  3  2  0
  5  6  2  0
  6  1  1  0
  7  5  1  0
  8  3  1  0
  8  9  2  0
 10  9  1  0
 11 10  2  0
 12 13  2  0
 12 11  1  0
 13  8  1  0
 14 17  1  0
 14 16  1  0
 15 14  1  0
  1 18  1  0
  7 19  1  0
  7 20  1  0
  9 21  1  0
 10 22  1  0
 11 23  1  0
 24 25  1  0
 25 26  1  0
 26 27  1  0
 27 28  1  0
 27 29  1  0
 29 30  1  0
 30 24  1  0
 25 31  1  0
 25 32  1  0
 26 33  1  0
 26 34  1  0
 27 35  1  0
 29 36  1  0
 29 37  1  0
 30 38  1  0
 30 39  1  0
 12 24  1  0
M  ISO  5  18  14  21  14  22  14  23  14  28  15
M  END
>  <DihAtoms>  (1) 
12,11,23,24

>  <DihDeg>  (1) 
179.635281467696

$$$$
