
 OpenBabel03272510003D

 19 20  0  0  0  0  0  0  0  0999 V2000
   38.3430   33.1500   49.4980 C   0  0  0  0  0  0  0  0  0  0  0  0
   38.8130   33.0620   48.1880 C   0  0  0  0  0  0  0  0  0  0  0  0
   38.3080   32.0500   47.3770 C   0  0  0  0  0  0  0  0  0  0  0  0
   37.3850   31.2070   47.9080 N   0  0  0  0  0  0  0  0  0  0  0  0
   36.9570   31.3220   49.1700 C   0  0  0  0  0  0  0  0  0  0  0  0
   37.4340   32.2890   49.9600 N   0  0  0  0  0  0  0  0  0  0  0  0
   38.7930   33.9640   50.0430 H   0  0  0  0  0  0  0  0  0  0  0  0
   39.5320   33.6920   47.7190 H   0  0  0  0  0  0  0  0  0  0  0  0
   38.6430   31.7760   46.0210 N   0  0  0  0  0  0  0  0  0  0  0  0
   39.6080   30.8210   45.5740 C   0  0  0  0  0  2  0  0  0  0  0  0
   39.0930   29.8100   44.6030 C   0  0  0  0  0  2  0  0  0  0  0  0
   38.3780   30.4750   43.4470 C   0  0  0  0  0  3  0  0  0  0  0  0
   37.9720   29.7480   42.7460 H   0  0  0  0  0  0  0  0  0  0  0  0
   37.3020   31.3560   44.0820 C   0  0  0  0  0  2  0  0  0  0  0  0
   38.0710   32.4150   44.8600 C   0  0  0  0  0  2  0  0  0  0  0  0
   35.9440   30.3570   49.6760 C   0  0  0  0  0  0  0  0  0  0  0  0
   36.1610   29.9630   50.9740 F   0  0  0  0  0  0  0  0  0  0  0  0
   34.6610   30.9180   49.6380 F   0  0  0  0  0  0  0  0  0  0  0  0
   35.8510   29.2160   48.9030 F   0  0  0  0  0  0  0  0  0  0  0  0
  1  6  1  0  0  0  0
  1  7  1  0  0  0  0
  2  1  2  0  0  0  0
  3  4  2  0  0  0  0
  3  2  1  0  0  0  0
  4  5  1  0  0  0  0
  5 16  1  0  0  0  0
  5  6  2  0  0  0  0
  8  2  1  0  0  0  0
  9  3  1  0  0  0  0
 10  9  1  0  0  0  0
 11 10  1  0  0  0  0
 12 14  1  0  0  0  0
 12 11  1  0  0  0  0
 13 12  1  0  0  0  0
 14 15  1  0  0  0  0
 15  9  1  0  0  0  0
 16 17  1  0  0  0  0
 18 16  1  0  0  0  0
 19 16  1  0  0  0  0
M  END
>  <minimizedAffinity>
-5.20502281

>  <minimizedRMSD>
1.78029251

$$$$
