
     RDKit          3D

 47 51  0  0  0  0  0  0  0  0999 V2000
   35.5506   29.7016   49.8056 C   0  0  0  0  0  0  0  0  0  0  0  0
   36.5421   29.5251   50.7573 C   0  0  0  0  0  0  0  0  0  0  0  0
   37.6743   30.0675   50.1431 C   0  0  0  0  0  0  0  0  0  0  0  0
   37.3175   30.5287   48.8913 C   0  0  0  0  0  0  0  0  0  0  0  0
   36.0384   30.2922   48.7247 O   0  0  0  0  0  0  0  0  0  0  0  0
   38.6180   32.4570   48.1310 C   0  0  0  0  0  0  0  0  0  0  0  0
   38.1922   31.1649   47.9202 C   0  0  0  0  0  0  0  0  0  0  0  0
   38.5836   30.4572   46.7950 C   0  0  0  0  0  0  0  0  0  0  0  0
   39.4152   31.0353   45.8530 C   0  0  0  0  0  0  0  0  0  0  0  0
   39.9571   30.6161   44.6853 N   0  0  0  0  0  0  0  0  0  0  0  0
   40.6846   31.6224   44.2094 N   0  0  0  0  0  0  0  0  0  0  0  0
   40.6167   32.6768   45.0528 C   0  0  0  0  0  0  0  0  0  0  0  0
   39.8099   32.3329   46.1179 C   0  0  0  0  0  0  0  0  0  0  0  0
   39.4617   33.0937   47.2102 C   0  0  0  0  0  0  0  0  0  0  0  0
   34.1656   29.2845   49.9937 C   0  0  0  0  0  0  0  0  0  0  0  0
   33.4996   29.8205   50.9007 O   0  0  0  0  0  0  0  0  0  0  0  0
   31.6935   27.1590   48.3508 C   0  0  0  0  0  0  0  0  0  0  0  0
   32.4624   26.3538   47.5138 C   0  0  0  0  0  0  0  0  0  0  0  0
   33.8203   26.5399   47.5140 C   0  0  0  0  0  0  0  0  0  0  0  0
   34.3699   27.4737   48.3033 N   0  0  0  0  0  0  0  0  0  0  0  0
   33.6015   28.2591   49.1221 C   0  0  0  0  0  0  0  0  0  0  0  0
   32.2684   28.0861   49.1308 N   0  0  0  0  0  0  0  0  0  0  0  0
   36.4994   29.0875   51.7343 H   0  0  0  0  0  0  0  0  0  0  0  0
   38.6674   30.1177   50.5772 H   0  0  0  0  0  0  0  0  0  0  0  0
   38.2762   32.9627   49.0354 H   0  0  0  0  0  0  0  0  0  0  0  0
   38.2321   29.4401   46.6554 H   0  0  0  0  0  0  0  0  0  0  0  0
   39.7639   29.6506   44.3256 H   0  0  0  0  0  0  0  0  0  0  0  0
   41.1421   33.6189   44.8592 H   0  0  0  0  0  0  0  0  0  0  0  0
   39.7925   34.0885   47.3678 H   0  0  0  0  0  0  0  0  0  0  0  0
   30.6154   27.0278   48.3658 H   0  0  0  0  0  0  0  0  0  0  0  0
   31.9685   25.6331   46.9133 H   0  0  0  0  0  0  0  0  0  0  0  0
   34.6655   25.7738   46.7034 N   0  0  0  0  0  0  0  0  0  0  0  0
   34.2460   24.7267   45.7951 C   0  0  0  0  0  0  0  0  0  0  0  0
   34.4823   25.2675   44.4013 C   0  0  0  0  0  0  0  0  0  0  0  0
   35.9202   25.5630   44.1872 C   0  0  0  0  0  0  0  0  0  0  0  0
   36.0061   26.2291   43.2830 H   0  0  0  0  0  0  0  0  0  0  0  0
   36.6250   26.2654   45.3089 C   0  0  0  0  0  0  0  0  0  0  0  0
   36.1004   25.9488   46.6823 C   0  0  0  0  0  0  0  0  0  0  0  0
   33.2322   24.3643   45.9389 H   0  0  0  0  0  0  0  0  0  0  0  0
   34.9113   23.8305   45.8942 H   0  0  0  0  0  0  0  0  0  0  0  0
   33.8237   26.1235   44.1719 H   0  0  0  0  0  0  0  0  0  0  0  0
   34.2091   24.4231   43.7035 H   0  0  0  0  0  0  0  0  0  0  0  0
   36.4807   24.6305   43.9017 H   0  0  0  0  0  0  0  0  0  0  0  0
   36.6347   27.3766   45.1269 H   0  0  0  0  0  0  0  0  0  0  0  0
   37.6883   25.9472   45.2822 H   0  0  0  0  0  0  0  0  0  0  0  0
   36.3676   26.8258   47.3296 H   0  0  0  0  0  0  0  0  0  0  0  0
   36.5751   25.0266   47.1029 H   0  0  0  0  0  0  0  0  0  0  0  0
  1 15  1  0
  1  2  2  0
  3  2  1  0
  4  3  2  0
  5  4  1  0
  5  1  1  0
  7  6  2  0
  7  4  1  0
  8  7  1  0
  9 13  1  0
  9  8  2  0
 10  9  1  0
 11 10  1  0
 11 12  2  0
 12 13  1  0
 13 14  2  0
 14  6  1  0
 15 16  2  0
 17 22  2  0
 18 17  1  0
 19 18  2  0
 19 20  1  0
 20 21  2  0
 21 22  1  0
 21 15  1  0
  2 23  1  0
  3 24  1  0
  6 25  1  0
  8 26  1  0
 10 27  1  0
 12 28  1  0
 14 29  1  0
 17 30  1  0
 18 31  1  0
 32 33  1  0
 33 34  1  0
 34 35  1  0
 35 36  1  0
 35 37  1  0
 37 38  1  0
 38 32  1  0
 33 39  1  0
 33 40  1  0
 34 41  1  0
 34 42  1  0
 35 43  1  0
 37 44  1  0
 37 45  1  0
 38 46  1  0
 38 47  1  0
 19 32  1  0
M  ISO  8  23  14  24  14  25  14  26  14  27   9  28  14  29  14  30  14
M  ISO  2  31  14  36  15
M  END
>  <DihAtoms>  (1) 
17,18,31,32

>  <DihDeg>  (1) 
-0.054624128055023924

$$$$
