
 OpenBabel03272502573D

 40 43  0  0  0  0  0  0  0  0999 V2000
   37.9120   26.9680   33.6300 C   0  0  0  0  0  0  0  0  0  0  0  0
   39.0990   27.1310   32.9080 C   0  0  0  0  0  0  0  0  0  0  0  0
   40.2160   26.3710   33.2140 C   0  0  0  0  0  0  0  0  0  0  0  0
   40.0780   25.4670   34.2540 C   0  0  0  0  0  0  0  0  0  0  0  0
   38.8990   25.3040   34.9730 C   0  0  0  0  0  0  0  0  0  0  0  0
   37.8450   26.0730   34.6280 N   0  0  0  0  0  0  0  0  0  0  0  0
   38.8750   24.3560   36.0080 N   0  0  0  0  0  0  0  0  0  0  0  0
   40.1160   23.8040   36.4810 C   0  0  0  0  0  0  0  0  0  0  0  0
   39.7930   22.7430   37.4990 C   0  0  0  0  0  0  0  0  0  0  0  0
   38.9730   23.3300   38.6300 C   0  0  0  0  0  0  0  0  0  0  0  0
   37.7760   24.0700   38.1260 C   0  0  0  0  0  0  0  0  0  0  0  0
   37.6530   23.8870   36.6420 C   0  0  0  0  0  0  0  0  0  0  0  0
   39.1500   27.8530   32.1040 H   0  0  0  0  0  0  0  0  0  0  0  0
   41.1060   26.5160   32.6480 H   0  0  0  0  0  0  0  0  0  0  0  0
   41.0050   24.9090   34.4300 H   0  0  0  0  0  0  0  0  0  0  0  0
   40.7600   24.5770   36.9640 H   0  0  0  0  0  0  0  0  0  0  0  0
   40.6900   23.3200   35.6610 H   0  0  0  0  0  0  0  0  0  0  0  0
   40.7510   22.3700   37.8960 H   0  0  0  0  0  0  0  0  0  0  0  0
   39.2890   21.8870   37.0090 H   0  0  0  0  0  0  0  0  0  0  0  0
   38.6020   22.4810   39.2610 H   0  0  0  0  0  0  0  0  0  0  0  0
   39.6270   23.9190   39.2860 H   0  0  0  0  0  0  0  0  0  0  0  0
   36.8370   23.7290   38.6180 H   0  0  0  0  0  0  0  0  0  0  0  0
   37.8940   25.1510   38.3210 H   0  0  0  0  0  0  0  0  0  0  0  0
   36.7800   24.4300   36.2190 H   0  0  0  0  0  0  0  0  0  0  0  0
   37.5270   22.8330   36.3780 H   0  0  0  0  0  0  0  0  0  0  0  0
   35.1150   28.4080   31.7560 C   0  0  0  0  0  0  0  0  0  0  0  0
   34.5860   29.3540   32.6620 C   0  0  0  0  0  0  0  0  0  0  0  0
   35.2050   29.4650   33.8850 C   0  0  0  0  0  0  0  0  0  0  0  0
   36.2790   28.6740   34.1580 N   0  0  0  0  0  0  0  0  0  0  0  0
   36.7620   27.7840   33.2790 C   0  0  0  0  0  0  0  0  0  0  0  0
   36.1750   27.6580   32.0810 N   0  0  0  0  0  0  0  0  0  0  0  0
   34.6330   28.3170   30.7930 H   0  0  0  0  0  0  0  0  0  0  0  0
   33.7440   29.9460   32.3950 H   0  0  0  0  0  0  0  0  0  0  0  0
   34.7570   30.3830   34.8710 N   0  0  0  0  0  0  0  0  0  0  0  0
   35.4890   31.5550   35.2430 C   0  0  0  0  0  2  0  0  0  0  0  0
   35.2010   31.8720   36.7100 C   0  0  0  0  0  2  0  0  0  0  0  0
   33.7590   32.2080   36.9470 C   0  0  0  0  0  3  0  0  0  0  0  0
   33.4560   31.7290   37.9240 H   0  0  0  0  0  0  0  0  0  0  0  0
   32.8720   31.5030   35.9170 C   0  0  0  0  0  2  0  0  0  0  0  0
   33.5030   30.1630   35.5650 C   0  0  0  0  0  2  0  0  0  0  0  0
  1  6  1  0  0  0  0
  2  3  1  0  0  0  0
  2  1  2  0  0  0  0
  3  4  2  0  0  0  0
  4 15  1  0  0  0  0
  4  5  1  0  0  0  0
  5  7  1  0  0  0  0
  6  5  2  0  0  0  0
  7  8  1  0  0  0  0
  7 12  1  0  0  0  0
  8 16  1  0  0  0  0
  8  9  1  0  0  0  0
  9 18  1  0  0  0  0
  9 10  1  0  0  0  0
 10 20  1  0  0  0  0
 10 21  1  0  0  0  0
 11 23  1  0  0  0  0
 11 22  1  0  0  0  0
 11 10  1  0  0  0  0
 12 11  1  0  0  0  0
 13  2  1  0  0  0  0
 14  3  1  0  0  0  0
 17  8  1  0  0  0  0
 19  9  1  0  0  0  0
 24 12  1  0  0  0  0
 25 12  1  0  0  0  0
 26 31  2  0  0  0  0
 26 27  1  0  0  0  0
 27 28  2  0  0  0  0
 28 29  1  0  0  0  0
 28 34  1  0  0  0  0
 30  1  1  0  0  0  0
 30 29  2  0  0  0  0
 31 30  1  0  0  0  0
 32 26  1  0  0  0  0
 33 27  1  0  0  0  0
 34 35  1  0  0  0  0
 34 40  1  0  0  0  0
 35 36  1  0  0  0  0
 36 37  1  0  0  0  0
 37 38  1  0  0  0  0
 39 37  1  0  0  0  0
 40 39  1  0  0  0  0
M  END
>  <minimizedAffinity>
-5.97408247

$$$$

 OpenBabel03272502573D

 40 43  0  0  0  0  0  0  0  0999 V2000
   37.4130   26.3160   32.1360 C   0  0  0  0  0  0  0  0  0  0  0  0
   37.9510   26.5790   30.8720 C   0  0  0  0  0  0  0  0  0  0  0  0
   37.8320   27.8370   30.3060 C   0  0  0  0  0  0  0  0  0  0  0  0
   37.1620   28.7880   31.0580 C   0  0  0  0  0  0  0  0  0  0  0  0
   36.6260   28.5290   32.3150 C   0  0  0  0  0  0  0  0  0  0  0  0
   36.7750   27.2840   32.8130 N   0  0  0  0  0  0  0  0  0  0  0  0
   35.9680   29.5710   32.9860 N   0  0  0  0  0  0  0  0  0  0  0  0
   35.6130   30.7600   32.2580 C   0  0  0  0  0  0  0  0  0  0  0  0
   35.0290   31.7440   33.2360 C   0  0  0  0  0  0  0  0  0  0  0  0
   33.8320   31.1410   33.9400 C   0  0  0  0  0  0  0  0  0  0  0  0
   34.1500   29.8090   34.5400 C   0  0  0  0  0  0  0  0  0  0  0  0
   35.6160   29.5230   34.3970 C   0  0  0  0  0  0  0  0  0  0  0  0
   38.4660   25.7970   30.3280 H   0  0  0  0  0  0  0  0  0  0  0  0
   38.2510   28.0080   29.3430 H   0  0  0  0  0  0  0  0  0  0  0  0
   37.1120   29.7520   30.5390 H   0  0  0  0  0  0  0  0  0  0  0  0
   34.8560   30.5530   31.4640 H   0  0  0  0  0  0  0  0  0  0  0  0
   36.5020   31.2350   31.7900 H   0  0  0  0  0  0  0  0  0  0  0  0
   34.7080   32.6260   32.6570 H   0  0  0  0  0  0  0  0  0  0  0  0
   35.8110   32.0870   33.9420 H   0  0  0  0  0  0  0  0  0  0  0  0
   33.5450   31.8270   34.7800 H   0  0  0  0  0  0  0  0  0  0  0  0
   32.9720   31.1370   33.2590 H   0  0  0  0  0  0  0  0  0  0  0  0
   33.8690   29.7590   35.6160 H   0  0  0  0  0  0  0  0  0  0  0  0
   33.6010   29.0150   34.0030 H   0  0  0  0  0  0  0  0  0  0  0  0
   35.8990   28.5360   34.8200 H   0  0  0  0  0  0  0  0  0  0  0  0
   36.2220   30.2740   34.9130 H   0  0  0  0  0  0  0  0  0  0  0  0
   37.4680   22.6690   32.4530 C   0  0  0  0  0  0  0  0  0  0  0  0
   37.8480   22.4780   33.8000 C   0  0  0  0  0  0  0  0  0  0  0  0
   38.0730   23.6050   34.5540 C   0  0  0  0  0  0  0  0  0  0  0  0
   37.9210   24.8290   33.9770 N   0  0  0  0  0  0  0  0  0  0  0  0
   37.5590   24.9830   32.6950 C   0  0  0  0  0  0  0  0  0  0  0  0
   37.3340   23.8980   31.9410 N   0  0  0  0  0  0  0  0  0  0  0  0
   37.2900   21.7850   31.8550 H   0  0  0  0  0  0  0  0  0  0  0  0
   37.9520   21.4970   34.1990 H   0  0  0  0  0  0  0  0  0  0  0  0
   38.4570   23.5310   35.9190 N   0  0  0  0  0  0  0  0  0  0  0  0
   39.8210   23.4960   36.3490 C   0  0  0  0  0  2  0  0  0  0  0  0
   39.9090   22.6980   37.6490 C   0  0  0  0  0  2  0  0  0  0  0  0
   39.1510   23.3490   38.7680 C   0  0  0  0  0  3  0  0  0  0  0  0
   38.6390   22.5290   39.3520 H   0  0  0  0  0  0  0  0  0  0  0  0
   37.9850   24.1720   38.2140 C   0  0  0  0  0  2  0  0  0  0  0  0
   37.4530   23.4840   36.9640 C   0  0  0  0  0  2  0  0  0  0  0  0
  1 30  1  0  0  0  0
  1  6  1  0  0  0  0
  2  1  2  0  0  0  0
  3  2  1  0  0  0  0
  3  4  2  0  0  0  0
  4  5  1  0  0  0  0
  5  6  2  0  0  0  0
  5  7  1  0  0  0  0
  7 12  1  0  0  0  0
  8  7  1  0  0  0  0
  8  9  1  0  0  0  0
  9 10  1  0  0  0  0
  9 19  1  0  0  0  0
 10 11  1  0  0  0  0
 10 20  1  0  0  0  0
 11 22  1  0  0  0  0
 12 11  1  0  0  0  0
 12 24  1  0  0  0  0
 12 25  1  0  0  0  0
 13  2  1  0  0  0  0
 14  3  1  0  0  0  0
 15  4  1  0  0  0  0
 16  8  1  0  0  0  0
 17  8  1  0  0  0  0
 18  9  1  0  0  0  0
 21 10  1  0  0  0  0
 23 11  1  0  0  0  0
 26 27  1  0  0  0  0
 27 33  1  0  0  0  0
 27 28  2  0  0  0  0
 28 34  1  0  0  0  0
 29 28  1  0  0  0  0
 30 29  2  0  0  0  0
 31 26  2  0  0  0  0
 31 30  1  0  0  0  0
 32 26  1  0  0  0  0
 34 35  1  0  0  0  0
 34 40  1  0  0  0  0
 35 36  1  0  0  0  0
 36 37  1  0  0  0  0
 37 38  1  0  0  0  0
 39 37  1  0  0  0  0
 40 39  1  0  0  0  0
M  END
>  <minimizedAffinity>
-5.9293375

$$$$

 OpenBabel03272502573D

 40 43  0  0  0  0  0  0  0  0999 V2000
   37.1770   26.9250   33.8280 C   0  0  0  0  0  0  0  0  0  0  0  0
   37.9110   26.8590   35.0160 C   0  0  0  0  0  0  0  0  0  0  0  0
   38.4720   25.6610   35.4280 C   0  0  0  0  0  0  0  0  0  0  0  0
   38.2590   24.5670   34.6050 C   0  0  0  0  0  0  0  0  0  0  0  0
   37.5290   24.6320   33.4230 C   0  0  0  0  0  0  0  0  0  0  0  0
   37.0080   25.8270   33.0750 N   0  0  0  0  0  0  0  0  0  0  0  0
   37.3780   23.4590   32.6680 N   0  0  0  0  0  0  0  0  0  0  0  0
   37.7190   22.1940   33.2630 C   0  0  0  0  0  0  0  0  0  0  0  0
   37.5720   21.1310   32.2070 C   0  0  0  0  0  0  0  0  0  0  0  0
   36.1620   21.1290   31.6540 C   0  0  0  0  0  0  0  0  0  0  0  0
   35.7360   22.4900   31.2060 C   0  0  0  0  0  0  0  0  0  0  0  0
   36.8920   23.4410   31.2970 C   0  0  0  0  0  0  0  0  0  0  0  0
   38.0470   27.7460   35.6220 H   0  0  0  0  0  0  0  0  0  0  0  0
   39.0270   25.6390   36.3370 H   0  0  0  0  0  0  0  0  0  0  0  0
   38.7350   23.6640   35.0030 H   0  0  0  0  0  0  0  0  0  0  0  0
   37.0490   21.9420   34.1200 H   0  0  0  0  0  0  0  0  0  0  0  0
   38.7730   22.1760   33.6150 H   0  0  0  0  0  0  0  0  0  0  0  0
   37.7780   20.1620   32.6900 H   0  0  0  0  0  0  0  0  0  0  0  0
   38.3380   21.2710   31.4190 H   0  0  0  0  0  0  0  0  0  0  0  0
   36.1470   20.4590   30.7540 H   0  0  0  0  0  0  0  0  0  0  0  0
   35.4870   20.6590   32.3800 H   0  0  0  0  0  0  0  0  0  0  0  0
   35.3470   22.4820   30.1630 H   0  0  0  0  0  0  0  0  0  0  0  0
   34.9370   22.8700   31.8680 H   0  0  0  0  0  0  0  0  0  0  0  0
   36.6200   24.4710   30.9840 H   0  0  0  0  0  0  0  0  0  0  0  0
   37.7210   23.1250   30.6570 H   0  0  0  0  0  0  0  0  0  0  0  0
   36.1960   29.8140   31.8020 C   0  0  0  0  0  0  0  0  0  0  0  0
   35.5000   30.6220   32.7270 C   0  0  0  0  0  0  0  0  0  0  0  0
   35.3890   30.1500   34.0130 C   0  0  0  0  0  0  0  0  0  0  0  0
   35.9460   28.9480   34.3280 N   0  0  0  0  0  0  0  0  0  0  0  0
   36.6040   28.2000   33.4310 C   0  0  0  0  0  0  0  0  0  0  0  0
   36.7240   28.6400   32.1700 N   0  0  0  0  0  0  0  0  0  0  0  0
   36.2860   30.1800   30.7890 H   0  0  0  0  0  0  0  0  0  0  0  0
   35.0830   31.5530   32.4250 H   0  0  0  0  0  0  0  0  0  0  0  0
   34.7110   30.8800   35.0250 N   0  0  0  0  0  0  0  0  0  0  0  0
   35.2480   32.0560   35.6380 C   0  0  0  0  0  2  0  0  0  0  0  0
   34.7300   32.1450   37.0730 C   0  0  0  0  0  2  0  0  0  0  0  0
   33.2400   32.3060   37.1320 C   0  0  0  0  0  3  0  0  0  0  0  0
   32.8640   31.6740   37.9890 H   0  0  0  0  0  0  0  0  0  0  0  0
   32.5860   31.6640   35.9050 C   0  0  0  0  0  2  0  0  0  0  0  0
   33.4070   30.4500   35.4930 C   0  0  0  0  0  2  0  0  0  0  0  0
  1  2  1  0  0  0  0
  2  3  2  0  0  0  0
  2 13  1  0  0  0  0
  3 14  1  0  0  0  0
  4 15  1  0  0  0  0
  4  3  1  0  0  0  0
  5  4  2  0  0  0  0
  6  5  1  0  0  0  0
  6  1  2  0  0  0  0
  7  8  1  0  0  0  0
  7  5  1  0  0  0  0
  8 17  1  0  0  0  0
  8 16  1  0  0  0  0
  9 18  1  0  0  0  0
  9  8  1  0  0  0  0
 10  9  1  0  0  0  0
 10 21  1  0  0  0  0
 11 12  1  0  0  0  0
 11 10  1  0  0  0  0
 11 23  1  0  0  0  0
 12  7  1  0  0  0  0
 19  9  1  0  0  0  0
 20 10  1  0  0  0  0
 22 11  1  0  0  0  0
 24 12  1  0  0  0  0
 25 12  1  0  0  0  0
 26 31  2  0  0  0  0
 26 27  1  0  0  0  0
 27 28  2  0  0  0  0
 28 29  1  0  0  0  0
 28 34  1  0  0  0  0
 30  1  1  0  0  0  0
 30 29  2  0  0  0  0
 31 30  1  0  0  0  0
 32 26  1  0  0  0  0
 33 27  1  0  0  0  0
 34 40  1  0  0  0  0
 34 35  1  0  0  0  0
 35 36  1  0  0  0  0
 36 37  1  0  0  0  0
 37 38  1  0  0  0  0
 39 37  1  0  0  0  0
 40 39  1  0  0  0  0
M  END
>  <minimizedAffinity>
-5.92242575

$$$$

 OpenBabel03272502573D

 40 43  0  0  0  0  0  0  0  0999 V2000
   36.2560   26.5190   31.9190 C   0  0  0  0  0  0  0  0  0  0  0  0
   35.5590   25.7080   31.0190 C   0  0  0  0  0  0  0  0  0  0  0  0
   35.7110   24.3310   31.0510 C   0  0  0  0  0  0  0  0  0  0  0  0
   36.5760   23.8310   32.0100 C   0  0  0  0  0  0  0  0  0  0  0  0
   37.2700   24.6370   32.9070 C   0  0  0  0  0  0  0  0  0  0  0  0
   37.0810   25.9700   32.8250 N   0  0  0  0  0  0  0  0  0  0  0  0
   38.1210   24.0190   33.8370 N   0  0  0  0  0  0  0  0  0  0  0  0
   38.4720   22.6360   33.6540 C   0  0  0  0  0  0  0  0  0  0  0  0
   39.2910   22.2060   34.8420 C   0  0  0  0  0  0  0  0  0  0  0  0
   40.5180   23.0820   34.9820 C   0  0  0  0  0  0  0  0  0  0  0  0
   40.1690   24.5360   34.9820 C   0  0  0  0  0  0  0  0  0  0  0  0
   38.6780   24.7010   34.9940 C   0  0  0  0  0  0  0  0  0  0  0  0
   34.8940   26.1520   30.2890 H   0  0  0  0  0  0  0  0  0  0  0  0
   35.1670   23.7380   30.3540 H   0  0  0  0  0  0  0  0  0  0  0  0
   36.6380   22.7380   31.9680 H   0  0  0  0  0  0  0  0  0  0  0  0
   39.0750   22.4770   32.7290 H   0  0  0  0  0  0  0  0  0  0  0  0
   37.5720   21.9860   33.6110 H   0  0  0  0  0  0  0  0  0  0  0  0
   39.6020   21.1640   34.6620 H   0  0  0  0  0  0  0  0  0  0  0  0
   38.6630   22.2040   35.7550 H   0  0  0  0  0  0  0  0  0  0  0  0
   40.9940   22.8510   35.9710 H   0  0  0  0  0  0  0  0  0  0  0  0
   41.2590   22.7940   34.2260 H   0  0  0  0  0  0  0  0  0  0  0  0
   40.6060   25.0690   35.8570 H   0  0  0  0  0  0  0  0  0  0  0  0
   40.5510   25.0130   34.0620 H   0  0  0  0  0  0  0  0  0  0  0  0
   38.3700   25.7680   34.9840 H   0  0  0  0  0  0  0  0  0  0  0  0
   38.2330   24.2520   35.8870 H   0  0  0  0  0  0  0  0  0  0  0  0
   36.0980   29.9450   30.6370 C   0  0  0  0  0  0  0  0  0  0  0  0
   35.7060   30.6860   31.7740 C   0  0  0  0  0  0  0  0  0  0  0  0
   35.5090   29.9870   32.9410 C   0  0  0  0  0  0  0  0  0  0  0  0
   35.6980   28.6390   32.9450 N   0  0  0  0  0  0  0  0  0  0  0  0
   36.0710   27.9590   31.8520 C   0  0  0  0  0  0  0  0  0  0  0  0
   36.2690   28.6190   30.7020 N   0  0  0  0  0  0  0  0  0  0  0  0
   36.2550   30.4910   29.7170 H   0  0  0  0  0  0  0  0  0  0  0  0
   35.5730   31.7400   31.7130 H   0  0  0  0  0  0  0  0  0  0  0  0
   35.1150   30.6300   34.1440 N   0  0  0  0  0  0  0  0  0  0  0  0
   35.7690   31.7910   34.6630 C   0  0  0  0  0  2  0  0  0  0  0  0
   35.6610   31.7780   36.1880 C   0  0  0  0  0  2  0  0  0  0  0  0
   34.2400   31.8730   36.6590 C   0  0  0  0  0  3  0  0  0  0  0  0
   34.1290   31.1780   37.5430 H   0  0  0  0  0  0  0  0  0  0  0  0
   33.2920   31.2740   35.6160 C   0  0  0  0  0  2  0  0  0  0  0  0
   34.0000   30.1200   34.9190 C   0  0  0  0  0  2  0  0  0  0  0  0
  1  6  1  0  0  0  0
  2  3  1  0  0  0  0
  2  1  2  0  0  0  0
  3  4  2  0  0  0  0
  4  5  1  0  0  0  0
  5  7  1  0  0  0  0
  6  5  2  0  0  0  0
  7 12  1  0  0  0  0
  8  7  1  0  0  0  0
  8  9  1  0  0  0  0
  9 10  1  0  0  0  0
  9 19  1  0  0  0  0
 10 20  1  0  0  0  0
 11 10  1  0  0  0  0
 11 12  1  0  0  0  0
 11 22  1  0  0  0  0
 12 25  1  0  0  0  0
 13  2  1  0  0  0  0
 14  3  1  0  0  0  0
 15  4  1  0  0  0  0
 16  8  1  0  0  0  0
 17  8  1  0  0  0  0
 18  9  1  0  0  0  0
 21 10  1  0  0  0  0
 23 11  1  0  0  0  0
 24 12  1  0  0  0  0
 26 31  2  0  0  0  0
 26 27  1  0  0  0  0
 27 28  2  0  0  0  0
 28 29  1  0  0  0  0
 28 34  1  0  0  0  0
 30  1  1  0  0  0  0
 30 29  2  0  0  0  0
 31 30  1  0  0  0  0
 32 26  1  0  0  0  0
 33 27  1  0  0  0  0
 34 35  1  0  0  0  0
 34 40  1  0  0  0  0
 35 36  1  0  0  0  0
 36 37  1  0  0  0  0
 37 38  1  0  0  0  0
 39 37  1  0  0  0  0
 40 39  1  0  0  0  0
M  END
>  <minimizedAffinity>
-5.89129448

$$$$

 OpenBabel03272502573D

 40 43  0  0  0  0  0  0  0  0999 V2000
   38.7570   25.2650   33.4380 C   0  0  0  0  0  0  0  0  0  0  0  0
   38.7830   26.6050   33.8380 C   0  0  0  0  0  0  0  0  0  0  0  0
   39.8560   27.1020   34.5590 C   0  0  0  0  0  0  0  0  0  0  0  0
   40.8720   26.2050   34.8460 C   0  0  0  0  0  0  0  0  0  0  0  0
   40.8480   24.8720   34.4490 C   0  0  0  0  0  0  0  0  0  0  0  0
   39.7750   24.4470   33.7500 N   0  0  0  0  0  0  0  0  0  0  0  0
   41.9340   24.0540   34.7970 N   0  0  0  0  0  0  0  0  0  0  0  0
   42.8760   24.5200   35.7790 C   0  0  0  0  0  0  0  0  0  0  0  0
   43.9850   23.5070   35.8740 C   0  0  0  0  0  0  0  0  0  0  0  0
   43.4270   22.1460   36.2350 C   0  0  0  0  0  0  0  0  0  0  0  0
   42.3120   21.7400   35.3250 C   0  0  0  0  0  0  0  0  0  0  0  0
   42.1710   22.7420   34.2170 C   0  0  0  0  0  0  0  0  0  0  0  0
   37.9620   27.2640   33.5850 H   0  0  0  0  0  0  0  0  0  0  0  0
   39.8500   28.1260   34.8500 H   0  0  0  0  0  0  0  0  0  0  0  0
   41.6790   26.6780   35.4170 H   0  0  0  0  0  0  0  0  0  0  0  0
   42.4080   24.6330   36.7860 H   0  0  0  0  0  0  0  0  0  0  0  0
   43.3300   25.4900   35.4840 H   0  0  0  0  0  0  0  0  0  0  0  0
   44.6680   23.8460   36.6690 H   0  0  0  0  0  0  0  0  0  0  0  0
   44.5670   23.4910   34.9310 H   0  0  0  0  0  0  0  0  0  0  0  0
   44.2500   21.3940   36.1140 H   0  0  0  0  0  0  0  0  0  0  0  0
   43.1690   22.1290   37.3020 H   0  0  0  0  0  0  0  0  0  0  0  0
   42.4780   20.7290   34.8880 H   0  0  0  0  0  0  0  0  0  0  0  0
   41.3590   21.7220   35.8830 H   0  0  0  0  0  0  0  0  0  0  0  0
   41.3450   22.4870   33.5180 H   0  0  0  0  0  0  0  0  0  0  0  0
   43.0830   22.8060   33.6170 H   0  0  0  0  0  0  0  0  0  0  0  0
   35.7420   25.1980   31.3610 C   0  0  0  0  0  0  0  0  0  0  0  0
   35.4570   23.8180   31.2690 C   0  0  0  0  0  0  0  0  0  0  0  0
   36.3080   22.9570   31.9210 C   0  0  0  0  0  0  0  0  0  0  0  0
   37.3650   23.4670   32.6120 N   0  0  0  0  0  0  0  0  0  0  0  0
   37.6130   24.7820   32.6850 C   0  0  0  0  0  0  0  0  0  0  0  0
   36.7970   25.6410   32.0570 N   0  0  0  0  0  0  0  0  0  0  0  0
   35.0760   25.8800   30.8500 H   0  0  0  0  0  0  0  0  0  0  0  0
   34.6170   23.4750   30.7140 H   0  0  0  0  0  0  0  0  0  0  0  0
   36.1160   21.5500   31.8970 N   0  0  0  0  0  0  0  0  0  0  0  0
   35.0690   20.8880   32.6120 C   0  0  0  0  0  2  0  0  0  0  0  0
   35.5450   19.4890   33.0000 C   0  0  0  0  0  2  0  0  0  0  0  0
   35.8200   18.6290   31.8030 C   0  0  0  0  0  3  0  0  0  0  0  0
   36.7510   18.0280   32.0240 H   0  0  0  0  0  0  0  0  0  0  0  0
   36.2310   19.4930   30.6080 C   0  0  0  0  0  2  0  0  0  0  0  0
   37.0010   20.7010   31.1230 C   0  0  0  0  0  2  0  0  0  0  0  0
  1  6  2  0  0  0  0
  1  2  1  0  0  0  0
  2  3  2  0  0  0  0
  3  4  1  0  0  0  0
  3 14  1  0  0  0  0
  4 15  1  0  0  0  0
  5  7  1  0  0  0  0
  5  4  2  0  0  0  0
  6  5  1  0  0  0  0
  7  8  1  0  0  0  0
  8  9  1  0  0  0  0
  8 16  1  0  0  0  0
  9 10  1  0  0  0  0
  9 18  1  0  0  0  0
 10 21  1  0  0  0  0
 11 23  1  0  0  0  0
 11 10  1  0  0  0  0
 12  7  1  0  0  0  0
 12 11  1  0  0  0  0
 13  2  1  0  0  0  0
 17  8  1  0  0  0  0
 19  9  1  0  0  0  0
 20 10  1  0  0  0  0
 22 11  1  0  0  0  0
 24 12  1  0  0  0  0
 25 12  1  0  0  0  0
 26 31  1  0  0  0  0
 27 26  2  0  0  0  0
 27 28  1  0  0  0  0
 28 29  2  0  0  0  0
 29 30  1  0  0  0  0
 30  1  1  0  0  0  0
 31 30  2  0  0  0  0
 32 26  1  0  0  0  0
 33 27  1  0  0  0  0
 34 28  1  0  0  0  0
 34 35  1  0  0  0  0
 35 36  1  0  0  0  0
 37 38  1  0  0  0  0
 37 36  1  0  0  0  0
 39 40  1  0  0  0  0
 39 37  1  0  0  0  0
 40 34  1  0  0  0  0
M  END
>  <minimizedAffinity>
-5.81987333

$$$$

 OpenBabel03272502573D

 40 43  0  0  0  0  0  0  0  0999 V2000
   37.0750   27.1200   32.5350 C   0  0  0  0  0  0  0  0  0  0  0  0
   36.3900   27.8540   33.5090 C   0  0  0  0  0  0  0  0  0  0  0  0
   35.9840   29.1530   33.2510 C   0  0  0  0  0  0  0  0  0  0  0  0
   36.2940   29.6570   31.9990 C   0  0  0  0  0  0  0  0  0  0  0  0
   36.9750   28.9280   31.0300 C   0  0  0  0  0  0  0  0  0  0  0  0
   37.3450   27.6690   31.3400 N   0  0  0  0  0  0  0  0  0  0  0  0
   37.2350   29.5420   29.7940 N   0  0  0  0  0  0  0  0  0  0  0  0
   37.0600   30.9650   29.6690 C   0  0  0  0  0  0  0  0  0  0  0  0
   37.2950   31.3340   28.2280 C   0  0  0  0  0  0  0  0  0  0  0  0
   38.6780   30.8980   27.7910 C   0  0  0  0  0  0  0  0  0  0  0  0
   38.9320   29.4560   28.0950 C   0  0  0  0  0  0  0  0  0  0  0  0
   37.6770   28.8180   28.6130 C   0  0  0  0  0  0  0  0  0  0  0  0
   36.1730   27.4100   34.4710 H   0  0  0  0  0  0  0  0  0  0  0  0
   35.4630   29.6880   34.0100 H   0  0  0  0  0  0  0  0  0  0  0  0
   35.9380   30.6860   31.8780 H   0  0  0  0  0  0  0  0  0  0  0  0
   37.7810   31.5320   30.3050 H   0  0  0  0  0  0  0  0  0  0  0  0
   36.0270   31.2760   29.9330 H   0  0  0  0  0  0  0  0  0  0  0  0
   37.2160   32.4310   28.1570 H   0  0  0  0  0  0  0  0  0  0  0  0
   36.4940   30.9080   27.5920 H   0  0  0  0  0  0  0  0  0  0  0  0
   38.7410   31.0230   26.6780 H   0  0  0  0  0  0  0  0  0  0  0  0
   39.4250   31.5870   28.2050 H   0  0  0  0  0  0  0  0  0  0  0  0
   39.2860   28.8980   27.1990 H   0  0  0  0  0  0  0  0  0  0  0  0
   39.7020   29.3690   28.8820 H   0  0  0  0  0  0  0  0  0  0  0  0
   37.8200   27.7450   28.8640 H   0  0  0  0  0  0  0  0  0  0  0  0
   36.8700   28.8650   27.8760 H   0  0  0  0  0  0  0  0  0  0  0  0
   37.9630   23.5880   32.1580 C   0  0  0  0  0  0  0  0  0  0  0  0
   38.2690   23.2000   33.4820 C   0  0  0  0  0  0  0  0  0  0  0  0
   38.1610   24.1610   34.4580 C   0  0  0  0  0  0  0  0  0  0  0  0
   37.7710   25.4190   34.1090 N   0  0  0  0  0  0  0  0  0  0  0  0
   37.4860   25.7610   32.8450 C   0  0  0  0  0  0  0  0  0  0  0  0
   37.5840   24.8400   31.8760 N   0  0  0  0  0  0  0  0  0  0  0  0
   38.0470   22.8350   31.3870 H   0  0  0  0  0  0  0  0  0  0  0  0
   38.5700   22.2020   33.6970 H   0  0  0  0  0  0  0  0  0  0  0  0
   38.4440   23.8820   35.8210 N   0  0  0  0  0  0  0  0  0  0  0  0
   37.4300   23.7610   36.8230 C   0  0  0  0  0  2  0  0  0  0  0  0
   38.0070   24.2090   38.1660 C   0  0  0  0  0  2  0  0  0  0  0  0
   39.1320   23.3290   38.6240 C   0  0  0  0  0  3  0  0  0  0  0  0
   39.9200   23.9970   39.0820 H   0  0  0  0  0  0  0  0  0  0  0  0
   39.8490   22.7100   37.4200 C   0  0  0  0  0  2  0  0  0  0  0  0
   39.8120   23.7040   36.2670 C   0  0  0  0  0  2  0  0  0  0  0  0
  1 30  1  0  0  0  0
  1  2  1  0  0  0  0
  2 13  1  0  0  0  0
  3  2  2  0  0  0  0
  3 14  1  0  0  0  0
  4  3  1  0  0  0  0
  5  6  1  0  0  0  0
  5  4  2  0  0  0  0
  6  1  2  0  0  0  0
  7  5  1  0  0  0  0
  8  7  1  0  0  0  0
  8 17  1  0  0  0  0
  8 16  1  0  0  0  0
  9  8  1  0  0  0  0
 10 11  1  0  0  0  0
 10 21  1  0  0  0  0
 10  9  1  0  0  0  0
 11 12  1  0  0  0  0
 11 23  1  0  0  0  0
 12 24  1  0  0  0  0
 12  7  1  0  0  0  0
 15  4  1  0  0  0  0
 18  9  1  0  0  0  0
 19  9  1  0  0  0  0
 20 10  1  0  0  0  0
 22 11  1  0  0  0  0
 25 12  1  0  0  0  0
 26 27  1  0  0  0  0
 27 33  1  0  0  0  0
 27 28  2  0  0  0  0
 28 34  1  0  0  0  0
 29 28  1  0  0  0  0
 30 29  2  0  0  0  0
 31 26  2  0  0  0  0
 31 30  1  0  0  0  0
 32 26  1  0  0  0  0
 34 40  1  0  0  0  0
 34 35  1  0  0  0  0
 35 36  1  0  0  0  0
 36 37  1  0  0  0  0
 37 38  1  0  0  0  0
 39 37  1  0  0  0  0
 40 39  1  0  0  0  0
M  END
>  <minimizedAffinity>
-5.81965923

$$$$

 OpenBabel03272502573D

 40 43  0  0  0  0  0  0  0  0999 V2000
   38.6880   24.0690   34.6450 C   0  0  0  0  0  0  0  0  0  0  0  0
   38.6700   23.8770   36.0310 C   0  0  0  0  0  0  0  0  0  0  0  0
   38.0010   22.7960   36.5810 C   0  0  0  0  0  0  0  0  0  0  0  0
   37.3710   21.9440   35.6890 C   0  0  0  0  0  0  0  0  0  0  0  0
   37.3880   22.1330   34.3110 C   0  0  0  0  0  0  0  0  0  0  0  0
   38.0550   23.2050   33.8350 N   0  0  0  0  0  0  0  0  0  0  0  0
   36.7140   21.2050   33.5030 N   0  0  0  0  0  0  0  0  0  0  0  0
   35.8020   20.2760   34.1150 C   0  0  0  0  0  0  0  0  0  0  0  0
   35.3130   19.3350   33.0460 C   0  0  0  0  0  0  0  0  0  0  0  0
   34.6550   20.1080   31.9230 C   0  0  0  0  0  0  0  0  0  0  0  0
   35.5350   21.2040   31.4090 C   0  0  0  0  0  0  0  0  0  0  0  0
   36.8830   21.1210   32.0610 C   0  0  0  0  0  0  0  0  0  0  0  0
   39.1810   24.5750   36.6820 H   0  0  0  0  0  0  0  0  0  0  0  0
   38.0050   22.6740   37.6390 H   0  0  0  0  0  0  0  0  0  0  0  0
   36.8680   21.1190   36.2050 H   0  0  0  0  0  0  0  0  0  0  0  0
   34.9200   20.7910   34.5660 H   0  0  0  0  0  0  0  0  0  0  0  0
   36.3000   19.6660   34.8990 H   0  0  0  0  0  0  0  0  0  0  0  0
   34.5720   18.6670   33.5140 H   0  0  0  0  0  0  0  0  0  0  0  0
   36.1470   18.6970   32.6920 H   0  0  0  0  0  0  0  0  0  0  0  0
   34.4760   19.3970   31.0740 H   0  0  0  0  0  0  0  0  0  0  0  0
   33.6600   20.4400   32.2430 H   0  0  0  0  0  0  0  0  0  0  0  0
   35.6570   21.1560   30.3030 H   0  0  0  0  0  0  0  0  0  0  0  0
   35.0990   22.1860   31.6660 H   0  0  0  0  0  0  0  0  0  0  0  0
   37.5700   21.9230   31.7180 H   0  0  0  0  0  0  0  0  0  0  0  0
   37.3750   20.1690   31.8410 H   0  0  0  0  0  0  0  0  0  0  0  0
   41.2120   26.6760   34.1580 C   0  0  0  0  0  0  0  0  0  0  0  0
   40.7090   27.3940   33.0510 C   0  0  0  0  0  0  0  0  0  0  0  0
   39.5220   26.9620   32.5090 C   0  0  0  0  0  0  0  0  0  0  0  0
   38.9000   25.8810   33.0550 N   0  0  0  0  0  0  0  0  0  0  0  0
   39.3990   25.2160   34.1070 C   0  0  0  0  0  0  0  0  0  0  0  0
   40.5550   25.6200   34.6520 N   0  0  0  0  0  0  0  0  0  0  0  0
   42.1450   27.0120   34.5880 H   0  0  0  0  0  0  0  0  0  0  0  0
   41.2380   28.2320   32.6640 H   0  0  0  0  0  0  0  0  0  0  0  0
   38.9250   27.6100   31.3960 N   0  0  0  0  0  0  0  0  0  0  0  0
   39.5490   27.6990   30.1120 C   0  0  0  0  0  2  0  0  0  0  0  0
   39.0920   28.9880   29.4290 C   0  0  0  0  0  2  0  0  0  0  0  0
   37.6170   28.9980   29.1610 C   0  0  0  0  0  3  0  0  0  0  0  0
   37.2400   30.0410   29.3760 H   0  0  0  0  0  0  0  0  0  0  0  0
   36.8820   28.1350   30.1900 C   0  0  0  0  0  2  0  0  0  0  0  0
   37.6190   28.2280   31.5190 C   0  0  0  0  0  2  0  0  0  0  0  0
  1  2  1  0  0  0  0
  2  3  2  0  0  0  0
  2 13  1  0  0  0  0
  3 14  1  0  0  0  0
  4 15  1  0  0  0  0
  4  3  1  0  0  0  0
  5  4  2  0  0  0  0
  6  5  1  0  0  0  0
  6  1  2  0  0  0  0
  7  8  1  0  0  0  0
  7  5  1  0  0  0  0
  8 16  1  0  0  0  0
  8 17  1  0  0  0  0
  9 18  1  0  0  0  0
  9  8  1  0  0  0  0
 10 21  1  0  0  0  0
 10  9  1  0  0  0  0
 11 23  1  0  0  0  0
 11 10  1  0  0  0  0
 11 12  1  0  0  0  0
 12  7  1  0  0  0  0
 19  9  1  0  0  0  0
 20 10  1  0  0  0  0
 22 11  1  0  0  0  0
 24 12  1  0  0  0  0
 25 12  1  0  0  0  0
 26 32  1  0  0  0  0
 26 31  1  0  0  0  0
 27 26  2  0  0  0  0
 28 27  1  0  0  0  0
 28 29  2  0  0  0  0
 29 30  1  0  0  0  0
 30  1  1  0  0  0  0
 30 31  2  0  0  0  0
 33 27  1  0  0  0  0
 34 40  1  0  0  0  0
 34 28  1  0  0  0  0
 35 34  1  0  0  0  0
 36 35  1  0  0  0  0
 37 38  1  0  0  0  0
 37 36  1  0  0  0  0
 37 39  1  0  0  0  0
 39 40  1  0  0  0  0
M  END
>  <minimizedAffinity>
-5.78926706

$$$$

 OpenBabel03272502573D

 40 43  0  0  0  0  0  0  0  0999 V2000
   37.6500   25.9710   33.3650 C   0  0  0  0  0  0  0  0  0  0  0  0
   38.4020   25.8640   34.5390 C   0  0  0  0  0  0  0  0  0  0  0  0
   38.2860   26.8170   35.5360 C   0  0  0  0  0  0  0  0  0  0  0  0
   37.3980   27.8530   35.2960 C   0  0  0  0  0  0  0  0  0  0  0  0
   36.6490   27.9610   34.1290 C   0  0  0  0  0  0  0  0  0  0  0  0
   36.8070   27.0010   33.1940 N   0  0  0  0  0  0  0  0  0  0  0  0
   35.7790   29.0540   33.9940 N   0  0  0  0  0  0  0  0  0  0  0  0
   35.8990   30.1610   34.9060 C   0  0  0  0  0  0  0  0  0  0  0  0
   34.7840   31.1280   34.6080 C   0  0  0  0  0  0  0  0  0  0  0  0
   34.8510   31.5810   33.1650 C   0  0  0  0  0  0  0  0  0  0  0  0
   34.9180   30.4250   32.2190 C   0  0  0  0  0  0  0  0  0  0  0  0
   34.7470   29.1400   32.9730 C   0  0  0  0  0  0  0  0  0  0  0  0
   39.0820   25.0320   34.6750 H   0  0  0  0  0  0  0  0  0  0  0  0
   38.8700   26.7100   36.4200 H   0  0  0  0  0  0  0  0  0  0  0  0
   37.3670   28.5610   36.1320 H   0  0  0  0  0  0  0  0  0  0  0  0
   36.8730   30.6930   34.7910 H   0  0  0  0  0  0  0  0  0  0  0  0
   35.7900   29.8350   35.9630 H   0  0  0  0  0  0  0  0  0  0  0  0
   34.9210   31.9960   35.2720 H   0  0  0  0  0  0  0  0  0  0  0  0
   33.8080   30.6720   34.8660 H   0  0  0  0  0  0  0  0  0  0  0  0
   33.9090   32.1470   32.9380 H   0  0  0  0  0  0  0  0  0  0  0  0
   35.6640   32.3090   33.0490 H   0  0  0  0  0  0  0  0  0  0  0  0
   34.1410   30.4920   31.4240 H   0  0  0  0  0  0  0  0  0  0  0  0
   35.9080   30.3980   31.7300 H   0  0  0  0  0  0  0  0  0  0  0  0
   34.8010   28.2500   32.3110 H   0  0  0  0  0  0  0  0  0  0  0  0
   33.7780   29.1000   33.4790 H   0  0  0  0  0  0  0  0  0  0  0  0
   38.6360   24.2650   30.2780 C   0  0  0  0  0  0  0  0  0  0  0  0
   38.0620   22.9840   30.4320 C   0  0  0  0  0  0  0  0  0  0  0  0
   37.3570   22.7470   31.5880 C   0  0  0  0  0  0  0  0  0  0  0  0
   37.2480   23.7420   32.5120 N   0  0  0  0  0  0  0  0  0  0  0  0
   37.8020   24.9500   32.3410 C   0  0  0  0  0  0  0  0  0  0  0  0
   38.4940   25.2040   31.2220 N   0  0  0  0  0  0  0  0  0  0  0  0
   39.1910   24.4570   29.3700 H   0  0  0  0  0  0  0  0  0  0  0  0
   38.1800   22.2440   29.6770 H   0  0  0  0  0  0  0  0  0  0  0  0
   36.7380   21.4960   31.8470 N   0  0  0  0  0  0  0  0  0  0  0  0
   37.2320   20.2550   31.3360 C   0  0  0  0  0  2  0  0  0  0  0  0
   36.0550   19.3020   31.1300 C   0  0  0  0  0  2  0  0  0  0  0  0
   35.3680   18.9600   32.4180 C   0  0  0  0  0  3  0  0  0  0  0  0
   34.2570   18.9400   32.2150 H   0  0  0  0  0  0  0  0  0  0  0  0
   35.5230   20.1040   33.4250 C   0  0  0  0  0  2  0  0  0  0  0  0
   35.5430   21.4230   32.6650 C   0  0  0  0  0  2  0  0  0  0  0  0
  1  2  1  0  0  0  0
  2 13  1  0  0  0  0
  2  3  2  0  0  0  0
  3 14  1  0  0  0  0
  4  3  1  0  0  0  0
  4 15  1  0  0  0  0
  5  4  2  0  0  0  0
  6  1  2  0  0  0  0
  6  5  1  0  0  0  0
  7  5  1  0  0  0  0
  7  8  1  0  0  0  0
  8 17  1  0  0  0  0
  9 19  1  0  0  0  0
  9  8  1  0  0  0  0
  9 18  1  0  0  0  0
 10  9  1  0  0  0  0
 11 12  1  0  0  0  0
 11 10  1  0  0  0  0
 12 25  1  0  0  0  0
 12  7  1  0  0  0  0
 16  8  1  0  0  0  0
 20 10  1  0  0  0  0
 21 10  1  0  0  0  0
 22 11  1  0  0  0  0
 23 11  1  0  0  0  0
 24 12  1  0  0  0  0
 26 27  2  0  0  0  0
 26 31  1  0  0  0  0
 27 28  1  0  0  0  0
 28 34  1  0  0  0  0
 28 29  2  0  0  0  0
 30 29  1  0  0  0  0
 30  1  1  0  0  0  0
 31 30  2  0  0  0  0
 32 26  1  0  0  0  0
 33 27  1  0  0  0  0
 34 40  1  0  0  0  0
 35 34  1  0  0  0  0
 36 35  1  0  0  0  0
 36 37  1  0  0  0  0
 37 39  1  0  0  0  0
 38 37  1  0  0  0  0
 40 39  1  0  0  0  0
M  END
>  <minimizedAffinity>
-5.7668581

$$$$

 OpenBabel03272502573D

 40 43  0  0  0  0  0  0  0  0999 V2000
   37.2860   25.1680   31.9470 C   0  0  0  0  0  0  0  0  0  0  0  0
   38.2580   25.3180   30.9530 C   0  0  0  0  0  0  0  0  0  0  0  0
   38.5980   24.2520   30.1380 C   0  0  0  0  0  0  0  0  0  0  0  0
   37.9280   23.0620   30.3700 C   0  0  0  0  0  0  0  0  0  0  0  0
   36.9610   22.9110   31.3580 C   0  0  0  0  0  0  0  0  0  0  0  0
   36.6730   23.9860   32.1210 N   0  0  0  0  0  0  0  0  0  0  0  0
   36.3470   21.6570   31.5040 N   0  0  0  0  0  0  0  0  0  0  0  0
   36.9230   20.5150   30.8460 C   0  0  0  0  0  0  0  0  0  0  0  0
   36.0090   19.3400   31.0750 C   0  0  0  0  0  0  0  0  0  0  0  0
   35.8230   19.0990   32.5590 C   0  0  0  0  0  0  0  0  0  0  0  0
   35.4030   20.3410   33.2780 C   0  0  0  0  0  0  0  0  0  0  0  0
   35.1430   21.4380   32.2890 C   0  0  0  0  0  0  0  0  0  0  0  0
   38.7500   26.2730   30.8140 H   0  0  0  0  0  0  0  0  0  0  0  0
   39.3410   24.3950   29.3880 H   0  0  0  0  0  0  0  0  0  0  0  0
   38.2560   22.2730   29.6840 H   0  0  0  0  0  0  0  0  0  0  0  0
   37.9330   20.2660   31.2510 H   0  0  0  0  0  0  0  0  0  0  0  0
   37.0050   20.6700   29.7490 H   0  0  0  0  0  0  0  0  0  0  0  0
   36.4910   18.4600   30.6180 H   0  0  0  0  0  0  0  0  0  0  0  0
   35.0490   19.4970   30.5460 H   0  0  0  0  0  0  0  0  0  0  0  0
   35.0010   18.3450   32.6830 H   0  0  0  0  0  0  0  0  0  0  0  0
   36.7220   18.6210   32.9660 H   0  0  0  0  0  0  0  0  0  0  0  0
   34.4910   20.1770   33.8950 H   0  0  0  0  0  0  0  0  0  0  0  0
   36.2150   20.6790   33.9470 H   0  0  0  0  0  0  0  0  0  0  0  0
   34.8380   22.3870   32.7790 H   0  0  0  0  0  0  0  0  0  0  0  0
   34.3410   21.1690   31.5960 H   0  0  0  0  0  0  0  0  0  0  0  0
   37.0080   27.3870   34.8470 C   0  0  0  0  0  0  0  0  0  0  0  0
   36.3140   28.4990   34.3230 C   0  0  0  0  0  0  0  0  0  0  0  0
   35.9650   28.4530   32.9950 C   0  0  0  0  0  0  0  0  0  0  0  0
   36.2980   27.3560   32.2600 N   0  0  0  0  0  0  0  0  0  0  0  0
   36.9570   26.3110   32.7820 C   0  0  0  0  0  0  0  0  0  0  0  0
   37.3080   26.3350   34.0760 N   0  0  0  0  0  0  0  0  0  0  0  0
   37.2850   27.4180   35.8920 H   0  0  0  0  0  0  0  0  0  0  0  0
   36.0790   29.3310   34.9440 H   0  0  0  0  0  0  0  0  0  0  0  0
   35.2650   29.5150   32.3650 N   0  0  0  0  0  0  0  0  0  0  0  0
   35.5970   30.0120   31.0650 C   0  0  0  0  0  2  0  0  0  0  0  0
   35.2430   31.4980   30.9990 C   0  0  0  0  0  2  0  0  0  0  0  0
   33.7710   31.7390   31.1570 C   0  0  0  0  0  3  0  0  0  0  0  0
   33.6460   32.6600   31.8000 H   0  0  0  0  0  0  0  0  0  0  0  0
   33.1360   30.6290   32.0000 C   0  0  0  0  0  2  0  0  0  0  0  0
   34.1510   30.1610   33.0330 C   0  0  0  0  0  2  0  0  0  0  0  0
  1  6  1  0  0  0  0
  1 30  1  0  0  0  0
  2  1  2  0  0  0  0
  3  4  2  0  0  0  0
  3  2  1  0  0  0  0
  4  5  1  0  0  0  0
  5  7  1  0  0  0  0
  5  6  2  0  0  0  0
  7 12  1  0  0  0  0
  8  9  1  0  0  0  0
  8 16  1  0  0  0  0
  8  7  1  0  0  0  0
  9 10  1  0  0  0  0
 10 20  1  0  0  0  0
 10 21  1  0  0  0  0
 10 11  1  0  0  0  0
 11 22  1  0  0  0  0
 11 23  1  0  0  0  0
 12 24  1  0  0  0  0
 12 11  1  0  0  0  0
 13  2  1  0  0  0  0
 14  3  1  0  0  0  0
 15  4  1  0  0  0  0
 17  8  1  0  0  0  0
 18  9  1  0  0  0  0
 19  9  1  0  0  0  0
 25 12  1  0  0  0  0
 26 32  1  0  0  0  0
 27 26  1  0  0  0  0
 27 33  1  0  0  0  0
 28 27  2  0  0  0  0
 29 30  2  0  0  0  0
 29 28  1  0  0  0  0
 30 31  1  0  0  0  0
 31 26  2  0  0  0  0
 34 28  1  0  0  0  0
 34 40  1  0  0  0  0
 35 34  1  0  0  0  0
 36 35  1  0  0  0  0
 36 37  1  0  0  0  0
 37 38  1  0  0  0  0
 37 39  1  0  0  0  0
 39 40  1  0  0  0  0
M  END
>  <minimizedAffinity>
-5.7572751

$$$$
