
 OpenBabel03272507573D

 30 32  0  0  0  0  0  0  0  0999 V2000
   36.9730   31.3450   48.4870 C   0  0  0  0  0  0  0  0  0  0  0  0
   37.1810   32.2050   49.5580 C   0  0  0  0  0  0  0  0  0  0  0  0
   38.1080   33.2290   49.4240 C   0  0  0  0  0  0  0  0  0  0  0  0
   38.8050   33.3730   48.2300 C   0  0  0  0  0  0  0  0  0  0  0  0
   38.5660   32.4970   47.2020 C   0  0  0  0  0  0  0  0  0  0  0  0
   37.6680   31.5230   47.3610 N   0  0  0  0  0  0  0  0  0  0  0  0
   36.7100   32.2140   50.5470 H   0  0  0  0  0  0  0  0  0  0  0  0
   38.3350   33.9450   50.2020 H   0  0  0  0  0  0  0  0  0  0  0  0
   39.5270   34.1710   48.1320 H   0  0  0  0  0  0  0  0  0  0  0  0
   39.2320   32.5720   45.9520 N   0  0  0  0  0  0  0  0  0  0  0  0
   40.6340   32.7800   45.6860 C   0  0  0  0  0  2  0  0  0  0  0  0
   41.2100   31.4960   45.1550 C   0  0  0  0  0  2  0  0  0  0  0  0
   40.4600   30.9860   43.9490 C   0  0  0  0  0  3  0  0  0  0  0  0
   40.8640   31.5520   43.0770 H   0  0  0  0  0  0  0  0  0  0  0  0
   38.9870   31.1680   44.0210 C   0  0  0  0  0  2  0  0  0  0  0  0
   38.5300   32.4400   44.6920 C   0  0  0  0  0  2  0  0  0  0  0  0
   35.2060   28.4330   50.0890 C   0  0  0  0  0  0  0  0  0  0  0  0
   36.2010   29.4160   49.8180 C   0  0  0  0  0  0  0  0  0  0  0  0
   35.9700   30.3270   48.7880 C   0  0  0  0  0  0  0  0  0  0  0  0
   34.8000   30.2320   48.0870 N   0  0  0  0  0  0  0  0  0  0  0  0
   33.8780   29.2700   48.3900 C   0  0  0  0  0  0  0  0  0  0  0  0
   34.0680   28.3870   49.3660 N   0  0  0  0  0  0  0  0  0  0  0  0
   32.7450   29.3690   47.5290 N   0  0  0  0  0  0  0  0  0  0  0  0
   35.3510   27.7160   50.8770 H   0  0  0  0  0  0  0  0  0  0  0  0
   32.0590   30.1530   47.6940 H   0  0  0  0  0  0  0  0  0  0  0  0
   32.6150   28.6620   46.7510 H   0  0  0  0  0  0  0  0  0  0  0  0
   37.4370   29.4200   50.6500 C   0  0  0  0  0  0  0  0  0  0  0  0
   38.5310   29.8560   49.9200 F   0  0  0  0  0  0  0  0  0  0  0  0
   37.2480   30.2780   51.7000 F   0  0  0  0  0  0  0  0  0  0  0  0
   37.7390   28.1820   51.1700 F   0  0  0  0  0  0  0  0  0  0  0  0
  1 19  1  0  0  0  0
  1  2  1  0  0  0  0
  2  7  1  0  0  0  0
  3  2  2  0  0  0  0
  3  8  1  0  0  0  0
  4  3  1  0  0  0  0
  5  6  1  0  0  0  0
  5  4  2  0  0  0  0
  6  1  2  0  0  0  0
  9  4  1  0  0  0  0
 10  5  1  0  0  0  0
 11 10  1  0  0  0  0
 12 11  1  0  0  0  0
 13 15  1  0  0  0  0
 13 12  1  0  0  0  0
 14 13  1  0  0  0  0
 15 16  1  0  0  0  0
 16 10  1  0  0  0  0
 17 24  1  0  0  0  0
 18 17  1  0  0  0  0
 18 27  1  0  0  0  0
 19 18  2  0  0  0  0
 20 21  2  0  0  0  0
 20 19  1  0  0  0  0
 21 22  1  0  0  0  0
 22 17  2  0  0  0  0
 23 25  1  0  0  0  0
 23 21  1  0  0  0  0
 26 23  1  0  0  0  0
 27 30  1  0  0  0  0
 27 29  1  0  0  0  0
 28 27  1  0  0  0  0
M  END
>  <minimizedAffinity>
-7.77006769

>  <minimizedRMSD>
0.850349009

$$$$
