
 OpenBabel03272505333D

 33 35  0  0  1  0  0  0  0  0999 V2000
   36.8990   30.5980   48.9710 C   0  0  0  0  0  0  0  0  0  0  0  0
   36.9810   31.7220   49.8010 C   0  0  0  0  0  0  0  0  0  0  0  0
   37.7190   32.8270   49.3450 C   0  0  0  0  0  0  0  0  0  0  0  0
   38.3160   32.7370   48.1090 N   0  0  0  0  0  0  0  0  0  0  0  0
   38.1980   31.6250   47.3550 C   0  0  0  0  0  0  0  0  0  0  0  0
   37.5020   30.5670   47.7730 N   0  0  0  0  0  0  0  0  0  0  0  0
   38.8450   31.6470   46.0860 N   0  0  0  0  0  0  0  0  0  0  0  0
   40.2280   31.1780   46.0020 C   0  0  0  0  0  0  0  0  0  0  0  0
   41.0620   32.0740   45.1200 C   0  0  0  0  0  0  0  0  0  0  0  0
   40.4180   32.3940   43.8990 N   0  0  0  0  0  0  0  0  0  0  0  0
   39.1260   31.8040   43.7230 C   0  0  0  0  0  0  0  0  0  0  0  0
   38.1640   32.1250   44.8660 C   0  0  1  0  0  0  0  0  0  0  0  0
   36.4930   31.7560   50.7790 H   0  0  0  0  0  0  0  0  0  0  0  0
   37.8210   33.7270   49.9400 H   0  0  0  0  0  0  0  0  0  0  0  0
   40.6630   31.1330   47.0000 H   0  0  0  0  0  0  0  0  0  0  0  0
   40.1680   30.1850   45.4850 H   0  0  0  0  0  0  0  0  0  0  0  0
   41.9930   31.4760   44.8890 H   0  0  0  0  0  0  0  0  0  0  0  0
   41.4150   32.9740   45.6810 H   0  0  0  0  0  0  0  0  0  0  0  0
   40.9800   32.1160   43.0640 H   0  0  0  0  0  0  0  0  0  0  0  0
   38.6800   32.3540   42.8390 H   0  0  0  0  0  0  0  0  0  0  0  0
   39.2150   30.7320   43.5850 H   0  0  0  0  0  0  0  0  0  0  0  0
   38.0060   33.2080   44.8820 H   0  0  0  0  0  0  0  0  0  0  0  0
   36.9530   31.3470   44.6510 N   0  0  0  0  0  0  0  0  0  0  0  0
   37.3540   30.0490   44.1380 C   0  0  0  0  0  0  0  0  0  0  0  0
   36.2030   29.1900   43.6930 C   0  0  0  0  0  0  0  0  0  0  0  0
   35.2600   29.9300   42.7720 C   0  0  0  0  0  0  0  0  0  0  0  0
   34.9660   29.3340   41.8950 H   0  0  0  0  0  0  0  0  0  0  0  0
   35.9800   31.2120   42.4010 C   0  0  0  0  0  0  0  0  0  0  0  0
   36.0720   32.0140   43.7040 C   0  0  0  0  0  0  0  0  0  0  0  0
   36.1120   29.4290   49.4530 C   0  0  0  0  0  0  0  0  0  0  0  0
   35.1950   29.8570   50.4260 F   0  0  0  0  0  0  0  0  0  0  0  0
   35.5290   28.8390   48.3900 F   0  0  0  0  0  0  0  0  0  0  0  0
   36.9920   28.5900   50.1260 F   0  0  0  0  0  0  0  0  0  0  0  0
  1 30  1  0  0  0  0
  1  2  1  0  0  0  0
  2 13  1  0  0  0  0
  3  2  2  0  0  0  0
  3 14  1  0  0  0  0
  4  3  1  0  0  0  0
  5  6  1  0  0  0  0
  5  4  2  0  0  0  0
  6  1  2  0  0  0  0
  7  5  1  0  0  0  0
  8  7  1  0  0  0  0
  8 15  1  0  0  0  0
  9 18  1  0  0  0  0
  9  8  1  0  0  0  0
 10  9  1  0  0  0  0
 11 10  1  0  0  0  0
 11 12  1  0  0  0  0
 12 22  1  1  0  0  0
 12  7  1  0  0  0  0
 16  8  1  0  0  0  0
 17  9  1  0  0  0  0
 19 10  1  0  0  0  0
 20 11  1  0  0  0  0
 21 11  1  0  0  0  0
 23 12  1  0  0  0  0
 24 23  1  0  0  0  0
 25 24  1  0  0  0  0
 26 25  1  0  0  0  0
 27 26  1  0  0  0  0
 28 26  1  0  0  0  0
 28 29  1  0  0  0  0
 29 23  1  0  0  0  0
 30 33  1  0  0  0  0
 30 31  1  0  0  0  0
 32 30  1  0  0  0  0
M  END
>  <minimizedAffinity>
-5.88722467

>  <minimizedRMSD>
1.70670784

$$$$
