
 OpenBabel03272507563D

 30 32  0  0  0  0  0  0  0  0999 V2000
   37.1700   31.4140   48.5460 C   0  0  0  0  0  0  0  0  0  0  0  0
   37.2210   32.4170   49.5060 C   0  0  0  0  0  0  0  0  0  0  0  0
   38.1810   33.4130   49.3830 C   0  0  0  0  0  0  0  0  0  0  0  0
   39.0650   33.3870   48.3110 C   0  0  0  0  0  0  0  0  0  0  0  0
   38.9750   32.3750   47.3900 C   0  0  0  0  0  0  0  0  0  0  0  0
   38.0420   31.4320   47.5350 N   0  0  0  0  0  0  0  0  0  0  0  0
   36.5960   32.5660   50.3930 H   0  0  0  0  0  0  0  0  0  0  0  0
   38.2940   34.2310   50.0810 H   0  0  0  0  0  0  0  0  0  0  0  0
   39.8110   34.1640   48.2220 H   0  0  0  0  0  0  0  0  0  0  0  0
   39.8370   32.2730   46.2680 N   0  0  0  0  0  0  0  0  0  0  0  0
   40.5250   31.1140   45.7570 C   0  0  0  0  0  0  0  0  0  0  0  0
   39.8850   30.7210   44.4530 C   0  0  0  0  0  0  0  0  0  0  0  0
   39.8540   31.8590   43.4630 C   0  0  0  0  0  0  0  0  0  0  0  0
   40.8620   31.8770   42.9870 H   0  0  0  0  0  0  0  0  0  0  0  0
   39.5620   33.1870   44.0640 C   0  0  0  0  0  0  0  0  0  0  0  0
   40.1580   33.4130   45.4340 C   0  0  0  0  0  0  0  0  0  0  0  0
   35.1930   28.6300   50.1280 C   0  0  0  0  0  0  0  0  0  0  0  0
   36.2420   29.5610   49.8860 C   0  0  0  0  0  0  0  0  0  0  0  0
   36.1100   30.4480   48.8170 C   0  0  0  0  0  0  0  0  0  0  0  0
   34.9780   30.3790   48.0530 N   0  0  0  0  0  0  0  0  0  0  0  0
   34.0010   29.4650   48.3300 C   0  0  0  0  0  0  0  0  0  0  0  0
   34.0970   28.6060   49.3410 N   0  0  0  0  0  0  0  0  0  0  0  0
   32.9240   29.5820   47.4020 N   0  0  0  0  0  0  0  0  0  0  0  0
   35.2620   27.9330   50.9430 H   0  0  0  0  0  0  0  0  0  0  0  0
   32.2630   30.3990   47.5040 H   0  0  0  0  0  0  0  0  0  0  0  0
   32.8080   28.8570   46.6390 H   0  0  0  0  0  0  0  0  0  0  0  0
   37.4290   29.5420   50.7880 C   0  0  0  0  0  0  0  0  0  0  0  0
   38.5910   29.8370   50.0940 F   0  0  0  0  0  0  0  0  0  0  0  0
   37.2500   30.4920   51.7570 F   0  0  0  0  0  0  0  0  0  0  0  0
   37.6060   28.3300   51.4170 F   0  0  0  0  0  0  0  0  0  0  0  0
  1 19  1  0  0  0  0
  1  2  1  0  0  0  0
  2  7  1  0  0  0  0
  3  2  2  0  0  0  0
  3  8  1  0  0  0  0
  4  3  1  0  0  0  0
  5  6  1  0  0  0  0
  5  4  2  0  0  0  0
  6  1  2  0  0  0  0
  9  4  1  0  0  0  0
 10  5  1  0  0  0  0
 11 10  1  0  0  0  0
 12 11  1  0  0  0  0
 13 15  1  0  0  0  0
 13 12  1  0  0  0  0
 14 13  1  0  0  0  0
 15 16  1  0  0  0  0
 16 10  1  0  0  0  0
 17 24  1  0  0  0  0
 18 17  1  0  0  0  0
 18 27  1  0  0  0  0
 19 18  2  0  0  0  0
 20 21  2  0  0  0  0
 20 19  1  0  0  0  0
 21 22  1  0  0  0  0
 22 17  2  0  0  0  0
 23 25  1  0  0  0  0
 23 21  1  0  0  0  0
 26 23  1  0  0  0  0
 27 30  1  0  0  0  0
 27 29  1  0  0  0  0
 28 27  1  0  0  0  0
M  END
>  <minimizedAffinity>
-7.97214174

>  <minimizedRMSD>
0.284344167

$$$$
