
     RDKit          3D

 28 29  0  0  0  0  0  0  0  0999 V2000
   38.3011   31.2392   50.1222 C   0  0  0  0  0  0  0  0  0  0  0  0
   38.2930   31.6096   48.7780 C   0  0  0  0  0  0  0  0  0  0  0  0
   37.2074   31.2220   47.9976 C   0  0  0  0  0  0  0  0  0  0  0  0
   36.2178   30.5049   48.5906 N   0  0  0  0  0  0  0  0  0  0  0  0
   36.2602   30.1675   49.8850 C   0  0  0  0  0  0  0  0  0  0  0  0
   37.2956   30.5327   50.6453 N   0  0  0  0  0  0  0  0  0  0  0  0
   35.1355   29.3803   50.4592 C   0  0  0  0  0  0  0  0  0  0  0  0
   35.2720   29.1266   51.8021 F   0  0  0  0  0  0  0  0  0  0  0  0
   33.9217   30.0598   50.3009 F   0  0  0  0  0  0  0  0  0  0  0  0
   34.9447   28.1694   49.8230 F   0  0  0  0  0  0  0  0  0  0  0  0
   39.1814   31.5858   50.6394 H   0  0  0  0  0  0  0  0  0  0  0  0
   39.0362   32.1686   48.2598 H   0  0  0  0  0  0  0  0  0  0  0  0
   36.9930   31.4877   46.6163 N   0  0  0  0  0  0  0  0  0  0  0  0
   37.1908   32.7445   45.9655 C   0  0  0  0  0  0  0  0  0  0  0  0
   38.1087   32.7097   44.7879 C   0  0  0  0  0  0  0  0  0  0  0  0
   37.7078   31.6257   43.8121 C   0  0  0  0  0  0  0  0  0  0  0  0
   38.3854   31.5694   42.9633 H   0  0  0  0  0  0  0  0  0  0  0  0
   37.6667   30.3329   44.6283 C   0  0  0  0  0  0  0  0  0  0  0  0
   36.5385   30.5373   45.6288 C   0  0  0  0  0  0  0  0  0  0  0  0
   37.6427   33.4911   46.6801 H   0  0  0  0  0  0  0  0  0  0  0  0
   36.2263   33.2375   45.6547 H   0  0  0  0  0  0  0  0  0  0  0  0
   39.1491   32.4729   45.0941 H   0  0  0  0  0  0  0  0  0  0  0  0
   38.0954   33.6757   44.2861 H   0  0  0  0  0  0  0  0  0  0  0  0
   36.6704   31.7612   43.4436 H   0  0  0  0  0  0  0  0  0  0  0  0
   37.4754   29.4439   44.0286 H   0  0  0  0  0  0  0  0  0  0  0  0
   38.6361   30.2790   45.1552 H   0  0  0  0  0  0  0  0  0  0  0  0
   35.6592   30.9103   45.0629 H   0  0  0  0  0  0  0  0  0  0  0  0
   36.3152   29.5615   46.0824 H   0  0  0  0  0  0  0  0  0  0  0  0
  1  6  2  0
  2  1  1  0
  3  4  1  0
  3  2  2  0
  4  5  2  0
  5  7  1  0
  5  6  1  0
  7  8  1  0
  9  7  1  0
 10  7  1  0
  1 11  1  0
  2 12  1  0
 13 14  1  0
 14 15  1  0
 15 16  1  0
 16 17  1  0
 16 18  1  0
 18 19  1  0
 19 13  1  0
 14 20  1  0
 14 21  1  0
 15 22  1  0
 15 23  1  0
 16 24  1  0
 18 25  1  0
 18 26  1  0
 19 27  1  0
 19 28  1  0
  3 13  1  0
M  ISO  3  11  14  12  14  17  15
M  END
>  <DihAtoms>  (1) 
3,2,12,13

>  <DihDeg>  (1) 
0.01884235541995465

$$$$
