
     RDKit          3D

 28 29  0  0  0  0  0  0  0  0999 V2000
   38.3011   31.2392   50.1222 C   0  0  0  0  0  0  0  0  0  0  0  0
   38.2930   31.6096   48.7780 C   0  0  0  0  0  0  0  0  0  0  0  0
   37.2074   31.2220   47.9976 C   0  0  0  0  0  0  0  0  0  0  0  0
   36.2178   30.5049   48.5906 N   0  0  0  0  0  0  0  0  0  0  0  0
   36.2602   30.1675   49.8850 C   0  0  0  0  0  0  0  0  0  0  0  0
   37.2956   30.5327   50.6453 N   0  0  0  0  0  0  0  0  0  0  0  0
   35.1355   29.3803   50.4592 C   0  0  0  0  0  0  0  0  0  0  0  0
   35.2720   29.1266   51.8021 F   0  0  0  0  0  0  0  0  0  0  0  0
   33.9217   30.0598   50.3009 F   0  0  0  0  0  0  0  0  0  0  0  0
   34.9447   28.1694   49.8230 F   0  0  0  0  0  0  0  0  0  0  0  0
   39.1814   31.5858   50.6394 H   0  0  0  0  0  0  0  0  0  0  0  0
   39.0362   32.1686   48.2598 H   0  0  0  0  0  0  0  0  0  0  0  0
   36.9930   31.4877   46.6163 N   0  0  0  0  0  0  0  0  0  0  0  0
   36.0775   32.4454   46.0807 C   0  0  0  0  0  0  0  0  0  0  0  0
   36.6810   33.4466   45.1513 C   0  0  0  0  0  0  0  0  0  0  0  0
   37.4889   32.7701   44.0662 C   0  0  0  0  0  0  0  0  0  0  0  0
   37.9587   33.4888   43.3987 H   0  0  0  0  0  0  0  0  0  0  0  0
   38.5007   31.8867   44.7977 C   0  0  0  0  0  0  0  0  0  0  0  0
   37.6605   30.8386   45.5126 C   0  0  0  0  0  0  0  0  0  0  0  0
   35.6070   33.0473   46.9107 H   0  0  0  0  0  0  0  0  0  0  0  0
   35.1904   31.9720   45.5720 H   0  0  0  0  0  0  0  0  0  0  0  0
   37.3882   34.1164   45.6836 H   0  0  0  0  0  0  0  0  0  0  0  0
   35.8928   34.0464   44.6993 H   0  0  0  0  0  0  0  0  0  0  0  0
   36.8753   32.0641   43.4701 H   0  0  0  0  0  0  0  0  0  0  0  0
   39.2160   31.4011   44.1350 H   0  0  0  0  0  0  0  0  0  0  0  0
   38.9958   32.5437   45.5349 H   0  0  0  0  0  0  0  0  0  0  0  0
   36.9421   30.4299   44.7714 H   0  0  0  0  0  0  0  0  0  0  0  0
   38.3402   30.0488   45.8618 H   0  0  0  0  0  0  0  0  0  0  0  0
  1  6  2  0
  2  1  1  0
  3  4  1  0
  3  2  2  0
  4  5  2  0
  5  7  1  0
  5  6  1  0
  7  8  1  0
  9  7  1  0
 10  7  1  0
  1 11  1  0
  2 12  1  0
 13 14  1  0
 14 15  1  0
 15 16  1  0
 16 17  1  0
 16 18  1  0
 18 19  1  0
 19 13  1  0
 14 20  1  0
 14 21  1  0
 15 22  1  0
 15 23  1  0
 16 24  1  0
 18 25  1  0
 18 26  1  0
 19 27  1  0
 19 28  1  0
  3 13  1  0
M  ISO  3  11  14  12  14  17  15
M  END
>  <DihAtoms>  (1) 
3,2,12,13

>  <DihDeg>  (1) 
0.01884235541995465

$$$$
