
     RDKit          3D

 28 29  0  0  0  0  0  0  0  0999 V2000
   38.3011   31.2392   50.1222 C   0  0  0  0  0  0  0  0  0  0  0  0
   38.2930   31.6096   48.7780 C   0  0  0  0  0  0  0  0  0  0  0  0
   37.2074   31.2220   47.9976 C   0  0  0  0  0  0  0  0  0  0  0  0
   36.2178   30.5049   48.5906 N   0  0  0  0  0  0  0  0  0  0  0  0
   36.2602   30.1675   49.8850 C   0  0  0  0  0  0  0  0  0  0  0  0
   37.2956   30.5327   50.6453 N   0  0  0  0  0  0  0  0  0  0  0  0
   35.1355   29.3803   50.4592 C   0  0  0  0  0  0  0  0  0  0  0  0
   35.2720   29.1266   51.8021 F   0  0  0  0  0  0  0  0  0  0  0  0
   33.9217   30.0598   50.3009 F   0  0  0  0  0  0  0  0  0  0  0  0
   34.9447   28.1694   49.8230 F   0  0  0  0  0  0  0  0  0  0  0  0
   39.1814   31.5858   50.6394 H   0  0  0  0  0  0  0  0  0  0  0  0
   39.0362   32.1686   48.2598 H   0  0  0  0  0  0  0  0  0  0  0  0
   36.9930   31.4877   46.6163 N   0  0  0  0  0  0  0  0  0  0  0  0
   37.4641   32.6319   45.9014 C   0  0  0  0  0  0  0  0  0  0  0  0
   38.2800   32.3281   44.6879 C   0  0  0  0  0  0  0  0  0  0  0  0
   37.5690   31.3488   43.7804 C   0  0  0  0  0  0  0  0  0  0  0  0
   38.1647   31.0957   42.9064 H   0  0  0  0  0  0  0  0  0  0  0  0
   37.2492   30.1357   44.6551 C   0  0  0  0  0  0  0  0  0  0  0  0
   36.2631   30.6508   45.6934 C   0  0  0  0  0  0  0  0  0  0  0  0
   38.1259   33.2635   46.5613 H   0  0  0  0  0  0  0  0  0  0  0  0
   36.6386   33.3418   45.6107 H   0  0  0  0  0  0  0  0  0  0  0  0
   39.2427   31.8467   44.9591 H   0  0  0  0  0  0  0  0  0  0  0  0
   38.4821   33.2492   44.1441 H   0  0  0  0  0  0  0  0  0  0  0  0
   36.5804   31.7294   43.4515 H   0  0  0  0  0  0  0  0  0  0  0  0
   36.8098   29.3045   44.1051 H   0  0  0  0  0  0  0  0  0  0  0  0
   38.2009   29.8564   45.1414 H   0  0  0  0  0  0  0  0  0  0  0  0
   35.4763   31.2147   45.1499 H   0  0  0  0  0  0  0  0  0  0  0  0
   35.8272   29.7783   46.1998 H   0  0  0  0  0  0  0  0  0  0  0  0
  1  6  2  0
  2  1  1  0
  3  4  1  0
  3  2  2  0
  4  5  2  0
  5  7  1  0
  5  6  1  0
  7  8  1  0
  9  7  1  0
 10  7  1  0
  1 11  1  0
  2 12  1  0
 13 14  1  0
 14 15  1  0
 15 16  1  0
 16 17  1  0
 16 18  1  0
 18 19  1  0
 19 13  1  0
 14 20  1  0
 14 21  1  0
 15 22  1  0
 15 23  1  0
 16 24  1  0
 18 25  1  0
 18 26  1  0
 19 27  1  0
 19 28  1  0
  3 13  1  0
M  ISO  3  11  14  12  14  17  15
M  END
>  <DihAtoms>  (1) 
3,2,12,13

>  <DihDeg>  (1) 
0.01884235541995465

$$$$
