REMARK  Name = 
REMARK  3 active torsions:
REMARK  status: ('A' for Active; 'I' for Inactive)
REMARK    1  A    between atoms: C_1  and  C_15
REMARK    2  A    between atoms: C_4  and  C_7
REMARK    3  A    between atoms: C_15  and  C_17
REMARK                            x       y       z     vdW  Elec       q    Type
REMARK                         _______ _______ _______ _____ _____    ______ ____
ROOT
ATOM      1  C   UNL     1      35.852  29.136  49.814  0.00  0.00    +0.000 A 
ATOM      2  C   UNL     1      34.828  29.613  50.553  0.00  0.00    +0.000 A 
ATOM      3  C   UNL     1      33.653  29.029  50.062  0.00  0.00    +0.000 A 
ATOM      4  C   UNL     1      34.069  28.196  49.006  0.00  0.00    +0.000 A 
ATOM      5  O   UNL     1      35.357  28.312  48.923  0.00  0.00    +0.000 OA
ATOM      6  H   UNL     1      34.860  30.320  51.384  0.00  0.00    +0.000 HD
ATOM      7  H   UNL     1      32.687  29.240  50.477  0.00  0.00    +0.000 HD
ENDROOT
BRANCH   4   9
ATOM      8  C   UNL     1      33.536  26.431  47.347  0.00  0.00    +0.000 A 
ATOM      9  C   UNL     1      33.113  27.410  48.239  0.00  0.00    +0.000 A 
ATOM     10  C   UNL     1      31.779  27.673  48.430  0.00  0.00    +0.000 A 
ATOM     11  C   UNL     1      30.855  26.945  47.718  0.00  0.00    +0.000 A 
ATOM     12  N   UNL     1      29.512  26.987  47.705  0.00  0.00    +0.000 N 
ATOM     13  N   UNL     1      29.087  26.066  46.834  0.00  0.00    +0.000 NA
ATOM     14  C   UNL     1      30.147  25.445  46.299  0.00  0.00    +0.000 A 
ATOM     15  C   UNL     1      31.308  25.981  46.842  0.00  0.00    +0.000 A 
ATOM     16  C   UNL     1      32.639  25.693  46.628  0.00  0.00    +0.000 A 
ATOM     17  H   UNL     1      34.601  26.244  47.216  0.00  0.00    +0.000 HD
ATOM     18  H   UNL     1      31.381  28.431  49.116  0.00  0.00    +0.000 HD
ATOM     19  H   UNL     1      28.893  27.616  48.264  0.00  0.00    +0.000 HD
ATOM     20  H   UNL     1      30.075  24.651  45.561  0.00  0.00    +0.000 HD
ATOM     21  H   UNL     1      32.937  24.924  45.926  0.00  0.00    +0.000 HD
ENDBRANCH   4   9
BRANCH   1  22
ATOM     22  C   UNL     1      37.225  29.532  50.048  0.00  0.00    +0.000 C 
ATOM     23  O   UNL     1      37.876  28.965  50.966  0.00  0.00    +0.000 OA
BRANCH  22  24
ATOM     24  C   UNL     1      37.778  30.562  49.212  0.00  0.00    +0.000 A 
ATOM     25  C   UNL     1      38.124  31.764  49.824  0.00  0.00    +0.000 A 
ATOM     26  C   UNL     1      38.662  32.791  49.058  0.00  0.00    +0.000 A 
ATOM     27  N   UNL     1      38.818  32.538  47.718  0.00  0.00    +0.000 NA
ATOM     28  C   UNL     1      38.483  31.387  47.155  0.00  0.00    +0.000 A 
ATOM     29  N   UNL     1      37.967  30.404  47.892  0.00  0.00    +0.000 NA
ATOM     30  H   UNL     1      37.991  31.944  50.893  0.00  0.00    +0.000 HD
ATOM     31  H   UNL     1      38.949  33.744  49.477  0.00  0.00    +0.000 HD
ATOM     32  N   UNL     1      38.695  31.249  45.754  0.00  0.00    +0.000 N 
ATOM     33  C   UNL     1      39.547  32.203  45.067  0.00  0.00    +0.000 C 
ATOM     34  C   UNL     1      38.585  32.921  44.126  0.00  0.00    +0.000 C 
ATOM     35  C   UNL     1      38.122  31.950  43.103  0.00  0.00    +0.000 C 
ATOM     36  H   UNL     1      37.204  32.416  42.634  0.00  0.00    +0.000 HD
ATOM     37  C   UNL     1      37.879  30.558  43.531  0.00  0.00    +0.000 C 
ATOM     38  C   UNL     1      38.113  30.210  44.948  0.00  0.00    +0.000 C 
ENDBRANCH  22  24
ENDBRANCH   1  22
TORSDOF 3
