
     RDKit          3D

 28 29  0  0  0  0  0  0  0  0999 V2000
   38.3011   31.2392   50.1222 C   0  0  0  0  0  0  0  0  0  0  0  0
   38.2930   31.6096   48.7780 C   0  0  0  0  0  0  0  0  0  0  0  0
   37.2074   31.2220   47.9976 C   0  0  0  0  0  0  0  0  0  0  0  0
   36.2178   30.5049   48.5906 N   0  0  0  0  0  0  0  0  0  0  0  0
   36.2602   30.1675   49.8850 C   0  0  0  0  0  0  0  0  0  0  0  0
   37.2956   30.5327   50.6453 N   0  0  0  0  0  0  0  0  0  0  0  0
   35.1355   29.3803   50.4592 C   0  0  0  0  0  0  0  0  0  0  0  0
   35.2720   29.1266   51.8021 F   0  0  0  0  0  0  0  0  0  0  0  0
   33.9217   30.0598   50.3009 F   0  0  0  0  0  0  0  0  0  0  0  0
   34.9447   28.1694   49.8230 F   0  0  0  0  0  0  0  0  0  0  0  0
   39.1814   31.5858   50.6394 H   0  0  0  0  0  0  0  0  0  0  0  0
   39.0362   32.1686   48.2598 H   0  0  0  0  0  0  0  0  0  0  0  0
   36.9930   31.4877   46.6163 N   0  0  0  0  0  0  0  0  0  0  0  0
   37.9802   31.9430   45.6888 C   0  0  0  0  0  0  0  0  0  0  0  0
   38.1443   31.0934   44.4715 C   0  0  0  0  0  0  0  0  0  0  0  0
   36.8140   30.8364   43.7990 C   0  0  0  0  0  0  0  0  0  0  0  0
   36.9146   30.1942   42.9270 H   0  0  0  0  0  0  0  0  0  0  0  0
   35.9159   30.2351   44.8812 C   0  0  0  0  0  0  0  0  0  0  0  0
   35.7430   31.3451   45.9076 C   0  0  0  0  0  0  0  0  0  0  0  0
   38.9963   31.9716   46.1777 H   0  0  0  0  0  0  0  0  0  0  0  0
   37.8216   33.0101   45.3633 H   0  0  0  0  0  0  0  0  0  0  0  0
   38.5524   30.0938   44.7291 H   0  0  0  0  0  0  0  0  0  0  0  0
   38.8182   31.5847   43.7717 H   0  0  0  0  0  0  0  0  0  0  0  0
   36.3090   31.7786   43.5031 H   0  0  0  0  0  0  0  0  0  0  0  0
   34.9424   29.9147   44.5124 H   0  0  0  0  0  0  0  0  0  0  0  0
   36.4909   29.3996   45.3190 H   0  0  0  0  0  0  0  0  0  0  0  0
   35.4689   32.2671   45.3535 H   0  0  0  0  0  0  0  0  0  0  0  0
   34.9287   31.0491   46.5837 H   0  0  0  0  0  0  0  0  0  0  0  0
  1  6  2  0
  2  1  1  0
  3  4  1  0
  3  2  2  0
  4  5  2  0
  5  7  1  0
  5  6  1  0
  7  8  1  0
  9  7  1  0
 10  7  1  0
  1 11  1  0
  2 12  1  0
 13 14  1  0
 14 15  1  0
 15 16  1  0
 16 17  1  0
 16 18  1  0
 18 19  1  0
 19 13  1  0
 14 20  1  0
 14 21  1  0
 15 22  1  0
 15 23  1  0
 16 24  1  0
 18 25  1  0
 18 26  1  0
 19 27  1  0
 19 28  1  0
  3 13  1  0
M  ISO  3  11  14  12  14  17  15
M  END
>  <DihAtoms>  (1) 
3,2,12,13

>  <DihDeg>  (1) 
0.01884235541995465

$$$$
