
 OpenBabel03272505163D

 40 43  0  0  1  0  0  0  0  0999 V2000
   37.9890   31.4910   44.2850 N   0  0  0  0  0  0  0  0  0  0  0  0
   38.6210   32.7610   44.5710 C   0  0  0  0  0  0  0  0  0  0  0  0
   39.5850   33.0530   43.4480 C   0  0  0  0  0  0  0  0  0  0  0  0
   38.8540   32.9230   42.2210 N   0  0  0  0  0  0  0  0  0  0  0  0
   38.4310   31.5930   41.9400 C   0  0  0  0  0  0  0  0  0  0  0  0
   38.5670   30.7430   43.1930 C   0  0  2  0  0  0  0  0  0  0  0  0
   37.8270   33.5390   44.5330 H   0  0  0  0  0  0  0  0  0  0  0  0
   39.1230   32.7170   45.5550 H   0  0  0  0  0  0  0  0  0  0  0  0
   40.5390   32.5380   43.4980 H   0  0  0  0  0  0  0  0  0  0  0  0
   39.8250   34.1590   43.5350 H   0  0  0  0  0  0  0  0  0  0  0  0
   38.1390   33.6630   42.1620 H   0  0  0  0  0  0  0  0  0  0  0  0
   39.0590   31.1790   41.1370 H   0  0  0  0  0  0  0  0  0  0  0  0
   37.3500   31.6500   41.6430 H   0  0  0  0  0  0  0  0  0  0  0  0
   39.6810   30.7170   43.4120 H   0  0  0  0  0  0  0  0  0  0  0  0
   38.4480   31.0700   47.1720 Cl  0  0  0  0  0  0  0  0  0  0  0  0
   36.9550   30.6780   46.3500 C   0  0  0  0  0  0  0  0  0  0  0  0
   35.9310   30.1510   47.0580 C   0  0  0  0  0  0  0  0  0  0  0  0
   34.7680   29.8910   46.3330 C   0  0  0  0  0  0  0  0  0  0  0  0
   34.6220   30.1350   44.9970 C   0  0  0  0  0  0  0  0  0  0  0  0
   35.6930   30.6700   44.3240 C   0  0  0  0  0  0  0  0  0  0  0  0
   36.8720   30.9480   44.9890 C   0  0  0  0  0  0  0  0  0  0  0  0
   33.9120   29.4690   46.8460 H   0  0  0  0  0  0  0  0  0  0  0  0
   33.7010   29.9200   44.4670 H   0  0  0  0  0  0  0  0  0  0  0  0
   35.6850   30.9010   43.2660 H   0  0  0  0  0  0  0  0  0  0  0  0
   37.4250   29.6260   50.4680 C   0  0  0  0  0  0  0  0  0  0  0  0
   37.3230   29.8670   49.0900 C   0  0  0  0  0  0  0  0  0  0  0  0
   36.0650   29.8890   48.4690 C   0  0  0  0  0  0  0  0  0  0  0  0
   34.9710   29.6630   49.2640 N   0  0  0  0  0  0  0  0  0  0  0  0
   35.0900   29.4330   50.5840 C   0  0  0  0  0  0  0  0  0  0  0  0
   36.3060   29.4120   51.1960 N   0  0  0  0  0  0  0  0  0  0  0  0
   38.3440   29.5920   51.0290 H   0  0  0  0  0  0  0  0  0  0  0  0
   38.3010   29.9810   48.6690 H   0  0  0  0  0  0  0  0  0  0  0  0
   34.1200   29.2800   51.0310 H   0  0  0  0  0  0  0  0  0  0  0  0
   38.1600   29.4140   43.0470 N   0  0  0  0  0  0  0  0  0  0  0  0
   37.2840   29.0340   42.0110 C   0  0  0  0  0  0  0  0  0  0  0  0
   37.8020   27.7290   41.3600 C   0  0  0  0  0  0  0  0  0  0  0  0
   39.2940   27.8150   41.1710 C   0  0  0  0  0  0  0  0  0  0  0  0
   39.6530   26.8960   40.6760 H   0  0  0  0  0  0  0  0  0  0  0  0
   39.9630   27.8870   42.5110 C   0  0  0  0  0  0  0  0  0  0  0  0
   39.0110   28.3850   43.5390 C   0  0  0  0  0  0  0  0  0  0  0  0
  1  2  1  0  0  0  0
  1 21  1  0  0  0  0
  2  8  1  0  0  0  0
  3  9  1  0  0  0  0
  3 10  1  0  0  0  0
  3  2  1  0  0  0  0
  4  3  1  0  0  0  0
  5  4  1  0  0  0  0
  5  6  1  0  0  0  0
  6 14  1  1  0  0  0
  6  1  1  0  0  0  0
  7  2  1  0  0  0  0
 11  4  1  0  0  0  0
 12  5  1  0  0  0  0
 13  5  1  0  0  0  0
 16 17  1  0  0  0  0
 16 15  1  0  0  0  0
 17 27  1  0  0  0  0
 18 22  1  0  0  0  0
 18 17  2  0  0  0  0
 19 18  1  0  0  0  0
 20 21  1  0  0  0  0
 20 19  2  0  0  0  0
 21 16  2  0  0  0  0
 23 19  1  0  0  0  0
 24 20  1  0  0  0  0
 25 31  1  0  0  0  0
 25 30  1  0  0  0  0
 26 25  2  0  0  0  0
 27 26  1  0  0  0  0
 27 28  2  0  0  0  0
 28 29  1  0  0  0  0
 29 33  1  0  0  0  0
 29 30  2  0  0  0  0
 32 26  1  0  0  0  0
 34  6  1  0  0  0  0
 34 40  1  0  0  0  0
 35 34  1  0  0  0  0
 36 35  1  0  0  0  0
 37 36  1  0  0  0  0
 37 39  1  0  0  0  0
 38 37  1  0  0  0  0
 39 40  1  0  0  0  0
M  END
>  <minimizedAffinity>
-5.64160109

>  <minimizedRMSD>
1.3581742

$$$$
