
     RDKit          3D

 28 29  0  0  0  0  0  0  0  0999 V2000
   38.3011   31.2392   50.1222 C   0  0  0  0  0  0  0  0  0  0  0  0
   38.2930   31.6096   48.7780 C   0  0  0  0  0  0  0  0  0  0  0  0
   37.2074   31.2220   47.9976 C   0  0  0  0  0  0  0  0  0  0  0  0
   36.2178   30.5049   48.5906 N   0  0  0  0  0  0  0  0  0  0  0  0
   36.2602   30.1675   49.8850 C   0  0  0  0  0  0  0  0  0  0  0  0
   37.2956   30.5327   50.6453 N   0  0  0  0  0  0  0  0  0  0  0  0
   35.1355   29.3803   50.4592 C   0  0  0  0  0  0  0  0  0  0  0  0
   35.2720   29.1266   51.8021 F   0  0  0  0  0  0  0  0  0  0  0  0
   33.9217   30.0598   50.3009 F   0  0  0  0  0  0  0  0  0  0  0  0
   34.9447   28.1694   49.8230 F   0  0  0  0  0  0  0  0  0  0  0  0
   39.1814   31.5858   50.6394 H   0  0  0  0  0  0  0  0  0  0  0  0
   39.0362   32.1686   48.2598 H   0  0  0  0  0  0  0  0  0  0  0  0
   36.9930   31.4877   46.6163 N   0  0  0  0  0  0  0  0  0  0  0  0
   37.9654   31.3539   45.5777 C   0  0  0  0  0  0  0  0  0  0  0  0
   37.5613   30.4717   44.4424 C   0  0  0  0  0  0  0  0  0  0  0  0
   36.2055   30.8643   43.8988 C   0  0  0  0  0  0  0  0  0  0  0  0
   35.8852   30.2115   43.0902 H   0  0  0  0  0  0  0  0  0  0  0  0
   35.2577   30.8353   45.0988 C   0  0  0  0  0  0  0  0  0  0  0  0
   35.7579   31.9388   46.0195 C   0  0  0  0  0  0  0  0  0  0  0  0
   38.9175   30.9067   45.9851 H   0  0  0  0  0  0  0  0  0  0  0  0
   38.3048   32.3440   45.1602 H   0  0  0  0  0  0  0  0  0  0  0  0
   37.4637   29.4149   44.7675 H   0  0  0  0  0  0  0  0  0  0  0  0
   38.3046   30.5341   43.6494 H   0  0  0  0  0  0  0  0  0  0  0  0
   36.1869   31.9166   43.5486 H   0  0  0  0  0  0  0  0  0  0  0  0
   34.2156   31.0137   44.8366 H   0  0  0  0  0  0  0  0  0  0  0  0
   35.4044   29.8490   45.5740 H   0  0  0  0  0  0  0  0  0  0  0  0
   35.9012   32.8474   45.3980 H   0  0  0  0  0  0  0  0  0  0  0  0
   34.9841   32.1139   46.7800 H   0  0  0  0  0  0  0  0  0  0  0  0
  1  6  2  0
  2  1  1  0
  3  4  1  0
  3  2  2  0
  4  5  2  0
  5  7  1  0
  5  6  1  0
  7  8  1  0
  9  7  1  0
 10  7  1  0
  1 11  1  0
  2 12  1  0
 13 14  1  0
 14 15  1  0
 15 16  1  0
 16 17  1  0
 16 18  1  0
 18 19  1  0
 19 13  1  0
 14 20  1  0
 14 21  1  0
 15 22  1  0
 15 23  1  0
 16 24  1  0
 18 25  1  0
 18 26  1  0
 19 27  1  0
 19 28  1  0
  3 13  1  0
M  ISO  3  11  14  12  14  17  15
M  END
>  <DihAtoms>  (1) 
3,2,12,13

>  <DihDeg>  (1) 
0.01884235541995465

$$$$
