
     RDKit          3D

 43 46  0  0  0  0  0  0  0  0999 V2000
   37.3125   29.3359   51.0260 Br  0  0  0  0  0  0  0  0  0  0  0  0
   35.9614   29.3337   49.6722 C   0  0  0  0  0  0  0  0  0  0  0  0
   35.9880   30.2549   48.6362 C   0  0  0  0  0  0  0  0  0  0  0  0
   34.9879   30.1903   47.7068 C   0  0  0  0  0  0  0  0  0  0  0  0
   33.9698   29.2712   47.7449 C   0  0  0  0  0  0  0  0  0  0  0  0
   33.9677   28.3711   48.7810 C   0  0  0  0  0  0  0  0  0  0  0  0
   34.9574   28.4074   49.7327 C   0  0  0  0  0  0  0  0  0  0  0  0
   37.9920   33.1891   49.4661 C   0  0  0  0  0  0  0  0  0  0  0  0
   39.0270   33.1676   48.4690 C   0  0  0  0  0  0  0  0  0  0  0  0
   39.0037   32.1486   47.5455 C   0  0  0  0  0  0  0  0  0  0  0  0
   38.0108   31.2143   47.6163 N   0  0  0  0  0  0  0  0  0  0  0  0
   37.0504   31.2495   48.5557 C   0  0  0  0  0  0  0  0  0  0  0  0
   37.0446   32.2486   49.4882 N   0  0  0  0  0  0  0  0  0  0  0  0
   32.9080   29.2025   46.7582 C   0  0  0  0  0  0  0  0  0  0  0  0
   32.2636   28.0393   46.3693 C   0  0  0  0  0  0  0  0  0  0  0  0
   31.2512   28.0268   45.4187 C   0  0  0  0  0  0  0  0  0  0  0  0
   30.8697   29.1725   44.8452 N   0  0  0  0  0  0  0  0  0  0  0  0
   31.4902   30.3167   45.2152 C   0  0  0  0  0  0  0  0  0  0  0  0
   32.4591   30.3079   46.1289 N   0  0  0  0  0  0  0  0  0  0  0  0
   34.9865   30.9003   46.8865 H   0  0  0  0  0  0  0  0  0  0  0  0
   33.1848   27.6261   48.8544 H   0  0  0  0  0  0  0  0  0  0  0  0
   34.9091   27.6722   50.5322 H   0  0  0  0  0  0  0  0  0  0  0  0
   38.0324   34.0069   50.1868 H   0  0  0  0  0  0  0  0  0  0  0  0
   39.7954   33.9287   48.4494 H   0  0  0  0  0  0  0  0  0  0  0  0
   39.7427   32.0590   46.7645 H   0  0  0  0  0  0  0  0  0  0  0  0
   32.5752   27.1102   46.8364 H   0  0  0  0  0  0  0  0  0  0  0  0
   30.7955   27.0852   45.1659 H   0  0  0  0  0  0  0  0  0  0  0  0
   31.0533   31.5146   44.5798 N   0  0  0  0  0  0  0  0  0  0  0  0
   31.8297   32.7158   44.6465 C   0  0  0  0  0  0  0  0  0  0  0  0
   31.6942   33.6195   43.4640 C   0  0  0  0  0  0  0  0  0  0  0  0
   30.4212   33.4917   42.7136 C   0  0  0  0  0  0  0  0  0  0  0  0
   30.0833   34.4999   42.3965 H   0  0  0  0  0  0  0  0  0  0  0  0
   29.3089   32.8727   43.5209 C   0  0  0  0  0  0  0  0  0  0  0  0
   29.7851   31.4768   43.8568 C   0  0  0  0  0  0  0  0  0  0  0  0
   31.4941   33.2654   45.5560 H   0  0  0  0  0  0  0  0  0  0  0  0
   32.8985   32.4655   44.8093 H   0  0  0  0  0  0  0  0  0  0  0  0
   32.5196   33.4120   42.7209 H   0  0  0  0  0  0  0  0  0  0  0  0
   31.8500   34.6699   43.7863 H   0  0  0  0  0  0  0  0  0  0  0  0
   30.5133   32.8873   41.7772 H   0  0  0  0  0  0  0  0  0  0  0  0
   28.4347   32.7648   42.8450 H   0  0  0  0  0  0  0  0  0  0  0  0
   29.0862   33.4664   44.4296 H   0  0  0  0  0  0  0  0  0  0  0  0
   29.9580   30.9673   42.8860 H   0  0  0  0  0  0  0  0  0  0  0  0
   29.0469   30.9411   44.4751 H   0  0  0  0  0  0  0  0  0  0  0  0
  2  7  2  0
  2  1  1  0
  3  2  1  0
  4  5  1  0
  4  3  2  0
  5  6  2  0
  6  7  1  0
  8 13  2  0
  9  8  1  0
 10 11  1  0
 10  9  2  0
 11 12  2  0
 12  3  1  0
 12 13  1  0
 14  5  1  0
 15 14  2  0
 16 15  1  0
 17 18  1  0
 17 16  2  0
 18 19  2  0
 19 14  1  0
  4 20  1  0
  6 21  1  0
  7 22  1  0
  8 23  1  0
  9 24  1  0
 10 25  1  0
 15 26  1  0
 16 27  1  0
 28 29  1  0
 29 30  1  0
 30 31  1  0
 31 32  1  0
 31 33  1  0
 33 34  1  0
 34 28  1  0
 29 35  1  0
 29 36  1  0
 30 37  1  0
 30 38  1  0
 31 39  1  0
 33 40  1  0
 33 41  1  0
 34 42  1  0
 34 43  1  0
 18 28  1  0
M  ISO  8  20  14  21  14  22  14  23  14  24  14  25  14  26  14  27  14
M  ISO  1  32  15
M  END
>  <DihAtoms>  (1) 
16,17,27,28

>  <DihDeg>  (1) 
0.005861687204605501

$$$$
