
     RDKit          3D

 35 37  0  0  0  0  0  0  0  0999 V2000
   38.0084   33.1061   49.4818 C   0  0  0  0  0  0  0  0  0  0  0  0
   38.9682   33.2141   48.4784 C   0  0  0  0  0  0  0  0  0  0  0  0
   38.9521   32.2201   47.4589 C   0  0  0  0  0  0  0  0  0  0  0  0
   38.0158   31.2382   47.5223 N   0  0  0  0  0  0  0  0  0  0  0  0
   37.0999   31.1747   48.5211 C   0  0  0  0  0  0  0  0  0  0  0  0
   37.1143   32.1178   49.4894 N   0  0  0  0  0  0  0  0  0  0  0  0
   36.0940   30.1330   48.6027 C   0  0  0  0  0  0  0  0  0  0  0  0
   35.2813   29.9519   47.5126 C   0  0  0  0  0  0  0  0  0  0  0  0
   34.2968   28.9872   47.4973 C   0  0  0  0  0  0  0  0  0  0  0  0
   34.1486   28.1943   48.6292 C   0  0  0  0  0  0  0  0  0  0  0  0
   34.9627   28.3580   49.7520 C   0  0  0  0  0  0  0  0  0  0  0  0
   35.9429   29.3407   49.7282 C   0  0  0  0  0  0  0  0  0  0  0  0
   37.9613   33.8254   50.2880 H   0  0  0  0  0  0  0  0  0  0  0  0
   39.6874   33.9966   48.4592 H   0  0  0  0  0  0  0  0  0  0  0  0
   39.6807   32.2496   46.6423 H   0  0  0  0  0  0  0  0  0  0  0  0
   35.3853   30.5664   46.6166 H   0  0  0  0  0  0  0  0  0  0  0  0
   33.6509   28.8389   46.6386 H   0  0  0  0  0  0  0  0  0  0  0  0
   33.3670   27.4499   48.5794 H   0  0  0  0  0  0  0  0  0  0  0  0
   34.8012   27.7115   50.6048 H   0  0  0  0  0  0  0  0  0  0  0  0
   36.7886   29.5264   50.8654 N   0  0  0  0  0  0  0  0  0  0  0  0
   37.9165   28.7144   51.3485 C   0  0  0  0  0  0  0  0  0  0  0  0
   37.8496   28.6343   52.8599 C   0  0  0  0  0  0  0  0  0  0  0  0
   37.7973   29.9827   53.5049 C   0  0  0  0  0  0  0  0  0  0  0  0
   36.9352   30.0238   54.2035 H   0  0  0  0  0  0  0  0  0  0  0  0
   37.5747   31.0922   52.4853 C   0  0  0  0  0  0  0  0  0  0  0  0
   36.4197   30.7155   51.6088 C   0  0  0  0  0  0  0  0  0  0  0  0
   37.7807   27.6814   50.9646 H   0  0  0  0  0  0  0  0  0  0  0  0
   38.8870   29.1156   51.0610 H   0  0  0  0  0  0  0  0  0  0  0  0
   37.0248   28.0018   53.2071 H   0  0  0  0  0  0  0  0  0  0  0  0
   38.7982   28.1184   53.1862 H   0  0  0  0  0  0  0  0  0  0  0  0
   38.6990   30.1942   54.1309 H   0  0  0  0  0  0  0  0  0  0  0  0
   38.5354   31.2138   51.9437 H   0  0  0  0  0  0  0  0  0  0  0  0
   37.3278   32.0433   52.9552 H   0  0  0  0  0  0  0  0  0  0  0  0
   35.5988   30.3870   52.2962 H   0  0  0  0  0  0  0  0  0  0  0  0
   36.0447   31.5407   50.9888 H   0  0  0  0  0  0  0  0  0  0  0  0
  1  6  2  0
  2  1  1  0
  3  4  1  0
  3  2  2  0
  4  5  2  0
  5  7  1  0
  5  6  1  0
  7 12  1  0
  8  7  2  0
  9  8  1  0
  9 10  2  0
 10 11  1  0
 12 11  2  0
  1 13  1  0
  2 14  1  0
  3 15  1  0
  8 16  1  0
  9 17  1  0
 10 18  1  0
 11 19  1  0
 20 21  1  0
 21 22  1  0
 22 23  1  0
 23 24  1  0
 23 25  1  0
 25 26  1  0
 26 20  1  0
 21 27  1  0
 21 28  1  0
 22 29  1  0
 22 30  1  0
 23 31  1  0
 25 32  1  0
 25 33  1  0
 26 34  1  0
 26 35  1  0
 12 20  1  0
M  ISO  8  13  14  14  14  15  14  16  14  17  14  18  14  19  14  24  15
M  END
>  <DihAtoms>  (1) 
6,11,19,20

>  <DihDeg>  (1) 
-60.15201557706214

$$$$
