
 OpenBabel03272501413D

 43 47  0  0  1  0  0  0  0  0999 V2000
   35.9560   29.4130   31.1980 C   0  0  0  0  0  0  0  0  0  0  0  0
   36.3660   28.1550   31.5650 C   0  0  0  0  0  0  0  0  0  0  0  0
   36.4830   27.7630   32.9070 C   0  0  0  0  0  0  0  0  0  0  0  0
   36.1750   28.6520   33.8130 N   0  0  0  0  0  0  0  0  0  0  0  0
   35.7650   29.9050   33.4340 C   0  0  0  0  0  0  0  0  0  0  0  0
   35.6590   30.2750   32.1630 N   0  0  0  0  0  0  0  0  0  0  0  0
   35.8760   29.6920   30.1550 H   0  0  0  0  0  0  0  0  0  0  0  0
   36.6010   27.4760   30.7430 H   0  0  0  0  0  0  0  0  0  0  0  0
   35.4060   30.9070   34.4340 C   0  0  0  0  0  0  0  0  0  0  0  0
   35.9020   31.1650   35.6830 C   0  0  0  0  0  0  0  0  0  0  0  0
   35.4180   32.1600   36.4380 C   0  0  0  0  0  0  0  0  0  0  0  0
   34.3670   32.9100   35.8430 C   0  0  0  0  0  0  0  0  0  0  0  0
   34.1460   32.1150   34.2090 S   0  0  0  0  0  0  0  0  0  0  0  0
   36.7070   30.5150   36.0190 H   0  0  0  0  0  0  0  0  0  0  0  0
   35.7390   32.4400   37.4260 H   0  0  0  0  0  0  0  0  0  0  0  0
   33.6170   34.0040   36.2850 N   0  0  0  0  0  0  0  0  0  0  0  0
   32.1990   34.2150   35.9570 C   0  0  0  0  0  2  0  0  0  0  0  0
   31.3910   34.3770   37.2290 C   0  0  0  0  0  2  0  0  0  0  0  0
   31.9840   35.4550   38.1170 C   0  0  0  0  0  3  0  0  0  0  0  0
   31.9120   36.4260   37.6020 H   0  0  0  0  0  0  0  0  0  0  0  0
   33.4210   35.0680   38.4240 C   0  0  0  0  0  2  0  0  0  0  0  0
   34.1820   35.0510   37.1180 C   0  0  0  0  0  2  0  0  0  0  0  0
   37.0200   26.4430   33.1190 C   0  0  1  0  0  0  0  0  0  0  0  0
   38.0060   26.5770   32.5140 H   0  0  0  0  0  0  0  0  0  0  0  0
   37.4550   26.1170   34.5330 C   0  0  2  0  0  0  0  0  0  0  0  0
   38.9680   26.3120   34.5840 C   0  0  0  0  0  0  0  0  0  0  0  0
   38.3150   24.9870   34.7840 C   0  0  1  0  0  0  0  0  0  0  0  0
   36.8650   26.6090   35.3310 H   0  0  0  0  0  0  0  0  0  0  0  0
   39.6100   26.3630   33.7090 H   0  0  0  0  0  0  0  0  0  0  0  0
   39.3340   26.8710   35.4630 H   0  0  0  0  0  0  0  0  0  0  0  0
   38.2840   24.2080   33.9940 H   0  0  0  0  0  0  0  0  0  0  0  0
   38.5780   24.3920   36.1020 C   0  0  0  0  0  0  0  0  0  0  0  0
   37.7970   24.7990   37.1530 C   0  0  0  0  0  0  0  0  0  0  0  0
   38.0440   24.2080   38.3680 C   0  0  0  0  0  0  0  0  0  0  0  0
   39.0120   23.2560   38.5650 C   0  0  0  0  0  0  0  0  0  0  0  0
   39.7840   22.8680   37.4770 C   0  0  0  0  0  0  0  0  0  0  0  0
   39.5550   23.4370   36.2790 N   0  0  0  0  0  0  0  0  0  0  0  0
   37.0170   25.5300   37.1160 H   0  0  0  0  0  0  0  0  0  0  0  0
   37.4660   24.4740   39.2620 H   0  0  0  0  0  0  0  0  0  0  0  0
   39.2510   22.7620   39.4760 H   0  0  0  0  0  0  0  0  0  0  0  0
   40.5860   22.1440   37.4240 H   0  0  0  0  0  0  0  0  0  0  0  0
   36.6070   25.4130   32.4430 O   0  0  0  0  0  0  0  0  0  0  0  0
   35.6250   25.2610   32.4220 H   0  0  0  0  0  0  0  0  0  0  0  0
  1  2  2  0  0  0  0
  1  6  1  0  0  0  0
  2  3  1  0  0  0  0
  3 23  1  0  0  0  0
  3  4  2  0  0  0  0
  5  4  1  0  0  0  0
  5  9  1  0  0  0  0
  6  5  2  0  0  0  0
  7  1  1  0  0  0  0
  8  2  1  0  0  0  0
  9 10  2  0  0  0  0
 10 14  1  0  0  0  0
 10 11  1  0  0  0  0
 11 15  1  0  0  0  0
 12 16  1  0  0  0  0
 12 11  2  0  0  0  0
 13  9  1  0  0  0  0
 13 12  1  0  0  0  0
 16 22  1  0  0  0  0
 17 16  1  0  0  0  0
 17 18  1  0  0  0  0
 18 19  1  0  0  0  0
 19 21  1  0  0  0  0
 20 19  1  0  0  0  0
 22 21  1  0  0  0  0
 23 24  1  6  0  0  0
 23 25  1  0  0  0  0
 25 26  1  0  0  0  0
 25 27  1  0  0  0  0
 25 28  1  1  0  0  0
 26 27  1  0  0  0  0
 26 30  1  0  0  0  0
 27 31  1  6  0  0  0
 27 32  1  0  0  0  0
 29 26  1  0  0  0  0
 32 37  2  0  0  0  0
 32 33  1  0  0  0  0
 33 34  2  0  0  0  0
 34 35  1  0  0  0  0
 34 39  1  0  0  0  0
 35 40  1  0  0  0  0
 36 35  2  0  0  0  0
 37 36  1  0  0  0  0
 38 33  1  0  0  0  0
 41 36  1  0  0  0  0
 42 23  1  0  0  0  0
 43 42  1  0  0  0  0
M  END
>  <minimizedAffinity>
-6.40549517

$$$$

 OpenBabel03272501413D

 43 47  0  0  1  0  0  0  0  0999 V2000
   35.3150   24.6130   31.0160 C   0  0  0  0  0  0  0  0  0  0  0  0
   36.4930   23.9710   31.3100 C   0  0  0  0  0  0  0  0  0  0  0  0
   37.6200   24.6510   31.7980 C   0  0  0  0  0  0  0  0  0  0  0  0
   37.5030   25.9400   31.9730 N   0  0  0  0  0  0  0  0  0  0  0  0
   36.3220   26.5690   31.6770 C   0  0  0  0  0  0  0  0  0  0  0  0
   35.2580   25.9250   31.2110 N   0  0  0  0  0  0  0  0  0  0  0  0
   34.4600   24.0660   30.6380 H   0  0  0  0  0  0  0  0  0  0  0  0
   36.5000   22.8930   31.1350 H   0  0  0  0  0  0  0  0  0  0  0  0
   36.1710   28.0080   31.8770 C   0  0  0  0  0  0  0  0  0  0  0  0
   36.2090   29.0570   30.9990 C   0  0  0  0  0  0  0  0  0  0  0  0
   36.0340   30.3210   31.4100 C   0  0  0  0  0  0  0  0  0  0  0  0
   35.8110   30.4750   32.8050 C   0  0  0  0  0  0  0  0  0  0  0  0
   35.8700   28.7590   33.4400 S   0  0  0  0  0  0  0  0  0  0  0  0
   36.3880   28.8010   29.9580 H   0  0  0  0  0  0  0  0  0  0  0  0
   36.0460   31.2090   30.8000 H   0  0  0  0  0  0  0  0  0  0  0  0
   35.5830   31.5960   33.6090 N   0  0  0  0  0  0  0  0  0  0  0  0
   34.9320   31.5440   34.9260 C   0  0  0  0  0  2  0  0  0  0  0  0
   35.8280   32.1760   35.9730 C   0  0  0  0  0  2  0  0  0  0  0  0
   36.2560   33.5700   35.5530 C   0  0  0  0  0  3  0  0  0  0  0  0
   35.3680   34.2190   35.5000 H   0  0  0  0  0  0  0  0  0  0  0  0
   36.9680   33.4550   34.2150 C   0  0  0  0  0  2  0  0  0  0  0  0
   35.9710   32.9360   33.2050 C   0  0  0  0  0  2  0  0  0  0  0  0
   38.8030   23.8450   31.9600 C   0  0  1  0  0  0  0  0  0  0  0  0
   39.5800   24.6330   31.5990 H   0  0  0  0  0  0  0  0  0  0  0  0
   39.1960   23.5140   33.3860 C   0  0  2  0  0  0  0  0  0  0  0  0
   38.5550   22.1690   33.7170 C   0  0  0  0  0  0  0  0  0  0  0  0
   38.1880   23.4340   34.4140 C   0  0  1  0  0  0  0  0  0  0  0  0
   40.2740   23.6190   33.6130 H   0  0  0  0  0  0  0  0  0  0  0  0
   37.7420   21.7200   33.1520 H   0  0  0  0  0  0  0  0  0  0  0  0
   39.2230   21.4500   34.2210 H   0  0  0  0  0  0  0  0  0  0  0  0
   37.2580   23.9970   34.1860 H   0  0  0  0  0  0  0  0  0  0  0  0
   38.4460   23.4070   35.8610 C   0  0  0  0  0  0  0  0  0  0  0  0
   39.5810   22.7710   36.2950 C   0  0  0  0  0  0  0  0  0  0  0  0
   39.8140   22.7830   37.6480 C   0  0  0  0  0  0  0  0  0  0  0  0
   38.9820   23.3890   38.5550 C   0  0  0  0  0  0  0  0  0  0  0  0
   37.8410   24.0250   38.0790 C   0  0  0  0  0  0  0  0  0  0  0  0
   37.5980   24.0210   36.7560 N   0  0  0  0  0  0  0  0  0  0  0  0
   40.2980   22.2680   35.6810 H   0  0  0  0  0  0  0  0  0  0  0  0
   40.6980   22.2990   38.0810 H   0  0  0  0  0  0  0  0  0  0  0  0
   39.1060   23.4350   39.6100 H   0  0  0  0  0  0  0  0  0  0  0  0
   37.0690   24.5530   38.6220 H   0  0  0  0  0  0  0  0  0  0  0  0
   39.1440   22.9380   31.0940 O   0  0  0  0  0  0  0  0  0  0  0  0
   38.4460   22.2750   30.8480 H   0  0  0  0  0  0  0  0  0  0  0  0
  1  6  2  0  0  0  0
  1  2  1  0  0  0  0
  2  3  2  0  0  0  0
  3 23  1  0  0  0  0
  3  4  1  0  0  0  0
  5  9  1  0  0  0  0
  5  4  2  0  0  0  0
  6  5  1  0  0  0  0
  7  1  1  0  0  0  0
  8  2  1  0  0  0  0
  9 13  1  0  0  0  0
 10 11  1  0  0  0  0
 10  9  2  0  0  0  0
 11 12  2  0  0  0  0
 12 13  1  0  0  0  0
 12 16  1  0  0  0  0
 14 10  1  0  0  0  0
 15 11  1  0  0  0  0
 16 17  1  0  0  0  0
 17 18  1  0  0  0  0
 19 18  1  0  0  0  0
 20 19  1  0  0  0  0
 21 19  1  0  0  0  0
 22 16  1  0  0  0  0
 22 21  1  0  0  0  0
 23 24  1  6  0  0  0
 23 25  1  0  0  0  0
 25 28  1  1  0  0  0
 25 26  1  0  0  0  0
 25 27  1  0  0  0  0
 26 30  1  0  0  0  0
 26 27  1  0  0  0  0
 27 31  1  6  0  0  0
 27 32  1  0  0  0  0
 29 26  1  0  0  0  0
 32 33  2  0  0  0  0
 32 37  1  0  0  0  0
 33 34  1  0  0  0  0
 34 39  1  0  0  0  0
 34 35  2  0  0  0  0
 35 40  1  0  0  0  0
 36 35  1  0  0  0  0
 36 41  1  0  0  0  0
 37 36  2  0  0  0  0
 38 33  1  0  0  0  0
 42 23  1  0  0  0  0
 43 42  1  0  0  0  0
M  END
>  <minimizedAffinity>
-6.26855469

$$$$

 OpenBabel03272501413D

 43 47  0  0  1  0  0  0  0  0999 V2000
   38.9360   27.8790   29.9850 C   0  0  0  0  0  0  0  0  0  0  0  0
   37.9370   28.7130   30.4240 C   0  0  0  0  0  0  0  0  0  0  0  0
   36.7520   28.2310   30.9990 C   0  0  0  0  0  0  0  0  0  0  0  0
   36.6320   26.9360   31.1110 N   0  0  0  0  0  0  0  0  0  0  0  0
   37.6370   26.1130   30.6710 C   0  0  0  0  0  0  0  0  0  0  0  0
   38.7570   26.5710   30.1230 N   0  0  0  0  0  0  0  0  0  0  0  0
   39.8420   28.2760   29.5430 H   0  0  0  0  0  0  0  0  0  0  0  0
   38.1220   29.7820   30.2930 H   0  0  0  0  0  0  0  0  0  0  0  0
   37.5250   24.6620   30.7980 C   0  0  0  0  0  0  0  0  0  0  0  0
   38.4530   23.6640   30.6780 C   0  0  0  0  0  0  0  0  0  0  0  0
   38.1230   22.3760   30.8480 C   0  0  0  0  0  0  0  0  0  0  0  0
   36.7560   22.1410   31.1570 C   0  0  0  0  0  0  0  0  0  0  0  0
   36.0280   23.8200   31.1820 S   0  0  0  0  0  0  0  0  0  0  0  0
   39.4650   23.9800   30.4390 H   0  0  0  0  0  0  0  0  0  0  0  0
   38.7770   21.5240   30.7750 H   0  0  0  0  0  0  0  0  0  0  0  0
   36.0300   20.9730   31.4090 N   0  0  0  0  0  0  0  0  0  0  0  0
   36.2150   19.7150   30.6700 C   0  0  0  0  0  2  0  0  0  0  0  0
   36.5130   18.5850   31.6370 C   0  0  0  0  0  2  0  0  0  0  0  0
   35.4600   18.5100   32.7270 C   0  0  0  0  0  3  0  0  0  0  0  0
   34.4890   18.2550   32.2730 H   0  0  0  0  0  0  0  0  0  0  0  0
   35.4310   19.8510   33.4400 C   0  0  0  0  0  2  0  0  0  0  0  0
   35.0060   20.8980   32.4350 C   0  0  0  0  0  2  0  0  0  0  0  0
   35.7670   29.2350   31.3130 C   0  0  1  0  0  0  0  0  0  0  0  0
   34.8300   28.6590   30.9320 H   0  0  0  0  0  0  0  0  0  0  0  0
   35.5160   29.4870   32.7860 C   0  0  2  0  0  0  0  0  0  0  0  0
   34.0250   29.2610   33.0230 C   0  0  0  0  0  0  0  0  0  0  0  0
   34.6810   30.5870   33.2000 C   0  0  1  0  0  0  0  0  0  0  0  0
   36.2110   28.9710   33.4760 H   0  0  0  0  0  0  0  0  0  0  0  0
   33.2750   29.2370   32.2360 H   0  0  0  0  0  0  0  0  0  0  0  0
   33.7840   28.6550   33.9130 H   0  0  0  0  0  0  0  0  0  0  0  0
   34.5980   31.4030   32.4510 H   0  0  0  0  0  0  0  0  0  0  0  0
   34.5840   31.1160   34.5680 C   0  0  0  0  0  0  0  0  0  0  0  0
   35.6590   31.8090   35.0620 C   0  0  0  0  0  0  0  0  0  0  0  0
   35.5330   32.3160   36.3320 C   0  0  0  0  0  0  0  0  0  0  0  0
   34.4090   32.1620   37.1020 C   0  0  0  0  0  0  0  0  0  0  0  0
   33.3380   31.4540   36.5680 C   0  0  0  0  0  0  0  0  0  0  0  0
   33.4460   30.9500   35.3250 N   0  0  0  0  0  0  0  0  0  0  0  0
   36.5820   31.9910   34.5540 H   0  0  0  0  0  0  0  0  0  0  0  0
   36.3450   32.8840   36.8040 H   0  0  0  0  0  0  0  0  0  0  0  0
   34.2490   32.5290   38.0880 H   0  0  0  0  0  0  0  0  0  0  0  0
   32.3770   31.2240   37.0080 H   0  0  0  0  0  0  0  0  0  0  0  0
   35.5790   30.2770   30.5590 O   0  0  0  0  0  0  0  0  0  0  0  0
   36.3860   30.8100   30.3310 H   0  0  0  0  0  0  0  0  0  0  0  0
  1  6  2  0  0  0  0
  1  2  1  0  0  0  0
  2  3  2  0  0  0  0
  3  4  1  0  0  0  0
  3 23  1  0  0  0  0
  5  9  1  0  0  0  0
  5  4  2  0  0  0  0
  6  5  1  0  0  0  0
  7  1  1  0  0  0  0
  8  2  1  0  0  0  0
  9 13  1  0  0  0  0
 10  9  2  0  0  0  0
 10 11  1  0  0  0  0
 11 12  2  0  0  0  0
 12 13  1  0  0  0  0
 12 16  1  0  0  0  0
 14 10  1  0  0  0  0
 15 11  1  0  0  0  0
 16 22  1  0  0  0  0
 17 16  1  0  0  0  0
 17 18  1  0  0  0  0
 18 19  1  0  0  0  0
 19 21  1  0  0  0  0
 20 19  1  0  0  0  0
 22 21  1  0  0  0  0
 23 24  1  6  0  0  0
 23 25  1  0  0  0  0
 25 26  1  0  0  0  0
 25 27  1  0  0  0  0
 25 28  1  1  0  0  0
 26 27  1  0  0  0  0
 26 30  1  0  0  0  0
 27 31  1  6  0  0  0
 27 32  1  0  0  0  0
 29 26  1  0  0  0  0
 32 33  2  0  0  0  0
 32 37  1  0  0  0  0
 33 34  1  0  0  0  0
 34 39  1  0  0  0  0
 34 35  2  0  0  0  0
 35 40  1  0  0  0  0
 36 41  1  0  0  0  0
 36 35  1  0  0  0  0
 37 36  2  0  0  0  0
 38 33  1  0  0  0  0
 42 23  1  0  0  0  0
 43 42  1  0  0  0  0
M  END
>  <minimizedAffinity>
-6.18549776

$$$$

 OpenBabel03272501413D

 43 47  0  0  1  0  0  0  0  0999 V2000
   36.0700   29.0860   31.5230 C   0  0  0  0  0  0  0  0  0  0  0  0
   35.0750   29.8550   32.0750 C   0  0  0  0  0  0  0  0  0  0  0  0
   34.7670   29.8180   33.4440 C   0  0  0  0  0  0  0  0  0  0  0  0
   35.4780   29.0160   34.1900 N   0  0  0  0  0  0  0  0  0  0  0  0
   36.4700   28.2540   33.6270 C   0  0  0  0  0  0  0  0  0  0  0  0
   36.7580   28.2870   32.3310 N   0  0  0  0  0  0  0  0  0  0  0  0
   36.2880   29.1310   30.4630 H   0  0  0  0  0  0  0  0  0  0  0  0
   34.5330   30.4980   31.3780 H   0  0  0  0  0  0  0  0  0  0  0  0
   37.2820   27.3610   34.4490 C   0  0  0  0  0  0  0  0  0  0  0  0
   37.9190   27.5530   35.6450 C   0  0  0  0  0  0  0  0  0  0  0  0
   38.6150   26.5700   36.2330 C   0  0  0  0  0  0  0  0  0  0  0  0
   38.6340   25.3390   35.5240 C   0  0  0  0  0  0  0  0  0  0  0  0
   37.6320   25.6870   34.0330 S   0  0  0  0  0  0  0  0  0  0  0  0
   37.8240   28.5430   36.0820 H   0  0  0  0  0  0  0  0  0  0  0  0
   39.1470   26.6220   37.1680 H   0  0  0  0  0  0  0  0  0  0  0  0
   39.2250   24.1000   35.7950 N   0  0  0  0  0  0  0  0  0  0  0  0
   40.4750   23.6330   35.1750 C   0  0  0  0  0  2  0  0  0  0  0  0
   41.4770   23.2590   36.2490 C   0  0  0  0  0  2  0  0  0  0  0  0
   40.8750   22.2760   37.2370 C   0  0  0  0  0  3  0  0  0  0  0  0
   40.6450   21.3350   36.7130 H   0  0  0  0  0  0  0  0  0  0  0  0
   39.6380   22.9200   37.8390 C   0  0  0  0  0  2  0  0  0  0  0  0
   38.6450   23.1460   36.7220 C   0  0  0  0  0  2  0  0  0  0  0  0
   33.6320   30.6120   33.8400 C   0  0  1  0  0  0  0  0  0  0  0  0
   32.9340   29.7370   34.1630 H   0  0  0  0  0  0  0  0  0  0  0  0
   33.8120   31.4640   35.0800 C   0  0  2  0  0  0  0  0  0  0  0  0
   32.9390   30.8460   36.1690 C   0  0  0  0  0  0  0  0  0  0  0  0
   32.6990   32.2080   35.6150 C   0  0  1  0  0  0  0  0  0  0  0  0
   34.8630   31.6810   35.3520 H   0  0  0  0  0  0  0  0  0  0  0  0
   32.1320   30.1420   35.9830 H   0  0  0  0  0  0  0  0  0  0  0  0
   33.4290   30.7420   37.1520 H   0  0  0  0  0  0  0  0  0  0  0  0
   31.8990   32.4240   34.8760 H   0  0  0  0  0  0  0  0  0  0  0  0
   32.7930   33.2780   36.6180 C   0  0  0  0  0  0  0  0  0  0  0  0
   33.9890   33.4400   37.2690 C   0  0  0  0  0  0  0  0  0  0  0  0
   34.0600   34.4640   38.1810 C   0  0  0  0  0  0  0  0  0  0  0  0
   33.0130   35.3060   38.4590 C   0  0  0  0  0  0  0  0  0  0  0  0
   31.8150   35.1120   37.7800 C   0  0  0  0  0  0  0  0  0  0  0  0
   31.7290   34.1130   36.8830 N   0  0  0  0  0  0  0  0  0  0  0  0
   34.8680   32.8470   37.1330 H   0  0  0  0  0  0  0  0  0  0  0  0
   34.9790   34.6650   38.7460 H   0  0  0  0  0  0  0  0  0  0  0  0
   33.0030   36.1140   39.1510 H   0  0  0  0  0  0  0  0  0  0  0  0
   30.8850   35.6590   37.8540 H   0  0  0  0  0  0  0  0  0  0  0  0
   32.8010   31.1100   32.9730 O   0  0  0  0  0  0  0  0  0  0  0  0
   33.1990   31.6340   32.2290 H   0  0  0  0  0  0  0  0  0  0  0  0
  1  2  2  0  0  0  0
  1  6  1  0  0  0  0
  2  3  1  0  0  0  0
  3 23  1  0  0  0  0
  3  4  2  0  0  0  0
  5  4  1  0  0  0  0
  5  9  1  0  0  0  0
  6  5  2  0  0  0  0
  7  1  1  0  0  0  0
  8  2  1  0  0  0  0
  9 10  2  0  0  0  0
 10 14  1  0  0  0  0
 10 11  1  0  0  0  0
 11 15  1  0  0  0  0
 12 16  1  0  0  0  0
 12 11  2  0  0  0  0
 13  9  1  0  0  0  0
 13 12  1  0  0  0  0
 16 22  1  0  0  0  0
 17 16  1  0  0  0  0
 17 18  1  0  0  0  0
 18 19  1  0  0  0  0
 19 21  1  0  0  0  0
 20 19  1  0  0  0  0
 22 21  1  0  0  0  0
 23 24  1  1  0  0  0
 23 25  1  0  0  0  0
 25 28  1  1  0  0  0
 25 27  1  0  0  0  0
 25 26  1  0  0  0  0
 26 30  1  0  0  0  0
 27 31  1  6  0  0  0
 27 26  1  0  0  0  0
 27 32  1  0  0  0  0
 29 26  1  0  0  0  0
 32 37  2  0  0  0  0
 32 33  1  0  0  0  0
 33 34  2  0  0  0  0
 34 35  1  0  0  0  0
 34 39  1  0  0  0  0
 35 40  1  0  0  0  0
 36 41  1  0  0  0  0
 36 35  2  0  0  0  0
 37 36  1  0  0  0  0
 38 33  1  0  0  0  0
 42 23  1  0  0  0  0
 43 42  1  0  0  0  0
M  END
>  <minimizedAffinity>
-6.1230135

$$$$

 OpenBabel03272501413D

 43 47  0  0  1  0  0  0  0  0999 V2000
   36.8240   28.7010   30.2720 C   0  0  0  0  0  0  0  0  0  0  0  0
   37.6470   27.7880   30.8830 C   0  0  0  0  0  0  0  0  0  0  0  0
   37.5430   27.4720   32.2460 C   0  0  0  0  0  0  0  0  0  0  0  0
   36.6120   28.0860   32.9250 N   0  0  0  0  0  0  0  0  0  0  0  0
   35.7940   28.9950   32.3040 C   0  0  0  0  0  0  0  0  0  0  0  0
   35.8970   29.2950   31.0140 N   0  0  0  0  0  0  0  0  0  0  0  0
   36.9250   28.9280   29.2180 H   0  0  0  0  0  0  0  0  0  0  0  0
   38.3960   27.3210   30.2380 H   0  0  0  0  0  0  0  0  0  0  0  0
   34.7400   29.6810   33.0470 C   0  0  0  0  0  0  0  0  0  0  0  0
   33.3980   29.8080   32.8130 C   0  0  0  0  0  0  0  0  0  0  0  0
   32.6030   30.4900   33.6490 C   0  0  0  0  0  0  0  0  0  0  0  0
   33.2590   31.0580   34.7740 C   0  0  0  0  0  0  0  0  0  0  0  0
   35.0060   30.5620   34.5470 S   0  0  0  0  0  0  0  0  0  0  0  0
   33.0220   29.3250   31.9150 H   0  0  0  0  0  0  0  0  0  0  0  0
   31.5420   30.6460   33.5540 H   0  0  0  0  0  0  0  0  0  0  0  0
   32.7990   31.8170   35.8550 N   0  0  0  0  0  0  0  0  0  0  0  0
   33.5000   31.9220   37.1440 C   0  0  0  0  0  2  0  0  0  0  0  0
   33.7580   33.3780   37.4770 C   0  0  0  0  0  2  0  0  0  0  0  0
   32.4760   34.1870   37.4060 C   0  0  0  0  0  3  0  0  0  0  0  0
   31.7810   33.8300   38.1830 H   0  0  0  0  0  0  0  0  0  0  0  0
   31.9060   34.0360   36.0060 C   0  0  0  0  0  2  0  0  0  0  0  0
   31.5630   32.5780   35.8040 C   0  0  0  0  0  2  0  0  0  0  0  0
   38.5470   26.5700   32.7480 C   0  0  1  0  0  0  0  0  0  0  0  0
   39.4470   27.3070   32.7230 H   0  0  0  0  0  0  0  0  0  0  0  0
   38.4050   26.1520   34.1980 C   0  0  2  0  0  0  0  0  0  0  0  0
   39.6390   26.6770   34.9280 C   0  0  0  0  0  0  0  0  0  0  0  0
   39.3440   25.2240   34.7780 C   0  0  1  0  0  0  0  0  0  0  0  0
   37.4240   26.3770   34.6580 H   0  0  0  0  0  0  0  0  0  0  0  0
   40.5540   26.9980   34.4370 H   0  0  0  0  0  0  0  0  0  0  0  0
   39.4300   27.1730   35.8920 H   0  0  0  0  0  0  0  0  0  0  0  0
   39.8630   24.5790   34.0380 H   0  0  0  0  0  0  0  0  0  0  0  0
   39.1680   24.5220   36.0580 C   0  0  0  0  0  0  0  0  0  0  0  0
   38.1310   24.9160   36.8650 C   0  0  0  0  0  0  0  0  0  0  0  0
   37.9710   24.2270   38.0420 C   0  0  0  0  0  0  0  0  0  0  0  0
   38.7820   23.1910   38.4300 C   0  0  0  0  0  0  0  0  0  0  0  0
   39.8220   22.8190   37.5870 C   0  0  0  0  0  0  0  0  0  0  0  0
   39.9930   23.4840   36.4300 N   0  0  0  0  0  0  0  0  0  0  0  0
   37.4390   25.7070   36.6640 H   0  0  0  0  0  0  0  0  0  0  0  0
   37.1670   24.4760   38.7450 H   0  0  0  0  0  0  0  0  0  0  0  0
   38.7100   22.6200   39.3240 H   0  0  0  0  0  0  0  0  0  0  0  0
   40.5620   22.0400   37.7090 H   0  0  0  0  0  0  0  0  0  0  0  0
   39.1090   25.6740   31.9930 O   0  0  0  0  0  0  0  0  0  0  0  0
   38.4990   25.0780   31.4820 H   0  0  0  0  0  0  0  0  0  0  0  0
  1  2  2  0  0  0  0
  1  6  1  0  0  0  0
  2  3  1  0  0  0  0
  3 23  1  0  0  0  0
  3  4  2  0  0  0  0
  5  4  1  0  0  0  0
  5  9  1  0  0  0  0
  6  5  2  0  0  0  0
  7  1  1  0  0  0  0
  8  2  1  0  0  0  0
  9 13  1  0  0  0  0
 10  9  2  0  0  0  0
 10 11  1  0  0  0  0
 11 12  2  0  0  0  0
 12 16  1  0  0  0  0
 13 12  1  0  0  0  0
 14 10  1  0  0  0  0
 15 11  1  0  0  0  0
 16 17  1  0  0  0  0
 17 18  1  0  0  0  0
 19 18  1  0  0  0  0
 19 20  1  0  0  0  0
 21 19  1  0  0  0  0
 22 16  1  0  0  0  0
 22 21  1  0  0  0  0
 23 24  1  1  0  0  0
 23 25  1  0  0  0  0
 25 28  1  1  0  0  0
 25 27  1  0  0  0  0
 25 26  1  0  0  0  0
 26 30  1  0  0  0  0
 27 31  1  6  0  0  0
 27 26  1  0  0  0  0
 27 32  1  0  0  0  0
 29 26  1  0  0  0  0
 32 37  2  0  0  0  0
 32 33  1  0  0  0  0
 33 34  2  0  0  0  0
 34 35  1  0  0  0  0
 34 39  1  0  0  0  0
 35 40  1  0  0  0  0
 36 41  1  0  0  0  0
 36 35  2  0  0  0  0
 37 36  1  0  0  0  0
 38 33  1  0  0  0  0
 42 23  1  0  0  0  0
 43 42  1  0  0  0  0
M  END
>  <minimizedAffinity>
-5.97085953

$$$$

 OpenBabel03272501413D

 43 47  0  0  1  0  0  0  0  0999 V2000
   36.6920   29.4690   30.0910 C   0  0  0  0  0  0  0  0  0  0  0  0
   37.0980   28.1560   30.1000 C   0  0  0  0  0  0  0  0  0  0  0  0
   36.7650   27.2730   31.1380 C   0  0  0  0  0  0  0  0  0  0  0  0
   36.0380   27.7500   32.1110 N   0  0  0  0  0  0  0  0  0  0  0  0
   35.6380   29.0610   32.0910 C   0  0  0  0  0  0  0  0  0  0  0  0
   35.9560   29.8980   31.1090 N   0  0  0  0  0  0  0  0  0  0  0  0
   36.9630   30.1310   29.2780 H   0  0  0  0  0  0  0  0  0  0  0  0
   37.7010   27.8430   29.2450 H   0  0  0  0  0  0  0  0  0  0  0  0
   34.8140   29.6080   33.1660 C   0  0  0  0  0  0  0  0  0  0  0  0
   33.5130   29.3760   33.5230 C   0  0  0  0  0  0  0  0  0  0  0  0
   32.9540   29.9960   34.5720 C   0  0  0  0  0  0  0  0  0  0  0  0
   33.8080   30.8940   35.2650 C   0  0  0  0  0  0  0  0  0  0  0  0
   35.3860   30.7840   34.3440 S   0  0  0  0  0  0  0  0  0  0  0  0
   32.9700   28.6640   32.9080 H   0  0  0  0  0  0  0  0  0  0  0  0
   31.9450   29.8810   34.9300 H   0  0  0  0  0  0  0  0  0  0  0  0
   33.6150   31.7090   36.3860 N   0  0  0  0  0  0  0  0  0  0  0  0
   34.7040   32.3830   37.1090 C   0  0  0  0  0  2  0  0  0  0  0  0
   34.4340   33.8730   37.1810 C   0  0  0  0  0  2  0  0  0  0  0  0
   33.0540   34.1490   37.7490 C   0  0  0  0  0  3  0  0  0  0  0  0
   33.0170   33.7970   38.7920 H   0  0  0  0  0  0  0  0  0  0  0  0
   32.0370   33.4480   36.8650 C   0  0  0  0  0  2  0  0  0  0  0  0
   32.3010   31.9620   36.9490 C   0  0  0  0  0  2  0  0  0  0  0  0
   37.3530   25.9610   31.0410 C   0  0  1  0  0  0  0  0  0  0  0  0
   38.3170   26.1750   31.6570 H   0  0  0  0  0  0  0  0  0  0  0  0
   36.6360   24.8520   31.7840 C   0  0  2  0  0  0  0  0  0  0  0  0
   37.5660   24.4050   32.9100 C   0  0  0  0  0  0  0  0  0  0  0  0
   37.1750   23.5140   31.7810 C   0  0  1  0  0  0  0  0  0  0  0  0
   35.5890   25.0740   32.0650 H   0  0  0  0  0  0  0  0  0  0  0  0
   38.6290   24.6280   32.9530 H   0  0  0  0  0  0  0  0  0  0  0  0
   37.0770   24.2790   33.8910 H   0  0  0  0  0  0  0  0  0  0  0  0
   37.8500   23.2960   30.9270 H   0  0  0  0  0  0  0  0  0  0  0  0
   36.4560   22.3050   32.2060 C   0  0  0  0  0  0  0  0  0  0  0  0
   35.6160   21.7090   31.2980 C   0  0  0  0  0  0  0  0  0  0  0  0
   34.9770   20.5660   31.7100 C   0  0  0  0  0  0  0  0  0  0  0  0
   35.1400   20.0120   32.9540 C   0  0  0  0  0  0  0  0  0  0  0  0
   35.9990   20.6420   33.8470 C   0  0  0  0  0  0  0  0  0  0  0  0
   36.6330   21.7640   33.4600 N   0  0  0  0  0  0  0  0  0  0  0  0
   35.4140   22.0520   30.3050 H   0  0  0  0  0  0  0  0  0  0  0  0
   34.2890   20.0260   31.0470 H   0  0  0  0  0  0  0  0  0  0  0  0
   34.6760   19.1320   33.3310 H   0  0  0  0  0  0  0  0  0  0  0  0
   36.2590   20.3690   34.8610 H   0  0  0  0  0  0  0  0  0  0  0  0
   37.9810   25.5630   29.9750 O   0  0  0  0  0  0  0  0  0  0  0  0
   37.4990   25.6630   29.1120 H   0  0  0  0  0  0  0  0  0  0  0  0
  1  2  2  0  0  0  0
  1  6  1  0  0  0  0
  2  3  1  0  0  0  0
  3  4  2  0  0  0  0
  5  4  1  0  0  0  0
  5  9  1  0  0  0  0
  6  5  2  0  0  0  0
  7  1  1  0  0  0  0
  8  2  1  0  0  0  0
  9 10  2  0  0  0  0
  9 13  1  0  0  0  0
 10 11  1  0  0  0  0
 11 15  1  0  0  0  0
 11 12  2  0  0  0  0
 12 16  1  0  0  0  0
 13 12  1  0  0  0  0
 14 10  1  0  0  0  0
 16 22  1  0  0  0  0
 16 17  1  0  0  0  0
 17 18  1  0  0  0  0
 18 19  1  0  0  0  0
 19 20  1  0  0  0  0
 21 22  1  0  0  0  0
 21 19  1  0  0  0  0
 23  3  1  0  0  0  0
 23 24  1  1  0  0  0
 23 25  1  0  0  0  0
 25 28  1  1  0  0  0
 25 26  1  0  0  0  0
 26 29  1  0  0  0  0
 26 30  1  0  0  0  0
 27 31  1  6  0  0  0
 27 25  1  0  0  0  0
 27 32  1  0  0  0  0
 27 26  1  0  0  0  0
 32 37  1  0  0  0  0
 33 34  1  0  0  0  0
 33 32  2  0  0  0  0
 34 35  2  0  0  0  0
 35 40  1  0  0  0  0
 35 36  1  0  0  0  0
 36 41  1  0  0  0  0
 37 36  2  0  0  0  0
 38 33  1  0  0  0  0
 39 34  1  0  0  0  0
 42 23  1  0  0  0  0
 43 42  1  0  0  0  0
M  END
>  <minimizedAffinity>
-5.96574688

$$$$

 OpenBabel03272501413D

 43 47  0  0  1  0  0  0  0  0999 V2000
   37.5040   26.8270   34.6650 C   0  0  0  0  0  0  0  0  0  0  0  0
   37.2800   26.0180   33.5780 C   0  0  0  0  0  0  0  0  0  0  0  0
   36.5150   26.4310   32.4770 C   0  0  0  0  0  0  0  0  0  0  0  0
   36.0180   27.6380   32.5200 N   0  0  0  0  0  0  0  0  0  0  0  0
   36.2500   28.4370   33.6110 C   0  0  0  0  0  0  0  0  0  0  0  0
   36.9710   28.0430   34.6540 N   0  0  0  0  0  0  0  0  0  0  0  0
   38.0980   26.4850   35.5030 H   0  0  0  0  0  0  0  0  0  0  0  0
   37.7350   25.0260   33.6260 H   0  0  0  0  0  0  0  0  0  0  0  0
   35.7110   29.7930   33.6700 C   0  0  0  0  0  0  0  0  0  0  0  0
   35.1940   30.6100   32.7020 C   0  0  0  0  0  0  0  0  0  0  0  0
   34.7410   31.8380   32.9890 C   0  0  0  0  0  0  0  0  0  0  0  0
   34.8420   32.2110   34.3570 C   0  0  0  0  0  0  0  0  0  0  0  0
   35.5940   30.7430   35.1480 S   0  0  0  0  0  0  0  0  0  0  0  0
   35.1740   30.2020   31.6950 H   0  0  0  0  0  0  0  0  0  0  0  0
   34.3190   32.5510   32.3020 H   0  0  0  0  0  0  0  0  0  0  0  0
   34.4840   33.3720   35.0500 N   0  0  0  0  0  0  0  0  0  0  0  0
   33.5180   33.4040   36.1580 C   0  0  0  0  0  2  0  0  0  0  0  0
   34.1560   34.0280   37.3840 C   0  0  0  0  0  2  0  0  0  0  0  0
   34.7590   35.3810   37.0540 C   0  0  0  0  0  3  0  0  0  0  0  0
   33.9520   36.0730   36.7620 H   0  0  0  0  0  0  0  0  0  0  0  0
   35.7780   35.1800   35.9460 C   0  0  0  0  0  2  0  0  0  0  0  0
   35.0400   34.6740   34.7270 C   0  0  0  0  0  2  0  0  0  0  0  0
   36.2960   25.4260   31.4680 C   0  0  1  0  0  0  0  0  0  0  0  0
   37.1960   25.6950   30.7810 H   0  0  0  0  0  0  0  0  0  0  0  0
   36.5250   23.9900   31.8940 C   0  0  2  0  0  0  0  0  0  0  0  0
   37.3780   23.3410   30.8070 C   0  0  0  0  0  0  0  0  0  0  0  0
   35.9840   22.9080   31.1090 C   0  0  1  0  0  0  0  0  0  0  0  0
   36.8690   23.8590   32.9380 H   0  0  0  0  0  0  0  0  0  0  0  0
   37.5110   23.7450   29.8070 H   0  0  0  0  0  0  0  0  0  0  0  0
   38.2230   22.7370   31.1800 H   0  0  0  0  0  0  0  0  0  0  0  0
   35.1170   23.1930   30.4770 H   0  0  0  0  0  0  0  0  0  0  0  0
   35.8830   21.5080   31.5450 C   0  0  0  0  0  0  0  0  0  0  0  0
   35.4610   21.2670   32.8280 C   0  0  0  0  0  0  0  0  0  0  0  0
   35.3490   19.9510   33.2020 C   0  0  0  0  0  0  0  0  0  0  0  0
   35.6310   18.8990   32.3680 C   0  0  0  0  0  0  0  0  0  0  0  0
   36.0550   19.1800   31.0740 C   0  0  0  0  0  0  0  0  0  0  0  0
   36.1710   20.4650   30.6920 N   0  0  0  0  0  0  0  0  0  0  0  0
   35.2150   22.0060   33.5610 H   0  0  0  0  0  0  0  0  0  0  0  0
   35.0180   19.6690   34.2100 H   0  0  0  0  0  0  0  0  0  0  0  0
   35.5630   17.8620   32.5960 H   0  0  0  0  0  0  0  0  0  0  0  0
   36.3230   18.5030   30.2750 H   0  0  0  0  0  0  0  0  0  0  0  0
   35.3960   25.5650   30.5400 O   0  0  0  0  0  0  0  0  0  0  0  0
   34.4770   25.7900   30.8440 H   0  0  0  0  0  0  0  0  0  0  0  0
  1  7  1  0  0  0  0
  2  8  1  0  0  0  0
  2  1  2  0  0  0  0
  3  4  2  0  0  0  0
  3  2  1  0  0  0  0
  4  5  1  0  0  0  0
  5  9  1  0  0  0  0
  5  6  2  0  0  0  0
  6  1  1  0  0  0  0
  9 13  1  0  0  0  0
 10 11  1  0  0  0  0
 10  9  2  0  0  0  0
 11 12  2  0  0  0  0
 12 16  1  0  0  0  0
 12 13  1  0  0  0  0
 14 10  1  0  0  0  0
 15 11  1  0  0  0  0
 16 17  1  0  0  0  0
 17 18  1  0  0  0  0
 19 18  1  0  0  0  0
 20 19  1  0  0  0  0
 21 19  1  0  0  0  0
 22 16  1  0  0  0  0
 22 21  1  0  0  0  0
 23 24  1  6  0  0  0
 23 25  1  0  0  0  0
 23  3  1  0  0  0  0
 25 28  1  1  0  0  0
 26 27  1  0  0  0  0
 26 30  1  0  0  0  0
 26 25  1  0  0  0  0
 27 31  1  6  0  0  0
 27 32  1  0  0  0  0
 27 25  1  0  0  0  0
 29 26  1  0  0  0  0
 32 33  1  0  0  0  0
 33 34  2  0  0  0  0
 33 38  1  0  0  0  0
 34 39  1  0  0  0  0
 35 40  1  0  0  0  0
 35 34  1  0  0  0  0
 36 35  2  0  0  0  0
 37 36  1  0  0  0  0
 37 32  2  0  0  0  0
 41 36  1  0  0  0  0
 42 43  1  0  0  0  0
 42 23  1  0  0  0  0
M  END
>  <minimizedAffinity>
-5.93946886

$$$$

 OpenBabel03272501413D

 43 47  0  0  1  0  0  0  0  0999 V2000
   37.9190   28.0260   29.9800 C   0  0  0  0  0  0  0  0  0  0  0  0
   37.0170   28.9780   30.3870 C   0  0  0  0  0  0  0  0  0  0  0  0
   36.2990   28.8700   31.5880 C   0  0  0  0  0  0  0  0  0  0  0  0
   36.5270   27.8140   32.3210 N   0  0  0  0  0  0  0  0  0  0  0  0
   37.4310   26.8710   31.9050 C   0  0  0  0  0  0  0  0  0  0  0  0
   38.1070   26.9730   30.7660 N   0  0  0  0  0  0  0  0  0  0  0  0
   38.4610   28.1320   29.0480 H   0  0  0  0  0  0  0  0  0  0  0  0
   36.8910   29.8280   29.7130 H   0  0  0  0  0  0  0  0  0  0  0  0
   37.7070   25.6900   32.7190 C   0  0  0  0  0  0  0  0  0  0  0  0
   37.9740   24.3920   32.3770 C   0  0  0  0  0  0  0  0  0  0  0  0
   38.2090   23.4560   33.3080 C   0  0  0  0  0  0  0  0  0  0  0  0
   38.1580   23.9180   34.6500 C   0  0  0  0  0  0  0  0  0  0  0  0
   37.7680   25.6980   34.4780 S   0  0  0  0  0  0  0  0  0  0  0  0
   37.9840   24.1720   31.3130 H   0  0  0  0  0  0  0  0  0  0  0  0
   38.4280   22.4160   33.1400 H   0  0  0  0  0  0  0  0  0  0  0  0
   38.3480   23.2770   35.8790 N   0  0  0  0  0  0  0  0  0  0  0  0
   39.4880   22.3990   36.1810 C   0  0  0  0  0  2  0  0  0  0  0  0
   40.2060   22.8900   37.4220 C   0  0  0  0  0  2  0  0  0  0  0  0
   39.2390   23.0630   38.5790 C   0  0  0  0  0  3  0  0  0  0  0  0
   38.8260   22.0780   38.8520 H   0  0  0  0  0  0  0  0  0  0  0  0
   38.1610   24.0410   38.1430 C   0  0  0  0  0  2  0  0  0  0  0  0
   37.4160   23.4190   36.9830 C   0  0  0  0  0  2  0  0  0  0  0  0
   35.3220   29.9040   31.8160 C   0  0  1  0  0  0  0  0  0  0  0  0
   34.3680   29.2510   31.6830 H   0  0  0  0  0  0  0  0  0  0  0  0
   35.2450   30.4500   33.2280 C   0  0  2  0  0  0  0  0  0  0  0  0
   33.9690   29.8870   33.8470 C   0  0  0  0  0  0  0  0  0  0  0  0
   34.1750   31.3420   33.6010 C   0  0  1  0  0  0  0  0  0  0  0  0
   36.1720   30.3470   33.8230 H   0  0  0  0  0  0  0  0  0  0  0  0
   33.1510   29.4510   33.2790 H   0  0  0  0  0  0  0  0  0  0  0  0
   34.0870   29.4910   34.8710 H   0  0  0  0  0  0  0  0  0  0  0  0
   33.7100   31.8780   32.7460 H   0  0  0  0  0  0  0  0  0  0  0  0
   34.1330   32.1590   34.8210 C   0  0  0  0  0  0  0  0  0  0  0  0
   34.7230   31.6510   35.9510 C   0  0  0  0  0  0  0  0  0  0  0  0
   34.6940   32.4450   37.0700 C   0  0  0  0  0  0  0  0  0  0  0  0
   34.1170   33.6890   37.1030 C   0  0  0  0  0  0  0  0  0  0  0  0
   33.5290   34.1730   35.9400 C   0  0  0  0  0  0  0  0  0  0  0  0
   33.5480   33.4060   34.8340 N   0  0  0  0  0  0  0  0  0  0  0  0
   35.2000   30.6980   36.0400 H   0  0  0  0  0  0  0  0  0  0  0  0
   35.1430   32.1170   38.0160 H   0  0  0  0  0  0  0  0  0  0  0  0
   34.0630   34.3510   37.9340 H   0  0  0  0  0  0  0  0  0  0  0  0
   33.0290   35.1140   35.7610 H   0  0  0  0  0  0  0  0  0  0  0  0
   35.0030   30.7670   30.8980 O   0  0  0  0  0  0  0  0  0  0  0  0
   35.7540   31.2520   30.4640 H   0  0  0  0  0  0  0  0  0  0  0  0
  1  2  2  0  0  0  0
  1  6  1  0  0  0  0
  2  3  1  0  0  0  0
  3 23  1  0  0  0  0
  3  4  2  0  0  0  0
  5  4  1  0  0  0  0
  5  9  1  0  0  0  0
  6  5  2  0  0  0  0
  7  1  1  0  0  0  0
  8  2  1  0  0  0  0
  9 13  1  0  0  0  0
 10  9  2  0  0  0  0
 10 11  1  0  0  0  0
 11 12  2  0  0  0  0
 12 16  1  0  0  0  0
 13 12  1  0  0  0  0
 14 10  1  0  0  0  0
 15 11  1  0  0  0  0
 16 17  1  0  0  0  0
 16 22  1  0  0  0  0
 17 18  1  0  0  0  0
 18 19  1  0  0  0  0
 19 20  1  0  0  0  0
 21 19  1  0  0  0  0
 22 21  1  0  0  0  0
 23 24  1  6  0  0  0
 23 25  1  0  0  0  0
 25 27  1  0  0  0  0
 25 28  1  1  0  0  0
 25 26  1  0  0  0  0
 26 30  1  0  0  0  0
 27 31  1  6  0  0  0
 27 26  1  0  0  0  0
 27 32  1  0  0  0  0
 29 26  1  0  0  0  0
 32 37  2  0  0  0  0
 32 33  1  0  0  0  0
 33 38  1  0  0  0  0
 33 34  2  0  0  0  0
 34 35  1  0  0  0  0
 34 39  1  0  0  0  0
 35 40  1  0  0  0  0
 36 35  2  0  0  0  0
 37 36  1  0  0  0  0
 41 36  1  0  0  0  0
 42 23  1  0  0  0  0
 43 42  1  0  0  0  0
M  END
>  <minimizedAffinity>
-5.93561029

$$$$

 OpenBabel03272501413D

 43 47  0  0  1  0  0  0  0  0999 V2000
   37.3930   28.9730   29.3690 C   0  0  0  0  0  0  0  0  0  0  0  0
   36.8830   30.0400   30.0660 C   0  0  0  0  0  0  0  0  0  0  0  0
   36.4430   29.9300   31.3940 C   0  0  0  0  0  0  0  0  0  0  0  0
   36.5430   28.7560   31.9560 N   0  0  0  0  0  0  0  0  0  0  0  0
   37.0560   27.6980   31.2500 C   0  0  0  0  0  0  0  0  0  0  0  0
   37.4690   27.8030   29.9920 N   0  0  0  0  0  0  0  0  0  0  0  0
   37.7250   29.0830   28.3430 H   0  0  0  0  0  0  0  0  0  0  0  0
   36.8370   30.9840   29.5190 H   0  0  0  0  0  0  0  0  0  0  0  0
   37.1860   26.3810   31.8670 C   0  0  0  0  0  0  0  0  0  0  0  0
   37.7540   25.9810   33.0460 C   0  0  0  0  0  0  0  0  0  0  0  0
   37.7520   24.6950   33.4240 C   0  0  0  0  0  0  0  0  0  0  0  0
   37.1230   23.8020   32.5150 C   0  0  0  0  0  0  0  0  0  0  0  0
   36.5690   24.8940   31.1550 S   0  0  0  0  0  0  0  0  0  0  0  0
   38.2020   26.7660   33.6500 H   0  0  0  0  0  0  0  0  0  0  0  0
   38.1690   24.2830   34.3270 H   0  0  0  0  0  0  0  0  0  0  0  0
   36.9090   22.4200   32.5410 N   0  0  0  0  0  0  0  0  0  0  0  0
   37.1230   21.5770   33.7280 C   0  0  0  0  0  2  0  0  0  0  0  0
   35.8590   20.8050   34.0490 C   0  0  0  0  0  2  0  0  0  0  0  0
   35.3630   20.0430   32.8340 C   0  0  0  0  0  3  0  0  0  0  0  0
   36.1080   19.2790   32.5590 H   0  0  0  0  0  0  0  0  0  0  0  0
   35.1260   21.0470   31.7190 C   0  0  0  0  0  2  0  0  0  0  0  0
   36.4560   21.6800   31.3780 C   0  0  0  0  0  2  0  0  0  0  0  0
   35.8440   31.1190   31.9450 C   0  0  1  0  0  0  0  0  0  0  0  0
   35.4250   31.5580   30.9510 H   0  0  0  0  0  0  0  0  0  0  0  0
   34.6370   30.9090   32.8350 C   0  0  2  0  0  0  0  0  0  0  0  0
   34.3110   32.2620   33.4610 C   0  0  0  0  0  0  0  0  0  0  0  0
   34.7500   31.0860   34.2620 C   0  0  1  0  0  0  0  0  0  0  0  0
   33.7950   30.3640   32.3660 H   0  0  0  0  0  0  0  0  0  0  0  0
   34.9970   33.1050   33.4940 H   0  0  0  0  0  0  0  0  0  0  0  0
   33.2410   32.5350   33.4440 H   0  0  0  0  0  0  0  0  0  0  0  0
   35.7840   30.9780   34.6530 H   0  0  0  0  0  0  0  0  0  0  0  0
   33.7620   30.6460   35.2570 C   0  0  0  0  0  0  0  0  0  0  0  0
   33.5500   31.4520   36.3460 C   0  0  0  0  0  0  0  0  0  0  0  0
   32.6030   31.0330   37.2470 C   0  0  0  0  0  0  0  0  0  0  0  0
   31.8800   29.8760   37.1050 C   0  0  0  0  0  0  0  0  0  0  0  0
   32.1210   29.0830   35.9880 C   0  0  0  0  0  0  0  0  0  0  0  0
   33.0470   29.4800   35.0960 N   0  0  0  0  0  0  0  0  0  0  0  0
   34.0530   32.3720   36.5590 H   0  0  0  0  0  0  0  0  0  0  0  0
   32.3700   31.6180   38.1460 H   0  0  0  0  0  0  0  0  0  0  0  0
   31.1360   29.4980   37.7630 H   0  0  0  0  0  0  0  0  0  0  0  0
   31.6650   28.1470   35.6970 H   0  0  0  0  0  0  0  0  0  0  0  0
   36.5480   32.1690   32.2480 O   0  0  0  0  0  0  0  0  0  0  0  0
   37.3390   32.0190   32.8310 H   0  0  0  0  0  0  0  0  0  0  0  0
  1  6  2  0  0  0  0
  1  2  1  0  0  0  0
  2  3  2  0  0  0  0
  3 23  1  0  0  0  0
  3  4  1  0  0  0  0
  5  9  1  0  0  0  0
  5  4  2  0  0  0  0
  6  5  1  0  0  0  0
  7  1  1  0  0  0  0
  8  2  1  0  0  0  0
  9 10  2  0  0  0  0
 10 11  1  0  0  0  0
 10 14  1  0  0  0  0
 11 15  1  0  0  0  0
 12 16  1  0  0  0  0
 12 11  2  0  0  0  0
 13  9  1  0  0  0  0
 13 12  1  0  0  0  0
 16 17  1  0  0  0  0
 17 18  1  0  0  0  0
 19 18  1  0  0  0  0
 20 19  1  0  0  0  0
 21 19  1  0  0  0  0
 22 21  1  0  0  0  0
 22 16  1  0  0  0  0
 23 24  1  6  0  0  0
 23 42  1  0  0  0  0
 23 25  1  0  0  0  0
 25 28  1  6  0  0  0
 25 26  1  0  0  0  0
 25 27  1  0  0  0  0
 26 29  1  0  0  0  0
 26 27  1  0  0  0  0
 27 31  1  1  0  0  0
 27 32  1  0  0  0  0
 30 26  1  0  0  0  0
 32 33  1  0  0  0  0
 33 38  1  0  0  0  0
 33 34  2  0  0  0  0
 34 39  1  0  0  0  0
 35 34  1  0  0  0  0
 35 40  1  0  0  0  0
 36 35  2  0  0  0  0
 37 32  2  0  0  0  0
 37 36  1  0  0  0  0
 41 36  1  0  0  0  0
 42 43  1  0  0  0  0
M  END
>  <minimizedAffinity>
-5.87164307

$$$$
