
 OpenBabel03272509393D

 28 30  0  0  1  0  0  0  0  0999 V2000
   37.8030   23.7360   33.2390 C   0  0  0  0  0  0  0  0  0  0  0  0
   37.1470   22.6180   32.7210 C   0  0  0  0  0  0  0  0  0  0  0  0
   36.0770   22.7340   31.8190 C   0  0  0  0  0  0  0  0  0  0  0  0
   35.6580   24.0250   31.4300 C   0  0  0  0  0  0  0  0  0  0  0  0
   36.3260   25.1310   31.9590 C   0  0  0  0  0  0  0  0  0  0  0  0
   37.3750   24.9700   32.8440 C   0  0  0  0  0  0  0  0  0  0  0  0
   37.4130   21.6040   32.9740 H   0  0  0  0  0  0  0  0  0  0  0  0
   35.5830   21.8510   31.4300 H   0  0  0  0  0  0  0  0  0  0  0  0
   34.8320   24.1270   30.7330 H   0  0  0  0  0  0  0  0  0  0  0  0
   35.9350   26.0740   31.6030 H   0  0  0  0  0  0  0  0  0  0  0  0
   37.9010   26.2080   33.2790 N   0  0  0  0  0  0  0  0  0  0  0  0
   39.1310   26.9150   32.9690 C   0  0  0  0  0  2  0  0  0  0  0  0
   39.9790   26.8150   34.2110 C   0  0  0  0  0  2  0  0  0  0  0  0
   39.3040   27.1390   35.4800 C   0  0  0  0  0  3  0  0  0  0  0  0
   39.7950   28.0620   35.9130 H   0  0  0  0  0  0  0  0  0  0  0  0
   37.8360   27.2210   35.5180 C   0  0  0  0  0  2  0  0  0  0  0  0
   37.1050   26.9860   34.2400 C   0  0  0  0  0  2  0  0  0  0  0  0
   38.9020   23.5230   34.1580 C   0  0  1  0  0  3  0  0  0  0  0  0
   40.0440   23.3760   33.5800 O   0  0  0  0  0  1  0  0  0  0  0  0
   39.9060   22.8520   37.5860 C   0  0  0  0  0  0  0  0  0  0  0  0
   38.8290   23.2890   38.3430 C   0  0  0  0  0  0  0  0  0  0  0  0
   37.7420   23.8170   37.6800 C   0  0  0  0  0  0  0  0  0  0  0  0
   37.7560   23.8930   36.3240 N   0  0  0  0  0  0  0  0  0  0  0  0
   38.7960   23.4700   35.6130 C   0  0  0  0  0  0  0  0  0  0  0  0
   39.8520   22.9570   36.2570 N   0  0  0  0  0  0  0  0  0  0  0  0
   40.7250   22.4500   38.1490 H   0  0  0  0  0  0  0  0  0  0  0  0
   38.7230   23.2690   39.4310 H   0  0  0  0  0  0  0  0  0  0  0  0
   36.8440   24.1880   38.1890 H   0  0  0  0  0  0  0  0  0  0  0  0
  1 18  1  0  0  0  0
  2  7  1  0  0  0  0
  2  1  2  0  0  0  0
  3  2  1  0  0  0  0
  4  3  2  0  0  0  0
  4  5  1  0  0  0  0
  5  6  2  0  0  0  0
  6  1  1  0  0  0  0
  6 11  1  0  0  0  0
  8  3  1  0  0  0  0
  9  4  1  0  0  0  0
 10  5  1  0  0  0  0
 11 17  1  0  0  0  0
 12 11  1  0  0  0  0
 12 13  1  0  0  0  0
 13 14  1  0  0  0  0
 14 16  1  0  0  0  0
 14 15  1  0  0  0  0
 17 16  1  0  0  0  0
 18 19  1  1  0  0  0
 18 24  1  0  0  0  0
 20 26  1  0  0  0  0
 20 21  1  0  0  0  0
 21 27  1  0  0  0  0
 22 28  1  0  0  0  0
 22 21  2  0  0  0  0
 23 22  1  0  0  0  0
 24 25  1  0  0  0  0
 24 23  2  0  0  0  0
 25 20  2  0  0  0  0
M  END
>  <minimizedAffinity>
-5.61179161

$$$$

 OpenBabel03272509393D

 28 30  0  0  1  0  0  0  0  0999 V2000
   38.6570   24.5300   33.7890 C   0  0  0  0  0  0  0  0  0  0  0  0
   38.7600   25.6860   33.0110 C   0  0  0  0  0  0  0  0  0  0  0  0
   38.8390   26.9650   33.5860 C   0  0  0  0  0  0  0  0  0  0  0  0
   38.8150   27.0760   34.9940 C   0  0  0  0  0  0  0  0  0  0  0  0
   38.7120   25.9090   35.7540 C   0  0  0  0  0  0  0  0  0  0  0  0
   38.6350   24.6700   35.1460 C   0  0  0  0  0  0  0  0  0  0  0  0
   38.7840   25.6760   31.9340 H   0  0  0  0  0  0  0  0  0  0  0  0
   38.9190   27.8470   32.9620 H   0  0  0  0  0  0  0  0  0  0  0  0
   38.8760   28.0590   35.4490 H   0  0  0  0  0  0  0  0  0  0  0  0
   38.7000   26.0950   36.8190 H   0  0  0  0  0  0  0  0  0  0  0  0
   38.5140   23.6210   36.0860 N   0  0  0  0  0  0  0  0  0  0  0  0
   37.4040   23.1520   36.8940 C   0  0  0  0  0  2  0  0  0  0  0  0
   37.7340   23.5580   38.3080 C   0  0  0  0  0  2  0  0  0  0  0  0
   39.0980   23.2440   38.7680 C   0  0  0  0  0  3  0  0  0  0  0  0
   39.0200   22.4940   39.6120 H   0  0  0  0  0  0  0  0  0  0  0  0
   40.1240   22.8690   37.7840 C   0  0  0  0  0  2  0  0  0  0  0  0
   39.7090   22.8070   36.3530 C   0  0  0  0  0  2  0  0  0  0  0  0
   38.5870   23.2520   33.1120 C   0  0  1  0  0  3  0  0  0  0  0  0
   39.7380   22.7570   32.8110 O   0  0  0  0  0  1  0  0  0  0  0  0
   35.8660   20.8690   33.4790 C   0  0  0  0  0  0  0  0  0  0  0  0
   35.0840   21.0780   32.3540 C   0  0  0  0  0  0  0  0  0  0  0  0
   35.4860   22.0400   31.4530 C   0  0  0  0  0  0  0  0  0  0  0  0
   36.6220   22.7460   31.6890 N   0  0  0  0  0  0  0  0  0  0  0  0
   37.3610   22.5350   32.7730 C   0  0  0  0  0  0  0  0  0  0  0  0
   36.9710   21.5990   33.6490 N   0  0  0  0  0  0  0  0  0  0  0  0
   35.5100   20.1100   34.1470 H   0  0  0  0  0  0  0  0  0  0  0  0
   34.1590   20.5640   32.0760 H   0  0  0  0  0  0  0  0  0  0  0  0
   34.9350   22.2790   30.5350 H   0  0  0  0  0  0  0  0  0  0  0  0
  1  6  1  0  0  0  0
  2  3  1  0  0  0  0
  2  1  2  0  0  0  0
  3  4  2  0  0  0  0
  4  9  1  0  0  0  0
  4  5  1  0  0  0  0
  5 10  1  0  0  0  0
  6  5  2  0  0  0  0
  6 11  1  0  0  0  0
  7  2  1  0  0  0  0
  8  3  1  0  0  0  0
 11 17  1  0  0  0  0
 11 12  1  0  0  0  0
 12 13  1  0  0  0  0
 13 14  1  0  0  0  0
 14 15  1  0  0  0  0
 16 14  1  0  0  0  0
 17 16  1  0  0  0  0
 18 19  1  1  0  0  0
 18  1  1  0  0  0  0
 20 25  1  0  0  0  0
 20 26  1  0  0  0  0
 21 20  2  0  0  0  0
 22 23  2  0  0  0  0
 22 21  1  0  0  0  0
 23 24  1  0  0  0  0
 24 18  1  0  0  0  0
 24 25  2  0  0  0  0
 27 21  1  0  0  0  0
 28 22  1  0  0  0  0
M  END
>  <minimizedAffinity>
-5.27546597

$$$$

 OpenBabel03272509393D

 28 30  0  0  1  0  0  0  0  0999 V2000
   37.7690   23.8530   33.2150 C   0  0  0  0  0  0  0  0  0  0  0  0
   37.2740   22.5960   32.8630 C   0  0  0  0  0  0  0  0  0  0  0  0
   36.2090   22.4420   31.9610 C   0  0  0  0  0  0  0  0  0  0  0  0
   35.6280   23.5980   31.3970 C   0  0  0  0  0  0  0  0  0  0  0  0
   36.1370   24.8460   31.7610 C   0  0  0  0  0  0  0  0  0  0  0  0
   37.1870   24.9520   32.6540 C   0  0  0  0  0  0  0  0  0  0  0  0
   37.6680   21.6720   33.2550 H   0  0  0  0  0  0  0  0  0  0  0  0
   35.8410   21.4550   31.7030 H   0  0  0  0  0  0  0  0  0  0  0  0
   34.8040   23.4910   30.6980 H   0  0  0  0  0  0  0  0  0  0  0  0
   35.6290   25.6700   31.2790 H   0  0  0  0  0  0  0  0  0  0  0  0
   37.5390   26.2970   32.9070 N   0  0  0  0  0  0  0  0  0  0  0  0
   37.1940   27.2180   33.9750 C   0  0  0  0  0  2  0  0  0  0  0  0
   36.2540   28.2210   33.3560 C   0  0  0  0  0  2  0  0  0  0  0  0
   36.6810   28.7950   32.0680 C   0  0  0  0  0  3  0  0  0  0  0  0
   36.8500   29.9040   32.2170 H   0  0  0  0  0  0  0  0  0  0  0  0
   37.7790   28.1610   31.3220 C   0  0  0  0  0  2  0  0  0  0  0  0
   38.4200   26.9640   31.9360 C   0  0  0  0  0  2  0  0  0  0  0  0
   38.8750   23.9190   34.1480 C   0  0  2  0  0  3  0  0  0  0  0  0
   40.0170   24.1280   33.5890 O   0  0  0  0  0  1  0  0  0  0  0  0
   39.7800   22.8180   37.4920 C   0  0  0  0  0  0  0  0  0  0  0  0
   38.8030   23.3740   38.3040 C   0  0  0  0  0  0  0  0  0  0  0  0
   37.8190   24.1330   37.7090 C   0  0  0  0  0  0  0  0  0  0  0  0
   37.8320   24.3110   36.3620 N   0  0  0  0  0  0  0  0  0  0  0  0
   38.7750   23.7710   35.5970 C   0  0  0  0  0  0  0  0  0  0  0  0
   39.7330   23.0340   36.1760 N   0  0  0  0  0  0  0  0  0  0  0  0
   40.5210   22.2380   38.0040 H   0  0  0  0  0  0  0  0  0  0  0  0
   38.7060   23.2880   39.3900 H   0  0  0  0  0  0  0  0  0  0  0  0
   37.0040   24.6130   38.2640 H   0  0  0  0  0  0  0  0  0  0  0  0
  1 18  1  0  0  0  0
  2  1  1  0  0  0  0
  2  7  1  0  0  0  0
  3  2  2  0  0  0  0
  4  5  2  0  0  0  0
  4  3  1  0  0  0  0
  5  6  1  0  0  0  0
  6 11  1  0  0  0  0
  6  1  2  0  0  0  0
  8  3  1  0  0  0  0
  9  4  1  0  0  0  0
 10  5  1  0  0  0  0
 11 12  1  0  0  0  0
 13 12  1  0  0  0  0
 14 15  1  0  0  0  0
 14 13  1  0  0  0  0
 16 17  1  0  0  0  0
 16 14  1  0  0  0  0
 17 11  1  0  0  0  0
 18 19  1  6  0  0  0
 18 24  1  0  0  0  0
 20 26  1  0  0  0  0
 20 21  1  0  0  0  0
 21 27  1  0  0  0  0
 22 28  1  0  0  0  0
 22 21  2  0  0  0  0
 23 22  1  0  0  0  0
 24 25  1  0  0  0  0
 24 23  2  0  0  0  0
 25 20  2  0  0  0  0
M  END
>  <minimizedAffinity>
-5.26397705

$$$$

 OpenBabel03272509393D

 28 30  0  0  1  0  0  0  0  0999 V2000
   39.9000   23.3140   36.3180 C   0  0  0  0  0  0  0  0  0  0  0  0
   40.6800   22.2920   36.8620 C   0  0  0  0  0  0  0  0  0  0  0  0
   42.0630   22.2100   36.6330 C   0  0  0  0  0  0  0  0  0  0  0  0
   42.6750   23.1950   35.8280 C   0  0  0  0  0  0  0  0  0  0  0  0
   41.8780   24.2090   35.2930 C   0  0  0  0  0  0  0  0  0  0  0  0
   40.5200   24.2510   35.5440 C   0  0  0  0  0  0  0  0  0  0  0  0
   40.2810   21.5070   37.4840 H   0  0  0  0  0  0  0  0  0  0  0  0
   42.6490   21.4070   37.0670 H   0  0  0  0  0  0  0  0  0  0  0  0
   43.7440   23.1420   35.6450 H   0  0  0  0  0  0  0  0  0  0  0  0
   42.4340   24.9150   34.6920 H   0  0  0  0  0  0  0  0  0  0  0  0
   39.8910   25.3390   34.8960 N   0  0  0  0  0  0  0  0  0  0  0  0
   39.7970   26.7510   35.2180 C   0  0  0  0  0  2  0  0  0  0  0  0
   38.3700   26.9750   35.6480 C   0  0  0  0  0  2  0  0  0  0  0  0
   37.3350   26.4020   34.7680 C   0  0  0  0  0  3  0  0  0  0  0  0
   36.7330   27.2560   34.3330 H   0  0  0  0  0  0  0  0  0  0  0  0
   37.7180   25.4150   33.7480 C   0  0  0  0  0  2  0  0  0  0  0  0
   39.1630   25.0600   33.6490 C   0  0  0  0  0  2  0  0  0  0  0  0
   38.4820   23.3250   36.6110 C   0  0  1  0  0  3  0  0  0  0  0  0
   38.1300   24.2360   37.4520 O   0  0  0  0  0  1  0  0  0  0  0  0
   36.8350   21.2800   34.0980 C   0  0  0  0  0  0  0  0  0  0  0  0
   35.7590   20.7220   34.7720 C   0  0  0  0  0  0  0  0  0  0  0  0
   35.5860   21.0460   36.1000 C   0  0  0  0  0  0  0  0  0  0  0  0
   36.4620   21.8930   36.7020 N   0  0  0  0  0  0  0  0  0  0  0  0
   37.4880   22.4190   36.0430 C   0  0  0  0  0  0  0  0  0  0  0  0
   37.6560   22.1030   34.7520 N   0  0  0  0  0  0  0  0  0  0  0  0
   36.9240   20.9950   33.0690 H   0  0  0  0  0  0  0  0  0  0  0  0
   35.0040   20.0360   34.3770 H   0  0  0  0  0  0  0  0  0  0  0  0
   34.7670   20.6580   36.7170 H   0  0  0  0  0  0  0  0  0  0  0  0
  1 18  1  0  0  0  0
  1  2  1  0  0  0  0
  2  7  1  0  0  0  0
  3  2  2  0  0  0  0
  3  8  1  0  0  0  0
  4  3  1  0  0  0  0
  5  6  1  0  0  0  0
  5  4  2  0  0  0  0
  6  1  2  0  0  0  0
  9  4  1  0  0  0  0
 10  5  1  0  0  0  0
 11 12  1  0  0  0  0
 11  6  1  0  0  0  0
 12 13  1  0  0  0  0
 14 13  1  0  0  0  0
 15 14  1  0  0  0  0
 16 14  1  0  0  0  0
 17 16  1  0  0  0  0
 17 11  1  0  0  0  0
 18 19  1  6  0  0  0
 20 25  2  0  0  0  0
 20 21  1  0  0  0  0
 21 22  2  0  0  0  0
 22 23  1  0  0  0  0
 22 28  1  0  0  0  0
 24 18  1  0  0  0  0
 24 23  2  0  0  0  0
 25 24  1  0  0  0  0
 26 20  1  0  0  0  0
 27 21  1  0  0  0  0
M  END
>  <minimizedAffinity>
-5.18501186

$$$$

 OpenBabel03272509393D

 28 30  0  0  1  0  0  0  0  0999 V2000
   39.8030   22.8160   36.3610 C   0  0  0  0  0  0  0  0  0  0  0  0
   40.5800   21.9390   37.1210 C   0  0  0  0  0  0  0  0  0  0  0  0
   41.9830   21.9730   37.0930 C   0  0  0  0  0  0  0  0  0  0  0  0
   42.6200   22.9270   36.2690 C   0  0  0  0  0  0  0  0  0  0  0  0
   41.8270   23.7950   35.5170 C   0  0  0  0  0  0  0  0  0  0  0  0
   40.4470   23.7260   35.5750 C   0  0  0  0  0  0  0  0  0  0  0  0
   40.1620   21.1870   37.7700 H   0  0  0  0  0  0  0  0  0  0  0  0
   42.5650   21.2820   37.6920 H   0  0  0  0  0  0  0  0  0  0  0  0
   43.7050   22.9620   36.2400 H   0  0  0  0  0  0  0  0  0  0  0  0
   42.4020   24.4870   34.9180 H   0  0  0  0  0  0  0  0  0  0  0  0
   39.8290   24.6730   34.7260 N   0  0  0  0  0  0  0  0  0  0  0  0
   39.6740   24.7440   33.2850 C   0  0  0  0  0  2  0  0  0  0  0  0
   40.5930   25.8510   32.8340 C   0  0  0  0  0  2  0  0  0  0  0  0
   40.5090   27.1100   33.5950 C   0  0  0  0  0  3  0  0  0  0  0  0
   40.1330   27.9170   32.8980 H   0  0  0  0  0  0  0  0  0  0  0  0
   39.8150   27.1260   34.8910 C   0  0  0  0  0  2  0  0  0  0  0  0
   39.2060   25.8460   35.3560 C   0  0  0  0  0  2  0  0  0  0  0  0
   38.3620   22.7150   36.4570 C   0  0  1  0  0  3  0  0  0  0  0  0
   37.8610   23.3350   37.4700 O   0  0  0  0  0  1  0  0  0  0  0  0
   35.5530   20.6900   35.3500 C   0  0  0  0  0  0  0  0  0  0  0  0
   35.7250   20.6010   33.9770 C   0  0  0  0  0  0  0  0  0  0  0  0
   36.8120   21.2350   33.4160 C   0  0  0  0  0  0  0  0  0  0  0  0
   37.6740   21.9180   34.2130 N   0  0  0  0  0  0  0  0  0  0  0  0
   37.4960   21.9950   35.5280 C   0  0  0  0  0  0  0  0  0  0  0  0
   36.4390   21.3790   36.0730 N   0  0  0  0  0  0  0  0  0  0  0  0
   34.6930   20.1800   35.7360 H   0  0  0  0  0  0  0  0  0  0  0  0
   35.0910   20.0770   33.2550 H   0  0  0  0  0  0  0  0  0  0  0  0
   37.0340   21.2220   32.3420 H   0  0  0  0  0  0  0  0  0  0  0  0
  1 18  1  0  0  0  0
  1  2  1  0  0  0  0
  2  7  1  0  0  0  0
  3  2  2  0  0  0  0
  3  8  1  0  0  0  0
  4  3  1  0  0  0  0
  5  6  1  0  0  0  0
  5  4  2  0  0  0  0
  6  1  2  0  0  0  0
  9  4  1  0  0  0  0
 10  5  1  0  0  0  0
 11 17  1  0  0  0  0
 11  6  1  0  0  0  0
 12 11  1  0  0  0  0
 13 12  1  0  0  0  0
 13 14  1  0  0  0  0
 14 16  1  0  0  0  0
 15 14  1  0  0  0  0
 16 17  1  0  0  0  0
 18 19  1  6  0  0  0
 20 26  1  0  0  0  0
 20 25  1  0  0  0  0
 21 20  2  0  0  0  0
 22 21  1  0  0  0  0
 22 23  2  0  0  0  0
 23 24  1  0  0  0  0
 24 25  2  0  0  0  0
 24 18  1  0  0  0  0
 27 21  1  0  0  0  0
 28 22  1  0  0  0  0
M  END
>  <minimizedAffinity>
-5.17431927

$$$$

 OpenBabel03272509393D

 28 30  0  0  1  0  0  0  0  0999 V2000
   37.5800   24.1400   32.8240 C   0  0  0  0  0  0  0  0  0  0  0  0
   37.2180   25.4430   32.4770 C   0  0  0  0  0  0  0  0  0  0  0  0
   36.1120   25.7150   31.6570 C   0  0  0  0  0  0  0  0  0  0  0  0
   35.3460   24.6310   31.1730 C   0  0  0  0  0  0  0  0  0  0  0  0
   35.7230   23.3350   31.5310 C   0  0  0  0  0  0  0  0  0  0  0  0
   36.8220   23.1140   32.3410 C   0  0  0  0  0  0  0  0  0  0  0  0
   37.7560   26.3170   32.8090 H   0  0  0  0  0  0  0  0  0  0  0  0
   35.8500   26.7350   31.4010 H   0  0  0  0  0  0  0  0  0  0  0  0
   34.4880   24.8300   30.5380 H   0  0  0  0  0  0  0  0  0  0  0  0
   35.0790   22.5740   31.1130 H   0  0  0  0  0  0  0  0  0  0  0  0
   37.0480   21.7370   32.5680 N   0  0  0  0  0  0  0  0  0  0  0  0
   37.8340   20.7430   31.8610 C   0  0  0  0  0  2  0  0  0  0  0  0
   36.8320   19.8400   31.1870 C   0  0  0  0  0  2  0  0  0  0  0  0
   35.7230   19.3630   32.0320 C   0  0  0  0  0  3  0  0  0  0  0  0
   35.8110   18.2390   32.1260 H   0  0  0  0  0  0  0  0  0  0  0  0
   35.4710   20.0110   33.3280 C   0  0  0  0  0  2  0  0  0  0  0  0
   36.3840   21.1210   33.7260 C   0  0  0  0  0  2  0  0  0  0  0  0
   38.7320   23.9520   33.6810 C   0  0  1  0  0  3  0  0  0  0  0  0
   39.8550   23.9270   33.0470 O   0  0  0  0  0  1  0  0  0  0  0  0
   39.6810   22.7040   36.9600 C   0  0  0  0  0  0  0  0  0  0  0  0
   38.8290   23.3670   37.8300 C   0  0  0  0  0  0  0  0  0  0  0  0
   37.9150   24.2500   37.2970 C   0  0  0  0  0  0  0  0  0  0  0  0
   37.8740   24.4420   35.9530 N   0  0  0  0  0  0  0  0  0  0  0  0
   38.6980   23.8000   35.1320 C   0  0  0  0  0  0  0  0  0  0  0  0
   39.5870   22.9420   35.6500 N   0  0  0  0  0  0  0  0  0  0  0  0
   40.3730   22.0300   37.4250 H   0  0  0  0  0  0  0  0  0  0  0  0
   38.7840   23.2800   38.9200 H   0  0  0  0  0  0  0  0  0  0  0  0
   37.1990   24.8200   37.9020 H   0  0  0  0  0  0  0  0  0  0  0  0
  1 18  1  0  0  0  0
  2  7  1  0  0  0  0
  2  1  1  0  0  0  0
  3  2  2  0  0  0  0
  4  5  2  0  0  0  0
  4  3  1  0  0  0  0
  5  6  1  0  0  0  0
  6 11  1  0  0  0  0
  6  1  2  0  0  0  0
  8  3  1  0  0  0  0
  9  4  1  0  0  0  0
 10  5  1  0  0  0  0
 11 17  1  0  0  0  0
 12 11  1  0  0  0  0
 13 12  1  0  0  0  0
 13 14  1  0  0  0  0
 14 15  1  0  0  0  0
 14 16  1  0  0  0  0
 16 17  1  0  0  0  0
 18 19  1  1  0  0  0
 18 24  1  0  0  0  0
 20 26  1  0  0  0  0
 20 21  1  0  0  0  0
 21 27  1  0  0  0  0
 22 21  2  0  0  0  0
 22 28  1  0  0  0  0
 23 22  1  0  0  0  0
 24 25  1  0  0  0  0
 24 23  2  0  0  0  0
 25 20  2  0  0  0  0
M  END
>  <minimizedAffinity>
-5.13623524

$$$$

 OpenBabel03272509393D

 28 30  0  0  1  0  0  0  0  0999 V2000
   37.5030   22.4890   33.7020 C   0  0  0  0  0  0  0  0  0  0  0  0
   36.6080   21.6320   33.0580 C   0  0  0  0  0  0  0  0  0  0  0  0
   35.7960   20.7340   33.7680 C   0  0  0  0  0  0  0  0  0  0  0  0
   35.8930   20.7030   35.1760 C   0  0  0  0  0  0  0  0  0  0  0  0
   36.7930   21.5670   35.8030 C   0  0  0  0  0  0  0  0  0  0  0  0
   37.5740   22.4360   35.0640 C   0  0  0  0  0  0  0  0  0  0  0  0
   36.4830   21.6020   31.9880 H   0  0  0  0  0  0  0  0  0  0  0  0
   35.1090   20.0780   33.2460 H   0  0  0  0  0  0  0  0  0  0  0  0
   35.2690   20.0130   35.7360 H   0  0  0  0  0  0  0  0  0  0  0  0
   36.7960   21.4710   36.8800 H   0  0  0  0  0  0  0  0  0  0  0  0
   38.4320   23.2080   35.8800 N   0  0  0  0  0  0  0  0  0  0  0  0
   39.8350   23.0780   36.2280 C   0  0  0  0  0  2  0  0  0  0  0  0
   39.8560   22.6460   37.6720 C   0  0  0  0  0  2  0  0  0  0  0  0
   38.9910   23.4120   38.5870 C   0  0  0  0  0  3  0  0  0  0  0  0
   39.6550   23.9430   39.3340 H   0  0  0  0  0  0  0  0  0  0  0  0
   37.9580   24.2980   38.0320 C   0  0  0  0  0  2  0  0  0  0  0  0
   37.8580   24.3860   36.5470 C   0  0  0  0  0  2  0  0  0  0  0  0
   38.2970   23.3890   32.8920 C   0  0  1  0  0  3  0  0  0  0  0  0
   39.2340   22.8030   32.2280 O   0  0  0  0  0  1  0  0  0  0  0  0
   36.6900   26.5200   31.9840 C   0  0  0  0  0  0  0  0  0  0  0  0
   37.5380   27.4920   32.4920 C   0  0  0  0  0  0  0  0  0  0  0  0
   38.6760   27.0800   33.1520 C   0  0  0  0  0  0  0  0  0  0  0  0
   38.9320   25.7520   33.2820 N   0  0  0  0  0  0  0  0  0  0  0  0
   38.1090   24.8330   32.7890 C   0  0  0  0  0  0  0  0  0  0  0  0
   37.0030   25.2330   32.1480 N   0  0  0  0  0  0  0  0  0  0  0  0
   35.8200   26.8930   31.4810 H   0  0  0  0  0  0  0  0  0  0  0  0
   37.4210   28.5780   32.4390 H   0  0  0  0  0  0  0  0  0  0  0  0
   39.4080   27.7710   33.5880 H   0  0  0  0  0  0  0  0  0  0  0  0
  1  6  1  0  0  0  0
  2  1  2  0  0  0  0
  2  3  1  0  0  0  0
  3  4  2  0  0  0  0
  4  9  1  0  0  0  0
  4  5  1  0  0  0  0
  5 10  1  0  0  0  0
  6  5  2  0  0  0  0
  6 11  1  0  0  0  0
  7  2  1  0  0  0  0
  8  3  1  0  0  0  0
 11 12  1  0  0  0  0
 11 17  1  0  0  0  0
 12 13  1  0  0  0  0
 13 14  1  0  0  0  0
 14 15  1  0  0  0  0
 16 14  1  0  0  0  0
 17 16  1  0  0  0  0
 18 19  1  6  0  0  0
 18  1  1  0  0  0  0
 20 25  2  0  0  0  0
 20 21  1  0  0  0  0
 21 22  2  0  0  0  0
 22 23  1  0  0  0  0
 22 28  1  0  0  0  0
 24 18  1  0  0  0  0
 24 23  2  0  0  0  0
 25 24  1  0  0  0  0
 26 20  1  0  0  0  0
 27 21  1  0  0  0  0
M  END
>  <minimizedAffinity>
-5.11191225

$$$$

 OpenBabel03272509393D

 28 30  0  0  1  0  0  0  0  0999 V2000
   36.8420   24.1870   31.9120 C   0  0  0  0  0  0  0  0  0  0  0  0
   35.8470   24.3810   30.9510 C   0  0  0  0  0  0  0  0  0  0  0  0
   35.2290   25.6280   30.7620 C   0  0  0  0  0  0  0  0  0  0  0  0
   35.6310   26.7120   31.5720 C   0  0  0  0  0  0  0  0  0  0  0  0
   36.6270   26.4980   32.5270 C   0  0  0  0  0  0  0  0  0  0  0  0
   37.2090   25.2540   32.6790 C   0  0  0  0  0  0  0  0  0  0  0  0
   35.4910   23.6000   30.2990 H   0  0  0  0  0  0  0  0  0  0  0  0
   34.4590   25.7540   30.0100 H   0  0  0  0  0  0  0  0  0  0  0  0
   35.1600   27.6800   31.4340 H   0  0  0  0  0  0  0  0  0  0  0  0
   36.8670   27.3850   33.0980 H   0  0  0  0  0  0  0  0  0  0  0  0
   38.1770   25.2400   33.7100 N   0  0  0  0  0  0  0  0  0  0  0  0
   38.1440   24.7620   35.0800 C   0  0  0  0  0  2  0  0  0  0  0  0
   38.1370   25.9990   35.9400 C   0  0  0  0  0  2  0  0  0  0  0  0
   39.1350   27.0280   35.5970 C   0  0  0  0  0  3  0  0  0  0  0  0
   39.8530   27.1250   36.4660 H   0  0  0  0  0  0  0  0  0  0  0  0
   39.8330   26.9560   34.3050 C   0  0  0  0  0  2  0  0  0  0  0  0
   39.4980   25.8120   33.4100 C   0  0  0  0  0  2  0  0  0  0  0  0
   37.4310   22.8700   32.0330 C   0  0  1  0  0  3  0  0  0  0  0  0
   38.6890   22.8320   31.7530 O   0  0  0  0  0  1  0  0  0  0  0  0
   35.9420   19.5720   31.6890 C   0  0  0  0  0  0  0  0  0  0  0  0
   35.4480   19.2930   32.9550 C   0  0  0  0  0  0  0  0  0  0  0  0
   35.6190   20.2400   33.9410 C   0  0  0  0  0  0  0  0  0  0  0  0
   36.2570   21.4040   33.6500 N   0  0  0  0  0  0  0  0  0  0  0  0
   36.7250   21.6560   32.4320 C   0  0  0  0  0  0  0  0  0  0  0  0
   36.5590   20.7350   31.4730 N   0  0  0  0  0  0  0  0  0  0  0  0
   35.7840   18.8030   30.9590 H   0  0  0  0  0  0  0  0  0  0  0  0
   34.9230   18.3920   33.2860 H   0  0  0  0  0  0  0  0  0  0  0  0
   35.2640   20.1140   34.9710 H   0  0  0  0  0  0  0  0  0  0  0  0
  1 18  1  0  0  0  0
  1  6  1  0  0  0  0
  2  1  2  0  0  0  0
  3  2  1  0  0  0  0
  3  4  2  0  0  0  0
  4  5  1  0  0  0  0
  5  6  2  0  0  0  0
  5 10  1  0  0  0  0
  6 11  1  0  0  0  0
  7  2  1  0  0  0  0
  8  3  1  0  0  0  0
  9  4  1  0  0  0  0
 11 12  1  0  0  0  0
 12 13  1  0  0  0  0
 14 13  1  0  0  0  0
 14 15  1  0  0  0  0
 16 14  1  0  0  0  0
 17 11  1  0  0  0  0
 17 16  1  0  0  0  0
 18 19  1  1  0  0  0
 18 24  1  0  0  0  0
 20 21  1  0  0  0  0
 21 27  1  0  0  0  0
 21 22  2  0  0  0  0
 22 28  1  0  0  0  0
 23 22  1  0  0  0  0
 24 23  2  0  0  0  0
 25 20  2  0  0  0  0
 25 24  1  0  0  0  0
 26 20  1  0  0  0  0
M  END
>  <minimizedAffinity>
-5.10806608

$$$$

 OpenBabel03272509393D

 28 30  0  0  1  0  0  0  0  0999 V2000
   36.1430   26.4950   31.6710 C   0  0  0  0  0  0  0  0  0  0  0  0
   35.3070   25.5440   31.0820 C   0  0  0  0  0  0  0  0  0  0  0  0
   35.5160   24.1660   31.2460 C   0  0  0  0  0  0  0  0  0  0  0  0
   36.6070   23.7370   32.0330 C   0  0  0  0  0  0  0  0  0  0  0  0
   37.4320   24.7010   32.6140 C   0  0  0  0  0  0  0  0  0  0  0  0
   37.1890   26.0490   32.4250 C   0  0  0  0  0  0  0  0  0  0  0  0
   34.4570   25.8000   30.4700 H   0  0  0  0  0  0  0  0  0  0  0  0
   34.8530   23.4470   30.7790 H   0  0  0  0  0  0  0  0  0  0  0  0
   36.7770   22.6730   32.1670 H   0  0  0  0  0  0  0  0  0  0  0  0
   38.2380   24.2770   33.1960 H   0  0  0  0  0  0  0  0  0  0  0  0
   38.1470   26.8600   33.0760 N   0  0  0  0  0  0  0  0  0  0  0  0
   39.4810   27.2940   32.7030 C   0  0  0  0  0  2  0  0  0  0  0  0
   40.4210   26.5290   33.5990 C   0  0  0  0  0  2  0  0  0  0  0  0
   40.0800   26.5170   35.0320 C   0  0  0  0  0  3  0  0  0  0  0  0
   40.9020   27.0560   35.5930 H   0  0  0  0  0  0  0  0  0  0  0  0
   38.7400   26.9480   35.4600 C   0  0  0  0  0  2  0  0  0  0  0  0
   37.7960   27.3990   34.3980 C   0  0  0  0  0  2  0  0  0  0  0  0
   35.8490   27.8960   31.4550 C   0  0  1  0  0  3  0  0  0  0  0  0
   34.9440   28.3670   32.2420 O   0  0  0  0  0  1  0  0  0  0  0  0
   36.7950   30.9780   29.7750 C   0  0  0  0  0  0  0  0  0  0  0  0
   37.5850   30.5540   28.7170 C   0  0  0  0  0  0  0  0  0  0  0  0
   37.7980   29.2010   28.5680 C   0  0  0  0  0  0  0  0  0  0  0  0
   37.2360   28.3330   29.4480 N   0  0  0  0  0  0  0  0  0  0  0  0
   36.4820   28.7540   30.4580 C   0  0  0  0  0  0  0  0  0  0  0  0
   36.2740   30.0700   30.6030 N   0  0  0  0  0  0  0  0  0  0  0  0
   36.6600   32.0390   29.8470 H   0  0  0  0  0  0  0  0  0  0  0  0
   38.0780   31.1710   27.9600 H   0  0  0  0  0  0  0  0  0  0  0  0
   38.4060   28.7680   27.7640 H   0  0  0  0  0  0  0  0  0  0  0  0
  1  6  1  0  0  0  0
  2  3  1  0  0  0  0
  2  1  2  0  0  0  0
  3  4  2  0  0  0  0
  4  9  1  0  0  0  0
  4  5  1  0  0  0  0
  5 10  1  0  0  0  0
  6  5  2  0  0  0  0
  6 11  1  0  0  0  0
  7  2  1  0  0  0  0
  8  3  1  0  0  0  0
 11 17  1  0  0  0  0
 12 11  1  0  0  0  0
 12 13  1  0  0  0  0
 13 14  1  0  0  0  0
 14 16  1  0  0  0  0
 14 15  1  0  0  0  0
 17 16  1  0  0  0  0
 18  1  1  0  0  0  0
 18 19  1  1  0  0  0
 20 26  1  0  0  0  0
 20 25  1  0  0  0  0
 21 20  2  0  0  0  0
 22 21  1  0  0  0  0
 22 23  2  0  0  0  0
 23 24  1  0  0  0  0
 24 25  2  0  0  0  0
 24 18  1  0  0  0  0
 27 21  1  0  0  0  0
 28 22  1  0  0  0  0
M  END
>  <minimizedAffinity>
-4.98571491

$$$$
