
 OpenBabel03272507063D

 29 32  0  0  0  0  0  0  0  0999 V2000
   37.9990   23.5720   38.1440 C   0  0  0  0  0  0  0  0  0  0  0  0
   39.2680   22.9570   38.0620 C   0  0  0  0  0  0  0  0  0  0  0  0
   40.0390   23.2430   36.9210 C   0  0  0  0  0  0  0  0  0  0  0  0
   39.5250   24.0820   35.9820 N   0  0  0  0  0  0  0  0  0  0  0  0
   38.3120   24.6450   36.1000 C   0  0  0  0  0  0  0  0  0  0  0  0
   37.5540   24.3920   37.1720 N   0  0  0  0  0  0  0  0  0  0  0  0
   37.4150   23.3460   39.0220 H   0  0  0  0  0  0  0  0  0  0  0  0
   39.6860   22.3010   38.7850 H   0  0  0  0  0  0  0  0  0  0  0  0
   41.3370   22.7100   36.6800 N   0  0  0  0  0  0  0  0  0  0  0  0
   41.7400   21.3960   37.1870 C   0  0  0  0  0  2  0  0  0  0  0  0
   42.6160   20.7940   36.0850 C   0  0  0  0  0  2  0  0  0  0  0  0
   43.8880   21.6080   36.0700 C   0  0  0  0  0  3  0  0  0  0  0  0
   44.4210   21.3590   37.0210 H   0  0  0  0  0  0  0  0  0  0  0  0
   43.6620   23.0720   35.9130 C   0  0  0  0  0  2  0  0  0  0  0  0
   42.2430   23.5200   35.9120 C   0  0  0  0  0  2  0  0  0  0  0  0
   37.5230   26.8450   35.3490 C   0  0  0  0  0  0  0  0  0  0  0  0
   37.8410   25.5330   35.0410 C   0  0  0  0  0  0  0  0  0  0  0  0
   37.7160   25.0590   33.7510 C   0  0  0  0  0  0  0  0  0  0  0  0
   37.2710   25.8840   32.7340 C   0  0  0  0  0  0  0  0  0  0  0  0
   37.0620   25.6810   31.4140 N   0  0  0  0  0  0  0  0  0  0  0  0
   36.6230   26.8810   30.9600 C   0  0  0  0  0  0  0  0  0  0  0  0
   36.5640   27.7840   31.9640 N   0  0  0  0  0  0  0  0  0  0  0  0
   36.9670   27.1750   33.0820 C   0  0  0  0  0  0  0  0  0  0  0  0
   37.0740   27.6870   34.3410 C   0  0  0  0  0  0  0  0  0  0  0  0
   37.6050   27.2530   36.3430 H   0  0  0  0  0  0  0  0  0  0  0  0
   37.9830   24.0210   33.5770 H   0  0  0  0  0  0  0  0  0  0  0  0
   37.2390   24.7700   30.9800 H   0  0  0  0  0  0  0  0  0  0  0  0
   36.3760   27.0000   29.9120 H   0  0  0  0  0  0  0  0  0  0  0  0
   36.8170   28.7250   34.5560 H   0  0  0  0  0  0  0  0  0  0  0  0
  1  7  1  0  0  0  0
  2  1  1  0  0  0  0
  2  8  1  0  0  0  0
  3  2  2  0  0  0  0
  4  5  2  0  0  0  0
  4  3  1  0  0  0  0
  5  6  1  0  0  0  0
  6  1  2  0  0  0  0
  9  3  1  0  0  0  0
  9 10  1  0  0  0  0
 11 10  1  0  0  0  0
 12 11  1  0  0  0  0
 12 13  1  0  0  0  0
 14 12  1  0  0  0  0
 15 14  1  0  0  0  0
 15  9  1  0  0  0  0
 16 25  1  0  0  0  0
 17 16  1  0  0  0  0
 17  5  1  0  0  0  0
 18 17  2  0  0  0  0
 19 23  2  0  0  0  0
 19 18  1  0  0  0  0
 20 19  1  0  0  0  0
 21 20  1  0  0  0  0
 21 22  2  0  0  0  0
 22 23  1  0  0  0  0
 23 24  1  0  0  0  0
 24 29  1  0  0  0  0
 24 16  2  0  0  0  0
 26 18  1  0  0  0  0
 27 20  1  0  0  0  0
 28 21  1  0  0  0  0
M  END
>  <minimizedAffinity>
-5.82190323

$$$$

 OpenBabel03272507063D

 29 32  0  0  0  0  0  0  0  0999 V2000
   37.6730   22.5050   32.3220 C   0  0  0  0  0  0  0  0  0  0  0  0
   37.9840   22.2600   33.6780 C   0  0  0  0  0  0  0  0  0  0  0  0
   38.0700   23.3810   34.5220 C   0  0  0  0  0  0  0  0  0  0  0  0
   37.8500   24.6140   33.9900 N   0  0  0  0  0  0  0  0  0  0  0  0
   37.5560   24.8020   32.6940 C   0  0  0  0  0  0  0  0  0  0  0  0
   37.4680   23.7560   31.8650 N   0  0  0  0  0  0  0  0  0  0  0  0
   37.6100   21.6380   31.6830 H   0  0  0  0  0  0  0  0  0  0  0  0
   38.1580   21.3050   34.1110 H   0  0  0  0  0  0  0  0  0  0  0  0
   38.3730   23.3150   35.9110 N   0  0  0  0  0  0  0  0  0  0  0  0
   39.2210   22.2570   36.4680 C   0  0  0  0  0  2  0  0  0  0  0  0
   40.0460   22.9410   37.5610 C   0  0  0  0  0  2  0  0  0  0  0  0
   39.0760   23.2800   38.6680 C   0  0  0  0  0  3  0  0  0  0  0  0
   38.7700   22.3020   39.1150 H   0  0  0  0  0  0  0  0  0  0  0  0
   37.9080   24.0870   38.2160 C   0  0  0  0  0  2  0  0  0  0  0  0
   37.8090   24.3360   36.7530 C   0  0  0  0  0  2  0  0  0  0  0  0
   36.9240   27.1390   33.1000 C   0  0  0  0  0  0  0  0  0  0  0  0
   37.3360   26.1610   32.2100 C   0  0  0  0  0  0  0  0  0  0  0  0
   37.5380   26.4570   30.8780 C   0  0  0  0  0  0  0  0  0  0  0  0
   37.3350   27.7390   30.3980 C   0  0  0  0  0  0  0  0  0  0  0  0
   37.4570   28.2890   29.1690 N   0  0  0  0  0  0  0  0  0  0  0  0
   37.1140   29.5880   29.3520 C   0  0  0  0  0  0  0  0  0  0  0  0
   36.7930   29.8250   30.6440 N   0  0  0  0  0  0  0  0  0  0  0  0
   36.9270   28.6760   31.3120 C   0  0  0  0  0  0  0  0  0  0  0  0
   36.7140   28.4310   32.6360 C   0  0  0  0  0  0  0  0  0  0  0  0
   36.7540   26.9490   34.1460 H   0  0  0  0  0  0  0  0  0  0  0  0
   37.8620   25.6460   30.2340 H   0  0  0  0  0  0  0  0  0  0  0  0
   37.7540   27.7310   28.3630 H   0  0  0  0  0  0  0  0  0  0  0  0
   37.1260   30.2690   28.5100 H   0  0  0  0  0  0  0  0  0  0  0  0
   36.3890   29.2200   33.3160 H   0  0  0  0  0  0  0  0  0  0  0  0
  1  2  1  0  0  0  0
  2  8  1  0  0  0  0
  2  3  2  0  0  0  0
  3  9  1  0  0  0  0
  4  3  1  0  0  0  0
  5  4  2  0  0  0  0
  6  1  2  0  0  0  0
  6  5  1  0  0  0  0
  7  1  1  0  0  0  0
  9 10  1  0  0  0  0
  9 15  1  0  0  0  0
 10 11  1  0  0  0  0
 11 12  1  0  0  0  0
 12 13  1  0  0  0  0
 14 12  1  0  0  0  0
 15 14  1  0  0  0  0
 16 25  1  0  0  0  0
 17  5  1  0  0  0  0
 17 16  2  0  0  0  0
 18 17  1  0  0  0  0
 19 18  2  0  0  0  0
 19 23  1  0  0  0  0
 20 21  1  0  0  0  0
 20 19  1  0  0  0  0
 21 22  2  0  0  0  0
 22 23  1  0  0  0  0
 23 24  2  0  0  0  0
 24 16  1  0  0  0  0
 24 29  1  0  0  0  0
 26 18  1  0  0  0  0
 27 20  1  0  0  0  0
 28 21  1  0  0  0  0
M  END
>  <minimizedAffinity>
-5.82060051

$$$$

 OpenBabel03272507063D

 29 32  0  0  0  0  0  0  0  0999 V2000
   36.7590   27.0460   31.7070 C   0  0  0  0  0  0  0  0  0  0  0  0
   36.1690   28.2420   32.1720 C   0  0  0  0  0  0  0  0  0  0  0  0
   36.1950   28.4650   33.5600 C   0  0  0  0  0  0  0  0  0  0  0  0
   36.7790   27.5300   34.3580 N   0  0  0  0  0  0  0  0  0  0  0  0
   37.3290   26.4060   33.8730 C   0  0  0  0  0  0  0  0  0  0  0  0
   37.3190   26.1650   32.5580 N   0  0  0  0  0  0  0  0  0  0  0  0
   36.7330   26.8850   30.6400 H   0  0  0  0  0  0  0  0  0  0  0  0
   35.7090   28.9830   31.5640 H   0  0  0  0  0  0  0  0  0  0  0  0
   35.6480   29.6150   34.1950 N   0  0  0  0  0  0  0  0  0  0  0  0
   34.4980   30.3330   33.6390 C   0  0  0  0  0  2  0  0  0  0  0  0
   33.6730   30.7680   34.8530 C   0  0  0  0  0  2  0  0  0  0  0  0
   34.4870   31.8290   35.5540 C   0  0  0  0  0  3  0  0  0  0  0  0
   34.4800   32.7180   34.8750 H   0  0  0  0  0  0  0  0  0  0  0  0
   35.8680   31.3940   35.9030 C   0  0  0  0  0  2  0  0  0  0  0  0
   36.2740   30.0480   35.4160 C   0  0  0  0  0  2  0  0  0  0  0  0
   38.8520   24.5360   34.3310 C   0  0  0  0  0  0  0  0  0  0  0  0
   37.9340   25.4580   34.8040 C   0  0  0  0  0  0  0  0  0  0  0  0
   37.5870   25.4900   36.1390 C   0  0  0  0  0  0  0  0  0  0  0  0
   38.1480   24.6010   37.0370 C   0  0  0  0  0  0  0  0  0  0  0  0
   37.9900   24.4170   38.3680 N   0  0  0  0  0  0  0  0  0  0  0  0
   38.8190   23.3860   38.6610 C   0  0  0  0  0  0  0  0  0  0  0  0
   39.4620   22.9540   37.5530 N   0  0  0  0  0  0  0  0  0  0  0  0
   39.0520   23.7040   36.5280 C   0  0  0  0  0  0  0  0  0  0  0  0
   39.4260   23.6350   35.2180 C   0  0  0  0  0  0  0  0  0  0  0  0
   39.1490   24.4780   33.2970 H   0  0  0  0  0  0  0  0  0  0  0  0
   36.8620   26.2380   36.4450 H   0  0  0  0  0  0  0  0  0  0  0  0
   37.3490   25.0030   38.9130 H   0  0  0  0  0  0  0  0  0  0  0  0
   38.8890   23.0280   39.6810 H   0  0  0  0  0  0  0  0  0  0  0  0
   40.1520   22.8990   34.8720 H   0  0  0  0  0  0  0  0  0  0  0  0
  1  2  2  0  0  0  0
  1  6  1  0  0  0  0
  2  3  1  0  0  0  0
  3  9  1  0  0  0  0
  3  4  2  0  0  0  0
  5  4  1  0  0  0  0
  5 17  1  0  0  0  0
  6  5  2  0  0  0  0
  7  1  1  0  0  0  0
  8  2  1  0  0  0  0
  9 15  1  0  0  0  0
 10  9  1  0  0  0  0
 10 11  1  0  0  0  0
 11 12  1  0  0  0  0
 12 14  1  0  0  0  0
 13 12  1  0  0  0  0
 15 14  1  0  0  0  0
 16 17  2  0  0  0  0
 16 24  1  0  0  0  0
 17 18  1  0  0  0  0
 18 26  1  0  0  0  0
 18 19  2  0  0  0  0
 19 20  1  0  0  0  0
 20 21  1  0  0  0  0
 20 27  1  0  0  0  0
 21 28  1  0  0  0  0
 22 21  2  0  0  0  0
 23 19  1  0  0  0  0
 23 22  1  0  0  0  0
 24 23  2  0  0  0  0
 25 16  1  0  0  0  0
 29 24  1  0  0  0  0
M  END
>  <minimizedAffinity>
-5.75585556

$$$$

 OpenBabel03272507063D

 29 32  0  0  0  0  0  0  0  0999 V2000
   37.3730   23.5700   31.9150 C   0  0  0  0  0  0  0  0  0  0  0  0
   37.9230   23.0350   33.1010 C   0  0  0  0  0  0  0  0  0  0  0  0
   38.0410   23.9090   34.1960 C   0  0  0  0  0  0  0  0  0  0  0  0
   37.6240   25.1960   34.0490 N   0  0  0  0  0  0  0  0  0  0  0  0
   37.1070   25.6630   32.9020 C   0  0  0  0  0  0  0  0  0  0  0  0
   36.9820   24.8570   31.8420 N   0  0  0  0  0  0  0  0  0  0  0  0
   37.2870   22.8920   31.0800 H   0  0  0  0  0  0  0  0  0  0  0  0
   38.2520   22.0330   33.2340 H   0  0  0  0  0  0  0  0  0  0  0  0
   38.5700   23.5350   35.4630 N   0  0  0  0  0  0  0  0  0  0  0  0
   39.5920   22.4930   35.5970 C   0  0  0  0  0  2  0  0  0  0  0  0
   40.5180   22.9820   36.7150 C   0  0  0  0  0  2  0  0  0  0  0  0
   39.7130   22.9000   37.9900 C   0  0  0  0  0  3  0  0  0  0  0  0
   39.5760   21.8090   38.1950 H   0  0  0  0  0  0  0  0  0  0  0  0
   38.4180   23.6330   37.9320 C   0  0  0  0  0  2  0  0  0  0  0  0
   38.0600   24.2280   36.6150 C   0  0  0  0  0  2  0  0  0  0  0  0
   36.5540   27.7840   34.0080 C   0  0  0  0  0  0  0  0  0  0  0  0
   36.6860   27.0590   32.8360 C   0  0  0  0  0  0  0  0  0  0  0  0
   36.4240   27.6400   31.6120 C   0  0  0  0  0  0  0  0  0  0  0  0
   36.0230   28.9610   31.5260 C   0  0  0  0  0  0  0  0  0  0  0  0
   35.7090   29.7590   30.4800 N   0  0  0  0  0  0  0  0  0  0  0  0
   35.3960   30.9470   31.0530 C   0  0  0  0  0  0  0  0  0  0  0  0
   35.5130   30.8800   32.3980 N   0  0  0  0  0  0  0  0  0  0  0  0
   35.9050   29.6430   32.7100 C   0  0  0  0  0  0  0  0  0  0  0  0
   36.1530   29.1120   33.9410 C   0  0  0  0  0  0  0  0  0  0  0  0
   36.7480   27.3680   34.9820 H   0  0  0  0  0  0  0  0  0  0  0  0
   36.5470   27.0170   30.7310 H   0  0  0  0  0  0  0  0  0  0  0  0
   35.7440   29.4120   29.5170 H   0  0  0  0  0  0  0  0  0  0  0  0
   35.1020   31.7820   30.4290 H   0  0  0  0  0  0  0  0  0  0  0  0
   36.0410   29.7060   34.8490 H   0  0  0  0  0  0  0  0  0  0  0  0
  1  2  1  0  0  0  0
  2  8  1  0  0  0  0
  2  3  2  0  0  0  0
  3  9  1  0  0  0  0
  4  3  1  0  0  0  0
  5  4  2  0  0  0  0
  6  1  2  0  0  0  0
  6  5  1  0  0  0  0
  7  1  1  0  0  0  0
  9 10  1  0  0  0  0
  9 15  1  0  0  0  0
 10 11  1  0  0  0  0
 11 12  1  0  0  0  0
 12 13  1  0  0  0  0
 14 12  1  0  0  0  0
 15 14  1  0  0  0  0
 16 25  1  0  0  0  0
 17  5  1  0  0  0  0
 17 16  2  0  0  0  0
 18 17  1  0  0  0  0
 19 18  2  0  0  0  0
 19 23  1  0  0  0  0
 20 21  1  0  0  0  0
 20 19  1  0  0  0  0
 21 22  2  0  0  0  0
 22 23  1  0  0  0  0
 23 24  2  0  0  0  0
 24 16  1  0  0  0  0
 24 29  1  0  0  0  0
 26 18  1  0  0  0  0
 27 20  1  0  0  0  0
 28 21  1  0  0  0  0
M  END
>  <minimizedAffinity>
-5.69203568

$$$$

 OpenBabel03272507063D

 29 32  0  0  0  0  0  0  0  0999 V2000
   35.1530   29.5090   31.9280 C   0  0  0  0  0  0  0  0  0  0  0  0
   34.5740   30.4900   32.7630 C   0  0  0  0  0  0  0  0  0  0  0  0
   34.8780   30.4170   34.1340 C   0  0  0  0  0  0  0  0  0  0  0  0
   35.6990   29.4210   34.5650 N   0  0  0  0  0  0  0  0  0  0  0  0
   36.2280   28.5080   33.7360 C   0  0  0  0  0  0  0  0  0  0  0  0
   35.9570   28.5510   32.4270 N   0  0  0  0  0  0  0  0  0  0  0  0
   34.9130   29.5750   30.8780 H   0  0  0  0  0  0  0  0  0  0  0  0
   33.9320   31.2750   32.4440 H   0  0  0  0  0  0  0  0  0  0  0  0
   34.3820   31.3230   35.1120 N   0  0  0  0  0  0  0  0  0  0  0  0
   33.0800   31.9820   34.9670 C   0  0  0  0  0  2  0  0  0  0  0  0
   32.5000   32.0370   36.3830 C   0  0  0  0  0  2  0  0  0  0  0  0
   33.3500   33.0250   37.1450 C   0  0  0  0  0  3  0  0  0  0  0  0
   33.1200   34.0280   36.7070 H   0  0  0  0  0  0  0  0  0  0  0  0
   34.8070   32.7140   37.1150 C   0  0  0  0  0  2  0  0  0  0  0  0
   35.2150   31.5680   36.2590 C   0  0  0  0  0  2  0  0  0  0  0  0
   37.8300   27.7440   35.4320 C   0  0  0  0  0  0  0  0  0  0  0  0
   37.0990   27.4750   34.2870 C   0  0  0  0  0  0  0  0  0  0  0  0
   37.1850   26.2460   33.6660 C   0  0  0  0  0  0  0  0  0  0  0  0
   38.0050   25.2530   34.1710 C   0  0  0  0  0  0  0  0  0  0  0  0
   38.2700   23.9890   33.7700 N   0  0  0  0  0  0  0  0  0  0  0  0
   39.1570   23.5300   34.6870 C   0  0  0  0  0  0  0  0  0  0  0  0
   39.4250   24.4760   35.6140 N   0  0  0  0  0  0  0  0  0  0  0  0
   38.7110   25.5610   35.3050 C   0  0  0  0  0  0  0  0  0  0  0  0
   38.6580   26.7600   35.9530 C   0  0  0  0  0  0  0  0  0  0  0  0
   37.7920   28.6900   35.9460 H   0  0  0  0  0  0  0  0  0  0  0  0
   36.5850   26.0990   32.7730 H   0  0  0  0  0  0  0  0  0  0  0  0
   37.8260   23.5910   32.9360 H   0  0  0  0  0  0  0  0  0  0  0  0
   39.5430   22.5210   34.6010 H   0  0  0  0  0  0  0  0  0  0  0  0
   39.2450   26.9460   36.8540 H   0  0  0  0  0  0  0  0  0  0  0  0
  1  6  2  0  0  0  0
  1  2  1  0  0  0  0
  2  3  2  0  0  0  0
  3  4  1  0  0  0  0
  3  9  1  0  0  0  0
  5 17  1  0  0  0  0
  5  4  2  0  0  0  0
  6  5  1  0  0  0  0
  7  1  1  0  0  0  0
  8  2  1  0  0  0  0
  9 15  1  0  0  0  0
 10  9  1  0  0  0  0
 10 11  1  0  0  0  0
 11 12  1  0  0  0  0
 13 12  1  0  0  0  0
 14 12  1  0  0  0  0
 15 14  1  0  0  0  0
 16 25  1  0  0  0  0
 16 24  1  0  0  0  0
 17 16  2  0  0  0  0
 18 19  2  0  0  0  0
 18 17  1  0  0  0  0
 19 23  1  0  0  0  0
 20 19  1  0  0  0  0
 20 21  1  0  0  0  0
 21 22  2  0  0  0  0
 23 22  1  0  0  0  0
 23 24  2  0  0  0  0
 24 29  1  0  0  0  0
 26 18  1  0  0  0  0
 27 20  1  0  0  0  0
 28 21  1  0  0  0  0
M  END
>  <minimizedAffinity>
-5.67419624

$$$$

 OpenBabel03272507063D

 29 32  0  0  0  0  0  0  0  0999 V2000
   36.7480   28.6190   31.5280 C   0  0  0  0  0  0  0  0  0  0  0  0
   37.5530   27.5760   32.0370 C   0  0  0  0  0  0  0  0  0  0  0  0
   37.4830   27.3370   33.4210 C   0  0  0  0  0  0  0  0  0  0  0  0
   36.6560   28.1140   34.1730 N   0  0  0  0  0  0  0  0  0  0  0  0
   35.9080   29.0960   33.6480 C   0  0  0  0  0  0  0  0  0  0  0  0
   35.9530   29.3470   32.3350 N   0  0  0  0  0  0  0  0  0  0  0  0
   36.8100   28.7930   30.4650 H   0  0  0  0  0  0  0  0  0  0  0  0
   38.2030   26.9590   31.4650 H   0  0  0  0  0  0  0  0  0  0  0  0
   38.2240   26.3280   34.0970 N   0  0  0  0  0  0  0  0  0  0  0  0
   39.5390   25.8850   33.6230 C   0  0  0  0  0  2  0  0  0  0  0  0
   40.3550   25.6280   34.8920 C   0  0  0  0  0  2  0  0  0  0  0  0
   39.7470   24.4070   35.5410 C   0  0  0  0  0  3  0  0  0  0  0  0
   39.9950   23.5490   34.8670 H   0  0  0  0  0  0  0  0  0  0  0  0
   38.2840   24.5260   35.7930 C   0  0  0  0  0  2  0  0  0  0  0  0
   37.6270   25.7560   35.2740 C   0  0  0  0  0  2  0  0  0  0  0  0
   33.6810   29.6650   34.5110 C   0  0  0  0  0  0  0  0  0  0  0  0
   35.0490   29.8780   34.5310 C   0  0  0  0  0  0  0  0  0  0  0  0
   35.6050   30.8190   35.3740 C   0  0  0  0  0  0  0  0  0  0  0  0
   34.8100   31.5710   36.2180 C   0  0  0  0  0  0  0  0  0  0  0  0
   35.0880   32.5370   37.1240 N   0  0  0  0  0  0  0  0  0  0  0  0
   33.8760   32.8800   37.6260 C   0  0  0  0  0  0  0  0  0  0  0  0
   32.8930   32.1530   37.0500 N   0  0  0  0  0  0  0  0  0  0  0  0
   33.4610   31.3290   36.1660 C   0  0  0  0  0  0  0  0  0  0  0  0
   32.8670   30.4110   35.3510 C   0  0  0  0  0  0  0  0  0  0  0  0
   33.2080   28.9420   33.8670 H   0  0  0  0  0  0  0  0  0  0  0  0
   36.6840   30.9360   35.3420 H   0  0  0  0  0  0  0  0  0  0  0  0
   36.0510   32.8450   37.2940 H   0  0  0  0  0  0  0  0  0  0  0  0
   33.8090   33.6480   38.3860 H   0  0  0  0  0  0  0  0  0  0  0  0
   31.7860   30.2630   35.3550 H   0  0  0  0  0  0  0  0  0  0  0  0
  1  2  2  0  0  0  0
  1  6  1  0  0  0  0
  2  3  1  0  0  0  0
  3  9  1  0  0  0  0
  3  4  2  0  0  0  0
  5  4  1  0  0  0  0
  5 17  1  0  0  0  0
  6  5  2  0  0  0  0
  7  1  1  0  0  0  0
  8  2  1  0  0  0  0
  9 15  1  0  0  0  0
 10  9  1  0  0  0  0
 10 11  1  0  0  0  0
 11 12  1  0  0  0  0
 12 14  1  0  0  0  0
 13 12  1  0  0  0  0
 15 14  1  0  0  0  0
 16 17  2  0  0  0  0
 16 24  1  0  0  0  0
 17 18  1  0  0  0  0
 18 19  2  0  0  0  0
 19 20  1  0  0  0  0
 20 27  1  0  0  0  0
 20 21  1  0  0  0  0
 21 28  1  0  0  0  0
 22 21  2  0  0  0  0
 23 19  1  0  0  0  0
 23 22  1  0  0  0  0
 24 29  1  0  0  0  0
 24 23  2  0  0  0  0
 25 16  1  0  0  0  0
 26 18  1  0  0  0  0
M  END
>  <minimizedAffinity>
-5.65842009

$$$$

 OpenBabel03272507063D

 29 32  0  0  0  0  0  0  0  0999 V2000
   36.4810   28.5390   31.6660 C   0  0  0  0  0  0  0  0  0  0  0  0
   37.2620   27.4680   32.1540 C   0  0  0  0  0  0  0  0  0  0  0  0
   37.3280   27.3150   33.5500 C   0  0  0  0  0  0  0  0  0  0  0  0
   36.6450   28.1920   34.3340 N   0  0  0  0  0  0  0  0  0  0  0  0
   35.9130   29.1970   33.8280 C   0  0  0  0  0  0  0  0  0  0  0  0
   35.8310   29.3700   32.5040 N   0  0  0  0  0  0  0  0  0  0  0  0
   36.4370   28.6480   30.5940 H   0  0  0  0  0  0  0  0  0  0  0  0
   37.8020   26.7730   31.5580 H   0  0  0  0  0  0  0  0  0  0  0  0
   38.0670   26.2910   34.2080 N   0  0  0  0  0  0  0  0  0  0  0  0
   39.2880   25.7240   33.6280 C   0  0  0  0  0  2  0  0  0  0  0  0
   40.2190   25.4780   34.8180 C   0  0  0  0  0  2  0  0  0  0  0  0
   39.6030   24.3450   35.6030 C   0  0  0  0  0  3  0  0  0  0  0  0
   39.7150   23.4340   34.9640 H   0  0  0  0  0  0  0  0  0  0  0  0
   38.1880   24.5890   36.0000 C   0  0  0  0  0  2  0  0  0  0  0  0
   37.5650   25.8340   35.4760 C   0  0  0  0  0  2  0  0  0  0  0  0
   35.9450   30.9660   35.5310 C   0  0  0  0  0  0  0  0  0  0  0  0
   35.2130   30.0910   34.7450 C   0  0  0  0  0  0  0  0  0  0  0  0
   33.8350   30.0560   34.8200 C   0  0  0  0  0  0  0  0  0  0  0  0
   33.1520   30.8950   35.6830 C   0  0  0  0  0  0  0  0  0  0  0  0
   31.8370   31.0630   35.9490 N   0  0  0  0  0  0  0  0  0  0  0  0
   31.8120   32.0380   36.8910 C   0  0  0  0  0  0  0  0  0  0  0  0
   33.0640   32.4510   37.1910 N   0  0  0  0  0  0  0  0  0  0  0  0
   33.9150   31.7440   36.4430 C   0  0  0  0  0  0  0  0  0  0  0  0
   35.2760   31.8140   36.4020 C   0  0  0  0  0  0  0  0  0  0  0  0
   37.0200   31.0230   35.5020 H   0  0  0  0  0  0  0  0  0  0  0  0
   33.3220   29.3490   34.1770 H   0  0  0  0  0  0  0  0  0  0  0  0
   31.1210   30.5080   35.4690 H   0  0  0  0  0  0  0  0  0  0  0  0
   30.8630   32.3740   37.2900 H   0  0  0  0  0  0  0  0  0  0  0  0
   35.8280   32.5130   37.0330 H   0  0  0  0  0  0  0  0  0  0  0  0
  1  2  2  0  0  0  0
  1  6  1  0  0  0  0
  2  3  1  0  0  0  0
  3  9  1  0  0  0  0
  3  4  2  0  0  0  0
  5  4  1  0  0  0  0
  5 17  1  0  0  0  0
  6  5  2  0  0  0  0
  7  1  1  0  0  0  0
  8  2  1  0  0  0  0
  9 15  1  0  0  0  0
 10  9  1  0  0  0  0
 10 11  1  0  0  0  0
 11 12  1  0  0  0  0
 12 14  1  0  0  0  0
 13 12  1  0  0  0  0
 15 14  1  0  0  0  0
 16 24  1  0  0  0  0
 17 18  1  0  0  0  0
 17 16  2  0  0  0  0
 18 19  2  0  0  0  0
 19 20  1  0  0  0  0
 19 23  1  0  0  0  0
 20 21  1  0  0  0  0
 21 22  2  0  0  0  0
 21 28  1  0  0  0  0
 23 22  1  0  0  0  0
 24 23  2  0  0  0  0
 24 29  1  0  0  0  0
 25 16  1  0  0  0  0
 26 18  1  0  0  0  0
 27 20  1  0  0  0  0
M  END
>  <minimizedAffinity>
-5.65674686

$$$$

 OpenBabel03272507063D

 29 32  0  0  0  0  0  0  0  0999 V2000
   39.6600   25.4290   33.7800 C   0  0  0  0  0  0  0  0  0  0  0  0
   39.1010   24.1690   33.4750 C   0  0  0  0  0  0  0  0  0  0  0  0
   37.7640   24.1550   33.0420 C   0  0  0  0  0  0  0  0  0  0  0  0
   37.0990   25.3390   32.9450 N   0  0  0  0  0  0  0  0  0  0  0  0
   37.6700   26.5160   33.2460 C   0  0  0  0  0  0  0  0  0  0  0  0
   38.9400   26.5620   33.6610 N   0  0  0  0  0  0  0  0  0  0  0  0
   40.6870   25.4290   34.1120 H   0  0  0  0  0  0  0  0  0  0  0  0
   39.6040   23.2350   33.5440 H   0  0  0  0  0  0  0  0  0  0  0  0
   37.0480   22.9750   32.6930 N   0  0  0  0  0  0  0  0  0  0  0  0
   37.3400   21.6810   33.3150 C   0  0  0  0  0  2  0  0  0  0  0  0
   35.9790   20.9980   33.4760 C   0  0  0  0  0  2  0  0  0  0  0  0
   35.5140   20.6590   32.0800 C   0  0  0  0  0  3  0  0  0  0  0  0
   36.1950   19.8490   31.7190 H   0  0  0  0  0  0  0  0  0  0  0  0
   35.4850   21.8270   31.1560 C   0  0  0  0  0  2  0  0  0  0  0  0
   36.0180   23.1060   31.6980 C   0  0  0  0  0  2  0  0  0  0  0  0
   36.3340   28.3180   34.2440 C   0  0  0  0  0  0  0  0  0  0  0  0
   36.8810   27.7370   33.1130 C   0  0  0  0  0  0  0  0  0  0  0  0
   36.6880   28.2970   31.8670 C   0  0  0  0  0  0  0  0  0  0  0  0
   35.9440   29.4530   31.7180 C   0  0  0  0  0  0  0  0  0  0  0  0
   35.6070   30.1950   30.6380 N   0  0  0  0  0  0  0  0  0  0  0  0
   34.8640   31.2070   31.1510 C   0  0  0  0  0  0  0  0  0  0  0  0
   34.7490   31.0890   32.4930 N   0  0  0  0  0  0  0  0  0  0  0  0
   35.4200   29.9960   32.8630 C   0  0  0  0  0  0  0  0  0  0  0  0
   35.5830   29.4790   34.1140 C   0  0  0  0  0  0  0  0  0  0  0  0
   36.4600   27.9120   35.2340 H   0  0  0  0  0  0  0  0  0  0  0  0
   37.1440   27.7920   31.0210 H   0  0  0  0  0  0  0  0  0  0  0  0
   35.9150   29.9350   29.6960 H   0  0  0  0  0  0  0  0  0  0  0  0
   34.4580   31.9630   30.4900 H   0  0  0  0  0  0  0  0  0  0  0  0
   35.1420   29.9570   34.9890 H   0  0  0  0  0  0  0  0  0  0  0  0
  1  7  1  0  0  0  0
  2  8  1  0  0  0  0
  2  1  2  0  0  0  0
  3  2  1  0  0  0  0
  4  3  2  0  0  0  0
  4  5  1  0  0  0  0
  5  6  2  0  0  0  0
  6  1  1  0  0  0  0
  9  3  1  0  0  0  0
  9 10  1  0  0  0  0
 10 11  1  0  0  0  0
 12 11  1  0  0  0  0
 13 12  1  0  0  0  0
 14 15  1  0  0  0  0
 14 12  1  0  0  0  0
 15  9  1  0  0  0  0
 16 25  1  0  0  0  0
 17  5  1  0  0  0  0
 17 16  2  0  0  0  0
 18 17  1  0  0  0  0
 19 18  2  0  0  0  0
 19 23  1  0  0  0  0
 20 21  1  0  0  0  0
 20 19  1  0  0  0  0
 21 22  2  0  0  0  0
 22 23  1  0  0  0  0
 23 24  2  0  0  0  0
 24 16  1  0  0  0  0
 24 29  1  0  0  0  0
 26 18  1  0  0  0  0
 27 20  1  0  0  0  0
 28 21  1  0  0  0  0
M  END
>  <minimizedAffinity>
-5.5689044

$$$$

 OpenBabel03272507063D

 29 32  0  0  0  0  0  0  0  0999 V2000
   37.3280   23.6870   31.7890 C   0  0  0  0  0  0  0  0  0  0  0  0
   37.8510   23.1470   32.9850 C   0  0  0  0  0  0  0  0  0  0  0  0
   37.9640   24.0210   34.0800 C   0  0  0  0  0  0  0  0  0  0  0  0
   37.5690   25.3140   33.9230 N   0  0  0  0  0  0  0  0  0  0  0  0
   37.0780   25.7860   32.7670 C   0  0  0  0  0  0  0  0  0  0  0  0
   36.9580   24.9800   31.7070 N   0  0  0  0  0  0  0  0  0  0  0  0
   37.2450   23.0070   30.9540 H   0  0  0  0  0  0  0  0  0  0  0  0
   38.1630   22.1410   33.1250 H   0  0  0  0  0  0  0  0  0  0  0  0
   38.4680   23.6430   35.3560 N   0  0  0  0  0  0  0  0  0  0  0  0
   39.4720   22.5860   35.5090 C   0  0  0  0  0  2  0  0  0  0  0  0
   40.3870   23.0650   36.6390 C   0  0  0  0  0  2  0  0  0  0  0  0
   39.5610   22.9980   37.9020 C   0  0  0  0  0  3  0  0  0  0  0  0
   39.4040   21.9100   38.1070 H   0  0  0  0  0  0  0  0  0  0  0  0
   38.2780   23.7500   37.8210 C   0  0  0  0  0  2  0  0  0  0  0  0
   37.9500   24.3460   36.4980 C   0  0  0  0  0  2  0  0  0  0  0  0
   36.5910   27.8010   31.4520 C   0  0  0  0  0  0  0  0  0  0  0  0
   36.6790   27.1880   32.6900 C   0  0  0  0  0  0  0  0  0  0  0  0
   36.3940   27.8860   33.8460 C   0  0  0  0  0  0  0  0  0  0  0  0
   36.0150   29.2150   33.7960 C   0  0  0  0  0  0  0  0  0  0  0  0
   35.6870   30.1130   34.7530 N   0  0  0  0  0  0  0  0  0  0  0  0
   35.4100   31.2460   34.0620 C   0  0  0  0  0  0  0  0  0  0  0  0
   35.5630   31.0510   32.7330 N   0  0  0  0  0  0  0  0  0  0  0  0
   35.9410   29.7840   32.5500 C   0  0  0  0  0  0  0  0  0  0  0  0
   36.2130   29.1350   31.3820 C   0  0  0  0  0  0  0  0  0  0  0  0
   36.8060   27.2930   30.5270 H   0  0  0  0  0  0  0  0  0  0  0  0
   36.4810   27.3460   34.7840 H   0  0  0  0  0  0  0  0  0  0  0  0
   35.6880   29.8570   35.7450 H   0  0  0  0  0  0  0  0  0  0  0  0
   35.1130   32.1400   34.5960 H   0  0  0  0  0  0  0  0  0  0  0  0
   36.1360   29.6420   30.4190 H   0  0  0  0  0  0  0  0  0  0  0  0
  1  2  1  0  0  0  0
  2  8  1  0  0  0  0
  2  3  2  0  0  0  0
  3  9  1  0  0  0  0
  4  3  1  0  0  0  0
  5  4  2  0  0  0  0
  6  1  2  0  0  0  0
  6  5  1  0  0  0  0
  7  1  1  0  0  0  0
  9 10  1  0  0  0  0
  9 15  1  0  0  0  0
 10 11  1  0  0  0  0
 11 12  1  0  0  0  0
 12 13  1  0  0  0  0
 14 12  1  0  0  0  0
 15 14  1  0  0  0  0
 16 17  1  0  0  0  0
 17  5  1  0  0  0  0
 17 18  2  0  0  0  0
 18 26  1  0  0  0  0
 19 18  1  0  0  0  0
 19 20  1  0  0  0  0
 20 27  1  0  0  0  0
 21 28  1  0  0  0  0
 21 20  1  0  0  0  0
 22 21  2  0  0  0  0
 23 22  1  0  0  0  0
 23 19  2  0  0  0  0
 24 16  2  0  0  0  0
 24 23  1  0  0  0  0
 25 16  1  0  0  0  0
 29 24  1  0  0  0  0
M  END
>  <minimizedAffinity>
-5.53234339

$$$$
