
 OpenBabel03272507233D

 28 30  0  0  1  0  0  0  0  0999 V2000
   36.4720   29.5530   50.9570 C   0  0  0  0  0  0  0  0  0  0  0  0
   37.3840   30.5890   50.6680 C   0  0  0  0  0  0  0  0  0  0  0  0
   37.4720   31.0460   49.3380 C   0  0  0  0  0  0  0  0  0  0  0  0
   36.6730   30.4570   48.4370 N   0  0  0  0  0  0  0  0  0  0  0  0
   35.8070   29.4690   48.7250 C   0  0  0  0  0  0  0  0  0  0  0  0
   35.7080   29.0190   49.9870 N   0  0  0  0  0  0  0  0  0  0  0  0
   38.3740   32.0740   49.0110 N   0  0  0  0  0  0  0  0  0  0  0  0
   38.7550   33.1770   49.9060 C   0  0  0  0  0  0  0  0  0  0  0  0
   39.5840   34.1000   49.0600 C   0  0  0  0  0  0  0  0  0  0  0  0
   39.1570   33.7210   47.6710 C   0  0  0  0  0  0  0  0  0  0  0  0
   39.0700   32.2220   47.7930 C   0  0  2  0  0  0  0  0  0  0  0  0
   36.3630   29.1610   51.9690 H   0  0  0  0  0  0  0  0  0  0  0  0
   37.9940   31.0100   51.4650 H   0  0  0  0  0  0  0  0  0  0  0  0
   35.1830   29.0310   47.9400 H   0  0  0  0  0  0  0  0  0  0  0  0
   39.4380   32.7230   50.6540 H   0  0  0  0  0  0  0  0  0  0  0  0
   37.9000   33.6510   50.3840 H   0  0  0  0  0  0  0  0  0  0  0  0
   39.3930   35.1610   49.3220 H   0  0  0  0  0  0  0  0  0  0  0  0
   40.6670   33.9320   49.1970 H   0  0  0  0  0  0  0  0  0  0  0  0
   39.9240   34.0550   46.9760 H   0  0  0  0  0  0  0  0  0  0  0  0
   38.1680   34.1970   47.5230 H   0  0  0  0  0  0  0  0  0  0  0  0
   40.1350   31.9060   48.0330 H   0  0  0  0  0  0  0  0  0  0  0  0
   38.6810   31.5300   46.6430 N   0  0  0  0  0  0  0  0  0  0  0  0
   37.8370   32.1530   45.6940 C   0  0  0  0  0  0  0  0  0  0  0  0
   38.6160   32.4500   44.3980 C   0  0  0  0  0  0  0  0  0  0  0  0
   38.9060   31.1130   43.7530 C   0  0  0  0  0  0  0  0  0  0  0  0
   39.5010   31.3240   42.8310 H   0  0  0  0  0  0  0  0  0  0  0  0
   39.6470   30.2750   44.7580 C   0  0  0  0  0  0  0  0  0  0  0  0
   39.8920   31.0120   46.0210 C   0  0  0  0  0  0  0  0  0  0  0  0
  1 12  1  0  0  0  0
  2  1  1  0  0  0  0
  2 13  1  0  0  0  0
  3  2  2  0  0  0  0
  4  5  2  0  0  0  0
  4  3  1  0  0  0  0
  5  6  1  0  0  0  0
  6  1  2  0  0  0  0
  7  3  1  0  0  0  0
  7  8  1  0  0  0  0
  8 16  1  0  0  0  0
  8 15  1  0  0  0  0
  9 18  1  0  0  0  0
  9 17  1  0  0  0  0
  9  8  1  0  0  0  0
 10 11  1  0  0  0  0
 10  9  1  0  0  0  0
 11 21  1  1  0  0  0
 11  7  1  0  0  0  0
 14  5  1  0  0  0  0
 19 10  1  0  0  0  0
 20 10  1  0  0  0  0
 22 11  1  0  0  0  0
 23 22  1  0  0  0  0
 24 23  1  0  0  0  0
 25 24  1  0  0  0  0
 25 27  1  0  0  0  0
 26 25  1  0  0  0  0
 27 28  1  0  0  0  0
 28 22  1  0  0  0  0
M  END
>  <minimizedAffinity>
-5.19558525

>  <minimizedRMSD>
2.34970474

$$$$
