
 OpenBabel03272505563D

 32 34  0  0  1  0  0  0  0  0999 V2000
   37.9370   26.1510   33.2470 C   0  0  2  0  0  0  0  0  0  0  0  0
   39.2580   25.7730   33.8740 C   0  0  0  0  0  0  0  0  0  0  0  0
   39.2650   25.8470   35.3680 C   0  0  1  0  0  0  0  0  0  0  0  0
   38.7860   27.1570   35.8940 C   0  0  0  0  0  0  0  0  0  0  0  0
   37.6180   27.7340   35.1500 C   0  0  0  0  0  0  0  0  0  0  0  0
   36.9770   26.7290   34.2290 C   0  0  0  0  0  0  0  0  0  0  0  0
   38.0810   26.8750   32.4150 H   0  0  0  0  0  0  0  0  0  0  0  0
   39.5090   24.7410   33.5780 H   0  0  0  0  0  0  0  0  0  0  0  0
   40.0360   26.4280   33.4300 H   0  0  0  0  0  0  0  0  0  0  0  0
   40.3700   25.8200   35.6310 H   0  0  0  0  0  0  0  0  0  0  0  0
   39.6100   27.9250   35.7810 H   0  0  0  0  0  0  0  0  0  0  0  0
   38.5460   27.1640   36.9500 H   0  0  0  0  0  0  0  0  0  0  0  0
   37.8890   28.6090   34.5140 H   0  0  0  0  0  0  0  0  0  0  0  0
   36.8230   28.1010   35.8420 H   0  0  0  0  0  0  0  0  0  0  0  0
   36.2000   27.2760   33.6490 H   0  0  0  0  0  0  0  0  0  0  0  0
   36.4390   25.9420   34.7880 H   0  0  0  0  0  0  0  0  0  0  0  0
   37.3000   24.9400   32.6460 C   0  0  0  0  0  0  0  0  0  0  0  0
   36.1730   25.1610   31.8360 C   0  0  0  0  0  0  0  0  0  0  0  0
   35.5670   24.0410   31.2770 C   0  0  0  0  0  0  0  0  0  0  0  0
   36.0810   22.7880   31.5330 N   0  0  0  0  0  0  0  0  0  0  0  0
   37.1820   22.6210   32.3290 C   0  0  0  0  0  0  0  0  0  0  0  0
   37.7710   23.7000   32.8710 N   0  0  0  0  0  0  0  0  0  0  0  0
   35.7200   26.0880   31.5960 H   0  0  0  0  0  0  0  0  0  0  0  0
   34.7090   24.0760   30.6470 H   0  0  0  0  0  0  0  0  0  0  0  0
   37.5220   21.6070   32.4810 H   0  0  0  0  0  0  0  0  0  0  0  0
   38.7280   24.6860   35.9250 N   0  0  0  0  0  0  0  0  0  0  0  0
   39.5380   23.5320   35.9950 C   0  0  0  0  0  2  0  0  0  0  0  0
   39.7750   22.9640   37.3740 C   0  0  0  0  0  2  0  0  0  0  0  0
   38.6180   23.0610   38.3040 C   0  0  0  0  0  3  0  0  0  0  0  0
   37.8390   22.3070   38.0530 H   0  0  0  0  0  0  0  0  0  0  0  0
   38.0900   24.4770   38.2840 C   0  0  0  0  0  2  0  0  0  0  0  0
   37.6600   24.7130   36.8290 C   0  0  0  0  0  2  0  0  0  0  0  0
  1  7  1  6  0  0  0
  1  2  1  0  0  0  0
  1  6  1  0  0  0  0
  2  3  1  0  0  0  0
  3 10  1  1  0  0  0
  3  4  1  0  0  0  0
  3 26  1  0  0  0  0
  4 12  1  0  0  0  0
  5 14  1  0  0  0  0
  5  4  1  0  0  0  0
  6 16  1  0  0  0  0
  6  5  1  0  0  0  0
  8  2  1  0  0  0  0
  9  2  1  0  0  0  0
 11  4  1  0  0  0  0
 13  5  1  0  0  0  0
 15  6  1  0  0  0  0
 17 22  1  0  0  0  0
 17  1  1  0  0  0  0
 18 17  2  0  0  0  0
 19 20  2  0  0  0  0
 19 18  1  0  0  0  0
 20 21  1  0  0  0  0
 21 25  1  0  0  0  0
 21 22  2  0  0  0  0
 23 18  1  0  0  0  0
 24 19  1  0  0  0  0
 26 27  1  0  0  0  0
 26 32  1  0  0  0  0
 27 28  1  0  0  0  0
 28 29  1  0  0  0  0
 30 29  1  0  0  0  0
 31 29  1  0  0  0  0
 32 31  1  0  0  0  0
M  END
>  <minimizedAffinity>
-5.3732357

$$$$

 OpenBabel03272505563D

 32 34  0  0  1  0  0  0  0  0999 V2000
   38.3120   27.0230   32.9240 C   0  0  2  0  0  0  0  0  0  0  0  0
   39.5110   26.8260   33.8220 C   0  0  0  0  0  0  0  0  0  0  0  0
   39.1610   26.4910   35.2370 C   0  0  1  0  0  0  0  0  0  0  0  0
   38.1940   27.4480   35.8470 C   0  0  0  0  0  0  0  0  0  0  0  0
   37.1010   27.8980   34.9220 C   0  0  0  0  0  0  0  0  0  0  0  0
   37.0270   27.0550   33.6760 C   0  0  0  0  0  0  0  0  0  0  0  0
   38.4060   27.9580   32.3290 H   0  0  0  0  0  0  0  0  0  0  0  0
   40.1290   26.0100   33.4160 H   0  0  0  0  0  0  0  0  0  0  0  0
   40.1250   27.7490   33.7630 H   0  0  0  0  0  0  0  0  0  0  0  0
   40.1320   26.6670   35.8010 H   0  0  0  0  0  0  0  0  0  0  0  0
   38.7420   28.3960   36.1320 H   0  0  0  0  0  0  0  0  0  0  0  0
   37.7340   27.1070   36.7660 H   0  0  0  0  0  0  0  0  0  0  0  0
   37.2220   28.9520   34.5790 H   0  0  0  0  0  0  0  0  0  0  0  0
   36.0980   27.8550   35.4110 H   0  0  0  0  0  0  0  0  0  0  0  0
   36.2680   27.5300   33.0130 H   0  0  0  0  0  0  0  0  0  0  0  0
   36.6500   26.0380   33.8880 H   0  0  0  0  0  0  0  0  0  0  0  0
   38.2350   25.9030   31.9380 C   0  0  0  0  0  0  0  0  0  0  0  0
   37.1550   25.0150   32.0800 C   0  0  0  0  0  0  0  0  0  0  0  0
   37.0760   23.9640   31.1730 C   0  0  0  0  0  0  0  0  0  0  0  0
   38.0370   23.8350   30.1930 N   0  0  0  0  0  0  0  0  0  0  0  0
   39.0730   24.7240   30.0930 C   0  0  0  0  0  0  0  0  0  0  0  0
   39.1530   25.7420   30.9670 N   0  0  0  0  0  0  0  0  0  0  0  0
   36.3820   25.0470   32.8040 H   0  0  0  0  0  0  0  0  0  0  0  0
   36.3070   23.2270   31.1750 H   0  0  0  0  0  0  0  0  0  0  0  0
   39.7850   24.5530   29.2990 H   0  0  0  0  0  0  0  0  0  0  0  0
   38.9010   25.1270   35.3740 N   0  0  0  0  0  0  0  0  0  0  0  0
   39.9240   24.2070   35.0560 C   0  0  0  0  0  2  0  0  0  0  0  0
   40.3610   23.2830   36.1660 C   0  0  0  0  0  2  0  0  0  0  0  0
   39.2740   22.8280   37.0740 C   0  0  0  0  0  3  0  0  0  0  0  0
   38.6420   22.0530   36.5840 H   0  0  0  0  0  0  0  0  0  0  0  0
   38.4790   24.0300   37.5270 C   0  0  0  0  0  2  0  0  0  0  0  0
   37.9130   24.6340   36.2340 C   0  0  0  0  0  2  0  0  0  0  0  0
  1  7  1  6  0  0  0
  1  6  1  0  0  0  0
  1  2  1  0  0  0  0
  2  3  1  0  0  0  0
  3 26  1  0  0  0  0
  3 10  1  1  0  0  0
  3  4  1  0  0  0  0
  4 11  1  0  0  0  0
  4 12  1  0  0  0  0
  5 14  1  0  0  0  0
  5  4  1  0  0  0  0
  6 16  1  0  0  0  0
  6  5  1  0  0  0  0
  8  2  1  0  0  0  0
  9  2  1  0  0  0  0
 13  5  1  0  0  0  0
 15  6  1  0  0  0  0
 17 18  1  0  0  0  0
 17  1  1  0  0  0  0
 18 23  1  0  0  0  0
 19 24  1  0  0  0  0
 19 18  2  0  0  0  0
 20 19  1  0  0  0  0
 21 20  2  0  0  0  0
 21 22  1  0  0  0  0
 22 17  2  0  0  0  0
 25 21  1  0  0  0  0
 26 32  1  0  0  0  0
 27 26  1  0  0  0  0
 27 28  1  0  0  0  0
 28 29  1  0  0  0  0
 29 31  1  0  0  0  0
 30 29  1  0  0  0  0
 32 31  1  0  0  0  0
M  END
>  <minimizedAffinity>
-4.88995218

$$$$

 OpenBabel03272505563D

 32 34  0  0  1  0  0  0  0  0999 V2000
   36.8130   24.3510   30.9670 C   0  0  2  0  0  0  0  0  0  0  0  0
   38.1380   25.0430   31.1840 C   0  0  0  0  0  0  0  0  0  0  0  0
   38.0390   26.3100   31.9730 C   0  0  1  0  0  0  0  0  0  0  0  0
   37.0260   27.2620   31.4340 C   0  0  0  0  0  0  0  0  0  0  0  0
   35.7620   26.6140   30.9500 C   0  0  0  0  0  0  0  0  0  0  0  0
   35.6520   25.1790   31.3960 C   0  0  0  0  0  0  0  0  0  0  0  0
   36.6800   24.0670   29.9000 H   0  0  0  0  0  0  0  0  0  0  0  0
   38.8150   24.3560   31.7160 H   0  0  0  0  0  0  0  0  0  0  0  0
   38.5880   25.2210   30.1850 H   0  0  0  0  0  0  0  0  0  0  0  0
   39.0380   26.8180   31.7880 H   0  0  0  0  0  0  0  0  0  0  0  0
   37.4540   27.7790   30.5220 H   0  0  0  0  0  0  0  0  0  0  0  0
   36.7540   28.0660   32.1060 H   0  0  0  0  0  0  0  0  0  0  0  0
   35.6710   26.6030   29.8390 H   0  0  0  0  0  0  0  0  0  0  0  0
   34.8540   27.1460   31.3210 H   0  0  0  0  0  0  0  0  0  0  0  0
   34.7470   24.7590   30.9020 H   0  0  0  0  0  0  0  0  0  0  0  0
   35.4700   25.0980   32.4830 H   0  0  0  0  0  0  0  0  0  0  0  0
   36.7780   23.0770   31.7480 C   0  0  0  0  0  0  0  0  0  0  0  0
   35.5430   22.4090   31.8020 C   0  0  0  0  0  0  0  0  0  0  0  0
   35.4950   21.2270   32.5330 C   0  0  0  0  0  0  0  0  0  0  0  0
   36.6320   20.7670   33.1620 N   0  0  0  0  0  0  0  0  0  0  0  0
   37.8140   21.4520   33.0810 C   0  0  0  0  0  0  0  0  0  0  0  0
   37.8660   22.5950   32.3760 N   0  0  0  0  0  0  0  0  0  0  0  0
   34.6300   22.6990   31.3500 H   0  0  0  0  0  0  0  0  0  0  0  0
   34.6210   20.6290   32.6490 H   0  0  0  0  0  0  0  0  0  0  0  0
   38.6590   21.0260   33.6020 H   0  0  0  0  0  0  0  0  0  0  0  0
   38.0150   26.0410   33.3420 N   0  0  0  0  0  0  0  0  0  0  0  0
   39.2090   25.6280   33.9720 C   0  0  0  0  0  2  0  0  0  0  0  0
   39.7050   26.4980   35.1010 C   0  0  0  0  0  2  0  0  0  0  0  0
   38.6410   27.0980   35.9510 C   0  0  0  0  0  3  0  0  0  0  0  0
   38.2020   26.3380   36.6370 H   0  0  0  0  0  0  0  0  0  0  0  0
   37.6090   27.7450   35.0580 C   0  0  0  0  0  2  0  0  0  0  0  0
   37.0590   26.5970   34.1990 C   0  0  0  0  0  2  0  0  0  0  0  0
  1  7  1  6  0  0  0
  1  2  1  0  0  0  0
  1  6  1  0  0  0  0
  1 17  1  0  0  0  0
  2  8  1  0  0  0  0
  2  3  1  0  0  0  0
  3 10  1  6  0  0  0
  3 26  1  0  0  0  0
  4  3  1  0  0  0  0
  4 12  1  0  0  0  0
  5 14  1  0  0  0  0
  5  6  1  0  0  0  0
  5  4  1  0  0  0  0
  6 16  1  0  0  0  0
  9  2  1  0  0  0  0
 11  4  1  0  0  0  0
 13  5  1  0  0  0  0
 15  6  1  0  0  0  0
 17 18  2  0  0  0  0
 17 22  1  0  0  0  0
 18 19  1  0  0  0  0
 19 24  1  0  0  0  0
 19 20  2  0  0  0  0
 21 20  1  0  0  0  0
 21 25  1  0  0  0  0
 22 21  2  0  0  0  0
 23 18  1  0  0  0  0
 26 27  1  0  0  0  0
 26 32  1  0  0  0  0
 27 28  1  0  0  0  0
 28 29  1  0  0  0  0
 29 30  1  0  0  0  0
 31 29  1  0  0  0  0
 32 31  1  0  0  0  0
M  END
>  <minimizedAffinity>
-4.83979988

$$$$

 OpenBabel03272505563D

 32 34  0  0  1  0  0  0  0  0999 V2000
   39.9570   22.1360   36.7000 C   0  0  2  0  0  0  0  0  0  0  0  0
   38.7760   22.3970   35.7940 C   0  0  0  0  0  0  0  0  0  0  0  0
   38.0370   23.6590   36.1080 C   0  0  1  0  0  0  0  0  0  0  0  0
   37.6400   23.7680   37.5410 C   0  0  0  0  0  0  0  0  0  0  0  0
   38.6760   23.2800   38.5100 C   0  0  0  0  0  0  0  0  0  0  0  0
   40.0170   23.0750   37.8550 C   0  0  0  0  0  0  0  0  0  0  0  0
   39.9440   21.0920   37.0830 H   0  0  0  0  0  0  0  0  0  0  0  0
   39.1330   22.4550   34.7530 H   0  0  0  0  0  0  0  0  0  0  0  0
   38.1100   21.5110   35.8530 H   0  0  0  0  0  0  0  0  0  0  0  0
   37.0570   23.5410   35.5470 H   0  0  0  0  0  0  0  0  0  0  0  0
   36.7380   23.1100   37.7250 H   0  0  0  0  0  0  0  0  0  0  0  0
   37.3290   24.7570   37.8540 H   0  0  0  0  0  0  0  0  0  0  0  0
   38.4100   22.3080   38.9860 H   0  0  0  0  0  0  0  0  0  0  0  0
   38.8270   23.9960   39.3540 H   0  0  0  0  0  0  0  0  0  0  0  0
   40.6810   22.6140   38.6210 H   0  0  0  0  0  0  0  0  0  0  0  0
   40.4920   24.0340   37.5790 H   0  0  0  0  0  0  0  0  0  0  0  0
   41.2260   22.2850   35.9250 C   0  0  0  0  0  0  0  0  0  0  0  0
   42.2890   22.9300   36.5800 C   0  0  0  0  0  0  0  0  0  0  0  0
   43.4730   23.0810   35.8680 C   0  0  0  0  0  0  0  0  0  0  0  0
   43.5570   22.6060   34.5760 N   0  0  0  0  0  0  0  0  0  0  0  0
   42.4950   21.9840   33.9780 C   0  0  0  0  0  0  0  0  0  0  0  0
   41.3490   21.8350   34.6630 N   0  0  0  0  0  0  0  0  0  0  0  0
   42.3000   23.3220   37.5640 H   0  0  0  0  0  0  0  0  0  0  0  0
   44.3490   23.5510   36.2520 H   0  0  0  0  0  0  0  0  0  0  0  0
   42.6420   21.6410   32.9650 H   0  0  0  0  0  0  0  0  0  0  0  0
   38.6630   24.7600   35.5210 N   0  0  0  0  0  0  0  0  0  0  0  0
   39.0280   24.6850   34.1590 C   0  0  0  0  0  2  0  0  0  0  0  0
   38.4230   25.7240   33.2470 C   0  0  0  0  0  2  0  0  0  0  0  0
   38.2560   27.0740   33.8500 C   0  0  0  0  0  3  0  0  0  0  0  0
   39.2330   27.6030   33.9190 H   0  0  0  0  0  0  0  0  0  0  0  0
   37.5720   26.9310   35.1890 C   0  0  0  0  0  2  0  0  0  0  0  0
   38.5220   26.0590   36.0220 C   0  0  0  0  0  2  0  0  0  0  0  0
  1  7  1  1  0  0  0
  1  6  1  0  0  0  0
  2  9  1  0  0  0  0
  2  3  1  0  0  0  0
  2  1  1  0  0  0  0
  3 10  1  6  0  0  0
  3  4  1  0  0  0  0
  4 11  1  0  0  0  0
  4 12  1  0  0  0  0
  4  5  1  0  0  0  0
  5 13  1  0  0  0  0
  5 14  1  0  0  0  0
  6  5  1  0  0  0  0
  6 15  1  0  0  0  0
  8  2  1  0  0  0  0
 16  6  1  0  0  0  0
 17 18  1  0  0  0  0
 17  1  1  0  0  0  0
 18 23  1  0  0  0  0
 19 24  1  0  0  0  0
 19 18  2  0  0  0  0
 20 19  1  0  0  0  0
 21 20  2  0  0  0  0
 21 22  1  0  0  0  0
 22 17  2  0  0  0  0
 25 21  1  0  0  0  0
 26 32  1  0  0  0  0
 26  3  1  0  0  0  0
 27 26  1  0  0  0  0
 28 29  1  0  0  0  0
 28 27  1  0  0  0  0
 29 30  1  0  0  0  0
 29 31  1  0  0  0  0
 31 32  1  0  0  0  0
M  END
>  <minimizedAffinity>
-4.63038206

$$$$

 OpenBabel03272505563D

 32 34  0  0  1  0  0  0  0  0999 V2000
   39.0620   25.8910   32.2620 C   0  0  2  0  0  0  0  0  0  0  0  0
   39.6120   24.6120   32.8480 C   0  0  0  0  0  0  0  0  0  0  0  0
   39.7850   24.6490   34.3330 C   0  0  1  0  0  0  0  0  0  0  0  0
   40.5670   25.8270   34.8060 C   0  0  0  0  0  0  0  0  0  0  0  0
   40.2580   27.1060   34.0840 C   0  0  0  0  0  0  0  0  0  0  0  0
   39.0060   27.0020   33.2520 C   0  0  0  0  0  0  0  0  0  0  0  0
   39.6610   26.2190   31.3840 H   0  0  0  0  0  0  0  0  0  0  0  0
   38.9280   23.7840   32.5990 H   0  0  0  0  0  0  0  0  0  0  0  0
   40.5710   24.3960   32.3330 H   0  0  0  0  0  0  0  0  0  0  0  0
   40.4540   23.7560   34.5460 H   0  0  0  0  0  0  0  0  0  0  0  0
   41.6660   25.6430   34.6110 H   0  0  0  0  0  0  0  0  0  0  0  0
   40.5020   26.0190   35.8690 H   0  0  0  0  0  0  0  0  0  0  0  0
   41.0680   27.4260   33.3880 H   0  0  0  0  0  0  0  0  0  0  0  0
   40.1150   27.9580   34.7900 H   0  0  0  0  0  0  0  0  0  0  0  0
   38.9240   27.9520   32.6780 H   0  0  0  0  0  0  0  0  0  0  0  0
   38.0980   26.9470   33.8790 H   0  0  0  0  0  0  0  0  0  0  0  0
   37.6740   25.6570   31.7600 C   0  0  0  0  0  0  0  0  0  0  0  0
   37.3440   24.3330   31.4220 C   0  0  0  0  0  0  0  0  0  0  0  0
   36.0580   24.1040   30.9460 C   0  0  0  0  0  0  0  0  0  0  0  0
   35.1770   25.1580   30.8240 N   0  0  0  0  0  0  0  0  0  0  0  0
   35.5440   26.4320   31.1650 C   0  0  0  0  0  0  0  0  0  0  0  0
   36.7850   26.6590   31.6260 N   0  0  0  0  0  0  0  0  0  0  0  0
   37.9620   23.4760   31.4860 H   0  0  0  0  0  0  0  0  0  0  0  0
   35.6860   23.1480   30.6580 H   0  0  0  0  0  0  0  0  0  0  0  0
   34.7970   27.2020   31.0400 H   0  0  0  0  0  0  0  0  0  0  0  0
   38.5810   24.3650   34.9790 N   0  0  0  0  0  0  0  0  0  0  0  0
   37.9850   23.1010   34.7780 C   0  0  0  0  0  2  0  0  0  0  0  0
   37.7660   22.2610   36.0120 C   0  0  0  0  0  2  0  0  0  0  0  0
   37.3900   23.0210   37.2350 C   0  0  0  0  0  3  0  0  0  0  0  0
   36.3280   23.3520   37.1880 H   0  0  0  0  0  0  0  0  0  0  0  0
   38.3550   24.1700   37.4130 C   0  0  0  0  0  2  0  0  0  0  0  0
   38.1840   25.0230   36.1490 C   0  0  0  0  0  2  0  0  0  0  0  0
  1  7  1  6  0  0  0
  1  2  1  0  0  0  0
  1  6  1  0  0  0  0
  2  3  1  0  0  0  0
  3 10  1  1  0  0  0
  3  4  1  0  0  0  0
  3 26  1  0  0  0  0
  4 12  1  0  0  0  0
  5 14  1  0  0  0  0
  5  4  1  0  0  0  0
  6 16  1  0  0  0  0
  6  5  1  0  0  0  0
  8  2  1  0  0  0  0
  9  2  1  0  0  0  0
 11  4  1  0  0  0  0
 13  5  1  0  0  0  0
 15  6  1  0  0  0  0
 17  1  1  0  0  0  0
 18 23  1  0  0  0  0
 18 17  2  0  0  0  0
 19 18  1  0  0  0  0
 20 19  2  0  0  0  0
 20 21  1  0  0  0  0
 21 22  2  0  0  0  0
 22 17  1  0  0  0  0
 24 19  1  0  0  0  0
 25 21  1  0  0  0  0
 26 32  1  0  0  0  0
 27 26  1  0  0  0  0
 27 28  1  0  0  0  0
 28 29  1  0  0  0  0
 29 31  1  0  0  0  0
 30 29  1  0  0  0  0
 32 31  1  0  0  0  0
M  END
>  <minimizedAffinity>
-4.55468607

$$$$

 OpenBabel03272505563D

 32 34  0  0  1  0  0  0  0  0999 V2000
   40.2820   25.0200   34.8440 C   0  0  2  0  0  0  0  0  0  0  0  0
   40.0170   26.4920   35.0490 C   0  0  0  0  0  0  0  0  0  0  0  0
   39.6150   27.2170   33.8040 C   0  0  1  0  0  0  0  0  0  0  0  0
   40.5560   27.0020   32.6670 C   0  0  0  0  0  0  0  0  0  0  0  0
   41.0730   25.5980   32.5490 C   0  0  0  0  0  0  0  0  0  0  0  0
   40.2990   24.6320   33.4060 C   0  0  0  0  0  0  0  0  0  0  0  0
   41.2450   24.7170   35.3100 H   0  0  0  0  0  0  0  0  0  0  0  0
   39.2120   26.6080   35.7930 H   0  0  0  0  0  0  0  0  0  0  0  0
   40.9310   26.9350   35.4990 H   0  0  0  0  0  0  0  0  0  0  0  0
   39.7430   28.3110   34.0790 H   0  0  0  0  0  0  0  0  0  0  0  0
   41.4770   27.6390   32.8250 H   0  0  0  0  0  0  0  0  0  0  0  0
   40.1750   27.3010   31.6990 H   0  0  0  0  0  0  0  0  0  0  0  0
   42.1410   25.4960   32.8520 H   0  0  0  0  0  0  0  0  0  0  0  0
   41.0220   25.2230   31.4990 H   0  0  0  0  0  0  0  0  0  0  0  0
   40.8210   23.6510   33.3340 H   0  0  0  0  0  0  0  0  0  0  0  0
   39.2790   24.4610   33.0150 H   0  0  0  0  0  0  0  0  0  0  0  0
   39.2170   24.2190   35.5200 C   0  0  0  0  0  0  0  0  0  0  0  0
   38.8910   22.9850   34.9310 C   0  0  0  0  0  0  0  0  0  0  0  0
   37.8960   22.2340   35.5460 C   0  0  0  0  0  0  0  0  0  0  0  0
   37.2810   22.7160   36.6820 N   0  0  0  0  0  0  0  0  0  0  0  0
   37.6310   23.9240   37.2200 C   0  0  0  0  0  0  0  0  0  0  0  0
   38.5930   24.6540   36.6300 N   0  0  0  0  0  0  0  0  0  0  0  0
   39.3150   22.5500   34.0620 H   0  0  0  0  0  0  0  0  0  0  0  0
   37.5590   21.2840   35.1980 H   0  0  0  0  0  0  0  0  0  0  0  0
   37.1020   24.2310   38.1100 H   0  0  0  0  0  0  0  0  0  0  0  0
   38.2500   27.0600   33.5580 N   0  0  0  0  0  0  0  0  0  0  0  0
   37.3380   27.3360   34.6000 C   0  0  0  0  0  2  0  0  0  0  0  0
   36.3120   28.4080   34.3230 C   0  0  0  0  0  2  0  0  0  0  0  0
   35.8060   28.4530   32.9250 C   0  0  0  0  0  3  0  0  0  0  0  0
   35.0910   27.6210   32.7320 H   0  0  0  0  0  0  0  0  0  0  0  0
   36.9830   28.4430   31.9780 C   0  0  0  0  0  2  0  0  0  0  0  0
   37.7090   27.1210   32.2690 C   0  0  0  0  0  2  0  0  0  0  0  0
  1  2  1  0  0  0  0
  1  7  1  1  0  0  0
  1 17  1  0  0  0  0
  2  9  1  0  0  0  0
  2  8  1  0  0  0  0
  3 10  1  1  0  0  0
  3  2  1  0  0  0  0
  4 11  1  0  0  0  0
  4  3  1  0  0  0  0
  5  4  1  0  0  0  0
  5 13  1  0  0  0  0
  5  6  1  0  0  0  0
  6  1  1  0  0  0  0
 12  4  1  0  0  0  0
 14  5  1  0  0  0  0
 15  6  1  0  0  0  0
 16  6  1  0  0  0  0
 17 22  1  0  0  0  0
 18 17  2  0  0  0  0
 18 19  1  0  0  0  0
 19 20  2  0  0  0  0
 20 21  1  0  0  0  0
 21 25  1  0  0  0  0
 22 21  2  0  0  0  0
 23 18  1  0  0  0  0
 24 19  1  0  0  0  0
 26  3  1  0  0  0  0
 26 27  1  0  0  0  0
 28 27  1  0  0  0  0
 29 28  1  0  0  0  0
 30 29  1  0  0  0  0
 31 32  1  0  0  0  0
 31 29  1  0  0  0  0
 32 26  1  0  0  0  0
M  END
>  <minimizedAffinity>
-4.52424717

$$$$

 OpenBabel03272505563D

 32 34  0  0  1  0  0  0  0  0999 V2000
   37.1860   24.3080   30.8230 C   0  0  2  0  0  0  0  0  0  0  0  0
   38.4500   24.7660   31.5110 C   0  0  0  0  0  0  0  0  0  0  0  0
   38.2520   25.9250   32.4360 C   0  0  1  0  0  0  0  0  0  0  0  0
   37.5500   27.0750   31.7980 C   0  0  0  0  0  0  0  0  0  0  0  0
   36.4270   26.6840   30.8820 C   0  0  0  0  0  0  0  0  0  0  0  0
   36.0420   25.2360   31.0400 C   0  0  0  0  0  0  0  0  0  0  0  0
   37.3470   24.1830   29.7300 H   0  0  0  0  0  0  0  0  0  0  0  0
   38.8630   23.9260   32.0930 H   0  0  0  0  0  0  0  0  0  0  0  0
   39.1930   25.0000   30.7210 H   0  0  0  0  0  0  0  0  0  0  0  0
   39.3080   26.3010   32.6220 H   0  0  0  0  0  0  0  0  0  0  0  0
   38.2810   27.6340   31.1390 H   0  0  0  0  0  0  0  0  0  0  0  0
   37.1750   27.8190   32.4890 H   0  0  0  0  0  0  0  0  0  0  0  0
   36.6700   26.8260   29.8030 H   0  0  0  0  0  0  0  0  0  0  0  0
   35.5090   27.2920   31.0660 H   0  0  0  0  0  0  0  0  0  0  0  0
   35.2860   25.0190   30.2510 H   0  0  0  0  0  0  0  0  0  0  0  0
   35.5370   25.0470   32.0040 H   0  0  0  0  0  0  0  0  0  0  0  0
   36.7880   22.9650   31.3460 C   0  0  0  0  0  0  0  0  0  0  0  0
   37.7550   21.9490   31.2640 C   0  0  0  0  0  0  0  0  0  0  0  0
   37.3950   20.6930   31.7390 C   0  0  0  0  0  0  0  0  0  0  0  0
   36.1330   20.4960   32.2580 N   0  0  0  0  0  0  0  0  0  0  0  0
   35.2230   21.5160   32.3170 C   0  0  0  0  0  0  0  0  0  0  0  0
   35.5670   22.7320   31.8600 N   0  0  0  0  0  0  0  0  0  0  0  0
   38.7390   22.0220   30.8780 H   0  0  0  0  0  0  0  0  0  0  0  0
   38.0370   19.8420   31.7340 H   0  0  0  0  0  0  0  0  0  0  0  0
   34.2560   21.2810   32.7380 H   0  0  0  0  0  0  0  0  0  0  0  0
   37.7940   25.4930   33.6820 N   0  0  0  0  0  0  0  0  0  0  0  0
   38.3750   24.3410   34.2550 C   0  0  0  0  0  2  0  0  0  0  0  0
   39.0300   24.5220   35.6020 C   0  0  0  0  0  2  0  0  0  0  0  0
   38.3500   25.4840   36.5110 C   0  0  0  0  0  3  0  0  0  0  0  0
   37.4250   25.0390   36.9430 H   0  0  0  0  0  0  0  0  0  0  0  0
   38.0860   26.7660   35.7570 C   0  0  0  0  0  2  0  0  0  0  0  0
   37.1730   26.3550   34.5930 C   0  0  0  0  0  2  0  0  0  0  0  0
  1  7  1  6  0  0  0
  1  6  1  0  0  0  0
  1 17  1  0  0  0  0
  1  2  1  0  0  0  0
  2  8  1  0  0  0  0
  2  3  1  0  0  0  0
  3 10  1  1  0  0  0
  3 26  1  0  0  0  0
  4  3  1  0  0  0  0
  4 12  1  0  0  0  0
  5  6  1  0  0  0  0
  5 14  1  0  0  0  0
  5  4  1  0  0  0  0
  6 16  1  0  0  0  0
  9  2  1  0  0  0  0
 11  4  1  0  0  0  0
 13  5  1  0  0  0  0
 15  6  1  0  0  0  0
 17 22  1  0  0  0  0
 18 17  2  0  0  0  0
 18 19  1  0  0  0  0
 19 20  2  0  0  0  0
 20 21  1  0  0  0  0
 21 25  1  0  0  0  0
 22 21  2  0  0  0  0
 23 18  1  0  0  0  0
 24 19  1  0  0  0  0
 26 27  1  0  0  0  0
 26 32  1  0  0  0  0
 27 28  1  0  0  0  0
 28 29  1  0  0  0  0
 29 30  1  0  0  0  0
 31 29  1  0  0  0  0
 32 31  1  0  0  0  0
M  END
>  <minimizedAffinity>
-4.46143389

$$$$

 OpenBabel03272505563D

 32 34  0  0  1  0  0  0  0  0999 V2000
   38.7100   21.8750   34.3090 C   0  0  2  0  0  0  0  0  0  0  0  0
   39.4770   22.8010   33.3950 C   0  0  0  0  0  0  0  0  0  0  0  0
   38.6140   23.5680   32.4440 C   0  0  1  0  0  0  0  0  0  0  0  0
   37.6860   22.7020   31.6620 C   0  0  0  0  0  0  0  0  0  0  0  0
   37.0710   21.5820   32.4500 C   0  0  0  0  0  0  0  0  0  0  0  0
   37.2740   21.7520   33.9330 C   0  0  0  0  0  0  0  0  0  0  0  0
   39.1660   20.8600   34.3260 H   0  0  0  0  0  0  0  0  0  0  0  0
   40.0390   23.5220   34.0100 H   0  0  0  0  0  0  0  0  0  0  0  0
   40.2300   22.1880   32.8570 H   0  0  0  0  0  0  0  0  0  0  0  0
   39.3510   23.9650   31.6760 H   0  0  0  0  0  0  0  0  0  0  0  0
   38.2650   22.1910   30.8350 H   0  0  0  0  0  0  0  0  0  0  0  0
   36.8890   23.2310   31.1550 H   0  0  0  0  0  0  0  0  0  0  0  0
   37.4880   20.5810   32.1910 H   0  0  0  0  0  0  0  0  0  0  0  0
   35.9710   21.5040   32.2740 H   0  0  0  0  0  0  0  0  0  0  0  0
   36.8830   20.8280   34.4170 H   0  0  0  0  0  0  0  0  0  0  0  0
   36.6710   22.5850   34.3390 H   0  0  0  0  0  0  0  0  0  0  0  0
   38.7720   22.3880   35.7110 C   0  0  0  0  0  0  0  0  0  0  0  0
   39.9920   22.2200   36.3870 C   0  0  0  0  0  0  0  0  0  0  0  0
   40.0610   22.6860   37.6950 C   0  0  0  0  0  0  0  0  0  0  0  0
   38.9550   23.2790   38.2660 N   0  0  0  0  0  0  0  0  0  0  0  0
   37.7850   23.4200   37.5700 C   0  0  0  0  0  0  0  0  0  0  0  0
   37.7150   22.9720   36.3050 N   0  0  0  0  0  0  0  0  0  0  0  0
   40.8800   21.7750   36.0180 H   0  0  0  0  0  0  0  0  0  0  0  0
   40.9270   22.6190   38.3110 H   0  0  0  0  0  0  0  0  0  0  0  0
   36.9660   23.8950   38.0880 H   0  0  0  0  0  0  0  0  0  0  0  0
   38.0830   24.7010   33.0600 N   0  0  0  0  0  0  0  0  0  0  0  0
   38.9540   25.5590   33.7670 C   0  0  0  0  0  2  0  0  0  0  0  0
   39.0130   26.9910   33.2930 C   0  0  0  0  0  2  0  0  0  0  0  0
   37.7200   27.5510   32.8140 C   0  0  0  0  0  3  0  0  0  0  0  0
   37.0480   27.7900   33.6690 H   0  0  0  0  0  0  0  0  0  0  0  0
   37.1010   26.5840   31.8330 C   0  0  0  0  0  2  0  0  0  0  0  0
   36.8880   25.2940   32.6370 C   0  0  0  0  0  2  0  0  0  0  0  0
  1  7  1  6  0  0  0
  1 17  1  0  0  0  0
  2  8  1  0  0  0  0
  2  1  1  0  0  0  0
  3 10  1  6  0  0  0
  3 26  1  0  0  0  0
  3  2  1  0  0  0  0
  4  3  1  0  0  0  0
  4  5  1  0  0  0  0
  5  6  1  0  0  0  0
  6  1  1  0  0  0  0
  6 16  1  0  0  0  0
  6 15  1  0  0  0  0
  9  2  1  0  0  0  0
 11  4  1  0  0  0  0
 12  4  1  0  0  0  0
 13  5  1  0  0  0  0
 14  5  1  0  0  0  0
 17 22  2  0  0  0  0
 17 18  1  0  0  0  0
 18 19  2  0  0  0  0
 19 20  1  0  0  0  0
 19 24  1  0  0  0  0
 21 25  1  0  0  0  0
 21 20  2  0  0  0  0
 22 21  1  0  0  0  0
 23 18  1  0  0  0  0
 26 27  1  0  0  0  0
 28 27  1  0  0  0  0
 29 28  1  0  0  0  0
 29 30  1  0  0  0  0
 31 32  1  0  0  0  0
 31 29  1  0  0  0  0
 32 26  1  0  0  0  0
M  END
>  <minimizedAffinity>
-4.4462924

$$$$

 OpenBabel03272505563D

 32 34  0  0  1  0  0  0  0  0999 V2000
   37.7120   25.0230   35.2780 C   0  0  2  0  0  0  0  0  0  0  0  0
   38.2460   24.7560   33.8910 C   0  0  0  0  0  0  0  0  0  0  0  0
   38.9980   25.9040   33.2970 C   0  0  1  0  0  0  0  0  0  0  0  0
   38.2400   27.1870   33.3340 C   0  0  0  0  0  0  0  0  0  0  0  0
   37.4620   27.4110   34.5980 C   0  0  0  0  0  0  0  0  0  0  0  0
   37.8560   26.4480   35.6870 C   0  0  0  0  0  0  0  0  0  0  0  0
   36.6410   24.7320   35.3580 H   0  0  0  0  0  0  0  0  0  0  0  0
   38.9190   23.8840   33.9310 H   0  0  0  0  0  0  0  0  0  0  0  0
   37.3850   24.4620   33.2540 H   0  0  0  0  0  0  0  0  0  0  0  0
   39.0620   25.6400   32.1950 H   0  0  0  0  0  0  0  0  0  0  0  0
   37.4620   27.1800   32.5120 H   0  0  0  0  0  0  0  0  0  0  0  0
   38.8330   28.0730   33.1450 H   0  0  0  0  0  0  0  0  0  0  0  0
   36.3610   27.2950   34.4630 H   0  0  0  0  0  0  0  0  0  0  0  0
   37.6080   28.4420   35.0000 H   0  0  0  0  0  0  0  0  0  0  0  0
   37.1560   26.6210   36.5360 H   0  0  0  0  0  0  0  0  0  0  0  0
   38.8670   26.6610   36.0800 H   0  0  0  0  0  0  0  0  0  0  0  0
   38.4510   24.1870   36.2710 C   0  0  0  0  0  0  0  0  0  0  0  0
   38.1030   24.3620   37.6210 C   0  0  0  0  0  0  0  0  0  0  0  0
   38.7890   23.5950   38.5560 C   0  0  0  0  0  0  0  0  0  0  0  0
   39.7620   22.7140   38.1340 N   0  0  0  0  0  0  0  0  0  0  0  0
   40.0680   22.5770   36.8070 C   0  0  0  0  0  0  0  0  0  0  0  0
   39.4070   23.3160   35.9000 N   0  0  0  0  0  0  0  0  0  0  0  0
   37.3730   25.0160   38.0220 H   0  0  0  0  0  0  0  0  0  0  0  0
   38.6180   23.6350   39.6070 H   0  0  0  0  0  0  0  0  0  0  0  0
   40.8420   21.8670   36.5580 H   0  0  0  0  0  0  0  0  0  0  0  0
   40.3190   25.9160   33.7460 N   0  0  0  0  0  0  0  0  0  0  0  0
   41.1550   24.8250   33.4230 C   0  0  0  0  0  2  0  0  0  0  0  0
   42.4030   25.1490   32.6380 C   0  0  0  0  0  2  0  0  0  0  0  0
   43.0500   26.4420   32.9860 C   0  0  0  0  0  3  0  0  0  0  0  0
   43.5950   26.3690   33.9540 H   0  0  0  0  0  0  0  0  0  0  0  0
   42.0020   27.5300   32.9860 C   0  0  0  0  0  2  0  0  0  0  0  0
   40.9940   27.1020   34.0610 C   0  0  0  0  0  2  0  0  0  0  0  0
  1  7  1  1  0  0  0
  1  6  1  0  0  0  0
  1 17  1  0  0  0  0
  2  8  1  0  0  0  0
  2  1  1  0  0  0  0
  3 10  1  6  0  0  0
  3  4  1  0  0  0  0
  3 26  1  0  0  0  0
  3  2  1  0  0  0  0
  4  5  1  0  0  0  0
  5 14  1  0  0  0  0
  5  6  1  0  0  0  0
  6 16  1  0  0  0  0
  6 15  1  0  0  0  0
  9  2  1  0  0  0  0
 11  4  1  0  0  0  0
 12  4  1  0  0  0  0
 13  5  1  0  0  0  0
 17 18  1  0  0  0  0
 18 23  1  0  0  0  0
 18 19  2  0  0  0  0
 19 24  1  0  0  0  0
 20 19  1  0  0  0  0
 21 20  2  0  0  0  0
 22 17  2  0  0  0  0
 22 21  1  0  0  0  0
 25 21  1  0  0  0  0
 26 32  1  0  0  0  0
 27 26  1  0  0  0  0
 28 29  1  0  0  0  0
 28 27  1  0  0  0  0
 29 30  1  0  0  0  0
 31 29  1  0  0  0  0
 31 32  1  0  0  0  0
M  END
>  <minimizedAffinity>
-4.40124226

$$$$
