REMARK  Name = 
REMARK  2 active torsions:
REMARK  status: ('A' for Active; 'I' for Inactive)
REMARK    1  A    between atoms: C_3  and  C_12
REMARK    2  A    between atoms: C_5  and  C_14
REMARK                            x       y       z     vdW  Elec       q    Type
REMARK                         _______ _______ _______ _____ _____    ______ ____
ROOT
ATOM      1 BR   UNL     1      37.312  29.336  51.026  0.00  0.00    +0.000 Br
ATOM      2  C   UNL     1      35.961  29.334  49.672  0.00  0.00    +0.000 A 
ATOM      3  C   UNL     1      35.988  30.255  48.636  0.00  0.00    +0.000 A 
ATOM      4  C   UNL     1      34.988  30.190  47.707  0.00  0.00    +0.000 A 
ATOM      5  C   UNL     1      33.970  29.271  47.745  0.00  0.00    +0.000 A 
ATOM      6  C   UNL     1      33.968  28.371  48.781  0.00  0.00    +0.000 A 
ATOM      7  C   UNL     1      34.957  28.407  49.733  0.00  0.00    +0.000 A 
ATOM      8  H   UNL     1      34.986  30.900  46.886  0.00  0.00    +0.000 HD
ATOM      9  H   UNL     1      33.185  27.626  48.854  0.00  0.00    +0.000 HD
ATOM     10  H   UNL     1      34.909  27.672  50.532  0.00  0.00    +0.000 HD
ENDROOT
BRANCH   5  11
ATOM     11  C   UNL     1      32.908  29.203  46.758  0.00  0.00    +0.000 A 
ATOM     12  C   UNL     1      32.264  28.039  46.369  0.00  0.00    +0.000 A 
ATOM     13  C   UNL     1      31.251  28.027  45.419  0.00  0.00    +0.000 A 
ATOM     14  N   UNL     1      30.870  29.172  44.845  0.00  0.00    +0.000 NA
ATOM     15  C   UNL     1      31.490  30.317  45.215  0.00  0.00    +0.000 A 
ATOM     16  N   UNL     1      32.459  30.308  46.129  0.00  0.00    +0.000 NA
ATOM     17  H   UNL     1      32.575  27.110  46.836  0.00  0.00    +0.000 HD
ATOM     18  H   UNL     1      30.796  27.085  45.166  0.00  0.00    +0.000 HD
ATOM     19  N   UNL     1      31.053  31.515  44.580  0.00  0.00    +0.000 N 
ATOM     20  C   UNL     1      31.830  32.716  44.647  0.00  0.00    +0.000 C 
ATOM     21  C   UNL     1      31.694  33.620  43.464  0.00  0.00    +0.000 C 
ATOM     22  C   UNL     1      30.421  33.492  42.714  0.00  0.00    +0.000 C 
ATOM     23  H   UNL     1      30.083  34.500  42.397  0.00  0.00    +0.000 HD
ATOM     24  C   UNL     1      29.309  32.873  43.521  0.00  0.00    +0.000 C 
ATOM     25  C   UNL     1      29.785  31.477  43.857  0.00  0.00    +0.000 C 
ENDBRANCH   5  11
BRANCH   3  30
ATOM     26  C   UNL     1      37.992  33.189  49.466  0.00  0.00    +0.000 A 
ATOM     27  C   UNL     1      39.027  33.168  48.469  0.00  0.00    +0.000 A 
ATOM     28  C   UNL     1      39.004  32.149  47.545  0.00  0.00    +0.000 A 
ATOM     29  N   UNL     1      38.011  31.214  47.616  0.00  0.00    +0.000 NA
ATOM     30  C   UNL     1      37.050  31.250  48.556  0.00  0.00    +0.000 A 
ATOM     31  N   UNL     1      37.045  32.249  49.488  0.00  0.00    +0.000 NA
ATOM     32  H   UNL     1      38.032  34.007  50.187  0.00  0.00    +0.000 HD
ATOM     33  H   UNL     1      39.795  33.929  48.449  0.00  0.00    +0.000 HD
ATOM     34  H   UNL     1      39.743  32.059  46.764  0.00  0.00    +0.000 HD
ENDBRANCH   3  30
TORSDOF 2
