
 OpenBabel03272510323D

 26 28  0  0  0  0  0  0  0  0999 V2000
   35.8700   29.8880   47.9620 C   0  0  0  0  0  0  0  0  0  0  0  0
   34.9520   29.8490   46.9430 C   0  0  0  0  0  0  0  0  0  0  0  0
   33.8440   29.0310   46.9980 C   0  0  0  0  0  0  0  0  0  0  0  0
   33.6810   28.2370   48.1270 C   0  0  0  0  0  0  0  0  0  0  0  0
   34.6000   28.2580   49.1780 C   0  0  0  0  0  0  0  0  0  0  0  0
   35.7030   29.0960   49.0840 C   0  0  0  0  0  0  0  0  0  0  0  0
   35.0670   30.4660   46.0500 H   0  0  0  0  0  0  0  0  0  0  0  0
   33.1150   28.9960   46.1960 H   0  0  0  0  0  0  0  0  0  0  0  0
   32.8010   27.6100   48.1340 H   0  0  0  0  0  0  0  0  0  0  0  0
   34.4200   27.6190   50.0330 H   0  0  0  0  0  0  0  0  0  0  0  0
   38.1190   32.6840   48.5880 C   0  0  0  0  0  0  0  0  0  0  0  0
   39.1140   32.5570   47.6210 C   0  0  0  0  0  0  0  0  0  0  0  0
   39.0010   31.4620   46.7180 C   0  0  0  0  0  0  0  0  0  0  0  0
   37.9470   30.6170   46.8490 N   0  0  0  0  0  0  0  0  0  0  0  0
   37.0020   30.7820   47.8080 C   0  0  0  0  0  0  0  0  0  0  0  0
   37.1070   31.8210   48.6660 N   0  0  0  0  0  0  0  0  0  0  0  0
   38.1410   33.4920   49.3070 H   0  0  0  0  0  0  0  0  0  0  0  0
   39.9270   33.2390   47.5460 H   0  0  0  0  0  0  0  0  0  0  0  0
   39.7520   31.3080   45.9350 H   0  0  0  0  0  0  0  0  0  0  0  0
   36.6580   29.1320   50.1470 N   0  0  0  0  0  0  0  0  0  0  0  0
   38.0600   28.6880   50.1760 C   0  0  0  0  0  2  0  0  0  0  0  0
   38.3330   28.0130   51.5040 C   0  0  0  0  0  2  0  0  0  0  0  0
   37.9840   28.8810   52.6710 C   0  0  0  0  0  3  0  0  0  0  0  0
   37.3150   28.3220   53.3600 H   0  0  0  0  0  0  0  0  0  0  0  0
   37.2130   30.1250   52.2450 C   0  0  0  0  0  2  0  0  0  0  0  0
   36.0870   29.7100   51.3500 C   0  0  0  0  0  2  0  0  0  0  0  0
  1  6  1  0  0  0  0
  2  3  1  0  0  0  0
  2  1  2  0  0  0  0
  3  4  2  0  0  0  0
  4  9  1  0  0  0  0
  4  5  1  0  0  0  0
  5 10  1  0  0  0  0
  6  5  2  0  0  0  0
  6 20  1  0  0  0  0
  7  2  1  0  0  0  0
  8  3  1  0  0  0  0
 11 16  1  0  0  0  0
 11 17  1  0  0  0  0
 12 11  2  0  0  0  0
 13 14  2  0  0  0  0
 13 12  1  0  0  0  0
 14 15  1  0  0  0  0
 15  1  1  0  0  0  0
 15 16  2  0  0  0  0
 18 12  1  0  0  0  0
 19 13  1  0  0  0  0
 20 21  1  0  0  0  0
 20 26  1  0  0  0  0
 21 22  1  0  0  0  0
 22 23  1  0  0  0  0
 23 24  1  0  0  0  0
 25 23  1  0  0  0  0
 26 25  1  0  0  0  0
M  END
>  <minimizedAffinity>
-3.23249435

>  <minimizedRMSD>
0.943211496

$$$$
