
 OpenBabel03272510183D

 34 37  0  0  0  0  0  0  0  0999 V2000
   37.3640   29.1700   50.8210 Br  0  0  0  0  0  0  0  0  0  0  0  0
   35.9930   29.3160   49.4960 C   0  0  0  0  0  0  0  0  0  0  0  0
   36.0090   30.3410   48.5620 C   0  0  0  0  0  0  0  0  0  0  0  0
   34.9950   30.3780   47.6470 C   0  0  0  0  0  0  0  0  0  0  0  0
   33.9730   29.4640   47.6050 C   0  0  0  0  0  0  0  0  0  0  0  0
   33.9810   28.4600   48.5400 C   0  0  0  0  0  0  0  0  0  0  0  0
   34.9850   28.3920   49.4750 C   0  0  0  0  0  0  0  0  0  0  0  0
   34.9840   31.1710   46.9060 H   0  0  0  0  0  0  0  0  0  0  0  0
   33.1950   27.7150   48.5470 H   0  0  0  0  0  0  0  0  0  0  0  0
   34.9450   27.5770   50.1930 H   0  0  0  0  0  0  0  0  0  0  0  0
   32.8950   29.5050   46.6330 C   0  0  0  0  0  0  0  0  0  0  0  0
   32.0170   28.4620   46.3830 C   0  0  0  0  0  0  0  0  0  0  0  0
   31.0000   28.5510   45.4410 C   0  0  0  0  0  0  0  0  0  0  0  0
   30.8480   29.6770   44.7370 N   0  0  0  0  0  0  0  0  0  0  0  0
   31.6990   30.7040   44.9700 C   0  0  0  0  0  0  0  0  0  0  0  0
   32.6670   30.5990   45.8790 N   0  0  0  0  0  0  0  0  0  0  0  0
   32.1420   27.5490   46.9560 H   0  0  0  0  0  0  0  0  0  0  0  0
   30.3550   27.7010   45.3010 H   0  0  0  0  0  0  0  0  0  0  0  0
   31.5020   31.8850   44.1990 N   0  0  0  0  0  0  0  0  0  0  0  0
   31.2160   33.1410   44.8250 C   0  0  0  0  0  2  0  0  0  0  0  0
   31.7090   34.3410   44.0820 C   0  0  0  0  0  2  0  0  0  0  0  0
   31.8680   34.1570   42.6190 C   0  0  0  0  0  3  0  0  0  0  0  0
   31.5390   35.0800   42.0990 H   0  0  0  0  0  0  0  0  0  0  0  0
   31.0590   33.0110   42.0680 C   0  0  0  0  0  2  0  0  0  0  0  0
   31.6010   31.7720   42.7470 C   0  0  0  0  0  2  0  0  0  0  0  0
   37.9810   33.2290   49.6030 C   0  0  0  0  0  0  0  0  0  0  0  0
   39.0580   33.2480   48.6510 C   0  0  0  0  0  0  0  0  0  0  0  0
   39.0720   32.2700   47.6840 C   0  0  0  0  0  0  0  0  0  0  0  0
   38.0750   31.3360   47.6720 N   0  0  0  0  0  0  0  0  0  0  0  0
   37.0750   31.3350   48.5710 C   0  0  0  0  0  0  0  0  0  0  0  0
   37.0330   32.2920   49.5440 N   0  0  0  0  0  0  0  0  0  0  0  0
   37.9920   34.0150   50.3600 H   0  0  0  0  0  0  0  0  0  0  0  0
   39.8270   34.0060   48.6970 H   0  0  0  0  0  0  0  0  0  0  0  0
   39.8430   32.2110   46.9310 H   0  0  0  0  0  0  0  0  0  0  0  0
  2  1  1  0  0  0  0
  3 30  1  0  0  0  0
  3  2  2  0  0  0  0
  4  3  1  0  0  0  0
  5  4  2  0  0  0  0
  5  6  1  0  0  0  0
  6  9  1  0  0  0  0
  6  7  2  0  0  0  0
  7  2  1  0  0  0  0
  7 10  1  0  0  0  0
  8  4  1  0  0  0  0
 11  5  1  0  0  0  0
 12 11  1  0  0  0  0
 12 17  1  0  0  0  0
 13 12  2  0  0  0  0
 14 15  2  0  0  0  0
 14 13  1  0  0  0  0
 15 16  1  0  0  0  0
 16 11  2  0  0  0  0
 18 13  1  0  0  0  0
 19 20  1  0  0  0  0
 19 15  1  0  0  0  0
 21 20  1  0  0  0  0
 22 21  1  0  0  0  0
 23 22  1  0  0  0  0
 24 22  1  0  0  0  0
 24 25  1  0  0  0  0
 25 19  1  0  0  0  0
 26 32  1  0  0  0  0
 27 33  1  0  0  0  0
 27 26  2  0  0  0  0
 28 27  1  0  0  0  0
 29 28  2  0  0  0  0
 29 30  1  0  0  0  0
 30 31  2  0  0  0  0
 31 26  1  0  0  0  0
 34 28  1  0  0  0  0
M  END
>  <minimizedAffinity>
-6.85884905

>  <minimizedRMSD>
0.54334271

$$$$
