
 OpenBabel03272507543D

 21 22  0  0  0  0  0  0  0  0999 V2000
   35.4540   29.1300   50.4310 C   0  0  0  0  0  0  0  0  0  0  0  0
   36.3110   30.0620   49.7680 C   0  0  0  0  0  0  0  0  0  0  0  0
   36.2110   30.1700   48.3900 C   0  0  0  0  0  0  0  0  0  0  0  0
   35.3040   29.3880   47.7280 N   0  0  0  0  0  0  0  0  0  0  0  0
   34.5060   28.5140   48.3950 C   0  0  0  0  0  0  0  0  0  0  0  0
   34.5760   28.3830   49.7300 N   0  0  0  0  0  0  0  0  0  0  0  0
   33.6450   27.8060   47.5150 N   0  0  0  0  0  0  0  0  0  0  0  0
   35.4710   28.9890   51.4870 H   0  0  0  0  0  0  0  0  0  0  0  0
   32.7250   28.1560   47.2250 H   0  0  0  0  0  0  0  0  0  0  0  0
   34.0020   26.8810   47.1620 H   0  0  0  0  0  0  0  0  0  0  0  0
   37.0560   31.0930   47.6890 N   0  0  0  0  0  0  0  0  0  0  0  0
   37.9030   32.1900   48.1730 C   0  0  0  0  0  0  0  0  0  0  0  0
   39.2090   32.0460   47.3780 C   0  0  0  0  0  0  0  0  0  0  0  0
   38.9180   32.4070   45.9650 C   0  0  0  0  0  0  0  0  0  0  0  0
   38.8280   33.5140   45.9040 H   0  0  0  0  0  0  0  0  0  0  0  0
   37.7080   31.7600   45.3910 C   0  0  0  0  0  0  0  0  0  0  0  0
   36.9850   30.8060   46.2740 C   0  0  0  0  0  0  0  0  0  0  0  0
   37.2580   30.8620   50.5880 C   0  0  0  0  0  0  0  0  0  0  0  0
   38.5560   30.7280   50.1530 F   0  0  0  0  0  0  0  0  0  0  0  0
   36.8850   32.1870   50.4750 F   0  0  0  0  0  0  0  0  0  0  0  0
   37.2150   30.5330   51.9290 F   0  0  0  0  0  0  0  0  0  0  0  0
  1  8  1  0  0  0  0
  2  1  1  0  0  0  0
  2 18  1  0  0  0  0
  3  2  2  0  0  0  0
  4  3  1  0  0  0  0
  4  5  2  0  0  0  0
  5  6  1  0  0  0  0
  6  1  2  0  0  0  0
  7  5  1  0  0  0  0
  9  7  1  0  0  0  0
 10  7  1  0  0  0  0
 11 12  1  0  0  0  0
 11  3  1  0  0  0  0
 13 12  1  0  0  0  0
 14 13  1  0  0  0  0
 15 14  1  0  0  0  0
 16 14  1  0  0  0  0
 16 17  1  0  0  0  0
 17 11  1  0  0  0  0
 18 21  1  0  0  0  0
 19 18  1  0  0  0  0
 20 18  1  0  0  0  0
M  END
>  <minimizedAffinity>
-6.16379642

>  <minimizedRMSD>
0.669929802

$$$$
