
 OpenBabel03272507063D

 37 41  0  0  0  0  0  0  0  0999 V2000
   37.5900   32.5200   49.7290 C   0  0  0  0  0  0  0  0  0  0  0  0
   38.4890   32.6760   48.6450 C   0  0  0  0  0  0  0  0  0  0  0  0
   38.2670   31.8600   47.5370 C   0  0  0  0  0  0  0  0  0  0  0  0
   37.2300   30.9760   47.5400 N   0  0  0  0  0  0  0  0  0  0  0  0
   36.4020   30.8730   48.6100 C   0  0  0  0  0  0  0  0  0  0  0  0
   36.5790   31.6330   49.6880 N   0  0  0  0  0  0  0  0  0  0  0  0
   37.7710   33.1620   50.5920 H   0  0  0  0  0  0  0  0  0  0  0  0
   39.3040   33.3560   48.6160 H   0  0  0  0  0  0  0  0  0  0  0  0
   39.0910   31.8820   46.3310 C   0  0  0  0  0  0  0  0  0  0  0  0
   39.9330   32.9150   46.0030 C   0  0  0  0  0  0  0  0  0  0  0  0
   40.7260   32.9810   44.8790 C   0  0  0  0  0  0  0  0  0  0  0  0
   40.6540   31.9230   44.0430 N   0  0  0  0  0  0  0  0  0  0  0  0
   39.8540   30.9080   44.3280 C   0  0  0  0  0  0  0  0  0  0  0  0
   39.1040   30.8860   45.4220 N   0  0  0  0  0  0  0  0  0  0  0  0
   39.9950   33.7790   46.6810 H   0  0  0  0  0  0  0  0  0  0  0  0
   41.3630   33.8380   44.6990 H   0  0  0  0  0  0  0  0  0  0  0  0
   39.8470   29.8300   43.3740 N   0  0  0  0  0  0  0  0  0  0  0  0
   39.0150   28.6800   43.5850 C   0  0  0  0  0  0  0  0  0  0  0  0
   38.8960   27.9420   42.2680 C   0  0  0  0  0  0  0  0  0  0  0  0
   38.5430   28.9720   41.2160 C   0  0  0  0  0  0  0  0  0  0  0  0
   38.2620   28.5270   40.2440 H   0  0  0  0  0  0  0  0  0  0  0  0
   39.7060   29.9240   40.9950 C   0  0  0  0  0  0  0  0  0  0  0  0
   40.6530   29.8350   42.1790 C   0  0  0  0  0  0  0  0  0  0  0  0
   35.3700   28.7630   49.3290 C   0  0  0  0  0  0  0  0  0  0  0  0
   35.3100   29.8970   48.5330 C   0  0  0  0  0  0  0  0  0  0  0  0
   34.2510   30.0830   47.7010 C   0  0  0  0  0  0  0  0  0  0  0  0
   33.2240   29.1790   47.6180 C   0  0  0  0  0  0  0  0  0  0  0  0
   32.0870   29.1160   46.9010 N   0  0  0  0  0  0  0  0  0  0  0  0
   31.4970   27.9590   47.2790 C   0  0  0  0  0  0  0  0  0  0  0  0
   32.2380   27.3300   48.1930 N   0  0  0  0  0  0  0  0  0  0  0  0
   33.3330   28.0590   48.4380 C   0  0  0  0  0  0  0  0  0  0  0  0
   34.3690   27.8130   49.2940 C   0  0  0  0  0  0  0  0  0  0  0  0
   36.2280   28.6520   49.9760 H   0  0  0  0  0  0  0  0  0  0  0  0
   34.1950   30.9690   47.0720 H   0  0  0  0  0  0  0  0  0  0  0  0
   31.7450   29.8290   46.1970 H   0  0  0  0  0  0  0  0  0  0  0  0
   30.5380   27.5980   46.8790 H   0  0  0  0  0  0  0  0  0  0  0  0
   34.4010   26.9200   49.9110 H   0  0  0  0  0  0  0  0  0  0  0  0
  1  7  1  0  0  0  0
  2  1  2  0  0  0  0
  3  4  2  0  0  0  0
  3  2  1  0  0  0  0
  4  5  1  0  0  0  0
  5  6  2  0  0  0  0
  6  1  1  0  0  0  0
  8  2  1  0  0  0  0
  9  3  1  0  0  0  0
 10  9  1  0  0  0  0
 10 15  1  0  0  0  0
 11 10  2  0  0  0  0
 12 13  2  0  0  0  0
 12 11  1  0  0  0  0
 13 14  1  0  0  0  0
 14  9  2  0  0  0  0
 16 11  1  0  0  0  0
 17 18  1  0  0  0  0
 17 13  1  0  0  0  0
 19 18  1  0  0  0  0
 20 19  1  0  0  0  0
 21 20  1  0  0  0  0
 22 20  1  0  0  0  0
 22 23  1  0  0  0  0
 23 17  1  0  0  0  0
 24 33  1  0  0  0  0
 25  5  1  0  0  0  0
 25 24  2  0  0  0  0
 26 25  1  0  0  0  0
 27 26  2  0  0  0  0
 27 31  1  0  0  0  0
 28 29  1  0  0  0  0
 28 27  1  0  0  0  0
 29 30  2  0  0  0  0
 30 31  1  0  0  0  0
 31 32  2  0  0  0  0
 32 24  1  0  0  0  0
 32 37  1  0  0  0  0
 34 26  1  0  0  0  0
 35 28  1  0  0  0  0
 36 29  1  0  0  0  0
M  END
>  <minimizedAffinity>
-7.49314499

>  <minimizedRMSD>
1.80193365

$$$$
