REMARK  Name = 
REMARK  2 active torsions:
REMARK  status: ('A' for Active; 'I' for Inactive)
REMARK    1  A    between atoms: C_5  and  C_7
REMARK    2  A    between atoms: C_12  and  N_20
REMARK                            x       y       z     vdW  Elec       q    Type
REMARK                         _______ _______ _______ _____ _____    ______ ____
ROOT
ATOM      1  C   UNL     1      36.094  30.133  48.603  0.00  0.00    +0.000 A 
ATOM      2  C   UNL     1      35.281  29.952  47.513  0.00  0.00    +0.000 A 
ATOM      3  C   UNL     1      34.297  28.987  47.497  0.00  0.00    +0.000 A 
ATOM      4  C   UNL     1      34.149  28.194  48.629  0.00  0.00    +0.000 A 
ATOM      5  C   UNL     1      34.963  28.358  49.752  0.00  0.00    +0.000 A 
ATOM      6  C   UNL     1      35.943  29.341  49.728  0.00  0.00    +0.000 A 
ATOM      7  H   UNL     1      35.385  30.566  46.617  0.00  0.00    +0.000 HD
ATOM      8  H   UNL     1      33.651  28.839  46.639  0.00  0.00    +0.000 HD
ATOM      9  H   UNL     1      33.367  27.450  48.579  0.00  0.00    +0.000 HD
ATOM     10  H   UNL     1      34.801  27.712  50.605  0.00  0.00    +0.000 HD
ENDROOT
BRANCH   1  15
ATOM     11  C   UNL     1      38.008  33.106  49.482  0.00  0.00    +0.000 A 
ATOM     12  C   UNL     1      38.968  33.214  48.478  0.00  0.00    +0.000 A 
ATOM     13  C   UNL     1      38.952  32.220  47.459  0.00  0.00    +0.000 A 
ATOM     14  N   UNL     1      38.016  31.238  47.522  0.00  0.00    +0.000 NA
ATOM     15  C   UNL     1      37.100  31.175  48.521  0.00  0.00    +0.000 A 
ATOM     16  N   UNL     1      37.114  32.118  49.489  0.00  0.00    +0.000 NA
ATOM     17  H   UNL     1      37.961  33.825  50.288  0.00  0.00    +0.000 HD
ATOM     18  H   UNL     1      39.687  33.997  48.459  0.00  0.00    +0.000 HD
ATOM     19  H   UNL     1      39.681  32.250  46.642  0.00  0.00    +0.000 HD
ENDBRANCH   1  15
BRANCH   6  20
ATOM     20  N   UNL     1      36.789  29.526  50.865  0.00  0.00    +0.000 N 
ATOM     21  C   UNL     1      36.502  30.153  52.165  0.00  0.00    +0.000 C 
ATOM     22  C   UNL     1      37.703  30.976  52.587  0.00  0.00    +0.000 C 
ATOM     23  C   UNL     1      38.968  30.179  52.602  0.00  0.00    +0.000 C 
ATOM     24  H   UNL     1      39.742  30.705  52.005  0.00  0.00    +0.000 HD
ATOM     25  C   UNL     1      38.787  28.811  51.956  0.00  0.00    +0.000 C 
ATOM     26  C   UNL     1      38.115  28.991  50.629  0.00  0.00    +0.000 C 
ENDBRANCH   6  20
TORSDOF 2
