
 OpenBabel03272501513D

 28 30  0  0  0  0  0  0  0  0999 V2000
   38.4430   25.3600   35.0990 C   0  0  0  0  0  0  0  0  0  0  0  0
   38.2830   26.6120   35.6250 C   0  0  0  0  0  0  0  0  0  0  0  0
   37.5470   27.5850   34.9350 C   0  0  0  0  0  0  0  0  0  0  0  0
   36.9810   27.2670   33.7080 C   0  0  0  0  0  0  0  0  0  0  0  0
   37.1390   25.9780   33.1560 C   0  0  0  0  0  0  0  0  0  0  0  0
   37.8760   25.0750   33.8950 C   0  0  0  0  0  0  0  0  0  0  0  0
   38.7160   26.9030   36.5950 H   0  0  0  0  0  0  0  0  0  0  0  0
   37.3910   28.5870   35.3040 H   0  0  0  0  0  0  0  0  0  0  0  0
   36.4130   28.0270   33.1800 H   0  0  0  0  0  0  0  0  0  0  0  0
   36.6590   25.8360   32.2060 H   0  0  0  0  0  0  0  0  0  0  0  0
   41.1770   23.0520   36.3060 C   0  0  0  0  0  0  0  0  0  0  0  0
   40.5180   23.9740   35.4780 C   0  0  0  0  0  0  0  0  0  0  0  0
   39.2260   24.4100   35.8640 C   0  0  0  0  0  0  0  0  0  0  0  0
   38.7070   23.9110   37.0090 N   0  0  0  0  0  0  0  0  0  0  0  0
   39.3940   23.0210   37.7710 C   0  0  0  0  0  0  0  0  0  0  0  0
   40.6130   22.5880   37.4360 N   0  0  0  0  0  0  0  0  0  0  0  0
   38.7110   22.6120   38.9300 N   0  0  0  0  0  0  0  0  0  0  0  0
   42.1600   22.7730   35.9360 H   0  0  0  0  0  0  0  0  0  0  0  0
   40.9310   24.3750   34.5610 H   0  0  0  0  0  0  0  0  0  0  0  0
   39.0200   23.0310   39.8370 H   0  0  0  0  0  0  0  0  0  0  0  0
   37.9750   21.9180   38.6190 H   0  0  0  0  0  0  0  0  0  0  0  0
   37.9290   23.8110   33.2250 N   0  0  0  0  0  0  0  0  0  0  0  0
   37.4150   22.4880   33.4790 C   0  0  0  0  0  2  0  0  0  0  0  0
   36.3950   22.0640   32.4470 C   0  0  0  0  0  2  0  0  0  0  0  0
   36.8290   22.3370   31.0420 C   0  0  0  0  0  3  0  0  0  0  0  0
   35.8950   22.5510   30.4440 H   0  0  0  0  0  0  0  0  0  0  0  0
   37.7320   23.4940   30.8700 C   0  0  0  0  0  2  0  0  0  0  0  0
   38.6830   23.7760   31.9900 C   0  0  0  0  0  2  0  0  0  0  0  0
  1  2  1  0  0  0  0
  1 13  1  0  0  0  0
  2  7  1  0  0  0  0
  3  8  1  0  0  0  0
  3  2  2  0  0  0  0
  4  3  1  0  0  0  0
  5  4  2  0  0  0  0
  5  6  1  0  0  0  0
  6  1  2  0  0  0  0
  9  4  1  0  0  0  0
 10  5  1  0  0  0  0
 11 16  1  0  0  0  0
 12 13  1  0  0  0  0
 12 11  2  0  0  0  0
 13 14  2  0  0  0  0
 14 15  1  0  0  0  0
 15 17  1  0  0  0  0
 16 15  2  0  0  0  0
 17 20  1  0  0  0  0
 18 11  1  0  0  0  0
 19 12  1  0  0  0  0
 21 17  1  0  0  0  0
 22 23  1  0  0  0  0
 22  6  1  0  0  0  0
 24 23  1  0  0  0  0
 25 24  1  0  0  0  0
 26 25  1  0  0  0  0
 27 25  1  0  0  0  0
 27 28  1  0  0  0  0
 28 22  1  0  0  0  0
M  END
>  <minimizedAffinity>
-5.51519203

$$$$

 OpenBabel03272501513D

 28 30  0  0  0  0  0  0  0  0999 V2000
   37.7640   22.8630   34.3680 C   0  0  0  0  0  0  0  0  0  0  0  0
   37.3510   21.6100   34.0060 C   0  0  0  0  0  0  0  0  0  0  0  0
   36.9380   21.3500   32.6920 C   0  0  0  0  0  0  0  0  0  0  0  0
   36.9510   22.3770   31.7580 C   0  0  0  0  0  0  0  0  0  0  0  0
   37.3760   23.6730   32.1200 C   0  0  0  0  0  0  0  0  0  0  0  0
   37.7670   23.8510   33.4310 C   0  0  0  0  0  0  0  0  0  0  0  0
   37.3260   20.7700   34.7170 H   0  0  0  0  0  0  0  0  0  0  0  0
   36.6020   20.3820   32.3530 H   0  0  0  0  0  0  0  0  0  0  0  0
   36.6290   22.1670   30.7420 H   0  0  0  0  0  0  0  0  0  0  0  0
   37.3500   24.3920   31.3230 H   0  0  0  0  0  0  0  0  0  0  0  0
   37.9690   24.0250   37.9550 C   0  0  0  0  0  0  0  0  0  0  0  0
   37.4840   23.9210   36.6420 C   0  0  0  0  0  0  0  0  0  0  0  0
   38.1660   23.0600   35.7460 C   0  0  0  0  0  0  0  0  0  0  0  0
   39.2430   22.3900   36.2130 N   0  0  0  0  0  0  0  0  0  0  0  0
   39.6660   22.5290   37.4960 C   0  0  0  0  0  0  0  0  0  0  0  0
   39.0470   23.3330   38.3660 N   0  0  0  0  0  0  0  0  0  0  0  0
   40.7950   21.7530   37.8150 N   0  0  0  0  0  0  0  0  0  0  0  0
   37.3880   24.7040   38.5720 H   0  0  0  0  0  0  0  0  0  0  0  0
   36.6210   24.4580   36.2660 H   0  0  0  0  0  0  0  0  0  0  0  0
   40.6320   20.8860   38.3770 H   0  0  0  0  0  0  0  0  0  0  0  0
   41.6300   22.2450   37.3900 H   0  0  0  0  0  0  0  0  0  0  0  0
   38.1950   25.2010   33.6430 N   0  0  0  0  0  0  0  0  0  0  0  0
   37.5470   26.4530   33.9420 C   0  0  0  0  0  2  0  0  0  0  0  0
   37.9330   26.9860   35.3020 C   0  0  0  0  0  2  0  0  0  0  0  0
   39.4060   26.9370   35.5580 C   0  0  0  0  0  3  0  0  0  0  0  0
   39.5420   26.7800   36.6680 H   0  0  0  0  0  0  0  0  0  0  0  0
   40.1340   25.8510   34.8700 C   0  0  0  0  0  2  0  0  0  0  0  0
   39.6180   25.4430   33.5270 C   0  0  0  0  0  2  0  0  0  0  0  0
  1 13  1  0  0  0  0
  2  1  1  0  0  0  0
  2  7  1  0  0  0  0
  3  2  2  0  0  0  0
  4  5  2  0  0  0  0
  4  3  1  0  0  0  0
  5  6  1  0  0  0  0
  6 22  1  0  0  0  0
  6  1  2  0  0  0  0
  8  3  1  0  0  0  0
  9  4  1  0  0  0  0
 10  5  1  0  0  0  0
 11 16  1  0  0  0  0
 11 18  1  0  0  0  0
 12 11  2  0  0  0  0
 13 14  2  0  0  0  0
 13 12  1  0  0  0  0
 14 15  1  0  0  0  0
 15 17  1  0  0  0  0
 15 16  2  0  0  0  0
 17 20  1  0  0  0  0
 19 12  1  0  0  0  0
 21 17  1  0  0  0  0
 22 23  1  0  0  0  0
 23 24  1  0  0  0  0
 24 25  1  0  0  0  0
 25 26  1  0  0  0  0
 27 25  1  0  0  0  0
 28 22  1  0  0  0  0
 28 27  1  0  0  0  0
M  END
>  <minimizedAffinity>
-5.45045185

$$$$

 OpenBabel03272501513D

 28 30  0  0  0  0  0  0  0  0999 V2000
   37.6120   23.5500   33.1670 C   0  0  0  0  0  0  0  0  0  0  0  0
   37.1890   22.5060   32.3910 C   0  0  0  0  0  0  0  0  0  0  0  0
   36.3100   22.7250   31.3220 C   0  0  0  0  0  0  0  0  0  0  0  0
   35.8710   24.0150   31.0540 C   0  0  0  0  0  0  0  0  0  0  0  0
   36.3010   25.0990   31.8480 C   0  0  0  0  0  0  0  0  0  0  0  0
   37.1650   24.8040   32.8820 C   0  0  0  0  0  0  0  0  0  0  0  0
   37.5150   21.4700   32.5710 H   0  0  0  0  0  0  0  0  0  0  0  0
   35.9460   21.9380   30.6790 H   0  0  0  0  0  0  0  0  0  0  0  0
   35.1900   24.1750   30.2240 H   0  0  0  0  0  0  0  0  0  0  0  0
   35.9030   26.0530   31.5550 H   0  0  0  0  0  0  0  0  0  0  0  0
   40.6710   22.7720   35.2380 C   0  0  0  0  0  0  0  0  0  0  0  0
   39.9050   23.0580   34.0970 C   0  0  0  0  0  0  0  0  0  0  0  0
   38.5100   23.2470   34.2620 C   0  0  0  0  0  0  0  0  0  0  0  0
   38.0020   23.1380   35.5110 N   0  0  0  0  0  0  0  0  0  0  0  0
   38.7940   22.8600   36.5780 C   0  0  0  0  0  0  0  0  0  0  0  0
   40.1130   22.6760   36.4590 N   0  0  0  0  0  0  0  0  0  0  0  0
   38.1040   22.7920   37.8020 N   0  0  0  0  0  0  0  0  0  0  0  0
   41.7280   22.6430   35.0210 H   0  0  0  0  0  0  0  0  0  0  0  0
   40.3100   23.1450   33.0970 H   0  0  0  0  0  0  0  0  0  0  0  0
   38.1950   23.6120   38.4460 H   0  0  0  0  0  0  0  0  0  0  0  0
   37.6020   21.8610   37.8150 H   0  0  0  0  0  0  0  0  0  0  0  0
   37.5330   26.0000   33.5780 N   0  0  0  0  0  0  0  0  0  0  0  0
   37.0990   26.6700   34.7780 C   0  0  0  0  0  2  0  0  0  0  0  0
   38.1790   26.7030   35.8350 C   0  0  0  0  0  2  0  0  0  0  0  0
   39.5140   27.1190   35.3030 C   0  0  0  0  0  3  0  0  0  0  0  0
   40.2950   26.5860   35.9200 H   0  0  0  0  0  0  0  0  0  0  0  0
   39.7670   26.7760   33.8880 C   0  0  0  0  0  2  0  0  0  0  0  0
   38.5840   26.7910   32.9720 C   0  0  0  0  0  2  0  0  0  0  0  0
  1 13  1  0  0  0  0
  2  7  1  0  0  0  0
  2  1  2  0  0  0  0
  3  2  1  0  0  0  0
  4  3  2  0  0  0  0
  4  5  1  0  0  0  0
  5  6  2  0  0  0  0
  6  1  1  0  0  0  0
  6 22  1  0  0  0  0
  8  3  1  0  0  0  0
  9  4  1  0  0  0  0
 10  5  1  0  0  0  0
 11 16  1  0  0  0  0
 12 13  1  0  0  0  0
 12 11  2  0  0  0  0
 13 14  2  0  0  0  0
 14 15  1  0  0  0  0
 15 17  1  0  0  0  0
 16 15  2  0  0  0  0
 17 21  1  0  0  0  0
 17 20  1  0  0  0  0
 18 11  1  0  0  0  0
 19 12  1  0  0  0  0
 22 23  1  0  0  0  0
 23 24  1  0  0  0  0
 25 24  1  0  0  0  0
 25 26  1  0  0  0  0
 27 25  1  0  0  0  0
 28 22  1  0  0  0  0
 28 27  1  0  0  0  0
M  END
>  <minimizedAffinity>
-5.22084188

$$$$

 OpenBabel03272501513D

 28 30  0  0  0  0  0  0  0  0999 V2000
   39.4240   22.1140   34.1290 C   0  0  0  0  0  0  0  0  0  0  0  0
   40.7630   21.8370   34.1050 C   0  0  0  0  0  0  0  0  0  0  0  0
   41.2930   20.9670   33.1430 C   0  0  0  0  0  0  0  0  0  0  0  0
   40.4440   20.3850   32.2110 C   0  0  0  0  0  0  0  0  0  0  0  0
   39.0620   20.6630   32.2250 C   0  0  0  0  0  0  0  0  0  0  0  0
   38.6150   21.5290   33.2020 C   0  0  0  0  0  0  0  0  0  0  0  0
   41.4680   22.2790   34.8270 H   0  0  0  0  0  0  0  0  0  0  0  0
   42.3400   20.7140   33.0800 H   0  0  0  0  0  0  0  0  0  0  0  0
   40.8640   19.7110   31.4690 H   0  0  0  0  0  0  0  0  0  0  0  0
   38.4970   20.1640   31.4600 H   0  0  0  0  0  0  0  0  0  0  0  0
   38.0260   25.0950   35.9780 C   0  0  0  0  0  0  0  0  0  0  0  0
   38.4650   24.3200   34.8920 C   0  0  0  0  0  0  0  0  0  0  0  0
   38.9460   23.0130   35.1590 C   0  0  0  0  0  0  0  0  0  0  0  0
   38.9520   22.5930   36.4450 N   0  0  0  0  0  0  0  0  0  0  0  0
   38.5130   23.3890   37.4540 C   0  0  0  0  0  0  0  0  0  0  0  0
   38.0540   24.6250   37.2380 N   0  0  0  0  0  0  0  0  0  0  0  0
   38.5810   22.7920   38.7260 N   0  0  0  0  0  0  0  0  0  0  0  0
   37.6750   26.0800   35.6840 H   0  0  0  0  0  0  0  0  0  0  0  0
   38.4620   24.6540   33.8630 H   0  0  0  0  0  0  0  0  0  0  0  0
   37.6840   22.4430   39.1360 H   0  0  0  0  0  0  0  0  0  0  0  0
   39.5970   22.8220   39.0200 H   0  0  0  0  0  0  0  0  0  0  0  0
   37.2040   21.7360   33.0760 N   0  0  0  0  0  0  0  0  0  0  0  0
   36.3500   22.5240   32.2240 C   0  0  0  0  0  2  0  0  0  0  0  0
   35.4700   21.6650   31.3450 C   0  0  0  0  0  2  0  0  0  0  0  0
   34.8030   20.5510   32.0870 C   0  0  0  0  0  3  0  0  0  0  0  0
   34.6850   19.6950   31.3600 H   0  0  0  0  0  0  0  0  0  0  0  0
   35.5450   20.0330   33.2560 C   0  0  0  0  0  2  0  0  0  0  0  0
   36.3700   21.0200   34.0190 C   0  0  0  0  0  2  0  0  0  0  0  0
  1 13  1  0  0  0  0
  2  1  1  0  0  0  0
  2  7  1  0  0  0  0
  3  2  2  0  0  0  0
  4  5  2  0  0  0  0
  4  3  1  0  0  0  0
  5  6  1  0  0  0  0
  6  1  2  0  0  0  0
  8  3  1  0  0  0  0
  9  4  1  0  0  0  0
 10  5  1  0  0  0  0
 11 16  1  0  0  0  0
 12 13  1  0  0  0  0
 12 11  2  0  0  0  0
 13 14  2  0  0  0  0
 14 15  1  0  0  0  0
 15 17  1  0  0  0  0
 16 15  2  0  0  0  0
 17 21  1  0  0  0  0
 17 20  1  0  0  0  0
 18 11  1  0  0  0  0
 19 12  1  0  0  0  0
 22  6  1  0  0  0  0
 22 28  1  0  0  0  0
 23 22  1  0  0  0  0
 24 25  1  0  0  0  0
 24 23  1  0  0  0  0
 25 27  1  0  0  0  0
 26 25  1  0  0  0  0
 27 28  1  0  0  0  0
M  END
>  <minimizedAffinity>
-5.14074945

$$$$

 OpenBabel03272501513D

 28 30  0  0  0  0  0  0  0  0999 V2000
   37.7310   22.7330   34.4770 C   0  0  0  0  0  0  0  0  0  0  0  0
   37.1450   21.5280   34.2050 C   0  0  0  0  0  0  0  0  0  0  0  0
   36.6520   21.2500   32.9230 C   0  0  0  0  0  0  0  0  0  0  0  0
   36.7640   22.2110   31.9270 C   0  0  0  0  0  0  0  0  0  0  0  0
   37.3670   23.4580   32.1960 C   0  0  0  0  0  0  0  0  0  0  0  0
   37.8280   23.6570   33.4810 C   0  0  0  0  0  0  0  0  0  0  0  0
   37.0380   20.7410   34.9670 H   0  0  0  0  0  0  0  0  0  0  0  0
   36.1810   20.3170   32.6550 H   0  0  0  0  0  0  0  0  0  0  0  0
   36.3790   21.9870   30.9360 H   0  0  0  0  0  0  0  0  0  0  0  0
   37.4050   24.1270   31.3570 H   0  0  0  0  0  0  0  0  0  0  0  0
   38.1510   23.9830   38.0150 C   0  0  0  0  0  0  0  0  0  0  0  0
   37.5980   23.8610   36.7300 C   0  0  0  0  0  0  0  0  0  0  0  0
   38.2070   22.9540   35.8270 C   0  0  0  0  0  0  0  0  0  0  0  0
   39.2860   22.2630   36.2590 N   0  0  0  0  0  0  0  0  0  0  0  0
   39.7760   22.4230   37.5160 C   0  0  0  0  0  0  0  0  0  0  0  0
   39.2270   23.2690   38.3920 N   0  0  0  0  0  0  0  0  0  0  0  0
   40.8960   21.6200   37.8010 N   0  0  0  0  0  0  0  0  0  0  0  0
   37.6230   24.6980   38.6400 H   0  0  0  0  0  0  0  0  0  0  0  0
   36.7350   24.4140   36.3820 H   0  0  0  0  0  0  0  0  0  0  0  0
   40.7350   20.7740   38.3940 H   0  0  0  0  0  0  0  0  0  0  0  0
   41.7230   22.0730   37.3210 H   0  0  0  0  0  0  0  0  0  0  0  0
   38.4350   24.9490   33.5960 N   0  0  0  0  0  0  0  0  0  0  0  0
   39.7830   25.4600   33.5690 C   0  0  0  0  0  2  0  0  0  0  0  0
   40.0270   26.3600   32.3790 C   0  0  0  0  0  2  0  0  0  0  0  0
   38.9420   27.3680   32.1690 C   0  0  0  0  0  3  0  0  0  0  0  0
   38.8810   27.5590   31.0580 H   0  0  0  0  0  0  0  0  0  0  0  0
   37.5960   26.9540   32.6160 C   0  0  0  0  0  2  0  0  0  0  0  0
   37.5320   26.0590   33.8130 C   0  0  0  0  0  2  0  0  0  0  0  0
  1 13  1  0  0  0  0
  2  1  1  0  0  0  0
  2  7  1  0  0  0  0
  3  2  2  0  0  0  0
  4  5  2  0  0  0  0
  4  3  1  0  0  0  0
  5  6  1  0  0  0  0
  6 22  1  0  0  0  0
  6  1  2  0  0  0  0
  8  3  1  0  0  0  0
  9  4  1  0  0  0  0
 10  5  1  0  0  0  0
 11 16  1  0  0  0  0
 11 18  1  0  0  0  0
 12 11  2  0  0  0  0
 13 14  2  0  0  0  0
 13 12  1  0  0  0  0
 14 15  1  0  0  0  0
 15 17  1  0  0  0  0
 15 16  2  0  0  0  0
 17 20  1  0  0  0  0
 19 12  1  0  0  0  0
 21 17  1  0  0  0  0
 22 28  1  0  0  0  0
 23 22  1  0  0  0  0
 24 23  1  0  0  0  0
 25 24  1  0  0  0  0
 25 27  1  0  0  0  0
 26 25  1  0  0  0  0
 27 28  1  0  0  0  0
M  END
>  <minimizedAffinity>
-5.1205759

$$$$

 OpenBabel03272501513D

 28 30  0  0  0  0  0  0  0  0999 V2000
   38.0500   23.8130   33.4070 C   0  0  0  0  0  0  0  0  0  0  0  0
   37.4780   24.0190   32.1820 C   0  0  0  0  0  0  0  0  0  0  0  0
   36.6090   23.0650   31.6350 C   0  0  0  0  0  0  0  0  0  0  0  0
   36.3320   21.9070   32.3480 C   0  0  0  0  0  0  0  0  0  0  0  0
   36.9170   21.6850   33.6130 C   0  0  0  0  0  0  0  0  0  0  0  0
   37.7610   22.6680   34.0850 C   0  0  0  0  0  0  0  0  0  0  0  0
   37.6720   24.9240   31.5870 H   0  0  0  0  0  0  0  0  0  0  0  0
   36.1310   23.1770   30.6730 H   0  0  0  0  0  0  0  0  0  0  0  0
   35.6570   21.1730   31.9160 H   0  0  0  0  0  0  0  0  0  0  0  0
   36.6350   20.7590   34.0800 H   0  0  0  0  0  0  0  0  0  0  0  0
   41.0730   25.9780   34.0660 C   0  0  0  0  0  0  0  0  0  0  0  0
   40.3070   24.9380   33.5160 C   0  0  0  0  0  0  0  0  0  0  0  0
   38.9470   24.8370   33.9040 C   0  0  0  0  0  0  0  0  0  0  0  0
   38.4720   25.7490   34.7820 N   0  0  0  0  0  0  0  0  0  0  0  0
   39.2630   26.7350   35.2800 C   0  0  0  0  0  0  0  0  0  0  0  0
   40.5480   26.8590   34.9360 N   0  0  0  0  0  0  0  0  0  0  0  0
   38.6060   27.6010   36.1730 N   0  0  0  0  0  0  0  0  0  0  0  0
   42.1010   25.9820   33.7140 H   0  0  0  0  0  0  0  0  0  0  0  0
   40.6850   24.2070   32.8130 H   0  0  0  0  0  0  0  0  0  0  0  0
   38.3330   28.5420   35.8080 H   0  0  0  0  0  0  0  0  0  0  0  0
   38.5190   27.0800   37.0900 H   0  0  0  0  0  0  0  0  0  0  0  0
   38.2550   22.3190   35.3830 N   0  0  0  0  0  0  0  0  0  0  0  0
   39.5370   21.9620   35.9370 C   0  0  0  0  0  2  0  0  0  0  0  0
   40.0360   22.9890   36.9280 C   0  0  0  0  0  2  0  0  0  0  0  0
   38.9940   23.4120   37.9140 C   0  0  0  0  0  3  0  0  0  0  0  0
   39.2120   24.4870   38.1830 H   0  0  0  0  0  0  0  0  0  0  0  0
   37.6000   23.3580   37.4270 C   0  0  0  0  0  2  0  0  0  0  0  0
   37.2720   22.2770   36.4460 C   0  0  0  0  0  2  0  0  0  0  0  0
  1 13  1  0  0  0  0
  1  6  1  0  0  0  0
  2  1  2  0  0  0  0
  3  2  1  0  0  0  0
  3  4  2  0  0  0  0
  4  5  1  0  0  0  0
  5 10  1  0  0  0  0
  5  6  2  0  0  0  0
  6 22  1  0  0  0  0
  7  2  1  0  0  0  0
  8  3  1  0  0  0  0
  9  4  1  0  0  0  0
 11 16  1  0  0  0  0
 12 13  1  0  0  0  0
 12 11  2  0  0  0  0
 13 14  2  0  0  0  0
 14 15  1  0  0  0  0
 15 17  1  0  0  0  0
 16 15  2  0  0  0  0
 17 21  1  0  0  0  0
 18 11  1  0  0  0  0
 19 12  1  0  0  0  0
 20 17  1  0  0  0  0
 22 23  1  0  0  0  0
 22 28  1  0  0  0  0
 23 24  1  0  0  0  0
 24 25  1  0  0  0  0
 25 26  1  0  0  0  0
 27 25  1  0  0  0  0
 28 27  1  0  0  0  0
M  END
>  <minimizedAffinity>
-5.09523535

$$$$

 OpenBabel03272501513D

 28 30  0  0  0  0  0  0  0  0999 V2000
   36.0970   26.5640   31.7050 C   0  0  0  0  0  0  0  0  0  0  0  0
   35.3110   25.6920   31.0050 C   0  0  0  0  0  0  0  0  0  0  0  0
   35.5020   24.3090   31.1240 C   0  0  0  0  0  0  0  0  0  0  0  0
   36.5000   23.8290   31.9620 C   0  0  0  0  0  0  0  0  0  0  0  0
   37.3170   24.7200   32.6890 C   0  0  0  0  0  0  0  0  0  0  0  0
   37.0680   26.0660   32.5190 C   0  0  0  0  0  0  0  0  0  0  0  0
   34.5090   26.0330   30.3310 H   0  0  0  0  0  0  0  0  0  0  0  0
   34.9110   23.5770   30.5950 H   0  0  0  0  0  0  0  0  0  0  0  0
   36.6420   22.7560   32.0480 H   0  0  0  0  0  0  0  0  0  0  0  0
   38.0550   24.2460   33.3090 H   0  0  0  0  0  0  0  0  0  0  0  0
   36.1910   30.1340   30.4780 C   0  0  0  0  0  0  0  0  0  0  0  0
   36.5240   28.7730   30.5610 C   0  0  0  0  0  0  0  0  0  0  0  0
   35.8490   27.9800   31.5220 C   0  0  0  0  0  0  0  0  0  0  0  0
   34.9250   28.5850   32.3020 N   0  0  0  0  0  0  0  0  0  0  0  0
   34.6440   29.9080   32.1760 C   0  0  0  0  0  0  0  0  0  0  0  0
   35.2620   30.6850   31.2810 N   0  0  0  0  0  0  0  0  0  0  0  0
   33.6530   30.3710   33.0600 N   0  0  0  0  0  0  0  0  0  0  0  0
   36.7550   30.6650   29.7160 H   0  0  0  0  0  0  0  0  0  0  0  0
   37.2640   28.2870   29.9370 H   0  0  0  0  0  0  0  0  0  0  0  0
   32.6990   30.5330   32.6620 H   0  0  0  0  0  0  0  0  0  0  0  0
   34.1130   30.4650   34.0080 H   0  0  0  0  0  0  0  0  0  0  0  0
   37.9510   26.8430   33.3360 N   0  0  0  0  0  0  0  0  0  0  0  0
   37.9030   27.4020   34.6640 C   0  0  0  0  0  2  0  0  0  0  0  0
   38.9280   26.7790   35.5830 C   0  0  0  0  0  2  0  0  0  0  0  0
   40.2880   26.6760   34.9680 C   0  0  0  0  0  3  0  0  0  0  0  0
   40.7790   25.7590   35.4060 H   0  0  0  0  0  0  0  0  0  0  0  0
   40.3090   26.5230   33.4980 C   0  0  0  0  0  2  0  0  0  0  0  0
   39.2180   27.2060   32.7360 C   0  0  0  0  0  2  0  0  0  0  0  0
  1  6  1  0  0  0  0
  2  3  1  0  0  0  0
  2  1  2  0  0  0  0
  3  4  2  0  0  0  0
  4  9  1  0  0  0  0
  4  5  1  0  0  0  0
  5 10  1  0  0  0  0
  6  5  2  0  0  0  0
  6 22  1  0  0  0  0
  7  2  1  0  0  0  0
  8  3  1  0  0  0  0
 11 12  2  0  0  0  0
 11 16  1  0  0  0  0
 12 13  1  0  0  0  0
 13  1  1  0  0  0  0
 13 14  2  0  0  0  0
 15 14  1  0  0  0  0
 15 17  1  0  0  0  0
 16 15  2  0  0  0  0
 17 21  1  0  0  0  0
 18 11  1  0  0  0  0
 19 12  1  0  0  0  0
 20 17  1  0  0  0  0
 22 23  1  0  0  0  0
 23 24  1  0  0  0  0
 25 26  1  0  0  0  0
 25 24  1  0  0  0  0
 27 25  1  0  0  0  0
 28 22  1  0  0  0  0
 28 27  1  0  0  0  0
M  END
>  <minimizedAffinity>
-5.08065939

$$$$

 OpenBabel03272501513D

 28 30  0  0  0  0  0  0  0  0999 V2000
   35.0100   30.7420   35.0580 C   0  0  0  0  0  0  0  0  0  0  0  0
   35.8670   31.6780   35.5660 C   0  0  0  0  0  0  0  0  0  0  0  0
   35.4340   32.5820   36.5450 C   0  0  0  0  0  0  0  0  0  0  0  0
   34.1230   32.5200   36.9980 C   0  0  0  0  0  0  0  0  0  0  0  0
   33.2300   31.5580   36.4810 C   0  0  0  0  0  0  0  0  0  0  0  0
   33.7300   30.7040   35.5200 C   0  0  0  0  0  0  0  0  0  0  0  0
   36.9140   31.7600   35.2330 H   0  0  0  0  0  0  0  0  0  0  0  0
   36.0690   33.3400   36.9790 H   0  0  0  0  0  0  0  0  0  0  0  0
   33.7970   33.2250   37.7570 H   0  0  0  0  0  0  0  0  0  0  0  0
   32.2420   31.5940   36.9000 H   0  0  0  0  0  0  0  0  0  0  0  0
   36.5770   27.8190   33.2540 C   0  0  0  0  0  0  0  0  0  0  0  0
   36.1190   28.5960   34.3300 C   0  0  0  0  0  0  0  0  0  0  0  0
   35.5240   29.8490   34.0390 C   0  0  0  0  0  0  0  0  0  0  0  0
   35.4330   30.2190   32.7420 N   0  0  0  0  0  0  0  0  0  0  0  0
   35.8930   29.4230   31.7420 C   0  0  0  0  0  0  0  0  0  0  0  0
   36.4600   28.2370   31.9800 N   0  0  0  0  0  0  0  0  0  0  0  0
   35.7110   29.9580   30.4540 N   0  0  0  0  0  0  0  0  0  0  0  0
   37.0180   26.8760   33.5660 H   0  0  0  0  0  0  0  0  0  0  0  0
   36.1920   28.3020   35.3690 H   0  0  0  0  0  0  0  0  0  0  0  0
   34.9320   29.5610   29.8800 H   0  0  0  0  0  0  0  0  0  0  0  0
   36.4530   30.7020   30.3280 H   0  0  0  0  0  0  0  0  0  0  0  0
   32.7220   29.7710   35.1120 N   0  0  0  0  0  0  0  0  0  0  0  0
   32.1900   28.5360   35.6310 C   0  0  0  0  0  2  0  0  0  0  0  0
   30.7400   28.6660   36.0370 C   0  0  0  0  0  2  0  0  0  0  0  0
   29.9000   29.3590   35.0120 C   0  0  0  0  0  3  0  0  0  0  0  0
   29.0850   29.9080   35.5690 H   0  0  0  0  0  0  0  0  0  0  0  0
   30.6070   30.3550   34.1800 C   0  0  0  0  0  2  0  0  0  0  0  0
   32.0420   30.0730   33.8690 C   0  0  0  0  0  2  0  0  0  0  0  0
  1  6  2  0  0  0  0
  1  2  1  0  0  0  0
  2  3  2  0  0  0  0
  3  8  1  0  0  0  0
  3  4  1  0  0  0  0
  4  9  1  0  0  0  0
  5 10  1  0  0  0  0
  5  4  2  0  0  0  0
  6  5  1  0  0  0  0
  7  2  1  0  0  0  0
 11 18  1  0  0  0  0
 11 12  1  0  0  0  0
 12 19  1  0  0  0  0
 13 12  2  0  0  0  0
 13  1  1  0  0  0  0
 14 13  1  0  0  0  0
 15 16  1  0  0  0  0
 15 14  2  0  0  0  0
 16 11  2  0  0  0  0
 17 15  1  0  0  0  0
 20 17  1  0  0  0  0
 21 17  1  0  0  0  0
 22  6  1  0  0  0  0
 22 23  1  0  0  0  0
 23 24  1  0  0  0  0
 25 26  1  0  0  0  0
 25 24  1  0  0  0  0
 27 25  1  0  0  0  0
 28 27  1  0  0  0  0
 28 22  1  0  0  0  0
M  END
>  <minimizedAffinity>
-4.97498989

$$$$

 OpenBabel03272501513D

 28 30  0  0  0  0  0  0  0  0999 V2000
   37.4250   24.0900   32.8760 C   0  0  0  0  0  0  0  0  0  0  0  0
   37.2270   25.4230   32.6450 C   0  0  0  0  0  0  0  0  0  0  0  0
   36.2540   25.8500   31.7310 C   0  0  0  0  0  0  0  0  0  0  0  0
   35.4890   24.9060   31.0600 C   0  0  0  0  0  0  0  0  0  0  0  0
   35.6830   23.5280   31.2910 C   0  0  0  0  0  0  0  0  0  0  0  0
   36.6600   23.1860   32.2040 C   0  0  0  0  0  0  0  0  0  0  0  0
   37.8130   26.2020   33.1570 H   0  0  0  0  0  0  0  0  0  0  0  0
   36.0580   26.8890   31.5110 H   0  0  0  0  0  0  0  0  0  0  0  0
   34.7370   25.2460   30.3540 H   0  0  0  0  0  0  0  0  0  0  0  0
   35.0380   22.8840   30.7230 H   0  0  0  0  0  0  0  0  0  0  0  0
   40.7410   23.3360   34.5170 C   0  0  0  0  0  0  0  0  0  0  0  0
   39.8380   23.7070   33.5080 C   0  0  0  0  0  0  0  0  0  0  0  0
   38.4560   23.7230   33.8250 C   0  0  0  0  0  0  0  0  0  0  0  0
   38.0930   23.3790   35.0810 N   0  0  0  0  0  0  0  0  0  0  0  0
   39.0140   23.0300   36.0160 C   0  0  0  0  0  0  0  0  0  0  0  0
   40.3230   23.0040   35.7520 N   0  0  0  0  0  0  0  0  0  0  0  0
   38.4630   22.7100   37.2710 N   0  0  0  0  0  0  0  0  0  0  0  0
   41.7760   23.3520   34.1890 H   0  0  0  0  0  0  0  0  0  0  0  0
   40.1260   23.9820   32.5020 H   0  0  0  0  0  0  0  0  0  0  0  0
   38.5480   23.4300   38.0250 H   0  0  0  0  0  0  0  0  0  0  0  0
   38.0510   21.7400   37.1820 H   0  0  0  0  0  0  0  0  0  0  0  0
   36.7240   21.7630   32.3530 N   0  0  0  0  0  0  0  0  0  0  0  0
   36.1130   20.7890   33.2230 C   0  0  0  0  0  2  0  0  0  0  0  0
   35.2030   19.8440   32.4730 C   0  0  0  0  0  2  0  0  0  0  0  0
   35.8160   19.3060   31.2190 C   0  0  0  0  0  3  0  0  0  0  0  0
   34.9730   19.1340   30.4880 H   0  0  0  0  0  0  0  0  0  0  0  0
   36.7940   20.1950   30.5590 C   0  0  0  0  0  2  0  0  0  0  0  0
   37.6180   21.0680   31.4500 C   0  0  0  0  0  2  0  0  0  0  0  0
  1 13  1  0  0  0  0
  2  1  1  0  0  0  0
  2  7  1  0  0  0  0
  3  2  2  0  0  0  0
  4  5  2  0  0  0  0
  4  3  1  0  0  0  0
  5  6  1  0  0  0  0
  6 22  1  0  0  0  0
  6  1  2  0  0  0  0
  8  3  1  0  0  0  0
  9  4  1  0  0  0  0
 10  5  1  0  0  0  0
 11 16  1  0  0  0  0
 12 13  1  0  0  0  0
 12 11  2  0  0  0  0
 13 14  2  0  0  0  0
 14 15  1  0  0  0  0
 15 17  1  0  0  0  0
 16 15  2  0  0  0  0
 17 20  1  0  0  0  0
 18 11  1  0  0  0  0
 19 12  1  0  0  0  0
 21 17  1  0  0  0  0
 22 23  1  0  0  0  0
 24 23  1  0  0  0  0
 25 24  1  0  0  0  0
 26 25  1  0  0  0  0
 27 25  1  0  0  0  0
 27 28  1  0  0  0  0
 28 22  1  0  0  0  0
M  END
>  <minimizedAffinity>
-4.96775913

$$$$
