REMARK  Name = 
REMARK  2 active torsions:
REMARK  status: ('A' for Active; 'I' for Inactive)
REMARK    1  A    between atoms: C_5  and  C_9
REMARK    2  A    between atoms: C_11  and  N_20
REMARK                            x       y       z     vdW  Elec       q    Type
REMARK                         _______ _______ _______ _____ _____    ______ ____
ROOT
ATOM      1 BR   UNL     1      37.262  29.359  51.054  0.00  0.00    +0.000 Br
ATOM      2  C   UNL     1      35.950  29.312  49.667  0.00  0.00    +0.000 A 
ATOM      3  C   UNL     1      36.005  30.213  48.631  0.00  0.00    +0.000 A 
ATOM      4  C   UNL     1      35.017  30.120  47.658  0.00  0.00    +0.000 A 
ATOM      5  C   UNL     1      34.005  29.188  47.676  0.00  0.00    +0.000 A 
ATOM      6  C   UNL     1      33.999  28.305  48.745  0.00  0.00    +0.000 A 
ATOM      7  C   UNL     1      34.966  28.375  49.724  0.00  0.00    +0.000 A 
ATOM      8  H   UNL     1      35.087  30.852  46.844  0.00  0.00    +0.000 HD
ATOM      9  H   UNL     1      33.199  27.578  48.749  0.00  0.00    +0.000 HD
ATOM     10  H   UNL     1      34.877  27.638  50.523  0.00  0.00    +0.000 HD
ENDROOT
BRANCH   3  15
ATOM     11  C   UNL     1      37.989  33.168  49.429  0.00  0.00    +0.000 A 
ATOM     12  C   UNL     1      39.013  33.161  48.456  0.00  0.00    +0.000 A 
ATOM     13  C   UNL     1      39.007  32.129  47.531  0.00  0.00    +0.000 A 
ATOM     14  N   UNL     1      38.025  31.179  47.598  0.00  0.00    +0.000 NA
ATOM     15  C   UNL     1      37.053  31.224  48.556  0.00  0.00    +0.000 A 
ATOM     16  N   UNL     1      37.048  32.217  49.458  0.00  0.00    +0.000 NA
ATOM     17  H   UNL     1      38.014  33.976  50.136  0.00  0.00    +0.000 HD
ATOM     18  H   UNL     1      39.784  33.909  48.405  0.00  0.00    +0.000 HD
ATOM     19  H   UNL     1      39.738  32.020  46.742  0.00  0.00    +0.000 HD
ENDBRANCH   3  15
BRANCH   5  20
ATOM     20  N   UNL     1      33.009  29.130  46.652  0.00  0.00    +0.000 N 
ATOM     21  C   UNL     1      32.471  30.420  46.284  0.00  0.00    +0.000 C 
ATOM     22  C   UNL     1      31.437  30.401  45.225  0.00  0.00    +0.000 C 
ATOM     23  C   UNL     1      30.748  29.078  45.041  0.00  0.00    +0.000 C 
ATOM     24  H   UNL     1      30.243  29.129  44.048  0.00  0.00    +0.000 HD
ATOM     25  C   UNL     1      31.695  27.913  44.989  0.00  0.00    +0.000 C 
ATOM     26  C   UNL     1      32.663  27.828  46.114  0.00  0.00    +0.000 C 
ENDBRANCH   5  20
TORSDOF 2
