
     RDKit          3D

 35 37  0  0  0  0  0  0  0  0999 V2000
   37.9891   33.1682   49.4295 C   0  0  0  0  0  0  0  0  0  0  0  0
   39.0132   33.1608   48.4565 C   0  0  0  0  0  0  0  0  0  0  0  0
   39.0065   32.1290   47.5305 C   0  0  0  0  0  0  0  0  0  0  0  0
   38.0247   31.1789   47.5983 N   0  0  0  0  0  0  0  0  0  0  0  0
   37.0528   31.2237   48.5557 C   0  0  0  0  0  0  0  0  0  0  0  0
   37.0484   32.2174   49.4577 N   0  0  0  0  0  0  0  0  0  0  0  0
   37.2616   29.3590   51.0541 Br  0  0  0  0  0  0  0  0  0  0  0  0
   35.9502   29.3122   49.6673 C   0  0  0  0  0  0  0  0  0  0  0  0
   36.0048   30.2131   48.6314 C   0  0  0  0  0  0  0  0  0  0  0  0
   35.0175   30.1200   47.6577 C   0  0  0  0  0  0  0  0  0  0  0  0
   34.0046   29.1884   47.6761 C   0  0  0  0  0  0  0  0  0  0  0  0
   33.9988   28.3049   48.7446 C   0  0  0  0  0  0  0  0  0  0  0  0
   34.9658   28.3752   49.7236 C   0  0  0  0  0  0  0  0  0  0  0  0
   38.0143   33.9761   50.1357 H   0  0  0  0  0  0  0  0  0  0  0  0
   39.7843   33.9090   48.4051 H   0  0  0  0  0  0  0  0  0  0  0  0
   39.7379   32.0202   46.7422 H   0  0  0  0  0  0  0  0  0  0  0  0
   35.0870   30.8520   46.8438 H   0  0  0  0  0  0  0  0  0  0  0  0
   33.1990   27.5777   48.7489 H   0  0  0  0  0  0  0  0  0  0  0  0
   34.8772   27.6381   50.5230 H   0  0  0  0  0  0  0  0  0  0  0  0
   33.0094   29.1299   46.6516 N   0  0  0  0  0  0  0  0  0  0  0  0
   31.7224   29.6503   47.0552 C   0  0  0  0  0  0  0  0  0  0  0  0
   30.6648   29.6074   46.0205 C   0  0  0  0  0  0  0  0  0  0  0  0
   30.9033   28.6156   44.9168 C   0  0  0  0  0  0  0  0  0  0  0  0
   30.2146   28.9045   44.0879 H   0  0  0  0  0  0  0  0  0  0  0  0
   32.2971   28.6641   44.3604 C   0  0  0  0  0  0  0  0  0  0  0  0
   33.3891   28.5743   45.3668 C   0  0  0  0  0  0  0  0  0  0  0  0
   31.8943   30.7248   47.3358 H   0  0  0  0  0  0  0  0  0  0  0  0
   31.4076   29.0801   47.9633 H   0  0  0  0  0  0  0  0  0  0  0  0
   29.7047   29.3131   46.4954 H   0  0  0  0  0  0  0  0  0  0  0  0
   30.4785   30.6259   45.5697 H   0  0  0  0  0  0  0  0  0  0  0  0
   30.6088   27.5883   45.2178 H   0  0  0  0  0  0  0  0  0  0  0  0
   32.4307   29.5349   43.6864 H   0  0  0  0  0  0  0  0  0  0  0  0
   32.3812   27.7568   43.6921 H   0  0  0  0  0  0  0  0  0  0  0  0
   34.2363   29.2223   45.0023 H   0  0  0  0  0  0  0  0  0  0  0  0
   33.8389   27.5667   45.4620 H   0  0  0  0  0  0  0  0  0  0  0  0
  1  6  2  0
  2  1  1  0
  3  4  1  0
  3  2  2  0
  4  5  2  0
  5  9  1  0
  5  6  1  0
  8 13  2  0
  8  7  1  0
  9  8  1  0
 10 11  1  0
 10  9  2  0
 11 12  2  0
 12 13  1  0
  1 14  1  0
  2 15  1  0
  3 16  1  0
 10 17  1  0
 12 18  1  0
 13 19  1  0
 20 21  1  0
 21 22  1  0
 22 23  1  0
 23 24  1  0
 23 25  1  0
 25 26  1  0
 26 20  1  0
 21 27  1  0
 21 28  1  0
 22 29  1  0
 22 30  1  0
 23 31  1  0
 25 32  1  0
 25 33  1  0
 26 34  1  0
 26 35  1  0
 11 20  1  0
M  ISO  7  14  14  15  14  16  14  17  14  18  14  19  14  24  15
M  END
>  <DihAtoms>  (1) 
9,10,19,20

>  <DihDeg>  (1) 
0.01291092783660266

$$$$
