
 OpenBabel03272509233D

 44 48  0  0  0  0  0  0  0  0999 V2000
   36.1610   28.6840   33.4470 C   0  0  0  0  0  0  0  0  0  0  0  0
   35.1320   29.5990   33.3310 C   0  0  0  0  0  0  0  0  0  0  0  0
   34.9860   30.1270   32.0450 C   0  0  0  0  0  0  0  0  0  0  0  0
   35.8280   29.7420   30.9850 C   0  0  0  0  0  0  0  0  0  0  0  0
   36.8480   28.7970   31.2220 C   0  0  0  0  0  0  0  0  0  0  0  0
   37.0050   28.2650   32.4850 C   0  0  0  0  0  0  0  0  0  0  0  0
   34.2070   30.8560   31.8420 H   0  0  0  0  0  0  0  0  0  0  0  0
   35.6910   30.1690   30.0010 H   0  0  0  0  0  0  0  0  0  0  0  0
   37.4930   28.5040   30.4020 H   0  0  0  0  0  0  0  0  0  0  0  0
   33.0490   29.3650   34.5760 C   0  0  0  0  0  0  0  0  0  0  0  0
   34.2840   29.9870   34.3950 C   0  0  0  0  0  0  0  0  0  0  0  0
   34.6240   31.0020   35.3130 C   0  0  0  0  0  0  0  0  0  0  0  0
   33.7570   31.3100   36.2990 N   0  0  0  0  0  0  0  0  0  0  0  0
   32.5540   30.6620   36.4270 C   0  0  0  0  0  0  0  0  0  0  0  0
   32.2130   29.7010   35.5720 N   0  0  0  0  0  0  0  0  0  0  0  0
   32.6920   28.5740   33.9270 H   0  0  0  0  0  0  0  0  0  0  0  0
   31.9750   31.0270   37.2700 H   0  0  0  0  0  0  0  0  0  0  0  0
   35.9290   31.7080   35.1770 C   0  0  0  0  0  0  0  0  0  0  0  0
   36.5900   31.0990   34.5180 H   0  0  0  0  0  0  0  0  0  0  0  0
   36.4530   31.7620   36.1730 H   0  0  0  0  0  0  0  0  0  0  0  0
   35.7690   32.6800   34.7050 H   0  0  0  0  0  0  0  0  0  0  0  0
   36.3850   28.0990   34.7010 O   0  0  0  0  0  0  0  0  0  0  0  0
   35.9220   28.4370   35.5350 H   0  0  0  0  0  0  0  0  0  0  0  0
   38.0190   27.3500   32.6440 O   0  0  0  0  0  0  0  0  0  0  0  0
   38.2620   25.3140   34.0710 C   0  0  0  0  0  0  0  0  0  0  0  0
   37.9040   26.0190   32.9450 C   0  0  0  0  0  0  0  0  0  0  0  0
   37.3220   25.3260   31.8950 C   0  0  0  0  0  0  0  0  0  0  0  0
   37.0960   23.9460   31.9630 C   0  0  0  0  0  0  0  0  0  0  0  0
   36.5670   23.0150   31.1370 N   0  0  0  0  0  0  0  0  0  0  0  0
   36.5950   21.8100   31.7160 C   0  0  0  0  0  0  0  0  0  0  0  0
   37.1590   21.9800   32.9470 N   0  0  0  0  0  0  0  0  0  0  0  0
   37.4700   23.2880   33.1070 C   0  0  0  0  0  0  0  0  0  0  0  0
   38.0470   23.9620   34.1510 C   0  0  0  0  0  0  0  0  0  0  0  0
   38.7090   25.9530   34.8330 H   0  0  0  0  0  0  0  0  0  0  0  0
   36.9810   25.7370   30.9330 H   0  0  0  0  0  0  0  0  0  0  0  0
   36.1870   23.2240   30.1720 H   0  0  0  0  0  0  0  0  0  0  0  0
   36.2500   20.8630   31.3210 H   0  0  0  0  0  0  0  0  0  0  0  0
   38.4460   23.3110   35.3510 N   0  0  0  0  0  0  0  0  0  0  0  0
   39.8550   22.9930   35.1900 C   0  0  0  0  0  2  0  0  0  0  0  0
   40.3030   22.1330   36.3500 C   0  0  0  0  0  2  0  0  0  0  0  0
   40.0680   22.7930   37.6780 C   0  0  0  0  0  3  0  0  0  0  0  0
   40.8350   23.5890   37.8040 H   0  0  0  0  0  0  0  0  0  0  0  0
   38.6510   23.3290   37.7870 C   0  0  0  0  0  2  0  0  0  0  0  0
   37.8090   22.9270   36.5970 C   0  0  0  0  0  2  0  0  0  0  0  0
  1 22  1  0  0  0  0
  2  1  1  0  0  0  0
  2 11  1  0  0  0  0
  3  2  2  0  0  0  0
  4  5  2  0  0  0  0
  4  3  1  0  0  0  0
  5  6  1  0  0  0  0
  6 24  1  0  0  0  0
  6  1  2  0  0  0  0
  7  3  1  0  0  0  0
  8  4  1  0  0  0  0
  9  5  1  0  0  0  0
 10 15  1  0  0  0  0
 11 10  2  0  0  0  0
 11 12  1  0  0  0  0
 12 13  2  0  0  0  0
 13 14  1  0  0  0  0
 14 17  1  0  0  0  0
 15 14  2  0  0  0  0
 16 10  1  0  0  0  0
 18 12  1  0  0  0  0
 18 20  1  0  0  0  0
 19 18  1  0  0  0  0
 21 18  1  0  0  0  0
 22 23  1  0  0  0  0
 24 26  1  0  0  0  0
 25 33  1  0  0  0  0
 25 34  1  0  0  0  0
 26 25  2  0  0  0  0
 27 28  2  0  0  0  0
 27 26  1  0  0  0  0
 28 32  1  0  0  0  0
 29 30  1  0  0  0  0
 29 28  1  0  0  0  0
 30 31  2  0  0  0  0
 31 32  1  0  0  0  0
 32 33  2  0  0  0  0
 33 38  1  0  0  0  0
 35 27  1  0  0  0  0
 36 29  1  0  0  0  0
 37 30  1  0  0  0  0
 38 44  1  0  0  0  0
 39 38  1  0  0  0  0
 39 40  1  0  0  0  0
 40 41  1  0  0  0  0
 41 43  1  0  0  0  0
 41 42  1  0  0  0  0
 44 43  1  0  0  0  0
M  END
>  <minimizedAffinity>
-6.60571051

$$$$

 OpenBabel03272509233D

 44 48  0  0  0  0  0  0  0  0999 V2000
   37.4480   26.4350   32.0890 C   0  0  0  0  0  0  0  0  0  0  0  0
   36.2470   26.9110   31.5990 C   0  0  0  0  0  0  0  0  0  0  0  0
   35.4040   25.9140   31.0980 C   0  0  0  0  0  0  0  0  0  0  0  0
   35.7750   24.5550   31.1070 C   0  0  0  0  0  0  0  0  0  0  0  0
   37.0300   24.1860   31.6340 C   0  0  0  0  0  0  0  0  0  0  0  0
   37.8730   25.1570   32.1320 C   0  0  0  0  0  0  0  0  0  0  0  0
   34.4340   26.1770   30.6880 H   0  0  0  0  0  0  0  0  0  0  0  0
   35.1010   23.8070   30.7120 H   0  0  0  0  0  0  0  0  0  0  0  0
   37.3090   23.1390   31.6380 H   0  0  0  0  0  0  0  0  0  0  0  0
   35.0550   28.7890   32.5960 C   0  0  0  0  0  0  0  0  0  0  0  0
   35.8720   28.2740   31.5890 C   0  0  0  0  0  0  0  0  0  0  0  0
   36.2870   29.1760   30.5870 C   0  0  0  0  0  0  0  0  0  0  0  0
   35.8840   30.4600   30.6550 N   0  0  0  0  0  0  0  0  0  0  0  0
   35.0790   30.9090   31.6710 C   0  0  0  0  0  0  0  0  0  0  0  0
   34.6750   30.0770   32.6270 N   0  0  0  0  0  0  0  0  0  0  0  0
   34.6810   28.1810   33.4120 H   0  0  0  0  0  0  0  0  0  0  0  0
   34.8450   31.9660   31.5790 H   0  0  0  0  0  0  0  0  0  0  0  0
   37.1610   28.6920   29.4820 C   0  0  0  0  0  0  0  0  0  0  0  0
   37.6090   27.7200   29.7890 H   0  0  0  0  0  0  0  0  0  0  0  0
   38.0280   29.3960   29.3280 H   0  0  0  0  0  0  0  0  0  0  0  0
   36.5580   28.5280   28.5860 H   0  0  0  0  0  0  0  0  0  0  0  0
   38.3600   27.3610   32.6130 O   0  0  0  0  0  0  0  0  0  0  0  0
   38.2270   28.3580   32.5020 H   0  0  0  0  0  0  0  0  0  0  0  0
   39.0800   24.7260   32.6300 O   0  0  0  0  0  0  0  0  0  0  0  0
   40.4840   23.7100   34.4300 C   0  0  0  0  0  0  0  0  0  0  0  0
   39.3490   24.2770   33.8960 C   0  0  0  0  0  0  0  0  0  0  0  0
   38.2510   24.4510   34.7240 C   0  0  0  0  0  0  0  0  0  0  0  0
   38.2810   24.0680   36.0710 C   0  0  0  0  0  0  0  0  0  0  0  0
   37.4060   24.1060   37.1010 N   0  0  0  0  0  0  0  0  0  0  0  0
   37.9650   23.5950   38.2040 C   0  0  0  0  0  0  0  0  0  0  0  0
   39.2330   23.2220   37.8640 N   0  0  0  0  0  0  0  0  0  0  0  0
   39.4360   23.5090   36.5560 C   0  0  0  0  0  0  0  0  0  0  0  0
   40.5260   23.3300   35.7470 C   0  0  0  0  0  0  0  0  0  0  0  0
   41.2850   23.6190   33.6950 H   0  0  0  0  0  0  0  0  0  0  0  0
   37.2770   24.8850   34.4560 H   0  0  0  0  0  0  0  0  0  0  0  0
   36.4230   24.4870   37.0320 H   0  0  0  0  0  0  0  0  0  0  0  0
   37.5330   23.4810   39.1900 H   0  0  0  0  0  0  0  0  0  0  0  0
   41.7390   22.7540   36.2180 N   0  0  0  0  0  0  0  0  0  0  0  0
   41.5040   21.3220   36.2940 C   0  0  0  0  0  2  0  0  0  0  0  0
   42.6870   20.6620   36.9640 C   0  0  0  0  0  2  0  0  0  0  0  0
   43.9790   20.9390   36.2510 C   0  0  0  0  0  3  0  0  0  0  0  0
   43.9960   20.3230   35.3240 H   0  0  0  0  0  0  0  0  0  0  0  0
   44.1470   22.4210   35.9660 C   0  0  0  0  0  2  0  0  0  0  0  0
   43.0500   23.2410   36.6060 C   0  0  0  0  0  2  0  0  0  0  0  0
  1  6  1  0  0  0  0
  1 22  1  0  0  0  0
  2  1  2  0  0  0  0
  3  4  2  0  0  0  0
  3  2  1  0  0  0  0
  4  5  1  0  0  0  0
  5  9  1  0  0  0  0
  5  6  2  0  0  0  0
  6 24  1  0  0  0  0
  7  3  1  0  0  0  0
  8  4  1  0  0  0  0
 10 15  1  0  0  0  0
 10 16  1  0  0  0  0
 11  2  1  0  0  0  0
 11 10  2  0  0  0  0
 12 13  2  0  0  0  0
 12 11  1  0  0  0  0
 13 14  1  0  0  0  0
 14 15  2  0  0  0  0
 17 14  1  0  0  0  0
 18 19  1  0  0  0  0
 18 12  1  0  0  0  0
 20 18  1  0  0  0  0
 21 18  1  0  0  0  0
 23 22  1  0  0  0  0
 24 26  1  0  0  0  0
 25 33  1  0  0  0  0
 26 25  2  0  0  0  0
 26 27  1  0  0  0  0
 27 28  2  0  0  0  0
 28 32  1  0  0  0  0
 28 29  1  0  0  0  0
 29 30  1  0  0  0  0
 30 37  1  0  0  0  0
 31 30  2  0  0  0  0
 32 31  1  0  0  0  0
 33 38  1  0  0  0  0
 33 32  2  0  0  0  0
 34 25  1  0  0  0  0
 35 27  1  0  0  0  0
 36 29  1  0  0  0  0
 38 39  1  0  0  0  0
 38 44  1  0  0  0  0
 39 40  1  0  0  0  0
 41 40  1  0  0  0  0
 42 41  1  0  0  0  0
 43 41  1  0  0  0  0
 43 44  1  0  0  0  0
M  END
>  <minimizedAffinity>
-6.47015238

$$$$

 OpenBabel03272509233D

 44 48  0  0  0  0  0  0  0  0999 V2000
   38.4010   25.8320   34.3360 C   0  0  0  0  0  0  0  0  0  0  0  0
   38.5330   24.4630   34.4660 C   0  0  0  0  0  0  0  0  0  0  0  0
   37.8240   23.7320   33.5080 C   0  0  0  0  0  0  0  0  0  0  0  0
   37.0530   24.3630   32.5140 C   0  0  0  0  0  0  0  0  0  0  0  0
   36.9910   25.7720   32.4790 C   0  0  0  0  0  0  0  0  0  0  0  0
   37.6850   26.5080   33.4170 C   0  0  0  0  0  0  0  0  0  0  0  0
   37.8590   22.6460   33.5180 H   0  0  0  0  0  0  0  0  0  0  0  0
   36.5140   23.7700   31.7870 H   0  0  0  0  0  0  0  0  0  0  0  0
   36.3960   26.2520   31.7120 H   0  0  0  0  0  0  0  0  0  0  0  0
   40.6250   23.4480   35.2000 C   0  0  0  0  0  0  0  0  0  0  0  0
   39.3080   23.8260   35.4630 C   0  0  0  0  0  0  0  0  0  0  0  0
   38.8120   23.5390   36.7520 C   0  0  0  0  0  0  0  0  0  0  0  0
   39.6180   22.9300   37.6440 N   0  0  0  0  0  0  0  0  0  0  0  0
   40.9070   22.5820   37.3270 C   0  0  0  0  0  0  0  0  0  0  0  0
   41.3960   22.8420   36.1180 N   0  0  0  0  0  0  0  0  0  0  0  0
   41.1030   23.6230   34.2430 H   0  0  0  0  0  0  0  0  0  0  0  0
   41.4210   22.1000   38.1530 H   0  0  0  0  0  0  0  0  0  0  0  0
   37.4120   23.9160   37.0990 C   0  0  0  0  0  0  0  0  0  0  0  0
   37.0540   24.6600   36.3520 H   0  0  0  0  0  0  0  0  0  0  0  0
   37.3820   24.4420   38.0960 H   0  0  0  0  0  0  0  0  0  0  0  0
   36.7730   23.0320   37.0430 H   0  0  0  0  0  0  0  0  0  0  0  0
   39.0760   26.6500   35.2520 O   0  0  0  0  0  0  0  0  0  0  0  0
   39.5220   26.2690   36.0760 H   0  0  0  0  0  0  0  0  0  0  0  0
   37.5800   27.8750   33.3230 O   0  0  0  0  0  0  0  0  0  0  0  0
   35.4790   28.8370   34.2730 C   0  0  0  0  0  0  0  0  0  0  0  0
   36.4350   28.6260   33.3050 C   0  0  0  0  0  0  0  0  0  0  0  0
   36.2730   29.2500   32.0780 C   0  0  0  0  0  0  0  0  0  0  0  0
   35.1740   30.0760   31.8130 C   0  0  0  0  0  0  0  0  0  0  0  0
   34.7480   30.8010   30.7550 N   0  0  0  0  0  0  0  0  0  0  0  0
   33.6000   31.4210   31.0490 C   0  0  0  0  0  0  0  0  0  0  0  0
   33.2880   31.0810   32.3330 N   0  0  0  0  0  0  0  0  0  0  0  0
   34.2490   30.2550   32.8110 C   0  0  0  0  0  0  0  0  0  0  0  0
   34.3970   29.6440   34.0270 C   0  0  0  0  0  0  0  0  0  0  0  0
   35.7020   28.3030   35.1970 H   0  0  0  0  0  0  0  0  0  0  0  0
   36.9410   29.1850   31.2060 H   0  0  0  0  0  0  0  0  0  0  0  0
   35.2590   30.8600   29.8310 H   0  0  0  0  0  0  0  0  0  0  0  0
   33.0050   32.0730   30.4220 H   0  0  0  0  0  0  0  0  0  0  0  0
   33.4570   29.8080   35.0830 N   0  0  0  0  0  0  0  0  0  0  0  0
   33.8300   31.0340   35.7680 C   0  0  0  0  0  2  0  0  0  0  0  0
   32.9890   31.1770   37.0170 C   0  0  0  0  0  2  0  0  0  0  0  0
   31.5170   31.1730   36.7220 C   0  0  0  0  0  3  0  0  0  0  0  0
   31.2550   32.1600   36.2770 H   0  0  0  0  0  0  0  0  0  0  0  0
   31.1360   30.0110   35.8210 C   0  0  0  0  0  2  0  0  0  0  0  0
   32.3050   29.0820   35.5830 C   0  0  0  0  0  2  0  0  0  0  0  0
  1  2  1  0  0  0  0
  1 22  1  0  0  0  0
  2 11  1  0  0  0  0
  3  7  1  0  0  0  0
  3  2  2  0  0  0  0
  4  3  1  0  0  0  0
  5  4  2  0  0  0  0
  5  6  1  0  0  0  0
  6  1  2  0  0  0  0
  8  4  1  0  0  0  0
  9  5  1  0  0  0  0
 10 11  2  0  0  0  0
 10 15  1  0  0  0  0
 11 12  1  0  0  0  0
 12 18  1  0  0  0  0
 12 13  2  0  0  0  0
 14 13  1  0  0  0  0
 14 17  1  0  0  0  0
 15 14  2  0  0  0  0
 16 10  1  0  0  0  0
 18 20  1  0  0  0  0
 19 18  1  0  0  0  0
 21 18  1  0  0  0  0
 22 23  1  0  0  0  0
 24  6  1  0  0  0  0
 25 34  1  0  0  0  0
 26 24  1  0  0  0  0
 26 25  2  0  0  0  0
 27 26  1  0  0  0  0
 28 27  2  0  0  0  0
 28 32  1  0  0  0  0
 29 30  1  0  0  0  0
 29 28  1  0  0  0  0
 30 31  2  0  0  0  0
 31 32  1  0  0  0  0
 32 33  2  0  0  0  0
 33 25  1  0  0  0  0
 33 38  1  0  0  0  0
 35 27  1  0  0  0  0
 36 29  1  0  0  0  0
 37 30  1  0  0  0  0
 38 44  1  0  0  0  0
 38 39  1  0  0  0  0
 39 40  1  0  0  0  0
 41 40  1  0  0  0  0
 42 41  1  0  0  0  0
 43 41  1  0  0  0  0
 44 43  1  0  0  0  0
M  END
>  <minimizedAffinity>
-6.39595509

$$$$

 OpenBabel03272509233D

 44 48  0  0  0  0  0  0  0  0999 V2000
   35.8880   29.2250   33.3850 C   0  0  0  0  0  0  0  0  0  0  0  0
   35.3280   30.4750   33.5640 C   0  0  0  0  0  0  0  0  0  0  0  0
   35.3210   31.2630   32.4090 C   0  0  0  0  0  0  0  0  0  0  0  0
   35.8460   30.7960   31.1890 C   0  0  0  0  0  0  0  0  0  0  0  0
   36.3940   29.4980   31.1250 C   0  0  0  0  0  0  0  0  0  0  0  0
   36.4080   28.7070   32.2550 C   0  0  0  0  0  0  0  0  0  0  0  0
   34.9040   32.2650   32.4380 H   0  0  0  0  0  0  0  0  0  0  0  0
   35.8270   31.4300   30.3130 H   0  0  0  0  0  0  0  0  0  0  0  0
   36.7960   29.1440   30.1830 H   0  0  0  0  0  0  0  0  0  0  0  0
   35.6020   31.6710   35.6700 C   0  0  0  0  0  0  0  0  0  0  0  0
   34.8000   30.9470   34.7880 C   0  0  0  0  0  0  0  0  0  0  0  0
   33.4660   30.7200   35.1850 C   0  0  0  0  0  0  0  0  0  0  0  0
   33.0430   31.2060   36.3690 N   0  0  0  0  0  0  0  0  0  0  0  0
   33.8790   31.9130   37.1960 C   0  0  0  0  0  0  0  0  0  0  0  0
   35.1410   32.1390   36.8430 N   0  0  0  0  0  0  0  0  0  0  0  0
   36.6410   31.9010   35.4620 H   0  0  0  0  0  0  0  0  0  0  0  0
   33.3860   32.2330   38.1090 H   0  0  0  0  0  0  0  0  0  0  0  0
   32.5550   29.9530   34.2890 C   0  0  0  0  0  0  0  0  0  0  0  0
   33.0050   29.9270   33.2700 H   0  0  0  0  0  0  0  0  0  0  0  0
   31.5690   30.4890   34.1770 H   0  0  0  0  0  0  0  0  0  0  0  0
   32.4640   28.9280   34.6540 H   0  0  0  0  0  0  0  0  0  0  0  0
   35.9400   28.3610   34.4880 O   0  0  0  0  0  0  0  0  0  0  0  0
   35.7220   28.6810   35.4230 H   0  0  0  0  0  0  0  0  0  0  0  0
   36.9570   27.4540   32.1210 O   0  0  0  0  0  0  0  0  0  0  0  0
   37.8640   25.9170   33.8680 C   0  0  0  0  0  0  0  0  0  0  0  0
   37.9340   26.8830   32.8910 C   0  0  0  0  0  0  0  0  0  0  0  0
   39.1770   27.4130   32.5820 C   0  0  0  0  0  0  0  0  0  0  0  0
   40.3400   26.9870   33.2370 C   0  0  0  0  0  0  0  0  0  0  0  0
   41.6530   27.2990   33.1650 N   0  0  0  0  0  0  0  0  0  0  0  0
   42.3520   26.5700   34.0430 C   0  0  0  0  0  0  0  0  0  0  0  0
   41.4550   25.7720   34.6920 N   0  0  0  0  0  0  0  0  0  0  0  0
   40.2170   26.0220   34.2030 C   0  0  0  0  0  0  0  0  0  0  0  0
   38.9940   25.4910   34.5180 C   0  0  0  0  0  0  0  0  0  0  0  0
   36.8440   25.5680   34.0320 H   0  0  0  0  0  0  0  0  0  0  0  0
   39.4040   28.1860   31.8330 H   0  0  0  0  0  0  0  0  0  0  0  0
   42.0580   28.0180   32.5040 H   0  0  0  0  0  0  0  0  0  0  0  0
   43.4180   26.5820   34.2330 H   0  0  0  0  0  0  0  0  0  0  0  0
   38.8320   24.4880   35.5140 N   0  0  0  0  0  0  0  0  0  0  0  0
   38.1350   25.1250   36.6190 C   0  0  0  0  0  2  0  0  0  0  0  0
   38.0920   24.1710   37.7910 C   0  0  0  0  0  2  0  0  0  0  0  0
   37.4350   22.8660   37.4460 C   0  0  0  0  0  3  0  0  0  0  0  0
   36.3370   23.0420   37.3830 H   0  0  0  0  0  0  0  0  0  0  0  0
   38.0040   22.2820   36.1640 C   0  0  0  0  0  2  0  0  0  0  0  0
   39.1790   23.0870   35.6580 C   0  0  0  0  0  2  0  0  0  0  0  0
  1  2  1  0  0  0  0
  1 22  1  0  0  0  0
  2 11  1  0  0  0  0
  3  7  1  0  0  0  0
  3  2  2  0  0  0  0
  4  3  1  0  0  0  0
  5  4  2  0  0  0  0
  5  6  1  0  0  0  0
  6  1  2  0  0  0  0
  8  4  1  0  0  0  0
  9  5  1  0  0  0  0
 10 15  1  0  0  0  0
 11 12  1  0  0  0  0
 11 10  2  0  0  0  0
 12 13  2  0  0  0  0
 13 14  1  0  0  0  0
 14 17  1  0  0  0  0
 15 14  2  0  0  0  0
 16 10  1  0  0  0  0
 18 21  1  0  0  0  0
 18 12  1  0  0  0  0
 19 18  1  0  0  0  0
 20 18  1  0  0  0  0
 22 23  1  0  0  0  0
 24  6  1  0  0  0  0
 24 26  1  0  0  0  0
 25 34  1  0  0  0  0
 25 33  1  0  0  0  0
 26 25  2  0  0  0  0
 27 26  1  0  0  0  0
 27 28  2  0  0  0  0
 28 32  1  0  0  0  0
 29 28  1  0  0  0  0
 29 30  1  0  0  0  0
 30 37  1  0  0  0  0
 30 31  2  0  0  0  0
 32 33  2  0  0  0  0
 32 31  1  0  0  0  0
 33 38  1  0  0  0  0
 35 27  1  0  0  0  0
 36 29  1  0  0  0  0
 38 44  1  0  0  0  0
 38 39  1  0  0  0  0
 39 40  1  0  0  0  0
 41 40  1  0  0  0  0
 42 41  1  0  0  0  0
 43 41  1  0  0  0  0
 44 43  1  0  0  0  0
M  END
>  <minimizedAffinity>
-6.3783555

$$$$

 OpenBabel03272509233D

 44 48  0  0  0  0  0  0  0  0999 V2000
   36.2290   28.4810   33.6220 C   0  0  0  0  0  0  0  0  0  0  0  0
   35.1980   29.3730   33.4040 C   0  0  0  0  0  0  0  0  0  0  0  0
   35.0970   29.8110   32.0800 C   0  0  0  0  0  0  0  0  0  0  0  0
   35.9830   29.3640   31.0820 C   0  0  0  0  0  0  0  0  0  0  0  0
   37.0020   28.4500   31.4220 C   0  0  0  0  0  0  0  0  0  0  0  0
   37.1150   28.0070   32.7240 C   0  0  0  0  0  0  0  0  0  0  0  0
   34.3200   30.5150   31.7980 H   0  0  0  0  0  0  0  0  0  0  0  0
   35.8800   29.7220   30.0660 H   0  0  0  0  0  0  0  0  0  0  0  0
   37.6810   28.1090   30.6490 H   0  0  0  0  0  0  0  0  0  0  0  0
   33.0650   29.2080   34.5740 C   0  0  0  0  0  0  0  0  0  0  0  0
   34.3050   29.8230   34.4050 C   0  0  0  0  0  0  0  0  0  0  0  0
   34.6050   30.8950   35.2720 C   0  0  0  0  0  0  0  0  0  0  0  0
   33.6970   31.2590   36.2000 N   0  0  0  0  0  0  0  0  0  0  0  0
   32.4920   30.6150   36.3190 C   0  0  0  0  0  0  0  0  0  0  0  0
   32.1880   29.6020   35.5120 N   0  0  0  0  0  0  0  0  0  0  0  0
   32.7370   28.3760   33.9610 H   0  0  0  0  0  0  0  0  0  0  0  0
   31.8770   31.0290   37.1120 H   0  0  0  0  0  0  0  0  0  0  0  0
   35.9130   31.5970   35.1460 C   0  0  0  0  0  0  0  0  0  0  0  0
   36.6020   30.9510   34.5550 H   0  0  0  0  0  0  0  0  0  0  0  0
   36.3960   31.7150   36.1580 H   0  0  0  0  0  0  0  0  0  0  0  0
   35.7710   32.5370   34.6090 H   0  0  0  0  0  0  0  0  0  0  0  0
   36.4100   27.9850   34.9210 O   0  0  0  0  0  0  0  0  0  0  0  0
   35.9120   28.3730   35.7110 H   0  0  0  0  0  0  0  0  0  0  0  0
   38.1290   27.1180   32.9840 O   0  0  0  0  0  0  0  0  0  0  0  0
   37.3890   24.7650   32.5870 C   0  0  0  0  0  0  0  0  0  0  0  0
   38.0180   25.7820   33.2670 C   0  0  0  0  0  0  0  0  0  0  0  0
   38.6700   25.4740   34.4510 C   0  0  0  0  0  0  0  0  0  0  0  0
   38.6980   24.1670   34.9540 C   0  0  0  0  0  0  0  0  0  0  0  0
   39.2300   23.5670   36.0420 N   0  0  0  0  0  0  0  0  0  0  0  0
   38.9490   22.2590   36.0350 C   0  0  0  0  0  0  0  0  0  0  0  0
   38.2160   22.0220   34.9080 N   0  0  0  0  0  0  0  0  0  0  0  0
   38.0570   23.1880   34.2390 C   0  0  0  0  0  0  0  0  0  0  0  0
   37.4090   23.4800   33.0680 C   0  0  0  0  0  0  0  0  0  0  0  0
   36.9100   25.1140   31.6720 H   0  0  0  0  0  0  0  0  0  0  0  0
   39.2160   26.1650   35.1100 H   0  0  0  0  0  0  0  0  0  0  0  0
   39.7880   24.0710   36.7860 H   0  0  0  0  0  0  0  0  0  0  0  0
   39.2280   21.5050   36.7590 H   0  0  0  0  0  0  0  0  0  0  0  0
   36.7340   22.4890   32.3020 N   0  0  0  0  0  0  0  0  0  0  0  0
   37.7580   21.8210   31.5150 C   0  0  0  0  0  2  0  0  0  0  0  0
   37.0930   20.8810   30.5360 C   0  0  0  0  0  2  0  0  0  0  0  0
   36.2180   19.8690   31.2170 C   0  0  0  0  0  3  0  0  0  0  0  0
   36.8780   19.1110   31.6950 H   0  0  0  0  0  0  0  0  0  0  0  0
   35.2780   20.5290   32.2120 C   0  0  0  0  0  2  0  0  0  0  0  0
   35.3650   22.0360   32.1450 C   0  0  0  0  0  2  0  0  0  0  0  0
  1 22  1  0  0  0  0
  2  1  1  0  0  0  0
  2 11  1  0  0  0  0
  3  2  2  0  0  0  0
  4  5  2  0  0  0  0
  4  3  1  0  0  0  0
  5  6  1  0  0  0  0
  6 24  1  0  0  0  0
  6  1  2  0  0  0  0
  7  3  1  0  0  0  0
  8  4  1  0  0  0  0
  9  5  1  0  0  0  0
 10 15  1  0  0  0  0
 11 10  2  0  0  0  0
 11 12  1  0  0  0  0
 12 13  2  0  0  0  0
 13 14  1  0  0  0  0
 14 17  1  0  0  0  0
 15 14  2  0  0  0  0
 16 10  1  0  0  0  0
 18 12  1  0  0  0  0
 18 20  1  0  0  0  0
 19 18  1  0  0  0  0
 21 18  1  0  0  0  0
 22 23  1  0  0  0  0
 24 26  1  0  0  0  0
 25 33  2  0  0  0  0
 25 26  1  0  0  0  0
 26 27  2  0  0  0  0
 27 28  1  0  0  0  0
 27 35  1  0  0  0  0
 28 29  1  0  0  0  0
 29 36  1  0  0  0  0
 30 29  1  0  0  0  0
 30 37  1  0  0  0  0
 31 30  2  0  0  0  0
 32 31  1  0  0  0  0
 32 28  2  0  0  0  0
 33 32  1  0  0  0  0
 34 25  1  0  0  0  0
 38 33  1  0  0  0  0
 39 38  1  0  0  0  0
 40 41  1  0  0  0  0
 40 39  1  0  0  0  0
 41 42  1  0  0  0  0
 41 43  1  0  0  0  0
 44 43  1  0  0  0  0
 44 38  1  0  0  0  0
M  END
>  <minimizedAffinity>
-6.30111551

$$$$

 OpenBabel03272509233D

 44 48  0  0  0  0  0  0  0  0999 V2000
   37.8920   26.1880   33.7440 C   0  0  0  0  0  0  0  0  0  0  0  0
   37.9820   24.8250   33.9500 C   0  0  0  0  0  0  0  0  0  0  0  0
   37.3980   24.0590   32.9370 C   0  0  0  0  0  0  0  0  0  0  0  0
   36.7800   24.6520   31.8200 C   0  0  0  0  0  0  0  0  0  0  0  0
   36.7470   26.0580   31.7160 C   0  0  0  0  0  0  0  0  0  0  0  0
   37.3200   26.8290   32.7060 C   0  0  0  0  0  0  0  0  0  0  0  0
   37.4130   22.9740   32.9990 H   0  0  0  0  0  0  0  0  0  0  0  0
   36.3360   24.0330   31.0530 H   0  0  0  0  0  0  0  0  0  0  0  0
   36.2710   26.5100   30.8540 H   0  0  0  0  0  0  0  0  0  0  0  0
   37.8610   23.9310   36.2140 C   0  0  0  0  0  0  0  0  0  0  0  0
   38.6030   24.2250   35.0710 C   0  0  0  0  0  0  0  0  0  0  0  0
   39.9740   23.8970   35.1020 C   0  0  0  0  0  0  0  0  0  0  0  0
   40.4850   23.3270   36.2120 N   0  0  0  0  0  0  0  0  0  0  0  0
   39.7050   23.0600   37.3080 C   0  0  0  0  0  0  0  0  0  0  0  0
   38.4090   23.3610   37.3010 N   0  0  0  0  0  0  0  0  0  0  0  0
   36.8010   24.1420   36.2940 H   0  0  0  0  0  0  0  0  0  0  0  0
   40.2680   22.6010   38.1160 H   0  0  0  0  0  0  0  0  0  0  0  0
   40.8250   24.1860   33.9130 C   0  0  0  0  0  0  0  0  0  0  0  0
   40.1580   24.3550   33.0380 H   0  0  0  0  0  0  0  0  0  0  0  0
   41.4540   23.2870   33.6520 H   0  0  0  0  0  0  0  0  0  0  0  0
   41.4020   25.0950   34.0900 H   0  0  0  0  0  0  0  0  0  0  0  0
   38.4500   27.0400   34.7070 O   0  0  0  0  0  0  0  0  0  0  0  0
   38.7730   26.6910   35.6000 H   0  0  0  0  0  0  0  0  0  0  0  0
   37.2520   28.1920   32.5400 O   0  0  0  0  0  0  0  0  0  0  0  0
   35.4160   29.2550   33.8590 C   0  0  0  0  0  0  0  0  0  0  0  0
   36.1660   29.0040   32.7330 C   0  0  0  0  0  0  0  0  0  0  0  0
   35.8180   29.6490   31.5560 C   0  0  0  0  0  0  0  0  0  0  0  0
   34.7370   30.5370   31.4990 C   0  0  0  0  0  0  0  0  0  0  0  0
   34.1650   31.2960   30.5370 N   0  0  0  0  0  0  0  0  0  0  0  0
   33.1270   31.9750   31.0370 C   0  0  0  0  0  0  0  0  0  0  0  0
   33.0360   31.6370   32.3570 N   0  0  0  0  0  0  0  0  0  0  0  0
   34.0200   30.7550   32.6490 C   0  0  0  0  0  0  0  0  0  0  0  0
   34.3540   30.1220   33.8170 C   0  0  0  0  0  0  0  0  0  0  0  0
   35.7740   28.6990   34.7260 H   0  0  0  0  0  0  0  0  0  0  0  0
   36.3110   29.5590   30.5770 H   0  0  0  0  0  0  0  0  0  0  0  0
   34.5010   31.3380   29.5350 H   0  0  0  0  0  0  0  0  0  0  0  0
   32.4640   32.6650   30.5300 H   0  0  0  0  0  0  0  0  0  0  0  0
   33.6330   30.3260   35.0270 N   0  0  0  0  0  0  0  0  0  0  0  0
   34.2740   31.4450   35.6960 C   0  0  0  0  0  2  0  0  0  0  0  0
   33.6800   31.6000   37.0780 C   0  0  0  0  0  2  0  0  0  0  0  0
   32.1920   31.7990   37.0430 C   0  0  0  0  0  3  0  0  0  0  0  0
   31.9940   32.8390   36.7000 H   0  0  0  0  0  0  0  0  0  0  0  0
   31.5150   30.7590   36.1670 C   0  0  0  0  0  2  0  0  0  0  0  0
   32.4940   29.7130   35.6840 C   0  0  0  0  0  2  0  0  0  0  0  0
  1  2  1  0  0  0  0
  1 22  1  0  0  0  0
  2 11  1  0  0  0  0
  3  7  1  0  0  0  0
  3  2  2  0  0  0  0
  4  3  1  0  0  0  0
  5  4  2  0  0  0  0
  5  6  1  0  0  0  0
  6  1  2  0  0  0  0
  8  4  1  0  0  0  0
  9  5  1  0  0  0  0
 10 16  1  0  0  0  0
 10 15  1  0  0  0  0
 11 12  1  0  0  0  0
 11 10  2  0  0  0  0
 12 13  2  0  0  0  0
 13 14  1  0  0  0  0
 14 17  1  0  0  0  0
 15 14  2  0  0  0  0
 18 21  1  0  0  0  0
 18 12  1  0  0  0  0
 19 18  1  0  0  0  0
 20 18  1  0  0  0  0
 22 23  1  0  0  0  0
 24  6  1  0  0  0  0
 24 26  1  0  0  0  0
 25 34  1  0  0  0  0
 26 25  2  0  0  0  0
 27 26  1  0  0  0  0
 28 27  2  0  0  0  0
 28 32  1  0  0  0  0
 29 30  1  0  0  0  0
 29 28  1  0  0  0  0
 30 31  2  0  0  0  0
 31 32  1  0  0  0  0
 32 33  2  0  0  0  0
 33 25  1  0  0  0  0
 33 38  1  0  0  0  0
 35 27  1  0  0  0  0
 36 29  1  0  0  0  0
 37 30  1  0  0  0  0
 38 44  1  0  0  0  0
 38 39  1  0  0  0  0
 39 40  1  0  0  0  0
 41 40  1  0  0  0  0
 42 41  1  0  0  0  0
 43 41  1  0  0  0  0
 44 43  1  0  0  0  0
M  END
>  <minimizedAffinity>
-6.12755871

$$$$

 OpenBabel03272509233D

 44 48  0  0  0  0  0  0  0  0999 V2000
   35.9920   28.8820   31.8550 C   0  0  0  0  0  0  0  0  0  0  0  0
   35.3240   29.9480   32.4250 C   0  0  0  0  0  0  0  0  0  0  0  0
   35.3590   29.9580   33.8230 C   0  0  0  0  0  0  0  0  0  0  0  0
   36.0240   28.9550   34.5550 C   0  0  0  0  0  0  0  0  0  0  0  0
   36.6740   27.9120   33.8640 C   0  0  0  0  0  0  0  0  0  0  0  0
   36.6490   27.8880   32.4840 C   0  0  0  0  0  0  0  0  0  0  0  0
   34.8650   30.7520   34.3740 H   0  0  0  0  0  0  0  0  0  0  0  0
   36.0330   28.9890   35.6360 H   0  0  0  0  0  0  0  0  0  0  0  0
   37.1840   27.1440   34.4320 H   0  0  0  0  0  0  0  0  0  0  0  0
   33.2840   30.8650   31.4550 C   0  0  0  0  0  0  0  0  0  0  0  0
   34.6560   30.9570   31.6920 C   0  0  0  0  0  0  0  0  0  0  0  0
   35.3160   32.0870   31.1680 C   0  0  0  0  0  0  0  0  0  0  0  0
   34.6020   33.0020   30.4820 N   0  0  0  0  0  0  0  0  0  0  0  0
   33.2530   32.8580   30.2800 C   0  0  0  0  0  0  0  0  0  0  0  0
   32.6090   31.8000   30.7650 N   0  0  0  0  0  0  0  0  0  0  0  0
   32.6830   30.0380   31.8130 H   0  0  0  0  0  0  0  0  0  0  0  0
   32.8290   33.6790   29.7090 H   0  0  0  0  0  0  0  0  0  0  0  0
   36.7810   32.2470   31.3850 C   0  0  0  0  0  0  0  0  0  0  0  0
   37.0890   31.5680   32.2130 H   0  0  0  0  0  0  0  0  0  0  0  0
   37.0150   33.2910   31.7410 H   0  0  0  0  0  0  0  0  0  0  0  0
   37.3170   31.9560   30.4800 H   0  0  0  0  0  0  0  0  0  0  0  0
   36.0130   28.7870   30.4570 O   0  0  0  0  0  0  0  0  0  0  0  0
   35.4340   29.3810   29.8760 H   0  0  0  0  0  0  0  0  0  0  0  0
   37.3030   26.8430   31.8770 O   0  0  0  0  0  0  0  0  0  0  0  0
   38.0120   24.8890   33.2630 C   0  0  0  0  0  0  0  0  0  0  0  0
   37.3170   25.5290   32.2620 C   0  0  0  0  0  0  0  0  0  0  0  0
   36.4680   24.7740   31.4680 C   0  0  0  0  0  0  0  0  0  0  0  0
   36.3080   23.3970   31.6670 C   0  0  0  0  0  0  0  0  0  0  0  0
   35.5820   22.4180   31.0830 N   0  0  0  0  0  0  0  0  0  0  0  0
   35.8130   21.2460   31.6850 C   0  0  0  0  0  0  0  0  0  0  0  0
   36.7130   21.4880   32.6820 N   0  0  0  0  0  0  0  0  0  0  0  0
   37.0230   22.8060   32.6790 C   0  0  0  0  0  0  0  0  0  0  0  0
   37.8660   23.5410   33.4690 C   0  0  0  0  0  0  0  0  0  0  0  0
   38.6480   25.5730   33.8260 H   0  0  0  0  0  0  0  0  0  0  0  0
   35.8460   25.1290   30.6330 H   0  0  0  0  0  0  0  0  0  0  0  0
   34.9280   22.5700   30.2660 H   0  0  0  0  0  0  0  0  0  0  0  0
   35.3910   20.2750   31.4570 H   0  0  0  0  0  0  0  0  0  0  0  0
   38.6200   22.9600   34.5260 N   0  0  0  0  0  0  0  0  0  0  0  0
   40.0120   23.0180   34.1090 C   0  0  0  0  0  2  0  0  0  0  0  0
   40.8560   22.2500   35.1000 C   0  0  0  0  0  2  0  0  0  0  0  0
   40.7120   22.7690   36.5020 C   0  0  0  0  0  3  0  0  0  0  0  0
   41.2730   23.7280   36.5710 H   0  0  0  0  0  0  0  0  0  0  0  0
   39.2510   22.9220   36.8870 C   0  0  0  0  0  2  0  0  0  0  0  0
   38.3310   22.3730   35.8210 C   0  0  0  0  0  2  0  0  0  0  0  0
  1  2  2  0  0  0  0
  1  6  1  0  0  0  0
  2  3  1  0  0  0  0
  3  7  1  0  0  0  0
  3  4  2  0  0  0  0
  4  8  1  0  0  0  0
  5  9  1  0  0  0  0
  5  4  1  0  0  0  0
  6  5  2  0  0  0  0
 10 11  1  0  0  0  0
 10 16  1  0  0  0  0
 11  2  1  0  0  0  0
 12 18  1  0  0  0  0
 12 11  2  0  0  0  0
 13 12  1  0  0  0  0
 14 13  2  0  0  0  0
 14 15  1  0  0  0  0
 15 10  2  0  0  0  0
 17 14  1  0  0  0  0
 18 20  1  0  0  0  0
 18 19  1  0  0  0  0
 21 18  1  0  0  0  0
 22  1  1  0  0  0  0
 23 22  1  0  0  0  0
 24 26  1  0  0  0  0
 24  6  1  0  0  0  0
 25 33  1  0  0  0  0
 25 34  1  0  0  0  0
 26 25  2  0  0  0  0
 27 28  2  0  0  0  0
 27 26  1  0  0  0  0
 28 32  1  0  0  0  0
 29 28  1  0  0  0  0
 29 30  1  0  0  0  0
 30 31  2  0  0  0  0
 32 31  1  0  0  0  0
 32 33  2  0  0  0  0
 33 38  1  0  0  0  0
 35 27  1  0  0  0  0
 36 29  1  0  0  0  0
 37 30  1  0  0  0  0
 38 44  1  0  0  0  0
 39 38  1  0  0  0  0
 39 40  1  0  0  0  0
 40 41  1  0  0  0  0
 41 42  1  0  0  0  0
 41 43  1  0  0  0  0
 44 43  1  0  0  0  0
M  END
>  <minimizedAffinity>
-6.08095884

$$$$

 OpenBabel03272509233D

 44 48  0  0  0  0  0  0  0  0999 V2000
   38.8280   24.6400   33.7550 C   0  0  0  0  0  0  0  0  0  0  0  0
   38.3500   23.6130   34.5460 C   0  0  0  0  0  0  0  0  0  0  0  0
   37.6260   22.6460   33.8420 C   0  0  0  0  0  0  0  0  0  0  0  0
   37.4180   22.7400   32.4530 C   0  0  0  0  0  0  0  0  0  0  0  0
   37.9540   23.8370   31.7470 C   0  0  0  0  0  0  0  0  0  0  0  0
   38.6730   24.7990   32.4270 C   0  0  0  0  0  0  0  0  0  0  0  0
   37.2040   21.7940   34.3670 H   0  0  0  0  0  0  0  0  0  0  0  0
   36.8520   21.9760   31.9370 H   0  0  0  0  0  0  0  0  0  0  0  0
   37.7910   23.9040   30.6790 H   0  0  0  0  0  0  0  0  0  0  0  0
   37.6260   24.0480   36.8320 C   0  0  0  0  0  0  0  0  0  0  0  0
   38.5580   23.5150   35.9420 C   0  0  0  0  0  0  0  0  0  0  0  0
   39.6890   22.8910   36.5060 C   0  0  0  0  0  0  0  0  0  0  0  0
   39.8090   22.8420   37.8480 N   0  0  0  0  0  0  0  0  0  0  0  0
   38.8580   23.3840   38.6750 C   0  0  0  0  0  0  0  0  0  0  0  0
   37.7820   23.9780   38.1650 N   0  0  0  0  0  0  0  0  0  0  0  0
   36.7220   24.5480   36.5030 H   0  0  0  0  0  0  0  0  0  0  0  0
   39.1030   23.2610   39.7260 H   0  0  0  0  0  0  0  0  0  0  0  0
   40.7240   22.3010   35.6110 C   0  0  0  0  0  0  0  0  0  0  0  0
   40.2820   22.1800   34.5960 H   0  0  0  0  0  0  0  0  0  0  0  0
   40.9950   21.2620   35.9540 H   0  0  0  0  0  0  0  0  0  0  0  0
   41.5750   22.9810   35.5400 H   0  0  0  0  0  0  0  0  0  0  0  0
   39.5680   25.6580   34.3720 O   0  0  0  0  0  0  0  0  0  0  0  0
   39.6280   25.7350   35.3790 H   0  0  0  0  0  0  0  0  0  0  0  0
   39.1660   25.8400   31.6770 O   0  0  0  0  0  0  0  0  0  0  0  0
   37.5600   27.7360   31.9360 C   0  0  0  0  0  0  0  0  0  0  0  0
   38.5080   26.9770   31.2890 C   0  0  0  0  0  0  0  0  0  0  0  0
   38.9110   27.3720   30.0230 C   0  0  0  0  0  0  0  0  0  0  0  0
   38.3790   28.5110   29.4060 C   0  0  0  0  0  0  0  0  0  0  0  0
   38.5600   29.1370   28.2210 N   0  0  0  0  0  0  0  0  0  0  0  0
   37.7740   30.2160   28.1410 C   0  0  0  0  0  0  0  0  0  0  0  0
   37.0730   30.2780   29.3100 N   0  0  0  0  0  0  0  0  0  0  0  0
   37.4380   29.2350   30.0930 C   0  0  0  0  0  0  0  0  0  0  0  0
   37.0310   28.8540   31.3440 C   0  0  0  0  0  0  0  0  0  0  0  0
   37.3160   27.3390   32.9220 H   0  0  0  0  0  0  0  0  0  0  0  0
   39.6520   26.8790   29.3760 H   0  0  0  0  0  0  0  0  0  0  0  0
   39.2310   28.8090   27.4730 H   0  0  0  0  0  0  0  0  0  0  0  0
   37.6820   30.9250   27.3280 H   0  0  0  0  0  0  0  0  0  0  0  0
   36.0580   29.5820   32.0840 N   0  0  0  0  0  0  0  0  0  0  0  0
   35.0050   28.6340   32.4090 C   0  0  0  0  0  2  0  0  0  0  0  0
   33.8470   29.3780   33.0350 C   0  0  0  0  0  2  0  0  0  0  0  0
   34.2520   30.1460   34.2590 C   0  0  0  0  0  3  0  0  0  0  0  0
   34.3980   29.4170   35.0880 H   0  0  0  0  0  0  0  0  0  0  0  0
   35.4900   30.9870   34.0020 C   0  0  0  0  0  2  0  0  0  0  0  0
   35.8980   30.9480   32.5460 C   0  0  0  0  0  2  0  0  0  0  0  0
  1 22  1  0  0  0  0
  1  2  1  0  0  0  0
  2 11  1  0  0  0  0
  3  7  1  0  0  0  0
  3  2  2  0  0  0  0
  4  3  1  0  0  0  0
  5  6  1  0  0  0  0
  5  4  2  0  0  0  0
  6  1  2  0  0  0  0
  8  4  1  0  0  0  0
  9  5  1  0  0  0  0
 10 15  1  0  0  0  0
 11 12  1  0  0  0  0
 11 10  2  0  0  0  0
 12 13  2  0  0  0  0
 13 14  1  0  0  0  0
 14 17  1  0  0  0  0
 15 14  2  0  0  0  0
 16 10  1  0  0  0  0
 18 20  1  0  0  0  0
 18 12  1  0  0  0  0
 19 18  1  0  0  0  0
 21 18  1  0  0  0  0
 22 23  1  0  0  0  0
 24  6  1  0  0  0  0
 25 34  1  0  0  0  0
 26 24  1  0  0  0  0
 26 25  2  0  0  0  0
 27 26  1  0  0  0  0
 28 27  2  0  0  0  0
 28 32  1  0  0  0  0
 29 28  1  0  0  0  0
 30 29  1  0  0  0  0
 30 31  2  0  0  0  0
 31 32  1  0  0  0  0
 32 33  2  0  0  0  0
 33 25  1  0  0  0  0
 33 38  1  0  0  0  0
 35 27  1  0  0  0  0
 36 29  1  0  0  0  0
 37 30  1  0  0  0  0
 38 39  1  0  0  0  0
 38 44  1  0  0  0  0
 39 40  1  0  0  0  0
 40 41  1  0  0  0  0
 41 42  1  0  0  0  0
 43 41  1  0  0  0  0
 44 43  1  0  0  0  0
M  END
>  <minimizedAffinity>
-6.06250477

$$$$

 OpenBabel03272509233D

 44 48  0  0  0  0  0  0  0  0999 V2000
   36.0210   28.7700   31.8690 C   0  0  0  0  0  0  0  0  0  0  0  0
   35.3740   29.8390   32.4590 C   0  0  0  0  0  0  0  0  0  0  0  0
   35.4340   29.8370   33.8550 C   0  0  0  0  0  0  0  0  0  0  0  0
   36.1010   28.8220   34.5680 C   0  0  0  0  0  0  0  0  0  0  0  0
   36.7280   27.7770   33.8580 C   0  0  0  0  0  0  0  0  0  0  0  0
   36.6790   27.7650   32.4790 C   0  0  0  0  0  0  0  0  0  0  0  0
   34.9580   30.6320   34.4210 H   0  0  0  0  0  0  0  0  0  0  0  0
   36.1300   28.8480   35.6490 H   0  0  0  0  0  0  0  0  0  0  0  0
   37.2410   27.0000   34.4110 H   0  0  0  0  0  0  0  0  0  0  0  0
   33.3260   30.7860   31.5370 C   0  0  0  0  0  0  0  0  0  0  0  0
   34.7030   30.8590   31.7450 C   0  0  0  0  0  0  0  0  0  0  0  0
   35.3660   31.9850   31.2140 C   0  0  0  0  0  0  0  0  0  0  0  0
   34.6500   32.9120   30.5470 N   0  0  0  0  0  0  0  0  0  0  0  0
   33.2950   32.7860   30.3730 C   0  0  0  0  0  0  0  0  0  0  0  0
   32.6490   31.7330   30.8660 N   0  0  0  0  0  0  0  0  0  0  0  0
   32.7220   29.9640   31.9030 H   0  0  0  0  0  0  0  0  0  0  0  0
   32.8700   33.6160   29.8160 H   0  0  0  0  0  0  0  0  0  0  0  0
   36.8380   32.1250   31.4010 C   0  0  0  0  0  0  0  0  0  0  0  0
   37.1550   31.4380   32.2180 H   0  0  0  0  0  0  0  0  0  0  0  0
   37.0930   33.1640   31.7570 H   0  0  0  0  0  0  0  0  0  0  0  0
   37.3510   31.8320   30.4830 H   0  0  0  0  0  0  0  0  0  0  0  0
   36.0160   28.6850   30.4700 O   0  0  0  0  0  0  0  0  0  0  0  0
   35.4330   29.2890   29.9040 H   0  0  0  0  0  0  0  0  0  0  0  0
   37.3110   26.7180   31.8520 O   0  0  0  0  0  0  0  0  0  0  0  0
   36.8250   24.2750   32.0440 C   0  0  0  0  0  0  0  0  0  0  0  0
   37.4910   25.4460   32.3260 C   0  0  0  0  0  0  0  0  0  0  0  0
   38.5340   25.4030   33.2380 C   0  0  0  0  0  0  0  0  0  0  0  0
   38.9130   24.2090   33.8640 C   0  0  0  0  0  0  0  0  0  0  0  0
   39.8550   23.8520   34.7660 N   0  0  0  0  0  0  0  0  0  0  0  0
   39.7760   22.5430   35.0260 C   0  0  0  0  0  0  0  0  0  0  0  0
   38.7540   22.0520   34.2660 N   0  0  0  0  0  0  0  0  0  0  0  0
   38.2180   23.0690   33.5490 C   0  0  0  0  0  0  0  0  0  0  0  0
   37.1860   23.0980   32.6500 C   0  0  0  0  0  0  0  0  0  0  0  0
   36.0260   24.4190   31.3170 H   0  0  0  0  0  0  0  0  0  0  0  0
   39.1620   26.2420   33.5700 H   0  0  0  0  0  0  0  0  0  0  0  0
   40.5490   24.5230   35.1970 H   0  0  0  0  0  0  0  0  0  0  0  0
   40.3830   21.9500   35.6990 H   0  0  0  0  0  0  0  0  0  0  0  0
   36.4450   21.9340   32.3010 N   0  0  0  0  0  0  0  0  0  0  0  0
   37.1060   21.3690   31.1360 C   0  0  0  0  0  2  0  0  0  0  0  0
   36.2660   20.2350   30.5940 C   0  0  0  0  0  2  0  0  0  0  0  0
   36.0150   19.1660   31.6180 C   0  0  0  0  0  3  0  0  0  0  0  0
   36.9550   18.5830   31.7420 H   0  0  0  0  0  0  0  0  0  0  0  0
   35.5240   19.7590   32.9280 C   0  0  0  0  0  2  0  0  0  0  0  0
   35.2740   21.2450   32.8080 C   0  0  0  0  0  2  0  0  0  0  0  0
  1  2  2  0  0  0  0
  1  6  1  0  0  0  0
  2  3  1  0  0  0  0
  3  7  1  0  0  0  0
  3  4  2  0  0  0  0
  4  8  1  0  0  0  0
  5  9  1  0  0  0  0
  5  4  1  0  0  0  0
  6  5  2  0  0  0  0
 10 11  1  0  0  0  0
 10 16  1  0  0  0  0
 11  2  1  0  0  0  0
 12 18  1  0  0  0  0
 12 11  2  0  0  0  0
 13 12  1  0  0  0  0
 14 13  2  0  0  0  0
 14 15  1  0  0  0  0
 15 10  2  0  0  0  0
 17 14  1  0  0  0  0
 18 20  1  0  0  0  0
 18 19  1  0  0  0  0
 21 18  1  0  0  0  0
 22  1  1  0  0  0  0
 23 22  1  0  0  0  0
 24 26  1  0  0  0  0
 24  6  1  0  0  0  0
 25 26  2  0  0  0  0
 25 33  1  0  0  0  0
 26 27  1  0  0  0  0
 27 35  1  0  0  0  0
 27 28  2  0  0  0  0
 28 29  1  0  0  0  0
 29 30  1  0  0  0  0
 29 36  1  0  0  0  0
 30 37  1  0  0  0  0
 31 30  2  0  0  0  0
 32 28  1  0  0  0  0
 32 31  1  0  0  0  0
 33 32  2  0  0  0  0
 34 25  1  0  0  0  0
 38 33  1  0  0  0  0
 38 44  1  0  0  0  0
 39 38  1  0  0  0  0
 40 39  1  0  0  0  0
 40 41  1  0  0  0  0
 41 42  1  0  0  0  0
 41 43  1  0  0  0  0
 44 43  1  0  0  0  0
M  END
>  <minimizedAffinity>
-6.05527449

$$$$
