
 OpenBabel03272509023D

 31 33  0  0  0  0  0  0  0  0999 V2000
   36.9060   29.4710   49.3120 C   0  0  0  0  0  0  0  0  0  0  0  0
   35.6170   29.4400   49.1640 C   0  0  0  0  0  0  0  0  0  0  0  0
   38.5620   32.7000   49.7660 C   0  0  0  0  0  0  0  0  0  0  0  0
   38.9080   33.0350   48.4380 C   0  0  0  0  0  0  0  0  0  0  0  0
   38.5530   32.1310   47.4170 C   0  0  0  0  0  0  0  0  0  0  0  0
   37.8920   30.9770   47.7610 N   0  0  0  0  0  0  0  0  0  0  0  0
   37.5960   30.7230   49.0510 C   0  0  0  0  0  0  0  0  0  0  0  0
   37.9180   31.5610   50.0590 N   0  0  0  0  0  0  0  0  0  0  0  0
   38.8290   33.3830   50.5540 H   0  0  0  0  0  0  0  0  0  0  0  0
   39.4200   33.9470   48.2460 H   0  0  0  0  0  0  0  0  0  0  0  0
   38.8780   32.4260   46.0740 N   0  0  0  0  0  0  0  0  0  0  0  0
   37.9030   32.2310   45.0570 C   0  0  0  0  0  0  0  0  0  0  0  0
   38.3880   32.3760   43.6590 C   0  0  0  0  0  0  0  0  0  0  0  0
   39.8450   32.1870   43.4400 C   0  0  0  0  0  0  0  0  0  0  0  0
   40.0390   31.2590   42.8240 H   0  0  0  0  0  0  0  0  0  0  0  0
   40.7090   32.0610   44.6380 C   0  0  0  0  0  0  0  0  0  0  0  0
   40.2080   32.9200   45.7830 C   0  0  0  0  0  0  0  0  0  0  0  0
   34.6830   28.3170   49.3440 C   0  0  0  0  0  0  0  0  0  0  0  0
   35.2030   27.5300   49.9290 H   0  0  0  0  0  0  0  0  0  0  0  0
   33.8080   28.6070   49.9920 H   0  0  0  0  0  0  0  0  0  0  0  0
   34.1640   27.7620   48.0700 C   0  0  0  0  0  0  0  0  0  0  0  0
   33.7370   26.4770   47.8410 C   0  0  0  0  0  0  0  0  0  0  0  0
   33.2720   26.1070   46.5880 C   0  0  0  0  0  0  0  0  0  0  0  0
   33.2240   27.0110   45.5360 C   0  0  0  0  0  0  0  0  0  0  0  0
   33.6450   28.3020   45.7390 C   0  0  0  0  0  0  0  0  0  0  0  0
   34.1100   28.6690   46.9960 C   0  0  0  0  0  0  0  0  0  0  0  0
   33.7950   25.8120   48.6910 H   0  0  0  0  0  0  0  0  0  0  0  0
   32.9510   25.0600   46.4990 H   0  0  0  0  0  0  0  0  0  0  0  0
   32.8510   26.6640   44.5840 H   0  0  0  0  0  0  0  0  0  0  0  0
   33.6200   29.0290   44.9390 H   0  0  0  0  0  0  0  0  0  0  0  0
   34.4310   29.7040   47.0960 H   0  0  0  0  0  0  0  0  0  0  0  0
  2  1  2  0  0  0  0
  2 18  1  0  0  0  0
  3  8  1  0  0  0  0
  3  9  1  0  0  0  0
  4  3  2  0  0  0  0
  5  6  2  0  0  0  0
  5  4  1  0  0  0  0
  6  7  1  0  0  0  0
  7  1  1  0  0  0  0
  7  8  2  0  0  0  0
 10  4  1  0  0  0  0
 11  5  1  0  0  0  0
 12 11  1  0  0  0  0
 13 12  1  0  0  0  0
 14 13  1  0  0  0  0
 14 16  1  0  0  0  0
 15 14  1  0  0  0  0
 16 17  1  0  0  0  0
 17 11  1  0  0  0  0
 18 19  1  0  0  0  0
 18 20  1  0  0  0  0
 21 18  1  0  0  0  0
 22 21  1  0  0  0  0
 22 27  1  0  0  0  0
 23 22  2  0  0  0  0
 24 25  2  0  0  0  0
 24 23  1  0  0  0  0
 25 26  1  0  0  0  0
 26 31  1  0  0  0  0
 26 21  2  0  0  0  0
 28 23  1  0  0  0  0
 29 24  1  0  0  0  0
 30 25  1  0  0  0  0
M  END
>  <minimizedAffinity>
-6.46848726

>  <minimizedRMSD>
2.52830076

$$$$
