
 OpenBabel03272508083D

 24 25  0  0  0  0  0  0  0  0999 V2000
   38.8980   32.8340   48.0140 O   0  0  0  0  0  0  0  0  0  0  0  0
   38.5260   31.7110   47.1170 P   0  0  2  0  0  0  0  0  0  0  0  0
   37.2000   32.1700   46.1480 O   0  0  0  0  0  0  0  0  0  0  0  0
   36.5260   32.5710   46.7840 H   0  0  0  0  0  0  0  0  0  0  0  0
   38.1810   30.2480   47.9010 O   0  0  0  0  0  0  0  0  0  0  0  0
   37.2440   30.1610   51.4870 C   0  0  0  0  0  0  0  0  0  0  0  0
   38.0380   30.4680   50.3780 C   0  0  0  0  0  0  0  0  0  0  0  0
   37.5970   30.0700   49.1180 C   0  0  0  0  0  0  0  0  0  0  0  0
   36.4100   29.3980   49.0270 N   0  0  0  0  0  0  0  0  0  0  0  0
   35.6740   29.1210   50.1150 C   0  0  0  0  0  0  0  0  0  0  0  0
   36.0880   29.4990   51.3410 N   0  0  0  0  0  0  0  0  0  0  0  0
   37.6790   30.5160   52.4170 H   0  0  0  0  0  0  0  0  0  0  0  0
   38.9560   30.9790   50.3650 H   0  0  0  0  0  0  0  0  0  0  0  0
   34.7280   28.5850   50.0540 H   0  0  0  0  0  0  0  0  0  0  0  0
   39.8050   31.4570   46.0280 O   0  0  0  0  0  0  0  0  0  0  0  0
   39.2390   29.1300   44.8000 F   0  0  0  0  0  0  0  0  0  0  0  0
   39.4210   30.2900   44.0880 C   0  0  0  0  0  0  0  0  0  0  0  0
   39.7170   31.5310   44.6610 C   0  0  0  0  0  0  0  0  0  0  0  0
   39.8680   32.5920   43.7880 C   0  0  0  0  0  0  0  0  0  0  0  0
   40.0970   33.5200   44.3310 H   0  0  0  0  0  0  0  0  0  0  0  0
   39.7330   32.4250   42.4400 C   0  0  0  0  0  0  0  0  0  0  0  0
   39.8670   33.3090   41.8300 H   0  0  0  0  0  0  0  0  0  0  0  0
   39.4460   31.2170   41.8890 C   0  0  0  0  0  3  0  0  0  0  0  0
   39.2860   30.1240   42.7240 C   0  0  0  0  0  3  0  0  0  0  0  0
  2  5  1  0  0  0  0
  2  1  2  1  0  0  0
  3  4  1  0  0  0  0
  3  2  1  0  0  0  0
  5  8  1  0  0  0  0
  6 12  1  0  0  0  0
  7  6  2  0  0  0  0
  8  7  1  0  0  0  0
  9  8  2  0  0  0  0
  9 10  1  0  0  0  0
 10 11  2  0  0  0  0
 11  6  1  0  0  0  0
 13  7  1  0  0  0  0
 14 10  1  0  0  0  0
 15  2  1  0  0  0  0
 17 18  1  0  0  0  0
 17 16  1  0  0  0  0
 18 15  1  0  0  0  0
 19 20  1  0  0  0  0
 19 18  2  0  0  0  0
 21 19  1  0  0  0  0
 22 21  1  0  0  0  0
 23 21  2  0  0  0  0
 23 24  1  0  0  0  0
 24 17  2  0  0  0  0
M  END
>  <minimizedAffinity>
-5.0142827

>  <minimizedRMSD>
2.4208014

$$$$
