REMARK  Name = 
REMARK  8 active torsions:
REMARK  status: ('A' for Active; 'I' for Inactive)
REMARK    1  A    between atoms: P_2  and  O_3
REMARK    2  A    between atoms: P_2  and  O_4
REMARK    3  A    between atoms: P_2  and  O_12
REMARK    4  A    between atoms: O_4  and  C_5
REMARK    5  A    between atoms: C_5  and  C_6
REMARK    6  A    between atoms: O_12  and  C_14
REMARK    7  A    between atoms: C_13  and  O_18
REMARK    8  A    between atoms: O_18  and  C_33
REMARK                            x       y       z     vdW  Elec       q    Type
REMARK                         _______ _______ _______ _____ _____    ______ ____
ROOT
ATOM      1  C   UNL     1      38.857  32.470  47.803  0.00  0.00    +0.000 C 
ATOM      2  C   UNL     1      38.237  31.468  48.768  0.00  0.00    +0.000 C 
ATOM      3  C   UNL     1      38.836  32.013  50.068  0.00  0.00    +0.000 C 
ATOM      4  O   UNL     1      38.491  33.348  49.962  0.00  0.00    +0.000 OA
ATOM      5  C   UNL     1      38.666  33.739  48.657  0.00  0.00    +0.000 C 
ATOM      6  H   UNL     1      39.917  32.298  47.643  0.00  0.00    +0.000 HD
ATOM      7  H   UNL     1      38.556  30.430  48.588  0.00  0.00    +0.000 HD
ATOM      8  H   UNL     1      38.277  31.528  50.886  0.00  0.00    +0.000 HD
ATOM      9  H   UNL     1      39.910  31.813  50.104  0.00  0.00    +0.000 HD
ATOM     10  H   UNL     1      37.809  34.323  48.275  0.00  0.00    +0.000 HD
ATOM     11  H   UNL     1      39.571  34.362  48.595  0.00  0.00    +0.000 HD
ENDROOT
BRANCH   2  12
ATOM     12  O   UNL     1      36.877  31.656  48.745  0.00  0.00    +0.000 OA
BRANCH  12  14
ATOM     13  O   UNL     1      36.035  29.949  46.968  0.00  0.00    +0.000 OA
ATOM     14  P   UNL     1      36.026  30.235  48.444  0.00  0.00    +0.000 P 
BRANCH  14  15
ATOM     15  O   UNL     1      36.800  28.915  49.236  0.00  0.00    +0.000 OA
ATOM     16  H   UNL     1      37.530  28.648  48.617  0.00  0.00    +0.000 HD
ENDBRANCH  14  15
BRANCH  14  17
ATOM     17  O   UNL     1      34.439  30.367  49.021  0.00  0.00    +0.000 OA
BRANCH  17  18
ATOM     18  C   UNL     1      34.176  29.237  49.764  0.00  0.00    +0.000 C 
ATOM     19  H   UNL     1      33.642  29.480  50.719  0.00  0.00    +0.000 HD
ATOM     20  H   UNL     1      35.091  28.691  50.093  0.00  0.00    +0.000 HD
BRANCH  18  21
ATOM     21  C   UNL     1      33.316  28.257  49.065  0.00  0.00    +0.000 A 
ATOM     22  C   UNL     1      33.944  27.377  48.216  0.00  0.00    +0.000 A 
ATOM     23  C   UNL     1      33.187  26.426  47.527  0.00  0.00    +0.000 A 
ATOM     24  N   UNL     1      31.842  26.431  47.745  0.00  0.00    +0.000 NA
ATOM     25  C   UNL     1      31.241  27.307  48.586  0.00  0.00    +0.000 A 
ATOM     26  N   UNL     1      31.982  28.226  49.251  0.00  0.00    +0.000 NA
ATOM     27  H   UNL     1      34.990  27.295  47.980  0.00  0.00    +0.000 HD
ATOM     28  H   UNL     1      33.598  25.698  46.841  0.00  0.00    +0.000 HD
ATOM     29  H   UNL     1      30.165  27.227  48.689  0.00  0.00    +0.000 HD
ENDBRANCH  18  21
ENDBRANCH  17  18
ENDBRANCH  14  17
ENDBRANCH  12  14
ENDBRANCH   2  12
BRANCH   1  30
ATOM     30  O   UNL     1      38.094  32.490  46.670  0.00  0.00    +0.000 OA
BRANCH  30  33
ATOM     31  F   UNL     1      38.748  29.938  46.152  0.00  0.00    +0.000 F 
ATOM     32  C   UNL     1      38.942  30.944  45.261  0.00  0.00    +0.000 A 
ATOM     33  C   UNL     1      38.644  32.303  45.415  0.00  0.00    +0.000 A 
ATOM     34  C   UNL     1      38.928  33.150  44.376  0.00  0.00    +0.000 A 
ATOM     35  H   UNL     1      38.662  34.159  44.598  0.00  0.00    +0.000 HD
ATOM     36  C   UNL     1      39.491  32.662  43.217  0.00  0.00    +0.000 A 
ATOM     37  H   UNL     1      39.656  33.460  42.484  0.00  0.00    +0.000 HD
ATOM     38  C   UNL     1      39.796  31.323  43.038  0.00  0.00    +0.000 A 
ATOM     39  C   UNL     1      39.514  30.466  44.077  0.00  0.00    +0.000 A 
ENDBRANCH  30  33
ENDBRANCH   1  30
TORSDOF 8
