REMARK  Name = 
REMARK  2 active torsions:
REMARK  status: ('A' for Active; 'I' for Inactive)
REMARK    1  A    between atoms: C_5  and  S_7
REMARK    2  A    between atoms: S_7  and  C_13
REMARK                            x       y       z     vdW  Elec       q    Type
REMARK                         _______ _______ _______ _____ _____    ______ ____
ROOT
ATOM      1  S   UNL     1      34.537  28.243  49.298  0.00  0.00    +0.000 S 
ENDROOT
BRANCH   1   6
ATOM      2  C   UNL     1      37.262  30.177  51.425  0.00  0.00    +0.000 A 
ATOM      3  C   UNL     1      38.121  30.762  50.470  0.00  0.00    +0.000 A 
ATOM      4  C   UNL     1      37.847  30.549  49.115  0.00  0.00    +0.000 A 
ATOM      5  N   UNL     1      36.768  29.792  48.787  0.00  0.00    +0.000 NA
ATOM      6  C   UNL     1      35.957  29.240  49.720  0.00  0.00    +0.000 A 
ATOM      7  N   UNL     1      36.209  29.436  51.019  0.00  0.00    +0.000 NA
ATOM      8  H   UNL     1      37.447  30.323  52.471  0.00  0.00    +0.000 HD
ATOM      9  H   UNL     1      38.949  31.345  50.839  0.00  0.00    +0.000 HD
ATOM     10  H   UNL     1      38.488  30.985  48.388  0.00  0.00    +0.000 HD
ENDBRANCH   1   6
BRANCH   1  13
ATOM     11  F   UNL     1      33.150  26.370  47.504  0.00  0.00    +0.000 F 
ATOM     12  C   UNL     1      34.165  25.833  48.242  0.00  0.00    +0.000 A 
ATOM     13  C   UNL     1      34.960  26.516  49.153  0.00  0.00    +0.000 A 
ATOM     14  C   UNL     1      35.952  25.832  49.825  0.00  0.00    +0.000 A 
ATOM     15  H   UNL     1      36.522  26.453  50.518  0.00  0.00    +0.000 HD
ATOM     16  C   UNL     1      36.140  24.487  49.586  0.00  0.00    +0.000 A 
ATOM     17  H   UNL     1      36.933  24.005  50.144  0.00  0.00    +0.000 HD
ATOM     18  C   UNL     1      35.351  23.805  48.681  0.00  0.00    +0.000 A 
ATOM     19  C   UNL     1      34.343  24.487  47.993  0.00  0.00    +0.000 A 
ENDBRANCH   1  13
TORSDOF 2
