
     RDKit          3D

 29 30  0  0  0  0  0  0  0  0999 V2000
   36.0645   30.3050   50.0246 C   0  0  0  0  0  0  0  0  0  0  0  0
   35.1227   29.5955   49.1209 C   0  0  0  0  0  0  0  0  0  0  0  0
   34.6723   30.2892   47.9903 C   0  0  0  0  0  0  0  0  0  0  0  0
   33.7844   29.6435   47.1226 C   0  0  0  0  0  0  0  0  0  0  0  0
   33.4072   28.3696   47.4299 N   0  0  0  0  0  0  0  0  0  0  0  0
   33.8632   27.7330   48.5302 C   0  0  0  0  0  0  0  0  0  0  0  0
   34.7118   28.3371   49.3682 N   0  0  0  0  0  0  0  0  0  0  0  0
   36.3487   31.5812   49.6192 O   0  0  0  0  0  0  0  0  0  0  0  0
   38.3936   31.1682   48.0400 O   0  0  0  0  0  0  0  0  0  0  0  0
   38.0177   31.7147   49.3862 P   0  0  2  0  0  0  0  0  0  0  0  0
   38.8053   30.7494   50.5673 O   0  0  0  0  0  0  0  0  0  0  0  0
   38.5115   33.3205   49.5117 O   0  0  0  0  0  0  0  0  0  0  0  0
   36.9487   29.6868   50.2693 H   0  0  0  0  0  0  0  0  0  0  0  0
   35.5051   30.3944   51.0002 H   0  0  0  0  0  0  0  0  0  0  0  0
   34.9760   31.3038   47.7504 H   0  0  0  0  0  0  0  0  0  0  0  0
   33.4268   30.1662   46.2440 H   0  0  0  0  0  0  0  0  0  0  0  0
   33.5222   26.7110   48.7203 H   0  0  0  0  0  0  0  0  0  0  0  0
   38.3709   30.8714   51.4467 H   0  0  0  0  0  0  0  0  0  0  0  0
   40.7310   32.0905   50.7268 F   0  0  0  0  0  0  0  0  0  0  0  0
   40.9802   33.1545   49.9614 C   0  0  0  0  0  0  0  0  0  0  0  0
   39.8422   33.6985   49.4034 C   0  0  0  0  0  0  0  0  0  0  0  0
   39.9419   34.8198   48.5754 C   0  0  0  0  0  0  0  0  0  0  0  0
   39.1438   35.3501   48.0724 H   0  0  0  0  0  0  0  0  0  0  0  0
   41.1858   35.4001   48.3039 C   0  0  0  0  0  0  0  0  0  0  0  0
   41.3288   36.2617   47.6764 H   0  0  0  0  0  0  0  0  0  0  0  0
   42.3081   34.8231   48.8846 C   0  0  0  0  0  0  0  0  0  0  0  0
   42.2028   33.7198   49.6985 C   0  0  0  0  0  0  0  0  0  0  0  0
   43.2935   35.2262   48.7121 H   0  0  0  0  0  0  0  0  0  0  0  0
   43.0209   33.2072   50.1907 H   0  0  0  0  0  0  0  0  0  0  0  0
  2  7  1  0
  2  1  1  0
  3  2  2  0
  4  5  2  0
  4  3  1  0
  5  6  1  0
  6  7  2  0
  8  1  1  0
  9 10  2  0
 10 12  1  6
 10  8  1  0
 10 11  1  0
  1 13  1  0
  1 14  1  0
  3 15  1  0
  4 16  1  0
  6 17  1  0
 11 18  1  0
 19 20  1  0
 20 21  2  0
 21 22  1  0
 22 23  1  0
 22 24  2  0
 24 25  1  0
 24 26  1  0
 26 27  2  0
 27 20  1  0
 26 28  1  0
 27 29  1  0
 12 21  1  0
M  ISO  8  13   8  14   8  15  14  16  14  17  14  18   3  23  15  25  16
M  END
>  <DihAtoms>  (1) 
9,11,20,19

>  <DihDeg>  (1) 
0.002495077136801117

$$$$
