REMARK  Name = 
REMARK  5 active torsions:
REMARK  status: ('A' for Active; 'I' for Inactive)
REMARK    1  A    between atoms: C_1  and  C_5
REMARK    2  A    between atoms: C_2  and  C_9
REMARK    3  A    between atoms: C_9  and  S_10
REMARK    4  A    between atoms: C_9  and  C_23
REMARK    5  A    between atoms: S_10  and  C_11
REMARK                            x       y       z     vdW  Elec       q    Type
REMARK                         _______ _______ _______ _____ _____    ______ ____
ROOT
ATOM      1  C   UNL     1      37.405  32.458  49.855  0.00  0.00    +0.000 C 
ATOM      2  H   UNL     1      38.199  32.176  50.679  0.00  0.00    +0.000 HD
ENDROOT
BRANCH   1   5
ATOM      3  F   UNL     1      37.123  35.099  48.707  0.00  0.00    +0.000 F 
ATOM      4  C   UNL     1      36.451  34.863  49.875  0.00  0.00    +0.000 A 
ATOM      5  C   UNL     1      36.667  33.582  50.324  0.00  0.00    +0.000 A 
ATOM      6  C   UNL     1      36.040  33.225  51.511  0.00  0.00    +0.000 A 
ATOM      7  H   UNL     1      36.051  32.278  52.074  0.00  0.00    +0.000 HD
ATOM      8  C   UNL     1      35.224  34.113  52.228  0.00  0.00    +0.000 A 
ATOM      9  H   UNL     1      34.698  33.919  53.157  0.00  0.00    +0.000 HD
ATOM     10  C   UNL     1      35.034  35.402  51.734  0.00  0.00    +0.000 A 
ATOM     11  C   UNL     1      35.655  35.788  50.540  0.00  0.00    +0.000 A 
ENDBRANCH   1   5
BRANCH   1  13
ATOM     12  C   UNL     1      38.267  31.572  47.807  0.00  0.00    +0.000 C 
ATOM     13  C   UNL     1      38.161  32.619  48.600  0.00  0.00    +0.000 C 
BRANCH  12  16
ATOM     14  C   UNL     1      40.555  32.737  45.124  0.00  0.00    +0.000 A 
ATOM     15  C   UNL     1      39.790  32.694  46.283  0.00  0.00    +0.000 A 
ATOM     16  C   UNL     1      39.022  31.587  46.587  0.00  0.00    +0.000 A 
ATOM     17  N   UNL     1      39.044  30.555  45.718  0.00  0.00    +0.000 NA
ATOM     18  C   UNL     1      39.789  30.620  44.606  0.00  0.00    +0.000 A 
ATOM     19  N   UNL     1      40.538  31.692  44.304  0.00  0.00    +0.000 NA
ATOM     20  H   UNL     1      41.162  33.593  44.871  0.00  0.00    +0.000 HD
ATOM     21  H   UNL     1      39.879  33.612  46.892  0.00  0.00    +0.000 HD
ATOM     22  H   UNL     1      39.751  29.753  43.959  0.00  0.00    +0.000 HD
ENDBRANCH  12  16
ENDBRANCH   1  13
BRANCH   1  23
ATOM     23  S   UNL     1      36.379  30.946  49.676  0.00  0.00    +0.000 S 
BRANCH  23  24
ATOM     24  C   UNL     1      36.720  29.812  51.015  0.00  0.00    +0.000 C 
ATOM     25  F   UNL     1      37.540  30.362  52.002  0.00  0.00    +0.000 F 
ATOM     26  F   UNL     1      35.572  29.264  51.538  0.00  0.00    +0.000 F 
ATOM     27  F   UNL     1      37.452  28.735  50.447  0.00  0.00    +0.000 F 
ENDBRANCH  23  24
ENDBRANCH   1  23
TORSDOF 5
