
 OpenBabel03262522203D

 19 20  0  0  0  0  0  0  0  0999 V2000
   37.7790   30.1380   48.9990 O   0  0  0  0  0  0  0  0  0  0  0  0
   35.9780   28.8440   49.7380 C   0  0  0  0  0  0  0  0  0  0  0  0
   36.4660   29.7930   48.8170 C   0  0  0  0  0  0  0  0  0  0  0  0
   35.5840   30.2670   47.8420 C   0  0  0  0  0  0  0  0  0  0  0  0
   34.3180   29.7970   47.8340 N   0  0  0  0  0  0  0  0  0  0  0  0
   33.8740   28.8880   48.7260 C   0  0  0  0  0  0  0  0  0  0  0  0
   34.6930   28.4000   49.6870 N   0  0  0  0  0  0  0  0  0  0  0  0
   36.5680   28.4130   50.5260 H   0  0  0  0  0  0  0  0  0  0  0  0
   35.9920   30.9750   47.1750 H   0  0  0  0  0  0  0  0  0  0  0  0
   32.8650   28.5440   48.6810 H   0  0  0  0  0  0  0  0  0  0  0  0
   38.9170   30.6140   46.4730 F   0  0  0  0  0  0  0  0  0  0  0  0
   38.9500   31.6320   47.3600 C   0  0  0  0  0  0  0  0  0  0  0  0
   38.3720   31.3180   48.5740 C   0  0  0  0  0  0  0  0  0  0  0  0
   38.3420   32.2850   49.5800 C   0  0  0  0  0  0  0  0  0  0  0  0
   37.9130   32.1560   50.5820 H   0  0  0  0  0  0  0  0  0  0  0  0
   38.8670   33.5420   49.4070 C   0  0  0  0  0  0  0  0  0  0  0  0
   38.8640   34.3190   50.1600 H   0  0  0  0  0  0  0  0  0  0  0  0
   39.4440   33.8390   48.1800 C   0  0  0  0  0  0  0  0  0  0  0  0
   39.4820   32.8890   47.1680 C   0  0  0  0  0  0  0  0  0  0  0  0
  2  8  1  0  0  0  0
  3  1  1  0  0  0  0
  3  2  2  0  0  0  0
  4  3  1  0  0  0  0
  5  4  2  0  0  0  0
  5  6  1  0  0  0  0
  6  7  2  0  0  0  0
  7  2  1  0  0  0  0
  9  4  1  0  0  0  0
 10  6  1  0  0  0  0
 11 12  1  0  0  0  0
 12 13  1  0  0  0  0
 13  1  1  0  0  0  0
 13 14  2  0  0  0  0
 14 15  1  0  0  0  0
 16 14  1  0  0  0  0
 16 17  1  0  0  0  0
 18 16  2  0  0  0  0
 19 12  2  0  0  0  0
 19 18  1  0  0  0  0
M  END
>  <minimizedAffinity>
-4.8096447

>  <minimizedRMSD>
2.35039735

$$$$
