
 OpenBabel03272507283D

 41 43  0  0  1  0  0  0  0  0999 V2000
   37.5690   30.3530   48.8060 C   0  0  0  0  0  0  0  0  0  0  0  0
   38.1340   30.8780   47.6410 C   0  0  0  0  0  0  0  0  0  0  0  0
   37.3680   30.8900   46.4860 C   0  0  0  0  0  0  0  0  0  0  0  0
   36.1270   30.4010   46.5410 N   0  0  0  0  0  0  0  0  0  0  0  0
   35.5940   29.8970   47.6730 C   0  0  0  0  0  0  0  0  0  0  0  0
   36.3130   29.8760   48.7930 N   0  0  0  0  0  0  0  0  0  0  0  0
   37.8890   31.3890   45.2940 N   0  0  0  0  0  0  0  0  0  0  0  0
   38.8920   32.4790   45.1690 C   0  0  0  0  0  0  0  0  0  0  0  0
   38.9340   32.8940   43.7480 C   0  0  0  0  0  0  0  0  0  0  0  0
   37.7270   32.3230   43.1760 C   0  0  0  0  0  0  0  0  0  0  0  0
   37.6230   31.0500   43.9350 C   0  0  2  0  0  0  0  0  0  0  0  0
   38.2650   30.3940   49.6580 H   0  0  0  0  0  0  0  0  0  0  0  0
   39.1400   31.2850   47.5600 H   0  0  0  0  0  0  0  0  0  0  0  0
   34.5930   29.4900   47.7660 H   0  0  0  0  0  0  0  0  0  0  0  0
   38.3530   33.2840   45.8010 H   0  0  0  0  0  0  0  0  0  0  0  0
   39.8000   32.3410   45.7120 H   0  0  0  0  0  0  0  0  0  0  0  0
   38.6000   34.0410   43.8300 H   0  0  0  0  0  0  0  0  0  0  0  0
   39.8360   33.0720   43.2280 H   0  0  0  0  0  0  0  0  0  0  0  0
   36.8130   32.9330   43.1980 H   0  0  0  0  0  0  0  0  0  0  0  0
   37.9440   32.0400   42.1010 H   0  0  0  0  0  0  0  0  0  0  0  0
   36.2460   30.4240   43.7000 C   0  0  0  0  0  0  0  0  0  0  0  0
   35.2830   31.3240   44.1050 F   0  0  0  0  0  0  0  0  0  0  0  0
   36.0110   29.2650   44.3750 F   0  0  0  0  0  0  0  0  0  0  0  0
   36.0990   30.2920   42.3330 F   0  0  0  0  0  0  0  0  0  0  0  0
   38.5870   30.0750   43.5210 C   0  0  2  0  0  0  0  0  0  0  0  0
   39.4870   30.1090   44.0930 H   0  0  0  0  0  0  0  0  0  0  0  0
   41.4390   30.0650   43.0620 F   0  0  0  0  0  0  0  0  0  0  0  0
   40.6640   30.1730   41.9610 C   0  0  0  0  0  0  0  0  0  0  0  0
   39.2870   30.2070   42.1130 C   0  0  0  0  0  0  0  0  0  0  0  0
   38.6100   30.2730   40.9050 C   0  0  0  0  0  0  0  0  0  0  0  0
   37.5100   30.2960   41.0020 H   0  0  0  0  0  0  0  0  0  0  0  0
   39.1700   30.3070   39.6600 C   0  0  0  0  0  0  0  0  0  0  0  0
   38.5040   30.3580   38.8220 H   0  0  0  0  0  0  0  0  0  0  0  0
   40.5220   30.2700   39.6350 C   0  0  0  0  0  3  0  0  0  0  0  0
   41.3120   30.2040   40.7550 C   0  0  0  0  0  3  0  0  0  0  0  0
   37.9650   28.9890   43.3310 O   0  0  0  0  0  0  0  0  0  0  0  0
   38.2380   27.7000   43.0490 C   0  0  0  0  0  0  0  0  0  0  0  0
   37.2990   27.1640   42.4530 O   0  0  0  0  0  0  0  0  0  0  0  0
   39.1420   26.6040   43.1070 N   0  0  0  0  0  0  0  0  0  0  0  0
   39.8690   26.6030   42.3370 H   0  0  0  0  0  0  0  0  0  0  0  0
   39.0730   25.8710   43.8610 H   0  0  0  0  0  0  0  0  0  0  0  0
  1 12  1  0  0  0  0
  2  1  2  0  0  0  0
  3  4  2  0  0  0  0
  3  2  1  0  0  0  0
  4  5  1  0  0  0  0
  5 14  1  0  0  0  0
  5  6  2  0  0  0  0
  6  1  1  0  0  0  0
  7  3  1  0  0  0  0
  8  7  1  0  0  0  0
  8 16  1  0  0  0  0
  8 15  1  0  0  0  0
  9 17  1  0  0  0  0
  9  8  1  0  0  0  0
 10 19  1  0  0  0  0
 10  9  1  0  0  0  0
 10 11  1  0  0  0  0
 11 21  1  6  0  0  0
 11  7  1  0  0  0  0
 13  2  1  0  0  0  0
 18  9  1  0  0  0  0
 20 10  1  0  0  0  0
 21 22  1  0  0  0  0
 21 23  1  0  0  0  0
 24 21  1  0  0  0  0
 25 11  1  0  0  0  0
 25 26  1  1  0  0  0
 28 29  1  0  0  0  0
 28 27  1  0  0  0  0
 29 25  1  0  0  0  0
 30 31  1  0  0  0  0
 30 29  2  0  0  0  0
 32 30  1  0  0  0  0
 33 32  1  0  0  0  0
 34 32  2  0  0  0  0
 34 35  1  0  0  0  0
 35 28  2  0  0  0  0
 36 25  1  0  0  0  0
 37 39  1  0  0  0  0
 37 36  1  0  0  0  0
 38 37  2  0  0  0  0
 39 41  1  0  0  0  0
 40 39  1  0  0  0  0
M  END
>  <minimizedAffinity>
-4.57669067

>  <minimizedRMSD>
3.62075472

$$$$
