
 OpenBabel03272502313D

 27 28  0  0  1  0  0  0  0  0999 V2000
   37.9560   30.7530   47.6020 C   0  0  2  0  0  0  0  0  0  0  0  0
   38.4640   29.8400   48.1470 H   0  0  0  0  0  0  0  0  0  0  0  0
   37.7690   31.8310   50.2810 F   0  0  0  0  0  0  0  0  0  0  0  0
   38.4960   32.5570   49.3770 C   0  0  0  0  0  0  0  0  0  0  0  0
   38.5060   31.9490   48.1450 C   0  0  0  0  0  0  0  0  0  0  0  0
   39.2100   32.5980   47.1370 C   0  0  0  0  0  0  0  0  0  0  0  0
   39.3690   32.3280   46.0820 H   0  0  0  0  0  0  0  0  0  0  0  0
   39.8830   33.8110   47.3510 C   0  0  0  0  0  0  0  0  0  0  0  0
   40.4530   34.3830   46.6260 H   0  0  0  0  0  0  0  0  0  0  0  0
   39.8440   34.3890   48.6170 C   0  0  0  0  0  3  0  0  0  0  0  0
   39.1420   33.7560   49.6500 C   0  0  0  0  0  3  0  0  0  0  0  0
   37.0620   30.5040   45.3970 C   0  0  0  0  0  3  0  0  0  0  0  0
   38.1380   30.5170   46.1580 C   0  0  0  0  0  3  0  0  0  0  0  0
   38.3170   29.3810   42.0870 C   0  0  0  0  0  0  0  0  0  0  0  0
   38.2470   29.6830   43.4410 C   0  0  0  0  0  0  0  0  0  0  0  0
   37.1030   30.2300   43.9890 C   0  0  0  0  0  0  0  0  0  0  0  0
   36.0630   30.4590   43.1610 N   0  0  0  0  0  0  0  0  0  0  0  0
   36.1550   30.1590   41.8580 C   0  0  0  0  0  0  0  0  0  0  0  0
   37.2620   29.6270   41.3180 N   0  0  0  0  0  0  0  0  0  0  0  0
   39.2020   28.9520   41.6420 H   0  0  0  0  0  0  0  0  0  0  0  0
   39.1770   29.4370   43.9860 H   0  0  0  0  0  0  0  0  0  0  0  0
   35.2780   30.3740   41.2590 H   0  0  0  0  0  0  0  0  0  0  0  0
   36.1660   30.5570   47.9590 S   0  0  0  0  0  0  0  0  0  0  0  0
   35.9320   29.4060   49.3070 C   0  0  0  0  0  0  0  0  0  0  0  0
   37.1330   28.8940   49.8030 F   0  0  0  0  0  0  0  0  0  0  0  0
   35.1370   29.9250   50.3020 F   0  0  0  0  0  0  0  0  0  0  0  0
   35.2230   28.3000   48.7670 F   0  0  0  0  0  0  0  0  0  0  0  0
  1 23  1  0  0  0  0
  1  5  1  0  0  0  0
  1  2  1  1  0  0  0
  4 11  1  0  0  0  0
  4  3  1  0  0  0  0
  5  4  2  0  0  0  0
  6  8  2  0  0  0  0
  6  5  1  0  0  0  0
  7  6  1  0  0  0  0
  8 10  1  0  0  0  0
  9  8  1  0  0  0  0
 10 11  2  0  0  0  0
 12 13  2  0  0  0  0
 13  1  1  0  0  0  0
 14 15  1  0  0  0  0
 15 21  1  0  0  0  0
 15 16  2  0  0  0  0
 16 12  1  0  0  0  0
 17 16  1  0  0  0  0
 18 17  2  0  0  0  0
 19 18  1  0  0  0  0
 19 14  2  0  0  0  0
 20 14  1  0  0  0  0
 22 18  1  0  0  0  0
 23 24  1  0  0  0  0
 24 25  1  0  0  0  0
 24 26  1  0  0  0  0
 27 24  1  0  0  0  0
M  END
>  <minimizedAffinity>
-5.38913918

>  <minimizedRMSD>
3.81845808

$$$$
