
 OpenBabel03272504193D

 27 28  0  0  0  0  0  0  0  0999 V2000
   37.9710   29.9680   48.7720 O   0  0  0  0  0  0  0  0  0  0  0  0
   37.4140   30.7790   49.9060 P   0  0  2  0  0  0  0  0  0  0  0  0
   38.3530   30.4200   51.2980 O   0  0  0  0  0  0  0  0  0  0  0  0
   37.8620   30.6870   52.1140 H   0  0  0  0  0  0  0  0  0  0  0  0
   35.8160   30.3220   50.2130 O   0  0  0  0  0  0  0  0  0  0  0  0
   35.6670   29.0020   49.8810 C   0  0  0  0  0  0  0  0  0  0  0  0
   36.6120   28.4620   49.6880 H   0  0  0  0  0  0  0  0  0  0  0  0
   35.2270   28.4900   50.7840 H   0  0  0  0  0  0  0  0  0  0  0  0
   34.6670   28.7760   48.8050 C   0  0  0  0  0  0  0  0  0  0  0  0
   34.4170   29.8380   47.9260 C   0  0  0  0  0  0  0  0  0  0  0  0
   33.4800   29.6500   46.9040 C   0  0  0  0  0  0  0  0  0  0  0  0
   32.8600   28.4390   46.8230 N   0  0  0  0  0  0  0  0  0  0  0  0
   33.1270   27.4380   47.6890 C   0  0  0  0  0  0  0  0  0  0  0  0
   34.0200   27.6020   48.6710 N   0  0  0  0  0  0  0  0  0  0  0  0
   34.9140   30.8020   47.9950 H   0  0  0  0  0  0  0  0  0  0  0  0
   33.2760   30.4620   46.2160 H   0  0  0  0  0  0  0  0  0  0  0  0
   32.5960   26.4890   47.5700 H   0  0  0  0  0  0  0  0  0  0  0  0
   37.5060   32.4200   49.5390 O   0  0  0  0  0  0  0  0  0  0  0  0
   39.4470   34.3730   50.1190 F   0  0  0  0  0  0  0  0  0  0  0  0
   39.4400   33.8850   48.8770 C   0  0  0  0  0  0  0  0  0  0  0  0
   38.4610   32.9350   48.6730 C   0  0  0  0  0  0  0  0  0  0  0  0
   38.3300   32.3300   47.4210 C   0  0  0  0  0  0  0  0  0  0  0  0
   37.6150   31.5760   47.1160 H   0  0  0  0  0  0  0  0  0  0  0  0
   39.1800   32.6780   46.3660 C   0  0  0  0  0  0  0  0  0  0  0  0
   39.1300   32.2510   45.3800 H   0  0  0  0  0  0  0  0  0  0  0  0
   40.1530   33.6390   46.6110 C   0  0  0  0  0  3  0  0  0  0  0  0
   40.2770   34.2300   47.8460 C   0  0  0  0  0  3  0  0  0  0  0  0
  2  1  2  6  0  0  0
  2  5  1  0  0  0  0
  2  3  1  0  0  0  0
  3  4  1  0  0  0  0
  6  5  1  0  0  0  0
  6  8  1  0  0  0  0
  7  6  1  0  0  0  0
  9  6  1  0  0  0  0
 10 15  1  0  0  0  0
 10  9  2  0  0  0  0
 11 10  1  0  0  0  0
 12 11  2  0  0  0  0
 12 13  1  0  0  0  0
 13 14  2  0  0  0  0
 14  9  1  0  0  0  0
 16 11  1  0  0  0  0
 17 13  1  0  0  0  0
 18  2  1  0  0  0  0
 20 19  1  0  0  0  0
 21 20  1  0  0  0  0
 21 18  1  0  0  0  0
 22 21  2  0  0  0  0
 23 22  1  0  0  0  0
 24 26  2  0  0  0  0
 24 22  1  0  0  0  0
 25 24  1  0  0  0  0
 26 27  1  0  0  0  0
 27 20  2  0  0  0  0
M  END
>  <minimizedAffinity>
-5.20694113

>  <minimizedRMSD>
1.78108001

$$$$
