
 OpenBabel03272504193D

 27 28  0  0  0  0  0  0  0  0999 V2000
   37.7120   29.3330   49.5280 O   0  0  0  0  0  0  0  0  0  0  0  0
   36.8550   30.1640   50.4360 P   0  0  2  0  0  0  0  0  0  0  0  0
   37.6040   30.1690   51.9810 O   0  0  0  0  0  0  0  0  0  0  0  0
   36.9520   30.4430   52.6720 H   0  0  0  0  0  0  0  0  0  0  0  0
   35.3260   29.4610   50.5920 O   0  0  0  0  0  0  0  0  0  0  0  0
   35.2410   28.4010   49.7300 C   0  0  0  0  0  0  0  0  0  0  0  0
   36.2010   28.0950   49.2740 H   0  0  0  0  0  0  0  0  0  0  0  0
   34.9240   27.5100   50.3440 H   0  0  0  0  0  0  0  0  0  0  0  0
   34.1670   28.5530   48.7150 C   0  0  0  0  0  0  0  0  0  0  0  0
   34.3820   29.4770   47.6840 C   0  0  0  0  0  0  0  0  0  0  0  0
   33.3850   29.6390   46.7160 C   0  0  0  0  0  0  0  0  0  0  0  0
   32.2560   28.8830   46.8320 N   0  0  0  0  0  0  0  0  0  0  0  0
   32.0840   28.0010   47.8400 C   0  0  0  0  0  0  0  0  0  0  0  0
   33.0280   27.8360   48.7720 N   0  0  0  0  0  0  0  0  0  0  0  0
   35.2830   30.0770   47.5970 H   0  0  0  0  0  0  0  0  0  0  0  0
   33.5360   30.3490   45.9120 H   0  0  0  0  0  0  0  0  0  0  0  0
   31.1550   27.4250   47.8760 H   0  0  0  0  0  0  0  0  0  0  0  0
   36.7320   31.7330   49.8340 O   0  0  0  0  0  0  0  0  0  0  0  0
   37.2810   31.0730   47.1540 F   0  0  0  0  0  0  0  0  0  0  0  0
   38.0340   32.0270   47.7030 C   0  0  0  0  0  0  0  0  0  0  0  0
   37.7030   32.2910   49.0150 C   0  0  0  0  0  0  0  0  0  0  0  0
   38.4060   33.2670   49.7260 C   0  0  0  0  0  0  0  0  0  0  0  0
   38.2600   33.5800   50.7520 H   0  0  0  0  0  0  0  0  0  0  0  0
   39.4450   33.9830   49.1220 C   0  0  0  0  0  0  0  0  0  0  0  0
   40.0230   34.7450   49.6130 H   0  0  0  0  0  0  0  0  0  0  0  0
   39.7490   33.6880   47.7990 C   0  0  0  0  0  3  0  0  0  0  0  0
   39.0530   32.7260   47.1040 C   0  0  0  0  0  3  0  0  0  0  0  0
  2  1  2  6  0  0  0
  2  5  1  0  0  0  0
  2  3  1  0  0  0  0
  3  4  1  0  0  0  0
  6  8  1  0  0  0  0
  6  5  1  0  0  0  0
  7  6  1  0  0  0  0
  9 14  1  0  0  0  0
  9  6  1  0  0  0  0
 10  9  2  0  0  0  0
 11 12  2  0  0  0  0
 11 10  1  0  0  0  0
 12 13  1  0  0  0  0
 13 17  1  0  0  0  0
 13 14  2  0  0  0  0
 15 10  1  0  0  0  0
 16 11  1  0  0  0  0
 18  2  1  0  0  0  0
 19 20  1  0  0  0  0
 20 21  1  0  0  0  0
 21 22  2  0  0  0  0
 21 18  1  0  0  0  0
 22 23  1  0  0  0  0
 24 25  1  0  0  0  0
 24 22  1  0  0  0  0
 26 24  2  0  0  0  0
 27 20  2  0  0  0  0
 27 26  1  0  0  0  0
M  END
>  <minimizedAffinity>
-5.01069403

>  <minimizedRMSD>
2.39294219

$$$$
