
     RDKit          3D

 31 32  0  0  0  0  0  0  0  0999 V2000
   38.2674   31.5716   47.8071 C   0  0  0  0  0  0  0  0  0  0  0  0
   38.1610   32.6189   48.5997 C   0  0  0  0  0  0  0  0  0  0  0  0
   40.5548   32.7373   45.1242 C   0  0  0  0  0  0  0  0  0  0  0  0
   39.7897   32.6936   46.2833 C   0  0  0  0  0  0  0  0  0  0  0  0
   39.0224   31.5870   46.5870 C   0  0  0  0  0  0  0  0  0  0  0  0
   39.0440   30.5549   45.7178 N   0  0  0  0  0  0  0  0  0  0  0  0
   39.7893   30.6202   44.6064 C   0  0  0  0  0  0  0  0  0  0  0  0
   40.5379   31.6919   44.3043 N   0  0  0  0  0  0  0  0  0  0  0  0
   37.4047   32.4579   49.8547 C   0  0  2  0  0  0  0  0  0  0  0  0
   36.3787   30.9464   49.6761 S   0  0  0  0  0  0  0  0  0  0  0  0
   36.7202   29.8116   51.0150 C   0  0  0  0  0  0  0  0  0  0  0  0
   37.5404   30.3618   52.0022 F   0  0  0  0  0  0  0  0  0  0  0  0
   35.5718   29.2640   51.5376 F   0  0  0  0  0  0  0  0  0  0  0  0
   37.4517   28.7346   50.4475 F   0  0  0  0  0  0  0  0  0  0  0  0
   37.7717   30.6412   48.0618 H   0  0  0  0  0  0  0  0  0  0  0  0
   38.6011   33.5700   48.4381 H   0  0  0  0  0  0  0  0  0  0  0  0
   41.1621   33.5925   44.8708 H   0  0  0  0  0  0  0  0  0  0  0  0
   39.8786   33.6118   46.8918 H   0  0  0  0  0  0  0  0  0  0  0  0
   39.7511   29.7529   43.9591 H   0  0  0  0  0  0  0  0  0  0  0  0
   38.1987   32.1757   50.6787 H   0  0  0  0  0  0  0  0  0  0  0  0
   34.6691   33.2337   49.3208 F   0  0  0  0  0  0  0  0  0  0  0  0
   35.3859   34.0490   50.1525 C   0  0  0  0  0  0  0  0  0  0  0  0
   36.6674   33.5824   50.3238 C   0  0  0  0  0  0  0  0  0  0  0  0
   37.4980   34.3325   51.1468 C   0  0  0  0  0  0  0  0  0  0  0  0
   38.5484   34.1797   51.4413 H   0  0  0  0  0  0  0  0  0  0  0  0
   37.0673   35.5090   51.7798 C   0  0  0  0  0  0  0  0  0  0  0  0
   37.6451   36.1529   52.4351 H   0  0  0  0  0  0  0  0  0  0  0  0
   35.7596   35.9429   51.5759 C   0  0  0  0  0  0  0  0  0  0  0  0
   34.9018   35.2060   50.7510 C   0  0  0  0  0  0  0  0  0  0  0  0
   35.3861   36.8434   52.0439 H   0  0  0  0  0  0  0  0  0  0  0  0
   33.8769   35.4803   50.5471 H   0  0  0  0  0  0  0  0  0  0  0  0
  1  2  2  0
  2  9  1  0
  3  4  2  0
  4  5  1  0
  5  1  1  0
  6  5  2  0
  7  6  1  0
  8  7  2  0
  8  3  1  0
 10  9  1  0
 10 11  1  0
 11 13  1  0
 11 12  1  0
 14 11  1  0
  1 15  1  0
  2 16  1  0
  3 17  1  0
  4 18  1  0
  7 19  1  0
  9 20  1  1
 21 22  1  0
 22 23  2  0
 23 24  1  0
 24 25  1  0
 24 26  2  0
 26 27  1  0
 26 28  1  0
 28 29  2  0
 29 22  1  0
 28 30  1  0
 29 31  1  0
  9 23  1  0
M  ISO  6  17  14  18  14  19  14  20   8  25  15  27  16
M  END
>  <DihAtoms>  (1) 
1,8,22,21

>  <DihDeg>  (1) 
-134.1915236839154

$$$$
