
     RDKit          3D

 21 22  0  0  0  0  0  0  0  0999 V2000
   37.2621   30.1769   51.4248 C   0  0  0  0  0  0  0  0  0  0  0  0
   38.1213   30.7617   50.4701 C   0  0  0  0  0  0  0  0  0  0  0  0
   37.8471   30.5494   49.1151 C   0  0  0  0  0  0  0  0  0  0  0  0
   36.7684   29.7918   48.7870 N   0  0  0  0  0  0  0  0  0  0  0  0
   35.9569   29.2401   49.7203 C   0  0  0  0  0  0  0  0  0  0  0  0
   36.2095   29.4363   51.0186 N   0  0  0  0  0  0  0  0  0  0  0  0
   34.5366   28.2428   49.2981 S   0  0  0  0  0  0  0  0  0  0  0  0
   37.4475   30.3225   52.4705 H   0  0  0  0  0  0  0  0  0  0  0  0
   38.9490   31.3451   50.8390 H   0  0  0  0  0  0  0  0  0  0  0  0
   38.4880   30.9855   48.3878 H   0  0  0  0  0  0  0  0  0  0  0  0
   33.1500   26.3696   47.5043 F   0  0  0  0  0  0  0  0  0  0  0  0
   34.1650   25.8328   48.2416 C   0  0  0  0  0  0  0  0  0  0  0  0
   34.9603   26.5158   49.1527 C   0  0  0  0  0  0  0  0  0  0  0  0
   35.9516   25.8324   49.8250 C   0  0  0  0  0  0  0  0  0  0  0  0
   36.5221   26.4533   50.5184 H   0  0  0  0  0  0  0  0  0  0  0  0
   36.1399   24.4868   49.5858 C   0  0  0  0  0  0  0  0  0  0  0  0
   36.9331   24.0052   50.1435 H   0  0  0  0  0  0  0  0  0  0  0  0
   35.3511   23.8051   48.6807 C   0  0  0  0  0  0  0  0  0  0  0  0
   34.3427   24.4868   47.9928 C   0  0  0  0  0  0  0  0  0  0  0  0
   35.5120   22.7429   48.5024 H   0  0  0  0  0  0  0  0  0  0  0  0
   33.7660   23.8911   47.3018 H   0  0  0  0  0  0  0  0  0  0  0  0
  2  1  2  0
  3  2  1  0
  4  3  2  0
  4  5  1  0
  5  6  2  0
  6  1  1  0
  7  5  1  0
  1  8  1  0
  2  9  1  0
  3 10  1  0
 11 12  1  0
 12 13  2  0
 13 14  1  0
 14 15  1  0
 14 16  2  0
 16 17  1  0
 16 18  1  0
 18 19  2  0
 19 12  1  0
 18 20  1  0
 19 21  1  0
  7 13  1  0
M  ISO  5   8  14   9  14  10  14  15  15  17  16
M  END
>  <DihAtoms>  (1) 
4,6,12,11

>  <DihDeg>  (1) 
90.04568376624965

$$$$
