
 OpenBabel03272506413D

 19 20  0  0  0  0  0  0  0  0999 V2000
   34.1750   29.0200   49.2870 S   0  0  0  0  0  0  0  0  0  0  0  0
   37.4140   29.9640   51.3630 C   0  0  0  0  0  0  0  0  0  0  0  0
   38.0280   30.9990   50.6270 C   0  0  0  0  0  0  0  0  0  0  0  0
   37.4180   31.4220   49.4420 C   0  0  0  0  0  0  0  0  0  0  0  0
   36.2640   30.8150   49.0600 N   0  0  0  0  0  0  0  0  0  0  0  0
   35.6910   29.8230   49.7820 C   0  0  0  0  0  0  0  0  0  0  0  0
   36.2660   29.4100   50.9170 N   0  0  0  0  0  0  0  0  0  0  0  0
   37.8590   29.6190   52.2760 H   0  0  0  0  0  0  0  0  0  0  0  0
   38.9430   31.4120   51.0210 H   0  0  0  0  0  0  0  0  0  0  0  0
   37.8730   32.2010   48.8800 H   0  0  0  0  0  0  0  0  0  0  0  0
   33.6680   26.3730   48.1130 F   0  0  0  0  0  0  0  0  0  0  0  0
   33.8750   27.3810   47.2180 C   0  0  0  0  0  0  0  0  0  0  0  0
   34.1330   28.7090   47.5310 C   0  0  0  0  0  0  0  0  0  0  0  0
   34.3230   29.6160   46.5100 C   0  0  0  0  0  0  0  0  0  0  0  0
   34.5190   30.6330   46.8550 H   0  0  0  0  0  0  0  0  0  0  0  0
   34.2540   29.1950   45.1980 C   0  0  0  0  0  0  0  0  0  0  0  0
   34.4110   29.9530   44.4410 H   0  0  0  0  0  0  0  0  0  0  0  0
   33.9980   27.8760   44.8830 C   0  0  0  0  0  3  0  0  0  0  0  0
   33.8050   26.9470   45.9080 C   0  0  0  0  0  3  0  0  0  0  0  0
  1  6  1  0  0  0  0
  2  8  1  0  0  0  0
  3  9  1  0  0  0  0
  3  2  2  0  0  0  0
  4  3  1  0  0  0  0
  5  4  2  0  0  0  0
  5  6  1  0  0  0  0
  6  7  2  0  0  0  0
  7  2  1  0  0  0  0
 10  4  1  0  0  0  0
 12 13  1  0  0  0  0
 12 11  1  0  0  0  0
 13  1  1  0  0  0  0
 14 15  1  0  0  0  0
 14 13  2  0  0  0  0
 16 14  1  0  0  0  0
 17 16  1  0  0  0  0
 18 16  2  0  0  0  0
 18 19  1  0  0  0  0
 19 12  2  0  0  0  0
M  END
>  <minimizedAffinity>
-3.92711973

>  <minimizedRMSD>
3.41234827

$$$$
