
     RDKit          3D

 34 36  0  0  0  0  0  0  0  0999 V2000
   34.7976   29.5430   47.5134 S   0  0  0  0  0  0  0  0  0  0  0  0
   37.3731   29.4673   50.5280 C   0  0  0  0  0  0  0  0  0  0  0  0
   37.9788   30.7273   50.5198 C   0  0  0  0  0  0  0  0  0  0  0  0
   37.5749   31.6402   49.5412 C   0  0  0  0  0  0  0  0  0  0  0  0
   36.6179   31.2589   48.6510 N   0  0  0  0  0  0  0  0  0  0  0  0
   36.0524   30.0275   48.6895 C   0  0  0  0  0  0  0  0  0  0  0  0
   36.4241   29.1339   49.6199 N   0  0  0  0  0  0  0  0  0  0  0  0
   32.3844   28.3582   47.4785 C   0  0  2  0  0  0  0  0  0  0  0  0
   33.6256   28.4131   48.3464 C   0  0  1  0  0  0  0  0  0  0  0  0
   34.1900   27.1577   48.3526 O   0  0  0  0  0  0  0  0  0  0  0  0
   33.5607   26.3690   47.4136 C   0  0  0  0  0  0  0  0  0  0  0  0
   32.8425   27.3297   46.4510 C   0  0  1  0  0  0  0  0  0  0  0  0
   32.1417   29.6014   46.8769 O   0  0  0  0  0  0  0  0  0  0  0  0
   31.7924   26.6848   45.8452 O   0  0  0  0  0  0  0  0  0  0  0  0
   37.6513   28.7259   51.2651 H   0  0  0  0  0  0  0  0  0  0  0  0
   38.7286   30.9646   51.2518 H   0  0  0  0  0  0  0  0  0  0  0  0
   38.0237   32.6239   49.5070 H   0  0  0  0  0  0  0  0  0  0  0  0
   31.4876   28.0151   47.9986 H   0  0  0  0  0  0  0  0  0  0  0  0
   33.4194   28.8083   49.3546 H   0  0  0  0  0  0  0  0  0  0  0  0
   34.3120   25.7632   46.8603 H   0  0  0  0  0  0  0  0  0  0  0  0
   32.7602   25.7442   47.8598 H   0  0  0  0  0  0  0  0  0  0  0  0
   33.5985   27.7955   45.8211 H   0  0  0  0  0  0  0  0  0  0  0  0
   32.8726   29.8933   46.3077 H   0  0  0  0  0  0  0  0  0  0  0  0
   32.9501   24.5262   44.7318 F   0  0  0  0  0  0  0  0  0  0  0  0
   32.2743   25.4408   43.9945 C   0  0  0  0  0  0  0  0  0  0  0  0
   31.6387   26.5925   44.4716 C   0  0  0  0  0  0  0  0  0  0  0  0
   30.9881   27.4305   43.5907 C   0  0  0  0  0  0  0  0  0  0  0  0
   30.5421   28.2762   44.0764 H   0  0  0  0  0  0  0  0  0  0  0  0
   30.9701   27.1249   42.2458 C   0  0  0  0  0  0  0  0  0  0  0  0
   30.4389   27.8360   41.6353 H   0  0  0  0  0  0  0  0  0  0  0  0
   31.5934   25.9890   41.7523 C   0  0  0  0  0  0  0  0  0  0  0  0
   32.2534   25.1354   42.6315 C   0  0  0  0  0  0  0  0  0  0  0  0
   31.5422   25.8065   40.6855 H   0  0  0  0  0  0  0  0  0  0  0  0
   32.7267   24.2607   42.2076 H   0  0  0  0  0  0  0  0  0  0  0  0
  1  6  1  0
  3  2  2  0
  4  3  1  0
  5  6  1  0
  5  4  2  0
  6  7  2  0
  7  2  1  0
  8 13  1  0
  8  9  1  0
  9  1  1  0
  9 10  1  0
 11 10  1  0
 12 14  1  0
 12 11  1  0
 12  8  1  0
  2 15  1  0
  3 16  1  0
  4 17  1  0
  8 18  1  1
  9 19  1  1
 11 20  1  0
 11 21  1  0
 12 22  1  6
 13 23  1  0
 24 25  1  0
 25 26  2  0
 26 27  1  0
 27 28  1  0
 27 29  2  0
 29 30  1  0
 29 31  1  0
 31 32  2  0
 32 25  1  0
 31 33  1  0
 32 34  1  0
 14 26  1  0
M  ISO  8  15  14  16  14  17  14  18  13  19  13  20  13  21  13  22  13
M  ISO  3  23   3  28  15  30  16
M  END
>  <DihAtoms>  (1) 
11,13,25,24

>  <DihDeg>  (1) 
179.9974193889645

$$$$
