
 OpenBabel03272510133D

 41 44  0  0  0  0  0  0  0  0999 V2000
   38.3980   31.6420   48.9110 C   0  0  0  0  0  0  0  0  0  0  0  0
   38.5470   32.8940   49.4530 C   0  0  0  0  0  0  0  0  0  0  0  0
   39.1880   33.6830   48.4950 C   0  0  0  0  0  0  0  0  0  0  0  0
   39.4030   32.9140   47.4330 N   0  0  0  0  0  0  0  0  0  0  0  0
   38.9390   31.7340   47.6890 N   0  0  0  0  0  0  0  0  0  0  0  0
   38.2990   33.3740   50.3880 H   0  0  0  0  0  0  0  0  0  0  0  0
   39.4900   34.7230   48.5220 H   0  0  0  0  0  0  0  0  0  0  0  0
   40.0380   33.2830   46.1940 C   0  0  0  0  0  0  0  0  0  0  0  0
   39.3720   33.8980   45.5450 H   0  0  0  0  0  0  0  0  0  0  0  0
   40.8860   33.9520   46.4390 H   0  0  0  0  0  0  0  0  0  0  0  0
   40.5270   32.0510   45.5060 C   0  0  0  0  0  0  0  0  0  0  0  0
   41.6500   32.1670   45.4450 H   0  0  0  0  0  0  0  0  0  0  0  0
   40.4170   31.2190   46.2650 H   0  0  0  0  0  0  0  0  0  0  0  0
   39.1960   29.5750   45.2370 F   0  0  0  0  0  0  0  0  0  0  0  0
   39.2910   30.4820   44.2080 C   0  0  0  0  0  0  0  0  0  0  0  0
   39.9250   31.7260   44.2220 C   0  0  0  0  0  0  0  0  0  0  0  0
   39.8770   32.4520   43.0510 C   0  0  0  0  0  0  0  0  0  0  0  0
   40.3640   33.4070   43.0930 H   0  0  0  0  0  0  0  0  0  0  0  0
   39.2510   32.0070   41.9110 C   0  0  0  0  0  0  0  0  0  0  0  0
   39.2910   32.6890   41.0500 H   0  0  0  0  0  0  0  0  0  0  0  0
   38.6330   30.7830   41.9140 C   0  0  0  0  0  3  0  0  0  0  0  0
   38.6550   30.0210   43.0650 C   0  0  0  0  0  3  0  0  0  0  0  0
   37.7760   30.7220   49.7320 O   0  0  0  0  0  0  0  0  0  0  0  0
   34.1880   28.9530   48.4210 C   0  0  0  0  0  0  0  0  0  0  0  0
   34.9290   28.3960   49.4230 C   0  0  0  0  0  0  0  0  0  0  0  0
   36.1020   28.9180   49.8970 C   0  0  0  0  0  0  0  0  0  0  0  0
   36.6160   30.0630   49.3780 C   0  0  0  0  0  0  0  0  0  0  0  0
   35.8640   30.6450   48.3470 C   0  0  0  0  0  0  0  0  0  0  0  0
   34.7130   30.1100   47.9010 N   0  0  0  0  0  0  0  0  0  0  0  0
   34.5810   27.4810   49.8860 H   0  0  0  0  0  0  0  0  0  0  0  0
   36.6830   28.4640   50.6980 H   0  0  0  0  0  0  0  0  0  0  0  0
   36.1530   31.5560   47.8430 H   0  0  0  0  0  0  0  0  0  0  0  0
   32.0760   27.6600   48.6790 C   0  0  0  0  0  0  0  0  0  0  0  0
   32.9620   28.4300   47.9080 C   0  0  0  0  0  0  0  0  0  0  0  0
   32.5970   28.6670   46.6100 C   0  0  0  0  0  0  0  0  0  0  0  0
   31.4240   28.1660   46.1230 N   0  0  0  0  0  0  0  0  0  0  0  0
   30.6030   27.4220   46.9240 C   0  0  0  0  0  0  0  0  0  0  0  0
   30.9160   27.1610   48.2070 N   0  0  0  0  0  0  0  0  0  0  0  0
   32.3150   27.4430   49.7090 H   0  0  0  0  0  0  0  0  0  0  0  0
   33.2150   29.2540   45.9270 H   0  0  0  0  0  0  0  0  0  0  0  0
   29.7150   27.0970   46.3950 H   0  0  0  0  0  0  0  0  0  0  0  0
  1  2  1  0  0  0  0
  1 23  1  0  0  0  0
  2  6  1  0  0  0  0
  3  7  1  0  0  0  0
  3  2  2  0  0  0  0
  4  5  1  0  0  0  0
  4  3  1  0  0  0  0
  5  1  2  0  0  0  0
  8 10  1  0  0  0  0
  8  4  1  0  0  0  0
  9  8  1  0  0  0  0
 11  8  1  0  0  0  0
 11 13  1  0  0  0  0
 12 11  1  0  0  0  0
 15 16  1  0  0  0  0
 15 14  1  0  0  0  0
 16 11  1  0  0  0  0
 17 18  1  0  0  0  0
 17 16  2  0  0  0  0
 19 21  2  0  0  0  0
 19 17  1  0  0  0  0
 20 19  1  0  0  0  0
 21 22  1  0  0  0  0
 22 15  2  0  0  0  0
 24 25  1  0  0  0  0
 25 30  1  0  0  0  0
 25 26  2  0  0  0  0
 26 31  1  0  0  0  0
 27 23  1  0  0  0  0
 27 26  1  0  0  0  0
 28 27  2  0  0  0  0
 29 28  1  0  0  0  0
 29 24  2  0  0  0  0
 32 28  1  0  0  0  0
 33 39  1  0  0  0  0
 34 24  1  0  0  0  0
 34 33  2  0  0  0  0
 35 34  1  0  0  0  0
 36 35  2  0  0  0  0
 36 37  1  0  0  0  0
 37 38  2  0  0  0  0
 38 33  1  0  0  0  0
 40 35  1  0  0  0  0
 41 37  1  0  0  0  0
M  END
>  <minimizedAffinity>
-6.38541126

>  <minimizedRMSD>
1.4342823

$$$$
