
 OpenBabel03272510133D

 41 44  0  0  0  0  0  0  0  0999 V2000
   38.4200   31.5300   48.9220 C   0  0  0  0  0  0  0  0  0  0  0  0
   38.4630   32.7640   49.5210 C   0  0  0  0  0  0  0  0  0  0  0  0
   39.0800   33.6360   48.6220 C   0  0  0  0  0  0  0  0  0  0  0  0
   39.3840   32.9320   47.5370 N   0  0  0  0  0  0  0  0  0  0  0  0
   38.9950   31.7120   47.7260 N   0  0  0  0  0  0  0  0  0  0  0  0
   38.1510   33.1840   50.4650 H   0  0  0  0  0  0  0  0  0  0  0  0
   39.3080   34.6920   48.7030 H   0  0  0  0  0  0  0  0  0  0  0  0
   40.0340   33.3970   46.3380 C   0  0  0  0  0  0  0  0  0  0  0  0
   39.4400   34.1790   45.8120 H   0  0  0  0  0  0  0  0  0  0  0  0
   40.9660   33.9120   46.6430 H   0  0  0  0  0  0  0  0  0  0  0  0
   40.3450   32.2300   45.4620 C   0  0  0  0  0  0  0  0  0  0  0  0
   41.4500   32.3110   45.2330 H   0  0  0  0  0  0  0  0  0  0  0  0
   40.3120   31.3260   46.1420 H   0  0  0  0  0  0  0  0  0  0  0  0
   41.2470   30.4520   43.4620 F   0  0  0  0  0  0  0  0  0  0  0  0
   40.0730   31.1600   43.3500 C   0  0  0  0  0  0  0  0  0  0  0  0
   39.5340   32.0640   44.2660 C   0  0  0  0  0  0  0  0  0  0  0  0
   38.3340   32.6470   43.9160 C   0  0  0  0  0  0  0  0  0  0  0  0
   37.9380   33.3320   44.6410 H   0  0  0  0  0  0  0  0  0  0  0  0
   37.6760   32.3770   42.7400 C   0  0  0  0  0  0  0  0  0  0  0  0
   36.7290   32.9140   42.5910 H   0  0  0  0  0  0  0  0  0  0  0  0
   38.2210   31.4840   41.8530 C   0  0  0  0  0  3  0  0  0  0  0  0
   39.4210   30.8760   42.1610 C   0  0  0  0  0  3  0  0  0  0  0  0
   37.8350   30.5340   49.6800 O   0  0  0  0  0  0  0  0  0  0  0  0
   34.1720   28.9200   48.3790 C   0  0  0  0  0  0  0  0  0  0  0  0
   34.8300   28.4070   49.4600 C   0  0  0  0  0  0  0  0  0  0  0  0
   36.0210   28.8840   49.9360 C   0  0  0  0  0  0  0  0  0  0  0  0
   36.6420   29.9330   49.3360 C   0  0  0  0  0  0  0  0  0  0  0  0
   35.9770   30.4680   48.2240 C   0  0  0  0  0  0  0  0  0  0  0  0
   34.8050   29.9800   47.7780 N   0  0  0  0  0  0  0  0  0  0  0  0
   34.3940   27.5690   49.9900 H   0  0  0  0  0  0  0  0  0  0  0  0
   36.5350   28.4660   50.8000 H   0  0  0  0  0  0  0  0  0  0  0  0
   36.3540   31.3020   47.6520 H   0  0  0  0  0  0  0  0  0  0  0  0
   32.0480   27.6420   48.6070 C   0  0  0  0  0  0  0  0  0  0  0  0
   32.9290   28.4430   47.8620 C   0  0  0  0  0  0  0  0  0  0  0  0
   32.5420   28.7560   46.5870 C   0  0  0  0  0  0  0  0  0  0  0  0
   31.3530   28.2980   46.0970 N   0  0  0  0  0  0  0  0  0  0  0  0
   30.5370   27.5220   46.8710 C   0  0  0  0  0  0  0  0  0  0  0  0
   30.8710   27.1850   48.1310 N   0  0  0  0  0  0  0  0  0  0  0  0
   32.3030   27.3640   49.6180 H   0  0  0  0  0  0  0  0  0  0  0  0
   33.1560   29.3720   45.9260 H   0  0  0  0  0  0  0  0  0  0  0  0
   29.6340   27.2390   46.3430 H   0  0  0  0  0  0  0  0  0  0  0  0
  1  2  1  0  0  0  0
  1 23  1  0  0  0  0
  2  6  1  0  0  0  0
  3  7  1  0  0  0  0
  3  2  2  0  0  0  0
  4  5  1  0  0  0  0
  4  3  1  0  0  0  0
  5  1  2  0  0  0  0
  8 10  1  0  0  0  0
  8  4  1  0  0  0  0
  9  8  1  0  0  0  0
 11 13  1  0  0  0  0
 11  8  1  0  0  0  0
 12 11  1  0  0  0  0
 15 14  1  0  0  0  0
 15 16  1  0  0  0  0
 16 11  1  0  0  0  0
 17 16  2  0  0  0  0
 17 18  1  0  0  0  0
 19 17  1  0  0  0  0
 20 19  1  0  0  0  0
 21 22  1  0  0  0  0
 21 19  2  0  0  0  0
 22 15  2  0  0  0  0
 24 25  1  0  0  0  0
 25 26  2  0  0  0  0
 25 30  1  0  0  0  0
 26 31  1  0  0  0  0
 27 23  1  0  0  0  0
 27 26  1  0  0  0  0
 28 27  2  0  0  0  0
 29 28  1  0  0  0  0
 29 24  2  0  0  0  0
 32 28  1  0  0  0  0
 33 39  1  0  0  0  0
 34 24  1  0  0  0  0
 34 33  2  0  0  0  0
 35 34  1  0  0  0  0
 36 35  2  0  0  0  0
 36 37  1  0  0  0  0
 37 38  2  0  0  0  0
 38 33  1  0  0  0  0
 40 35  1  0  0  0  0
 41 37  1  0  0  0  0
M  END
>  <minimizedAffinity>
-6.30129957

>  <minimizedRMSD>
1.42193413

$$$$
