
     RDKit          3D

 25 26  0  0  0  0  0  0  0  0999 V2000
   35.6289   28.9948   50.1625 C   0  0  0  0  0  0  0  0  0  0  0  0
   36.3029   30.1428   49.6545 C   0  0  0  0  0  0  0  0  0  0  0  0
   36.0448   30.5049   48.3490 C   0  0  0  0  0  0  0  0  0  0  0  0
   35.1583   29.7491   47.6108 N   0  0  0  0  0  0  0  0  0  0  0  0
   34.5418   28.6639   48.1428 C   0  0  0  0  0  0  0  0  0  0  0  0
   34.7785   28.2900   49.4161 N   0  0  0  0  0  0  0  0  0  0  0  0
   33.6708   28.0282   47.2127 N   0  0  0  0  0  0  0  0  0  0  0  0
   37.2317   30.9120   50.5287 C   0  0  0  0  0  0  0  0  0  0  0  0
   38.5349   30.7903   50.1079 F   0  0  0  0  0  0  0  0  0  0  0  0
   36.8581   32.2284   50.5075 F   0  0  0  0  0  0  0  0  0  0  0  0
   37.1625   30.4885   51.8515 F   0  0  0  0  0  0  0  0  0  0  0  0
   35.8100   28.6677   51.2019 H   0  0  0  0  0  0  0  0  0  0  0  0
   34.2767   27.3694   46.6629 H   0  0  0  0  0  0  0  0  0  0  0  0
   32.6674   28.1558   47.0800 H   0  0  0  0  0  0  0  0  0  0  0  0
   37.7026   30.2528   46.1587 F   0  0  0  0  0  0  0  0  0  0  0  0
   37.4909   31.5444   46.5979 C   0  0  0  0  0  0  0  0  0  0  0  0
   36.5998   31.6358   47.6734 C   0  0  0  0  0  0  0  0  0  0  0  0
   36.3195   32.9087   48.1569 C   0  0  0  0  0  0  0  0  0  0  0  0
   35.6610   33.1575   49.0077 H   0  0  0  0  0  0  0  0  0  0  0  0
   36.8764   34.0380   47.6273 C   0  0  0  0  0  0  0  0  0  0  0  0
   36.7247   35.0533   47.9336 H   0  0  0  0  0  0  0  0  0  0  0  0
   37.7614   33.9023   46.5537 C   0  0  0  0  0  0  0  0  0  0  0  0
   38.0768   32.6744   46.0305 C   0  0  0  0  0  0  0  0  0  0  0  0
   38.2619   34.7001   46.0478 H   0  0  0  0  0  0  0  0  0  0  0  0
   38.7683   32.4942   45.1879 H   0  0  0  0  0  0  0  0  0  0  0  0
  2  1  2  0
  2  8  1  0
  3  2  1  0
  4  5  1  0
  4  3  2  0
  5  6  2  0
  6  1  1  0
  7  5  1  0
  8 11  1  0
  9  8  1  0
 10  8  1  0
  1 12  1  0
  7 13  1  0
  7 14  1  0
 15 16  1  0
 16 17  2  0
 17 18  1  0
 18 19  1  0
 18 20  2  0
 20 21  1  0
 20 22  1  0
 22 23  2  0
 23 16  1  0
 22 24  1  0
 23 25  1  0
  3 17  1  0
M  ISO  3  12  14  19  15  21  16
M  END
>  <DihAtoms>  (1) 
1,2,16,15

>  <DihDeg>  (1) 
-111.79208804627947

$$$$
