
     RDKit          3D

 33 35  0  0  0  0  0  0  0  0999 V2000
   38.4652   30.8084   49.8517 Cl  0  0  0  0  0  0  0  0  0  0  0  0
   37.0932   30.3619   48.8915 C   0  0  0  0  0  0  0  0  0  0  0  0
   37.0857   30.6441   47.5306 C   0  0  0  0  0  0  0  0  0  0  0  0
   36.0209   30.3144   46.7319 C   0  0  0  0  0  0  0  0  0  0  0  0
   34.9184   29.6879   47.2620 C   0  0  0  0  0  0  0  0  0  0  0  0
   34.8872   29.3889   48.6145 C   0  0  0  0  0  0  0  0  0  0  0  0
   33.5397   28.5954   49.4085 Cl  0  0  0  0  0  0  0  0  0  0  0  0
   35.9881   29.7418   49.3822 C   0  0  0  0  0  0  0  0  0  0  0  0
   39.5928   33.1595   46.6306 C   0  0  0  0  0  0  0  0  0  0  0  0
   40.4689   32.4596   45.7986 C   0  0  0  0  0  0  0  0  0  0  0  0
   40.1790   31.0921   45.5495 C   0  0  0  0  0  0  0  0  0  0  0  0
   39.0738   30.5741   46.1395 N   0  0  0  0  0  0  0  0  0  0  0  0
   38.2434   31.2974   46.9478 C   0  0  0  0  0  0  0  0  0  0  0  0
   38.5234   32.5730   47.1736 N   0  0  0  0  0  0  0  0  0  0  0  0
   35.9693   29.4116   50.8395 C   0  0  0  0  0  0  0  0  0  0  0  0
   35.9862   30.5229   45.6624 H   0  0  0  0  0  0  0  0  0  0  0  0
   34.0564   29.4097   46.6708 H   0  0  0  0  0  0  0  0  0  0  0  0
   39.8513   34.2098   46.7974 H   0  0  0  0  0  0  0  0  0  0  0  0
   41.3535   32.8536   45.3196 H   0  0  0  0  0  0  0  0  0  0  0  0
   40.7564   30.4386   44.9382 H   0  0  0  0  0  0  0  0  0  0  0  0
   36.3901   30.2453   51.4360 H   0  0  0  0  0  0  0  0  0  0  0  0
   34.9241   29.1681   51.1641 H   0  0  0  0  0  0  0  0  0  0  0  0
   37.8131   28.5230   48.9238 F   0  0  0  0  0  0  0  0  0  0  0  0
   37.7168   27.8510   50.1159 C   0  0  0  0  0  0  0  0  0  0  0  0
   36.8277   28.2261   51.1213 C   0  0  0  0  0  0  0  0  0  0  0  0
   36.8088   27.4818   52.2869 C   0  0  0  0  0  0  0  0  0  0  0  0
   36.0834   27.8494   53.0136 H   0  0  0  0  0  0  0  0  0  0  0  0
   37.6413   26.4000   52.4570 C   0  0  0  0  0  0  0  0  0  0  0  0
   37.5720   25.8561   53.4074 H   0  0  0  0  0  0  0  0  0  0  0  0
   38.5267   26.0380   51.4381 C   0  0  0  0  0  0  0  0  0  0  0  0
   38.5639   26.7714   50.2565 C   0  0  0  0  0  0  0  0  0  0  0  0
   39.1588   25.1740   51.6324 H   0  0  0  0  0  0  0  0  0  0  0  0
   39.2662   26.4685   49.4724 H   0  0  0  0  0  0  0  0  0  0  0  0
  2  8  2  0
  2  1  1  0
  3  2  1  0
  4  5  1  0
  4  3  2  0
  5  6  2  0
  6  8  1  0
  6  7  1  0
  8 15  1  0
  9 14  2  0
 10  9  1  0
 11 10  2  0
 11 12  1  0
 12 13  2  0
 13 14  1  0
 13  3  1  0
  4 16  1  0
  5 17  1  0
  9 18  1  0
 10 19  1  0
 11 20  1  0
 15 21  1  0
 15 22  1  0
 23 24  1  0
 24 25  2  0
 25 26  1  0
 26 27  1  0
 26 28  2  0
 28 29  1  0
 28 30  1  0
 30 31  2  0
 31 24  1  0
 30 32  1  0
 31 33  1  0
 15 25  1  0
M  ISO  8  16  14  17  14  18  14  19  14  20  14  21   8  22   8  27  15
M  ISO  1  29  16
M  END
>  <DihAtoms>  (1) 
7,14,24,23

>  <DihDeg>  (1) 
-179.96396506399788

$$$$
