REMARK  Name = 
REMARK  3 active torsions:
REMARK  status: ('A' for Active; 'I' for Inactive)
REMARK    1  A    between atoms: C_2  and  C_10
REMARK    2  A    between atoms: C_3  and  C_16
REMARK    3  A    between atoms: C_16  and  C_27
REMARK                            x       y       z     vdW  Elec       q    Type
REMARK                         _______ _______ _______ _____ _____    ______ ____
ROOT
ATOM      1  C   UNL     1      37.822  30.486  50.172  0.00  0.00    +0.000 A 
ATOM      2  C   UNL     1      37.330  30.683  48.897  0.00  0.00    +0.000 A 
ATOM      3  C   UNL     1      36.010  30.287  48.583  0.00  0.00    +0.000 A 
ATOM      4  N   UNL     1      35.267  29.720  49.562  0.00  0.00    +0.000 NA
ATOM      5  C   UNL     1      35.796  29.539  50.827  0.00  0.00    +0.000 A 
ATOM      6  N   UNL     1      37.066  29.924  51.119  0.00  0.00    +0.000 NA
ATOM      7  N   UNL     1      34.963  28.937  51.819  0.00  0.00    +0.000 N 
ATOM      8  H   UNL     1      38.839  30.802  50.390  0.00  0.00    +0.000 HD
ATOM      9  H   UNL     1      34.750  29.497  52.698  0.00  0.00    +0.000 HD
ATOM     10  H   UNL     1      34.545  27.984  51.743  0.00  0.00    +0.000 HD
ENDROOT
BRANCH   2  13
ATOM     11 CL   UNL     1      38.220  33.574  49.205  0.00  0.00    +0.000 Cl
ATOM     12  C   UNL     1      38.714  32.596  47.863  0.00  0.00    +0.000 A 
ATOM     13  C   UNL     1      38.221  31.318  47.897  0.00  0.00    +0.000 A 
ATOM     14  C   UNL     1      38.572  30.450  46.859  0.00  0.00    +0.000 A 
ATOM     15  C   UNL     1      39.370  30.828  45.835  0.00  0.00    +0.000 A 
ATOM     16  C   UNL     1      39.861  32.131  45.816  0.00  0.00    +0.000 A 
ATOM     17 CL   UNL     1      40.897  32.678  44.532  0.00  0.00    +0.000 Cl
ATOM     18  C   UNL     1      39.524  32.987  46.829  0.00  0.00    +0.000 A 
ATOM     19  H   UNL     1      38.263  29.417  46.780  0.00  0.00    +0.000 HD
ATOM     20  H   UNL     1      39.672  30.189  45.003  0.00  0.00    +0.000 HD
ATOM     21  H   UNL     1      39.883  34.006  46.850  0.00  0.00    +0.000 HD
ENDBRANCH   2  13
BRANCH   3  22
ATOM     22  C   UNL     1      35.508  30.502  47.230  0.00  0.00    +0.000 C 
ATOM     23  H   UNL     1      35.797  31.523  46.912  0.00  0.00    +0.000 HD
ATOM     24  H   UNL     1      35.995  29.817  46.495  0.00  0.00    +0.000 HD
BRANCH  22  27
ATOM     25  F   UNL     1      34.241  28.049  47.193  0.00  0.00    +0.000 F 
ATOM     26  C   UNL     1      33.410  29.112  47.093  0.00  0.00    +0.000 A 
ATOM     27  C   UNL     1      34.027  30.346  47.111  0.00  0.00    +0.000 A 
ATOM     28  C   UNL     1      33.255  31.487  47.016  0.00  0.00    +0.000 A 
ATOM     29  H   UNL     1      33.685  32.494  47.022  0.00  0.00    +0.000 HD
ATOM     30  C   UNL     1      31.877  31.448  46.901  0.00  0.00    +0.000 A 
ATOM     31  H   UNL     1      31.283  32.346  46.828  0.00  0.00    +0.000 HD
ATOM     32  C   UNL     1      31.300  30.201  46.887  0.00  0.00    +0.000 A 
ATOM     33  C   UNL     1      32.033  29.027  46.980  0.00  0.00    +0.000 A 
ENDBRANCH  22  27
ENDBRANCH   3  22
TORSDOF 3
