
 OpenBabel03272510303D

 28 30  0  0  0  0  0  0  0  0999 V2000
   37.2120   31.3320   49.1510 C   0  0  0  0  0  0  0  0  0  0  0  0
   37.4060   32.5800   49.7520 C   0  0  0  0  0  0  0  0  0  0  0  0
   38.3550   33.3780   49.1730 C   0  0  0  0  0  0  0  0  0  0  0  0
   39.0520   32.9450   48.0700 N   0  0  0  0  0  0  0  0  0  0  0  0
   38.8270   31.7270   47.5230 C   0  0  0  0  0  0  0  0  0  0  0  0
   37.8850   30.8890   48.0690 N   0  0  0  0  0  0  0  0  0  0  0  0
   36.8320   32.8510   50.6030 H   0  0  0  0  0  0  0  0  0  0  0  0
   38.5690   34.3660   49.5810 H   0  0  0  0  0  0  0  0  0  0  0  0
   36.1590   30.4250   49.7320 C   0  0  0  0  0  0  0  0  0  0  0  0
   36.1700   28.9940   49.5660 C   0  0  0  0  0  0  0  0  0  0  0  0
   36.7010   29.5530   50.8740 C   0  0  0  0  0  0  0  0  0  0  0  0
   35.2310   30.9900   49.9720 H   0  0  0  0  0  0  0  0  0  0  0  0
   35.1980   28.4590   49.5800 H   0  0  0  0  0  0  0  0  0  0  0  0
   36.9400   28.4770   48.9660 H   0  0  0  0  0  0  0  0  0  0  0  0
   37.7820   29.5390   51.0650 H   0  0  0  0  0  0  0  0  0  0  0  0
   36.0060   29.4530   51.7120 H   0  0  0  0  0  0  0  0  0  0  0  0
   39.5410   31.2550   46.3430 C   0  0  0  0  0  0  0  0  0  0  0  0
   39.9330   30.2110   46.5120 H   0  0  0  0  0  0  0  0  0  0  0  0
   40.4610   31.8410   46.1140 H   0  0  0  0  0  0  0  0  0  0  0  0
   39.2050   28.9880   44.6280 F   0  0  0  0  0  0  0  0  0  0  0  0
   38.5230   30.1110   44.3030 C   0  0  0  0  0  0  0  0  0  0  0  0
   38.6860   31.2000   45.1280 C   0  0  0  0  0  0  0  0  0  0  0  0
   37.9780   32.3560   44.7850 C   0  0  0  0  0  0  0  0  0  0  0  0
   38.0810   33.2500   45.4190 H   0  0  0  0  0  0  0  0  0  0  0  0
   37.1520   32.4610   43.6980 C   0  0  0  0  0  0  0  0  0  0  0  0
   36.6340   33.3860   43.4910 H   0  0  0  0  0  0  0  0  0  0  0  0
   36.9910   31.3540   42.8660 C   0  0  0  0  0  3  0  0  0  0  0  0
   37.6870   30.2240   43.2070 C   0  0  0  0  0  3  0  0  0  0  0  0
  1  9  1  0  0  0  0
  1  2  1  0  0  0  0
  2  7  1  0  0  0  0
  3  8  1  0  0  0  0
  3  2  2  0  0  0  0
  4  3  1  0  0  0  0
  5  6  1  0  0  0  0
  5  4  2  0  0  0  0
  6  1  2  0  0  0  0
  9 12  1  0  0  0  0
  9 11  1  0  0  0  0
 10 13  1  0  0  0  0
 10  9  1  0  0  0  0
 10 11  1  0  0  0  0
 11 15  1  0  0  0  0
 11 16  1  0  0  0  0
 14 10  1  0  0  0  0
 17 18  1  0  0  0  0
 17  5  1  0  0  0  0
 19 17  1  0  0  0  0
 21 20  1  0  0  0  0
 21 22  1  0  0  0  0
 22 17  1  0  0  0  0
 23 22  2  0  0  0  0
 23 24  1  0  0  0  0
 25 23  1  0  0  0  0
 26 25  1  0  0  0  0
 27 28  1  0  0  0  0
 27 25  2  0  0  0  0
 28 21  2  0  0  0  0
M  END
>  <minimizedAffinity>
-5.56892824

>  <minimizedRMSD>
0.565183222

$$$$
