
 OpenBabel03272502293D

 23 24  0  0  0  0  0  0  0  0999 V2000
   39.3770   32.8610   47.1730 C   0  0  0  0  0  0  0  0  0  0  0  0
   39.0270   33.8960   47.3310 H   0  0  0  0  0  0  0  0  0  0  0  0
   40.4570   32.8190   47.4570 H   0  0  0  0  0  0  0  0  0  0  0  0
   41.6780   32.3470   45.5500 F   0  0  0  0  0  0  0  0  0  0  0  0
   40.4480   32.2220   45.0000 C   0  0  0  0  0  0  0  0  0  0  0  0
   39.3180   32.4590   45.7460 C   0  0  0  0  0  0  0  0  0  0  0  0
   38.0520   32.3380   45.2090 C   0  0  0  0  0  0  0  0  0  0  0  0
   37.1510   32.5160   45.7640 H   0  0  0  0  0  0  0  0  0  0  0  0
   37.8690   31.9700   43.8880 C   0  0  0  0  0  0  0  0  0  0  0  0
   36.8840   31.8740   43.4630 H   0  0  0  0  0  0  0  0  0  0  0  0
   38.9830   31.7250   43.1150 C   0  0  0  0  0  0  0  0  0  0  0  0
   40.2350   31.8560   43.6870 C   0  0  0  0  0  0  0  0  0  0  0  0
   37.8010   32.1720   48.9330 C   0  0  0  0  0  0  0  0  0  0  0  0
   38.6610   31.8600   48.0150 C   0  0  0  0  0  0  0  0  0  0  0  0
   35.2630   29.7800   50.2200 C   0  0  0  0  0  0  0  0  0  0  0  0
   35.8630   30.7390   49.3830 C   0  0  0  0  0  0  0  0  0  0  0  0
   37.1240   31.1990   49.7330 C   0  0  0  0  0  0  0  0  0  0  0  0
   37.7090   30.7080   50.8510 N   0  0  0  0  0  0  0  0  0  0  0  0
   37.1170   29.7940   51.6360 C   0  0  0  0  0  0  0  0  0  0  0  0
   35.8920   29.3210   51.3310 N   0  0  0  0  0  0  0  0  0  0  0  0
   34.2680   29.3750   50.0010 H   0  0  0  0  0  0  0  0  0  0  0  0
   35.3340   31.0890   48.4980 H   0  0  0  0  0  0  0  0  0  0  0  0
   37.6210   29.4210   52.5330 H   0  0  0  0  0  0  0  0  0  0  0  0
  1  2  1  0  0  0  0
  1  3  1  0  0  0  0
  1 14  1  0  0  0  0
  5  4  1  0  0  0  0
  5  6  1  0  0  0  0
  6  1  1  0  0  0  0
  7  6  2  0  0  0  0
  7  8  1  0  0  0  0
  9  7  1  0  0  0  0
 10  9  1  0  0  0  0
 11 12  1  0  0  0  0
 11  9  2  0  0  0  0
 12  5  2  0  0  0  0
 13 17  1  0  0  0  0
 14 13  2  0  0  0  0
 15 20  1  0  0  0  0
 16 17  1  0  0  0  0
 16 15  2  0  0  0  0
 17 18  2  0  0  0  0
 18 19  1  0  0  0  0
 19 23  1  0  0  0  0
 20 19  2  0  0  0  0
 21 15  1  0  0  0  0
 22 16  1  0  0  0  0
M  END
>  <minimizedAffinity>
-5.46953392

>  <minimizedRMSD>
3.14834595

$$$$
