
 OpenBabel03272510313D

 28 30  0  0  0  0  0  0  0  0999 V2000
   36.8030   21.4040   33.3930 C   0  0  0  0  0  0  0  0  0  0  0  0
   35.7350   20.8470   34.1020 C   0  0  0  0  0  0  0  0  0  0  0  0
   35.8150   20.9360   35.4650 C   0  0  0  0  0  0  0  0  0  0  0  0
   36.8950   21.5430   36.0620 N   0  0  0  0  0  0  0  0  0  0  0  0
   37.9060   22.0690   35.3300 C   0  0  0  0  0  0  0  0  0  0  0  0
   37.8710   22.0030   33.9580 N   0  0  0  0  0  0  0  0  0  0  0  0
   34.9320   20.3930   33.5770 H   0  0  0  0  0  0  0  0  0  0  0  0
   35.0250   20.5250   36.0930 H   0  0  0  0  0  0  0  0  0  0  0  0
   36.7510   21.3580   31.8870 C   0  0  0  0  0  0  0  0  0  0  0  0
   35.5430   21.0980   31.1460 C   0  0  0  0  0  0  0  0  0  0  0  0
   35.9800   22.5450   31.2910 C   0  0  0  0  0  0  0  0  0  0  0  0
   37.7630   21.1900   31.4560 H   0  0  0  0  0  0  0  0  0  0  0  0
   35.6340   20.6200   30.1490 H   0  0  0  0  0  0  0  0  0  0  0  0
   34.5830   20.8780   31.6460 H   0  0  0  0  0  0  0  0  0  0  0  0
   35.4230   23.2100   31.9650 H   0  0  0  0  0  0  0  0  0  0  0  0
   36.4450   22.9580   30.3920 H   0  0  0  0  0  0  0  0  0  0  0  0
   39.0510   22.7330   35.9400 C   0  0  0  0  0  0  0  0  0  0  0  0
   40.0070   22.4100   35.4380 H   0  0  0  0  0  0  0  0  0  0  0  0
   39.2130   22.4520   37.0070 H   0  0  0  0  0  0  0  0  0  0  0  0
   37.2910   24.4500   37.4050 F   0  0  0  0  0  0  0  0  0  0  0  0
   38.1450   25.0410   36.5370 C   0  0  0  0  0  0  0  0  0  0  0  0
   38.9900   24.2140   35.8340 C   0  0  0  0  0  0  0  0  0  0  0  0
   39.8700   24.8340   34.9400 C   0  0  0  0  0  0  0  0  0  0  0  0
   40.5620   24.2080   34.3570 H   0  0  0  0  0  0  0  0  0  0  0  0
   39.9330   26.1850   34.7310 C   0  0  0  0  0  0  0  0  0  0  0  0
   40.6370   26.5980   34.0240 H   0  0  0  0  0  0  0  0  0  0  0  0
   39.0740   27.0170   35.4470 C   0  0  0  0  0  3  0  0  0  0  0  0
   38.2150   26.4050   36.3230 C   0  0  0  0  0  3  0  0  0  0  0  0
  1  6  2  0  0  0  0
  1  2  1  0  0  0  0
  2  3  2  0  0  0  0
  3  4  1  0  0  0  0
  3  8  1  0  0  0  0
  5 17  1  0  0  0  0
  5  4  2  0  0  0  0
  6  5  1  0  0  0  0
  7  2  1  0  0  0  0
  9  1  1  0  0  0  0
 10 11  1  0  0  0  0
 10 14  1  0  0  0  0
 10  9  1  0  0  0  0
 11  9  1  0  0  0  0
 11 15  1  0  0  0  0
 12  9  1  0  0  0  0
 13 10  1  0  0  0  0
 16 11  1  0  0  0  0
 17 19  1  0  0  0  0
 18 17  1  0  0  0  0
 21 20  1  0  0  0  0
 22 17  1  0  0  0  0
 22 21  2  0  0  0  0
 23 22  1  0  0  0  0
 24 23  1  0  0  0  0
 25 23  2  0  0  0  0
 25 27  1  0  0  0  0
 26 25  1  0  0  0  0
 27 28  2  0  0  0  0
 28 21  1  0  0  0  0
M  END
>  <minimizedAffinity>
-5.01738167

$$$$

 OpenBabel03272510313D

 28 30  0  0  0  0  0  0  0  0999 V2000
   37.1410   27.4940   33.8060 C   0  0  0  0  0  0  0  0  0  0  0  0
   36.8600   26.9510   32.5480 C   0  0  0  0  0  0  0  0  0  0  0  0
   35.8230   27.5300   31.8680 C   0  0  0  0  0  0  0  0  0  0  0  0
   35.1250   28.5780   32.4210 N   0  0  0  0  0  0  0  0  0  0  0  0
   35.4370   29.0690   33.6440 C   0  0  0  0  0  0  0  0  0  0  0  0
   36.4690   28.5210   34.3650 N   0  0  0  0  0  0  0  0  0  0  0  0
   37.4400   26.1410   32.1810 H   0  0  0  0  0  0  0  0  0  0  0  0
   35.5380   27.1650   30.8820 H   0  0  0  0  0  0  0  0  0  0  0  0
   38.2920   26.9120   34.5850 C   0  0  0  0  0  0  0  0  0  0  0  0
   38.5310   27.2020   35.9750 C   0  0  0  0  0  0  0  0  0  0  0  0
   37.8320   25.8970   35.6410 C   0  0  0  0  0  0  0  0  0  0  0  0
   39.0950   26.5520   33.9040 H   0  0  0  0  0  0  0  0  0  0  0  0
   39.5760   27.1570   36.3460 H   0  0  0  0  0  0  0  0  0  0  0  0
   37.8990   27.9040   36.5470 H   0  0  0  0  0  0  0  0  0  0  0  0
   36.7580   25.7940   35.8480 H   0  0  0  0  0  0  0  0  0  0  0  0
   38.4780   25.0180   35.7100 H   0  0  0  0  0  0  0  0  0  0  0  0
   34.7230   30.1910   34.2410 C   0  0  0  0  0  0  0  0  0  0  0  0
   34.4110   29.9430   35.2960 H   0  0  0  0  0  0  0  0  0  0  0  0
   33.7570   30.4260   33.7360 H   0  0  0  0  0  0  0  0  0  0  0  0
   35.6740   31.4300   36.6400 F   0  0  0  0  0  0  0  0  0  0  0  0
   36.0000   32.0260   35.4690 C   0  0  0  0  0  0  0  0  0  0  0  0
   35.5420   31.4290   34.3170 C   0  0  0  0  0  0  0  0  0  0  0  0
   35.8850   32.0510   33.1110 C   0  0  0  0  0  0  0  0  0  0  0  0
   35.5380   31.6060   32.1670 H   0  0  0  0  0  0  0  0  0  0  0  0
   36.6320   33.1940   33.0190 C   0  0  0  0  0  0  0  0  0  0  0  0
   36.8610   33.6230   32.0540 H   0  0  0  0  0  0  0  0  0  0  0  0
   37.0940   33.7930   34.1900 C   0  0  0  0  0  3  0  0  0  0  0  0
   36.7560   33.1790   35.3680 C   0  0  0  0  0  3  0  0  0  0  0  0
  1  6  1  0  0  0  0
  1  9  1  0  0  0  0
  2  1  2  0  0  0  0
  3  4  2  0  0  0  0
  3  2  1  0  0  0  0
  4  5  1  0  0  0  0
  5 17  1  0  0  0  0
  5  6  2  0  0  0  0
  7  2  1  0  0  0  0
  8  3  1  0  0  0  0
  9 11  1  0  0  0  0
  9 10  1  0  0  0  0
 10 13  1  0  0  0  0
 10 14  1  0  0  0  0
 11 16  1  0  0  0  0
 11 15  1  0  0  0  0
 11 10  1  0  0  0  0
 12  9  1  0  0  0  0
 17 22  1  0  0  0  0
 17 18  1  0  0  0  0
 19 17  1  0  0  0  0
 21 20  1  0  0  0  0
 22 21  2  0  0  0  0
 23 22  1  0  0  0  0
 24 23  1  0  0  0  0
 25 23  2  0  0  0  0
 25 27  1  0  0  0  0
 26 25  1  0  0  0  0
 27 28  2  0  0  0  0
 28 21  1  0  0  0  0
M  END
>  <minimizedAffinity>
-4.9295907

$$$$

 OpenBabel03272510313D

 28 30  0  0  0  0  0  0  0  0999 V2000
   37.0700   21.2190   33.4590 C   0  0  0  0  0  0  0  0  0  0  0  0
   37.8660   20.8570   32.3680 C   0  0  0  0  0  0  0  0  0  0  0  0
   39.1880   21.2010   32.4570 C   0  0  0  0  0  0  0  0  0  0  0  0
   39.6640   21.8600   33.5660 N   0  0  0  0  0  0  0  0  0  0  0  0
   38.8510   22.1880   34.5980 C   0  0  0  0  0  0  0  0  0  0  0  0
   37.5170   21.8650   34.5550 N   0  0  0  0  0  0  0  0  0  0  0  0
   37.4340   20.3480   31.5430 H   0  0  0  0  0  0  0  0  0  0  0  0
   39.8780   20.9570   31.6490 H   0  0  0  0  0  0  0  0  0  0  0  0
   35.6120   20.8380   33.4250 C   0  0  0  0  0  0  0  0  0  0  0  0
   34.9290   20.4340   32.2230 C   0  0  0  0  0  0  0  0  0  0  0  0
   35.4040   19.3390   33.1610 C   0  0  0  0  0  0  0  0  0  0  0  0
   35.0720   21.2390   34.3110 H   0  0  0  0  0  0  0  0  0  0  0  0
   33.8390   20.6280   32.1510 H   0  0  0  0  0  0  0  0  0  0  0  0
   35.4310   20.4160   31.2380 H   0  0  0  0  0  0  0  0  0  0  0  0
   36.2680   18.7240   32.8760 H   0  0  0  0  0  0  0  0  0  0  0  0
   34.6060   18.8980   33.7650 H   0  0  0  0  0  0  0  0  0  0  0  0
   39.3380   22.8700   35.7910 C   0  0  0  0  0  0  0  0  0  0  0  0
   40.4360   22.6630   35.9420 H   0  0  0  0  0  0  0  0  0  0  0  0
   38.8740   22.5030   36.7360 H   0  0  0  0  0  0  0  0  0  0  0  0
   37.2110   24.3970   36.9470 F   0  0  0  0  0  0  0  0  0  0  0  0
   38.1660   25.0830   36.2750 C   0  0  0  0  0  0  0  0  0  0  0  0
   39.1870   24.3470   35.7200 C   0  0  0  0  0  0  0  0  0  0  0  0
   40.1700   25.0640   35.0290 C   0  0  0  0  0  0  0  0  0  0  0  0
   41.0040   24.5130   34.5690 H   0  0  0  0  0  0  0  0  0  0  0  0
   40.1690   26.4240   34.8770 C   0  0  0  0  0  0  0  0  0  0  0  0
   40.9600   26.9150   34.3300 H   0  0  0  0  0  0  0  0  0  0  0  0
   39.1320   27.1640   35.4430 C   0  0  0  0  0  3  0  0  0  0  0  0
   38.1720   26.4570   36.1200 C   0  0  0  0  0  3  0  0  0  0  0  0
  1  6  1  0  0  0  0
  2  3  1  0  0  0  0
  2  1  2  0  0  0  0
  3  4  2  0  0  0  0
  4  5  1  0  0  0  0
  5 17  1  0  0  0  0
  6  5  2  0  0  0  0
  7  2  1  0  0  0  0
  8  3  1  0  0  0  0
  9  1  1  0  0  0  0
  9 12  1  0  0  0  0
 10 11  1  0  0  0  0
 10  9  1  0  0  0  0
 11  9  1  0  0  0  0
 11 16  1  0  0  0  0
 13 10  1  0  0  0  0
 14 10  1  0  0  0  0
 15 11  1  0  0  0  0
 17 18  1  0  0  0  0
 17 19  1  0  0  0  0
 21 20  1  0  0  0  0
 22 17  1  0  0  0  0
 22 21  2  0  0  0  0
 23 22  1  0  0  0  0
 24 23  1  0  0  0  0
 25 23  2  0  0  0  0
 25 27  1  0  0  0  0
 26 25  1  0  0  0  0
 27 28  2  0  0  0  0
 28 21  1  0  0  0  0
M  END
>  <minimizedAffinity>
-4.92251158

$$$$

 OpenBabel03272510313D

 28 30  0  0  0  0  0  0  0  0999 V2000
   36.3790   21.8430   32.8660 C   0  0  0  0  0  0  0  0  0  0  0  0
   35.7000   22.5900   31.8980 C   0  0  0  0  0  0  0  0  0  0  0  0
   36.1770   23.8540   31.6810 C   0  0  0  0  0  0  0  0  0  0  0  0
   37.2580   24.3230   32.3890 N   0  0  0  0  0  0  0  0  0  0  0  0
   37.8830   23.5590   33.3170 C   0  0  0  0  0  0  0  0  0  0  0  0
   37.4400   22.2840   33.5710 N   0  0  0  0  0  0  0  0  0  0  0  0
   34.8720   22.1650   31.3880 H   0  0  0  0  0  0  0  0  0  0  0  0
   35.7040   24.5030   30.9450 H   0  0  0  0  0  0  0  0  0  0  0  0
   35.9120   20.4330   33.1240 C   0  0  0  0  0  0  0  0  0  0  0  0
   35.0180   19.7240   32.2460 C   0  0  0  0  0  0  0  0  0  0  0  0
   36.5020   19.4280   32.1240 C   0  0  0  0  0  0  0  0  0  0  0  0
   36.0380   20.1590   34.1950 H   0  0  0  0  0  0  0  0  0  0  0  0
   34.3610   18.9450   32.6860 H   0  0  0  0  0  0  0  0  0  0  0  0
   34.5880   20.1910   31.3410 H   0  0  0  0  0  0  0  0  0  0  0  0
   37.0550   19.8060   31.2540 H   0  0  0  0  0  0  0  0  0  0  0  0
   36.8030   18.4830   32.5830 H   0  0  0  0  0  0  0  0  0  0  0  0
   39.0410   24.0290   34.0660 C   0  0  0  0  0  0  0  0  0  0  0  0
   39.2280   25.1210   33.8570 H   0  0  0  0  0  0  0  0  0  0  0  0
   39.9970   23.5420   33.7620 H   0  0  0  0  0  0  0  0  0  0  0  0
   37.2340   25.5340   35.6970 F   0  0  0  0  0  0  0  0  0  0  0  0
   38.0090   24.6180   36.3230 C   0  0  0  0  0  0  0  0  0  0  0  0
   38.8770   23.8960   35.5370 C   0  0  0  0  0  0  0  0  0  0  0  0
   39.6750   22.9500   36.1920 C   0  0  0  0  0  0  0  0  0  0  0  0
   40.3830   22.3510   35.6000 H   0  0  0  0  0  0  0  0  0  0  0  0
   39.6380   22.7120   37.5400 C   0  0  0  0  0  0  0  0  0  0  0  0
   40.2830   21.9660   37.9810 H   0  0  0  0  0  0  0  0  0  0  0  0
   38.7560   23.4470   38.3300 C   0  0  0  0  0  3  0  0  0  0  0  0
   37.9770   24.3710   37.6830 C   0  0  0  0  0  3  0  0  0  0  0  0
  1  9  1  0  0  0  0
  1  6  1  0  0  0  0
  2  1  2  0  0  0  0
  3  2  1  0  0  0  0
  3  4  2  0  0  0  0
  4  5  1  0  0  0  0
  5  6  2  0  0  0  0
  5 17  1  0  0  0  0
  7  2  1  0  0  0  0
  8  3  1  0  0  0  0
  9 12  1  0  0  0  0
 10 13  1  0  0  0  0
 10  9  1  0  0  0  0
 11 10  1  0  0  0  0
 11 16  1  0  0  0  0
 11  9  1  0  0  0  0
 14 10  1  0  0  0  0
 15 11  1  0  0  0  0
 17 22  1  0  0  0  0
 18 17  1  0  0  0  0
 19 17  1  0  0  0  0
 20 21  1  0  0  0  0
 21 28  1  0  0  0  0
 22 23  1  0  0  0  0
 22 21  2  0  0  0  0
 23 25  2  0  0  0  0
 24 23  1  0  0  0  0
 25 26  1  0  0  0  0
 25 27  1  0  0  0  0
 28 27  2  0  0  0  0
M  END
>  <minimizedAffinity>
-4.89296341

$$$$

 OpenBabel03272510313D

 28 30  0  0  0  0  0  0  0  0999 V2000
   36.4550   23.4080   31.9200 C   0  0  0  0  0  0  0  0  0  0  0  0
   35.7150   22.2240   31.9870 C   0  0  0  0  0  0  0  0  0  0  0  0
   36.0940   21.3400   32.9600 C   0  0  0  0  0  0  0  0  0  0  0  0
   37.1420   21.6340   33.8010 N   0  0  0  0  0  0  0  0  0  0  0  0
   37.8280   22.7970   33.6960 C   0  0  0  0  0  0  0  0  0  0  0  0
   37.4850   23.7160   32.7340 N   0  0  0  0  0  0  0  0  0  0  0  0
   34.9170   22.0610   31.3060 H   0  0  0  0  0  0  0  0  0  0  0  0
   35.5700   20.3920   33.0790 H   0  0  0  0  0  0  0  0  0  0  0  0
   36.0610   24.4300   30.8840 C   0  0  0  0  0  0  0  0  0  0  0  0
   34.7770   25.0830   30.8680 C   0  0  0  0  0  0  0  0  0  0  0  0
   35.9450   25.8440   31.4700 C   0  0  0  0  0  0  0  0  0  0  0  0
   36.6990   24.3470   29.9770 H   0  0  0  0  0  0  0  0  0  0  0  0
   34.3760   25.4240   29.8920 H   0  0  0  0  0  0  0  0  0  0  0  0
   33.9860   24.8440   31.6010 H   0  0  0  0  0  0  0  0  0  0  0  0
   35.9970   25.9750   32.5600 H   0  0  0  0  0  0  0  0  0  0  0  0
   36.3510   26.6210   30.8170 H   0  0  0  0  0  0  0  0  0  0  0  0
   38.9290   23.1380   34.5870 C   0  0  0  0  0  0  0  0  0  0  0  0
   39.9180   22.9920   34.0650 H   0  0  0  0  0  0  0  0  0  0  0  0
   39.0070   22.4710   35.4770 H   0  0  0  0  0  0  0  0  0  0  0  0
   37.2670   24.1850   36.6690 F   0  0  0  0  0  0  0  0  0  0  0  0
   38.0940   25.0570   36.0450 C   0  0  0  0  0  0  0  0  0  0  0  0
   38.8920   24.5520   35.0450 C   0  0  0  0  0  0  0  0  0  0  0  0
   39.7450   25.4600   34.4070 C   0  0  0  0  0  0  0  0  0  0  0  0
   40.4000   25.0960   33.6010 H   0  0  0  0  0  0  0  0  0  0  0  0
   39.8250   26.7910   34.7160 C   0  0  0  0  0  0  0  0  0  0  0  0
   40.5060   27.4370   34.1820 H   0  0  0  0  0  0  0  0  0  0  0  0
   39.0140   27.2960   35.7310 C   0  0  0  0  0  3  0  0  0  0  0  0
   38.1810   26.4020   36.3530 C   0  0  0  0  0  3  0  0  0  0  0  0
  1  2  2  0  0  0  0
  1  6  1  0  0  0  0
  2  3  1  0  0  0  0
  3  8  1  0  0  0  0
  3  4  2  0  0  0  0
  5  4  1  0  0  0  0
  5 17  1  0  0  0  0
  6  5  2  0  0  0  0
  7  2  1  0  0  0  0
  9 11  1  0  0  0  0
  9  1  1  0  0  0  0
 10  9  1  0  0  0  0
 10 11  1  0  0  0  0
 10 14  1  0  0  0  0
 11 15  1  0  0  0  0
 12  9  1  0  0  0  0
 13 10  1  0  0  0  0
 16 11  1  0  0  0  0
 17 22  1  0  0  0  0
 17 19  1  0  0  0  0
 18 17  1  0  0  0  0
 21 28  1  0  0  0  0
 21 20  1  0  0  0  0
 22 21  2  0  0  0  0
 23 25  2  0  0  0  0
 23 22  1  0  0  0  0
 24 23  1  0  0  0  0
 25 27  1  0  0  0  0
 26 25  1  0  0  0  0
 27 28  2  0  0  0  0
M  END
>  <minimizedAffinity>
-4.85008097

$$$$

 OpenBabel03272510313D

 28 30  0  0  0  0  0  0  0  0999 V2000
   38.0980   24.9240   35.4650 C   0  0  0  0  0  0  0  0  0  0  0  0
   38.0540   24.5610   36.8140 C   0  0  0  0  0  0  0  0  0  0  0  0
   38.1770   23.2230   37.0740 C   0  0  0  0  0  0  0  0  0  0  0  0
   38.3330   22.3240   36.0450 N   0  0  0  0  0  0  0  0  0  0  0  0
   38.3700   22.7270   34.7520 C   0  0  0  0  0  0  0  0  0  0  0  0
   38.2500   24.0590   34.4420 N   0  0  0  0  0  0  0  0  0  0  0  0
   37.9320   25.3070   37.5590 H   0  0  0  0  0  0  0  0  0  0  0  0
   38.1520   22.8550   38.1000 H   0  0  0  0  0  0  0  0  0  0  0  0
   37.9960   26.3890   35.1250 C   0  0  0  0  0  0  0  0  0  0  0  0
   38.4040   27.4380   36.0230 C   0  0  0  0  0  0  0  0  0  0  0  0
   39.3710   27.0410   34.9220 C   0  0  0  0  0  0  0  0  0  0  0  0
   37.2690   26.5590   34.3000 H   0  0  0  0  0  0  0  0  0  0  0  0
   37.8940   28.4210   35.9450 H   0  0  0  0  0  0  0  0  0  0  0  0
   38.7850   27.2290   37.0390 H   0  0  0  0  0  0  0  0  0  0  0  0
   40.2740   26.4710   35.1800 H   0  0  0  0  0  0  0  0  0  0  0  0
   39.4010   27.7430   34.0850 H   0  0  0  0  0  0  0  0  0  0  0  0
   38.5530   21.7940   33.6480 C   0  0  0  0  0  0  0  0  0  0  0  0
   38.9730   20.8170   34.0230 H   0  0  0  0  0  0  0  0  0  0  0  0
   39.3100   22.1290   32.9010 H   0  0  0  0  0  0  0  0  0  0  0  0
   37.7750   22.7630   31.0690 F   0  0  0  0  0  0  0  0  0  0  0  0
   36.9100   21.9360   31.7020 C   0  0  0  0  0  0  0  0  0  0  0  0
   37.2860   21.4710   32.9410 C   0  0  0  0  0  0  0  0  0  0  0  0
   36.3860   20.6160   33.5880 C   0  0  0  0  0  0  0  0  0  0  0  0
   36.6490   20.2230   34.5810 H   0  0  0  0  0  0  0  0  0  0  0  0
   35.1810   20.2280   33.0670 C   0  0  0  0  0  0  0  0  0  0  0  0
   34.5340   19.5650   33.6210 H   0  0  0  0  0  0  0  0  0  0  0  0
   34.8070   20.7020   31.8110 C   0  0  0  0  0  3  0  0  0  0  0  0
   35.6930   21.5380   31.1810 C   0  0  0  0  0  3  0  0  0  0  0  0
  1  2  1  0  0  0  0
  2  3  2  0  0  0  0
  2  7  1  0  0  0  0
  3  8  1  0  0  0  0
  4  3  1  0  0  0  0
  5  4  2  0  0  0  0
  6  5  1  0  0  0  0
  6  1  2  0  0  0  0
  9  1  1  0  0  0  0
  9 10  1  0  0  0  0
 10 14  1  0  0  0  0
 11  9  1  0  0  0  0
 11 15  1  0  0  0  0
 11 10  1  0  0  0  0
 12  9  1  0  0  0  0
 13 10  1  0  0  0  0
 16 11  1  0  0  0  0
 17 18  1  0  0  0  0
 17  5  1  0  0  0  0
 19 17  1  0  0  0  0
 20 21  1  0  0  0  0
 21 22  1  0  0  0  0
 22 23  2  0  0  0  0
 22 17  1  0  0  0  0
 23 24  1  0  0  0  0
 25 23  1  0  0  0  0
 25 26  1  0  0  0  0
 27 25  2  0  0  0  0
 28 21  2  0  0  0  0
 28 27  1  0  0  0  0
M  END
>  <minimizedAffinity>
-4.84072351

$$$$

 OpenBabel03272510313D

 28 30  0  0  0  0  0  0  0  0999 V2000
   36.0820   21.0800   33.5250 C   0  0  0  0  0  0  0  0  0  0  0  0
   35.6230   20.6140   34.7610 C   0  0  0  0  0  0  0  0  0  0  0  0
   36.2680   21.1110   35.8610 C   0  0  0  0  0  0  0  0  0  0  0  0
   37.2980   22.0120   35.7180 N   0  0  0  0  0  0  0  0  0  0  0  0
   37.7050   22.4330   34.4970 C   0  0  0  0  0  0  0  0  0  0  0  0
   37.0890   21.9610   33.3640 N   0  0  0  0  0  0  0  0  0  0  0  0
   34.8220   19.9190   34.7990 H   0  0  0  0  0  0  0  0  0  0  0  0
   35.9730   20.7990   36.8620 H   0  0  0  0  0  0  0  0  0  0  0  0
   35.3870   20.5850   32.2830 C   0  0  0  0  0  0  0  0  0  0  0  0
   35.9410   20.7220   30.9600 C   0  0  0  0  0  0  0  0  0  0  0  0
   36.1000   19.3800   31.6530 C   0  0  0  0  0  0  0  0  0  0  0  0
   34.2970   20.4470   32.4610 H   0  0  0  0  0  0  0  0  0  0  0  0
   35.2390   20.7910   30.1040 H   0  0  0  0  0  0  0  0  0  0  0  0
   36.9010   21.2360   30.7750 H   0  0  0  0  0  0  0  0  0  0  0  0
   37.0870   19.0860   32.0350 H   0  0  0  0  0  0  0  0  0  0  0  0
   35.4140   18.6110   31.2880 H   0  0  0  0  0  0  0  0  0  0  0  0
   38.7820   23.4000   34.3230 C   0  0  0  0  0  0  0  0  0  0  0  0
   39.1870   23.3530   33.2710 H   0  0  0  0  0  0  0  0  0  0  0  0
   39.6780   23.1890   34.9520 H   0  0  0  0  0  0  0  0  0  0  0  0
   37.2570   25.0030   32.5070 F   0  0  0  0  0  0  0  0  0  0  0  0
   37.6150   25.5750   33.6810 C   0  0  0  0  0  0  0  0  0  0  0  0
   38.3480   24.8030   34.5520 C   0  0  0  0  0  0  0  0  0  0  0  0
   38.7130   25.4010   35.7640 C   0  0  0  0  0  0  0  0  0  0  0  0
   39.3010   24.8170   36.4880 H   0  0  0  0  0  0  0  0  0  0  0  0
   38.3890   26.6830   36.1190 C   0  0  0  0  0  0  0  0  0  0  0  0
   38.7040   27.0830   37.0710 H   0  0  0  0  0  0  0  0  0  0  0  0
   37.6460   27.4590   35.2320 C   0  0  0  0  0  3  0  0  0  0  0  0
   37.2900   26.8680   34.0470 C   0  0  0  0  0  3  0  0  0  0  0  0
  1  2  1  0  0  0  0
  2  7  1  0  0  0  0
  2  3  2  0  0  0  0
  3  8  1  0  0  0  0
  4  3  1  0  0  0  0
  5  4  2  0  0  0  0
  6  1  2  0  0  0  0
  6  5  1  0  0  0  0
  9 12  1  0  0  0  0
  9  1  1  0  0  0  0
 10 11  1  0  0  0  0
 10  9  1  0  0  0  0
 11 15  1  0  0  0  0
 11  9  1  0  0  0  0
 13 10  1  0  0  0  0
 14 10  1  0  0  0  0
 16 11  1  0  0  0  0
 17  5  1  0  0  0  0
 17 22  1  0  0  0  0
 17 19  1  0  0  0  0
 18 17  1  0  0  0  0
 20 21  1  0  0  0  0
 21 28  2  0  0  0  0
 21 22  1  0  0  0  0
 22 23  2  0  0  0  0
 23 25  1  0  0  0  0
 23 24  1  0  0  0  0
 25 26  1  0  0  0  0
 27 25  2  0  0  0  0
 28 27  1  0  0  0  0
M  END
>  <minimizedAffinity>
-4.62775612

$$$$

 OpenBabel03272510313D

 28 30  0  0  0  0  0  0  0  0999 V2000
   37.3330   25.5070   31.8740 C   0  0  0  0  0  0  0  0  0  0  0  0
   38.0920   26.4890   31.2300 C   0  0  0  0  0  0  0  0  0  0  0  0
   38.8040   27.3220   32.0490 C   0  0  0  0  0  0  0  0  0  0  0  0
   38.7500   27.1720   33.4150 N   0  0  0  0  0  0  0  0  0  0  0  0
   37.9980   26.2030   33.9910 C   0  0  0  0  0  0  0  0  0  0  0  0
   37.2660   25.3430   33.2100 N   0  0  0  0  0  0  0  0  0  0  0  0
   38.0890   26.5490   30.1700 H   0  0  0  0  0  0  0  0  0  0  0  0
   39.4210   28.1160   31.6280 H   0  0  0  0  0  0  0  0  0  0  0  0
   36.5520   24.5440   31.0170 C   0  0  0  0  0  0  0  0  0  0  0  0
   35.5770   23.6260   31.5470 C   0  0  0  0  0  0  0  0  0  0  0  0
   35.0640   24.9130   30.9270 C   0  0  0  0  0  0  0  0  0  0  0  0
   37.0550   24.3800   30.0380 H   0  0  0  0  0  0  0  0  0  0  0  0
   35.4040   22.6750   31.0030 H   0  0  0  0  0  0  0  0  0  0  0  0
   35.3710   23.5480   32.6300 H   0  0  0  0  0  0  0  0  0  0  0  0
   34.6720   25.7050   31.5800 H   0  0  0  0  0  0  0  0  0  0  0  0
   34.6430   24.7840   29.9270 H   0  0  0  0  0  0  0  0  0  0  0  0
   37.9410   26.0130   35.4350 C   0  0  0  0  0  0  0  0  0  0  0  0
   36.8810   25.8120   35.7630 H   0  0  0  0  0  0  0  0  0  0  0  0
   38.2230   26.9220   36.0170 H   0  0  0  0  0  0  0  0  0  0  0  0
   37.2160   24.1680   37.5000 F   0  0  0  0  0  0  0  0  0  0  0  0
   38.4130   23.9780   36.8970 C   0  0  0  0  0  0  0  0  0  0  0  0
   38.7600   24.8650   35.9050 C   0  0  0  0  0  0  0  0  0  0  0  0
   39.9980   24.6600   35.2860 C   0  0  0  0  0  0  0  0  0  0  0  0
   40.3130   25.3480   34.4880 H   0  0  0  0  0  0  0  0  0  0  0  0
   40.8630   23.6490   35.6080 C   0  0  0  0  0  0  0  0  0  0  0  0
   41.8050   23.5480   35.0900 H   0  0  0  0  0  0  0  0  0  0  0  0
   40.5050   22.7520   36.6140 C   0  0  0  0  0  3  0  0  0  0  0  0
   39.2910   22.9580   37.2160 C   0  0  0  0  0  3  0  0  0  0  0  0
  1  6  1  0  0  0  0
  2  1  2  0  0  0  0
  2  3  1  0  0  0  0
  3  4  2  0  0  0  0
  4  5  1  0  0  0  0
  5 17  1  0  0  0  0
  6  5  2  0  0  0  0
  7  2  1  0  0  0  0
  8  3  1  0  0  0  0
  9 10  1  0  0  0  0
  9  1  1  0  0  0  0
 10 14  1  0  0  0  0
 11  9  1  0  0  0  0
 11 10  1  0  0  0  0
 11 15  1  0  0  0  0
 12  9  1  0  0  0  0
 13 10  1  0  0  0  0
 16 11  1  0  0  0  0
 17 18  1  0  0  0  0
 17 22  1  0  0  0  0
 17 19  1  0  0  0  0
 21 28  1  0  0  0  0
 21 20  1  0  0  0  0
 22 21  2  0  0  0  0
 23 25  2  0  0  0  0
 23 22  1  0  0  0  0
 24 23  1  0  0  0  0
 25 27  1  0  0  0  0
 26 25  1  0  0  0  0
 27 28  2  0  0  0  0
M  END
>  <minimizedAffinity>
-4.61769247

$$$$

 OpenBabel03272510313D

 28 30  0  0  0  0  0  0  0  0999 V2000
   36.0280   23.4030   31.5560 C   0  0  0  0  0  0  0  0  0  0  0  0
   35.2740   24.5050   31.1410 C   0  0  0  0  0  0  0  0  0  0  0  0
   35.7650   25.7310   31.5010 C   0  0  0  0  0  0  0  0  0  0  0  0
   36.9290   25.8310   32.2260 N   0  0  0  0  0  0  0  0  0  0  0  0
   37.6240   24.7310   32.6040 C   0  0  0  0  0  0  0  0  0  0  0  0
   37.1710   23.4800   32.2670 N   0  0  0  0  0  0  0  0  0  0  0  0
   34.3840   24.3560   30.5820 H   0  0  0  0  0  0  0  0  0  0  0  0
   35.2370   26.6420   31.2180 H   0  0  0  0  0  0  0  0  0  0  0  0
   35.5470   22.0300   31.1620 C   0  0  0  0  0  0  0  0  0  0  0  0
   36.2350   20.8180   31.5240 C   0  0  0  0  0  0  0  0  0  0  0  0
   35.0350   21.2210   32.3620 C   0  0  0  0  0  0  0  0  0  0  0  0
   34.8480   22.0840   30.2980 H   0  0  0  0  0  0  0  0  0  0  0  0
   36.1360   19.9400   30.8530 H   0  0  0  0  0  0  0  0  0  0  0  0
   37.1860   20.8270   32.0870 H   0  0  0  0  0  0  0  0  0  0  0  0
   35.1940   21.6130   33.3750 H   0  0  0  0  0  0  0  0  0  0  0  0
   34.1310   20.6460   32.1450 H   0  0  0  0  0  0  0  0  0  0  0  0
   38.8700   24.8140   33.3570 C   0  0  0  0  0  0  0  0  0  0  0  0
   39.2030   25.8880   33.4480 H   0  0  0  0  0  0  0  0  0  0  0  0
   39.7310   24.3190   32.8510 H   0  0  0  0  0  0  0  0  0  0  0  0
   39.7050   22.2220   34.2370 F   0  0  0  0  0  0  0  0  0  0  0  0
   39.1530   23.0390   35.1650 C   0  0  0  0  0  0  0  0  0  0  0  0
   38.7510   24.2840   34.7400 C   0  0  0  0  0  0  0  0  0  0  0  0
   38.1820   25.1210   35.7060 C   0  0  0  0  0  0  0  0  0  0  0  0
   37.8470   26.1260   35.4060 H   0  0  0  0  0  0  0  0  0  0  0  0
   38.0060   24.7760   37.0190 C   0  0  0  0  0  0  0  0  0  0  0  0
   37.5580   25.4720   37.7130 H   0  0  0  0  0  0  0  0  0  0  0  0
   38.4150   23.5130   37.4430 C   0  0  0  0  0  3  0  0  0  0  0  0
   38.9730   22.6970   36.4930 C   0  0  0  0  0  3  0  0  0  0  0  0
  1  6  1  0  0  0  0
  2  3  1  0  0  0  0
  2  1  2  0  0  0  0
  3  4  2  0  0  0  0
  4  5  1  0  0  0  0
  5 17  1  0  0  0  0
  6  5  2  0  0  0  0
  7  2  1  0  0  0  0
  8  3  1  0  0  0  0
  9 10  1  0  0  0  0
  9  1  1  0  0  0  0
  9 11  1  0  0  0  0
 10 14  1  0  0  0  0
 10 11  1  0  0  0  0
 11 15  1  0  0  0  0
 12  9  1  0  0  0  0
 13 10  1  0  0  0  0
 16 11  1  0  0  0  0
 17 18  1  0  0  0  0
 17 22  1  0  0  0  0
 19 17  1  0  0  0  0
 20 21  1  0  0  0  0
 21 28  1  0  0  0  0
 22 21  2  0  0  0  0
 22 23  1  0  0  0  0
 23 25  2  0  0  0  0
 24 23  1  0  0  0  0
 25 27  1  0  0  0  0
 25 26  1  0  0  0  0
 28 27  2  0  0  0  0
M  END
>  <minimizedAffinity>
-4.61360168

$$$$
