
 OpenBabel03272510043D

 37 39  0  0  0  0  0  0  0  0999 V2000
   34.6610   29.2680   45.4420 C   0  0  0  0  0  0  0  0  0  0  0  0
   34.6200   29.2200   46.8020 C   0  0  0  0  0  0  0  0  0  0  0  0
   33.5560   28.5900   47.4350 C   0  0  0  0  0  0  0  0  0  0  0  0
   32.5200   28.0010   46.7450 C   0  0  0  0  0  0  0  0  0  0  0  0
   32.5250   28.0340   45.3720 C   0  0  0  0  0  0  0  0  0  0  0  0
   33.5910   28.6620   44.7740 C   0  0  0  0  0  0  0  0  0  0  0  0
   33.5540   28.5670   48.5380 H   0  0  0  0  0  0  0  0  0  0  0  0
   31.7570   27.5440   47.3270 H   0  0  0  0  0  0  0  0  0  0  0  0
   31.7000   27.5660   44.8660 H   0  0  0  0  0  0  0  0  0  0  0  0
   33.4800   28.6260   43.6820 H   0  0  0  0  0  0  0  0  0  0  0  0
   37.2620   31.5530   47.8530 C   0  0  0  0  0  0  0  0  0  0  0  0
   36.2670   30.9300   47.1120 C   0  0  0  0  0  0  0  0  0  0  0  0
   35.6260   29.8370   47.5980 C   0  0  0  0  0  0  0  0  0  0  0  0
   36.0010   29.3950   48.8310 N   0  0  0  0  0  0  0  0  0  0  0  0
   36.9560   29.9910   49.5540 C   0  0  0  0  0  0  0  0  0  0  0  0
   37.5810   31.0640   49.0580 N   0  0  0  0  0  0  0  0  0  0  0  0
   37.8620   32.4140   47.6170 H   0  0  0  0  0  0  0  0  0  0  0  0
   36.1880   31.5270   46.2360 H   0  0  0  0  0  0  0  0  0  0  0  0
   37.2160   29.4430   50.9120 C   0  0  0  0  0  0  0  0  0  0  0  0
   37.7200   30.3990   51.7680 F   0  0  0  0  0  0  0  0  0  0  0  0
   35.9430   29.1220   51.5240 F   0  0  0  0  0  0  0  0  0  0  0  0
   37.8840   28.3160   50.9890 F   0  0  0  0  0  0  0  0  0  0  0  0
   35.9410   29.9720   44.5410 S   0  0  0  0  0  0  0  0  0  0  0  0
   35.6170   31.3680   44.1470 O   0  0  0  0  0  0  0  0  0  0  0  0
   35.6430   29.3460   43.1980 O   0  0  0  0  0  0  0  0  0  0  0  0
   37.5280   29.4200   44.3480 C   0  0  0  0  0  0  0  0  0  0  0  0
   37.6490   28.6950   43.5220 H   0  0  0  0  0  0  0  0  0  0  0  0
   37.6950   28.6950   45.2400 H   0  0  0  0  0  0  0  0  0  0  0  0
   38.2050   31.4060   42.3640 F   0  0  0  0  0  0  0  0  0  0  0  0
   38.9140   31.2910   43.5140 C   0  0  0  0  0  0  0  0  0  0  0  0
   38.6310   30.3440   44.4910 C   0  0  0  0  0  0  0  0  0  0  0  0
   39.4970   30.4010   45.5940 C   0  0  0  0  0  0  0  0  0  0  0  0
   39.3070   29.6700   46.3850 H   0  0  0  0  0  0  0  0  0  0  0  0
   40.5240   31.2940   45.7100 C   0  0  0  0  0  0  0  0  0  0  0  0
   41.1410   31.2480   46.6210 H   0  0  0  0  0  0  0  0  0  0  0  0
   40.7530   32.2090   44.7080 C   0  0  0  0  0  0  0  0  0  0  0  0
   39.9340   32.1910   43.6120 C   0  0  0  0  0  0  0  0  0  0  0  0
  1  2  1  0  0  0  0
  2  3  2  0  0  0  0
  2 13  1  0  0  0  0
  3  7  1  0  0  0  0
  4  8  1  0  0  0  0
  4  3  1  0  0  0  0
  5  4  2  0  0  0  0
  6  5  1  0  0  0  0
  6  1  2  0  0  0  0
  9  5  1  0  0  0  0
 10  6  1  0  0  0  0
 11 16  1  0  0  0  0
 12 13  1  0  0  0  0
 12 11  2  0  0  0  0
 13 14  2  0  0  0  0
 14 15  1  0  0  0  0
 15 19  1  0  0  0  0
 16 15  2  0  0  0  0
 17 11  1  0  0  0  0
 18 12  1  0  0  0  0
 19 22  1  0  0  0  0
 19 21  1  0  0  0  0
 19 20  1  0  0  0  0
 23  1  1  0  0  0  0
 24 23  2  0  0  0  0
 25 23  2  0  0  0  0
 26 31  1  0  0  0  0
 26 23  1  0  0  0  0
 26 28  1  0  0  0  0
 27 26  1  0  0  0  0
 29 30  1  0  0  0  0
 30 37  2  0  0  0  0
 30 31  1  0  0  0  0
 31 32  2  0  0  0  0
 32 34  1  0  0  0  0
 32 33  1  0  0  0  0
 34 35  1  0  0  0  0
 36 34  2  0  0  0  0
 37 36  1  0  0  0  0
M  END
>  <minimizedAffinity>
-5.42365313

>  <minimizedRMSD>
3.60988903

$$$$
