
 OpenBabel03272510303D

 28 30  0  0  0  0  0  0  0  0999 V2000
   37.2130   31.3330   49.1490 C   0  0  0  0  0  0  0  0  0  0  0  0
   37.4070   32.5800   49.7510 C   0  0  0  0  0  0  0  0  0  0  0  0
   38.3560   33.3790   49.1720 C   0  0  0  0  0  0  0  0  0  0  0  0
   39.0530   32.9460   48.0680 N   0  0  0  0  0  0  0  0  0  0  0  0
   38.8270   31.7270   47.5210 C   0  0  0  0  0  0  0  0  0  0  0  0
   37.8850   30.8900   48.0670 N   0  0  0  0  0  0  0  0  0  0  0  0
   36.8340   32.8510   50.6020 H   0  0  0  0  0  0  0  0  0  0  0  0
   38.5710   34.3660   49.5800 H   0  0  0  0  0  0  0  0  0  0  0  0
   36.1600   30.4260   49.7310 C   0  0  0  0  0  0  0  0  0  0  0  0
   36.1710   28.9950   49.5660 C   0  0  0  0  0  0  0  0  0  0  0  0
   36.7020   29.5550   50.8730 C   0  0  0  0  0  0  0  0  0  0  0  0
   35.2320   30.9910   49.9700 H   0  0  0  0  0  0  0  0  0  0  0  0
   35.2000   28.4590   49.5800 H   0  0  0  0  0  0  0  0  0  0  0  0
   36.9410   28.4780   48.9650 H   0  0  0  0  0  0  0  0  0  0  0  0
   37.7830   29.5410   51.0640 H   0  0  0  0  0  0  0  0  0  0  0  0
   36.0070   29.4540   51.7110 H   0  0  0  0  0  0  0  0  0  0  0  0
   39.5400   31.2560   46.3410 C   0  0  0  0  0  0  0  0  0  0  0  0
   39.9330   30.2130   46.5090 H   0  0  0  0  0  0  0  0  0  0  0  0
   40.4590   31.8430   46.1100 H   0  0  0  0  0  0  0  0  0  0  0  0
   39.2050   28.9870   44.6270 F   0  0  0  0  0  0  0  0  0  0  0  0
   38.5220   30.1100   44.3020 C   0  0  0  0  0  0  0  0  0  0  0  0
   38.6840   31.2000   45.1260 C   0  0  0  0  0  0  0  0  0  0  0  0
   37.9740   32.3560   44.7830 C   0  0  0  0  0  0  0  0  0  0  0  0
   38.0770   33.2490   45.4160 H   0  0  0  0  0  0  0  0  0  0  0  0
   37.1470   32.4580   43.6970 C   0  0  0  0  0  0  0  0  0  0  0  0
   36.6280   33.3820   43.4890 H   0  0  0  0  0  0  0  0  0  0  0  0
   36.9870   31.3500   42.8650 C   0  0  0  0  0  3  0  0  0  0  0  0
   37.6850   30.2210   43.2070 C   0  0  0  0  0  3  0  0  0  0  0  0
  1  9  1  0  0  0  0
  1  2  1  0  0  0  0
  2  7  1  0  0  0  0
  3  8  1  0  0  0  0
  3  2  2  0  0  0  0
  4  3  1  0  0  0  0
  5  6  1  0  0  0  0
  5  4  2  0  0  0  0
  6  1  2  0  0  0  0
  9 12  1  0  0  0  0
  9 11  1  0  0  0  0
 10 13  1  0  0  0  0
 10  9  1  0  0  0  0
 10 11  1  0  0  0  0
 11 15  1  0  0  0  0
 11 16  1  0  0  0  0
 14 10  1  0  0  0  0
 17 18  1  0  0  0  0
 17  5  1  0  0  0  0
 19 17  1  0  0  0  0
 21 20  1  0  0  0  0
 21 22  1  0  0  0  0
 22 17  1  0  0  0  0
 23 22  2  0  0  0  0
 23 24  1  0  0  0  0
 25 23  1  0  0  0  0
 26 25  1  0  0  0  0
 27 28  1  0  0  0  0
 27 25  2  0  0  0  0
 28 21  2  0  0  0  0
M  END
>  <minimizedAffinity>
-5.56646776

>  <minimizedRMSD>
0.498682439

$$$$
