
 OpenBabel03272506313D

 40 42  0  0  1  0  0  0  0  0999 V2000
   35.0920   30.1130   48.8440 C   0  0  1  0  0  0  0  0  0  0  0  0
   34.5140   30.2040   50.1660 C   0  0  0  0  0  0  0  0  0  0  0  0
   35.1900   29.4050   51.2640 C   0  0  0  0  0  0  0  0  0  0  0  0
   36.6800   29.3680   51.2010 C   0  0  0  0  0  0  0  0  0  0  0  0
   37.2990   29.3060   49.8530 C   0  0  0  0  0  0  0  0  0  0  0  0
   36.6030   30.1750   48.8690 C   0  0  2  0  0  0  0  0  0  0  0  0
   34.8240   31.0490   48.2610 H   0  0  0  0  0  0  0  0  0  0  0  0
   33.4470   30.0490   50.2800 H   0  0  0  0  0  0  0  0  0  0  0  0
   34.6570   31.2710   50.5240 H   0  0  0  0  0  0  0  0  0  0  0  0
   34.7880   28.3650   51.1860 H   0  0  0  0  0  0  0  0  0  0  0  0
   34.8780   29.7960   52.2420 H   0  0  0  0  0  0  0  0  0  0  0  0
   37.0530   30.2300   51.8140 H   0  0  0  0  0  0  0  0  0  0  0  0
   36.9970   28.4540   51.7570 H   0  0  0  0  0  0  0  0  0  0  0  0
   38.3400   29.6190   49.8990 H   0  0  0  0  0  0  0  0  0  0  0  0
   37.1810   28.2520   49.4930 H   0  0  0  0  0  0  0  0  0  0  0  0
   37.0670   30.0540   47.8750 H   0  0  0  0  0  0  0  0  0  0  0  0
   34.2520   27.7290   48.4430 C   0  0  0  0  0  0  0  0  0  0  0  0
   34.5950   29.0330   47.9700 C   0  0  0  0  0  0  0  0  0  0  0  0
   34.4360   29.2270   46.6110 C   0  0  0  0  0  0  0  0  0  0  0  0
   33.9760   28.2090   45.8080 N   0  0  0  0  0  0  0  0  0  0  0  0
   33.6700   26.9930   46.3290 C   0  0  0  0  0  0  0  0  0  0  0  0
   33.8120   26.7640   47.6520 N   0  0  0  0  0  0  0  0  0  0  0  0
   34.3710   27.5550   49.5100 H   0  0  0  0  0  0  0  0  0  0  0  0
   34.6630   30.1720   46.1400 H   0  0  0  0  0  0  0  0  0  0  0  0
   33.3270   26.3130   45.5670 H   0  0  0  0  0  0  0  0  0  0  0  0
   36.9200   31.6300   49.2900 C   0  0  0  0  0  0  0  0  0  0  0  0
   36.6140   31.7930   50.3260 H   0  0  0  0  0  0  0  0  0  0  0  0
   36.4120   32.3620   48.6650 H   0  0  0  0  0  0  0  0  0  0  0  0
   38.4290   31.8640   49.1940 C   0  0  0  0  0  0  0  0  0  0  0  0
   38.9770   31.0520   49.7060 H   0  0  0  0  0  0  0  0  0  0  0  0
   38.6790   32.7970   49.7490 H   0  0  0  0  0  0  0  0  0  0  0  0
   39.8080   34.1740   48.2540 F   0  0  0  0  0  0  0  0  0  0  0  0
   39.5810   33.1160   47.4390 C   0  0  0  0  0  0  0  0  0  0  0  0
   38.9240   31.9660   47.8200 C   0  0  0  0  0  0  0  0  0  0  0  0
   38.7780   30.9740   46.8500 C   0  0  0  0  0  0  0  0  0  0  0  0
   38.2540   30.0760   47.1820 H   0  0  0  0  0  0  0  0  0  0  0  0
   39.2520   31.0860   45.5510 C   0  0  0  0  0  0  0  0  0  0  0  0
   39.0910   30.2560   44.8600 H   0  0  0  0  0  0  0  0  0  0  0  0
   39.9110   32.2770   45.2220 C   0  0  0  0  0  0  0  0  0  0  0  0
   40.0690   33.2710   46.1580 C   0  0  0  0  0  0  0  0  0  0  0  0
  1  7  1  6  0  0  0
  1  6  1  0  0  0  0
  1  2  1  0  0  0  0
  2  8  1  0  0  0  0
  2  9  1  0  0  0  0
  2  3  1  0  0  0  0
  3 11  1  0  0  0  0
  4  3  1  0  0  0  0
  4 13  1  0  0  0  0
  4 12  1  0  0  0  0
  5 14  1  0  0  0  0
  5  4  1  0  0  0  0
  6 16  1  6  0  0  0
  6 26  1  0  0  0  0
  6  5  1  0  0  0  0
 10  3  1  0  0  0  0
 15  5  1  0  0  0  0
 17 23  1  0  0  0  0
 18 17  1  0  0  0  0
 18  1  1  0  0  0  0
 19 18  2  0  0  0  0
 20 21  2  0  0  0  0
 20 19  1  0  0  0  0
 21 22  1  0  0  0  0
 22 17  2  0  0  0  0
 24 19  1  0  0  0  0
 25 21  1  0  0  0  0
 26 27  1  0  0  0  0
 28 26  1  0  0  0  0
 29 26  1  0  0  0  0
 29 30  1  0  0  0  0
 29 31  1  0  0  0  0
 33 34  1  0  0  0  0
 33 32  1  0  0  0  0
 34 29  1  0  0  0  0
 35 36  1  0  0  0  0
 35 34  2  0  0  0  0
 37 35  1  0  0  0  0
 38 37  1  0  0  0  0
 39 37  2  0  0  0  0
 39 40  1  0  0  0  0
 40 33  2  0  0  0  0
M  END
>  <minimizedAffinity>
-6.60920095

>  <minimizedRMSD>
3.48164916

$$$$
