
 OpenBabel03272505283D

 31 33  0  0  0  0  0  0  0  0999 V2000
   37.4060   25.1860   32.5880 N   0  0  0  0  0  0  0  0  0  0  0  0
   38.1500   24.8700   33.6820 C   0  0  0  0  0  0  0  0  0  0  0  0
   38.2130   23.5790   34.1850 C   0  0  0  0  0  0  0  0  0  0  0  0
   37.4660   22.5930   33.5100 C   0  0  0  0  0  0  0  0  0  0  0  0
   37.4930   21.4130   33.9290 O   0  0  0  0  0  0  0  0  0  0  0  0
   36.7240   22.9160   32.4160 N   0  0  0  0  0  0  0  0  0  0  0  0
   36.7450   24.1960   32.0270 C   0  0  0  0  0  0  0  0  0  0  0  0
   36.0500   24.4540   31.0190 O   0  0  0  0  0  0  0  0  0  0  0  0
   38.7370   25.6200   34.2200 H   0  0  0  0  0  0  0  0  0  0  0  0
   36.4980   28.7640   32.1950 C   0  0  0  0  0  0  0  0  0  0  0  0
   36.5440   27.4460   32.6620 C   0  0  0  0  0  0  0  0  0  0  0  0
   37.3630   26.4970   32.1050 C   0  0  0  0  0  0  0  0  0  0  0  0
   38.1370   26.8900   31.0710 N   0  0  0  0  0  0  0  0  0  0  0  0
   38.1250   28.1590   30.5830 C   0  0  0  0  0  0  0  0  0  0  0  0
   37.3080   29.0990   31.1450 N   0  0  0  0  0  0  0  0  0  0  0  0
   35.8860   29.5540   32.5820 H   0  0  0  0  0  0  0  0  0  0  0  0
   35.8520   27.3380   33.4730 H   0  0  0  0  0  0  0  0  0  0  0  0
   38.7720   28.4120   29.7500 H   0  0  0  0  0  0  0  0  0  0  0  0
   37.1610   23.9760   36.6900 F   0  0  0  0  0  0  0  0  0  0  0  0
   38.4010   23.4670   36.5790 C   0  0  0  0  0  0  0  0  0  0  0  0
   39.0100   23.2340   35.3620 C   0  0  0  0  0  0  0  0  0  0  0  0
   40.2920   22.7070   35.3220 C   0  0  0  0  0  0  0  0  0  0  0  0
   40.6940   22.5550   34.3400 H   0  0  0  0  0  0  0  0  0  0  0  0
   40.9130   22.4330   36.5270 C   0  0  0  0  0  0  0  0  0  0  0  0
   41.9140   22.0220   36.4690 H   0  0  0  0  0  0  0  0  0  0  0  0
   40.3230   22.6590   37.7420 C   0  0  0  0  0  3  0  0  0  0  0  0
   39.0580   23.1800   37.7500 C   0  0  0  0  0  3  0  0  0  0  0  0
   35.9600   21.8990   31.7160 C   0  0  0  0  0  0  0  0  0  0  0  0
   35.2380   22.4660   30.7180 F   0  0  0  0  0  0  0  0  0  0  0  0
   35.0500   21.2580   32.5430 F   0  0  0  0  0  0  0  0  0  0  0  0
   36.8370   20.9800   31.1570 F   0  0  0  0  0  0  0  0  0  0  0  0
  1  2  1  0  0  0  0
  2  3  2  0  0  0  0
  2  9  1  0  0  0  0
  3 21  1  0  0  0  0
  4  5  2  0  0  0  0
  4  3  1  0  0  0  0
  6  4  1  0  0  0  0
  7  6  1  0  0  0  0
  7  1  1  0  0  0  0
  8  7  2  0  0  0  0
 10 16  1  0  0  0  0
 10 11  1  0  0  0  0
 11 17  1  0  0  0  0
 12  1  1  0  0  0  0
 12 11  2  0  0  0  0
 13 12  1  0  0  0  0
 14 13  2  0  0  0  0
 14 15  1  0  0  0  0
 15 10  2  0  0  0  0
 18 14  1  0  0  0  0
 20 19  1  0  0  0  0
 20 27  1  0  0  0  0
 21 20  2  0  0  0  0
 22 21  1  0  0  0  0
 22 24  2  0  0  0  0
 23 22  1  0  0  0  0
 24 26  1  0  0  0  0
 25 24  1  0  0  0  0
 26 27  2  0  0  0  0
 28  6  1  0  0  0  0
 28 30  1  0  0  0  0
 29 28  1  0  0  0  0
 31 28  1  0  0  0  0
M  END
>  <minimizedAffinity>
-6.02923727

$$$$

 OpenBabel03272505283D

 31 33  0  0  0  0  0  0  0  0999 V2000
   38.0230   23.5970   34.2360 N   0  0  0  0  0  0  0  0  0  0  0  0
   37.9750   24.8660   33.7480 C   0  0  0  0  0  0  0  0  0  0  0  0
   37.3090   25.1810   32.5740 C   0  0  0  0  0  0  0  0  0  0  0  0
   36.6740   24.1210   31.8960 C   0  0  0  0  0  0  0  0  0  0  0  0
   36.0590   24.3600   30.8300 O   0  0  0  0  0  0  0  0  0  0  0  0
   36.7260   22.8540   32.3900 N   0  0  0  0  0  0  0  0  0  0  0  0
   37.4000   22.6770   33.5310 C   0  0  0  0  0  0  0  0  0  0  0  0
   37.4270   21.4990   33.9520 O   0  0  0  0  0  0  0  0  0  0  0  0
   38.4610   25.7020   34.2590 H   0  0  0  0  0  0  0  0  0  0  0  0
   38.8180   23.2730   37.8480 C   0  0  0  0  0  0  0  0  0  0  0  0
   38.1510   23.5620   36.6520 C   0  0  0  0  0  0  0  0  0  0  0  0
   38.7050   23.3120   35.4230 C   0  0  0  0  0  0  0  0  0  0  0  0
   39.9400   22.7670   35.4090 N   0  0  0  0  0  0  0  0  0  0  0  0
   40.6270   22.4700   36.5450 C   0  0  0  0  0  0  0  0  0  0  0  0
   40.0670   22.7210   37.7660 N   0  0  0  0  0  0  0  0  0  0  0  0
   38.4470   23.4400   38.8400 H   0  0  0  0  0  0  0  0  0  0  0  0
   37.1990   23.9960   36.8810 H   0  0  0  0  0  0  0  0  0  0  0  0
   41.6160   22.0330   36.4660 H   0  0  0  0  0  0  0  0  0  0  0  0
   39.2380   26.0190   30.8090 F   0  0  0  0  0  0  0  0  0  0  0  0
   38.2650   26.8770   31.1640 C   0  0  0  0  0  0  0  0  0  0  0  0
   37.2540   26.5430   32.0440 C   0  0  0  0  0  0  0  0  0  0  0  0
   36.2830   27.4790   32.3660 C   0  0  0  0  0  0  0  0  0  0  0  0
   35.5340   27.1420   33.0550 H   0  0  0  0  0  0  0  0  0  0  0  0
   36.3720   28.7270   31.7770 C   0  0  0  0  0  0  0  0  0  0  0  0
   35.6010   29.4400   32.0450 H   0  0  0  0  0  0  0  0  0  0  0  0
   37.3670   29.0730   30.9030 C   0  0  0  0  0  3  0  0  0  0  0  0
   38.3120   28.1310   30.6050 C   0  0  0  0  0  3  0  0  0  0  0  0
   36.0670   21.7630   31.6940 C   0  0  0  0  0  0  0  0  0  0  0  0
   35.2580   22.2540   30.7230 F   0  0  0  0  0  0  0  0  0  0  0  0
   35.2610   21.0100   32.5340 F   0  0  0  0  0  0  0  0  0  0  0  0
   37.0300   20.9600   31.0990 F   0  0  0  0  0  0  0  0  0  0  0  0
  1 12  1  0  0  0  0
  2  1  1  0  0  0  0
  2  9  1  0  0  0  0
  3  2  2  0  0  0  0
  4  6  1  0  0  0  0
  4  3  1  0  0  0  0
  5  4  2  0  0  0  0
  6  7  1  0  0  0  0
  7  8  2  0  0  0  0
  7  1  1  0  0  0  0
 10 16  1  0  0  0  0
 11 17  1  0  0  0  0
 11 10  2  0  0  0  0
 12 11  1  0  0  0  0
 13 12  2  0  0  0  0
 13 14  1  0  0  0  0
 14 15  2  0  0  0  0
 15 10  1  0  0  0  0
 18 14  1  0  0  0  0
 19 20  1  0  0  0  0
 20 21  1  0  0  0  0
 21 22  2  0  0  0  0
 21  3  1  0  0  0  0
 22 23  1  0  0  0  0
 24 25  1  0  0  0  0
 24 22  1  0  0  0  0
 26 24  2  0  0  0  0
 27 26  1  0  0  0  0
 27 20  2  0  0  0  0
 28  6  1  0  0  0  0
 28 30  1  0  0  0  0
 29 28  1  0  0  0  0
 31 28  1  0  0  0  0
M  END
>  <minimizedAffinity>
-5.83702469

$$$$

 OpenBabel03272505283D

 31 33  0  0  0  0  0  0  0  0999 V2000
   37.3690   25.2170   32.5820 N   0  0  0  0  0  0  0  0  0  0  0  0
   38.0780   24.9210   33.7050 C   0  0  0  0  0  0  0  0  0  0  0  0
   38.1480   23.6340   34.2160 C   0  0  0  0  0  0  0  0  0  0  0  0
   37.4460   22.6310   33.5180 C   0  0  0  0  0  0  0  0  0  0  0  0
   37.4810   21.4530   33.9440 O   0  0  0  0  0  0  0  0  0  0  0  0
   36.7390   22.9340   32.3960 N   0  0  0  0  0  0  0  0  0  0  0  0
   36.7480   24.2120   32.0020 C   0  0  0  0  0  0  0  0  0  0  0  0
   36.0860   24.4520   30.9680 O   0  0  0  0  0  0  0  0  0  0  0  0
   38.6300   25.6850   34.2600 H   0  0  0  0  0  0  0  0  0  0  0  0
   38.1710   28.2890   30.6580 C   0  0  0  0  0  0  0  0  0  0  0  0
   38.2160   26.9850   31.1630 C   0  0  0  0  0  0  0  0  0  0  0  0
   37.3180   26.5250   32.0920 C   0  0  0  0  0  0  0  0  0  0  0  0
   36.3720   27.3940   32.5080 N   0  0  0  0  0  0  0  0  0  0  0  0
   36.2900   28.6700   32.0460 C   0  0  0  0  0  0  0  0  0  0  0  0
   37.1870   29.1200   31.1200 N   0  0  0  0  0  0  0  0  0  0  0  0
   38.8370   28.7140   29.9330 H   0  0  0  0  0  0  0  0  0  0  0  0
   39.0410   26.4670   30.7170 H   0  0  0  0  0  0  0  0  0  0  0  0
   35.5050   29.3190   32.4200 H   0  0  0  0  0  0  0  0  0  0  0  0
   40.7610   22.8220   33.9860 F   0  0  0  0  0  0  0  0  0  0  0  0
   40.2130   22.9110   35.2120 C   0  0  0  0  0  0  0  0  0  0  0  0
   38.9080   23.3100   35.4220 C   0  0  0  0  0  0  0  0  0  0  0  0
   38.4080   23.3790   36.7150 C   0  0  0  0  0  0  0  0  0  0  0  0
   37.3880   23.6970   36.7940 H   0  0  0  0  0  0  0  0  0  0  0  0
   39.2580   23.0390   37.7510 C   0  0  0  0  0  0  0  0  0  0  0  0
   38.8440   23.1000   38.7510 H   0  0  0  0  0  0  0  0  0  0  0  0
   40.5540   22.6420   37.5590 C   0  0  0  0  0  3  0  0  0  0  0  0
   41.0190   22.5820   36.2740 C   0  0  0  0  0  3  0  0  0  0  0  0
   36.0210   21.8990   31.6740 C   0  0  0  0  0  0  0  0  0  0  0  0
   35.2750   22.4540   30.6870 F   0  0  0  0  0  0  0  0  0  0  0  0
   35.1400   21.2010   32.4860 F   0  0  0  0  0  0  0  0  0  0  0  0
   36.9380   21.0320   31.0970 F   0  0  0  0  0  0  0  0  0  0  0  0
  1  2  1  0  0  0  0
  2  3  2  0  0  0  0
  2  9  1  0  0  0  0
  3 21  1  0  0  0  0
  4  5  2  0  0  0  0
  4  3  1  0  0  0  0
  6  4  1  0  0  0  0
  7  6  1  0  0  0  0
  7  1  1  0  0  0  0
  8  7  2  0  0  0  0
 10 15  2  0  0  0  0
 10 11  1  0  0  0  0
 11 12  2  0  0  0  0
 12 13  1  0  0  0  0
 12  1  1  0  0  0  0
 14 18  1  0  0  0  0
 14 13  2  0  0  0  0
 15 14  1  0  0  0  0
 16 10  1  0  0  0  0
 17 11  1  0  0  0  0
 19 20  1  0  0  0  0
 20 21  2  0  0  0  0
 20 27  1  0  0  0  0
 21 22  1  0  0  0  0
 22 23  1  0  0  0  0
 22 24  2  0  0  0  0
 24 25  1  0  0  0  0
 26 24  1  0  0  0  0
 27 26  2  0  0  0  0
 28  6  1  0  0  0  0
 28 30  1  0  0  0  0
 29 28  1  0  0  0  0
 31 28  1  0  0  0  0
M  END
>  <minimizedAffinity>
-5.81712389

$$$$

 OpenBabel03272505283D

 31 33  0  0  0  0  0  0  0  0999 V2000
   37.2250   27.7700   33.5720 N   0  0  0  0  0  0  0  0  0  0  0  0
   36.4060   28.4140   34.4480 C   0  0  0  0  0  0  0  0  0  0  0  0
   35.6420   29.5090   34.0760 C   0  0  0  0  0  0  0  0  0  0  0  0
   35.7470   29.9370   32.7370 C   0  0  0  0  0  0  0  0  0  0  0  0
   35.0750   30.9230   32.3560 O   0  0  0  0  0  0  0  0  0  0  0  0
   36.5680   29.2880   31.8670 N   0  0  0  0  0  0  0  0  0  0  0  0
   37.2540   28.2450   32.3450 C   0  0  0  0  0  0  0  0  0  0  0  0
   37.9990   27.6760   31.5160 O   0  0  0  0  0  0  0  0  0  0  0  0
   36.3100   28.0970   35.4910 H   0  0  0  0  0  0  0  0  0  0  0  0
   39.9710   25.7220   35.0030 C   0  0  0  0  0  0  0  0  0  0  0  0
   39.2060   26.8160   34.5830 C   0  0  0  0  0  0  0  0  0  0  0  0
   37.9830   26.6690   33.9790 C   0  0  0  0  0  0  0  0  0  0  0  0
   37.5390   25.4070   33.8010 N   0  0  0  0  0  0  0  0  0  0  0  0
   38.2480   24.3140   34.1920 C   0  0  0  0  0  0  0  0  0  0  0  0
   39.4630   24.4690   34.7940 N   0  0  0  0  0  0  0  0  0  0  0  0
   40.9300   25.7630   35.4800 H   0  0  0  0  0  0  0  0  0  0  0  0
   39.7380   27.7190   34.8030 H   0  0  0  0  0  0  0  0  0  0  0  0
   37.8340   23.3250   34.0210 H   0  0  0  0  0  0  0  0  0  0  0  0
   36.6820   31.4480   35.7180 F   0  0  0  0  0  0  0  0  0  0  0  0
   35.3700   31.1630   35.7990 C   0  0  0  0  0  0  0  0  0  0  0  0
   34.7610   30.2050   35.0130 C   0  0  0  0  0  0  0  0  0  0  0  0
   33.4020   29.9640   35.1490 C   0  0  0  0  0  0  0  0  0  0  0  0
   33.0050   29.2060   34.5030 H   0  0  0  0  0  0  0  0  0  0  0  0
   32.7070   30.7100   36.0830 C   0  0  0  0  0  0  0  0  0  0  0  0
   31.6470   30.5020   36.1700 H   0  0  0  0  0  0  0  0  0  0  0  0
   33.2960   31.6630   36.8690 C   0  0  0  0  0  3  0  0  0  0  0  0
   34.6370   31.8790   36.7140 C   0  0  0  0  0  3  0  0  0  0  0  0
   36.6720   29.7250   30.4860 C   0  0  0  0  0  0  0  0  0  0  0  0
   36.4670   28.6770   29.6510 F   0  0  0  0  0  0  0  0  0  0  0  0
   37.9290   30.2280   30.1830 F   0  0  0  0  0  0  0  0  0  0  0  0
   35.6960   30.6800   30.2400 F   0  0  0  0  0  0  0  0  0  0  0  0
  1 12  1  0  0  0  0
  1  2  1  0  0  0  0
  2  9  1  0  0  0  0
  3  2  2  0  0  0  0
  3 21  1  0  0  0  0
  4  3  1  0  0  0  0
  5  4  2  0  0  0  0
  6  7  1  0  0  0  0
  6  4  1  0  0  0  0
  7  1  1  0  0  0  0
  8  7  2  0  0  0  0
 10 16  1  0  0  0  0
 11 17  1  0  0  0  0
 11 10  2  0  0  0  0
 12 11  1  0  0  0  0
 13 12  2  0  0  0  0
 13 14  1  0  0  0  0
 14 15  2  0  0  0  0
 15 10  1  0  0  0  0
 18 14  1  0  0  0  0
 19 20  1  0  0  0  0
 20 27  1  0  0  0  0
 21 22  1  0  0  0  0
 21 20  2  0  0  0  0
 22 24  2  0  0  0  0
 23 22  1  0  0  0  0
 24 25  1  0  0  0  0
 24 26  1  0  0  0  0
 27 26  2  0  0  0  0
 28  6  1  0  0  0  0
 29 28  1  0  0  0  0
 30 28  1  0  0  0  0
 31 28  1  0  0  0  0
M  END
>  <minimizedAffinity>
-5.79643583

$$$$

 OpenBabel03272505283D

 31 33  0  0  0  0  0  0  0  0999 V2000
   36.0610   28.2460   32.0650 N   0  0  0  0  0  0  0  0  0  0  0  0
   35.6150   28.8180   33.2160 C   0  0  0  0  0  0  0  0  0  0  0  0
   35.5050   30.1920   33.3630 C   0  0  0  0  0  0  0  0  0  0  0  0
   35.8800   30.9850   32.2600 C   0  0  0  0  0  0  0  0  0  0  0  0
   35.7970   32.2320   32.3480 O   0  0  0  0  0  0  0  0  0  0  0  0
   36.3250   30.4050   31.1120 N   0  0  0  0  0  0  0  0  0  0  0  0
   36.3860   29.0700   31.0930 C   0  0  0  0  0  0  0  0  0  0  0  0
   36.8020   28.5750   30.0210 O   0  0  0  0  0  0  0  0  0  0  0  0
   35.3190   28.2210   34.0840 H   0  0  0  0  0  0  0  0  0  0  0  0
   37.2510   24.7540   32.4850 C   0  0  0  0  0  0  0  0  0  0  0  0
   37.1450   26.1460   32.5860 C   0  0  0  0  0  0  0  0  0  0  0  0
   36.1600   26.8560   31.9490 C   0  0  0  0  0  0  0  0  0  0  0  0
   35.2810   26.1500   31.2070 N   0  0  0  0  0  0  0  0  0  0  0  0
   35.3450   24.7970   31.0800 C   0  0  0  0  0  0  0  0  0  0  0  0
   36.3280   24.0970   31.7190 N   0  0  0  0  0  0  0  0  0  0  0  0
   37.9910   24.1370   32.9550 H   0  0  0  0  0  0  0  0  0  0  0  0
   37.9390   26.5120   33.2050 H   0  0  0  0  0  0  0  0  0  0  0  0
   34.6070   24.2880   30.4690 H   0  0  0  0  0  0  0  0  0  0  0  0
   32.8050   30.3430   33.8380 F   0  0  0  0  0  0  0  0  0  0  0  0
   33.6550   30.8450   34.7520 C   0  0  0  0  0  0  0  0  0  0  0  0
   35.0270   30.8130   34.5980 C   0  0  0  0  0  0  0  0  0  0  0  0
   35.8440   31.3500   35.5820 C   0  0  0  0  0  0  0  0  0  0  0  0
   36.8960   31.2860   35.3880 H   0  0  0  0  0  0  0  0  0  0  0  0
   35.2340   31.9020   36.6940 C   0  0  0  0  0  0  0  0  0  0  0  0
   35.8940   32.3140   37.4470 H   0  0  0  0  0  0  0  0  0  0  0  0
   33.8760   31.9410   36.8610 C   0  0  0  0  0  3  0  0  0  0  0  0
   33.0950   31.4050   35.8750 C   0  0  0  0  0  3  0  0  0  0  0  0
   36.7050   31.2220   29.9720 C   0  0  0  0  0  0  0  0  0  0  0  0
   37.8570   31.8840   30.2400 F   0  0  0  0  0  0  0  0  0  0  0  0
   35.7560   32.1880   29.6740 F   0  0  0  0  0  0  0  0  0  0  0  0
   36.9170   30.3960   28.8770 F   0  0  0  0  0  0  0  0  0  0  0  0
  1  2  1  0  0  0  0
  2  3  2  0  0  0  0
  2  9  1  0  0  0  0
  3 21  1  0  0  0  0
  4  5  2  0  0  0  0
  4  3  1  0  0  0  0
  6  4  1  0  0  0  0
  7  6  1  0  0  0  0
  7  1  1  0  0  0  0
  8  7  2  0  0  0  0
 10 11  1  0  0  0  0
 10 16  1  0  0  0  0
 11 17  1  0  0  0  0
 12  1  1  0  0  0  0
 12 11  2  0  0  0  0
 13 12  1  0  0  0  0
 14 13  2  0  0  0  0
 14 15  1  0  0  0  0
 15 10  2  0  0  0  0
 18 14  1  0  0  0  0
 19 20  1  0  0  0  0
 20 27  1  0  0  0  0
 21 20  2  0  0  0  0
 21 22  1  0  0  0  0
 22 24  2  0  0  0  0
 23 22  1  0  0  0  0
 24 26  1  0  0  0  0
 24 25  1  0  0  0  0
 27 26  2  0  0  0  0
 28 29  1  0  0  0  0
 28  6  1  0  0  0  0
 30 28  1  0  0  0  0
 31 28  1  0  0  0  0
M  END
>  <minimizedAffinity>
-5.78954029

$$$$

 OpenBabel03272505283D

 31 33  0  0  0  0  0  0  0  0999 V2000
   38.0730   23.4980   34.5960 N   0  0  0  0  0  0  0  0  0  0  0  0
   38.3640   24.6020   33.8570 C   0  0  0  0  0  0  0  0  0  0  0  0
   37.9850   24.7230   32.5290 C   0  0  0  0  0  0  0  0  0  0  0  0
   37.2760   23.6420   31.9660 C   0  0  0  0  0  0  0  0  0  0  0  0
   36.9130   23.7070   30.7680 O   0  0  0  0  0  0  0  0  0  0  0  0
   36.9880   22.5410   32.7110 N   0  0  0  0  0  0  0  0  0  0  0  0
   37.4080   22.5440   33.9810 C   0  0  0  0  0  0  0  0  0  0  0  0
   37.1260   21.5140   34.6330 O   0  0  0  0  0  0  0  0  0  0  0  0
   38.9130   25.4510   34.2750 H   0  0  0  0  0  0  0  0  0  0  0  0
   38.0890   23.8290   38.2940 C   0  0  0  0  0  0  0  0  0  0  0  0
   37.7070   23.9210   36.9510 C   0  0  0  0  0  0  0  0  0  0  0  0
   38.4700   23.4070   35.9330 C   0  0  0  0  0  0  0  0  0  0  0  0
   39.6230   22.7980   36.2830 N   0  0  0  0  0  0  0  0  0  0  0  0
   40.0340   22.6850   37.5740 C   0  0  0  0  0  0  0  0  0  0  0  0
   39.2680   23.1980   38.5820 N   0  0  0  0  0  0  0  0  0  0  0  0
   37.5440   24.2050   39.1370 H   0  0  0  0  0  0  0  0  0  0  0  0
   36.7760   24.4460   36.8880 H   0  0  0  0  0  0  0  0  0  0  0  0
   40.9720   22.1830   37.7890 H   0  0  0  0  0  0  0  0  0  0  0  0
   36.2620   26.8600   32.5580 F   0  0  0  0  0  0  0  0  0  0  0  0
   37.3740   26.9320   31.8040 C   0  0  0  0  0  0  0  0  0  0  0  0
   38.2960   25.9070   31.7290 C   0  0  0  0  0  0  0  0  0  0  0  0
   39.4210   26.0490   30.9310 C   0  0  0  0  0  0  0  0  0  0  0  0
   40.0880   25.2100   30.9260 H   0  0  0  0  0  0  0  0  0  0  0  0
   39.5700   27.2350   30.2350 C   0  0  0  0  0  0  0  0  0  0  0  0
   40.4570   27.3220   29.6190 H   0  0  0  0  0  0  0  0  0  0  0  0
   38.6650   28.2610   30.3000 C   0  0  0  0  0  3  0  0  0  0  0  0
   37.5650   28.0920   31.0940 C   0  0  0  0  0  3  0  0  0  0  0  0
   36.2530   21.4300   32.1340 C   0  0  0  0  0  0  0  0  0  0  0  0
   36.8130   20.2550   32.5130 F   0  0  0  0  0  0  0  0  0  0  0  0
   36.2740   21.4460   30.7470 F   0  0  0  0  0  0  0  0  0  0  0  0
   34.9460   21.4640   32.5980 F   0  0  0  0  0  0  0  0  0  0  0  0
  1 12  1  0  0  0  0
  2  9  1  0  0  0  0
  2  1  1  0  0  0  0
  3  2  2  0  0  0  0
  4  3  1  0  0  0  0
  4  6  1  0  0  0  0
  5  4  2  0  0  0  0
  6  7  1  0  0  0  0
  7  1  1  0  0  0  0
  7  8  2  0  0  0  0
 10 15  1  0  0  0  0
 10 16  1  0  0  0  0
 11 10  2  0  0  0  0
 12 13  2  0  0  0  0
 12 11  1  0  0  0  0
 13 14  1  0  0  0  0
 14 18  1  0  0  0  0
 14 15  2  0  0  0  0
 17 11  1  0  0  0  0
 20 19  1  0  0  0  0
 21 20  1  0  0  0  0
 21  3  1  0  0  0  0
 22 21  2  0  0  0  0
 23 22  1  0  0  0  0
 24 26  2  0  0  0  0
 24 22  1  0  0  0  0
 25 24  1  0  0  0  0
 26 27  1  0  0  0  0
 27 20  2  0  0  0  0
 28 29  1  0  0  0  0
 28 31  1  0  0  0  0
 28  6  1  0  0  0  0
 30 28  1  0  0  0  0
M  END
>  <minimizedAffinity>
-5.73692846

$$$$

 OpenBabel03272505283D

 31 33  0  0  0  0  0  0  0  0999 V2000
   38.2490   24.5360   32.4150 N   0  0  0  0  0  0  0  0  0  0  0  0
   38.5220   24.5390   33.7480 C   0  0  0  0  0  0  0  0  0  0  0  0
   38.1110   23.5160   34.5880 C   0  0  0  0  0  0  0  0  0  0  0  0
   37.3870   22.4590   34.0010 C   0  0  0  0  0  0  0  0  0  0  0  0
   36.9950   21.5120   34.7220 O   0  0  0  0  0  0  0  0  0  0  0  0
   37.1170   22.4630   32.6670 N   0  0  0  0  0  0  0  0  0  0  0  0
   37.5680   23.5060   31.9620 C   0  0  0  0  0  0  0  0  0  0  0  0
   37.2990   23.4740   30.7400 O   0  0  0  0  0  0  0  0  0  0  0  0
   39.0820   25.3500   34.2230 H   0  0  0  0  0  0  0  0  0  0  0  0
   38.3670   27.7920   30.6350 C   0  0  0  0  0  0  0  0  0  0  0  0
   37.9450   26.7330   31.4460 C   0  0  0  0  0  0  0  0  0  0  0  0
   38.6780   25.5830   31.5940 C   0  0  0  0  0  0  0  0  0  0  0  0
   39.8420   25.5110   30.9150 N   0  0  0  0  0  0  0  0  0  0  0  0
   40.2930   26.5150   30.1150 C   0  0  0  0  0  0  0  0  0  0  0  0
   39.5570   27.6570   29.9750 N   0  0  0  0  0  0  0  0  0  0  0  0
   37.8470   28.7160   30.4750 H   0  0  0  0  0  0  0  0  0  0  0  0
   36.9990   26.9830   31.8820 H   0  0  0  0  0  0  0  0  0  0  0  0
   41.2380   26.3950   29.5970 H   0  0  0  0  0  0  0  0  0  0  0  0
   40.3550   22.2280   35.5070 F   0  0  0  0  0  0  0  0  0  0  0  0
   39.5490   22.8420   36.3920 C   0  0  0  0  0  0  0  0  0  0  0  0
   38.4010   23.5140   36.0210 C   0  0  0  0  0  0  0  0  0  0  0  0
   37.6170   24.1250   36.9890 C   0  0  0  0  0  0  0  0  0  0  0  0
   36.7440   24.6260   36.6200 H   0  0  0  0  0  0  0  0  0  0  0  0
   38.0300   24.0320   38.3050 C   0  0  0  0  0  0  0  0  0  0  0  0
   37.4010   24.5180   39.0410 H   0  0  0  0  0  0  0  0  0  0  0  0
   39.1660   23.3700   38.6880 C   0  0  0  0  0  3  0  0  0  0  0  0
   39.9190   22.7760   37.7130 C   0  0  0  0  0  3  0  0  0  0  0  0
   36.3780   21.3700   32.0600 C   0  0  0  0  0  0  0  0  0  0  0  0
   36.8060   20.1850   32.5610 F   0  0  0  0  0  0  0  0  0  0  0  0
   36.5600   21.3060   30.6870 F   0  0  0  0  0  0  0  0  0  0  0  0
   35.0310   21.5130   32.3640 F   0  0  0  0  0  0  0  0  0  0  0  0
  1  2  1  0  0  0  0
  2  9  1  0  0  0  0
  2  3  2  0  0  0  0
  3 21  1  0  0  0  0
  4  3  1  0  0  0  0
  4  5  2  0  0  0  0
  6  4  1  0  0  0  0
  7  1  1  0  0  0  0
  7  6  1  0  0  0  0
  8  7  2  0  0  0  0
 10 11  1  0  0  0  0
 11 12  2  0  0  0  0
 11 17  1  0  0  0  0
 12  1  1  0  0  0  0
 13 12  1  0  0  0  0
 14 13  2  0  0  0  0
 15 14  1  0  0  0  0
 15 10  2  0  0  0  0
 16 10  1  0  0  0  0
 18 14  1  0  0  0  0
 19 20  1  0  0  0  0
 20 27  1  0  0  0  0
 21 20  2  0  0  0  0
 21 22  1  0  0  0  0
 22 24  2  0  0  0  0
 23 22  1  0  0  0  0
 24 26  1  0  0  0  0
 24 25  1  0  0  0  0
 27 26  2  0  0  0  0
 28 31  1  0  0  0  0
 28 29  1  0  0  0  0
 28  6  1  0  0  0  0
 30 28  1  0  0  0  0
M  END
>  <minimizedAffinity>
-5.68480873

$$$$

 OpenBabel03272505283D

 31 33  0  0  0  0  0  0  0  0999 V2000
   38.2390   23.4090   34.1490 N   0  0  0  0  0  0  0  0  0  0  0  0
   38.4440   24.5810   33.4870 C   0  0  0  0  0  0  0  0  0  0  0  0
   37.8160   24.8700   32.2860 C   0  0  0  0  0  0  0  0  0  0  0  0
   36.9440   23.8910   31.7680 C   0  0  0  0  0  0  0  0  0  0  0  0
   36.3540   24.1090   30.6850 O   0  0  0  0  0  0  0  0  0  0  0  0
   36.7440   22.7210   32.4350 N   0  0  0  0  0  0  0  0  0  0  0  0
   37.4080   22.5600   33.5850 C   0  0  0  0  0  0  0  0  0  0  0  0
   37.1990   21.4720   34.1670 O   0  0  0  0  0  0  0  0  0  0  0  0
   39.1160   25.3540   33.8720 H   0  0  0  0  0  0  0  0  0  0  0  0
   40.8020   22.3200   36.6040 C   0  0  0  0  0  0  0  0  0  0  0  0
   40.1360   22.5790   35.4010 C   0  0  0  0  0  0  0  0  0  0  0  0
   38.8890   23.1470   35.3580 C   0  0  0  0  0  0  0  0  0  0  0  0
   38.3170   23.4520   36.5420 N   0  0  0  0  0  0  0  0  0  0  0  0
   38.9250   23.2180   37.7360 C   0  0  0  0  0  0  0  0  0  0  0  0
   40.1680   22.6530   37.7700 N   0  0  0  0  0  0  0  0  0  0  0  0
   41.7740   21.8800   36.7120 H   0  0  0  0  0  0  0  0  0  0  0  0
   40.7510   22.2540   34.5860 H   0  0  0  0  0  0  0  0  0  0  0  0
   38.4120   23.4870   38.6530 H   0  0  0  0  0  0  0  0  0  0  0  0
   36.2720   27.0560   32.9020 F   0  0  0  0  0  0  0  0  0  0  0  0
   37.2110   27.1720   31.9450 C   0  0  0  0  0  0  0  0  0  0  0  0
   38.0320   26.1270   31.5700 C   0  0  0  0  0  0  0  0  0  0  0  0
   38.9800   26.3180   30.5750 C   0  0  0  0  0  0  0  0  0  0  0  0
   39.5770   25.4600   30.3430 H   0  0  0  0  0  0  0  0  0  0  0  0
   39.0600   27.5710   29.9950 C   0  0  0  0  0  0  0  0  0  0  0  0
   39.8070   27.6940   29.2210 H   0  0  0  0  0  0  0  0  0  0  0  0
   38.2530   28.6160   30.3560 C   0  0  0  0  0  3  0  0  0  0  0  0
   37.3280   28.3990   31.3390 C   0  0  0  0  0  3  0  0  0  0  0  0
   35.8420   21.7150   31.9050 C   0  0  0  0  0  0  0  0  0  0  0  0
   36.4940   20.5350   31.7640 F   0  0  0  0  0  0  0  0  0  0  0  0
   35.3560   22.0480   30.6500 F   0  0  0  0  0  0  0  0  0  0  0  0
   34.7950   21.5330   32.7970 F   0  0  0  0  0  0  0  0  0  0  0  0
  1 12  1  0  0  0  0
  2  9  1  0  0  0  0
  2  1  1  0  0  0  0
  3  2  2  0  0  0  0
  4  3  1  0  0  0  0
  4  6  1  0  0  0  0
  5  4  2  0  0  0  0
  6  7  1  0  0  0  0
  7  1  1  0  0  0  0
  7  8  2  0  0  0  0
 10 16  1  0  0  0  0
 10 15  1  0  0  0  0
 11 10  2  0  0  0  0
 12 11  1  0  0  0  0
 12 13  2  0  0  0  0
 13 14  1  0  0  0  0
 14 15  2  0  0  0  0
 14 18  1  0  0  0  0
 17 11  1  0  0  0  0
 20 19  1  0  0  0  0
 21 20  1  0  0  0  0
 21  3  1  0  0  0  0
 22 21  2  0  0  0  0
 23 22  1  0  0  0  0
 24 26  2  0  0  0  0
 24 22  1  0  0  0  0
 25 24  1  0  0  0  0
 26 27  1  0  0  0  0
 27 20  2  0  0  0  0
 28  6  1  0  0  0  0
 28 31  1  0  0  0  0
 29 28  1  0  0  0  0
 30 28  1  0  0  0  0
M  END
>  <minimizedAffinity>
-5.65813923

$$$$

 OpenBabel03272505283D

 31 33  0  0  0  0  0  0  0  0999 V2000
   37.6010   22.9250   32.5180 N   0  0  0  0  0  0  0  0  0  0  0  0
   37.8080   22.7890   33.8560 C   0  0  0  0  0  0  0  0  0  0  0  0
   38.2110   23.8500   34.6520 C   0  0  0  0  0  0  0  0  0  0  0  0
   38.4000   25.0920   34.0140 C   0  0  0  0  0  0  0  0  0  0  0  0
   38.7640   26.0800   34.6950 O   0  0  0  0  0  0  0  0  0  0  0  0
   38.1900   25.2210   32.6760 N   0  0  0  0  0  0  0  0  0  0  0  0
   37.8030   24.1240   32.0160 C   0  0  0  0  0  0  0  0  0  0  0  0
   37.6220   24.2820   30.7880 O   0  0  0  0  0  0  0  0  0  0  0  0
   37.6670   21.8340   34.3700 H   0  0  0  0  0  0  0  0  0  0  0  0
   35.4790   20.3000   30.9720 C   0  0  0  0  0  0  0  0  0  0  0  0
   35.9000   21.3840   31.7510 C   0  0  0  0  0  0  0  0  0  0  0  0
   37.1950   21.8350   31.7420 C   0  0  0  0  0  0  0  0  0  0  0  0
   38.0640   21.1830   30.9410 N   0  0  0  0  0  0  0  0  0  0  0  0
   37.7000   20.1250   30.1680 C   0  0  0  0  0  0  0  0  0  0  0  0
   36.4090   19.6820   30.1800 N   0  0  0  0  0  0  0  0  0  0  0  0
   34.4870   19.8950   30.9290 H   0  0  0  0  0  0  0  0  0  0  0  0
   35.0690   21.7490   32.3180 H   0  0  0  0  0  0  0  0  0  0  0  0
   38.4470   19.6430   29.5450 H   0  0  0  0  0  0  0  0  0  0  0  0
   40.5050   22.6340   35.5450 F   0  0  0  0  0  0  0  0  0  0  0  0
   39.6160   23.0860   36.4470 C   0  0  0  0  0  0  0  0  0  0  0  0
   38.4360   23.7100   36.0900 C   0  0  0  0  0  0  0  0  0  0  0  0
   37.5640   24.1510   37.0750 C   0  0  0  0  0  0  0  0  0  0  0  0
   36.6720   24.6240   36.7170 H   0  0  0  0  0  0  0  0  0  0  0  0
   37.9250   23.9420   38.3940 C   0  0  0  0  0  0  0  0  0  0  0  0
   37.2270   24.2960   39.1430 H   0  0  0  0  0  0  0  0  0  0  0  0
   39.0900   23.3260   38.7630 C   0  0  0  0  0  3  0  0  0  0  0  0
   39.9300   22.9010   37.7710 C   0  0  0  0  0  3  0  0  0  0  0  0
   38.3790   26.5020   32.0190 C   0  0  0  0  0  0  0  0  0  0  0  0
   38.9050   26.3180   30.7830 F   0  0  0  0  0  0  0  0  0  0  0  0
   39.2630   27.3230   32.7040 F   0  0  0  0  0  0  0  0  0  0  0  0
   37.1460   27.1260   31.8830 F   0  0  0  0  0  0  0  0  0  0  0  0
  1  2  1  0  0  0  0
  2  9  1  0  0  0  0
  2  3  2  0  0  0  0
  3 21  1  0  0  0  0
  4  3  1  0  0  0  0
  4  5  2  0  0  0  0
  6  4  1  0  0  0  0
  7  1  1  0  0  0  0
  7  6  1  0  0  0  0
  8  7  2  0  0  0  0
 10 11  1  0  0  0  0
 11 17  1  0  0  0  0
 12 11  2  0  0  0  0
 12  1  1  0  0  0  0
 13 12  1  0  0  0  0
 14 15  1  0  0  0  0
 14 13  2  0  0  0  0
 15 10  2  0  0  0  0
 16 10  1  0  0  0  0
 18 14  1  0  0  0  0
 19 20  1  0  0  0  0
 20 27  1  0  0  0  0
 21 20  2  0  0  0  0
 21 22  1  0  0  0  0
 22 24  2  0  0  0  0
 23 22  1  0  0  0  0
 24 26  1  0  0  0  0
 24 25  1  0  0  0  0
 27 26  2  0  0  0  0
 28  6  1  0  0  0  0
 28 30  1  0  0  0  0
 29 28  1  0  0  0  0
 31 28  1  0  0  0  0
M  END
>  <minimizedAffinity>
-5.65050173

$$$$
