
 OpenBabel03272507153D

 40 44  0  0  0  0  0  0  0  0999 V2000
   37.4790   26.4870   33.9460 C   0  0  0  0  0  0  0  0  0  0  0  0
   37.4840   27.0030   35.1940 C   0  0  0  0  0  0  0  0  0  0  0  0
   38.4530   26.3040   35.9210 C   0  0  0  0  0  0  0  0  0  0  0  0
   38.9950   25.3690   35.0300 C   0  0  0  0  0  0  0  0  0  0  0  0
   38.3770   25.5350   33.8960 O   0  0  0  0  0  0  0  0  0  0  0  0
   36.8620   27.8160   35.5980 H   0  0  0  0  0  0  0  0  0  0  0  0
   38.6640   26.5180   36.9520 H   0  0  0  0  0  0  0  0  0  0  0  0
   41.3000   24.4570   34.8430 C   0  0  0  0  0  0  0  0  0  0  0  0
   40.0500   24.4380   35.4140 C   0  0  0  0  0  0  0  0  0  0  0  0
   39.7240   23.5340   36.3930 C   0  0  0  0  0  0  0  0  0  0  0  0
   40.6840   22.6200   36.8080 C   0  0  0  0  0  0  0  0  0  0  0  0
   40.6560   21.6460   37.7200 N   0  0  0  0  0  0  0  0  0  0  0  0
   41.8570   21.0640   37.7240 N   0  0  0  0  0  0  0  0  0  0  0  0
   42.6480   21.6740   36.8100 C   0  0  0  0  0  0  0  0  0  0  0  0
   41.9320   22.6790   36.2010 C   0  0  0  0  0  0  0  0  0  0  0  0
   42.2730   23.5820   35.2170 C   0  0  0  0  0  0  0  0  0  0  0  0
   41.4670   25.2030   34.0820 H   0  0  0  0  0  0  0  0  0  0  0  0
   38.7500   23.4500   36.9020 H   0  0  0  0  0  0  0  0  0  0  0  0
   39.8460   21.3670   38.3350 H   0  0  0  0  0  0  0  0  0  0  0  0
   43.6910   21.4470   36.5580 H   0  0  0  0  0  0  0  0  0  0  0  0
   43.2600   23.5960   34.7670 H   0  0  0  0  0  0  0  0  0  0  0  0
   36.5880   26.9730   32.9060 C   0  0  0  0  0  0  0  0  0  0  0  0
   36.1590   26.1630   32.0400 O   0  0  0  0  0  0  0  0  0  0  0  0
   36.2400   28.3710   32.9230 C   0  0  0  0  0  0  0  0  0  0  0  0
   36.6040   29.1330   31.8260 C   0  0  0  0  0  0  0  0  0  0  0  0
   36.2800   30.4880   31.8170 C   0  0  0  0  0  0  0  0  0  0  0  0
   35.6210   30.9850   32.8910 N   0  0  0  0  0  0  0  0  0  0  0  0
   35.2760   30.2310   33.9460 C   0  0  0  0  0  0  0  0  0  0  0  0
   35.5870   28.9350   33.9530 N   0  0  0  0  0  0  0  0  0  0  0  0
   37.1310   28.7780   30.9500 H   0  0  0  0  0  0  0  0  0  0  0  0
   36.5350   31.1370   30.9940 H   0  0  0  0  0  0  0  0  0  0  0  0
   36.6150   31.6170   35.8810 F   0  0  0  0  0  0  0  0  0  0  0  0
   35.2670   31.5190   36.0400 C   0  0  0  0  0  0  0  0  0  0  0  0
   34.5660   30.8240   35.0750 C   0  0  0  0  0  0  0  0  0  0  0  0
   33.1990   30.7010   35.1980 C   0  0  0  0  0  0  0  0  0  0  0  0
   32.6010   30.1680   34.4740 H   0  0  0  0  0  0  0  0  0  0  0  0
   32.5440   31.2670   36.2730 C   0  0  0  0  0  0  0  0  0  0  0  0
   31.4920   31.2350   36.4690 H   0  0  0  0  0  0  0  0  0  0  0  0
   33.3000   31.9610   37.2220 C   0  0  0  0  0  3  0  0  0  0  0  0
   34.6850   32.1160   37.1470 C   0  0  0  0  0  3  0  0  0  0  0  0
  1  2  2  0  0  0  0
  2  6  1  0  0  0  0
  2  3  1  0  0  0  0
  3  7  1  0  0  0  0
  4  9  1  0  0  0  0
  4  3  2  0  0  0  0
  5  1  1  0  0  0  0
  5  4  1  0  0  0  0
  8 16  2  0  0  0  0
  8  9  1  0  0  0  0
  9 10  2  0  0  0  0
 10 11  1  0  0  0  0
 10 18  1  0  0  0  0
 11 12  1  0  0  0  0
 12 13  1  0  0  0  0
 12 19  1  0  0  0  0
 14 13  2  0  0  0  0
 15 11  2  0  0  0  0
 15 14  1  0  0  0  0
 16 15  1  0  0  0  0
 17  8  1  0  0  0  0
 20 14  1  0  0  0  0
 21 16  1  0  0  0  0
 22 24  1  0  0  0  0
 22  1  1  0  0  0  0
 23 22  2  0  0  0  0
 24 29  1  0  0  0  0
 25 24  2  0  0  0  0
 26 25  1  0  0  0  0
 26 27  2  0  0  0  0
 27 28  1  0  0  0  0
 28 29  2  0  0  0  0
 28 34  1  0  0  0  0
 30 25  1  0  0  0  0
 31 26  1  0  0  0  0
 32 33  1  0  0  0  0
 33 40  1  0  0  0  0
 34 35  1  0  0  0  0
 34 33  2  0  0  0  0
 35 37  2  0  0  0  0
 36 35  1  0  0  0  0
 37 38  1  0  0  0  0
 37 39  1  0  0  0  0
 40 39  2  0  0  0  0
M  END
>  <minimizedAffinity>
-7.42654467

$$$$

 OpenBabel03272507153D

 40 44  0  0  0  0  0  0  0  0999 V2000
   37.4410   26.6230   34.1180 C   0  0  0  0  0  0  0  0  0  0  0  0
   37.7980   27.4400   35.1320 C   0  0  0  0  0  0  0  0  0  0  0  0
   38.5790   26.6820   36.0110 C   0  0  0  0  0  0  0  0  0  0  0  0
   38.6480   25.4010   35.4500 C   0  0  0  0  0  0  0  0  0  0  0  0
   37.9590   25.4420   34.3440 O   0  0  0  0  0  0  0  0  0  0  0  0
   37.5440   28.5010   35.2750 H   0  0  0  0  0  0  0  0  0  0  0  0
   38.9960   27.0950   36.9100 H   0  0  0  0  0  0  0  0  0  0  0  0
   38.9540   23.6900   37.2270 C   0  0  0  0  0  0  0  0  0  0  0  0
   39.3820   24.3080   36.0760 C   0  0  0  0  0  0  0  0  0  0  0  0
   40.5360   23.9210   35.4420 C   0  0  0  0  0  0  0  0  0  0  0  0
   41.2830   22.8820   35.9850 C   0  0  0  0  0  0  0  0  0  0  0  0
   42.4210   22.3020   35.5980 N   0  0  0  0  0  0  0  0  0  0  0  0
   42.7050   21.3450   36.4820 N   0  0  0  0  0  0  0  0  0  0  0  0
   41.7400   21.3180   37.4320 C   0  0  0  0  0  0  0  0  0  0  0  0
   40.8090   22.2910   37.1490 C   0  0  0  0  0  0  0  0  0  0  0  0
   39.6520   22.6690   37.7940 C   0  0  0  0  0  0  0  0  0  0  0  0
   38.0370   24.0600   37.6550 H   0  0  0  0  0  0  0  0  0  0  0  0
   40.9500   24.3600   34.5200 H   0  0  0  0  0  0  0  0  0  0  0  0
   43.0060   22.5410   34.7530 H   0  0  0  0  0  0  0  0  0  0  0  0
   41.6660   20.6550   38.3030 H   0  0  0  0  0  0  0  0  0  0  0  0
   39.3150   22.1810   38.7040 H   0  0  0  0  0  0  0  0  0  0  0  0
   36.6170   27.0730   33.0090 C   0  0  0  0  0  0  0  0  0  0  0  0
   36.2840   26.2450   32.1180 O   0  0  0  0  0  0  0  0  0  0  0  0
   36.2220   28.4580   32.9870 C   0  0  0  0  0  0  0  0  0  0  0  0
   36.5220   29.1920   31.8530 C   0  0  0  0  0  0  0  0  0  0  0  0
   36.1520   30.5330   31.8070 C   0  0  0  0  0  0  0  0  0  0  0  0
   35.5130   31.0470   32.8850 N   0  0  0  0  0  0  0  0  0  0  0  0
   35.2280   30.3220   33.9770 C   0  0  0  0  0  0  0  0  0  0  0  0
   35.5850   29.0380   34.0190 N   0  0  0  0  0  0  0  0  0  0  0  0
   37.0320   28.8220   30.9720 H   0  0  0  0  0  0  0  0  0  0  0  0
   36.3570   31.1600   30.9530 H   0  0  0  0  0  0  0  0  0  0  0  0
   36.6070   31.6750   35.9080 F   0  0  0  0  0  0  0  0  0  0  0  0
   35.2570   31.6090   36.0710 C   0  0  0  0  0  0  0  0  0  0  0  0
   34.5370   30.9310   35.1080 C   0  0  0  0  0  0  0  0  0  0  0  0
   33.1670   30.8420   35.2350 C   0  0  0  0  0  0  0  0  0  0  0  0
   32.5550   30.3230   34.5130 H   0  0  0  0  0  0  0  0  0  0  0  0
   32.5300   31.4240   36.3120 C   0  0  0  0  0  0  0  0  0  0  0  0
   31.4780   31.4170   36.5110 H   0  0  0  0  0  0  0  0  0  0  0  0
   33.3050   32.0990   37.2580 C   0  0  0  0  0  3  0  0  0  0  0  0
   34.6930   32.2210   37.1790 C   0  0  0  0  0  3  0  0  0  0  0  0
  1  5  1  0  0  0  0
  1  2  2  0  0  0  0
  2  6  1  0  0  0  0
  2  3  1  0  0  0  0
  3  7  1  0  0  0  0
  4  3  2  0  0  0  0
  4  9  1  0  0  0  0
  5  4  1  0  0  0  0
  8 17  1  0  0  0  0
  8 16  1  0  0  0  0
  9  8  2  0  0  0  0
 10 11  2  0  0  0  0
 10  9  1  0  0  0  0
 11 15  1  0  0  0  0
 12 11  1  0  0  0  0
 12 13  1  0  0  0  0
 13 14  2  0  0  0  0
 14 20  1  0  0  0  0
 15 14  1  0  0  0  0
 15 16  2  0  0  0  0
 16 21  1  0  0  0  0
 18 10  1  0  0  0  0
 19 12  1  0  0  0  0
 22  1  1  0  0  0  0
 23 22  2  0  0  0  0
 24 22  1  0  0  0  0
 24 29  1  0  0  0  0
 25 24  2  0  0  0  0
 26 25  1  0  0  0  0
 26 27  2  0  0  0  0
 27 28  1  0  0  0  0
 28 29  2  0  0  0  0
 28 34  1  0  0  0  0
 30 25  1  0  0  0  0
 31 26  1  0  0  0  0
 32 33  1  0  0  0  0
 33 40  1  0  0  0  0
 34 35  1  0  0  0  0
 34 33  2  0  0  0  0
 35 37  2  0  0  0  0
 36 35  1  0  0  0  0
 37 38  1  0  0  0  0
 37 39  1  0  0  0  0
 40 39  2  0  0  0  0
M  END
>  <minimizedAffinity>
-7.27572966

$$$$

 OpenBabel03272507153D

 40 44  0  0  0  0  0  0  0  0999 V2000
   37.2690   27.7910   32.4660 C   0  0  0  0  0  0  0  0  0  0  0  0
   36.6590   28.4400   31.4510 C   0  0  0  0  0  0  0  0  0  0  0  0
   35.7120   29.2950   32.0230 C   0  0  0  0  0  0  0  0  0  0  0  0
   35.8120   29.1010   33.4070 C   0  0  0  0  0  0  0  0  0  0  0  0
   36.7430   28.2080   33.5900 O   0  0  0  0  0  0  0  0  0  0  0  0
   36.8440   28.3420   30.3710 H   0  0  0  0  0  0  0  0  0  0  0  0
   35.0820   29.9330   31.4320 H   0  0  0  0  0  0  0  0  0  0  0  0
   33.6370   29.5660   34.5160 C   0  0  0  0  0  0  0  0  0  0  0  0
   34.9790   29.8210   34.3630 C   0  0  0  0  0  0  0  0  0  0  0  0
   35.6170   30.7750   35.1140 C   0  0  0  0  0  0  0  0  0  0  0  0
   34.8810   31.4960   36.0470 C   0  0  0  0  0  0  0  0  0  0  0  0
   35.2230   32.4630   36.9010 N   0  0  0  0  0  0  0  0  0  0  0  0
   34.1260   32.8110   37.5750 N   0  0  0  0  0  0  0  0  0  0  0  0
   33.0850   32.0580   37.1450 C   0  0  0  0  0  0  0  0  0  0  0  0
   33.5290   31.2030   36.1640 C   0  0  0  0  0  0  0  0  0  0  0  0
   32.8760   30.2470   35.4160 C   0  0  0  0  0  0  0  0  0  0  0  0
   33.2200   28.7990   33.8830 H   0  0  0  0  0  0  0  0  0  0  0  0
   36.6850   31.0420   35.0560 H   0  0  0  0  0  0  0  0  0  0  0  0
   36.1780   32.8900   37.0360 H   0  0  0  0  0  0  0  0  0  0  0  0
   32.0430   32.0870   37.4870 H   0  0  0  0  0  0  0  0  0  0  0  0
   31.8160   30.0470   35.5370 H   0  0  0  0  0  0  0  0  0  0  0  0
   38.3200   26.8130   32.2450 C   0  0  0  0  0  0  0  0  0  0  0  0
   39.3280   27.1420   31.5630 O   0  0  0  0  0  0  0  0  0  0  0  0
   38.1500   25.5050   32.8240 C   0  0  0  0  0  0  0  0  0  0  0  0
   37.7230   24.4870   31.9890 C   0  0  0  0  0  0  0  0  0  0  0  0
   37.5490   23.2130   32.5240 C   0  0  0  0  0  0  0  0  0  0  0  0
   37.8120   23.0420   33.8420 N   0  0  0  0  0  0  0  0  0  0  0  0
   38.2260   24.0400   34.6370 C   0  0  0  0  0  0  0  0  0  0  0  0
   38.3910   25.2590   34.1230 N   0  0  0  0  0  0  0  0  0  0  0  0
   37.5010   24.5790   30.9340 H   0  0  0  0  0  0  0  0  0  0  0  0
   37.2190   22.3770   31.9280 H   0  0  0  0  0  0  0  0  0  0  0  0
   40.4400   22.6510   35.4310 F   0  0  0  0  0  0  0  0  0  0  0  0
   39.6200   23.0900   36.4250 C   0  0  0  0  0  0  0  0  0  0  0  0
   38.4940   23.7950   36.0500 C   0  0  0  0  0  0  0  0  0  0  0  0
   37.6380   24.2580   37.0260 C   0  0  0  0  0  0  0  0  0  0  0  0
   36.7430   24.8140   36.7900 H   0  0  0  0  0  0  0  0  0  0  0  0
   37.9060   24.0160   38.3580 C   0  0  0  0  0  0  0  0  0  0  0  0
   37.3150   24.3260   39.1940 H   0  0  0  0  0  0  0  0  0  0  0  0
   39.0600   23.2980   38.6840 C   0  0  0  0  0  3  0  0  0  0  0  0
   39.9610   22.8070   37.7380 C   0  0  0  0  0  3  0  0  0  0  0  0
  1  5  1  0  0  0  0
  2  3  1  0  0  0  0
  2  1  2  0  0  0  0
  3  4  2  0  0  0  0
  4  5  1  0  0  0  0
  4  9  1  0  0  0  0
  6  2  1  0  0  0  0
  7  3  1  0  0  0  0
  8 16  1  0  0  0  0
  9  8  2  0  0  0  0
  9 10  1  0  0  0  0
 10 11  2  0  0  0  0
 11 15  1  0  0  0  0
 11 12  1  0  0  0  0
 12 19  1  0  0  0  0
 12 13  1  0  0  0  0
 14 20  1  0  0  0  0
 14 13  2  0  0  0  0
 15 14  1  0  0  0  0
 16 21  1  0  0  0  0
 16 15  2  0  0  0  0
 17  8  1  0  0  0  0
 18 10  1  0  0  0  0
 22  1  1  0  0  0  0
 22 24  1  0  0  0  0
 23 22  2  0  0  0  0
 24 29  1  0  0  0  0
 25 26  1  0  0  0  0
 25 24  2  0  0  0  0
 26 27  2  0  0  0  0
 27 28  1  0  0  0  0
 28 34  1  0  0  0  0
 29 28  2  0  0  0  0
 30 25  1  0  0  0  0
 31 26  1  0  0  0  0
 32 33  1  0  0  0  0
 33 40  1  0  0  0  0
 34 33  2  0  0  0  0
 34 35  1  0  0  0  0
 35 37  2  0  0  0  0
 36 35  1  0  0  0  0
 37 39  1  0  0  0  0
 37 38  1  0  0  0  0
 40 39  2  0  0  0  0
M  END
>  <minimizedAffinity>
-7.26943874

$$$$

 OpenBabel03272507153D

 40 44  0  0  0  0  0  0  0  0999 V2000
   36.9570   27.5620   32.5510 C   0  0  0  0  0  0  0  0  0  0  0  0
   35.9420   27.8660   31.7150 C   0  0  0  0  0  0  0  0  0  0  0  0
   35.1390   28.8050   32.3710 C   0  0  0  0  0  0  0  0  0  0  0  0
   35.7440   29.0180   33.6160 C   0  0  0  0  0  0  0  0  0  0  0  0
   36.8020   28.2570   33.6500 O   0  0  0  0  0  0  0  0  0  0  0  0
   35.7500   27.4730   30.7050 H   0  0  0  0  0  0  0  0  0  0  0  0
   34.2560   29.2180   31.9230 H   0  0  0  0  0  0  0  0  0  0  0  0
   35.9880   30.8230   35.3070 C   0  0  0  0  0  0  0  0  0  0  0  0
   35.2010   29.9410   34.6050 C   0  0  0  0  0  0  0  0  0  0  0  0
   33.8440   29.8840   34.7960 C   0  0  0  0  0  0  0  0  0  0  0  0
   33.2620   30.7400   35.7230 C   0  0  0  0  0  0  0  0  0  0  0  0
   31.9960   30.9090   36.1120 N   0  0  0  0  0  0  0  0  0  0  0  0
   31.9840   31.8710   37.0360 N   0  0  0  0  0  0  0  0  0  0  0  0
   33.2490   32.3140   37.2310 C   0  0  0  0  0  0  0  0  0  0  0  0
   34.0980   31.6130   36.4070 C   0  0  0  0  0  0  0  0  0  0  0  0
   35.4630   31.6800   36.2240 C   0  0  0  0  0  0  0  0  0  0  0  0
   37.0440   30.7980   35.0910 H   0  0  0  0  0  0  0  0  0  0  0  0
   33.1420   29.2110   34.2780 H   0  0  0  0  0  0  0  0  0  0  0  0
   31.1450   30.3890   35.7680 H   0  0  0  0  0  0  0  0  0  0  0  0
   33.5940   33.0960   37.9180 H   0  0  0  0  0  0  0  0  0  0  0  0
   36.0830   32.3760   36.7790 H   0  0  0  0  0  0  0  0  0  0  0  0
   37.9970   26.6100   32.2000 C   0  0  0  0  0  0  0  0  0  0  0  0
   38.9160   26.9700   31.4140 O   0  0  0  0  0  0  0  0  0  0  0  0
   37.9200   25.2910   32.7750 C   0  0  0  0  0  0  0  0  0  0  0  0
   37.4030   24.2790   31.9860 C   0  0  0  0  0  0  0  0  0  0  0  0
   37.3160   22.9950   32.5190 C   0  0  0  0  0  0  0  0  0  0  0  0
   37.7490   22.8100   33.7890 N   0  0  0  0  0  0  0  0  0  0  0  0
   38.2490   23.8030   34.5390 C   0  0  0  0  0  0  0  0  0  0  0  0
   38.3290   25.0310   34.0280 N   0  0  0  0  0  0  0  0  0  0  0  0
   37.0460   24.3830   30.9700 H   0  0  0  0  0  0  0  0  0  0  0  0
   36.9230   22.1630   31.9570 H   0  0  0  0  0  0  0  0  0  0  0  0
   36.8270   24.7060   36.6900 F   0  0  0  0  0  0  0  0  0  0  0  0
   37.9620   24.0100   36.9720 C   0  0  0  0  0  0  0  0  0  0  0  0
   38.6990   23.5420   35.9030 C   0  0  0  0  0  0  0  0  0  0  0  0
   39.8550   22.8320   36.1450 C   0  0  0  0  0  0  0  0  0  0  0  0
   40.4700   22.4440   35.3480 H   0  0  0  0  0  0  0  0  0  0  0  0
   40.2660   22.5950   37.4420 C   0  0  0  0  0  0  0  0  0  0  0  0
   41.1420   22.0600   37.7450 H   0  0  0  0  0  0  0  0  0  0  0  0
   39.4840   23.0900   38.4880 C   0  0  0  0  0  3  0  0  0  0  0  0
   38.3050   23.8140   38.3000 C   0  0  0  0  0  3  0  0  0  0  0  0
  1  5  1  0  0  0  0
  2  3  1  0  0  0  0
  2  1  2  0  0  0  0
  3  4  2  0  0  0  0
  4  5  1  0  0  0  0
  4  9  1  0  0  0  0
  6  2  1  0  0  0  0
  7  3  1  0  0  0  0
  8 16  1  0  0  0  0
  9 10  1  0  0  0  0
  9  8  2  0  0  0  0
 10 11  2  0  0  0  0
 11 12  1  0  0  0  0
 11 15  1  0  0  0  0
 12 13  1  0  0  0  0
 13 14  2  0  0  0  0
 14 20  1  0  0  0  0
 15 14  1  0  0  0  0
 16 15  2  0  0  0  0
 16 21  1  0  0  0  0
 17  8  1  0  0  0  0
 18 10  1  0  0  0  0
 19 12  1  0  0  0  0
 22  1  1  0  0  0  0
 22 24  1  0  0  0  0
 23 22  2  0  0  0  0
 24 29  1  0  0  0  0
 25 26  1  0  0  0  0
 25 24  2  0  0  0  0
 26 27  2  0  0  0  0
 27 28  1  0  0  0  0
 28 34  1  0  0  0  0
 29 28  2  0  0  0  0
 30 25  1  0  0  0  0
 31 26  1  0  0  0  0
 32 33  1  0  0  0  0
 33 40  1  0  0  0  0
 34 35  1  0  0  0  0
 34 33  2  0  0  0  0
 35 37  2  0  0  0  0
 36 35  1  0  0  0  0
 37 38  1  0  0  0  0
 37 39  1  0  0  0  0
 40 39  2  0  0  0  0
M  END
>  <minimizedAffinity>
-6.99896669

$$$$

 OpenBabel03272507153D

 40 44  0  0  0  0  0  0  0  0999 V2000
   37.1950   28.0190   32.0100 C   0  0  0  0  0  0  0  0  0  0  0  0
   36.5580   28.7350   31.0580 C   0  0  0  0  0  0  0  0  0  0  0  0
   35.6190   29.5390   31.7110 C   0  0  0  0  0  0  0  0  0  0  0  0
   35.7510   29.2470   33.0740 C   0  0  0  0  0  0  0  0  0  0  0  0
   36.6910   28.3500   33.1720 O   0  0  0  0  0  0  0  0  0  0  0  0
   36.7200   28.7160   29.9700 H   0  0  0  0  0  0  0  0  0  0  0  0
   34.9730   30.2130   31.1810 H   0  0  0  0  0  0  0  0  0  0  0  0
   33.5880   29.6510   34.2300 C   0  0  0  0  0  0  0  0  0  0  0  0
   34.9350   29.8900   34.0980 C   0  0  0  0  0  0  0  0  0  0  0  0
   35.5950   30.7540   34.9340 C   0  0  0  0  0  0  0  0  0  0  0  0
   34.8760   31.3980   35.9340 C   0  0  0  0  0  0  0  0  0  0  0  0
   35.2410   32.2700   36.8760 N   0  0  0  0  0  0  0  0  0  0  0  0
   34.1520   32.5760   37.5840 N   0  0  0  0  0  0  0  0  0  0  0  0
   33.0940   31.8910   37.0880 C   0  0  0  0  0  0  0  0  0  0  0  0
   33.5180   31.1240   36.0280 C   0  0  0  0  0  0  0  0  0  0  0  0
   32.8440   30.2590   35.1940 C   0  0  0  0  0  0  0  0  0  0  0  0
   33.1540   28.9570   33.5280 H   0  0  0  0  0  0  0  0  0  0  0  0
   36.6680   31.0020   34.8990 H   0  0  0  0  0  0  0  0  0  0  0  0
   36.2050   32.6620   37.0480 H   0  0  0  0  0  0  0  0  0  0  0  0
   32.0540   31.9090   37.4340 H   0  0  0  0  0  0  0  0  0  0  0  0
   31.7800   30.0710   35.2990 H   0  0  0  0  0  0  0  0  0  0  0  0
   38.2460   27.0670   31.6960 C   0  0  0  0  0  0  0  0  0  0  0  0
   38.2920   26.5650   30.5400 O   0  0  0  0  0  0  0  0  0  0  0  0
   39.1900   26.7440   32.7360 C   0  0  0  0  0  0  0  0  0  0  0  0
   40.4510   27.3080   32.6520 C   0  0  0  0  0  0  0  0  0  0  0  0
   41.3820   27.0120   33.6440 C   0  0  0  0  0  0  0  0  0  0  0  0
   40.9960   26.1810   34.6420 N   0  0  0  0  0  0  0  0  0  0  0  0
   39.7700   25.6430   34.7080 C   0  0  0  0  0  0  0  0  0  0  0  0
   38.8800   25.9280   33.7570 N   0  0  0  0  0  0  0  0  0  0  0  0
   40.8000   27.9740   31.8740 H   0  0  0  0  0  0  0  0  0  0  0  0
   42.3810   27.4180   33.6370 H   0  0  0  0  0  0  0  0  0  0  0  0
   37.8100   26.3210   36.4860 F   0  0  0  0  0  0  0  0  0  0  0  0
   38.4170   25.1220   36.6930 C   0  0  0  0  0  0  0  0  0  0  0  0
   39.4120   24.7550   35.8090 C   0  0  0  0  0  0  0  0  0  0  0  0
   40.0520   23.5470   35.9830 C   0  0  0  0  0  0  0  0  0  0  0  0
   40.8370   23.2100   35.3220 H   0  0  0  0  0  0  0  0  0  0  0  0
   39.7000   22.7190   37.0310 C   0  0  0  0  0  0  0  0  0  0  0  0
   40.1280   21.7650   37.2610 H   0  0  0  0  0  0  0  0  0  0  0  0
   38.6870   23.1370   37.8970 C   0  0  0  0  0  3  0  0  0  0  0  0
   38.0060   24.3480   37.7670 C   0  0  0  0  0  3  0  0  0  0  0  0
  1  5  1  0  0  0  0
  2  3  1  0  0  0  0
  2  1  2  0  0  0  0
  3  4  2  0  0  0  0
  4  5  1  0  0  0  0
  4  9  1  0  0  0  0
  6  2  1  0  0  0  0
  7  3  1  0  0  0  0
  8 16  1  0  0  0  0
  9  8  2  0  0  0  0
  9 10  1  0  0  0  0
 10 11  2  0  0  0  0
 11 15  1  0  0  0  0
 11 12  1  0  0  0  0
 12 19  1  0  0  0  0
 12 13  1  0  0  0  0
 14 20  1  0  0  0  0
 14 13  2  0  0  0  0
 15 14  1  0  0  0  0
 16 21  1  0  0  0  0
 16 15  2  0  0  0  0
 17  8  1  0  0  0  0
 18 10  1  0  0  0  0
 22  1  1  0  0  0  0
 22 24  1  0  0  0  0
 23 22  2  0  0  0  0
 24 29  1  0  0  0  0
 25 24  2  0  0  0  0
 25 26  1  0  0  0  0
 26 27  2  0  0  0  0
 27 28  1  0  0  0  0
 28 34  1  0  0  0  0
 29 28  2  0  0  0  0
 30 25  1  0  0  0  0
 31 26  1  0  0  0  0
 32 33  1  0  0  0  0
 33 40  1  0  0  0  0
 34 35  1  0  0  0  0
 34 33  2  0  0  0  0
 35 37  2  0  0  0  0
 36 35  1  0  0  0  0
 37 38  1  0  0  0  0
 37 39  1  0  0  0  0
 40 39  2  0  0  0  0
M  END
>  <minimizedAffinity>
-6.93378735

$$$$

 OpenBabel03272507153D

 40 44  0  0  0  0  0  0  0  0999 V2000
   36.7800   27.7780   33.0150 C   0  0  0  0  0  0  0  0  0  0  0  0
   36.7240   28.7230   32.0520 C   0  0  0  0  0  0  0  0  0  0  0  0
   36.1140   29.8470   32.6180 C   0  0  0  0  0  0  0  0  0  0  0  0
   35.8270   29.4970   33.9430 C   0  0  0  0  0  0  0  0  0  0  0  0
   36.2450   28.2730   34.1030 O   0  0  0  0  0  0  0  0  0  0  0  0
   37.0780   28.6580   31.0120 H   0  0  0  0  0  0  0  0  0  0  0  0
   35.9450   30.7500   32.0620 H   0  0  0  0  0  0  0  0  0  0  0  0
   35.8890   31.2860   35.6670 C   0  0  0  0  0  0  0  0  0  0  0  0
   35.1810   30.4140   34.8750 C   0  0  0  0  0  0  0  0  0  0  0  0
   33.8110   30.3610   34.9150 C   0  0  0  0  0  0  0  0  0  0  0  0
   33.1330   31.2100   35.7800 C   0  0  0  0  0  0  0  0  0  0  0  0
   31.8320   31.3800   36.0280 N   0  0  0  0  0  0  0  0  0  0  0  0
   31.7210   32.3340   36.9550 N   0  0  0  0  0  0  0  0  0  0  0  0
   32.9580   32.7700   37.2920 C   0  0  0  0  0  0  0  0  0  0  0  0
   33.8910   32.0730   36.5600 C   0  0  0  0  0  0  0  0  0  0  0  0
   35.2670   32.1370   36.5290 C   0  0  0  0  0  0  0  0  0  0  0  0
   36.9620   31.2590   35.5690 H   0  0  0  0  0  0  0  0  0  0  0  0
   33.1680   29.6940   34.3170 H   0  0  0  0  0  0  0  0  0  0  0  0
   31.0230   30.8670   35.5880 H   0  0  0  0  0  0  0  0  0  0  0  0
   33.2270   33.5450   38.0200 H   0  0  0  0  0  0  0  0  0  0  0  0
   35.8250   32.8260   37.1560 H   0  0  0  0  0  0  0  0  0  0  0  0
   37.3560   26.4640   32.7840 C   0  0  0  0  0  0  0  0  0  0  0  0
   38.5330   26.2350   33.1750 O   0  0  0  0  0  0  0  0  0  0  0  0
   36.5400   25.4840   32.1140 C   0  0  0  0  0  0  0  0  0  0  0  0
   35.5570   25.9480   31.2580 C   0  0  0  0  0  0  0  0  0  0  0  0
   34.7540   25.0220   30.5980 C   0  0  0  0  0  0  0  0  0  0  0  0
   34.9840   23.7080   30.8330 N   0  0  0  0  0  0  0  0  0  0  0  0
   35.9430   23.2750   31.6660 C   0  0  0  0  0  0  0  0  0  0  0  0
   36.7100   24.1640   32.2980 N   0  0  0  0  0  0  0  0  0  0  0  0
   35.3380   26.9860   31.0420 H   0  0  0  0  0  0  0  0  0  0  0  0
   33.9700   25.3170   29.9180 H   0  0  0  0  0  0  0  0  0  0  0  0
   37.8700   21.9040   30.3000 F   0  0  0  0  0  0  0  0  0  0  0  0
   37.1260   21.1760   31.1760 C   0  0  0  0  0  0  0  0  0  0  0  0
   36.1440   21.8450   31.8790 C   0  0  0  0  0  0  0  0  0  0  0  0
   35.3680   21.1450   32.7770 C   0  0  0  0  0  0  0  0  0  0  0  0
   34.5860   21.6170   33.3540 H   0  0  0  0  0  0  0  0  0  0  0  0
   35.5720   19.7930   32.9660 C   0  0  0  0  0  0  0  0  0  0  0  0
   35.0320   19.1540   33.6330 H   0  0  0  0  0  0  0  0  0  0  0  0
   36.5790   19.1630   32.2290 C   0  0  0  0  0  3  0  0  0  0  0  0
   37.3940   19.8230   31.3090 C   0  0  0  0  0  3  0  0  0  0  0  0
  1  5  1  0  0  0  0
  2  3  1  0  0  0  0
  2  1  2  0  0  0  0
  3  4  2  0  0  0  0
  4  5  1  0  0  0  0
  4  9  1  0  0  0  0
  6  2  1  0  0  0  0
  7  3  1  0  0  0  0
  8 16  1  0  0  0  0
  9 10  1  0  0  0  0
  9  8  2  0  0  0  0
 10 11  2  0  0  0  0
 11 12  1  0  0  0  0
 11 15  1  0  0  0  0
 12 13  1  0  0  0  0
 13 14  2  0  0  0  0
 14 20  1  0  0  0  0
 15 14  1  0  0  0  0
 16 15  2  0  0  0  0
 16 21  1  0  0  0  0
 17  8  1  0  0  0  0
 18 10  1  0  0  0  0
 19 12  1  0  0  0  0
 22  1  1  0  0  0  0
 22 23  2  0  0  0  0
 24 29  1  0  0  0  0
 24 22  1  0  0  0  0
 25 24  2  0  0  0  0
 26 27  2  0  0  0  0
 26 25  1  0  0  0  0
 27 28  1  0  0  0  0
 28 34  1  0  0  0  0
 28 29  2  0  0  0  0
 30 25  1  0  0  0  0
 31 26  1  0  0  0  0
 32 33  1  0  0  0  0
 33 40  2  0  0  0  0
 33 34  1  0  0  0  0
 34 35  2  0  0  0  0
 35 37  1  0  0  0  0
 35 36  1  0  0  0  0
 37 38  1  0  0  0  0
 39 37  2  0  0  0  0
 40 39  1  0  0  0  0
M  END
>  <minimizedAffinity>
-6.81080389

$$$$

 OpenBabel03272507153D

 40 44  0  0  0  0  0  0  0  0999 V2000
   36.5440   27.8060   32.3690 C   0  0  0  0  0  0  0  0  0  0  0  0
   37.2660   27.5220   33.4760 C   0  0  0  0  0  0  0  0  0  0  0  0
   36.7010   28.2480   34.5290 C   0  0  0  0  0  0  0  0  0  0  0  0
   35.6290   28.9560   33.9700 C   0  0  0  0  0  0  0  0  0  0  0  0
   35.6000   28.6480   32.7050 O   0  0  0  0  0  0  0  0  0  0  0  0
   38.1350   26.8530   33.5690 H   0  0  0  0  0  0  0  0  0  0  0  0
   37.0870   28.2030   35.5300 H   0  0  0  0  0  0  0  0  0  0  0  0
   33.4060   29.7770   34.7170 C   0  0  0  0  0  0  0  0  0  0  0  0
   34.7780   29.8410   34.7570 C   0  0  0  0  0  0  0  0  0  0  0  0
   35.4300   30.7490   35.5520 C   0  0  0  0  0  0  0  0  0  0  0  0
   34.6770   31.6210   36.3300 C   0  0  0  0  0  0  0  0  0  0  0  0
   35.0270   32.5870   37.1820 N   0  0  0  0  0  0  0  0  0  0  0  0
   33.9040   33.1200   37.6660 N   0  0  0  0  0  0  0  0  0  0  0  0
   32.8400   32.4870   37.1190 C   0  0  0  0  0  0  0  0  0  0  0  0
   33.2950   31.5170   36.2560 C   0  0  0  0  0  0  0  0  0  0  0  0
   32.6270   30.6100   35.4610 C   0  0  0  0  0  0  0  0  0  0  0  0
   32.9800   29.0320   34.0640 H   0  0  0  0  0  0  0  0  0  0  0  0
   36.5220   30.8670   35.6430 H   0  0  0  0  0  0  0  0  0  0  0  0
   36.0030   32.8920   37.4390 H   0  0  0  0  0  0  0  0  0  0  0  0
   31.7740   32.6750   37.2980 H   0  0  0  0  0  0  0  0  0  0  0  0
   31.5430   30.5600   35.4310 H   0  0  0  0  0  0  0  0  0  0  0  0
   36.8470   27.2250   31.0720 C   0  0  0  0  0  0  0  0  0  0  0  0
   36.5990   27.8910   30.0310 O   0  0  0  0  0  0  0  0  0  0  0  0
   37.4210   25.9040   31.0480 C   0  0  0  0  0  0  0  0  0  0  0  0
   38.6900   25.7670   30.5140 C   0  0  0  0  0  0  0  0  0  0  0  0
   39.2670   24.5000   30.4770 C   0  0  0  0  0  0  0  0  0  0  0  0
   38.5460   23.4660   30.9710 N   0  0  0  0  0  0  0  0  0  0  0  0
   37.3170   23.6160   31.4860 C   0  0  0  0  0  0  0  0  0  0  0  0
   36.7660   24.8290   31.5200 N   0  0  0  0  0  0  0  0  0  0  0  0
   39.2990   26.5650   30.1080 H   0  0  0  0  0  0  0  0  0  0  0  0
   40.2520   24.3260   30.0740 H   0  0  0  0  0  0  0  0  0  0  0  0
   37.7840   22.6690   34.0060 F   0  0  0  0  0  0  0  0  0  0  0  0
   36.8440   22.0040   33.2820 C   0  0  0  0  0  0  0  0  0  0  0  0
   36.5880   22.4620   32.0050 C   0  0  0  0  0  0  0  0  0  0  0  0
   35.6420   21.8170   31.2380 C   0  0  0  0  0  0  0  0  0  0  0  0
   35.4030   22.1320   30.2330 H   0  0  0  0  0  0  0  0  0  0  0  0
   34.9630   20.7270   31.7440 C   0  0  0  0  0  0  0  0  0  0  0  0
   34.2130   20.1530   31.2410 H   0  0  0  0  0  0  0  0  0  0  0  0
   35.2590   20.3030   33.0430 C   0  0  0  0  0  3  0  0  0  0  0  0
   36.2050   20.9200   33.8620 C   0  0  0  0  0  3  0  0  0  0  0  0
  1  5  1  0  0  0  0
  1  2  2  0  0  0  0
  2  6  1  0  0  0  0
  2  3  1  0  0  0  0
  3  7  1  0  0  0  0
  4  3  2  0  0  0  0
  4  9  1  0  0  0  0
  5  4  1  0  0  0  0
  8  9  2  0  0  0  0
  8 16  1  0  0  0  0
  9 10  1  0  0  0  0
 10 18  1  0  0  0  0
 10 11  2  0  0  0  0
 11 12  1  0  0  0  0
 12 19  1  0  0  0  0
 12 13  1  0  0  0  0
 14 20  1  0  0  0  0
 14 13  2  0  0  0  0
 15 11  1  0  0  0  0
 15 14  1  0  0  0  0
 16 15  2  0  0  0  0
 17  8  1  0  0  0  0
 21 16  1  0  0  0  0
 22  1  1  0  0  0  0
 23 22  2  0  0  0  0
 24 22  1  0  0  0  0
 24 29  1  0  0  0  0
 25 24  2  0  0  0  0
 26 25  1  0  0  0  0
 26 27  2  0  0  0  0
 27 28  1  0  0  0  0
 28 29  2  0  0  0  0
 28 34  1  0  0  0  0
 30 25  1  0  0  0  0
 31 26  1  0  0  0  0
 33 40  1  0  0  0  0
 33 32  1  0  0  0  0
 34 33  2  0  0  0  0
 35 37  2  0  0  0  0
 35 34  1  0  0  0  0
 36 35  1  0  0  0  0
 37 39  1  0  0  0  0
 38 37  1  0  0  0  0
 39 40  2  0  0  0  0
M  END
>  <minimizedAffinity>
-6.75154495

$$$$

 OpenBabel03272507153D

 40 44  0  0  0  0  0  0  0  0999 V2000
   37.9090   25.7120   35.8670 C   0  0  0  0  0  0  0  0  0  0  0  0
   38.5230   26.7980   36.3850 C   0  0  0  0  0  0  0  0  0  0  0  0
   38.0620   27.9080   35.6700 C   0  0  0  0  0  0  0  0  0  0  0  0
   37.1610   27.4040   34.7250 C   0  0  0  0  0  0  0  0  0  0  0  0
   37.1230   26.1130   34.9000 O   0  0  0  0  0  0  0  0  0  0  0  0
   39.2510   26.8400   37.2090 H   0  0  0  0  0  0  0  0  0  0  0  0
   38.3950   28.9060   35.8820 H   0  0  0  0  0  0  0  0  0  0  0  0
   36.5760   28.1100   32.4150 C   0  0  0  0  0  0  0  0  0  0  0  0
   36.4570   28.2590   33.7760 C   0  0  0  0  0  0  0  0  0  0  0  0
   35.6570   29.2290   34.3240 C   0  0  0  0  0  0  0  0  0  0  0  0
   34.9550   30.0770   33.4750 C   0  0  0  0  0  0  0  0  0  0  0  0
   34.1180   31.0880   33.7140 N   0  0  0  0  0  0  0  0  0  0  0  0
   33.7190   31.5670   32.5350 N   0  0  0  0  0  0  0  0  0  0  0  0
   34.3070   30.8530   31.5450 C   0  0  0  0  0  0  0  0  0  0  0  0
   35.1080   29.8870   32.1080 C   0  0  0  0  0  0  0  0  0  0  0  0
   35.9080   28.9170   31.5450 C   0  0  0  0  0  0  0  0  0  0  0  0
   37.2270   27.3210   32.0750 H   0  0  0  0  0  0  0  0  0  0  0  0
   35.5050   29.4160   35.3990 H   0  0  0  0  0  0  0  0  0  0  0  0
   33.8140   31.4600   34.6530 H   0  0  0  0  0  0  0  0  0  0  0  0
   34.1970   30.9820   30.4610 H   0  0  0  0  0  0  0  0  0  0  0  0
   36.0010   28.8010   30.4700 H   0  0  0  0  0  0  0  0  0  0  0  0
   38.1490   24.3690   36.3670 C   0  0  0  0  0  0  0  0  0  0  0  0
   37.9990   24.1390   37.5980 O   0  0  0  0  0  0  0  0  0  0  0  0
   38.5480   23.3620   35.4170 C   0  0  0  0  0  0  0  0  0  0  0  0
   39.8980   23.0730   35.3230 C   0  0  0  0  0  0  0  0  0  0  0  0
   40.3120   22.1040   34.4120 C   0  0  0  0  0  0  0  0  0  0  0  0
   39.3600   21.4950   33.6650 N   0  0  0  0  0  0  0  0  0  0  0  0
   38.0550   21.7870   33.7700 C   0  0  0  0  0  0  0  0  0  0  0  0
   37.6610   22.7160   34.6420 N   0  0  0  0  0  0  0  0  0  0  0  0
   40.6910   23.5350   35.8980 H   0  0  0  0  0  0  0  0  0  0  0  0
   41.3480   21.8320   34.2890 H   0  0  0  0  0  0  0  0  0  0  0  0
   35.8940   20.5400   34.8810 F   0  0  0  0  0  0  0  0  0  0  0  0
   35.9910   20.4740   33.5250 C   0  0  0  0  0  0  0  0  0  0  0  0
   37.0750   21.0970   32.9380 C   0  0  0  0  0  0  0  0  0  0  0  0
   37.2110   21.0550   31.5670 C   0  0  0  0  0  0  0  0  0  0  0  0
   38.0380   21.5240   31.0560 H   0  0  0  0  0  0  0  0  0  0  0  0
   36.2740   20.3960   30.7960 C   0  0  0  0  0  0  0  0  0  0  0  0
   36.2790   20.3000   29.7300 H   0  0  0  0  0  0  0  0  0  0  0  0
   35.1960   19.7830   31.4390 C   0  0  0  0  0  3  0  0  0  0  0  0
   35.0090   19.7950   32.8220 C   0  0  0  0  0  3  0  0  0  0  0  0
  1 22  1  0  0  0  0
  1  2  2  0  0  0  0
  2  6  1  0  0  0  0
  3  7  1  0  0  0  0
  3  2  1  0  0  0  0
  4  5  1  0  0  0  0
  4  3  2  0  0  0  0
  5  1  1  0  0  0  0
  8  9  1  0  0  0  0
  9 10  2  0  0  0  0
  9  4  1  0  0  0  0
 10 18  1  0  0  0  0
 11 12  1  0  0  0  0
 11 10  1  0  0  0  0
 12 19  1  0  0  0  0
 13 12  1  0  0  0  0
 14 15  1  0  0  0  0
 14 13  2  0  0  0  0
 15 11  2  0  0  0  0
 16 15  1  0  0  0  0
 16  8  2  0  0  0  0
 17  8  1  0  0  0  0
 20 14  1  0  0  0  0
 21 16  1  0  0  0  0
 22 23  2  0  0  0  0
 24 22  1  0  0  0  0
 25 24  1  0  0  0  0
 25 30  1  0  0  0  0
 26 25  2  0  0  0  0
 27 28  2  0  0  0  0
 27 26  1  0  0  0  0
 28 29  1  0  0  0  0
 29 24  2  0  0  0  0
 31 26  1  0  0  0  0
 33 32  1  0  0  0  0
 34 33  1  0  0  0  0
 34 28  1  0  0  0  0
 35 34  2  0  0  0  0
 36 35  1  0  0  0  0
 37 39  2  0  0  0  0
 37 35  1  0  0  0  0
 38 37  1  0  0  0  0
 39 40  1  0  0  0  0
 40 33  2  0  0  0  0
M  END
>  <minimizedAffinity>
-6.73844385

$$$$

 OpenBabel03272507153D

 40 44  0  0  0  0  0  0  0  0999 V2000
   36.6450   27.8870   32.3440 C   0  0  0  0  0  0  0  0  0  0  0  0
   37.1570   27.2950   33.4460 C   0  0  0  0  0  0  0  0  0  0  0  0
   36.7010   28.0240   34.5490 C   0  0  0  0  0  0  0  0  0  0  0  0
   35.9110   29.0540   34.0240 C   0  0  0  0  0  0  0  0  0  0  0  0
   35.9250   28.9100   32.7290 O   0  0  0  0  0  0  0  0  0  0  0  0
   37.8080   26.4110   33.5040 H   0  0  0  0  0  0  0  0  0  0  0  0
   36.9630   27.7630   35.5570 H   0  0  0  0  0  0  0  0  0  0  0  0
   35.9390   30.9890   35.5840 C   0  0  0  0  0  0  0  0  0  0  0  0
   35.2470   30.0420   34.8670 C   0  0  0  0  0  0  0  0  0  0  0  0
   33.8780   29.9760   34.9030 C   0  0  0  0  0  0  0  0  0  0  0  0
   33.1830   30.8910   35.6840 C   0  0  0  0  0  0  0  0  0  0  0  0
   31.8790   31.0680   35.9080 N   0  0  0  0  0  0  0  0  0  0  0  0
   31.7510   32.0980   36.7450 N   0  0  0  0  0  0  0  0  0  0  0  0
   32.9800   32.5770   37.0510 C   0  0  0  0  0  0  0  0  0  0  0  0
   33.9260   31.8290   36.3900 C   0  0  0  0  0  0  0  0  0  0  0  0
   35.3020   31.9050   36.3630 C   0  0  0  0  0  0  0  0  0  0  0  0
   37.0130   30.9660   35.4950 H   0  0  0  0  0  0  0  0  0  0  0  0
   33.2470   29.2520   34.3610 H   0  0  0  0  0  0  0  0  0  0  0  0
   31.0790   30.5070   35.5090 H   0  0  0  0  0  0  0  0  0  0  0  0
   33.2350   33.4160   37.7090 H   0  0  0  0  0  0  0  0  0  0  0  0
   35.8470   32.6540   36.9290 H   0  0  0  0  0  0  0  0  0  0  0  0
   36.9100   27.3950   31.0030 C   0  0  0  0  0  0  0  0  0  0  0  0
   36.5630   28.0980   30.0150 O   0  0  0  0  0  0  0  0  0  0  0  0
   37.5630   26.1180   30.8740 C   0  0  0  0  0  0  0  0  0  0  0  0
   38.9020   26.1160   30.5250 C   0  0  0  0  0  0  0  0  0  0  0  0
   39.5560   24.8940   30.3930 C   0  0  0  0  0  0  0  0  0  0  0  0
   38.8380   23.7670   30.6170 N   0  0  0  0  0  0  0  0  0  0  0  0
   37.5400   23.7870   30.9560 C   0  0  0  0  0  0  0  0  0  0  0  0
   36.9150   24.9580   31.0810 N   0  0  0  0  0  0  0  0  0  0  0  0
   39.5120   26.9900   30.3360 H   0  0  0  0  0  0  0  0  0  0  0  0
   40.5980   24.8230   30.1230 H   0  0  0  0  0  0  0  0  0  0  0  0
   38.4670   21.4190   29.9590 F   0  0  0  0  0  0  0  0  0  0  0  0
   37.3090   21.3570   30.6700 C   0  0  0  0  0  0  0  0  0  0  0  0
   36.8180   22.5400   31.1850 C   0  0  0  0  0  0  0  0  0  0  0  0
   35.6470   22.5200   31.9120 C   0  0  0  0  0  0  0  0  0  0  0  0
   35.2180   23.4160   32.3370 H   0  0  0  0  0  0  0  0  0  0  0  0
   34.9770   21.3310   32.1180 C   0  0  0  0  0  0  0  0  0  0  0  0
   34.0650   21.1990   32.6630 H   0  0  0  0  0  0  0  0  0  0  0  0
   35.5160   20.1610   31.5760 C   0  0  0  0  0  3  0  0  0  0  0  0
   36.6970   20.1240   30.8340 C   0  0  0  0  0  3  0  0  0  0  0  0
  1  5  1  0  0  0  0
  1  2  2  0  0  0  0
  2  6  1  0  0  0  0
  2  3  1  0  0  0  0
  3  7  1  0  0  0  0
  4  3  2  0  0  0  0
  4  9  1  0  0  0  0
  5  4  1  0  0  0  0
  8 16  1  0  0  0  0
  9 10  1  0  0  0  0
  9  8  2  0  0  0  0
 10 11  2  0  0  0  0
 11 12  1  0  0  0  0
 11 15  1  0  0  0  0
 12 13  1  0  0  0  0
 13 14  2  0  0  0  0
 14 20  1  0  0  0  0
 15 14  1  0  0  0  0
 16 15  2  0  0  0  0
 16 21  1  0  0  0  0
 17  8  1  0  0  0  0
 18 10  1  0  0  0  0
 19 12  1  0  0  0  0
 22  1  1  0  0  0  0
 23 22  2  0  0  0  0
 24 22  1  0  0  0  0
 24 29  1  0  0  0  0
 25 24  2  0  0  0  0
 26 25  1  0  0  0  0
 26 27  2  0  0  0  0
 27 28  1  0  0  0  0
 28 29  2  0  0  0  0
 28 34  1  0  0  0  0
 30 25  1  0  0  0  0
 31 26  1  0  0  0  0
 32 33  1  0  0  0  0
 33 40  2  0  0  0  0
 33 34  1  0  0  0  0
 34 35  2  0  0  0  0
 35 37  1  0  0  0  0
 35 36  1  0  0  0  0
 37 38  1  0  0  0  0
 39 37  2  0  0  0  0
 40 39  1  0  0  0  0
M  END
>  <minimizedAffinity>
-6.73422575

$$$$
