
 OpenBabel03272510013D

 21 22  0  0  0  0  0  0  0  0999 V2000
   38.3310   31.1810   50.3790 C   0  0  0  0  0  0  0  0  0  0  0  0
   38.4880   31.4760   49.0030 C   0  0  0  0  0  0  0  0  0  0  0  0
   37.4980   31.0560   48.1290 C   0  0  0  0  0  0  0  0  0  0  0  0
   36.4460   30.3880   48.6660 N   0  0  0  0  0  0  0  0  0  0  0  0
   36.3140   30.1190   49.9660 C   0  0  0  0  0  0  0  0  0  0  0  0
   37.2600   30.5200   50.8090 N   0  0  0  0  0  0  0  0  0  0  0  0
   39.0860   31.4960   51.0830 H   0  0  0  0  0  0  0  0  0  0  0  0
   39.3380   32.0050   48.6310 H   0  0  0  0  0  0  0  0  0  0  0  0
   39.1930   32.9880   46.9850 F   0  0  0  0  0  0  0  0  0  0  0  0
   38.3760   32.2420   46.1790 C   0  0  0  0  0  0  0  0  0  0  0  0
   37.5390   31.2940   46.6930 C   0  0  0  0  0  0  0  0  0  0  0  0
   36.7650   30.6090   45.7800 C   0  0  0  0  0  0  0  0  0  0  0  0
   36.0820   29.8450   46.1210 H   0  0  0  0  0  0  0  0  0  0  0  0
   36.7970   30.8270   44.4250 C   0  0  0  0  0  0  0  0  0  0  0  0
   36.1670   30.2590   43.7560 H   0  0  0  0  0  0  0  0  0  0  0  0
   37.6430   31.7850   43.9090 C   0  0  0  0  0  3  0  0  0  0  0  0
   38.4290   32.4840   44.8190 C   0  0  0  0  0  3  0  0  0  0  0  0
   35.1160   29.3740   50.4010 C   0  0  0  0  0  0  0  0  0  0  0  0
   35.1380   29.0760   51.7600 F   0  0  0  0  0  0  0  0  0  0  0  0
   33.9560   30.0930   50.1770 F   0  0  0  0  0  0  0  0  0  0  0  0
   34.9540   28.1640   49.7490 F   0  0  0  0  0  0  0  0  0  0  0  0
  1  6  1  0  0  0  0
  1  7  1  0  0  0  0
  2  1  2  0  0  0  0
  3  4  2  0  0  0  0
  3  2  1  0  0  0  0
  4  5  1  0  0  0  0
  5 18  1  0  0  0  0
  5  6  2  0  0  0  0
  8  2  1  0  0  0  0
 10 11  1  0  0  0  0
 10  9  1  0  0  0  0
 11  3  1  0  0  0  0
 12 13  1  0  0  0  0
 12 11  2  0  0  0  0
 14 12  1  0  0  0  0
 15 14  1  0  0  0  0
 16 14  2  0  0  0  0
 16 17  1  0  0  0  0
 17 10  2  0  0  0  0
 18 19  1  0  0  0  0
 20 18  1  0  0  0  0
 21 18  1  0  0  0  0
M  END
>  <minimizedAffinity>
-5.79084206

>  <minimizedRMSD>
0.521924198

$$$$
