REMARK  Name = 
REMARK  2 active torsions:
REMARK  status: ('A' for Active; 'I' for Inactive)
REMARK    1  A    between atoms: C_3  and  C_15
REMARK    2  A    between atoms: C_5  and  C_7
REMARK                            x       y       z     vdW  Elec       q    Type
REMARK                         _______ _______ _______ _____ _____    ______ ____
ROOT
ATOM      1  C   UNL     1      38.306  31.230  50.124  0.00  0.00    +0.000 A 
ATOM      2  C   UNL     1      38.289  31.604  48.759  0.00  0.00    +0.000 A 
ATOM      3  C   UNL     1      37.199  31.224  47.992  0.00  0.00    +0.000 A 
ATOM      4  N   UNL     1      36.225  30.516  48.617  0.00  0.00    +0.000 NA
ATOM      5  C   UNL     1      36.257  30.172  49.905  0.00  0.00    +0.000 A 
ATOM      6  N   UNL     1      37.300  30.534  50.645  0.00  0.00    +0.000 NA
ATOM      7  H   UNL     1      39.142  31.513  50.746  0.00  0.00    +0.000 HD
ATOM      8  H   UNL     1      39.084  32.163  48.315  0.00  0.00    +0.000 HD
ENDROOT
BRANCH   3  11
ATOM      9  F   UNL     1      39.154  32.685  46.593  0.00  0.00    +0.000 F 
ATOM     10  C   UNL     1      38.032  32.256  45.937  0.00  0.00    +0.000 A 
ATOM     11  C   UNL     1      37.059  31.544  46.578  0.00  0.00    +0.000 A 
ATOM     12  C   UNL     1      35.977  31.169  45.811  0.00  0.00    +0.000 A 
ATOM     13  H   UNL     1      35.172  30.603  46.257  0.00  0.00    +0.000 HD
ATOM     14  C   UNL     1      35.836  31.466  44.478  0.00  0.00    +0.000 A 
ATOM     15  H   UNL     1      34.965  31.145  43.926  0.00  0.00    +0.000 HD
ATOM     16  C   UNL     1      36.820  32.185  43.833  0.00  0.00    +0.000 A 
ATOM     17  C   UNL     1      37.917  32.570  44.596  0.00  0.00    +0.000 A 
ENDBRANCH   3  11
BRANCH   5  18
ATOM     18  C   UNL     1      35.126  29.390  50.442  0.00  0.00    +0.000 C 
ATOM     19  F   UNL     1      35.261  29.121  51.801  0.00  0.00    +0.000 F 
ATOM     20  F   UNL     1      33.925  30.060  50.294  0.00  0.00    +0.000 F 
ATOM     21  F   UNL     1      34.963  28.162  49.826  0.00  0.00    +0.000 F 
ENDBRANCH   5  18
TORSDOF 2
