REMARK  Name = 
REMARK  4 active torsions:
REMARK  status: ('A' for Active; 'I' for Inactive)
REMARK    1  A    between atoms: C_1  and  C_15
REMARK    2  A    between atoms: C_4  and  C_7
REMARK    3  A    between atoms: C_15  and  C_17
REMARK    4  A    between atoms: C_21  and  C_34
REMARK                            x       y       z     vdW  Elec       q    Type
REMARK                         _______ _______ _______ _____ _____    ______ ____
ROOT
ATOM      1  C   UNL     1      35.848  29.138  49.816  0.00  0.00    +0.000 A 
ATOM      2  C   UNL     1      34.822  29.625  50.547  0.00  0.00    +0.000 A 
ATOM      3  C   UNL     1      33.653  29.039  50.051  0.00  0.00    +0.000 A 
ATOM      4  C   UNL     1      34.062  28.200  49.007  0.00  0.00    +0.000 A 
ATOM      5  O   UNL     1      35.358  28.310  48.928  0.00  0.00    +0.000 OA
ATOM      6  H   UNL     1      34.859  30.344  51.379  0.00  0.00    +0.000 HD
ATOM      7  H   UNL     1      32.684  29.256  50.459  0.00  0.00    +0.000 HD
ENDROOT
BRANCH   4   9
ATOM      8  C   UNL     1      33.531  26.431  47.344  0.00  0.00    +0.000 A 
ATOM      9  C   UNL     1      33.123  27.402  48.227  0.00  0.00    +0.000 A 
ATOM     10  C   UNL     1      31.794  27.674  48.429  0.00  0.00    +0.000 A 
ATOM     11  C   UNL     1      30.846  26.947  47.719  0.00  0.00    +0.000 A 
ATOM     12  N   UNL     1      29.512  26.988  47.709  0.00  0.00    +0.000 N 
ATOM     13  N   UNL     1      29.088  26.068  46.841  0.00  0.00    +0.000 NA
ATOM     14  C   UNL     1      30.160  25.441  46.301  0.00  0.00    +0.000 A 
ATOM     15  C   UNL     1      31.307  25.977  46.839  0.00  0.00    +0.000 A 
ATOM     16  C   UNL     1      32.639  25.694  46.627  0.00  0.00    +0.000 A 
ATOM     17  H   UNL     1      34.595  26.286  47.250  0.00  0.00    +0.000 HD
ATOM     18  H   UNL     1      31.382  28.432  49.115  0.00  0.00    +0.000 HD
ATOM     19  H   UNL     1      28.886  27.623  48.273  0.00  0.00    +0.000 HD
ATOM     20  H   UNL     1      30.169  24.636  45.556  0.00  0.00    +0.000 HD
ATOM     21  H   UNL     1      32.960  24.927  45.929  0.00  0.00    +0.000 HD
ENDBRANCH   4   9
BRANCH   1  22
ATOM     22  C   UNL     1      37.227  29.530  50.052  0.00  0.00    +0.000 C 
ATOM     23  O   UNL     1      37.879  28.954  50.965  0.00  0.00    +0.000 OA
BRANCH  22  24
ATOM     24  C   UNL     1      37.780  30.568  49.220  0.00  0.00    +0.000 A 
ATOM     25  C   UNL     1      38.133  31.758  49.832  0.00  0.00    +0.000 A 
ATOM     26  C   UNL     1      38.669  32.778  49.050  0.00  0.00    +0.000 A 
ATOM     27  N   UNL     1      38.816  32.544  47.724  0.00  0.00    +0.000 NA
ATOM     28  C   UNL     1      38.469  31.384  47.147  0.00  0.00    +0.000 A 
ATOM     29  N   UNL     1      37.955  30.409  47.897  0.00  0.00    +0.000 NA
ATOM     30  H   UNL     1      38.032  31.987  50.885  0.00  0.00    +0.000 HD
ATOM     31  H   UNL     1      38.964  33.729  49.465  0.00  0.00    +0.000 HD
BRANCH  28  34
ATOM     32  F   UNL     1      36.342  31.445  45.435  0.00  0.00    +0.000 F 
ATOM     33  C   UNL     1      37.559  31.226  44.869  0.00  0.00    +0.000 A 
ATOM     34  C   UNL     1      38.651  31.190  45.712  0.00  0.00    +0.000 A 
ATOM     35  C   UNL     1      39.903  30.971  45.179  0.00  0.00    +0.000 A 
ATOM     36  H   UNL     1      40.792  30.934  45.792  0.00  0.00    +0.000 HD
ATOM     37  C   UNL     1      40.057  30.790  43.819  0.00  0.00    +0.000 A 
ATOM     38  H   UNL     1      40.975  30.614  43.299  0.00  0.00    +0.000 HD
ATOM     39  C   UNL     1      38.920  30.835  43.009  0.00  0.00    +0.000 A 
ATOM     40  C   UNL     1      37.630  31.053  43.496  0.00  0.00    +0.000 A 
ENDBRANCH  28  34
ENDBRANCH  22  24
ENDBRANCH   1  22
TORSDOF 4
