
 OpenBabel03272506243D

 31 33  0  0  0  0  0  0  0  0999 V2000
   37.1110   30.6410   46.8850 C   0  0  0  0  0  0  0  0  0  0  0  0
   36.5440   29.8670   45.9130 C   0  0  0  0  0  0  0  0  0  0  0  0
   36.5730   30.1480   44.5610 C   0  0  0  0  0  0  0  0  0  0  0  0
   37.2310   31.3160   44.1330 C   0  0  0  0  0  0  0  0  0  0  0  0
   37.8170   32.1200   45.1270 C   0  0  0  0  0  0  0  0  0  0  0  0
   37.7620   31.7960   46.4640 C   0  0  0  0  0  0  0  0  0  0  0  0
   36.0180   28.9500   46.1600 H   0  0  0  0  0  0  0  0  0  0  0  0
   36.1110   29.5080   43.8220 H   0  0  0  0  0  0  0  0  0  0  0  0
   37.2990   31.6080   43.0930 H   0  0  0  0  0  0  0  0  0  0  0  0
   38.3290   33.0260   44.8040 H   0  0  0  0  0  0  0  0  0  0  0  0
   40.3560   32.9640   46.2440 F   0  0  0  0  0  0  0  0  0  0  0  0
   39.6340   33.2100   47.3650 C   0  0  0  0  0  0  0  0  0  0  0  0
   38.3680   32.6370   47.4730 C   0  0  0  0  0  0  0  0  0  0  0  0
   37.6060   32.8610   48.5970 C   0  0  0  0  0  0  0  0  0  0  0  0
   36.6110   32.4660   48.7850 H   0  0  0  0  0  0  0  0  0  0  0  0
   38.0620   33.6530   49.6450 C   0  0  0  0  0  0  0  0  0  0  0  0
   37.5220   33.8730   50.5570 H   0  0  0  0  0  0  0  0  0  0  0  0
   39.3350   34.2160   49.5120 C   0  0  0  0  0  0  0  0  0  0  0  0
   40.0990   34.0000   48.4010 C   0  0  0  0  0  0  0  0  0  0  0  0
   38.1790   30.1920   49.0370 C   0  0  0  0  0  0  0  0  0  0  0  0
   36.9870   30.1940   48.2470 C   0  0  0  0  0  0  0  0  0  0  0  0
   35.8140   29.7600   48.8690 C   0  0  0  0  0  0  0  0  0  0  0  0
   35.8660   29.3640   50.1690 N   0  0  0  0  0  0  0  0  0  0  0  0
   37.0140   29.3730   50.8920 C   0  0  0  0  0  0  0  0  0  0  0  0
   38.1790   29.7920   50.3140 N   0  0  0  0  0  0  0  0  0  0  0  0
   39.1050   30.5290   48.5620 H   0  0  0  0  0  0  0  0  0  0  0  0
   36.9060   29.0370   51.8990 H   0  0  0  0  0  0  0  0  0  0  0  0
   34.5040   29.7150   48.1630 C   0  0  0  0  0  0  0  0  0  0  0  0
   33.5010   29.3280   49.0840 F   0  0  0  0  0  0  0  0  0  0  0  0
   34.1040   30.8460   47.5430 F   0  0  0  0  0  0  0  0  0  0  0  0
   34.5080   28.6620   47.2410 F   0  0  0  0  0  0  0  0  0  0  0  0
  1 21  1  0  0  0  0
  2  7  1  0  0  0  0
  2  1  2  0  0  0  0
  3  2  1  0  0  0  0
  4  3  2  0  0  0  0
  4  5  1  0  0  0  0
  5  6  2  0  0  0  0
  6  1  1  0  0  0  0
  6 13  1  0  0  0  0
  8  3  1  0  0  0  0
  9  4  1  0  0  0  0
 10  5  1  0  0  0  0
 11 12  1  0  0  0  0
 12 13  2  0  0  0  0
 12 19  1  0  0  0  0
 13 14  1  0  0  0  0
 14 15  1  0  0  0  0
 14 16  2  0  0  0  0
 16 17  1  0  0  0  0
 18 16  1  0  0  0  0
 19 18  2  0  0  0  0
 20 25  1  0  0  0  0
 21 22  1  0  0  0  0
 21 20  2  0  0  0  0
 22 23  2  0  0  0  0
 23 24  1  0  0  0  0
 24 27  1  0  0  0  0
 25 24  2  0  0  0  0
 26 20  1  0  0  0  0
 28 22  1  0  0  0  0
 28 29  1  0  0  0  0
 30 28  1  0  0  0  0
 31 28  1  0  0  0  0
M  END
>  <minimizedAffinity>
-5.11636305

>  <minimizedRMSD>
2.45380068

$$$$
