
 OpenBabel03272510013D

 21 22  0  0  0  0  0  0  0  0999 V2000
   37.4700   30.5790   50.7710 C   0  0  0  0  0  0  0  0  0  0  0  0
   38.3820   31.0840   49.8130 C   0  0  0  0  0  0  0  0  0  0  0  0
   37.9940   31.0900   48.4830 C   0  0  0  0  0  0  0  0  0  0  0  0
   36.7590   30.6050   48.2010 N   0  0  0  0  0  0  0  0  0  0  0  0
   35.9120   30.1320   49.1160 C   0  0  0  0  0  0  0  0  0  0  0  0
   36.2790   30.1250   50.3930 N   0  0  0  0  0  0  0  0  0  0  0  0
   37.7450   30.5630   51.8150 H   0  0  0  0  0  0  0  0  0  0  0  0
   39.3450   31.4550   50.0890 H   0  0  0  0  0  0  0  0  0  0  0  0
   38.9940   33.7200   48.4490 F   0  0  0  0  0  0  0  0  0  0  0  0
   39.3010   32.8660   47.4230 C   0  0  0  0  0  0  0  0  0  0  0  0
   38.8370   31.5820   47.4010 C   0  0  0  0  0  0  0  0  0  0  0  0
   39.2140   30.8190   46.3170 C   0  0  0  0  0  0  0  0  0  0  0  0
   38.8810   29.7940   46.2370 H   0  0  0  0  0  0  0  0  0  0  0  0
   40.0070   31.2740   45.2920 C   0  0  0  0  0  0  0  0  0  0  0  0
   40.2720   30.6310   44.4660 H   0  0  0  0  0  0  0  0  0  0  0  0
   40.4750   32.5710   45.3180 C   0  0  0  0  0  3  0  0  0  0  0  0
   40.1020   33.3510   46.4070 C   0  0  0  0  0  3  0  0  0  0  0  0
   34.6040   29.6270   48.6550 C   0  0  0  0  0  0  0  0  0  0  0  0
   33.7380   29.3480   49.7080 F   0  0  0  0  0  0  0  0  0  0  0  0
   33.9560   30.5470   47.8500 F   0  0  0  0  0  0  0  0  0  0  0  0
   34.6920   28.4600   47.9170 F   0  0  0  0  0  0  0  0  0  0  0  0
  1  7  1  0  0  0  0
  2  8  1  0  0  0  0
  2  1  2  0  0  0  0
  3  2  1  0  0  0  0
  4  3  2  0  0  0  0
  4  5  1  0  0  0  0
  5  6  2  0  0  0  0
  6  1  1  0  0  0  0
 10  9  1  0  0  0  0
 11 10  1  0  0  0  0
 11  3  1  0  0  0  0
 12 11  2  0  0  0  0
 13 12  1  0  0  0  0
 14 16  2  0  0  0  0
 14 12  1  0  0  0  0
 15 14  1  0  0  0  0
 16 17  1  0  0  0  0
 17 10  2  0  0  0  0
 18  5  1  0  0  0  0
 18 19  1  0  0  0  0
 20 18  1  0  0  0  0
 21 18  1  0  0  0  0
M  END
>  <minimizedAffinity>
-5.98507071

>  <minimizedRMSD>
2.27949357

$$$$
