
     RDKit          3D

 23 24  0  0  0  0  0  0  0  0999 V2000
   38.3060   31.2304   50.1238 C   0  0  0  0  0  0  0  0  0  0  0  0
   38.2888   31.6038   48.7588 C   0  0  0  0  0  0  0  0  0  0  0  0
   37.1987   31.2235   47.9915 C   0  0  0  0  0  0  0  0  0  0  0  0
   36.2248   30.5156   48.6167 N   0  0  0  0  0  0  0  0  0  0  0  0
   36.2572   30.1715   49.9053 C   0  0  0  0  0  0  0  0  0  0  0  0
   37.2996   30.5344   50.6446 N   0  0  0  0  0  0  0  0  0  0  0  0
   35.1256   29.3903   50.4422 C   0  0  0  0  0  0  0  0  0  0  0  0
   35.2608   29.1210   51.8012 F   0  0  0  0  0  0  0  0  0  0  0  0
   33.9248   30.0600   50.2936 F   0  0  0  0  0  0  0  0  0  0  0  0
   34.9628   28.1615   49.8262 F   0  0  0  0  0  0  0  0  0  0  0  0
   39.1422   31.5127   50.7464 H   0  0  0  0  0  0  0  0  0  0  0  0
   39.0840   32.1627   48.3151 H   0  0  0  0  0  0  0  0  0  0  0  0
   39.3251   30.9160   46.1750 F   0  0  0  0  0  0  0  0  0  0  0  0
   38.1161   31.3808   45.7295 C   0  0  0  0  0  0  0  0  0  0  0  0
   37.0590   31.5444   46.5775 C   0  0  0  0  0  0  0  0  0  0  0  0
   35.8953   32.0185   46.0124 C   0  0  0  0  0  0  0  0  0  0  0  0
   35.0205   32.1709   46.6275 H   0  0  0  0  0  0  0  0  0  0  0  0
   35.7535   32.3240   44.6807 C   0  0  0  0  0  0  0  0  0  0  0  0
   34.8158   32.6929   44.2922 H   0  0  0  0  0  0  0  0  0  0  0  0
   36.8230   32.1577   43.8263 C   0  0  0  0  0  0  0  0  0  0  0  0
   38.0030   31.6798   44.3849 C   0  0  0  0  0  0  0  0  0  0  0  0
   36.7353   32.3915   42.7741 H   0  0  0  0  0  0  0  0  0  0  0  0
   38.8134   31.5692   43.6590 H   0  0  0  0  0  0  0  0  0  0  0  0
  1  6  2  0
  2  1  1  0
  3  4  1  0
  3  2  2  0
  4  5  2  0
  5  7  1  0
  5  6  1  0
  7  8  1  0
  9  7  1  0
 10  7  1  0
  1 11  1  0
  2 12  1  0
 13 14  1  0
 14 15  2  0
 15 16  1  0
 16 17  1  0
 16 18  2  0
 18 19  1  0
 18 20  1  0
 20 21  2  0
 21 14  1  0
 20 22  1  0
 21 23  1  0
  3 15  1  0
M  ISO  4  11  14  12  14  17  15  19  16
M  END
>  <DihAtoms>  (1) 
3,2,14,13

>  <DihDeg>  (1) 
0.0006040380934027728

$$$$
