
 OpenBabel03272510013D

 21 22  0  0  0  0  0  0  0  0999 V2000
   38.3580   32.6640   49.3800 C   0  0  0  0  0  0  0  0  0  0  0  0
   38.8880   32.7890   48.0730 C   0  0  0  0  0  0  0  0  0  0  0  0
   38.3820   31.9620   47.0820 C   0  0  0  0  0  0  0  0  0  0  0  0
   37.4100   31.0890   47.4480 N   0  0  0  0  0  0  0  0  0  0  0  0
   36.9220   30.9840   48.6840 C   0  0  0  0  0  0  0  0  0  0  0  0
   37.4030   31.7750   49.6380 N   0  0  0  0  0  0  0  0  0  0  0  0
   38.7320   33.2950   50.1720 H   0  0  0  0  0  0  0  0  0  0  0  0
   39.6550   33.4950   47.8390 H   0  0  0  0  0  0  0  0  0  0  0  0
   40.8330   30.8230   46.2990 F   0  0  0  0  0  0  0  0  0  0  0  0
   40.0370   31.4260   45.3610 C   0  0  0  0  0  0  0  0  0  0  0  0
   38.8400   31.9900   45.7000 C   0  0  0  0  0  0  0  0  0  0  0  0
   38.1290   32.5660   44.6700 C   0  0  0  0  0  0  0  0  0  0  0  0
   37.1750   33.0310   44.8690 H   0  0  0  0  0  0  0  0  0  0  0  0
   38.5520   32.5990   43.3630 C   0  0  0  0  0  0  0  0  0  0  0  0
   37.9520   33.0650   42.5970 H   0  0  0  0  0  0  0  0  0  0  0  0
   39.7600   32.0280   43.0250 C   0  0  0  0  0  3  0  0  0  0  0  0
   40.4880   31.4420   44.0550 C   0  0  0  0  0  3  0  0  0  0  0  0
   35.8710   29.9780   48.9320 C   0  0  0  0  0  0  0  0  0  0  0  0
   34.8010   30.4920   49.6570 F   0  0  0  0  0  0  0  0  0  0  0  0
   35.3430   29.4890   47.7500 F   0  0  0  0  0  0  0  0  0  0  0  0
   36.3180   28.8770   49.6410 F   0  0  0  0  0  0  0  0  0  0  0  0
  1  6  1  0  0  0  0
  1  7  1  0  0  0  0
  2  1  2  0  0  0  0
  3  4  2  0  0  0  0
  3  2  1  0  0  0  0
  4  5  1  0  0  0  0
  5 18  1  0  0  0  0
  5  6  2  0  0  0  0
  8  2  1  0  0  0  0
 10 11  1  0  0  0  0
 10  9  1  0  0  0  0
 11  3  1  0  0  0  0
 12 13  1  0  0  0  0
 12 11  2  0  0  0  0
 14 12  1  0  0  0  0
 15 14  1  0  0  0  0
 16 14  2  0  0  0  0
 16 17  1  0  0  0  0
 17 10  2  0  0  0  0
 18 21  1  0  0  0  0
 18 19  1  0  0  0  0
 20 18  1  0  0  0  0
M  END
>  <minimizedAffinity>
-5.72296047

>  <minimizedRMSD>
2.21523809

$$$$
