
 OpenBabel03262523103D

 20 21  0  0  0  0  0  0  0  0999 V2000
   39.1000   23.1360   37.7360 C   0  0  0  0  0  0  0  0  0  0  0  0
   40.3740   22.6620   37.3610 C   0  0  0  0  0  0  0  0  0  0  0  0
   40.9110   23.1750   36.1840 C   0  0  0  0  0  0  0  0  0  0  0  0
   40.2020   24.0810   35.4740 N   0  0  0  0  0  0  0  0  0  0  0  0
   38.9810   24.5130   35.8660 C   0  0  0  0  0  0  0  0  0  0  0  0
   38.4540   24.0310   36.9910 N   0  0  0  0  0  0  0  0  0  0  0  0
   40.8680   21.9390   37.9880 H   0  0  0  0  0  0  0  0  0  0  0  0
   41.8960   22.8280   35.8660 H   0  0  0  0  0  0  0  0  0  0  0  0
   38.4190   27.0470   36.8840 F   0  0  0  0  0  0  0  0  0  0  0  0
   37.9900   26.7490   35.6270 C   0  0  0  0  0  0  0  0  0  0  0  0
   38.2420   25.4990   35.0660 C   0  0  0  0  0  0  0  0  0  0  0  0
   37.8150   25.1680   33.7810 C   0  0  0  0  0  0  0  0  0  0  0  0
   38.0360   24.1680   33.3790 H   0  0  0  0  0  0  0  0  0  0  0  0
   37.1190   26.1010   33.0320 C   0  0  0  0  0  0  0  0  0  0  0  0
   36.7700   25.8810   32.0310 H   0  0  0  0  0  0  0  0  0  0  0  0
   36.8900   27.3270   33.6260 C   0  0  0  0  0  3  0  0  0  0  0  0
   37.2950   27.6960   34.8940 C   0  0  0  0  0  3  0  0  0  0  0  0
   38.4410   22.6810   38.9330 N   0  0  0  0  0  0  0  0  0  0  0  0
   39.1490   22.8700   39.7030 H   0  0  0  0  0  0  0  0  0  0  0  0
   37.5050   22.2680   39.0270 H   0  0  0  0  0  0  0  0  0  0  0  0
  1 18  1  0  0  0  0
  2  1  1  0  0  0  0
  2  7  1  0  0  0  0
  3  2  2  0  0  0  0
  4  5  2  0  0  0  0
  4  3  1  0  0  0  0
  5  6  1  0  0  0  0
  6  1  2  0  0  0  0
  8  3  1  0  0  0  0
 10  9  1  0  0  0  0
 11 10  1  0  0  0  0
 11  5  1  0  0  0  0
 12 11  2  0  0  0  0
 13 12  1  0  0  0  0
 14 16  2  0  0  0  0
 14 12  1  0  0  0  0
 15 14  1  0  0  0  0
 16 17  1  0  0  0  0
 17 10  2  0  0  0  0
 18 20  1  0  0  0  0
 18 19  1  0  0  0  0
M  END
>  <minimizedAffinity>
-4.98329163

$$$$

 OpenBabel03262523103D

 20 21  0  0  0  0  0  0  0  0999 V2000
   39.6530   22.8760   37.5880 C   0  0  0  0  0  0  0  0  0  0  0  0
   38.7800   23.3120   38.6060 C   0  0  0  0  0  0  0  0  0  0  0  0
   37.9230   24.3600   38.2890 C   0  0  0  0  0  0  0  0  0  0  0  0
   37.9670   24.8980   37.0490 N   0  0  0  0  0  0  0  0  0  0  0  0
   38.8190   24.4530   36.0970 C   0  0  0  0  0  0  0  0  0  0  0  0
   39.6460   23.4490   36.3870 N   0  0  0  0  0  0  0  0  0  0  0  0
   38.8130   22.8250   39.5670 H   0  0  0  0  0  0  0  0  0  0  0  0
   37.2340   24.7210   39.0550 H   0  0  0  0  0  0  0  0  0  0  0  0
   39.7920   27.0400   35.7210 F   0  0  0  0  0  0  0  0  0  0  0  0
   39.3340   26.3600   34.6340 C   0  0  0  0  0  0  0  0  0  0  0  0
   38.8370   25.0650   34.7610 C   0  0  0  0  0  0  0  0  0  0  0  0
   38.3620   24.3460   33.6650 C   0  0  0  0  0  0  0  0  0  0  0  0
   37.9780   23.3260   33.8130 H   0  0  0  0  0  0  0  0  0  0  0  0
   38.3810   24.9270   32.4090 C   0  0  0  0  0  0  0  0  0  0  0  0
   38.0210   24.4010   31.5340 H   0  0  0  0  0  0  0  0  0  0  0  0
   38.8820   26.2110   32.3270 C   0  0  0  0  0  3  0  0  0  0  0  0
   39.3610   26.9580   33.3860 C   0  0  0  0  0  3  0  0  0  0  0  0
   40.5860   21.7990   37.7960 N   0  0  0  0  0  0  0  0  0  0  0  0
   39.9790   20.9950   38.1330 H   0  0  0  0  0  0  0  0  0  0  0  0
   41.6040   21.8010   37.6540 H   0  0  0  0  0  0  0  0  0  0  0  0
  1 18  1  0  0  0  0
  1  2  1  0  0  0  0
  2  7  1  0  0  0  0
  3  2  2  0  0  0  0
  3  8  1  0  0  0  0
  4  3  1  0  0  0  0
  5  6  1  0  0  0  0
  5  4  2  0  0  0  0
  6  1  2  0  0  0  0
 10 11  1  0  0  0  0
 10  9  1  0  0  0  0
 11  5  1  0  0  0  0
 12 13  1  0  0  0  0
 12 11  2  0  0  0  0
 14 12  1  0  0  0  0
 15 14  1  0  0  0  0
 16 14  2  0  0  0  0
 16 17  1  0  0  0  0
 17 10  2  0  0  0  0
 18 19  1  0  0  0  0
 20 18  1  0  0  0  0
M  END
>  <minimizedAffinity>
-4.8351841

$$$$

 OpenBabel03262523103D

 20 21  0  0  0  0  0  0  0  0999 V2000
   31.1160   27.7860   36.1500 C   0  0  0  0  0  0  0  0  0  0  0  0
   29.9850   28.2160   35.4260 C   0  0  0  0  0  0  0  0  0  0  0  0
   30.0740   29.4600   34.8080 C   0  0  0  0  0  0  0  0  0  0  0  0
   31.2130   30.1780   34.9280 N   0  0  0  0  0  0  0  0  0  0  0  0
   32.2780   29.7320   35.6320 C   0  0  0  0  0  0  0  0  0  0  0  0
   32.2080   28.5430   36.2300 N   0  0  0  0  0  0  0  0  0  0  0  0
   29.1180   27.5780   35.3820 H   0  0  0  0  0  0  0  0  0  0  0  0
   29.2150   29.8210   34.2390 H   0  0  0  0  0  0  0  0  0  0  0  0
   32.5950   31.5700   37.7060 F   0  0  0  0  0  0  0  0  0  0  0  0
   33.6010   31.4450   36.7970 C   0  0  0  0  0  0  0  0  0  0  0  0
   33.4990   30.5440   35.7400 C   0  0  0  0  0  0  0  0  0  0  0  0
   34.5130   30.3960   34.7960 C   0  0  0  0  0  0  0  0  0  0  0  0
   34.3880   29.6710   33.9770 H   0  0  0  0  0  0  0  0  0  0  0  0
   35.6610   31.1630   34.9020 C   0  0  0  0  0  0  0  0  0  0  0  0
   36.4700   31.0770   34.1890 H   0  0  0  0  0  0  0  0  0  0  0  0
   35.7220   32.0440   35.9640 C   0  0  0  0  0  3  0  0  0  0  0  0
   34.7410   32.2210   36.9210 C   0  0  0  0  0  3  0  0  0  0  0  0
   31.1450   26.5190   36.8320 N   0  0  0  0  0  0  0  0  0  0  0  0
   30.8990   25.8140   36.0750 H   0  0  0  0  0  0  0  0  0  0  0  0
   31.3530   26.3310   37.8210 H   0  0  0  0  0  0  0  0  0  0  0  0
  1  6  1  0  0  0  0
  1 18  1  0  0  0  0
  2  1  2  0  0  0  0
  3  4  2  0  0  0  0
  3  2  1  0  0  0  0
  4  5  1  0  0  0  0
  5 11  1  0  0  0  0
  5  6  2  0  0  0  0
  7  2  1  0  0  0  0
  8  3  1  0  0  0  0
 10 17  1  0  0  0  0
 10  9  1  0  0  0  0
 11 10  2  0  0  0  0
 12 14  2  0  0  0  0
 12 11  1  0  0  0  0
 13 12  1  0  0  0  0
 14 16  1  0  0  0  0
 15 14  1  0  0  0  0
 16 17  2  0  0  0  0
 18 20  1  0  0  0  0
 19 18  1  0  0  0  0
M  END
>  <minimizedAffinity>
-4.73437738

$$$$

 OpenBabel03262523103D

 20 21  0  0  0  0  0  0  0  0999 V2000
   35.7010   29.8900   31.8550 C   0  0  0  0  0  0  0  0  0  0  0  0
   36.4360   28.6990   32.0340 C   0  0  0  0  0  0  0  0  0  0  0  0
   36.5120   28.2010   33.3310 C   0  0  0  0  0  0  0  0  0  0  0  0
   35.8940   28.8650   34.3330 N   0  0  0  0  0  0  0  0  0  0  0  0
   35.1980   30.0060   34.1230 C   0  0  0  0  0  0  0  0  0  0  0  0
   35.1160   30.4960   32.8860 N   0  0  0  0  0  0  0  0  0  0  0  0
   36.8960   28.2360   31.1780 H   0  0  0  0  0  0  0  0  0  0  0  0
   37.0730   27.2800   33.5030 H   0  0  0  0  0  0  0  0  0  0  0  0
   36.6310   31.7370   35.7740 F   0  0  0  0  0  0  0  0  0  0  0  0
   35.3060   31.5530   36.0300 C   0  0  0  0  0  0  0  0  0  0  0  0
   34.5400   30.7000   35.2380 C   0  0  0  0  0  0  0  0  0  0  0  0
   33.1820   30.4920   35.4780 C   0  0  0  0  0  0  0  0  0  0  0  0
   32.6170   29.8090   34.8270 H   0  0  0  0  0  0  0  0  0  0  0  0
   32.5680   31.1480   36.5300 C   0  0  0  0  0  0  0  0  0  0  0  0
   31.5160   31.0130   36.7490 H   0  0  0  0  0  0  0  0  0  0  0  0
   33.3630   31.9840   37.2900 C   0  0  0  0  0  3  0  0  0  0  0  0
   34.7090   32.2180   37.0870 C   0  0  0  0  0  3  0  0  0  0  0  0
   35.5510   30.5030   30.5610 N   0  0  0  0  0  0  0  0  0  0  0  0
   35.1510   29.7270   29.9550 H   0  0  0  0  0  0  0  0  0  0  0  0
   35.7740   31.4660   30.2820 H   0  0  0  0  0  0  0  0  0  0  0  0
  1  2  2  0  0  0  0
  1  6  1  0  0  0  0
  2  3  1  0  0  0  0
  3  8  1  0  0  0  0
  3  4  2  0  0  0  0
  5  4  1  0  0  0  0
  5 11  1  0  0  0  0
  6  5  2  0  0  0  0
  7  2  1  0  0  0  0
  9 10  1  0  0  0  0
 10 17  1  0  0  0  0
 11 12  1  0  0  0  0
 11 10  2  0  0  0  0
 12 14  2  0  0  0  0
 13 12  1  0  0  0  0
 14 15  1  0  0  0  0
 14 16  1  0  0  0  0
 17 16  2  0  0  0  0
 18  1  1  0  0  0  0
 19 18  1  0  0  0  0
 20 18  1  0  0  0  0
M  END
>  <minimizedAffinity>
-4.46696043

$$$$

 OpenBabel03262523103D

 20 21  0  0  0  0  0  0  0  0999 V2000
   36.4960   28.5210   30.8140 C   0  0  0  0  0  0  0  0  0  0  0  0
   35.6470   29.6050   31.1210 C   0  0  0  0  0  0  0  0  0  0  0  0
   35.3950   29.8380   32.4690 C   0  0  0  0  0  0  0  0  0  0  0  0
   35.9620   29.0350   33.3980 N   0  0  0  0  0  0  0  0  0  0  0  0
   36.7720   28.0040   33.0640 C   0  0  0  0  0  0  0  0  0  0  0  0
   37.0230   27.7680   31.7770 N   0  0  0  0  0  0  0  0  0  0  0  0
   35.2380   30.1930   30.3170 H   0  0  0  0  0  0  0  0  0  0  0  0
   34.7410   30.6700   32.7410 H   0  0  0  0  0  0  0  0  0  0  0  0
   36.8930   25.2360   32.7500 F   0  0  0  0  0  0  0  0  0  0  0  0
   37.4020   25.7770   33.8910 C   0  0  0  0  0  0  0  0  0  0  0  0
   37.3690   27.1540   34.1030 C   0  0  0  0  0  0  0  0  0  0  0  0
   37.8840   27.7350   35.2610 C   0  0  0  0  0  0  0  0  0  0  0  0
   37.8350   28.8270   35.3860 H   0  0  0  0  0  0  0  0  0  0  0  0
   38.4460   26.9280   36.2360 C   0  0  0  0  0  0  0  0  0  0  0  0
   38.8550   27.3410   37.1490 H   0  0  0  0  0  0  0  0  0  0  0  0
   38.4570   25.5700   35.9870 C   0  0  0  0  0  3  0  0  0  0  0  0
   37.9600   24.9550   34.8550 C   0  0  0  0  0  3  0  0  0  0  0  0
   36.8310   28.1800   29.4560 N   0  0  0  0  0  0  0  0  0  0  0  0
   37.2220   29.0830   29.0540 H   0  0  0  0  0  0  0  0  0  0  0  0
   36.7210   27.2760   28.9800 H   0  0  0  0  0  0  0  0  0  0  0  0
  1  2  2  0  0  0  0
  1  6  1  0  0  0  0
  2  3  1  0  0  0  0
  3  8  1  0  0  0  0
  3  4  2  0  0  0  0
  5  4  1  0  0  0  0
  5 11  1  0  0  0  0
  6  5  2  0  0  0  0
  7  2  1  0  0  0  0
  9 10  1  0  0  0  0
 10 11  2  0  0  0  0
 10 17  1  0  0  0  0
 11 12  1  0  0  0  0
 12 13  1  0  0  0  0
 12 14  2  0  0  0  0
 14 15  1  0  0  0  0
 16 14  1  0  0  0  0
 17 16  2  0  0  0  0
 18  1  1  0  0  0  0
 19 18  1  0  0  0  0
 20 18  1  0  0  0  0
M  END
>  <minimizedAffinity>
-4.4422121

$$$$

 OpenBabel03262523103D

 20 21  0  0  0  0  0  0  0  0999 V2000
   38.3010   22.6910   36.8350 C   0  0  0  0  0  0  0  0  0  0  0  0
   39.7020   22.6150   36.6890 C   0  0  0  0  0  0  0  0  0  0  0  0
   40.1810   22.2470   35.4360 C   0  0  0  0  0  0  0  0  0  0  0  0
   39.3020   21.9860   34.4420 N   0  0  0  0  0  0  0  0  0  0  0  0
   37.9640   22.0700   34.6190 C   0  0  0  0  0  0  0  0  0  0  0  0
   37.4900   22.4210   35.8140 N   0  0  0  0  0  0  0  0  0  0  0  0
   40.3280   22.8400   37.5360 H   0  0  0  0  0  0  0  0  0  0  0  0
   41.2610   22.1790   35.2910 H   0  0  0  0  0  0  0  0  0  0  0  0
   35.8050   20.3410   34.9760 F   0  0  0  0  0  0  0  0  0  0  0  0
   35.9810   20.9070   33.7500 C   0  0  0  0  0  0  0  0  0  0  0  0
   37.0410   21.7790   33.5130 C   0  0  0  0  0  0  0  0  0  0  0  0
   37.2440   22.3720   32.2690 C   0  0  0  0  0  0  0  0  0  0  0  0
   38.0960   23.0540   32.1270 H   0  0  0  0  0  0  0  0  0  0  0  0
   36.3720   22.0940   31.2300 C   0  0  0  0  0  0  0  0  0  0  0  0
   36.4960   22.5340   30.2500 H   0  0  0  0  0  0  0  0  0  0  0  0
   35.3350   21.2250   31.5080 C   0  0  0  0  0  3  0  0  0  0  0  0
   35.0980   20.6170   32.7250 C   0  0  0  0  0  3  0  0  0  0  0  0
   37.6850   23.0610   38.0830 N   0  0  0  0  0  0  0  0  0  0  0  0
   38.1340   23.9940   38.3230 H   0  0  0  0  0  0  0  0  0  0  0  0
   36.9760   22.5480   38.6200 H   0  0  0  0  0  0  0  0  0  0  0  0
  1 18  1  0  0  0  0
  2  1  1  0  0  0  0
  2  7  1  0  0  0  0
  3  2  2  0  0  0  0
  4  5  2  0  0  0  0
  4  3  1  0  0  0  0
  5  6  1  0  0  0  0
  6  1  2  0  0  0  0
  8  3  1  0  0  0  0
 10  9  1  0  0  0  0
 11 10  1  0  0  0  0
 11  5  1  0  0  0  0
 12 11  2  0  0  0  0
 13 12  1  0  0  0  0
 14 16  2  0  0  0  0
 14 12  1  0  0  0  0
 15 14  1  0  0  0  0
 16 17  1  0  0  0  0
 17 10  2  0  0  0  0
 18 19  1  0  0  0  0
 18 20  1  0  0  0  0
M  END
>  <minimizedAffinity>
-4.42596769

$$$$

 OpenBabel03262523103D

 20 21  0  0  0  0  0  0  0  0999 V2000
   36.0290   29.2960   31.7370 C   0  0  0  0  0  0  0  0  0  0  0  0
   36.7480   28.1180   32.0270 C   0  0  0  0  0  0  0  0  0  0  0  0
   36.8420   27.7560   33.3670 C   0  0  0  0  0  0  0  0  0  0  0  0
   36.2540   28.5320   34.3050 N   0  0  0  0  0  0  0  0  0  0  0  0
   35.5720   29.6570   33.9890 C   0  0  0  0  0  0  0  0  0  0  0  0
   35.4730   30.0160   32.7100 N   0  0  0  0  0  0  0  0  0  0  0  0
   37.1840   27.5600   31.2150 H   0  0  0  0  0  0  0  0  0  0  0  0
   37.3920   26.8480   33.6240 H   0  0  0  0  0  0  0  0  0  0  0  0
   32.8560   29.4070   34.5680 F   0  0  0  0  0  0  0  0  0  0  0  0
   33.5860   30.3060   35.2830 C   0  0  0  0  0  0  0  0  0  0  0  0
   34.9470   30.4740   35.0380 C   0  0  0  0  0  0  0  0  0  0  0  0
   35.7180   31.3870   35.7550 C   0  0  0  0  0  0  0  0  0  0  0  0
   36.7900   31.4870   35.5260 H   0  0  0  0  0  0  0  0  0  0  0  0
   35.1240   32.1550   36.7420 C   0  0  0  0  0  0  0  0  0  0  0  0
   35.6890   32.8750   37.3200 H   0  0  0  0  0  0  0  0  0  0  0  0
   33.7730   31.9570   36.9530 C   0  0  0  0  0  3  0  0  0  0  0  0
   32.9740   31.0640   36.2660 C   0  0  0  0  0  3  0  0  0  0  0  0
   35.8620   29.7730   30.3890 N   0  0  0  0  0  0  0  0  0  0  0  0
   35.4380   28.9450   29.8750 H   0  0  0  0  0  0  0  0  0  0  0  0
   36.0940   30.6980   30.0070 H   0  0  0  0  0  0  0  0  0  0  0  0
  1  2  2  0  0  0  0
  1  6  1  0  0  0  0
  2  3  1  0  0  0  0
  3  8  1  0  0  0  0
  3  4  2  0  0  0  0
  5  4  1  0  0  0  0
  5 11  1  0  0  0  0
  6  5  2  0  0  0  0
  7  2  1  0  0  0  0
  9 10  1  0  0  0  0
 10 17  1  0  0  0  0
 11 10  2  0  0  0  0
 11 12  1  0  0  0  0
 12 14  2  0  0  0  0
 13 12  1  0  0  0  0
 14 16  1  0  0  0  0
 14 15  1  0  0  0  0
 17 16  2  0  0  0  0
 18  1  1  0  0  0  0
 19 18  1  0  0  0  0
 20 18  1  0  0  0  0
M  END
>  <minimizedAffinity>
-4.41773605

$$$$

 OpenBabel03262523103D

 20 21  0  0  0  0  0  0  0  0999 V2000
   40.6970   22.7780   36.7900 C   0  0  0  0  0  0  0  0  0  0  0  0
   41.9770   22.7670   36.1980 C   0  0  0  0  0  0  0  0  0  0  0  0
   42.2200   23.7220   35.2160 C   0  0  0  0  0  0  0  0  0  0  0  0
   41.2400   24.5940   34.8840 N   0  0  0  0  0  0  0  0  0  0  0  0
   40.0230   24.5730   35.4750 C   0  0  0  0  0  0  0  0  0  0  0  0
   39.7760   23.6640   36.4170 N   0  0  0  0  0  0  0  0  0  0  0  0
   42.6970   22.0360   36.5240 H   0  0  0  0  0  0  0  0  0  0  0  0
   43.2010   23.7400   34.7380 H   0  0  0  0  0  0  0  0  0  0  0  0
   38.3430   24.0690   33.3070 F   0  0  0  0  0  0  0  0  0  0  0  0
   38.1750   25.2320   33.9940 C   0  0  0  0  0  0  0  0  0  0  0  0
   38.9850   25.5380   35.0860 C   0  0  0  0  0  0  0  0  0  0  0  0
   38.8350   26.7210   35.8080 C   0  0  0  0  0  0  0  0  0  0  0  0
   39.4980   26.9210   36.6620 H   0  0  0  0  0  0  0  0  0  0  0  0
   37.8550   27.6260   35.4370 C   0  0  0  0  0  0  0  0  0  0  0  0
   37.7080   28.5550   35.9710 H   0  0  0  0  0  0  0  0  0  0  0  0
   37.0750   27.2840   34.3500 C   0  0  0  0  0  3  0  0  0  0  0  0
   37.1900   26.1240   33.6090 C   0  0  0  0  0  3  0  0  0  0  0  0
   40.3270   21.8400   37.8180 N   0  0  0  0  0  0  0  0  0  0  0  0
   41.0790   21.9610   38.5590 H   0  0  0  0  0  0  0  0  0  0  0  0
   39.5230   21.1990   37.8370 H   0  0  0  0  0  0  0  0  0  0  0  0
  1 18  1  0  0  0  0
  2  7  1  0  0  0  0
  2  1  2  0  0  0  0
  3  2  1  0  0  0  0
  4  3  2  0  0  0  0
  4  5  1  0  0  0  0
  5  6  2  0  0  0  0
  6  1  1  0  0  0  0
  8  3  1  0  0  0  0
  9 10  1  0  0  0  0
 10 11  1  0  0  0  0
 11  5  1  0  0  0  0
 11 12  2  0  0  0  0
 12 13  1  0  0  0  0
 14 12  1  0  0  0  0
 14 15  1  0  0  0  0
 16 14  2  0  0  0  0
 17 10  2  0  0  0  0
 17 16  1  0  0  0  0
 18 20  1  0  0  0  0
 18 19  1  0  0  0  0
M  END
>  <minimizedAffinity>
-4.4134903

$$$$

 OpenBabel03262523103D

 20 21  0  0  0  0  0  0  0  0999 V2000
   39.0210   26.9800   35.1700 C   0  0  0  0  0  0  0  0  0  0  0  0
   40.3710   26.8140   34.7980 C   0  0  0  0  0  0  0  0  0  0  0  0
   40.6120   26.1480   33.6010 C   0  0  0  0  0  0  0  0  0  0  0  0
   39.5660   25.7020   32.8700 N   0  0  0  0  0  0  0  0  0  0  0  0
   38.2830   25.8800   33.2590 C   0  0  0  0  0  0  0  0  0  0  0  0
   38.0360   26.5170   34.4040 N   0  0  0  0  0  0  0  0  0  0  0  0
   41.1420   27.2020   35.4420 H   0  0  0  0  0  0  0  0  0  0  0  0
   41.6470   26.0030   33.2840 H   0  0  0  0  0  0  0  0  0  0  0  0
   36.5970   27.6440   31.9100 F   0  0  0  0  0  0  0  0  0  0  0  0
   36.3630   26.3080   31.7860 C   0  0  0  0  0  0  0  0  0  0  0  0
   37.1730   25.3800   32.4370 C   0  0  0  0  0  0  0  0  0  0  0  0
   36.9570   24.0070   32.3260 C   0  0  0  0  0  0  0  0  0  0  0  0
   37.6220   23.3110   32.8590 H   0  0  0  0  0  0  0  0  0  0  0  0
   35.9090   23.5420   31.5500 C   0  0  0  0  0  0  0  0  0  0  0  0
   35.7090   22.4840   31.4400 H   0  0  0  0  0  0  0  0  0  0  0  0
   35.1310   24.4960   30.9220 C   0  0  0  0  0  3  0  0  0  0  0  0
   35.3110   25.8630   31.0050 C   0  0  0  0  0  3  0  0  0  0  0  0
   38.6450   27.6530   36.3860 N   0  0  0  0  0  0  0  0  0  0  0  0
   39.1290   28.5970   36.3170 H   0  0  0  0  0  0  0  0  0  0  0  0
   38.0480   27.3080   37.1480 H   0  0  0  0  0  0  0  0  0  0  0  0
  1 18  1  0  0  0  0
  2  1  1  0  0  0  0
  2  7  1  0  0  0  0
  3  2  2  0  0  0  0
  4  5  2  0  0  0  0
  4  3  1  0  0  0  0
  5  6  1  0  0  0  0
  6  1  2  0  0  0  0
  8  3  1  0  0  0  0
 10  9  1  0  0  0  0
 10 11  1  0  0  0  0
 11  5  1  0  0  0  0
 12 11  2  0  0  0  0
 12 13  1  0  0  0  0
 14 12  1  0  0  0  0
 15 14  1  0  0  0  0
 16 17  1  0  0  0  0
 16 14  2  0  0  0  0
 17 10  2  0  0  0  0
 18 20  1  0  0  0  0
 19 18  1  0  0  0  0
M  END
>  <minimizedAffinity>
-4.39356852

$$$$
