
 OpenBabel03272507333D

 36 39  0  0  1  0  0  0  0  0999 V2000
   35.8200   29.1460   49.7840 C   0  0  0  0  0  0  0  0  0  0  0  0
   34.7590   29.6550   50.4990 C   0  0  0  0  0  0  0  0  0  0  0  0
   33.5910   29.0740   49.9850 C   0  0  0  0  0  0  0  0  0  0  0  0
   34.0240   28.2390   48.9790 C   0  0  0  0  0  0  0  0  0  0  0  0
   35.3350   28.3110   48.8930 O   0  0  0  0  0  0  0  0  0  0  0  0
   34.7420   30.3640   51.3090 H   0  0  0  0  0  0  0  0  0  0  0  0
   32.5540   29.2050   50.2660 H   0  0  0  0  0  0  0  0  0  0  0  0
   37.1940   29.5350   50.0540 C   0  0  0  0  0  0  0  0  0  0  0  0
   37.8110   28.9780   50.9730 O   0  0  0  0  0  0  0  0  0  0  0  0
   37.7570   30.5600   49.2200 C   0  0  0  0  0  0  0  0  0  0  0  0
   38.1000   31.7550   49.8310 C   0  0  0  0  0  0  0  0  0  0  0  0
   38.6490   32.7750   49.0460 C   0  0  0  0  0  0  0  0  0  0  0  0
   38.8200   32.5310   47.7040 N   0  0  0  0  0  0  0  0  0  0  0  0
   38.4780   31.3690   47.1500 C   0  0  0  0  0  0  0  0  0  0  0  0
   37.9500   30.3830   47.8930 N   0  0  0  0  0  0  0  0  0  0  0  0
   37.9660   31.9480   50.8860 H   0  0  0  0  0  0  0  0  0  0  0  0
   38.9160   33.7120   49.5320 H   0  0  0  0  0  0  0  0  0  0  0  0
   38.6720   31.3270   46.0860 H   0  0  0  0  0  0  0  0  0  0  0  0
   33.1670   27.4000   48.1400 C   0  0  0  0  0  0  0  0  0  0  0  0
   31.9780   27.7910   47.9000 O   0  0  0  0  0  0  0  0  0  0  0  0
   33.6890   26.1080   47.5850 C   0  0  1  0  0  0  0  0  0  0  0  0
   32.5000   25.2010   47.1170 C   0  0  0  0  0  0  0  0  0  0  0  0
   33.5070   25.7580   46.1780 C   0  0  2  0  0  0  0  0  0  0  0  0
   34.2540   25.5100   48.3350 H   0  0  0  0  0  0  0  0  0  0  0  0
   31.5050   25.6710   47.0460 H   0  0  0  0  0  0  0  0  0  0  0  0
   32.5150   24.1460   47.3600 H   0  0  0  0  0  0  0  0  0  0  0  0
   33.2930   26.5590   45.4620 H   0  0  0  0  0  0  0  0  0  0  0  0
   34.6750   26.2790   43.7320 F   0  0  0  0  0  0  0  0  0  0  0  0
   35.1320   25.1930   44.4110 C   0  0  0  0  0  0  0  0  0  0  0  0
   34.5970   24.8540   45.6580 C   0  0  0  0  0  0  0  0  0  0  0  0
   35.0710   23.7490   46.3340 C   0  0  0  0  0  0  0  0  0  0  0  0
   34.6470   23.5150   47.2790 H   0  0  0  0  0  0  0  0  0  0  0  0
   36.0870   22.9880   45.7450 C   0  0  0  0  0  0  0  0  0  0  0  0
   36.4480   22.1270   46.2860 H   0  0  0  0  0  0  0  0  0  0  0  0
   36.6340   23.2970   44.5170 C   0  0  0  0  0  0  0  0  0  0  0  0
   36.1420   24.4080   43.8620 C   0  0  0  0  0  0  0  0  0  0  0  0
  1  8  1  0  0  0  0
  1  2  2  0  0  0  0
  2  6  1  0  0  0  0
  3  7  1  0  0  0  0
  3  2  1  0  0  0  0
  4  3  2  0  0  0  0
  5  4  1  0  0  0  0
  5  1  1  0  0  0  0
  8  9  2  0  0  0  0
 10 11  1  0  0  0  0
 10  8  1  0  0  0  0
 11 16  1  0  0  0  0
 12 17  1  0  0  0  0
 12 11  2  0  0  0  0
 13 12  1  0  0  0  0
 14 13  2  0  0  0  0
 14 15  1  0  0  0  0
 15 10  2  0  0  0  0
 18 14  1  0  0  0  0
 19  4  1  0  0  0  0
 20 19  2  0  0  0  0
 21 19  1  0  0  0  0
 21 24  1  1  0  0  0
 22 26  1  0  0  0  0
 22 21  1  0  0  0  0
 23 27  1  6  0  0  0
 23 22  1  0  0  0  0
 23 21  1  0  0  0  0
 25 22  1  0  0  0  0
 28 29  1  0  0  0  0
 29 30  1  0  0  0  0
 30 23  1  0  0  0  0
 30 31  2  0  0  0  0
 31 32  1  0  0  0  0
 33 34  1  0  0  0  0
 33 31  1  0  0  0  0
 35 33  2  0  0  0  0
 36 29  2  0  0  0  0
 36 35  1  0  0  0  0
M  END
>  <minimizedAffinity>
-5.57268763

>  <minimizedRMSD>
1.78090942

$$$$
