
 OpenBabel03272510273D

 45 49  0  0  1  0  0  0  0  0999 V2000
   39.5400   33.7110   43.6250 O   0  0  0  0  0  0  0  0  0  0  0  0
   36.1650   30.2730   47.0580 C   0  0  0  0  0  0  0  0  0  0  0  0
   37.0310   30.7300   48.0220 C   0  0  0  0  0  0  0  0  0  0  0  0
   38.0720   31.6140   47.6910 C   0  0  0  0  0  0  0  0  0  0  0  0
   38.1820   31.9960   46.3740 C   0  0  0  0  0  0  0  0  0  0  0  0
   39.0980   32.8470   45.8200 N   0  0  0  0  0  0  0  0  0  0  0  0
   38.7950   32.9130   44.5100 C   0  0  0  0  0  0  0  0  0  0  0  0
   37.7540   32.1560   44.2320 N   0  0  0  0  0  0  0  0  0  0  0  0
   37.3310   31.5570   45.3780 C   0  0  0  0  0  0  0  0  0  0  0  0
   36.3050   30.6780   45.7360 C   0  0  0  0  0  0  0  0  0  0  0  0
   35.3460   29.5930   47.2530 H   0  0  0  0  0  0  0  0  0  0  0  0
   38.7710   31.9910   48.4290 H   0  0  0  0  0  0  0  0  0  0  0  0
   39.8750   33.3450   46.3170 H   0  0  0  0  0  0  0  0  0  0  0  0
   35.6400   30.3360   44.9560 H   0  0  0  0  0  0  0  0  0  0  0  0
   37.4070   30.0280   51.7020 C   0  0  0  0  0  0  0  0  0  0  0  0
   37.7340   30.4930   50.4390 C   0  0  0  0  0  0  0  0  0  0  0  0
   36.8610   30.3060   49.4000 C   0  0  0  0  0  0  0  0  0  0  0  0
   35.6800   29.6500   49.6850 N   0  0  0  0  0  0  0  0  0  0  0  0
   35.3610   29.2000   50.9070 C   0  0  0  0  0  0  0  0  0  0  0  0
   36.2120   29.3870   51.9000 N   0  0  0  0  0  0  0  0  0  0  0  0
   38.1150   30.1890   52.5030 H   0  0  0  0  0  0  0  0  0  0  0  0
   38.6510   31.0080   50.1910 H   0  0  0  0  0  0  0  0  0  0  0  0
   34.4250   28.7040   51.0330 H   0  0  0  0  0  0  0  0  0  0  0  0
   39.5710   31.7340   42.4920 N   0  0  0  0  0  0  0  0  0  0  0  0
   39.7000   33.1970   42.3070 C   0  0  1  0  0  0  0  0  0  0  0  0
   38.6580   33.6520   41.4030 C   0  0  0  0  0  0  0  0  0  0  0  0
   38.8870   33.0800   40.1380 O   0  0  0  0  0  0  0  0  0  0  0  0
   38.9690   31.7210   40.1190 C   0  0  0  0  0  0  0  0  0  0  0  0
   39.8600   31.1540   41.2010 C   0  0  2  0  0  0  0  0  0  0  0  0
   40.3980   31.5540   43.1210 H   0  0  0  0  0  0  0  0  0  0  0  0
   40.6930   33.4390   41.8920 H   0  0  0  0  0  0  0  0  0  0  0  0
   38.8450   34.7540   41.2110 H   0  0  0  0  0  0  0  0  0  0  0  0
   37.6190   33.5510   41.5510 H   0  0  0  0  0  0  0  0  0  0  0  0
   37.9550   31.2930   40.2940 H   0  0  0  0  0  0  0  0  0  0  0  0
   39.3880   31.4480   39.1330 H   0  0  0  0  0  0  0  0  0  0  0  0
   40.9220   31.3540   40.8980 H   0  0  0  0  0  0  0  0  0  0  0  0
   41.6700   29.3230   42.3830 F   0  0  0  0  0  0  0  0  0  0  0  0
   40.5600   28.8540   41.7810 C   0  0  0  0  0  0  0  0  0  0  0  0
   39.6190   29.6880   41.1750 C   0  0  0  0  0  0  0  0  0  0  0  0
   38.5110   29.1040   40.5820 C   0  0  0  0  0  0  0  0  0  0  0  0
   37.7700   29.7540   40.1060 H   0  0  0  0  0  0  0  0  0  0  0  0
   38.2940   27.7400   40.5620 C   0  0  0  0  0  0  0  0  0  0  0  0
   37.4290   27.2900   40.1000 H   0  0  0  0  0  0  0  0  0  0  0  0
   39.2540   26.9350   41.1770 C   0  0  0  0  0  3  0  0  0  0  0  0
   40.3580   27.4840   41.7700 C   0  0  0  0  0  3  0  0  0  0  0  0
  1  7  1  0  0  0  0
  2 11  1  0  0  0  0
  2  3  1  0  0  0  0
  3 17  1  0  0  0  0
  4  3  2  0  0  0  0
  4 12  1  0  0  0  0
  5  4  1  0  0  0  0
  6 13  1  0  0  0  0
  6  5  1  0  0  0  0
  7  6  1  0  0  0  0
  8  7  2  0  0  0  0
  8  9  1  0  0  0  0
  9 10  1  0  0  0  0
  9  5  2  0  0  0  0
 10  2  2  0  0  0  0
 14 10  1  0  0  0  0
 15 20  1  0  0  0  0
 15 21  1  0  0  0  0
 16 15  2  0  0  0  0
 17 18  2  0  0  0  0
 17 16  1  0  0  0  0
 18 19  1  0  0  0  0
 19 23  1  0  0  0  0
 19 20  2  0  0  0  0
 22 16  1  0  0  0  0
 24 30  1  0  0  0  0
 25 31  1  6  0  0  0
 25 24  1  0  0  0  0
 25  1  1  0  0  0  0
 26 33  1  0  0  0  0
 26 25  1  0  0  0  0
 27 26  1  0  0  0  0
 28 27  1  0  0  0  0
 28 34  1  0  0  0  0
 28 29  1  0  0  0  0
 29 36  1  6  0  0  0
 29 24  1  0  0  0  0
 32 26  1  0  0  0  0
 35 28  1  0  0  0  0
 38 37  1  0  0  0  0
 39 29  1  0  0  0  0
 39 38  2  0  0  0  0
 40 39  1  0  0  0  0
 41 40  1  0  0  0  0
 42 40  2  0  0  0  0
 42 44  1  0  0  0  0
 43 42  1  0  0  0  0
 44 45  2  0  0  0  0
 45 38  1  0  0  0  0
M  END
>  <minimizedAffinity>
-6.12056017

>  <minimizedRMSD>
0.899134755

$$$$
