
 OpenBabel03272510273D

 45 49  0  0  1  0  0  0  0  0999 V2000
   39.5410   33.7100   43.6270 O   0  0  0  0  0  0  0  0  0  0  0  0
   36.1650   30.2730   47.0590 C   0  0  0  0  0  0  0  0  0  0  0  0
   37.0300   30.7300   48.0230 C   0  0  0  0  0  0  0  0  0  0  0  0
   38.0710   31.6130   47.6920 C   0  0  0  0  0  0  0  0  0  0  0  0
   38.1820   31.9950   46.3750 C   0  0  0  0  0  0  0  0  0  0  0  0
   39.0980   32.8470   45.8220 N   0  0  0  0  0  0  0  0  0  0  0  0
   38.7950   32.9130   44.5110 C   0  0  0  0  0  0  0  0  0  0  0  0
   37.7550   32.1560   44.2330 N   0  0  0  0  0  0  0  0  0  0  0  0
   37.3310   31.5570   45.3790 C   0  0  0  0  0  0  0  0  0  0  0  0
   36.3040   30.6780   45.7370 C   0  0  0  0  0  0  0  0  0  0  0  0
   35.3460   29.5940   47.2540 H   0  0  0  0  0  0  0  0  0  0  0  0
   38.7700   31.9900   48.4300 H   0  0  0  0  0  0  0  0  0  0  0  0
   39.8750   33.3440   46.3190 H   0  0  0  0  0  0  0  0  0  0  0  0
   35.6400   30.3360   44.9570 H   0  0  0  0  0  0  0  0  0  0  0  0
   37.4060   30.0280   51.7030 C   0  0  0  0  0  0  0  0  0  0  0  0
   37.7330   30.4920   50.4400 C   0  0  0  0  0  0  0  0  0  0  0  0
   36.8600   30.3060   49.4010 C   0  0  0  0  0  0  0  0  0  0  0  0
   35.6800   29.6500   49.6860 N   0  0  0  0  0  0  0  0  0  0  0  0
   35.3600   29.1990   50.9080 C   0  0  0  0  0  0  0  0  0  0  0  0
   36.2110   29.3860   51.9010 N   0  0  0  0  0  0  0  0  0  0  0  0
   38.1140   30.1880   52.5040 H   0  0  0  0  0  0  0  0  0  0  0  0
   38.6500   31.0080   50.1920 H   0  0  0  0  0  0  0  0  0  0  0  0
   34.4240   28.7030   51.0330 H   0  0  0  0  0  0  0  0  0  0  0  0
   39.5710   31.7330   42.4930 N   0  0  0  0  0  0  0  0  0  0  0  0
   39.7010   33.1960   42.3080 C   0  0  1  0  0  0  0  0  0  0  0  0
   38.6590   33.6520   41.4050 C   0  0  0  0  0  0  0  0  0  0  0  0
   38.8870   33.0800   40.1390 O   0  0  0  0  0  0  0  0  0  0  0  0
   38.9690   31.7210   40.1200 C   0  0  0  0  0  0  0  0  0  0  0  0
   39.8590   31.1540   41.2020 C   0  0  2  0  0  0  0  0  0  0  0  0
   40.3980   31.5530   43.1220 H   0  0  0  0  0  0  0  0  0  0  0  0
   40.6930   33.4380   41.8930 H   0  0  0  0  0  0  0  0  0  0  0  0
   38.8460   34.7530   41.2130 H   0  0  0  0  0  0  0  0  0  0  0  0
   37.6190   33.5510   41.5520 H   0  0  0  0  0  0  0  0  0  0  0  0
   37.9540   31.2930   40.2950 H   0  0  0  0  0  0  0  0  0  0  0  0
   39.3880   31.4480   39.1340 H   0  0  0  0  0  0  0  0  0  0  0  0
   40.9220   31.3530   40.8990 H   0  0  0  0  0  0  0  0  0  0  0  0
   41.6700   29.3220   42.3820 F   0  0  0  0  0  0  0  0  0  0  0  0
   40.5600   28.8530   41.7810 C   0  0  0  0  0  0  0  0  0  0  0  0
   39.6180   29.6870   41.1760 C   0  0  0  0  0  0  0  0  0  0  0  0
   38.5100   29.1050   40.5830 C   0  0  0  0  0  0  0  0  0  0  0  0
   37.7680   29.7550   40.1070 H   0  0  0  0  0  0  0  0  0  0  0  0
   38.2930   27.7400   40.5630 C   0  0  0  0  0  0  0  0  0  0  0  0
   37.4280   27.2910   40.1010 H   0  0  0  0  0  0  0  0  0  0  0  0
   39.2530   26.9340   41.1770 C   0  0  0  0  0  3  0  0  0  0  0  0
   40.3580   27.4840   41.7700 C   0  0  0  0  0  3  0  0  0  0  0  0
  1  7  1  0  0  0  0
  2 11  1  0  0  0  0
  2  3  1  0  0  0  0
  3 17  1  0  0  0  0
  4  3  2  0  0  0  0
  4 12  1  0  0  0  0
  5  4  1  0  0  0  0
  6 13  1  0  0  0  0
  6  5  1  0  0  0  0
  7  6  1  0  0  0  0
  8  7  2  0  0  0  0
  8  9  1  0  0  0  0
  9 10  1  0  0  0  0
  9  5  2  0  0  0  0
 10  2  2  0  0  0  0
 14 10  1  0  0  0  0
 15 20  1  0  0  0  0
 15 21  1  0  0  0  0
 16 15  2  0  0  0  0
 17 18  2  0  0  0  0
 17 16  1  0  0  0  0
 18 19  1  0  0  0  0
 19 23  1  0  0  0  0
 19 20  2  0  0  0  0
 22 16  1  0  0  0  0
 24 30  1  0  0  0  0
 25 31  1  6  0  0  0
 25 24  1  0  0  0  0
 25  1  1  0  0  0  0
 26 33  1  0  0  0  0
 26 25  1  0  0  0  0
 27 26  1  0  0  0  0
 28 27  1  0  0  0  0
 28 34  1  0  0  0  0
 28 29  1  0  0  0  0
 29 36  1  6  0  0  0
 29 24  1  0  0  0  0
 32 26  1  0  0  0  0
 35 28  1  0  0  0  0
 38 37  1  0  0  0  0
 39 29  1  0  0  0  0
 39 38  2  0  0  0  0
 40 39  1  0  0  0  0
 41 40  1  0  0  0  0
 42 40  2  0  0  0  0
 42 44  1  0  0  0  0
 43 42  1  0  0  0  0
 44 45  2  0  0  0  0
 45 38  1  0  0  0  0
M  END
>  <minimizedAffinity>
-6.1233058

>  <minimizedRMSD>
0.940142751

$$$$
