
 OpenBabel03272510273D

 45 49  0  0  1  0  0  0  0  0999 V2000
   39.4600   33.5880   43.4290 O   0  0  0  0  0  0  0  0  0  0  0  0
   36.1500   30.1910   46.9660 C   0  0  0  0  0  0  0  0  0  0  0  0
   37.0100   30.6890   47.9150 C   0  0  0  0  0  0  0  0  0  0  0  0
   38.0350   31.5810   47.5560 C   0  0  0  0  0  0  0  0  0  0  0  0
   38.1360   31.9280   46.2290 C   0  0  0  0  0  0  0  0  0  0  0  0
   39.0360   32.7780   45.6490 N   0  0  0  0  0  0  0  0  0  0  0  0
   38.7300   32.8030   44.3380 C   0  0  0  0  0  0  0  0  0  0  0  0
   37.7010   32.0210   44.0840 N   0  0  0  0  0  0  0  0  0  0  0  0
   37.2900   31.4470   45.2470 C   0  0  0  0  0  0  0  0  0  0  0  0
   36.2800   30.5620   45.6330 C   0  0  0  0  0  0  0  0  0  0  0  0
   35.3430   29.5040   47.1820 H   0  0  0  0  0  0  0  0  0  0  0  0
   38.7290   31.9900   48.2810 H   0  0  0  0  0  0  0  0  0  0  0  0
   39.8060   33.3030   46.1300 H   0  0  0  0  0  0  0  0  0  0  0  0
   35.6190   30.1870   44.8650 H   0  0  0  0  0  0  0  0  0  0  0  0
   37.4090   30.0920   51.6100 C   0  0  0  0  0  0  0  0  0  0  0  0
   37.7250   30.5260   50.3340 C   0  0  0  0  0  0  0  0  0  0  0  0
   36.8500   30.3020   49.3040 C   0  0  0  0  0  0  0  0  0  0  0  0
   35.6780   29.6410   49.6120 N   0  0  0  0  0  0  0  0  0  0  0  0
   35.3690   29.2200   50.8470 C   0  0  0  0  0  0  0  0  0  0  0  0
   36.2220   29.4430   51.8310 N   0  0  0  0  0  0  0  0  0  0  0  0
   38.1180   30.2830   52.4040 H   0  0  0  0  0  0  0  0  0  0  0  0
   38.6360   31.0450   50.0680 H   0  0  0  0  0  0  0  0  0  0  0  0
   34.4390   28.7170   50.9910 H   0  0  0  0  0  0  0  0  0  0  0  0
   39.7550   31.7380   42.1300 N   0  0  0  0  0  0  0  0  0  0  0  0
   39.4060   33.1760   42.0670 C   0  0  1  0  0  0  0  0  0  0  0  0
   38.0780   33.3140   41.4970 C   0  0  0  0  0  0  0  0  0  0  0  0
   38.1190   32.8660   40.1630 O   0  0  0  0  0  0  0  0  0  0  0  0
   38.5790   31.5970   39.9880 C   0  0  0  0  0  0  0  0  0  0  0  0
   39.8460   31.3030   40.7570 C   0  0  2  0  0  0  0  0  0  0  0  0
   40.7350   31.8030   42.5160 H   0  0  0  0  0  0  0  0  0  0  0  0
   40.1420   33.7160   41.4480 H   0  0  0  0  0  0  0  0  0  0  0  0
   37.8840   34.4250   41.3760 H   0  0  0  0  0  0  0  0  0  0  0  0
   37.1880   32.9000   41.8830 H   0  0  0  0  0  0  0  0  0  0  0  0
   37.8130   30.8780   40.3630 H   0  0  0  0  0  0  0  0  0  0  0  0
   38.7830   31.4860   38.9070 H   0  0  0  0  0  0  0  0  0  0  0  0
   40.6880   31.8210   40.2240 H   0  0  0  0  0  0  0  0  0  0  0  0
   38.1910   29.4690   42.1450 F   0  0  0  0  0  0  0  0  0  0  0  0
   39.1800   28.9990   41.3600 C   0  0  0  0  0  0  0  0  0  0  0  0
   40.0380   29.8330   40.6430 C   0  0  0  0  0  0  0  0  0  0  0  0
   41.0240   29.2480   39.8640 C   0  0  0  0  0  0  0  0  0  0  0  0
   41.7000   29.8980   39.3000 H   0  0  0  0  0  0  0  0  0  0  0  0
   41.1960   27.8810   39.7640 C   0  0  0  0  0  0  0  0  0  0  0  0
   41.9640   27.4290   39.1560 H   0  0  0  0  0  0  0  0  0  0  0  0
   40.3210   27.0750   40.4930 C   0  0  0  0  0  3  0  0  0  0  0  0
   39.3390   27.6260   41.2710 C   0  0  0  0  0  3  0  0  0  0  0  0
  1  7  1  0  0  0  0
  2 11  1  0  0  0  0
  2  3  1  0  0  0  0
  3 17  1  0  0  0  0
  4  3  2  0  0  0  0
  4 12  1  0  0  0  0
  5  4  1  0  0  0  0
  6 13  1  0  0  0  0
  6  5  1  0  0  0  0
  7  6  1  0  0  0  0
  8  7  2  0  0  0  0
  8  9  1  0  0  0  0
  9 10  1  0  0  0  0
  9  5  2  0  0  0  0
 10  2  2  0  0  0  0
 14 10  1  0  0  0  0
 15 20  1  0  0  0  0
 15 21  1  0  0  0  0
 16 15  2  0  0  0  0
 17 18  2  0  0  0  0
 17 16  1  0  0  0  0
 18 19  1  0  0  0  0
 19 23  1  0  0  0  0
 19 20  2  0  0  0  0
 22 16  1  0  0  0  0
 24 30  1  0  0  0  0
 25 31  1  6  0  0  0
 25 24  1  0  0  0  0
 25  1  1  0  0  0  0
 26 33  1  0  0  0  0
 26 25  1  0  0  0  0
 27 26  1  0  0  0  0
 28 27  1  0  0  0  0
 28 34  1  0  0  0  0
 28 29  1  0  0  0  0
 29 36  1  6  0  0  0
 29 24  1  0  0  0  0
 32 26  1  0  0  0  0
 35 28  1  0  0  0  0
 38 37  1  0  0  0  0
 39 29  1  0  0  0  0
 39 38  2  0  0  0  0
 40 39  1  0  0  0  0
 41 40  1  0  0  0  0
 42 40  2  0  0  0  0
 42 44  1  0  0  0  0
 43 42  1  0  0  0  0
 44 45  2  0  0  0  0
 45 38  1  0  0  0  0
M  END
>  <minimizedAffinity>
-6.12682676

>  <minimizedRMSD>
0.611215591

$$$$
