
 OpenBabel03262523093D

 20 21  0  0  0  0  0  0  0  0999 V2000
   37.5520   30.2710   50.7370 C   0  0  0  0  0  0  0  0  0  0  0  0
   38.3270   31.3060   50.1750 C   0  0  0  0  0  0  0  0  0  0  0  0
   38.0120   31.6870   48.8740 C   0  0  0  0  0  0  0  0  0  0  0  0
   37.0030   31.0620   48.2270 N   0  0  0  0  0  0  0  0  0  0  0  0
   36.2810   30.0720   48.8000 C   0  0  0  0  0  0  0  0  0  0  0  0
   36.5710   29.6960   50.0450 N   0  0  0  0  0  0  0  0  0  0  0  0
   39.1130   31.7490   50.7630 H   0  0  0  0  0  0  0  0  0  0  0  0
   38.5940   32.4870   48.4100 H   0  0  0  0  0  0  0  0  0  0  0  0
   34.9130   27.9050   49.9000 F   0  0  0  0  0  0  0  0  0  0  0  0
   34.5430   28.3380   48.6630 C   0  0  0  0  0  0  0  0  0  0  0  0
   35.1910   29.4160   48.0640 C   0  0  0  0  0  0  0  0  0  0  0  0
   34.8330   29.8810   46.7990 C   0  0  0  0  0  0  0  0  0  0  0  0
   35.3740   30.7350   46.3640 H   0  0  0  0  0  0  0  0  0  0  0  0
   33.8060   29.2590   46.1100 C   0  0  0  0  0  0  0  0  0  0  0  0
   33.5000   29.5900   45.1260 H   0  0  0  0  0  0  0  0  0  0  0  0
   33.1910   28.1950   46.7400 C   0  0  0  0  0  0  0  0  0  0  0  0
   33.5140   27.7040   47.9900 C   0  0  0  0  0  0  0  0  0  0  0  0
   37.7820   29.7890   52.0740 N   0  0  0  0  0  0  0  0  0  0  0  0
   37.7240   30.6640   52.6750 H   0  0  0  0  0  0  0  0  0  0  0  0
   37.9610   28.8250   52.3830 H   0  0  0  0  0  0  0  0  0  0  0  0
  1 18  1  0  0  0  0
  2  1  1  0  0  0  0
  2  7  1  0  0  0  0
  3  2  2  0  0  0  0
  4  5  2  0  0  0  0
  4  3  1  0  0  0  0
  5  6  1  0  0  0  0
  6  1  2  0  0  0  0
  8  3  1  0  0  0  0
 10  9  1  0  0  0  0
 11 10  1  0  0  0  0
 11  5  1  0  0  0  0
 12 11  2  0  0  0  0
 13 12  1  0  0  0  0
 14 16  2  0  0  0  0
 14 12  1  0  0  0  0
 15 14  1  0  0  0  0
 16 17  1  0  0  0  0
 17 10  2  0  0  0  0
 18 20  1  0  0  0  0
 18 19  1  0  0  0  0
M  END
>  <minimizedAffinity>
-5.19176245

>  <minimizedRMSD>
1.11456537

$$$$
