
 OpenBabel03272503353D

 41 44  0  0  1  0  0  0  0  0999 V2000
   37.9760   24.3730   33.2910 C   0  0  0  0  0  0  0  0  0  0  0  0
   37.0990   23.4720   32.6890 C   0  0  0  0  0  0  0  0  0  0  0  0
   36.3600   23.9350   31.5920 C   0  0  0  0  0  0  0  0  0  0  0  0
   36.5600   25.2450   31.1990 N   0  0  0  0  0  0  0  0  0  0  0  0
   37.4110   26.0650   31.8110 C   0  0  0  0  0  0  0  0  0  0  0  0
   38.1230   25.6330   32.8600 N   0  0  0  0  0  0  0  0  0  0  0  0
   36.9660   22.4500   33.0220 H   0  0  0  0  0  0  0  0  0  0  0  0
   35.6570   23.3220   31.0540 H   0  0  0  0  0  0  0  0  0  0  0  0
   38.7300   23.8880   34.4160 N   0  0  0  0  0  0  0  0  0  0  0  0
   39.0760   24.6090   35.6030 C   0  0  0  0  0  0  0  0  0  0  0  0
   39.1840   23.4990   36.6430 C   0  0  2  0  0  0  0  0  0  0  0  0
   38.7610   22.2110   35.9400 C   0  0  0  0  0  0  0  0  0  0  0  0
   39.2890   22.5460   34.5580 C   0  0  0  0  0  0  0  0  0  0  0  0
   39.9950   25.2020   35.5200 H   0  0  0  0  0  0  0  0  0  0  0  0
   38.2420   25.2670   35.9630 H   0  0  0  0  0  0  0  0  0  0  0  0
   40.2580   23.4250   36.9140 H   0  0  0  0  0  0  0  0  0  0  0  0
   37.6780   22.0760   35.9270 H   0  0  0  0  0  0  0  0  0  0  0  0
   39.3310   21.3790   36.4100 H   0  0  0  0  0  0  0  0  0  0  0  0
   38.8670   21.8600   33.8010 H   0  0  0  0  0  0  0  0  0  0  0  0
   40.3880   22.5800   34.5640 H   0  0  0  0  0  0  0  0  0  0  0  0
   38.3550   23.7610   37.8650 C   0  0  0  0  0  0  0  0  0  0  0  0
   38.0300   25.1010   37.8490 F   0  0  0  0  0  0  0  0  0  0  0  0
   39.1840   23.5650   38.9480 F   0  0  0  0  0  0  0  0  0  0  0  0
   37.2480   22.9630   37.9530 F   0  0  0  0  0  0  0  0  0  0  0  0
   37.6270   27.7440   31.2590 S   0  0  0  0  0  0  0  0  0  0  0  0
   36.7090   28.9450   32.0110 C   0  0  0  0  0  0  0  0  0  0  0  0
   36.1690   30.1770   31.7750 C   0  0  0  0  0  0  0  0  0  0  0  0
   35.4460   30.9030   32.6560 C   0  0  0  0  0  0  0  0  0  0  0  0
   35.2780   30.2190   33.9630 C   0  0  0  0  0  0  0  0  0  0  0  0
   36.1570   28.6500   33.7780 S   0  0  0  0  0  0  0  0  0  0  0  0
   36.4020   30.5010   30.7730 H   0  0  0  0  0  0  0  0  0  0  0  0
   35.0280   31.8580   32.4720 H   0  0  0  0  0  0  0  0  0  0  0  0
   36.6050   31.8490   35.7500 F   0  0  0  0  0  0  0  0  0  0  0  0
   35.3060   31.5160   35.9430 C   0  0  0  0  0  0  0  0  0  0  0  0
   34.5730   30.7090   35.0990 C   0  0  0  0  0  0  0  0  0  0  0  0
   33.2820   30.3550   35.2530 C   0  0  0  0  0  0  0  0  0  0  0  0
   32.7550   29.7160   34.5570 H   0  0  0  0  0  0  0  0  0  0  0  0
   32.6230   30.8600   36.3840 C   0  0  0  0  0  0  0  0  0  0  0  0
   31.5870   30.5930   36.5360 H   0  0  0  0  0  0  0  0  0  0  0  0
   33.3070   31.6860   37.2840 C   0  0  0  0  0  3  0  0  0  0  0  0
   34.6500   32.0210   37.0730 C   0  0  0  0  0  3  0  0  0  0  0  0
  1  9  1  0  0  0  0
  2  7  1  0  0  0  0
  2  1  2  0  0  0  0
  3  2  1  0  0  0  0
  4  3  2  0  0  0  0
  4  5  1  0  0  0  0
  5  6  2  0  0  0  0
  6  1  1  0  0  0  0
  8  3  1  0  0  0  0
  9 13  1  0  0  0  0
  9 10  1  0  0  0  0
 10 15  1  0  0  0  0
 10 11  1  0  0  0  0
 11 16  1  1  0  0  0
 11 21  1  0  0  0  0
 12 18  1  0  0  0  0
 12 11  1  0  0  0  0
 13 20  1  0  0  0  0
 13 12  1  0  0  0  0
 14 10  1  0  0  0  0
 17 12  1  0  0  0  0
 19 13  1  0  0  0  0
 21 24  1  0  0  0  0
 21 23  1  0  0  0  0
 22 21  1  0  0  0  0
 25  5  1  0  0  0  0
 25 26  1  0  0  0  0
 26 30  1  0  0  0  0
 27 26  2  0  0  0  0
 27 28  1  0  0  0  0
 28 29  2  0  0  0  0
 29 35  1  0  0  0  0
 30 29  1  0  0  0  0
 31 27  1  0  0  0  0
 32 28  1  0  0  0  0
 33 34  1  0  0  0  0
 34 41  1  0  0  0  0
 35 36  1  0  0  0  0
 35 34  2  0  0  0  0
 36 38  2  0  0  0  0
 37 36  1  0  0  0  0
 38 39  1  0  0  0  0
 38 40  1  0  0  0  0
 41 40  2  0  0  0  0
M  END
>  <minimizedAffinity>
-6.82891607

$$$$

 OpenBabel03272503353D

 41 44  0  0  1  0  0  0  0  0999 V2000
   39.4990   24.8120   33.9400 C   0  0  0  0  0  0  0  0  0  0  0  0
   40.7980   25.2750   33.7350 C   0  0  0  0  0  0  0  0  0  0  0  0
   40.9730   26.2800   32.7740 C   0  0  0  0  0  0  0  0  0  0  0  0
   39.8470   26.7280   32.1110 N   0  0  0  0  0  0  0  0  0  0  0  0
   38.6270   26.2500   32.3450 C   0  0  0  0  0  0  0  0  0  0  0  0
   38.4480   25.2890   33.2610 N   0  0  0  0  0  0  0  0  0  0  0  0
   41.6600   24.9020   34.2730 H   0  0  0  0  0  0  0  0  0  0  0  0
   41.9330   26.7090   32.5390 H   0  0  0  0  0  0  0  0  0  0  0  0
   39.3290   23.7790   34.9280 N   0  0  0  0  0  0  0  0  0  0  0  0
   39.8900   23.7380   36.2430 C   0  0  0  0  0  0  0  0  0  0  0  0
   38.8690   22.9060   37.0110 C   0  0  2  0  0  0  0  0  0  0  0  0
   37.7200   22.6370   36.0420 C   0  0  0  0  0  0  0  0  0  0  0  0
   38.5380   22.5610   34.7670 C   0  0  0  0  0  0  0  0  0  0  0  0
   40.9010   23.3160   36.2910 H   0  0  0  0  0  0  0  0  0  0  0  0
   39.8850   24.7420   36.7430 H   0  0  0  0  0  0  0  0  0  0  0  0
   39.3660   21.9440   37.2560 H   0  0  0  0  0  0  0  0  0  0  0  0
   37.0020   23.4590   36.0030 H   0  0  0  0  0  0  0  0  0  0  0  0
   37.2860   21.6490   36.3150 H   0  0  0  0  0  0  0  0  0  0  0  0
   37.8850   22.6290   33.8780 H   0  0  0  0  0  0  0  0  0  0  0  0
   39.1840   21.6720   34.7770 H   0  0  0  0  0  0  0  0  0  0  0  0
   38.3910   23.5790   38.2640 C   0  0  0  0  0  0  0  0  0  0  0  0
   37.2570   22.9080   38.6710 F   0  0  0  0  0  0  0  0  0  0  0  0
   37.9960   24.8470   37.8990 F   0  0  0  0  0  0  0  0  0  0  0  0
   39.3400   23.6330   39.2480 F   0  0  0  0  0  0  0  0  0  0  0  0
   37.2120   26.8670   31.4590 S   0  0  0  0  0  0  0  0  0  0  0  0
   36.4230   28.2240   32.0790 C   0  0  0  0  0  0  0  0  0  0  0  0
   35.8330   29.3890   31.6790 C   0  0  0  0  0  0  0  0  0  0  0  0
   35.2650   30.3070   32.4920 C   0  0  0  0  0  0  0  0  0  0  0  0
   35.3400   29.9260   33.9260 C   0  0  0  0  0  0  0  0  0  0  0  0
   36.1950   28.3330   33.9370 S   0  0  0  0  0  0  0  0  0  0  0  0
   35.8810   29.4820   30.6050 H   0  0  0  0  0  0  0  0  0  0  0  0
   34.8080   31.2080   32.1820 H   0  0  0  0  0  0  0  0  0  0  0  0
   32.6860   29.6440   34.6250 F   0  0  0  0  0  0  0  0  0  0  0  0
   33.5040   30.4720   35.3180 C   0  0  0  0  0  0  0  0  0  0  0  0
   34.8390   30.6690   35.0340 C   0  0  0  0  0  0  0  0  0  0  0  0
   35.6860   31.4800   35.6960 C   0  0  0  0  0  0  0  0  0  0  0  0
   36.7280   31.5960   35.4280 H   0  0  0  0  0  0  0  0  0  0  0  0
   35.1540   32.1930   36.7820 C   0  0  0  0  0  0  0  0  0  0  0  0
   35.8090   32.8520   37.3330 H   0  0  0  0  0  0  0  0  0  0  0  0
   33.8050   32.0410   37.1260 C   0  0  0  0  0  3  0  0  0  0  0  0
   32.9700   31.1830   36.4010 C   0  0  0  0  0  3  0  0  0  0  0  0
  1  9  1  0  0  0  0
  2  1  1  0  0  0  0
  2  7  1  0  0  0  0
  3  2  2  0  0  0  0
  4  5  2  0  0  0  0
  4  3  1  0  0  0  0
  5  6  1  0  0  0  0
  6  1  2  0  0  0  0
  8  3  1  0  0  0  0
  9 10  1  0  0  0  0
 10 14  1  0  0  0  0
 10 15  1  0  0  0  0
 10 11  1  0  0  0  0
 11 16  1  1  0  0  0
 11 21  1  0  0  0  0
 12 18  1  0  0  0  0
 12 11  1  0  0  0  0
 13 20  1  0  0  0  0
 13  9  1  0  0  0  0
 13 12  1  0  0  0  0
 17 12  1  0  0  0  0
 19 13  1  0  0  0  0
 21 22  1  0  0  0  0
 21 24  1  0  0  0  0
 23 21  1  0  0  0  0
 25 26  1  0  0  0  0
 25  5  1  0  0  0  0
 26 30  1  0  0  0  0
 27 26  2  0  0  0  0
 27 28  1  0  0  0  0
 28 29  2  0  0  0  0
 29 30  1  0  0  0  0
 29 35  1  0  0  0  0
 31 27  1  0  0  0  0
 32 28  1  0  0  0  0
 33 34  1  0  0  0  0
 34 41  1  0  0  0  0
 35 34  2  0  0  0  0
 35 36  1  0  0  0  0
 36 38  2  0  0  0  0
 37 36  1  0  0  0  0
 38 40  1  0  0  0  0
 38 39  1  0  0  0  0
 41 40  2  0  0  0  0
M  END
>  <minimizedAffinity>
-6.49983168

$$$$

 OpenBabel03272503353D

 41 44  0  0  1  0  0  0  0  0999 V2000
   39.7310   25.1380   33.9770 C   0  0  0  0  0  0  0  0  0  0  0  0
   40.9670   25.7650   34.1280 C   0  0  0  0  0  0  0  0  0  0  0  0
   41.1590   26.9720   33.4420 C   0  0  0  0  0  0  0  0  0  0  0  0
   40.1090   27.4400   32.6750 N   0  0  0  0  0  0  0  0  0  0  0  0
   38.9470   26.8000   32.5650 C   0  0  0  0  0  0  0  0  0  0  0  0
   38.7530   25.6460   33.2160 N   0  0  0  0  0  0  0  0  0  0  0  0
   41.7700   25.3710   34.7380 H   0  0  0  0  0  0  0  0  0  0  0  0
   42.0740   27.5380   33.4890 H   0  0  0  0  0  0  0  0  0  0  0  0
   39.5440   23.8990   34.6850 N   0  0  0  0  0  0  0  0  0  0  0  0
   40.5560   22.9740   35.0940 C   0  0  0  0  0  0  0  0  0  0  0  0
   39.9330   22.3260   36.3250 C   0  0  2  0  0  0  0  0  0  0  0  0
   38.6140   23.0560   36.5720 C   0  0  0  0  0  0  0  0  0  0  0  0
   38.2650   23.3480   35.1250 C   0  0  0  0  0  0  0  0  0  0  0  0
   40.8370   22.2420   34.3270 H   0  0  0  0  0  0  0  0  0  0  0  0
   41.4800   23.4880   35.4700 H   0  0  0  0  0  0  0  0  0  0  0  0
   39.7140   21.2720   36.0500 H   0  0  0  0  0  0  0  0  0  0  0  0
   38.7470   23.9790   37.1400 H   0  0  0  0  0  0  0  0  0  0  0  0
   37.9130   22.3220   37.0280 H   0  0  0  0  0  0  0  0  0  0  0  0
   37.4650   24.1080   35.0610 H   0  0  0  0  0  0  0  0  0  0  0  0
   38.0370   22.4160   34.5890 H   0  0  0  0  0  0  0  0  0  0  0  0
   40.8280   22.3750   37.5280 C   0  0  0  0  0  0  0  0  0  0  0  0
   40.1360   23.0450   38.5150 F   0  0  0  0  0  0  0  0  0  0  0  0
   41.9010   23.1670   37.1840 F   0  0  0  0  0  0  0  0  0  0  0  0
   41.2510   21.1410   37.9410 F   0  0  0  0  0  0  0  0  0  0  0  0
   37.6300   27.4520   31.5610 S   0  0  0  0  0  0  0  0  0  0  0  0
   36.6790   28.6870   32.2120 C   0  0  0  0  0  0  0  0  0  0  0  0
   36.0760   29.8610   31.8640 C   0  0  0  0  0  0  0  0  0  0  0  0
   35.3470   30.6470   32.6870 C   0  0  0  0  0  0  0  0  0  0  0  0
   35.2510   30.1020   34.0650 C   0  0  0  0  0  0  0  0  0  0  0  0
   36.1960   28.5620   34.0190 S   0  0  0  0  0  0  0  0  0  0  0  0
   36.2620   30.0840   30.8250 H   0  0  0  0  0  0  0  0  0  0  0  0
   34.8790   31.5570   32.4180 H   0  0  0  0  0  0  0  0  0  0  0  0
   36.6450   31.7260   35.8050 F   0  0  0  0  0  0  0  0  0  0  0  0
   35.3260   31.4800   35.9880 C   0  0  0  0  0  0  0  0  0  0  0  0
   34.5590   30.6820   35.1670 C   0  0  0  0  0  0  0  0  0  0  0  0
   33.2470   30.4120   35.3120 C   0  0  0  0  0  0  0  0  0  0  0  0
   32.6940   29.7760   34.6340 H   0  0  0  0  0  0  0  0  0  0  0  0
   32.6010   31.0030   36.4090 C   0  0  0  0  0  0  0  0  0  0  0  0
   31.5490   30.8050   36.5530 H   0  0  0  0  0  0  0  0  0  0  0  0
   33.3200   31.8260   37.2840 C   0  0  0  0  0  3  0  0  0  0  0  0
   34.6830   32.0720   37.0850 C   0  0  0  0  0  3  0  0  0  0  0  0
  1  2  1  0  0  0  0
  1  9  1  0  0  0  0
  2  7  1  0  0  0  0
  3  8  1  0  0  0  0
  3  2  2  0  0  0  0
  4  3  1  0  0  0  0
  5  4  2  0  0  0  0
  5  6  1  0  0  0  0
  6  1  2  0  0  0  0
  9 10  1  0  0  0  0
  9 13  1  0  0  0  0
 10 15  1  0  0  0  0
 10 11  1  0  0  0  0
 11 16  1  6  0  0  0
 11 12  1  0  0  0  0
 11 21  1  0  0  0  0
 12 18  1  0  0  0  0
 12 17  1  0  0  0  0
 13 12  1  0  0  0  0
 14 10  1  0  0  0  0
 19 13  1  0  0  0  0
 20 13  1  0  0  0  0
 21 24  1  0  0  0  0
 21 22  1  0  0  0  0
 23 21  1  0  0  0  0
 25 26  1  0  0  0  0
 25  5  1  0  0  0  0
 26 30  1  0  0  0  0
 27 26  2  0  0  0  0
 27 28  1  0  0  0  0
 28 29  2  0  0  0  0
 29 35  1  0  0  0  0
 30 29  1  0  0  0  0
 31 27  1  0  0  0  0
 32 28  1  0  0  0  0
 33 34  1  0  0  0  0
 34 41  1  0  0  0  0
 35 36  1  0  0  0  0
 35 34  2  0  0  0  0
 36 38  2  0  0  0  0
 37 36  1  0  0  0  0
 38 39  1  0  0  0  0
 38 40  1  0  0  0  0
 41 40  2  0  0  0  0
M  END
>  <minimizedAffinity>
-6.47872305

$$$$

 OpenBabel03272503353D

 41 44  0  0  1  0  0  0  0  0999 V2000
   37.9260   23.7350   32.9470 C   0  0  0  0  0  0  0  0  0  0  0  0
   38.4620   23.7790   34.2330 C   0  0  0  0  0  0  0  0  0  0  0  0
   38.7660   25.0430   34.7550 C   0  0  0  0  0  0  0  0  0  0  0  0
   38.5100   26.1390   33.9530 N   0  0  0  0  0  0  0  0  0  0  0  0
   37.9960   26.0410   32.7300 C   0  0  0  0  0  0  0  0  0  0  0  0
   37.7020   24.8380   32.2210 N   0  0  0  0  0  0  0  0  0  0  0  0
   38.6510   22.8990   34.8350 H   0  0  0  0  0  0  0  0  0  0  0  0
   39.1830   25.1910   35.7370 H   0  0  0  0  0  0  0  0  0  0  0  0
   37.6180   22.4310   32.4200 N   0  0  0  0  0  0  0  0  0  0  0  0
   37.4670   21.2130   33.1540 C   0  0  0  0  0  0  0  0  0  0  0  0
   36.4990   20.4200   32.2830 C   0  0  2  0  0  0  0  0  0  0  0  0
   36.0890   21.3500   31.1430 C   0  0  0  0  0  0  0  0  0  0  0  0
   37.3970   22.1070   31.0120 C   0  0  0  0  0  0  0  0  0  0  0  0
   38.4060   20.6770   33.3390 H   0  0  0  0  0  0  0  0  0  0  0  0
   36.9300   21.3630   34.1270 H   0  0  0  0  0  0  0  0  0  0  0  0
   37.0780   19.5700   31.8630 H   0  0  0  0  0  0  0  0  0  0  0  0
   35.2720   22.0180   31.4210 H   0  0  0  0  0  0  0  0  0  0  0  0
   35.8900   20.7110   30.2550 H   0  0  0  0  0  0  0  0  0  0  0  0
   37.2600   23.0240   30.4120 H   0  0  0  0  0  0  0  0  0  0  0  0
   38.1890   21.4440   30.6360 H   0  0  0  0  0  0  0  0  0  0  0  0
   35.3080   19.9150   33.0430 C   0  0  0  0  0  0  0  0  0  0  0  0
   34.1910   20.2620   32.3130 F   0  0  0  0  0  0  0  0  0  0  0  0
   35.2590   20.6370   34.2160 F   0  0  0  0  0  0  0  0  0  0  0  0
   35.3580   18.5730   33.3040 F   0  0  0  0  0  0  0  0  0  0  0  0
   37.6870   27.4900   31.7430 S   0  0  0  0  0  0  0  0  0  0  0  0
   36.5990   28.6340   32.3420 C   0  0  0  0  0  0  0  0  0  0  0  0
   35.8040   29.6660   31.9300 C   0  0  0  0  0  0  0  0  0  0  0  0
   35.0140   30.4190   32.7260 C   0  0  0  0  0  0  0  0  0  0  0  0
   35.0830   30.0140   34.1530 C   0  0  0  0  0  0  0  0  0  0  0  0
   36.2480   28.6310   34.1840 S   0  0  0  0  0  0  0  0  0  0  0  0
   35.8930   29.8030   30.8630 H   0  0  0  0  0  0  0  0  0  0  0  0
   34.3980   31.2170   32.4070 H   0  0  0  0  0  0  0  0  0  0  0  0
   32.5000   29.1900   34.6590 F   0  0  0  0  0  0  0  0  0  0  0  0
   33.0930   30.1330   35.4280 C   0  0  0  0  0  0  0  0  0  0  0  0
   34.3770   30.5990   35.2430 C   0  0  0  0  0  0  0  0  0  0  0  0
   35.0040   31.5340   35.9830 C   0  0  0  0  0  0  0  0  0  0  0  0
   36.0170   31.8620   35.7900 H   0  0  0  0  0  0  0  0  0  0  0  0
   34.2740   32.0850   37.0470 C   0  0  0  0  0  0  0  0  0  0  0  0
   34.7500   32.8380   37.6590 H   0  0  0  0  0  0  0  0  0  0  0  0
   32.9640   31.6590   37.2940 C   0  0  0  0  0  3  0  0  0  0  0  0
   32.3620   30.6830   36.4910 C   0  0  0  0  0  3  0  0  0  0  0  0
  1  2  1  0  0  0  0
  2  3  2  0  0  0  0
  2  7  1  0  0  0  0
  3  8  1  0  0  0  0
  4  3  1  0  0  0  0
  5  4  2  0  0  0  0
  6  5  1  0  0  0  0
  6  1  2  0  0  0  0
  9  1  1  0  0  0  0
  9 10  1  0  0  0  0
 10 14  1  0  0  0  0
 10 15  1  0  0  0  0
 11 16  1  6  0  0  0
 11 21  1  0  0  0  0
 11 10  1  0  0  0  0
 12 17  1  0  0  0  0
 12 11  1  0  0  0  0
 13 12  1  0  0  0  0
 13  9  1  0  0  0  0
 18 12  1  0  0  0  0
 19 13  1  0  0  0  0
 20 13  1  0  0  0  0
 21 24  1  0  0  0  0
 21 23  1  0  0  0  0
 22 21  1  0  0  0  0
 25 26  1  0  0  0  0
 25  5  1  0  0  0  0
 26 30  1  0  0  0  0
 27 26  2  0  0  0  0
 27 28  1  0  0  0  0
 28 29  2  0  0  0  0
 29 30  1  0  0  0  0
 29 35  1  0  0  0  0
 31 27  1  0  0  0  0
 32 28  1  0  0  0  0
 33 34  1  0  0  0  0
 34 41  1  0  0  0  0
 35 34  2  0  0  0  0
 35 36  1  0  0  0  0
 36 38  2  0  0  0  0
 37 36  1  0  0  0  0
 38 40  1  0  0  0  0
 38 39  1  0  0  0  0
 41 40  2  0  0  0  0
M  END
>  <minimizedAffinity>
-6.38015127

$$$$

 OpenBabel03272503353D

 41 44  0  0  1  0  0  0  0  0999 V2000
   36.1440   29.3720   31.9360 C   0  0  0  0  0  0  0  0  0  0  0  0
   36.0930   30.2900   30.8880 C   0  0  0  0  0  0  0  0  0  0  0  0
   36.9270   30.0490   29.7870 C   0  0  0  0  0  0  0  0  0  0  0  0
   37.7270   28.9230   29.8320 N   0  0  0  0  0  0  0  0  0  0  0  0
   37.7370   28.0780   30.8590 C   0  0  0  0  0  0  0  0  0  0  0  0
   36.9450   28.2990   31.9160 N   0  0  0  0  0  0  0  0  0  0  0  0
   35.4530   31.1630   30.8840 H   0  0  0  0  0  0  0  0  0  0  0  0
   36.9650   30.6930   28.9250 H   0  0  0  0  0  0  0  0  0  0  0  0
   35.2850   29.6290   33.0620 N   0  0  0  0  0  0  0  0  0  0  0  0
   35.6350   29.5790   34.4480 C   0  0  0  0  0  0  0  0  0  0  0  0
   34.6640   30.5760   35.0700 C   0  0  2  0  0  0  0  0  0  0  0  0
   33.8950   31.2050   33.9090 C   0  0  0  0  0  0  0  0  0  0  0  0
   33.8720   29.9950   32.9950 C   0  0  0  0  0  0  0  0  0  0  0  0
   35.5630   28.5810   34.8970 H   0  0  0  0  0  0  0  0  0  0  0  0
   36.6550   30.0020   34.6470 H   0  0  0  0  0  0  0  0  0  0  0  0
   33.9570   29.9830   35.6890 H   0  0  0  0  0  0  0  0  0  0  0  0
   34.4350   32.0370   33.4510 H   0  0  0  0  0  0  0  0  0  0  0  0
   32.8800   31.4580   34.2880 H   0  0  0  0  0  0  0  0  0  0  0  0
   33.5870   30.2860   31.9680 H   0  0  0  0  0  0  0  0  0  0  0  0
   33.2430   29.2020   33.4230 H   0  0  0  0  0  0  0  0  0  0  0  0
   35.3480   31.6140   35.9090 C   0  0  0  0  0  0  0  0  0  0  0  0
   34.6870   31.6500   37.1190 F   0  0  0  0  0  0  0  0  0  0  0  0
   35.1210   32.8250   35.2940 F   0  0  0  0  0  0  0  0  0  0  0  0
   36.6900   31.3930   36.0600 F   0  0  0  0  0  0  0  0  0  0  0  0
   38.7910   26.6440   30.8610 S   0  0  0  0  0  0  0  0  0  0  0  0
   38.5690   25.5040   32.0860 C   0  0  0  0  0  0  0  0  0  0  0  0
   37.9520   24.3100   32.3310 C   0  0  0  0  0  0  0  0  0  0  0  0
   37.9800   23.6330   33.5000 C   0  0  0  0  0  0  0  0  0  0  0  0
   38.7750   24.3260   34.5460 C   0  0  0  0  0  0  0  0  0  0  0  0
   39.3750   25.8320   33.7470 S   0  0  0  0  0  0  0  0  0  0  0  0
   37.4280   23.9730   31.4500 H   0  0  0  0  0  0  0  0  0  0  0  0
   37.5030   22.7080   33.6890 H   0  0  0  0  0  0  0  0  0  0  0  0
   37.0000   25.0750   36.5190 F   0  0  0  0  0  0  0  0  0  0  0  0
   38.0720   24.2990   36.8060 C   0  0  0  0  0  0  0  0  0  0  0  0
   39.0030   23.8810   35.8800 C   0  0  0  0  0  0  0  0  0  0  0  0
   40.0810   23.1090   36.1220 C   0  0  0  0  0  0  0  0  0  0  0  0
   40.7810   22.8110   35.3520 H   0  0  0  0  0  0  0  0  0  0  0  0
   40.2700   22.6910   37.4470 C   0  0  0  0  0  0  0  0  0  0  0  0
   41.1250   22.0720   37.6730 H   0  0  0  0  0  0  0  0  0  0  0  0
   39.3610   23.0790   38.4400 C   0  0  0  0  0  3  0  0  0  0  0  0
   38.2580   23.8830   38.1310 C   0  0  0  0  0  3  0  0  0  0  0  0
  1  9  1  0  0  0  0
  2  1  2  0  0  0  0
  3  4  2  0  0  0  0
  3  2  1  0  0  0  0
  4  5  1  0  0  0  0
  5 25  1  0  0  0  0
  5  6  2  0  0  0  0
  6  1  1  0  0  0  0
  7  2  1  0  0  0  0
  8  3  1  0  0  0  0
  9 10  1  0  0  0  0
 10 15  1  0  0  0  0
 10 14  1  0  0  0  0
 10 11  1  0  0  0  0
 11 16  1  1  0  0  0
 11 21  1  0  0  0  0
 12 18  1  0  0  0  0
 12 11  1  0  0  0  0
 13  9  1  0  0  0  0
 13 20  1  0  0  0  0
 13 12  1  0  0  0  0
 17 12  1  0  0  0  0
 19 13  1  0  0  0  0
 21 24  1  0  0  0  0
 21 22  1  0  0  0  0
 23 21  1  0  0  0  0
 25 26  1  0  0  0  0
 26 27  2  0  0  0  0
 26 30  1  0  0  0  0
 27 28  1  0  0  0  0
 28 32  1  0  0  0  0
 28 29  2  0  0  0  0
 29 35  1  0  0  0  0
 30 29  1  0  0  0  0
 31 27  1  0  0  0  0
 33 34  1  0  0  0  0
 34 41  1  0  0  0  0
 35 36  1  0  0  0  0
 35 34  2  0  0  0  0
 36 38  2  0  0  0  0
 37 36  1  0  0  0  0
 38 39  1  0  0  0  0
 38 40  1  0  0  0  0
 41 40  2  0  0  0  0
M  END
>  <minimizedAffinity>
-6.15481234

$$$$

 OpenBabel03272503353D

 41 44  0  0  1  0  0  0  0  0999 V2000
   35.9360   28.9560   34.2270 C   0  0  0  0  0  0  0  0  0  0  0  0
   36.8330   28.5310   35.2060 C   0  0  0  0  0  0  0  0  0  0  0  0
   37.6280   27.4170   34.9030 C   0  0  0  0  0  0  0  0  0  0  0  0
   37.4580   26.8340   33.6620 N   0  0  0  0  0  0  0  0  0  0  0  0
   36.5850   27.2800   32.7630 C   0  0  0  0  0  0  0  0  0  0  0  0
   35.8200   28.3440   33.0410 N   0  0  0  0  0  0  0  0  0  0  0  0
   36.9430   29.0110   36.1700 H   0  0  0  0  0  0  0  0  0  0  0  0
   38.3530   27.0080   35.5860 H   0  0  0  0  0  0  0  0  0  0  0  0
   35.1240   30.1000   34.5480 N   0  0  0  0  0  0  0  0  0  0  0  0
   33.6960   30.1610   34.5980 C   0  0  0  0  0  0  0  0  0  0  0  0
   33.4490   31.2650   35.6210 C   0  0  2  0  0  0  0  0  0  0  0  0
   34.8210   31.6650   36.1580 C   0  0  0  0  0  0  0  0  0  0  0  0
   35.6170   31.4330   34.8880 C   0  0  0  0  0  0  0  0  0  0  0  0
   33.2170   30.3650   33.6320 H   0  0  0  0  0  0  0  0  0  0  0  0
   33.2430   29.2390   35.0480 H   0  0  0  0  0  0  0  0  0  0  0  0
   33.0180   32.1220   35.0610 H   0  0  0  0  0  0  0  0  0  0  0  0
   35.1630   31.0120   36.9640 H   0  0  0  0  0  0  0  0  0  0  0  0
   34.7680   32.7450   36.4210 H   0  0  0  0  0  0  0  0  0  0  0  0
   36.7000   31.4090   35.1040 H   0  0  0  0  0  0  0  0  0  0  0  0
   35.3330   32.1620   34.1170 H   0  0  0  0  0  0  0  0  0  0  0  0
   32.5230   30.8430   36.7230 C   0  0  0  0  0  0  0  0  0  0  0  0
   31.3720   31.5900   36.5860 F   0  0  0  0  0  0  0  0  0  0  0  0
   33.1160   31.2370   37.9030 F   0  0  0  0  0  0  0  0  0  0  0  0
   32.2680   29.5000   36.7350 F   0  0  0  0  0  0  0  0  0  0  0  0
   36.4080   26.4870   31.1790 S   0  0  0  0  0  0  0  0  0  0  0  0
   36.8840   24.8720   31.0490 C   0  0  0  0  0  0  0  0  0  0  0  0
   37.9430   24.1020   30.6610 C   0  0  0  0  0  0  0  0  0  0  0  0
   37.9890   22.7520   30.6880 C   0  0  0  0  0  0  0  0  0  0  0  0
   36.7320   22.1460   31.1980 C   0  0  0  0  0  0  0  0  0  0  0  0
   35.6590   23.5520   31.5700 S   0  0  0  0  0  0  0  0  0  0  0  0
   38.7560   24.7270   30.3240 H   0  0  0  0  0  0  0  0  0  0  0  0
   38.8100   22.1560   30.3890 H   0  0  0  0  0  0  0  0  0  0  0  0
   35.6250   21.2660   33.5660 F   0  0  0  0  0  0  0  0  0  0  0  0
   35.9040   20.3990   32.5630 C   0  0  0  0  0  0  0  0  0  0  0  0
   36.4560   20.7570   31.3520 C   0  0  0  0  0  0  0  0  0  0  0  0
   36.7480   19.9290   30.3300 C   0  0  0  0  0  0  0  0  0  0  0  0
   37.1820   20.2670   29.3990 H   0  0  0  0  0  0  0  0  0  0  0  0
   36.4590   18.5690   30.5210 C   0  0  0  0  0  0  0  0  0  0  0  0
   36.6820   17.8790   29.7200 H   0  0  0  0  0  0  0  0  0  0  0  0
   35.8970   18.1350   31.7280 C   0  0  0  0  0  3  0  0  0  0  0  0
   35.6150   19.0410   32.7570 C   0  0  0  0  0  3  0  0  0  0  0  0
  1  9  1  0  0  0  0
  1  2  1  0  0  0  0
  2  7  1  0  0  0  0
  3  2  2  0  0  0  0
  3  8  1  0  0  0  0
  4  3  1  0  0  0  0
  5  6  1  0  0  0  0
  5  4  2  0  0  0  0
  6  1  2  0  0  0  0
  9 10  1  0  0  0  0
  9 13  1  0  0  0  0
 10 15  1  0  0  0  0
 10 11  1  0  0  0  0
 11 16  1  6  0  0  0
 11 12  1  0  0  0  0
 11 21  1  0  0  0  0
 12 18  1  0  0  0  0
 12 17  1  0  0  0  0
 13 19  1  0  0  0  0
 13 12  1  0  0  0  0
 14 10  1  0  0  0  0
 20 13  1  0  0  0  0
 21 24  1  0  0  0  0
 21 23  1  0  0  0  0
 22 21  1  0  0  0  0
 25  5  1  0  0  0  0
 26 25  1  0  0  0  0
 26 30  1  0  0  0  0
 27 28  1  0  0  0  0
 27 26  2  0  0  0  0
 28 29  2  0  0  0  0
 29 35  1  0  0  0  0
 29 30  1  0  0  0  0
 31 27  1  0  0  0  0
 32 28  1  0  0  0  0
 34 41  1  0  0  0  0
 34 33  1  0  0  0  0
 35 34  2  0  0  0  0
 36 38  2  0  0  0  0
 36 35  1  0  0  0  0
 37 36  1  0  0  0  0
 38 40  1  0  0  0  0
 39 38  1  0  0  0  0
 40 41  2  0  0  0  0
M  END
>  <minimizedAffinity>
-6.11821127

$$$$

 OpenBabel03272503353D

 41 44  0  0  1  0  0  0  0  0999 V2000
   37.8770   23.2690   31.4960 C   0  0  0  0  0  0  0  0  0  0  0  0
   39.0080   23.0770   30.7050 C   0  0  0  0  0  0  0  0  0  0  0  0
   39.4520   24.1710   29.9490 C   0  0  0  0  0  0  0  0  0  0  0  0
   38.7330   25.3470   30.0510 N   0  0  0  0  0  0  0  0  0  0  0  0
   37.6570   25.4760   30.8230 C   0  0  0  0  0  0  0  0  0  0  0  0
   37.2240   24.4370   31.5490 N   0  0  0  0  0  0  0  0  0  0  0  0
   39.5500   22.1410   30.6470 H   0  0  0  0  0  0  0  0  0  0  0  0
   40.3150   24.1320   29.3070 H   0  0  0  0  0  0  0  0  0  0  0  0
   37.4280   22.1390   32.2670 N   0  0  0  0  0  0  0  0  0  0  0  0
   36.0860   21.8360   32.6580 C   0  0  0  0  0  0  0  0  0  0  0  0
   36.1110   20.3150   32.7680 C   0  0  2  0  0  0  0  0  0  0  0  0
   37.4960   19.8750   32.3000 C   0  0  0  0  0  0  0  0  0  0  0  0
   38.2760   21.0760   32.8010 C   0  0  0  0  0  0  0  0  0  0  0  0
   35.7650   22.3220   33.5880 H   0  0  0  0  0  0  0  0  0  0  0  0
   35.3430   22.0580   31.8490 H   0  0  0  0  0  0  0  0  0  0  0  0
   36.0030   20.0750   33.8470 H   0  0  0  0  0  0  0  0  0  0  0  0
   37.5630   19.7850   31.2140 H   0  0  0  0  0  0  0  0  0  0  0  0
   37.7540   18.9500   32.8630 H   0  0  0  0  0  0  0  0  0  0  0  0
   39.2820   21.1070   32.3450 H   0  0  0  0  0  0  0  0  0  0  0  0
   38.2840   21.0980   33.8990 H   0  0  0  0  0  0  0  0  0  0  0  0
   35.0220   19.6540   31.9760 C   0  0  0  0  0  0  0  0  0  0  0  0
   34.8350   18.4010   32.5200 F   0  0  0  0  0  0  0  0  0  0  0  0
   35.5220   19.4680   30.7060 F   0  0  0  0  0  0  0  0  0  0  0  0
   33.8620   20.3780   31.9370 F   0  0  0  0  0  0  0  0  0  0  0  0
   36.7700   27.0170   30.9140 S   0  0  0  0  0  0  0  0  0  0  0  0
   36.5590   27.7170   32.4370 C   0  0  0  0  0  0  0  0  0  0  0  0
   36.9270   27.5560   33.7420 C   0  0  0  0  0  0  0  0  0  0  0  0
   36.5520   28.3490   34.7700 C   0  0  0  0  0  0  0  0  0  0  0  0
   35.6650   29.4610   34.3430 C   0  0  0  0  0  0  0  0  0  0  0  0
   35.4790   29.2440   32.5580 S   0  0  0  0  0  0  0  0  0  0  0  0
   37.5690   26.6960   33.8460 H   0  0  0  0  0  0  0  0  0  0  0  0
   36.8370   28.2250   35.7810 H   0  0  0  0  0  0  0  0  0  0  0  0
   32.9500   29.4090   34.8320 F   0  0  0  0  0  0  0  0  0  0  0  0
   33.7360   30.3720   35.3700 C   0  0  0  0  0  0  0  0  0  0  0  0
   35.0970   30.4680   35.1760 C   0  0  0  0  0  0  0  0  0  0  0  0
   35.9140   31.4070   35.6910 C   0  0  0  0  0  0  0  0  0  0  0  0
   36.9800   31.4340   35.5040 H   0  0  0  0  0  0  0  0  0  0  0  0
   35.3180   32.3810   36.5060 C   0  0  0  0  0  0  0  0  0  0  0  0
   35.9470   33.1480   36.9340 H   0  0  0  0  0  0  0  0  0  0  0  0
   33.9390   32.3430   36.7470 C   0  0  0  0  0  3  0  0  0  0  0  0
   33.1370   31.3430   36.1840 C   0  0  0  0  0  3  0  0  0  0  0  0
  1  6  1  0  0  0  0
  1  9  1  0  0  0  0
  2  1  2  0  0  0  0
  3  4  2  0  0  0  0
  3  2  1  0  0  0  0
  4  5  1  0  0  0  0
  5 25  1  0  0  0  0
  5  6  2  0  0  0  0
  7  2  1  0  0  0  0
  8  3  1  0  0  0  0
  9 10  1  0  0  0  0
  9 13  1  0  0  0  0
 10 11  1  0  0  0  0
 10 14  1  0  0  0  0
 11 16  1  1  0  0  0
 12 11  1  0  0  0  0
 12 13  1  0  0  0  0
 12 18  1  0  0  0  0
 13 20  1  0  0  0  0
 15 10  1  0  0  0  0
 17 12  1  0  0  0  0
 19 13  1  0  0  0  0
 21 22  1  0  0  0  0
 21 11  1  0  0  0  0
 23 21  1  0  0  0  0
 24 21  1  0  0  0  0
 25 26  1  0  0  0  0
 26 30  1  0  0  0  0
 26 27  2  0  0  0  0
 27 31  1  0  0  0  0
 27 28  1  0  0  0  0
 28 32  1  0  0  0  0
 29 28  2  0  0  0  0
 29 35  1  0  0  0  0
 30 29  1  0  0  0  0
 33 34  1  0  0  0  0
 34 41  1  0  0  0  0
 35 34  2  0  0  0  0
 35 36  1  0  0  0  0
 36 38  2  0  0  0  0
 37 36  1  0  0  0  0
 38 40  1  0  0  0  0
 38 39  1  0  0  0  0
 41 40  2  0  0  0  0
M  END
>  <minimizedAffinity>
-6.07941818

$$$$

 OpenBabel03272503353D

 41 44  0  0  1  0  0  0  0  0999 V2000
   39.6720   26.9600   31.9250 C   0  0  0  0  0  0  0  0  0  0  0  0
   40.7470   26.9510   31.0380 C   0  0  0  0  0  0  0  0  0  0  0  0
   40.5900   27.6580   29.8380 C   0  0  0  0  0  0  0  0  0  0  0  0
   39.3850   28.3030   29.6340 N   0  0  0  0  0  0  0  0  0  0  0  0
   38.3890   28.2790   30.5160 C   0  0  0  0  0  0  0  0  0  0  0  0
   38.5280   27.6070   31.6660 N   0  0  0  0  0  0  0  0  0  0  0  0
   41.6790   26.4350   31.2290 H   0  0  0  0  0  0  0  0  0  0  0  0
   41.3570   27.7170   29.0840 H   0  0  0  0  0  0  0  0  0  0  0  0
   39.8420   26.2320   33.1550 N   0  0  0  0  0  0  0  0  0  0  0  0
   39.8850   26.7670   34.4810 C   0  0  0  0  0  0  0  0  0  0  0  0
   39.3650   25.6070   35.3220 C   0  0  2  0  0  0  0  0  0  0  0  0
   38.9550   24.5140   34.3370 C   0  0  0  0  0  0  0  0  0  0  0  0
   40.0060   24.7850   33.2770 C   0  0  0  0  0  0  0  0  0  0  0  0
   40.8780   27.1090   34.7990 H   0  0  0  0  0  0  0  0  0  0  0  0
   39.1430   27.5940   34.6330 H   0  0  0  0  0  0  0  0  0  0  0  0
   40.2250   25.2440   35.9240 H   0  0  0  0  0  0  0  0  0  0  0  0
   37.9480   24.6630   33.9420 H   0  0  0  0  0  0  0  0  0  0  0  0
   39.1200   23.5370   34.8440 H   0  0  0  0  0  0  0  0  0  0  0  0
   39.7470   24.2770   32.3310 H   0  0  0  0  0  0  0  0  0  0  0  0
   41.0070   24.5360   33.6560 H   0  0  0  0  0  0  0  0  0  0  0  0
   38.2300   25.9990   36.2200 C   0  0  0  0  0  0  0  0  0  0  0  0
   37.0880   25.9970   35.4460 F   0  0  0  0  0  0  0  0  0  0  0  0
   38.4590   27.3060   36.5900 F   0  0  0  0  0  0  0  0  0  0  0  0
   38.1070   25.1990   37.3230 F   0  0  0  0  0  0  0  0  0  0  0  0
   36.8580   29.1300   30.1980 S   0  0  0  0  0  0  0  0  0  0  0  0
   36.3170   30.2370   31.3530 C   0  0  0  0  0  0  0  0  0  0  0  0
   36.2980   31.5770   31.6170 C   0  0  0  0  0  0  0  0  0  0  0  0
   35.7470   32.1590   32.7040 C   0  0  0  0  0  0  0  0  0  0  0  0
   35.1350   31.1750   33.6340 C   0  0  0  0  0  0  0  0  0  0  0  0
   35.4160   29.5680   32.8540 S   0  0  0  0  0  0  0  0  0  0  0  0
   36.7910   32.1210   30.8250 H   0  0  0  0  0  0  0  0  0  0  0  0
   35.7310   33.1970   32.9080 H   0  0  0  0  0  0  0  0  0  0  0  0
   36.6600   31.7580   35.8570 F   0  0  0  0  0  0  0  0  0  0  0  0
   35.3070   31.7390   35.9260 C   0  0  0  0  0  0  0  0  0  0  0  0
   34.4750   31.4580   34.8640 C   0  0  0  0  0  0  0  0  0  0  0  0
   33.1280   31.4300   34.8890 C   0  0  0  0  0  0  0  0  0  0  0  0
   32.5240   31.2020   34.0200 H   0  0  0  0  0  0  0  0  0  0  0  0
   32.5160   31.7150   36.1190 C   0  0  0  0  0  0  0  0  0  0  0  0
   31.4370   31.6990   36.1710 H   0  0  0  0  0  0  0  0  0  0  0  0
   33.3010   32.0100   37.2400 C   0  0  0  0  0  3  0  0  0  0  0  0
   34.6980   32.0250   37.1560 C   0  0  0  0  0  3  0  0  0  0  0  0
  1  9  1  0  0  0  0
  2  7  1  0  0  0  0
  2  1  2  0  0  0  0
  3  2  1  0  0  0  0
  4  3  2  0  0  0  0
  4  5  1  0  0  0  0
  5  6  2  0  0  0  0
  6  1  1  0  0  0  0
  8  3  1  0  0  0  0
  9 13  1  0  0  0  0
  9 10  1  0  0  0  0
 10 15  1  0  0  0  0
 10 14  1  0  0  0  0
 10 11  1  0  0  0  0
 11 16  1  1  0  0  0
 11 21  1  0  0  0  0
 12 18  1  0  0  0  0
 12 11  1  0  0  0  0
 13 20  1  0  0  0  0
 13 12  1  0  0  0  0
 17 12  1  0  0  0  0
 19 13  1  0  0  0  0
 21 23  1  0  0  0  0
 21 24  1  0  0  0  0
 22 21  1  0  0  0  0
 25  5  1  0  0  0  0
 25 26  1  0  0  0  0
 26 27  2  0  0  0  0
 26 30  1  0  0  0  0
 27 28  1  0  0  0  0
 28 32  1  0  0  0  0
 28 29  2  0  0  0  0
 29 35  1  0  0  0  0
 30 29  1  0  0  0  0
 31 27  1  0  0  0  0
 33 34  1  0  0  0  0
 34 41  1  0  0  0  0
 35 36  1  0  0  0  0
 35 34  2  0  0  0  0
 36 38  2  0  0  0  0
 37 36  1  0  0  0  0
 38 39  1  0  0  0  0
 38 40  1  0  0  0  0
 41 40  2  0  0  0  0
M  END
>  <minimizedAffinity>
-5.94663382

$$$$

 OpenBabel03272503353D

 41 44  0  0  1  0  0  0  0  0999 V2000
   37.3640   22.5010   33.4960 C   0  0  0  0  0  0  0  0  0  0  0  0
   37.7530   22.0220   34.7460 C   0  0  0  0  0  0  0  0  0  0  0  0
   38.5550   22.8620   35.5310 C   0  0  0  0  0  0  0  0  0  0  0  0
   38.8930   24.0920   35.0010 N   0  0  0  0  0  0  0  0  0  0  0  0
   38.4950   24.5010   33.7990 C   0  0  0  0  0  0  0  0  0  0  0  0
   37.7290   23.7060   33.0410 N   0  0  0  0  0  0  0  0  0  0  0  0
   37.4700   21.0510   35.1320 H   0  0  0  0  0  0  0  0  0  0  0  0
   38.9090   22.5910   36.5110 H   0  0  0  0  0  0  0  0  0  0  0  0
   36.5420   21.6300   32.6980 N   0  0  0  0  0  0  0  0  0  0  0  0
   36.4660   21.5790   31.2700 C   0  0  0  0  0  0  0  0  0  0  0  0
   36.0730   20.1280   31.0130 C   0  0  2  0  0  0  0  0  0  0  0  0
   36.0710   19.4370   32.3750 C   0  0  0  0  0  0  0  0  0  0  0  0
   35.6160   20.6210   33.2070 C   0  0  0  0  0  0  0  0  0  0  0  0
   35.7600   22.2930   30.8280 H   0  0  0  0  0  0  0  0  0  0  0  0
   37.4690   21.7010   30.7830 H   0  0  0  0  0  0  0  0  0  0  0  0
   35.0350   20.1480   30.6190 H   0  0  0  0  0  0  0  0  0  0  0  0
   37.0660   19.1010   32.6760 H   0  0  0  0  0  0  0  0  0  0  0  0
   35.2990   18.6370   32.3360 H   0  0  0  0  0  0  0  0  0  0  0  0
   35.7900   20.4330   34.2820 H   0  0  0  0  0  0  0  0  0  0  0  0
   34.5780   20.8850   32.9640 H   0  0  0  0  0  0  0  0  0  0  0  0
   36.9860   19.4390   30.0420 C   0  0  0  0  0  0  0  0  0  0  0  0
   36.1860   18.8820   29.0670 F   0  0  0  0  0  0  0  0  0  0  0  0
   37.5660   18.3940   30.7280 F   0  0  0  0  0  0  0  0  0  0  0  0
   37.9430   20.2620   29.5160 F   0  0  0  0  0  0  0  0  0  0  0  0
   38.9630   26.0990   33.1680 S   0  0  0  0  0  0  0  0  0  0  0  0
   37.7740   27.2950   33.0910 C   0  0  0  0  0  0  0  0  0  0  0  0
   37.1710   28.1410   32.2060 C   0  0  0  0  0  0  0  0  0  0  0  0
   36.1930   29.0260   32.5000 C   0  0  0  0  0  0  0  0  0  0  0  0
   35.8120   29.0020   33.9350 C   0  0  0  0  0  0  0  0  0  0  0  0
   36.8750   27.7410   34.6750 S   0  0  0  0  0  0  0  0  0  0  0  0
   37.5860   28.0070   31.2180 H   0  0  0  0  0  0  0  0  0  0  0  0
   35.7260   29.6810   31.8140 H   0  0  0  0  0  0  0  0  0  0  0  0
   36.6120   30.9110   35.7600 F   0  0  0  0  0  0  0  0  0  0  0  0
   35.3020   30.7340   35.4660 C   0  0  0  0  0  0  0  0  0  0  0  0
   34.8200   29.8060   34.5690 C   0  0  0  0  0  0  0  0  0  0  0  0
   33.5280   29.5980   34.2480 C   0  0  0  0  0  0  0  0  0  0  0  0
   33.2070   28.8520   33.5340 H   0  0  0  0  0  0  0  0  0  0  0  0
   32.5830   30.4100   34.8930 C   0  0  0  0  0  0  0  0  0  0  0  0
   31.5380   30.2680   34.6570 H   0  0  0  0  0  0  0  0  0  0  0  0
   33.0020   31.3750   35.8160 C   0  0  0  0  0  3  0  0  0  0  0  0
   34.3590   31.5470   36.1110 C   0  0  0  0  0  3  0  0  0  0  0  0
  1  2  1  0  0  0  0
  2  7  1  0  0  0  0
  2  3  2  0  0  0  0
  3  8  1  0  0  0  0
  4  3  1  0  0  0  0
  5  4  2  0  0  0  0
  6  1  2  0  0  0  0
  6  5  1  0  0  0  0
  9 13  1  0  0  0  0
  9  1  1  0  0  0  0
 10  9  1  0  0  0  0
 11 16  1  6  0  0  0
 11 10  1  0  0  0  0
 11 12  1  0  0  0  0
 12 17  1  0  0  0  0
 12 13  1  0  0  0  0
 13 19  1  0  0  0  0
 14 10  1  0  0  0  0
 15 10  1  0  0  0  0
 18 12  1  0  0  0  0
 20 13  1  0  0  0  0
 21 23  1  0  0  0  0
 21 11  1  0  0  0  0
 22 21  1  0  0  0  0
 24 21  1  0  0  0  0
 25  5  1  0  0  0  0
 26 25  1  0  0  0  0
 26 30  1  0  0  0  0
 27 28  1  0  0  0  0
 27 26  2  0  0  0  0
 28 29  2  0  0  0  0
 29 35  1  0  0  0  0
 29 30  1  0  0  0  0
 31 27  1  0  0  0  0
 32 28  1  0  0  0  0
 34 33  1  0  0  0  0
 34 41  1  0  0  0  0
 35 34  2  0  0  0  0
 36 35  1  0  0  0  0
 36 38  2  0  0  0  0
 37 36  1  0  0  0  0
 38 40  1  0  0  0  0
 39 38  1  0  0  0  0
 40 41  2  0  0  0  0
M  END
>  <minimizedAffinity>
-5.87197208

$$$$
