
     RDKit          3D

 47 51  0  0  0  0  0  0  0  0999 V2000
   36.2401   30.1564   46.8555 C   0  0  0  0  0  0  0  0  0  0  0  0
   37.0758   30.7099   47.7943 C   0  0  0  0  0  0  0  0  0  0  0  0
   38.0725   31.6263   47.4161 C   0  0  0  0  0  0  0  0  0  0  0  0
   38.1687   31.9386   46.0795 C   0  0  0  0  0  0  0  0  0  0  0  0
   39.0434   32.8043   45.4813 N   0  0  0  0  0  0  0  0  0  0  0  0
   38.7438   32.7814   44.1677 C   0  0  0  0  0  0  0  0  0  0  0  0
   37.7449   31.9572   43.9313 N   0  0  0  0  0  0  0  0  0  0  0  0
   37.3472   31.4024   45.1084 C   0  0  0  0  0  0  0  0  0  0  0  0
   36.3655   30.4934   45.5131 C   0  0  0  0  0  0  0  0  0  0  0  0
   37.4855   30.2052   51.5016 C   0  0  0  0  0  0  0  0  0  0  0  0
   37.7976   30.6081   50.2145 C   0  0  0  0  0  0  0  0  0  0  0  0
   36.9213   30.3563   49.1933 C   0  0  0  0  0  0  0  0  0  0  0  0
   35.7517   29.6992   49.5201 N   0  0  0  0  0  0  0  0  0  0  0  0
   35.4471   29.3079   50.7663 C   0  0  0  0  0  0  0  0  0  0  0  0
   36.3023   29.5577   51.7424 N   0  0  0  0  0  0  0  0  0  0  0  0
   39.4524   33.5654   43.2415 O   0  0  0  0  0  0  0  0  0  0  0  0
   39.5609   31.8686   41.7226 N   0  0  0  0  0  0  0  0  0  0  0  0
   39.1901   33.2953   41.8682 C   0  0  1  0  0  0  0  0  0  0  0  0
   37.7872   33.4546   41.5286 C   0  0  0  0  0  0  0  0  0  0  0  0
   37.6228   33.1491   40.1654 O   0  0  0  0  0  0  0  0  0  0  0  0
   38.0640   31.9183   39.7856 C   0  0  0  0  0  0  0  0  0  0  0  0
   39.4402   31.5813   40.3127 C   0  0  2  0  0  0  0  0  0  0  0  0
   35.4565   29.4472   47.0862 H   0  0  0  0  0  0  0  0  0  0  0  0
   38.7472   32.0791   48.1329 H   0  0  0  0  0  0  0  0  0  0  0  0
   39.7913   33.3678   45.9510 H   0  0  0  0  0  0  0  0  0  0  0  0
   35.7230   30.0741   44.7516 H   0  0  0  0  0  0  0  0  0  0  0  0
   38.1966   30.4174   52.2893 H   0  0  0  0  0  0  0  0  0  0  0  0
   38.7055   31.1229   49.9345 H   0  0  0  0  0  0  0  0  0  0  0  0
   34.5194   28.8060   50.9242 H   0  0  0  0  0  0  0  0  0  0  0  0
   40.5884   31.9210   41.9572 H   0  0  0  0  0  0  0  0  0  0  0  0
   39.8127   33.9167   41.2040 H   0  0  0  0  0  0  0  0  0  0  0  0
   37.5643   34.5664   41.5588 H   0  0  0  0  0  0  0  0  0  0  0  0
   36.9739   32.9783   42.0017 H   0  0  0  0  0  0  0  0  0  0  0  0
   37.3754   31.1429   40.1959 H   0  0  0  0  0  0  0  0  0  0  0  0
   38.0971   31.9248   38.6812 H   0  0  0  0  0  0  0  0  0  0  0  0
   40.1821   32.1750   39.7148 H   0  0  0  0  0  0  0  0  0  0  0  0
   37.7623   30.2007   38.4939 F   0  0  0  0  0  0  0  0  0  0  0  0
   38.7586   29.5317   39.1069 C   0  0  0  0  0  0  0  0  0  0  0  0
   39.6282   30.1374   40.0151 C   0  0  0  0  0  0  0  0  0  0  0  0
   40.6203   29.3603   40.5906 C   0  0  0  0  0  0  0  0  0  0  0  0
   41.3056   29.8297   41.3039 H   0  0  0  0  0  0  0  0  0  0  0  0
   40.7889   28.0182   40.3090 C   0  0  0  0  0  0  0  0  0  0  0  0
   41.5631   27.4165   40.7596 H   0  0  0  0  0  0  0  0  0  0  0  0
   39.9024   27.4435   39.3966 C   0  0  0  0  0  0  0  0  0  0  0  0
   38.9133   28.1878   38.8131 C   0  0  0  0  0  0  0  0  0  0  0  0
   39.9588   26.3910   39.1131 H   0  0  0  0  0  0  0  0  0  0  0  0
   38.2246   27.7260   38.0996 H   0  0  0  0  0  0  0  0  0  0  0  0
  1  2  2  0
  2 12  1  0
  3  2  1  0
  4  3  2  0
  5  4  1  0
  6  5  1  0
  7  6  2  0
  7  8  1  0
  8  9  2  0
  8  4  1  0
  9  1  1  0
 10 15  2  0
 11 10  1  0
 12 13  1  0
 12 11  2  0
 13 14  2  0
 14 15  1  0
 16  6  1  0
 17 18  1  0
 18 16  1  0
 19 18  1  0
 20 19  1  0
 21 20  1  0
 21 22  1  0
 22 17  1  0
  1 23  1  0
  3 24  1  0
  5 25  1  0
  9 26  1  0
 10 27  1  0
 11 28  1  0
 14 29  1  0
 17 30  1  0
 18 31  1  6
 19 32  1  0
 19 33  1  0
 21 34  1  0
 21 35  1  0
 22 36  1  6
 37 38  1  0
 38 39  2  0
 39 40  1  0
 40 41  1  0
 40 42  2  0
 42 43  1  0
 42 44  1  0
 44 45  2  0
 45 38  1  0
 44 46  1  0
 45 47  1  0
 22 39  1  0
M  ISO  8  23  14  24  14  25   9  26  14  27  14  28  14  29  14  30   5
M  ISO  8  31  13  32  13  33  13  34  13  35  13  36  13  41  15  43  16
M  END
>  <DihAtoms>  (1) 
20,21,38,37

>  <DihDeg>  (1) 
-90.00001281305508

$$$$
