
 OpenBabel03272507243D

 30 32  0  0  1  0  0  0  0  0999 V2000
   36.8690   29.5090   51.1380 C   0  0  0  0  0  0  0  0  0  0  0  0
   37.7110   30.5810   50.7990 C   0  0  0  0  0  0  0  0  0  0  0  0
   37.7510   30.9850   49.4750 C   0  0  0  0  0  0  0  0  0  0  0  0
   36.9730   30.3150   48.6130 N   0  0  0  0  0  0  0  0  0  0  0  0
   36.1570   29.2830   48.9200 C   0  0  0  0  0  0  0  0  0  0  0  0
   36.1210   28.8900   50.2150 N   0  0  0  0  0  0  0  0  0  0  0  0
   38.5490   32.0460   49.0070 N   0  0  0  0  0  0  0  0  0  0  0  0
   38.9170   33.1890   49.8440 C   0  0  0  0  0  0  0  0  0  0  0  0
   39.6320   34.1470   48.9260 C   0  0  0  0  0  0  0  0  0  0  0  0
   39.0470   33.7500   47.5940 C   0  0  0  0  0  0  0  0  0  0  0  0
   39.1380   32.2550   47.7530 C   0  0  2  0  0  0  0  0  0  0  0  0
   36.8490   29.2030   52.1840 H   0  0  0  0  0  0  0  0  0  0  0  0
   38.3360   31.1190   51.4990 H   0  0  0  0  0  0  0  0  0  0  0  0
   35.5880   28.8370   48.1200 H   0  0  0  0  0  0  0  0  0  0  0  0
   39.5140   32.8740   50.7180 H   0  0  0  0  0  0  0  0  0  0  0  0
   37.9650   33.6880   50.1450 H   0  0  0  0  0  0  0  0  0  0  0  0
   39.4290   35.2020   49.1820 H   0  0  0  0  0  0  0  0  0  0  0  0
   40.7270   33.9660   48.9220 H   0  0  0  0  0  0  0  0  0  0  0  0
   38.0110   34.1360   47.6030 H   0  0  0  0  0  0  0  0  0  0  0  0
   39.6390   34.1260   46.7380 H   0  0  0  0  0  0  0  0  0  0  0  0
   40.2570   32.0670   47.8660 H   0  0  0  0  0  0  0  0  0  0  0  0
   41.0140   30.7910   46.1430 F   0  0  0  0  0  0  0  0  0  0  0  0
   39.6770   30.8580   45.8980 C   0  0  0  0  0  0  0  0  0  0  0  0
   38.6640   31.5020   46.6010 C   0  0  0  0  0  0  0  0  0  0  0  0
   37.3720   31.3730   46.1290 C   0  0  0  0  0  0  0  0  0  0  0  0
   36.6270   31.9030   46.7280 H   0  0  0  0  0  0  0  0  0  0  0  0
   37.0480   30.6500   45.0160 C   0  0  0  0  0  0  0  0  0  0  0  0
   35.9890   30.6500   44.7800 H   0  0  0  0  0  0  0  0  0  0  0  0
   38.0600   30.0050   44.3090 C   0  0  0  0  0  0  0  0  0  0  0  0
   39.3700   30.1160   44.7600 C   0  0  0  0  0  0  0  0  0  0  0  0
  1 12  1  0  0  0  0
  2  1  1  0  0  0  0
  2 13  1  0  0  0  0
  3  2  2  0  0  0  0
  4  5  2  0  0  0  0
  4  3  1  0  0  0  0
  5  6  1  0  0  0  0
  6  1  2  0  0  0  0
  7  3  1  0  0  0  0
  7  8  1  0  0  0  0
  8 16  1  0  0  0  0
  8 15  1  0  0  0  0
  9 17  1  0  0  0  0
  9  8  1  0  0  0  0
 10 19  1  0  0  0  0
 10 11  1  0  0  0  0
 10  9  1  0  0  0  0
 11 21  1  1  0  0  0
 11  7  1  0  0  0  0
 14  5  1  0  0  0  0
 18  9  1  0  0  0  0
 20 10  1  0  0  0  0
 23 22  1  0  0  0  0
 23 24  1  0  0  0  0
 24 11  1  0  0  0  0
 25 24  2  0  0  0  0
 25 26  1  0  0  0  0
 27 25  1  0  0  0  0
 28 27  1  0  0  0  0
 29 30  1  0  0  0  0
 29 27  2  0  0  0  0
 30 23  2  0  0  0  0
M  END
>  <minimizedAffinity>
-5.49504805

>  <minimizedRMSD>
2.17024922

$$$$
