
 OpenBabel03272510273D

 45 49  0  0  1  0  0  0  0  0999 V2000
   39.5350   33.6970   43.6470 O   0  0  0  0  0  0  0  0  0  0  0  0
   36.1530   30.2690   47.0820 C   0  0  0  0  0  0  0  0  0  0  0  0
   37.0220   30.7210   48.0450 C   0  0  0  0  0  0  0  0  0  0  0  0
   38.0660   31.6010   47.7130 C   0  0  0  0  0  0  0  0  0  0  0  0
   38.1750   31.9840   46.3960 C   0  0  0  0  0  0  0  0  0  0  0  0
   39.0930   32.8330   45.8420 N   0  0  0  0  0  0  0  0  0  0  0  0
   38.7890   32.9010   44.5310 C   0  0  0  0  0  0  0  0  0  0  0  0
   37.7450   32.1480   44.2550 N   0  0  0  0  0  0  0  0  0  0  0  0
   37.3210   31.5500   45.4010 C   0  0  0  0  0  0  0  0  0  0  0  0
   36.2920   30.6750   45.7610 C   0  0  0  0  0  0  0  0  0  0  0  0
   35.3320   29.5920   47.2780 H   0  0  0  0  0  0  0  0  0  0  0  0
   38.7680   31.9750   48.4500 H   0  0  0  0  0  0  0  0  0  0  0  0
   39.8730   33.3270   46.3380 H   0  0  0  0  0  0  0  0  0  0  0  0
   35.6250   30.3360   44.9820 H   0  0  0  0  0  0  0  0  0  0  0  0
   37.4020   30.0160   51.7240 C   0  0  0  0  0  0  0  0  0  0  0  0
   37.7280   30.4810   50.4610 C   0  0  0  0  0  0  0  0  0  0  0  0
   36.8530   30.2970   49.4230 C   0  0  0  0  0  0  0  0  0  0  0  0
   35.6720   29.6430   49.7090 N   0  0  0  0  0  0  0  0  0  0  0  0
   35.3530   29.1930   50.9310 C   0  0  0  0  0  0  0  0  0  0  0  0
   36.2060   29.3770   51.9230 N   0  0  0  0  0  0  0  0  0  0  0  0
   38.1120   30.1750   52.5240 H   0  0  0  0  0  0  0  0  0  0  0  0
   38.6460   30.9950   50.2120 H   0  0  0  0  0  0  0  0  0  0  0  0
   34.4160   28.6990   51.0580 H   0  0  0  0  0  0  0  0  0  0  0  0
   39.5620   31.7150   42.5210 N   0  0  0  0  0  0  0  0  0  0  0  0
   39.7020   33.1760   42.3310 C   0  0  1  0  0  0  0  0  0  0  0  0
   38.6700   33.6350   41.4180 C   0  0  0  0  0  0  0  0  0  0  0  0
   38.9050   33.0570   40.1570 O   0  0  0  0  0  0  0  0  0  0  0  0
   38.9790   31.6970   40.1430 C   0  0  0  0  0  0  0  0  0  0  0  0
   39.8570   31.1290   41.2340 C   0  0  2  0  0  0  0  0  0  0  0  0
   40.3840   31.5320   43.1570 H   0  0  0  0  0  0  0  0  0  0  0  0
   40.7000   33.4110   41.9230 H   0  0  0  0  0  0  0  0  0  0  0  0
   38.8660   34.7350   41.2230 H   0  0  0  0  0  0  0  0  0  0  0  0
   37.6290   33.5410   41.5570 H   0  0  0  0  0  0  0  0  0  0  0  0
   37.9610   31.2760   40.3120 H   0  0  0  0  0  0  0  0  0  0  0  0
   39.4040   31.4180   39.1610 H   0  0  0  0  0  0  0  0  0  0  0  0
   40.9240   31.3210   40.9390 H   0  0  0  0  0  0  0  0  0  0  0  0
   41.6740   29.2870   42.3910 F   0  0  0  0  0  0  0  0  0  0  0  0
   40.5520   28.8240   41.8040 C   0  0  0  0  0  0  0  0  0  0  0  0
   39.6080   29.6640   41.2110 C   0  0  0  0  0  0  0  0  0  0  0  0
   38.4880   29.0880   40.6340 C   0  0  0  0  0  0  0  0  0  0  0  0
   37.7440   29.7410   40.1680 H   0  0  0  0  0  0  0  0  0  0  0  0
   38.2640   27.7250   40.6170 C   0  0  0  0  0  0  0  0  0  0  0  0
   37.3900   27.2790   40.1660 H   0  0  0  0  0  0  0  0  0  0  0  0
   39.2270   26.9130   41.2180 C   0  0  0  0  0  3  0  0  0  0  0  0
   40.3420   27.4560   41.7960 C   0  0  0  0  0  3  0  0  0  0  0  0
  1  7  1  0  0  0  0
  2 11  1  0  0  0  0
  2  3  1  0  0  0  0
  3 17  1  0  0  0  0
  4  3  2  0  0  0  0
  4 12  1  0  0  0  0
  5  4  1  0  0  0  0
  6 13  1  0  0  0  0
  6  5  1  0  0  0  0
  7  6  1  0  0  0  0
  8  7  2  0  0  0  0
  8  9  1  0  0  0  0
  9 10  1  0  0  0  0
  9  5  2  0  0  0  0
 10  2  2  0  0  0  0
 14 10  1  0  0  0  0
 15 20  1  0  0  0  0
 15 21  1  0  0  0  0
 16 15  2  0  0  0  0
 17 18  2  0  0  0  0
 17 16  1  0  0  0  0
 18 19  1  0  0  0  0
 19 23  1  0  0  0  0
 19 20  2  0  0  0  0
 22 16  1  0  0  0  0
 24 30  1  0  0  0  0
 25 31  1  6  0  0  0
 25 24  1  0  0  0  0
 25  1  1  0  0  0  0
 26 33  1  0  0  0  0
 26 25  1  0  0  0  0
 27 26  1  0  0  0  0
 28 27  1  0  0  0  0
 28 34  1  0  0  0  0
 28 29  1  0  0  0  0
 29 36  1  6  0  0  0
 29 24  1  0  0  0  0
 32 26  1  0  0  0  0
 35 28  1  0  0  0  0
 38 37  1  0  0  0  0
 39 29  1  0  0  0  0
 39 38  2  0  0  0  0
 40 39  1  0  0  0  0
 41 40  1  0  0  0  0
 42 40  2  0  0  0  0
 42 44  1  0  0  0  0
 43 42  1  0  0  0  0
 44 45  2  0  0  0  0
 45 38  1  0  0  0  0
M  END
>  <minimizedAffinity>
-6.11989403

>  <minimizedRMSD>
0.930630028

$$$$
