
 OpenBabel03272508463D

 27 29  0  0  0  0  0  0  0  0999 V2000
   36.5820   28.7040   32.7070 C   0  0  0  0  0  0  0  0  0  0  0  0
   36.3090   29.7350   31.8190 C   0  0  0  0  0  0  0  0  0  0  0  0
   35.5750   30.6270   32.6150 C   0  0  0  0  0  0  0  0  0  0  0  0
   35.4490   30.1130   33.8780 C   0  0  0  0  0  0  0  0  0  0  0  0
   36.0620   28.9690   33.8930 O   0  0  0  0  0  0  0  0  0  0  0  0
   36.6230   29.7610   30.7880 H   0  0  0  0  0  0  0  0  0  0  0  0
   35.1980   31.5560   32.2220 H   0  0  0  0  0  0  0  0  0  0  0  0
   36.6680   31.8370   35.8140 F   0  0  0  0  0  0  0  0  0  0  0  0
   35.3680   31.5200   35.9530 C   0  0  0  0  0  0  0  0  0  0  0  0
   34.7710   30.6930   35.0280 C   0  0  0  0  0  0  0  0  0  0  0  0
   33.4380   30.4430   35.2820 C   0  0  0  0  0  0  0  0  0  0  0  0
   32.9050   29.7880   34.5780 H   0  0  0  0  0  0  0  0  0  0  0  0
   32.7160   30.9470   36.3440 C   0  0  0  0  0  0  0  0  0  0  0  0
   31.6790   30.6940   36.4560 H   0  0  0  0  0  0  0  0  0  0  0  0
   33.3740   31.7730   37.2380 C   0  0  0  0  0  3  0  0  0  0  0  0
   34.7090   32.0580   37.0370 C   0  0  0  0  0  3  0  0  0  0  0  0
   37.3410   27.5010   32.3590 C   0  0  0  0  0  0  0  0  0  0  0  0
   38.5940   27.5650   32.4250 O   0  0  0  0  0  0  0  0  0  0  0  0
   36.5750   23.9650   31.9820 C   0  0  0  0  0  0  0  0  0  0  0  0
   35.3950   23.9800   31.2330 C   0  0  0  0  0  0  0  0  0  0  0  0
   34.8500   25.1950   30.8510 C   0  0  0  0  0  0  0  0  0  0  0  0
   35.5090   26.3120   31.2340 N   0  0  0  0  0  0  0  0  0  0  0  0
   36.6410   26.2840   31.9520 C   0  0  0  0  0  0  0  0  0  0  0  0
   37.1800   25.1080   32.3300 N   0  0  0  0  0  0  0  0  0  0  0  0
   36.9560   22.9860   32.2550 H   0  0  0  0  0  0  0  0  0  0  0  0
   34.8370   23.1100   30.9060 H   0  0  0  0  0  0  0  0  0  0  0  0
   33.9390   25.2540   30.2700 H   0  0  0  0  0  0  0  0  0  0  0  0
  1  5  1  0  0  0  0
  2  3  1  0  0  0  0
  2  1  2  0  0  0  0
  3  4  2  0  0  0  0
  4  5  1  0  0  0  0
  4 10  1  0  0  0  0
  6  2  1  0  0  0  0
  7  3  1  0  0  0  0
  8  9  1  0  0  0  0
  9 16  1  0  0  0  0
 10 11  1  0  0  0  0
 10  9  2  0  0  0  0
 11 13  2  0  0  0  0
 12 11  1  0  0  0  0
 13 14  1  0  0  0  0
 13 15  1  0  0  0  0
 16 15  2  0  0  0  0
 17 18  2  0  0  0  0
 17  1  1  0  0  0  0
 19 25  1  0  0  0  0
 19 24  1  0  0  0  0
 20 19  2  0  0  0  0
 21 20  1  0  0  0  0
 21 22  2  0  0  0  0
 22 23  1  0  0  0  0
 23 24  2  0  0  0  0
 23 17  1  0  0  0  0
 26 20  1  0  0  0  0
 27 21  1  0  0  0  0
M  END
>  <minimizedAffinity>
-5.59342337

$$$$

 OpenBabel03272508463D

 27 29  0  0  0  0  0  0  0  0999 V2000
   38.0790   25.4840   35.8370 C   0  0  0  0  0  0  0  0  0  0  0  0
   38.3610   26.6790   36.4840 C   0  0  0  0  0  0  0  0  0  0  0  0
   38.0720   27.6290   35.4940 C   0  0  0  0  0  0  0  0  0  0  0  0
   37.6520   26.9900   34.3580 C   0  0  0  0  0  0  0  0  0  0  0  0
   37.6700   25.7150   34.6020 O   0  0  0  0  0  0  0  0  0  0  0  0
   38.7120   26.7620   37.5010 H   0  0  0  0  0  0  0  0  0  0  0  0
   38.1870   28.6850   35.6730 H   0  0  0  0  0  0  0  0  0  0  0  0
   35.3700   28.6780   33.9710 F   0  0  0  0  0  0  0  0  0  0  0  0
   36.1480   28.3840   32.9130 C   0  0  0  0  0  0  0  0  0  0  0  0
   37.2480   27.5740   33.0870 C   0  0  0  0  0  0  0  0  0  0  0  0
   37.9610   27.3470   31.9290 C   0  0  0  0  0  0  0  0  0  0  0  0
   38.8520   26.7070   32.0030 H   0  0  0  0  0  0  0  0  0  0  0  0
   37.6540   27.8570   30.6840 C   0  0  0  0  0  0  0  0  0  0  0  0
   38.2730   27.6210   29.8400 H   0  0  0  0  0  0  0  0  0  0  0  0
   36.5360   28.6650   30.5760 C   0  0  0  0  0  3  0  0  0  0  0  0
   35.7810   28.9270   31.7000 C   0  0  0  0  0  3  0  0  0  0  0  0
   38.2220   24.1630   36.4540 C   0  0  0  0  0  0  0  0  0  0  0  0
   37.1930   23.6350   36.9430 O   0  0  0  0  0  0  0  0  0  0  0  0
   41.6350   23.2990   35.5370 C   0  0  0  0  0  0  0  0  0  0  0  0
   41.9740   22.3260   36.4830 C   0  0  0  0  0  0  0  0  0  0  0  0
   41.0430   21.9580   37.4400 C   0  0  0  0  0  0  0  0  0  0  0  0
   39.8400   22.5740   37.3980 N   0  0  0  0  0  0  0  0  0  0  0  0
   39.5270   23.5060   36.4850 C   0  0  0  0  0  0  0  0  0  0  0  0
   40.4250   23.8730   35.5490 N   0  0  0  0  0  0  0  0  0  0  0  0
   42.4020   23.5490   34.8120 H   0  0  0  0  0  0  0  0  0  0  0  0
   42.9250   21.8090   36.5510 H   0  0  0  0  0  0  0  0  0  0  0  0
   41.2620   21.2090   38.1900 H   0  0  0  0  0  0  0  0  0  0  0  0
  1 17  1  0  0  0  0
  1  2  2  0  0  0  0
  2  6  1  0  0  0  0
  3  7  1  0  0  0  0
  3  2  1  0  0  0  0
  4  5  1  0  0  0  0
  4  3  2  0  0  0  0
  5  1  1  0  0  0  0
  9 10  1  0  0  0  0
  9  8  1  0  0  0  0
 10  4  1  0  0  0  0
 11 12  1  0  0  0  0
 11 10  2  0  0  0  0
 13 11  1  0  0  0  0
 14 13  1  0  0  0  0
 15 13  2  0  0  0  0
 15 16  1  0  0  0  0
 16  9  2  0  0  0  0
 17 23  1  0  0  0  0
 17 18  2  0  0  0  0
 19 24  2  0  0  0  0
 19 20  1  0  0  0  0
 20 26  1  0  0  0  0
 20 21  2  0  0  0  0
 21 27  1  0  0  0  0
 22 21  1  0  0  0  0
 23 22  2  0  0  0  0
 24 23  1  0  0  0  0
 25 19  1  0  0  0  0
M  END
>  <minimizedAffinity>
-5.43971252

$$$$

 OpenBabel03272508463D

 27 29  0  0  0  0  0  0  0  0999 V2000
   38.1640   25.4310   35.7800 C   0  0  0  0  0  0  0  0  0  0  0  0
   38.3490   26.6210   36.4690 C   0  0  0  0  0  0  0  0  0  0  0  0
   38.0830   27.5810   35.4830 C   0  0  0  0  0  0  0  0  0  0  0  0
   37.7670   26.9510   34.3080 C   0  0  0  0  0  0  0  0  0  0  0  0
   37.8260   25.6730   34.5260 O   0  0  0  0  0  0  0  0  0  0  0  0
   38.6300   26.6960   37.5080 H   0  0  0  0  0  0  0  0  0  0  0  0
   38.1390   28.6360   35.6900 H   0  0  0  0  0  0  0  0  0  0  0  0
   39.4720   27.0220   32.0080 F   0  0  0  0  0  0  0  0  0  0  0  0
   38.2480   27.5760   31.9260 C   0  0  0  0  0  0  0  0  0  0  0  0
   37.4200   27.5470   33.0260 C   0  0  0  0  0  0  0  0  0  0  0  0
   36.1950   28.1470   32.8160 C   0  0  0  0  0  0  0  0  0  0  0  0
   35.4880   28.1570   33.6580 H   0  0  0  0  0  0  0  0  0  0  0  0
   35.7810   28.7360   31.6390 C   0  0  0  0  0  0  0  0  0  0  0  0
   34.8060   29.1780   31.5740 H   0  0  0  0  0  0  0  0  0  0  0  0
   36.6610   28.7310   30.5710 C   0  0  0  0  0  3  0  0  0  0  0  0
   37.9010   28.1460   30.7210 C   0  0  0  0  0  3  0  0  0  0  0  0
   38.3270   24.1030   36.3780 C   0  0  0  0  0  0  0  0  0  0  0  0
   37.2980   23.5380   36.8250 O   0  0  0  0  0  0  0  0  0  0  0  0
   41.0240   21.9070   37.4430 C   0  0  0  0  0  0  0  0  0  0  0  0
   42.0800   22.2830   36.6060 C   0  0  0  0  0  0  0  0  0  0  0  0
   41.8800   23.2870   35.6720 C   0  0  0  0  0  0  0  0  0  0  0  0
   40.6530   23.8510   35.6290 N   0  0  0  0  0  0  0  0  0  0  0  0
   39.6480   23.4830   36.4380 C   0  0  0  0  0  0  0  0  0  0  0  0
   39.8300   22.5060   37.3500 N   0  0  0  0  0  0  0  0  0  0  0  0
   41.2360   21.1160   38.1540 H   0  0  0  0  0  0  0  0  0  0  0  0
   43.0770   21.8560   36.6080 H   0  0  0  0  0  0  0  0  0  0  0  0
   42.6690   23.6090   35.0050 H   0  0  0  0  0  0  0  0  0  0  0  0
  1 17  1  0  0  0  0
  1  2  2  0  0  0  0
  2  6  1  0  0  0  0
  3  7  1  0  0  0  0
  3  2  1  0  0  0  0
  4  5  1  0  0  0  0
  4  3  2  0  0  0  0
  5  1  1  0  0  0  0
  9  8  1  0  0  0  0
  9 10  1  0  0  0  0
 10  4  1  0  0  0  0
 11 10  2  0  0  0  0
 11 12  1  0  0  0  0
 13 11  1  0  0  0  0
 14 13  1  0  0  0  0
 15 16  1  0  0  0  0
 15 13  2  0  0  0  0
 16  9  2  0  0  0  0
 17 23  1  0  0  0  0
 17 18  2  0  0  0  0
 19 25  1  0  0  0  0
 20 26  1  0  0  0  0
 20 19  2  0  0  0  0
 21 20  1  0  0  0  0
 22 21  2  0  0  0  0
 22 23  1  0  0  0  0
 23 24  2  0  0  0  0
 24 19  1  0  0  0  0
 27 21  1  0  0  0  0
M  END
>  <minimizedAffinity>
-5.375247

$$$$

 OpenBabel03272508463D

 27 29  0  0  0  0  0  0  0  0999 V2000
   36.3420   28.4270   33.0490 C   0  0  0  0  0  0  0  0  0  0  0  0
   36.0050   29.3330   32.0530 C   0  0  0  0  0  0  0  0  0  0  0  0
   35.3040   30.3140   32.7680 C   0  0  0  0  0  0  0  0  0  0  0  0
   35.2560   29.9670   34.0920 C   0  0  0  0  0  0  0  0  0  0  0  0
   35.8850   28.8380   34.2180 O   0  0  0  0  0  0  0  0  0  0  0  0
   36.2610   29.2280   31.0100 H   0  0  0  0  0  0  0  0  0  0  0  0
   34.8920   31.1820   32.2820 H   0  0  0  0  0  0  0  0  0  0  0  0
   36.6090   31.7830   35.8460 F   0  0  0  0  0  0  0  0  0  0  0  0
   35.2960   31.5560   36.0330 C   0  0  0  0  0  0  0  0  0  0  0  0
   34.6350   30.6850   35.1950 C   0  0  0  0  0  0  0  0  0  0  0  0
   33.2960   30.5370   35.4910 C   0  0  0  0  0  0  0  0  0  0  0  0
   32.7130   29.8530   34.8560 H   0  0  0  0  0  0  0  0  0  0  0  0
   32.6240   31.1740   36.5140 C   0  0  0  0  0  0  0  0  0  0  0  0
   31.5770   30.9920   36.6630 H   0  0  0  0  0  0  0  0  0  0  0  0
   33.3450   32.0370   37.3190 C   0  0  0  0  0  3  0  0  0  0  0  0
   34.6900   32.2260   37.0730 C   0  0  0  0  0  3  0  0  0  0  0  0
   37.0980   27.1950   32.8140 C   0  0  0  0  0  0  0  0  0  0  0  0
   36.5040   26.2490   32.2410 O   0  0  0  0  0  0  0  0  0  0  0  0
   39.9830   26.7720   34.9890 C   0  0  0  0  0  0  0  0  0  0  0  0
   41.0600   26.9030   34.1070 C   0  0  0  0  0  0  0  0  0  0  0  0
   40.8120   27.1360   32.7640 C   0  0  0  0  0  0  0  0  0  0  0  0
   39.5170   27.2240   32.3850 N   0  0  0  0  0  0  0  0  0  0  0  0
   38.4920   27.0970   33.2410 C   0  0  0  0  0  0  0  0  0  0  0  0
   38.7220   26.8700   34.5500 N   0  0  0  0  0  0  0  0  0  0  0  0
   40.2360   26.5900   36.0290 H   0  0  0  0  0  0  0  0  0  0  0  0
   42.1100   26.8390   34.3700 H   0  0  0  0  0  0  0  0  0  0  0  0
   41.6140   27.2450   32.0460 H   0  0  0  0  0  0  0  0  0  0  0  0
  1  5  1  0  0  0  0
  2  3  1  0  0  0  0
  2  1  2  0  0  0  0
  3  4  2  0  0  0  0
  4  5  1  0  0  0  0
  4 10  1  0  0  0  0
  6  2  1  0  0  0  0
  7  3  1  0  0  0  0
  8  9  1  0  0  0  0
  9 16  1  0  0  0  0
 10 11  1  0  0  0  0
 10  9  2  0  0  0  0
 11 13  2  0  0  0  0
 12 11  1  0  0  0  0
 13 14  1  0  0  0  0
 13 15  1  0  0  0  0
 16 15  2  0  0  0  0
 17  1  1  0  0  0  0
 17 23  1  0  0  0  0
 18 17  2  0  0  0  0
 19 25  1  0  0  0  0
 20 26  1  0  0  0  0
 20 19  2  0  0  0  0
 21 20  1  0  0  0  0
 22 21  2  0  0  0  0
 22 23  1  0  0  0  0
 23 24  2  0  0  0  0
 24 19  1  0  0  0  0
 27 21  1  0  0  0  0
M  END
>  <minimizedAffinity>
-5.34739637

$$$$

 OpenBabel03272508463D

 27 29  0  0  0  0  0  0  0  0999 V2000
   37.2550   26.3140   33.6270 C   0  0  0  0  0  0  0  0  0  0  0  0
   37.3490   27.3510   34.5450 C   0  0  0  0  0  0  0  0  0  0  0  0
   38.0410   26.7480   35.6050 C   0  0  0  0  0  0  0  0  0  0  0  0
   38.3150   25.4440   35.2870 C   0  0  0  0  0  0  0  0  0  0  0  0
   37.8310   25.2250   34.1030 O   0  0  0  0  0  0  0  0  0  0  0  0
   36.9570   28.3450   34.3960 H   0  0  0  0  0  0  0  0  0  0  0  0
   38.2860   27.2910   36.5020 H   0  0  0  0  0  0  0  0  0  0  0  0
   37.3680   24.3500   37.7590 F   0  0  0  0  0  0  0  0  0  0  0  0
   38.5490   23.9270   37.2710 C   0  0  0  0  0  0  0  0  0  0  0  0
   39.0130   24.4450   36.0830 C   0  0  0  0  0  0  0  0  0  0  0  0
   40.2320   23.9320   35.6910 C   0  0  0  0  0  0  0  0  0  0  0  0
   40.6570   24.3080   34.7490 H   0  0  0  0  0  0  0  0  0  0  0  0
   40.9640   22.9860   36.3790 C   0  0  0  0  0  0  0  0  0  0  0  0
   41.9060   22.6490   35.9910 H   0  0  0  0  0  0  0  0  0  0  0  0
   40.4410   22.5050   37.5660 C   0  0  0  0  0  3  0  0  0  0  0  0
   39.2250   22.9810   38.0110 C   0  0  0  0  0  3  0  0  0  0  0  0
   36.6030   26.4330   32.3200 C   0  0  0  0  0  0  0  0  0  0  0  0
   35.9720   25.4350   31.8930 O   0  0  0  0  0  0  0  0  0  0  0  0
   37.9330   28.9830   30.0930 C   0  0  0  0  0  0  0  0  0  0  0  0
   36.9450   29.9730   30.1290 C   0  0  0  0  0  0  0  0  0  0  0  0
   35.8190   29.7790   30.9110 C   0  0  0  0  0  0  0  0  0  0  0  0
   35.7450   28.6210   31.6060 N   0  0  0  0  0  0  0  0  0  0  0  0
   36.6990   27.6790   31.5630 C   0  0  0  0  0  0  0  0  0  0  0  0
   37.7990   27.8570   30.8050 N   0  0  0  0  0  0  0  0  0  0  0  0
   38.7920   29.1880   29.4630 H   0  0  0  0  0  0  0  0  0  0  0  0
   36.9660   30.9130   29.5880 H   0  0  0  0  0  0  0  0  0  0  0  0
   35.0310   30.5180   30.9690 H   0  0  0  0  0  0  0  0  0  0  0  0
  1  5  1  0  0  0  0
  1  2  2  0  0  0  0
  2  3  1  0  0  0  0
  3  7  1  0  0  0  0
  4  3  2  0  0  0  0
  4 10  1  0  0  0  0
  5  4  1  0  0  0  0
  6  2  1  0  0  0  0
  9  8  1  0  0  0  0
  9 16  1  0  0  0  0
 10  9  2  0  0  0  0
 11 10  1  0  0  0  0
 11 13  2  0  0  0  0
 12 11  1  0  0  0  0
 13 15  1  0  0  0  0
 14 13  1  0  0  0  0
 15 16  2  0  0  0  0
 17  1  1  0  0  0  0
 18 17  2  0  0  0  0
 19 20  2  0  0  0  0
 19 24  1  0  0  0  0
 20 21  1  0  0  0  0
 21 27  1  0  0  0  0
 21 22  2  0  0  0  0
 23 22  1  0  0  0  0
 23 17  1  0  0  0  0
 24 23  2  0  0  0  0
 25 19  1  0  0  0  0
 26 20  1  0  0  0  0
M  END
>  <minimizedAffinity>
-5.31287384

$$$$

 OpenBabel03272508463D

 27 29  0  0  0  0  0  0  0  0999 V2000
   37.0430   26.3970   33.2010 C   0  0  0  0  0  0  0  0  0  0  0  0
   37.0780   27.5270   34.0060 C   0  0  0  0  0  0  0  0  0  0  0  0
   37.6150   27.0250   35.2000 C   0  0  0  0  0  0  0  0  0  0  0  0
   37.8620   25.6850   35.0600 C   0  0  0  0  0  0  0  0  0  0  0  0
   37.5090   25.3500   33.8570 O   0  0  0  0  0  0  0  0  0  0  0  0
   36.7520   28.5110   33.7050 H   0  0  0  0  0  0  0  0  0  0  0  0
   37.7780   27.6570   36.0560 H   0  0  0  0  0  0  0  0  0  0  0  0
   40.1190   23.9770   34.6190 F   0  0  0  0  0  0  0  0  0  0  0  0
   39.5020   23.9420   35.8140 C   0  0  0  0  0  0  0  0  0  0  0  0
   38.4170   24.7590   36.0380 C   0  0  0  0  0  0  0  0  0  0  0  0
   37.8730   24.6300   37.2990 C   0  0  0  0  0  0  0  0  0  0  0  0
   37.0020   25.2570   37.5390 H   0  0  0  0  0  0  0  0  0  0  0  0
   38.3290   23.7820   38.2870 C   0  0  0  0  0  0  0  0  0  0  0  0
   37.8370   23.7530   39.2400 H   0  0  0  0  0  0  0  0  0  0  0  0
   39.4250   22.9870   37.9990 C   0  0  0  0  0  3  0  0  0  0  0  0
   40.0110   23.0720   36.7530 C   0  0  0  0  0  3  0  0  0  0  0  0
   36.5530   26.3900   31.8200 C   0  0  0  0  0  0  0  0  0  0  0  0
   35.5710   25.6520   31.5560 O   0  0  0  0  0  0  0  0  0  0  0  0
   39.0490   27.5550   29.4450 C   0  0  0  0  0  0  0  0  0  0  0  0
   38.4660   28.7150   28.9240 C   0  0  0  0  0  0  0  0  0  0  0  0
   37.2180   29.1080   29.3780 C   0  0  0  0  0  0  0  0  0  0  0  0
   36.6310   28.3300   30.3160 N   0  0  0  0  0  0  0  0  0  0  0  0
   37.2010   27.2200   30.8070 C   0  0  0  0  0  0  0  0  0  0  0  0
   38.4150   26.8270   30.3720 N   0  0  0  0  0  0  0  0  0  0  0  0
   40.0270   27.2940   29.0520 H   0  0  0  0  0  0  0  0  0  0  0  0
   38.9020   29.3650   28.1740 H   0  0  0  0  0  0  0  0  0  0  0  0
   36.7300   29.9990   29.0040 H   0  0  0  0  0  0  0  0  0  0  0  0
  1  5  1  0  0  0  0
  1  2  2  0  0  0  0
  2  3  1  0  0  0  0
  3  7  1  0  0  0  0
  4  3  2  0  0  0  0
  4 10  1  0  0  0  0
  5  4  1  0  0  0  0
  6  2  1  0  0  0  0
  8  9  1  0  0  0  0
  9 10  2  0  0  0  0
  9 16  1  0  0  0  0
 10 11  1  0  0  0  0
 11 12  1  0  0  0  0
 11 13  2  0  0  0  0
 13 14  1  0  0  0  0
 15 13  1  0  0  0  0
 16 15  2  0  0  0  0
 17  1  1  0  0  0  0
 18 17  2  0  0  0  0
 19 24  1  0  0  0  0
 20 21  1  0  0  0  0
 20 19  2  0  0  0  0
 21 22  2  0  0  0  0
 22 23  1  0  0  0  0
 23 17  1  0  0  0  0
 24 23  2  0  0  0  0
 25 19  1  0  0  0  0
 26 20  1  0  0  0  0
 27 21  1  0  0  0  0
M  END
>  <minimizedAffinity>
-5.2702837

$$$$

 OpenBabel03272508463D

 27 29  0  0  0  0  0  0  0  0999 V2000
   38.2540   24.9050   35.5440 C   0  0  0  0  0  0  0  0  0  0  0  0
   38.4190   25.9120   36.4850 C   0  0  0  0  0  0  0  0  0  0  0  0
   38.0670   27.0580   35.7580 C   0  0  0  0  0  0  0  0  0  0  0  0
   37.7250   26.7010   34.4810 C   0  0  0  0  0  0  0  0  0  0  0  0
   37.8500   25.4120   34.3940 O   0  0  0  0  0  0  0  0  0  0  0  0
   38.7420   25.7590   37.5030 H   0  0  0  0  0  0  0  0  0  0  0  0
   38.0860   28.0380   36.2040 H   0  0  0  0  0  0  0  0  0  0  0  0
   35.4830   28.4820   34.5630 F   0  0  0  0  0  0  0  0  0  0  0  0
   36.2150   28.4090   33.4350 C   0  0  0  0  0  0  0  0  0  0  0  0
   37.2950   27.5570   33.3850 C   0  0  0  0  0  0  0  0  0  0  0  0
   37.9620   27.5740   32.1770 C   0  0  0  0  0  0  0  0  0  0  0  0
   38.8350   26.9130   32.0750 H   0  0  0  0  0  0  0  0  0  0  0  0
   37.6270   28.3500   31.0860 C   0  0  0  0  0  0  0  0  0  0  0  0
   38.2100   28.2910   30.1870 H   0  0  0  0  0  0  0  0  0  0  0  0
   36.5300   29.1860   31.2020 C   0  0  0  0  0  3  0  0  0  0  0  0
   35.8230   29.2120   32.3860 C   0  0  0  0  0  3  0  0  0  0  0  0
   38.5010   23.4850   35.8110 C   0  0  0  0  0  0  0  0  0  0  0  0
   39.5670   23.1820   36.4020 O   0  0  0  0  0  0  0  0  0  0  0  0
   36.5990   21.2580   33.6540 C   0  0  0  0  0  0  0  0  0  0  0  0
   35.7350   20.6210   34.5500 C   0  0  0  0  0  0  0  0  0  0  0  0
   35.7940   20.9440   35.8960 C   0  0  0  0  0  0  0  0  0  0  0  0
   36.7020   21.8760   36.2650 N   0  0  0  0  0  0  0  0  0  0  0  0
   37.5250   22.4810   35.3960 C   0  0  0  0  0  0  0  0  0  0  0  0
   37.4770   22.1730   34.0840 N   0  0  0  0  0  0  0  0  0  0  0  0
   36.5090   20.9660   32.6130 H   0  0  0  0  0  0  0  0  0  0  0  0
   34.9950   19.8700   34.2950 H   0  0  0  0  0  0  0  0  0  0  0  0
   35.1440   20.4760   36.6240 H   0  0  0  0  0  0  0  0  0  0  0  0
  1 17  1  0  0  0  0
  1  2  2  0  0  0  0
  2  6  1  0  0  0  0
  3  7  1  0  0  0  0
  3  2  1  0  0  0  0
  4  3  2  0  0  0  0
  5  4  1  0  0  0  0
  5  1  1  0  0  0  0
  9  8  1  0  0  0  0
 10  9  1  0  0  0  0
 10  4  1  0  0  0  0
 11 10  2  0  0  0  0
 12 11  1  0  0  0  0
 13 15  2  0  0  0  0
 13 11  1  0  0  0  0
 14 13  1  0  0  0  0
 15 16  1  0  0  0  0
 16  9  2  0  0  0  0
 17 18  2  0  0  0  0
 19 24  2  0  0  0  0
 19 20  1  0  0  0  0
 20 21  2  0  0  0  0
 21 22  1  0  0  0  0
 21 27  1  0  0  0  0
 23 17  1  0  0  0  0
 23 22  2  0  0  0  0
 24 23  1  0  0  0  0
 25 19  1  0  0  0  0
 26 20  1  0  0  0  0
M  END
>  <minimizedAffinity>
-5.24415064

$$$$

 OpenBabel03272508463D

 27 29  0  0  0  0  0  0  0  0999 V2000
   36.4090   27.8570   32.7090 C   0  0  0  0  0  0  0  0  0  0  0  0
   37.0990   27.3480   33.8000 C   0  0  0  0  0  0  0  0  0  0  0  0
   36.7200   28.2250   34.8270 C   0  0  0  0  0  0  0  0  0  0  0  0
   35.8640   29.1690   34.3270 C   0  0  0  0  0  0  0  0  0  0  0  0
   35.7040   28.9160   33.0640 O   0  0  0  0  0  0  0  0  0  0  0  0
   37.7470   26.4860   33.7740 H   0  0  0  0  0  0  0  0  0  0  0  0
   37.0870   28.1100   35.8330 H   0  0  0  0  0  0  0  0  0  0  0  0
   33.0340   29.5600   34.5420 F   0  0  0  0  0  0  0  0  0  0  0  0
   33.8590   30.4500   35.1250 C   0  0  0  0  0  0  0  0  0  0  0  0
   35.2210   30.2720   35.0280 C   0  0  0  0  0  0  0  0  0  0  0  0
   35.9570   31.2500   35.6650 C   0  0  0  0  0  0  0  0  0  0  0  0
   37.0520   31.1630   35.6230 H   0  0  0  0  0  0  0  0  0  0  0  0
   35.4360   32.3270   36.3510 C   0  0  0  0  0  0  0  0  0  0  0  0
   36.0930   33.0370   36.8140 H   0  0  0  0  0  0  0  0  0  0  0  0
   34.0590   32.4490   36.4120 C   0  0  0  0  0  3  0  0  0  0  0  0
   33.2700   31.5010   35.7930 C   0  0  0  0  0  3  0  0  0  0  0  0
   36.4690   27.2850   31.3620 C   0  0  0  0  0  0  0  0  0  0  0  0
   36.3810   28.0760   30.3900 O   0  0  0  0  0  0  0  0  0  0  0  0
   35.6320   23.7470   31.2390 C   0  0  0  0  0  0  0  0  0  0  0  0
   36.8430   23.1530   30.8710 C   0  0  0  0  0  0  0  0  0  0  0  0
   37.9540   23.9540   30.6610 C   0  0  0  0  0  0  0  0  0  0  0  0
   37.7930   25.2860   30.8300 N   0  0  0  0  0  0  0  0  0  0  0  0
   36.6260   25.8430   31.1840 C   0  0  0  0  0  0  0  0  0  0  0  0
   35.5380   25.0740   31.3900 N   0  0  0  0  0  0  0  0  0  0  0  0
   34.7950   23.0730   31.3890 H   0  0  0  0  0  0  0  0  0  0  0  0
   37.0140   22.0920   30.7250 H   0  0  0  0  0  0  0  0  0  0  0  0
   38.9120   23.5370   30.3760 H   0  0  0  0  0  0  0  0  0  0  0  0
  1  5  1  0  0  0  0
  1  2  2  0  0  0  0
  2  3  1  0  0  0  0
  3  7  1  0  0  0  0
  4  3  2  0  0  0  0
  4 10  1  0  0  0  0
  5  4  1  0  0  0  0
  6  2  1  0  0  0  0
  8  9  1  0  0  0  0
  9 16  1  0  0  0  0
 10  9  2  0  0  0  0
 10 11  1  0  0  0  0
 11 13  2  0  0  0  0
 12 11  1  0  0  0  0
 13 15  1  0  0  0  0
 13 14  1  0  0  0  0
 16 15  2  0  0  0  0
 17  1  1  0  0  0  0
 18 17  2  0  0  0  0
 19 25  1  0  0  0  0
 19 24  1  0  0  0  0
 20 19  2  0  0  0  0
 21 22  2  0  0  0  0
 21 20  1  0  0  0  0
 22 23  1  0  0  0  0
 23 17  1  0  0  0  0
 23 24  2  0  0  0  0
 26 20  1  0  0  0  0
 27 21  1  0  0  0  0
M  END
>  <minimizedAffinity>
-5.19805717

$$$$

 OpenBabel03272508463D

 27 29  0  0  0  0  0  0  0  0999 V2000
   37.7390   27.3370   34.5560 C   0  0  0  0  0  0  0  0  0  0  0  0
   37.2620   27.3270   33.2530 C   0  0  0  0  0  0  0  0  0  0  0  0
   36.3330   28.3770   33.2680 C   0  0  0  0  0  0  0  0  0  0  0  0
   36.2990   28.9370   34.5170 C   0  0  0  0  0  0  0  0  0  0  0  0
   37.1500   28.2910   35.2540 O   0  0  0  0  0  0  0  0  0  0  0  0
   37.5830   26.6440   32.4830 H   0  0  0  0  0  0  0  0  0  0  0  0
   35.7670   28.6450   32.3920 H   0  0  0  0  0  0  0  0  0  0  0  0
   33.4690   29.1820   34.1540 F   0  0  0  0  0  0  0  0  0  0  0  0
   34.1260   30.1570   34.8090 C   0  0  0  0  0  0  0  0  0  0  0  0
   35.4870   30.0500   34.9900 C   0  0  0  0  0  0  0  0  0  0  0  0
   36.0430   31.1110   35.6740 C   0  0  0  0  0  0  0  0  0  0  0  0
   37.1280   31.0830   35.8500 H   0  0  0  0  0  0  0  0  0  0  0  0
   35.3540   32.2040   36.1580 C   0  0  0  0  0  0  0  0  0  0  0  0
   35.8780   32.9810   36.6790 H   0  0  0  0  0  0  0  0  0  0  0  0
   33.9880   32.2510   35.9430 C   0  0  0  0  0  3  0  0  0  0  0  0
   33.3750   31.2190   35.2640 C   0  0  0  0  0  3  0  0  0  0  0  0
   38.7540   26.4110   35.0640 C   0  0  0  0  0  0  0  0  0  0  0  0
   39.9330   26.8340   35.1580 O   0  0  0  0  0  0  0  0  0  0  0  0
   38.1730   22.8290   34.8010 C   0  0  0  0  0  0  0  0  0  0  0  0
   37.7040   22.4960   36.0750 C   0  0  0  0  0  0  0  0  0  0  0  0
   37.5820   23.4880   37.0340 C   0  0  0  0  0  0  0  0  0  0  0  0
   37.9310   24.7420   36.6690 N   0  0  0  0  0  0  0  0  0  0  0  0
   38.3800   25.0500   35.4430 C   0  0  0  0  0  0  0  0  0  0  0  0
   38.5030   24.0920   34.5020 N   0  0  0  0  0  0  0  0  0  0  0  0
   38.2500   22.0130   34.0900 H   0  0  0  0  0  0  0  0  0  0  0  0
   37.4140   21.5050   36.4070 H   0  0  0  0  0  0  0  0  0  0  0  0
   37.2230   23.2750   38.0320 H   0  0  0  0  0  0  0  0  0  0  0  0
  1 17  1  0  0  0  0
  1  5  1  0  0  0  0
  2  3  1  0  0  0  0
  2  1  2  0  0  0  0
  3  4  2  0  0  0  0
  4 10  1  0  0  0  0
  4  5  1  0  0  0  0
  6  2  1  0  0  0  0
  7  3  1  0  0  0  0
  8  9  1  0  0  0  0
  9 10  2  0  0  0  0
  9 16  1  0  0  0  0
 10 11  1  0  0  0  0
 11 12  1  0  0  0  0
 11 13  2  0  0  0  0
 13 14  1  0  0  0  0
 15 13  1  0  0  0  0
 16 15  2  0  0  0  0
 17 18  2  0  0  0  0
 17 23  1  0  0  0  0
 19 20  1  0  0  0  0
 20 26  1  0  0  0  0
 20 21  2  0  0  0  0
 21 27  1  0  0  0  0
 22 21  1  0  0  0  0
 23 22  2  0  0  0  0
 24 19  2  0  0  0  0
 24 23  1  0  0  0  0
 25 19  1  0  0  0  0
M  END
>  <minimizedAffinity>
-5.16796494

$$$$
