
 OpenBabel03272503183D

 25 27  0  0  0  0  0  0  0  0999 V2000
   37.2930   27.4690   34.1680 C   0  0  0  0  0  0  0  0  0  0  0  0
   37.7540   27.8200   35.3720 C   0  0  0  0  0  0  0  0  0  0  0  0
   38.4000   26.9420   36.1520 C   0  0  0  0  0  0  0  0  0  0  0  0
   38.5640   25.6570   35.6500 C   0  0  0  0  0  0  0  0  0  0  0  0
   37.7420   25.7790   34.0020 S   0  0  0  0  0  0  0  0  0  0  0  0
   37.5900   28.8610   35.7080 H   0  0  0  0  0  0  0  0  0  0  0  0
   38.8170   27.1030   37.1350 H   0  0  0  0  0  0  0  0  0  0  0  0
   36.2370   29.0500   30.9280 C   0  0  0  0  0  0  0  0  0  0  0  0
   36.9920   28.2900   31.8290 C   0  0  0  0  0  0  0  0  0  0  0  0
   36.5730   28.2340   33.1560 C   0  0  0  0  0  0  0  0  0  0  0  0
   35.4690   28.9060   33.5260 N   0  0  0  0  0  0  0  0  0  0  0  0
   34.7550   29.6350   32.6370 C   0  0  0  0  0  0  0  0  0  0  0  0
   35.1470   29.6990   31.3490 N   0  0  0  0  0  0  0  0  0  0  0  0
   36.6750   29.0030   29.9400 H   0  0  0  0  0  0  0  0  0  0  0  0
   37.8800   27.7350   31.5850 H   0  0  0  0  0  0  0  0  0  0  0  0
   33.8570   30.1810   32.9420 H   0  0  0  0  0  0  0  0  0  0  0  0
   37.6360   24.4340   37.9560 F   0  0  0  0  0  0  0  0  0  0  0  0
   38.6780   23.8830   37.2930 C   0  0  0  0  0  0  0  0  0  0  0  0
   39.1770   24.4490   36.1460 C   0  0  0  0  0  0  0  0  0  0  0  0
   40.2140   23.9950   35.3920 C   0  0  0  0  0  0  0  0  0  0  0  0
   40.5770   24.4640   34.5010 H   0  0  0  0  0  0  0  0  0  0  0  0
   40.8570   22.8250   35.8160 C   0  0  0  0  0  0  0  0  0  0  0  0
   41.6840   22.3960   35.2830 H   0  0  0  0  0  0  0  0  0  0  0  0
   40.3980   22.1970   36.9790 C   0  0  0  0  0  3  0  0  0  0  0  0
   39.3300   22.7190   37.7000 C   0  0  0  0  0  3  0  0  0  0  0  0
  1  2  2  0  0  0  0
  2  6  1  0  0  0  0
  2  3  1  0  0  0  0
  3  7  1  0  0  0  0
  4 19  1  0  0  0  0
  4  3  2  0  0  0  0
  5  1  1  0  0  0  0
  5  4  1  0  0  0  0
  8 13  2  0  0  0  0
  8  9  1  0  0  0  0
  9 10  2  0  0  0  0
 10 11  1  0  0  0  0
 10  1  1  0  0  0  0
 12 16  1  0  0  0  0
 12 11  2  0  0  0  0
 13 12  1  0  0  0  0
 14  8  1  0  0  0  0
 15  9  1  0  0  0  0
 18 25  1  0  0  0  0
 18 17  1  0  0  0  0
 19 18  2  0  0  0  0
 20 22  2  0  0  0  0
 20 19  1  0  0  0  0
 21 20  1  0  0  0  0
 22 24  1  0  0  0  0
 23 22  1  0  0  0  0
 24 25  2  0  0  0  0
M  END
>  <minimizedAffinity>
-5.09960222

$$$$

 OpenBabel03272503183D

 25 27  0  0  0  0  0  0  0  0999 V2000
   37.2870   27.4960   34.1890 C   0  0  0  0  0  0  0  0  0  0  0  0
   37.7560   27.8460   35.3890 C   0  0  0  0  0  0  0  0  0  0  0  0
   38.4010   26.9650   36.1680 C   0  0  0  0  0  0  0  0  0  0  0  0
   38.5550   25.6780   35.6670 C   0  0  0  0  0  0  0  0  0  0  0  0
   37.7250   25.8020   34.0230 S   0  0  0  0  0  0  0  0  0  0  0  0
   37.6000   28.8870   35.7250 H   0  0  0  0  0  0  0  0  0  0  0  0
   38.8240   27.1250   37.1490 H   0  0  0  0  0  0  0  0  0  0  0  0
   34.8030   29.7130   32.4480 C   0  0  0  0  0  0  0  0  0  0  0  0
   35.4280   29.0070   33.4820 C   0  0  0  0  0  0  0  0  0  0  0  0
   36.5670   28.2630   33.1800 C   0  0  0  0  0  0  0  0  0  0  0  0
   37.0240   28.2470   31.9150 N   0  0  0  0  0  0  0  0  0  0  0  0
   36.4020   28.9370   30.9310 C   0  0  0  0  0  0  0  0  0  0  0  0
   35.3000   29.6610   31.2080 N   0  0  0  0  0  0  0  0  0  0  0  0
   33.9380   30.2420   32.8250 H   0  0  0  0  0  0  0  0  0  0  0  0
   35.1040   28.9870   34.5080 H   0  0  0  0  0  0  0  0  0  0  0  0
   36.7770   28.9210   29.9020 H   0  0  0  0  0  0  0  0  0  0  0  0
   37.6490   24.4790   37.9940 F   0  0  0  0  0  0  0  0  0  0  0  0
   38.6760   23.9140   37.3190 C   0  0  0  0  0  0  0  0  0  0  0  0
   39.1630   24.4680   36.1620 C   0  0  0  0  0  0  0  0  0  0  0  0
   40.1850   23.9990   35.3950 C   0  0  0  0  0  0  0  0  0  0  0  0
   40.5390   24.4580   34.4950 H   0  0  0  0  0  0  0  0  0  0  0  0
   40.8220   22.8240   35.8170 C   0  0  0  0  0  0  0  0  0  0  0  0
   41.6370   22.3840   35.2750 H   0  0  0  0  0  0  0  0  0  0  0  0
   40.3750   22.2080   36.9910 C   0  0  0  0  0  3  0  0  0  0  0  0
   39.3230   22.7460   37.7240 C   0  0  0  0  0  3  0  0  0  0  0  0
  1  2  2  0  0  0  0
  2  6  1  0  0  0  0
  2  3  1  0  0  0  0
  3  7  1  0  0  0  0
  4 19  1  0  0  0  0
  4  3  2  0  0  0  0
  5  1  1  0  0  0  0
  5  4  1  0  0  0  0
  8 14  1  0  0  0  0
  8  9  1  0  0  0  0
  9 15  1  0  0  0  0
 10  9  2  0  0  0  0
 10  1  1  0  0  0  0
 11 10  1  0  0  0  0
 12 13  1  0  0  0  0
 12 11  2  0  0  0  0
 13  8  2  0  0  0  0
 16 12  1  0  0  0  0
 18 25  1  0  0  0  0
 18 17  1  0  0  0  0
 19 18  2  0  0  0  0
 20 22  2  0  0  0  0
 20 19  1  0  0  0  0
 21 20  1  0  0  0  0
 22 24  1  0  0  0  0
 23 22  1  0  0  0  0
 24 25  2  0  0  0  0
M  END
>  <minimizedAffinity>
-5.09603357

$$$$

 OpenBabel03272503183D

 25 27  0  0  0  0  0  0  0  0999 V2000
   36.3840   29.7650   31.7430 C   0  0  0  0  0  0  0  0  0  0  0  0
   36.3300   28.7740   32.6390 C   0  0  0  0  0  0  0  0  0  0  0  0
   35.7790   28.9590   33.8470 C   0  0  0  0  0  0  0  0  0  0  0  0
   35.2720   30.2240   34.1200 C   0  0  0  0  0  0  0  0  0  0  0  0
   35.6290   31.1290   32.5520 S   0  0  0  0  0  0  0  0  0  0  0  0
   36.7520   27.7930   32.3550 H   0  0  0  0  0  0  0  0  0  0  0  0
   35.6750   28.2440   34.6500 H   0  0  0  0  0  0  0  0  0  0  0  0
   37.9590   28.8120   28.4680 C   0  0  0  0  0  0  0  0  0  0  0  0
   37.4660   28.6790   29.7710 C   0  0  0  0  0  0  0  0  0  0  0  0
   36.9240   29.8040   30.3890 C   0  0  0  0  0  0  0  0  0  0  0  0
   36.8930   30.9710   29.7210 N   0  0  0  0  0  0  0  0  0  0  0  0
   37.3770   31.0750   28.4620 C   0  0  0  0  0  0  0  0  0  0  0  0
   37.9050   29.9970   27.8500 N   0  0  0  0  0  0  0  0  0  0  0  0
   38.3470   27.8660   28.1160 H   0  0  0  0  0  0  0  0  0  0  0  0
   37.4660   27.7710   30.3480 H   0  0  0  0  0  0  0  0  0  0  0  0
   37.3510   32.0270   27.9210 H   0  0  0  0  0  0  0  0  0  0  0  0
   36.6630   31.8950   35.8360 F   0  0  0  0  0  0  0  0  0  0  0  0
   35.3550   31.6480   36.0750 C   0  0  0  0  0  0  0  0  0  0  0  0
   34.6200   30.8270   35.2560 C   0  0  0  0  0  0  0  0  0  0  0  0
   33.3060   30.5020   35.3880 C   0  0  0  0  0  0  0  0  0  0  0  0
   32.7630   29.8570   34.7280 H   0  0  0  0  0  0  0  0  0  0  0  0
   32.6100   31.0540   36.4720 C   0  0  0  0  0  0  0  0  0  0  0  0
   31.5710   30.8510   36.6530 H   0  0  0  0  0  0  0  0  0  0  0  0
   33.3000   31.8990   37.3460 C   0  0  0  0  0  3  0  0  0  0  0  0
   34.6460   32.1880   37.1480 C   0  0  0  0  0  3  0  0  0  0  0  0
  1  5  1  0  0  0  0
  1  2  2  0  0  0  0
  2  3  1  0  0  0  0
  3  4  2  0  0  0  0
  3  7  1  0  0  0  0
  4 19  1  0  0  0  0
  5  4  1  0  0  0  0
  6  2  1  0  0  0  0
  8  9  1  0  0  0  0
  9 15  1  0  0  0  0
  9 10  2  0  0  0  0
 10  1  1  0  0  0  0
 11 10  1  0  0  0  0
 12 11  2  0  0  0  0
 13 12  1  0  0  0  0
 13  8  2  0  0  0  0
 14  8  1  0  0  0  0
 16 12  1  0  0  0  0
 17 18  1  0  0  0  0
 18 25  1  0  0  0  0
 19 20  1  0  0  0  0
 19 18  2  0  0  0  0
 20 22  2  0  0  0  0
 21 20  1  0  0  0  0
 22 23  1  0  0  0  0
 22 24  1  0  0  0  0
 25 24  2  0  0  0  0
M  END
>  <minimizedAffinity>
-5.03925848

$$$$

 OpenBabel03272503183D

 25 27  0  0  0  0  0  0  0  0999 V2000
   38.7120   27.0460   32.7890 C   0  0  0  0  0  0  0  0  0  0  0  0
   39.8980   27.1460   33.3950 C   0  0  0  0  0  0  0  0  0  0  0  0
   40.1720   26.4500   34.5080 C   0  0  0  0  0  0  0  0  0  0  0  0
   39.1660   25.6260   34.9970 C   0  0  0  0  0  0  0  0  0  0  0  0
   37.8110   25.9040   33.7750 S   0  0  0  0  0  0  0  0  0  0  0  0
   40.6530   27.8200   32.9510 H   0  0  0  0  0  0  0  0  0  0  0  0
   41.0850   26.4450   35.0850 H   0  0  0  0  0  0  0  0  0  0  0  0
   38.3270   28.3760   29.2970 C   0  0  0  0  0  0  0  0  0  0  0  0
   38.9090   27.7360   30.3970 C   0  0  0  0  0  0  0  0  0  0  0  0
   38.1900   27.6900   31.5900 C   0  0  0  0  0  0  0  0  0  0  0  0
   36.9730   28.2580   31.6450 N   0  0  0  0  0  0  0  0  0  0  0  0
   36.4310   28.8730   30.5680 C   0  0  0  0  0  0  0  0  0  0  0  0
   37.1130   28.9250   29.4070 N   0  0  0  0  0  0  0  0  0  0  0  0
   38.9920   28.3340   28.4450 H   0  0  0  0  0  0  0  0  0  0  0  0
   39.8770   27.2660   30.4050 H   0  0  0  0  0  0  0  0  0  0  0  0
   35.4390   29.3350   30.6170 H   0  0  0  0  0  0  0  0  0  0  0  0
   40.7620   23.3720   35.2080 F   0  0  0  0  0  0  0  0  0  0  0  0
   39.8630   23.6350   36.1830 C   0  0  0  0  0  0  0  0  0  0  0  0
   39.0480   24.7380   36.1270 C   0  0  0  0  0  0  0  0  0  0  0  0
   38.1090   25.1110   37.0390 C   0  0  0  0  0  0  0  0  0  0  0  0
   37.4890   25.9800   36.9620 H   0  0  0  0  0  0  0  0  0  0  0  0
   37.9410   24.2930   38.1640 C   0  0  0  0  0  0  0  0  0  0  0  0
   37.2230   24.5100   38.9320 H   0  0  0  0  0  0  0  0  0  0  0  0
   38.7400   23.1510   38.2830 C   0  0  0  0  0  3  0  0  0  0  0  0
   39.6810   22.8330   37.3100 C   0  0  0  0  0  3  0  0  0  0  0  0
  1  2  2  0  0  0  0
  1  5  1  0  0  0  0
  2  3  1  0  0  0  0
  3  4  2  0  0  0  0
  3  7  1  0  0  0  0
  4 19  1  0  0  0  0
  5  4  1  0  0  0  0
  6  2  1  0  0  0  0
  8 13  2  0  0  0  0
  8  9  1  0  0  0  0
  9 15  1  0  0  0  0
  9 10  2  0  0  0  0
 10 11  1  0  0  0  0
 10  1  1  0  0  0  0
 12 16  1  0  0  0  0
 12 11  2  0  0  0  0
 13 12  1  0  0  0  0
 14  8  1  0  0  0  0
 17 18  1  0  0  0  0
 18 25  1  0  0  0  0
 19 18  2  0  0  0  0
 19 20  1  0  0  0  0
 20 22  2  0  0  0  0
 21 20  1  0  0  0  0
 22 24  1  0  0  0  0
 22 23  1  0  0  0  0
 25 24  2  0  0  0  0
M  END
>  <minimizedAffinity>
-4.93939781

$$$$

 OpenBabel03272503183D

 25 27  0  0  0  0  0  0  0  0999 V2000
   37.3040   26.4770   32.8860 C   0  0  0  0  0  0  0  0  0  0  0  0
   37.3420   25.1710   32.6090 C   0  0  0  0  0  0  0  0  0  0  0  0
   37.7290   24.2750   33.5290 C   0  0  0  0  0  0  0  0  0  0  0  0
   38.0860   24.7710   34.7770 C   0  0  0  0  0  0  0  0  0  0  0  0
   37.8380   26.5870   34.5570 S   0  0  0  0  0  0  0  0  0  0  0  0
   37.0440   24.8460   31.5950 H   0  0  0  0  0  0  0  0  0  0  0  0
   37.8000   23.2030   33.4280 H   0  0  0  0  0  0  0  0  0  0  0  0
   35.9270   29.7740   31.7250 C   0  0  0  0  0  0  0  0  0  0  0  0
   36.2490   28.7210   32.5890 C   0  0  0  0  0  0  0  0  0  0  0  0
   36.9250   27.6210   32.0660 C   0  0  0  0  0  0  0  0  0  0  0  0
   37.2420   27.6050   30.7590 N   0  0  0  0  0  0  0  0  0  0  0  0
   36.9190   28.6350   29.9420 C   0  0  0  0  0  0  0  0  0  0  0  0
   36.2660   29.7060   30.4330 N   0  0  0  0  0  0  0  0  0  0  0  0
   35.4080   30.5550   32.2630 H   0  0  0  0  0  0  0  0  0  0  0  0
   36.0200   28.6850   33.6390 H   0  0  0  0  0  0  0  0  0  0  0  0
   37.1790   28.6180   28.8780 H   0  0  0  0  0  0  0  0  0  0  0  0
   40.4520   23.3330   34.8650 F   0  0  0  0  0  0  0  0  0  0  0  0
   39.7240   23.4720   35.9960 C   0  0  0  0  0  0  0  0  0  0  0  0
   38.5450   24.1750   36.0070 C   0  0  0  0  0  0  0  0  0  0  0  0
   37.7260   24.3850   37.0730 C   0  0  0  0  0  0  0  0  0  0  0  0
   36.8110   24.9400   37.0450 H   0  0  0  0  0  0  0  0  0  0  0  0
   38.1110   23.8330   38.3020 C   0  0  0  0  0  0  0  0  0  0  0  0
   37.5260   23.9490   39.1940 H   0  0  0  0  0  0  0  0  0  0  0  0
   39.3040   23.1040   38.3610 C   0  0  0  0  0  3  0  0  0  0  0  0
   40.0910   22.9300   37.2280 C   0  0  0  0  0  3  0  0  0  0  0  0
  1  5  1  0  0  0  0
  2  1  2  0  0  0  0
  2  3  1  0  0  0  0
  3  4  2  0  0  0  0
  4 19  1  0  0  0  0
  5  4  1  0  0  0  0
  6  2  1  0  0  0  0
  7  3  1  0  0  0  0
  8 14  1  0  0  0  0
  8  9  1  0  0  0  0
  9 15  1  0  0  0  0
 10  9  2  0  0  0  0
 10  1  1  0  0  0  0
 11 10  1  0  0  0  0
 12 13  1  0  0  0  0
 12 11  2  0  0  0  0
 13  8  2  0  0  0  0
 16 12  1  0  0  0  0
 17 18  1  0  0  0  0
 18 19  2  0  0  0  0
 18 25  1  0  0  0  0
 19 20  1  0  0  0  0
 20 22  2  0  0  0  0
 21 20  1  0  0  0  0
 22 24  1  0  0  0  0
 22 23  1  0  0  0  0
 25 24  2  0  0  0  0
M  END
>  <minimizedAffinity>
-4.90612411

$$$$

 OpenBabel03272503183D

 25 27  0  0  0  0  0  0  0  0999 V2000
   38.0660   25.0170   34.8270 C   0  0  0  0  0  0  0  0  0  0  0  0
   37.8150   24.5770   33.5910 C   0  0  0  0  0  0  0  0  0  0  0  0
   37.3910   25.4090   32.6290 C   0  0  0  0  0  0  0  0  0  0  0  0
   37.2260   26.7440   32.9800 C   0  0  0  0  0  0  0  0  0  0  0  0
   37.7110   26.7370   34.7610 S   0  0  0  0  0  0  0  0  0  0  0  0
   37.9690   23.5030   33.3810 H   0  0  0  0  0  0  0  0  0  0  0  0
   37.1570   25.1770   31.6000 H   0  0  0  0  0  0  0  0  0  0  0  0
   38.3770   23.6960   38.3300 C   0  0  0  0  0  0  0  0  0  0  0  0
   37.8600   24.4050   37.2390 C   0  0  0  0  0  0  0  0  0  0  0  0
   38.5270   24.3160   36.0190 C   0  0  0  0  0  0  0  0  0  0  0  0
   39.6360   23.5610   35.9300 N   0  0  0  0  0  0  0  0  0  0  0  0
   40.1180   22.8850   36.9990 C   0  0  0  0  0  0  0  0  0  0  0  0
   39.4840   22.9600   38.1860 N   0  0  0  0  0  0  0  0  0  0  0  0
   37.7620   23.8550   39.2060 H   0  0  0  0  0  0  0  0  0  0  0  0
   36.9790   25.0210   37.2580 H   0  0  0  0  0  0  0  0  0  0  0  0
   41.0210   22.2710   36.9220 H   0  0  0  0  0  0  0  0  0  0  0  0
   38.7440   27.7860   30.9100 F   0  0  0  0  0  0  0  0  0  0  0  0
   37.5910   28.4030   31.2570 C   0  0  0  0  0  0  0  0  0  0  0  0
   36.8030   27.9280   32.2750 C   0  0  0  0  0  0  0  0  0  0  0  0
   35.6290   28.4560   32.7180 C   0  0  0  0  0  0  0  0  0  0  0  0
   35.0390   28.0570   33.5160 H   0  0  0  0  0  0  0  0  0  0  0  0
   35.1570   29.6090   32.0770 C   0  0  0  0  0  0  0  0  0  0  0  0
   34.2420   30.0920   32.3600 H   0  0  0  0  0  0  0  0  0  0  0  0
   35.9140   30.1460   31.0300 C   0  0  0  0  0  3  0  0  0  0  0  0
   37.1060   29.5520   30.6320 C   0  0  0  0  0  3  0  0  0  0  0  0
  1 10  1  0  0  0  0
  2  1  2  0  0  0  0
  3  4  2  0  0  0  0
  3  2  1  0  0  0  0
  4  5  1  0  0  0  0
  5  1  1  0  0  0  0
  6  2  1  0  0  0  0
  7  3  1  0  0  0  0
  8 14  1  0  0  0  0
  9 15  1  0  0  0  0
  9  8  2  0  0  0  0
 10  9  1  0  0  0  0
 11 10  2  0  0  0  0
 11 12  1  0  0  0  0
 12 13  2  0  0  0  0
 13  8  1  0  0  0  0
 16 12  1  0  0  0  0
 17 18  1  0  0  0  0
 18 19  1  0  0  0  0
 19 20  2  0  0  0  0
 19  4  1  0  0  0  0
 20 21  1  0  0  0  0
 22 23  1  0  0  0  0
 22 20  1  0  0  0  0
 24 22  2  0  0  0  0
 25 24  1  0  0  0  0
 25 18  2  0  0  0  0
M  END
>  <minimizedAffinity>
-4.89142084

$$$$

 OpenBabel03272503183D

 25 27  0  0  0  0  0  0  0  0999 V2000
   39.0550   25.6180   35.0000 C   0  0  0  0  0  0  0  0  0  0  0  0
   40.0380   26.4460   34.6340 C   0  0  0  0  0  0  0  0  0  0  0  0
   39.9340   27.2040   33.5320 C   0  0  0  0  0  0  0  0  0  0  0  0
   38.7620   27.0860   32.7960 C   0  0  0  0  0  0  0  0  0  0  0  0
   37.8210   25.8310   33.7680 S   0  0  0  0  0  0  0  0  0  0  0  0
   40.9430   26.4910   35.2670 H   0  0  0  0  0  0  0  0  0  0  0  0
   40.6530   27.9060   33.1350 H   0  0  0  0  0  0  0  0  0  0  0  0
   37.9160   23.9390   38.1610 C   0  0  0  0  0  0  0  0  0  0  0  0
   37.9510   24.8590   37.1070 C   0  0  0  0  0  0  0  0  0  0  0  0
   38.9380   24.7110   36.1350 C   0  0  0  0  0  0  0  0  0  0  0  0
   39.8190   23.7010   36.2410 N   0  0  0  0  0  0  0  0  0  0  0  0
   39.7660   22.8240   37.2710 C   0  0  0  0  0  0  0  0  0  0  0  0
   38.8170   22.9530   38.2190 N   0  0  0  0  0  0  0  0  0  0  0  0
   37.1030   24.1730   38.8360 H   0  0  0  0  0  0  0  0  0  0  0  0
   37.2710   25.6820   36.9760 H   0  0  0  0  0  0  0  0  0  0  0  0
   40.4860   22.0030   37.3540 H   0  0  0  0  0  0  0  0  0  0  0  0
   36.5530   28.7550   32.8560 F   0  0  0  0  0  0  0  0  0  0  0  0
   37.1640   28.5150   31.6740 C   0  0  0  0  0  0  0  0  0  0  0  0
   38.2620   27.6960   31.5880 C   0  0  0  0  0  0  0  0  0  0  0  0
   38.9620   27.3770   30.4660 C   0  0  0  0  0  0  0  0  0  0  0  0
   39.8160   26.7330   30.4370 H   0  0  0  0  0  0  0  0  0  0  0  0
   38.5310   27.9360   29.2560 C   0  0  0  0  0  0  0  0  0  0  0  0
   39.0230   27.7390   28.3230 H   0  0  0  0  0  0  0  0  0  0  0  0
   37.4160   28.7810   29.2720 C   0  0  0  0  0  3  0  0  0  0  0  0
   36.7490   29.0620   30.4590 C   0  0  0  0  0  3  0  0  0  0  0  0
  1 10  1  0  0  0  0
  2  1  2  0  0  0  0
  2  6  1  0  0  0  0
  3  2  1  0  0  0  0
  4  3  2  0  0  0  0
  4  5  1  0  0  0  0
  5  1  1  0  0  0  0
  7  3  1  0  0  0  0
  8 13  1  0  0  0  0
  8 14  1  0  0  0  0
  9  8  2  0  0  0  0
 10 11  2  0  0  0  0
 10  9  1  0  0  0  0
 11 12  1  0  0  0  0
 12 16  1  0  0  0  0
 12 13  2  0  0  0  0
 15  9  1  0  0  0  0
 18 17  1  0  0  0  0
 19 18  1  0  0  0  0
 19  4  1  0  0  0  0
 20 19  2  0  0  0  0
 21 20  1  0  0  0  0
 22 24  2  0  0  0  0
 22 20  1  0  0  0  0
 23 22  1  0  0  0  0
 24 25  1  0  0  0  0
 25 18  2  0  0  0  0
M  END
>  <minimizedAffinity>
-4.87521839

$$$$

 OpenBabel03272503183D

 25 27  0  0  0  0  0  0  0  0999 V2000
   37.3110   27.5100   34.0970 C   0  0  0  0  0  0  0  0  0  0  0  0
   37.7530   27.8640   35.3080 C   0  0  0  0  0  0  0  0  0  0  0  0
   38.4080   26.9940   36.0910 C   0  0  0  0  0  0  0  0  0  0  0  0
   38.6020   25.7150   35.5830 C   0  0  0  0  0  0  0  0  0  0  0  0
   37.7960   25.8300   33.9270 S   0  0  0  0  0  0  0  0  0  0  0  0
   37.5640   28.8990   35.6480 H   0  0  0  0  0  0  0  0  0  0  0  0
   38.8110   27.1580   37.0790 H   0  0  0  0  0  0  0  0  0  0  0  0
   36.2520   29.0770   30.8510 C   0  0  0  0  0  0  0  0  0  0  0  0
   37.0120   28.3270   31.7560 C   0  0  0  0  0  0  0  0  0  0  0  0
   36.5880   28.2660   33.0820 C   0  0  0  0  0  0  0  0  0  0  0  0
   35.4740   28.9260   33.4470 N   0  0  0  0  0  0  0  0  0  0  0  0
   34.7560   29.6460   32.5540 C   0  0  0  0  0  0  0  0  0  0  0  0
   35.1530   29.7150   31.2680 N   0  0  0  0  0  0  0  0  0  0  0  0
   36.6960   29.0350   29.8650 H   0  0  0  0  0  0  0  0  0  0  0  0
   37.9080   27.7820   31.5170 H   0  0  0  0  0  0  0  0  0  0  0  0
   33.8500   30.1820   32.8540 H   0  0  0  0  0  0  0  0  0  0  0  0
   40.8830   24.7060   34.3780 F   0  0  0  0  0  0  0  0  0  0  0  0
   40.3620   24.0600   35.4460 C   0  0  0  0  0  0  0  0  0  0  0  0
   39.2330   24.5170   36.0790 C   0  0  0  0  0  0  0  0  0  0  0  0
   38.6150   23.9610   37.1560 C   0  0  0  0  0  0  0  0  0  0  0  0
   37.7340   24.3470   37.6260 H   0  0  0  0  0  0  0  0  0  0  0  0
   39.1760   22.7940   37.6900 C   0  0  0  0  0  0  0  0  0  0  0  0
   38.7550   22.2880   38.5380 H   0  0  0  0  0  0  0  0  0  0  0  0
   40.3280   22.2730   37.0910 C   0  0  0  0  0  3  0  0  0  0  0  0
   40.9060   22.8970   35.9910 C   0  0  0  0  0  3  0  0  0  0  0  0
  1  2  2  0  0  0  0
  2  6  1  0  0  0  0
  2  3  1  0  0  0  0
  3  7  1  0  0  0  0
  4 19  1  0  0  0  0
  4  3  2  0  0  0  0
  5  1  1  0  0  0  0
  5  4  1  0  0  0  0
  8 13  2  0  0  0  0
  8  9  1  0  0  0  0
  9 10  2  0  0  0  0
 10 11  1  0  0  0  0
 10  1  1  0  0  0  0
 12 16  1  0  0  0  0
 12 11  2  0  0  0  0
 13 12  1  0  0  0  0
 14  8  1  0  0  0  0
 15  9  1  0  0  0  0
 17 18  1  0  0  0  0
 18 25  2  0  0  0  0
 18 19  1  0  0  0  0
 19 20  2  0  0  0  0
 20 21  1  0  0  0  0
 20 22  1  0  0  0  0
 22 23  1  0  0  0  0
 24 22  2  0  0  0  0
 25 24  1  0  0  0  0
M  END
>  <minimizedAffinity>
-4.87074804

$$$$

 OpenBabel03272503183D

 25 27  0  0  0  0  0  0  0  0999 V2000
   38.4910   25.5960   35.3890 C   0  0  0  0  0  0  0  0  0  0  0  0
   38.4610   26.7850   35.9970 C   0  0  0  0  0  0  0  0  0  0  0  0
   37.8290   27.8320   35.4470 C   0  0  0  0  0  0  0  0  0  0  0  0
   37.2110   27.6190   34.2210 C   0  0  0  0  0  0  0  0  0  0  0  0
   37.5870   25.8410   33.9030 S   0  0  0  0  0  0  0  0  0  0  0  0
   38.9730   26.8830   36.9720 H   0  0  0  0  0  0  0  0  0  0  0  0
   37.7350   28.8350   35.8360 H   0  0  0  0  0  0  0  0  0  0  0  0
   40.3990   22.3600   35.3660 C   0  0  0  0  0  0  0  0  0  0  0  0
   39.8490   23.5580   34.8970 C   0  0  0  0  0  0  0  0  0  0  0  0
   39.1030   24.3330   35.7830 C   0  0  0  0  0  0  0  0  0  0  0  0
   38.9360   23.9070   37.0480 N   0  0  0  0  0  0  0  0  0  0  0  0
   39.4760   22.7430   37.4780 C   0  0  0  0  0  0  0  0  0  0  0  0
   40.2010   21.9830   36.6330 N   0  0  0  0  0  0  0  0  0  0  0  0
   40.9490   21.8660   34.5760 H   0  0  0  0  0  0  0  0  0  0  0  0
   39.9530   23.9440   33.8980 H   0  0  0  0  0  0  0  0  0  0  0  0
   39.3380   22.3990   38.5080 H   0  0  0  0  0  0  0  0  0  0  0  0
   38.0510   28.0170   31.6110 F   0  0  0  0  0  0  0  0  0  0  0  0
   36.9110   28.6100   32.0330 C   0  0  0  0  0  0  0  0  0  0  0  0
   36.4510   28.4460   33.3160 C   0  0  0  0  0  0  0  0  0  0  0  0
   35.3260   28.9850   33.8590 C   0  0  0  0  0  0  0  0  0  0  0  0
   34.9970   28.8350   34.8660 H   0  0  0  0  0  0  0  0  0  0  0  0
   34.5380   29.8000   33.0350 C   0  0  0  0  0  0  0  0  0  0  0  0
   33.6350   30.2670   33.3800 H   0  0  0  0  0  0  0  0  0  0  0  0
   34.9500   30.0100   31.7150 C   0  0  0  0  0  3  0  0  0  0  0  0
   36.1140   29.4240   31.2280 C   0  0  0  0  0  3  0  0  0  0  0  0
  1 10  1  0  0  0  0
  1  2  2  0  0  0  0
  2  6  1  0  0  0  0
  3  7  1  0  0  0  0
  3  2  1  0  0  0  0
  4  3  2  0  0  0  0
  5  4  1  0  0  0  0
  5  1  1  0  0  0  0
  8 13  1  0  0  0  0
  9  8  2  0  0  0  0
  9 10  1  0  0  0  0
 10 11  2  0  0  0  0
 11 12  1  0  0  0  0
 12 16  1  0  0  0  0
 13 12  2  0  0  0  0
 14  8  1  0  0  0  0
 15  9  1  0  0  0  0
 17 18  1  0  0  0  0
 18 19  1  0  0  0  0
 19 20  2  0  0  0  0
 19  4  1  0  0  0  0
 20 21  1  0  0  0  0
 22 23  1  0  0  0  0
 22 20  1  0  0  0  0
 24 22  2  0  0  0  0
 25 24  1  0  0  0  0
 25 18  2  0  0  0  0
M  END
>  <minimizedAffinity>
-4.84986687

$$$$
