
 OpenBabel03272503213D

 35 38  0  0  0  0  0  0  0  0999 V2000
   37.2120   26.8630   33.5900 C   0  0  0  0  0  0  0  0  0  0  0  0
   37.1000   25.6880   32.9700 C   0  0  0  0  0  0  0  0  0  0  0  0
   37.7610   24.6100   33.4310 C   0  0  0  0  0  0  0  0  0  0  0  0
   38.5420   24.7880   34.5560 C   0  0  0  0  0  0  0  0  0  0  0  0
   38.3030   26.5650   34.9420 S   0  0  0  0  0  0  0  0  0  0  0  0
   36.4600   25.6390   32.0860 H   0  0  0  0  0  0  0  0  0  0  0  0
   37.7570   23.6080   33.0240 H   0  0  0  0  0  0  0  0  0  0  0  0
   37.4450   23.9710   37.2730 Cl  0  0  0  0  0  0  0  0  0  0  0  0
   38.9550   23.4940   36.5560 C   0  0  0  0  0  0  0  0  0  0  0  0
   39.3780   23.9050   35.3290 C   0  0  0  0  0  0  0  0  0  0  0  0
   40.5520   23.5590   34.7300 C   0  0  0  0  0  0  0  0  0  0  0  0
   41.4240   22.7040   35.4100 C   0  0  0  0  0  0  0  0  0  0  0  0
   41.0650   22.2490   36.6470 C   0  0  0  0  0  0  0  0  0  0  0  0
   42.0850   21.1740   37.5820 Cl  0  0  0  0  0  0  0  0  0  0  0  0
   39.8530   22.6390   37.2040 C   0  0  0  0  0  0  0  0  0  0  0  0
   40.8750   23.8970   33.7510 H   0  0  0  0  0  0  0  0  0  0  0  0
   42.3690   22.3990   34.9760 H   0  0  0  0  0  0  0  0  0  0  0  0
   39.5740   22.2680   38.1990 H   0  0  0  0  0  0  0  0  0  0  0  0
   36.1490   30.0350   31.8660 C   0  0  0  0  0  0  0  0  0  0  0  0
   36.7470   28.7660   32.0430 C   0  0  0  0  0  0  0  0  0  0  0  0
   36.6230   28.1770   33.3180 C   0  0  0  0  0  0  0  0  0  0  0  0
   35.9630   28.8250   34.2800 N   0  0  0  0  0  0  0  0  0  0  0  0
   35.4080   30.0310   34.0680 C   0  0  0  0  0  0  0  0  0  0  0  0
   35.5020   30.6290   32.8680 N   0  0  0  0  0  0  0  0  0  0  0  0
   36.2510   30.4770   30.8790 H   0  0  0  0  0  0  0  0  0  0  0  0
   37.2780   28.2470   31.2650 H   0  0  0  0  0  0  0  0  0  0  0  0
   36.6880   31.8010   35.8320 F   0  0  0  0  0  0  0  0  0  0  0  0
   35.3660   31.5420   36.0150 C   0  0  0  0  0  0  0  0  0  0  0  0
   34.7030   30.6770   35.1660 C   0  0  0  0  0  0  0  0  0  0  0  0
   33.3660   30.4120   35.3480 C   0  0  0  0  0  0  0  0  0  0  0  0
   32.8260   29.7350   34.6930 H   0  0  0  0  0  0  0  0  0  0  0  0
   32.7310   31.0400   36.3980 C   0  0  0  0  0  0  0  0  0  0  0  0
   31.6680   30.8070   36.5140 H   0  0  0  0  0  0  0  0  0  0  0  0
   33.3640   31.9100   37.2620 C   0  0  0  0  0  3  0  0  0  0  0  0
   34.7070   32.1590   37.0590 C   0  0  0  0  0  3  0  0  0  0  0  0
  1  5  1  0  0  0  0
  2  3  1  0  0  0  0
  2  1  2  0  0  0  0
  3  4  2  0  0  0  0
  4  5  1  0  0  0  0
  4 10  1  0  0  0  0
  6  2  1  0  0  0  0
  7  3  1  0  0  0  0
  9 15  1  0  0  0  0
  9  8  1  0  0  0  0
 10  9  2  0  0  0  0
 11 10  1  0  0  0  0
 11 12  2  0  0  0  0
 12 13  1  0  0  0  0
 13 15  2  0  0  0  0
 13 14  1  0  0  0  0
 15 18  1  0  0  0  0
 16 11  1  0  0  0  0
 17 12  1  0  0  0  0
 19 20  2  0  0  0  0
 19 24  1  0  0  0  0
 20 21  1  0  0  0  0
 21  1  1  0  0  0  0
 21 22  2  0  0  0  0
 23 22  1  0  0  0  0
 23 29  1  0  0  0  0
 24 23  2  0  0  0  0
 25 19  1  0  0  0  0
 26 20  1  0  0  0  0
 27 28  1  0  0  0  0
 28 35  1  0  0  0  0
 29 30  1  0  0  0  0
 29 28  2  0  0  0  0
 30 32  2  0  0  0  0
 31 30  1  0  0  0  0
 32 33  1  0  0  0  0
 32 34  1  0  0  0  0
 35 34  2  0  0  0  0
M  END
>  <minimizedAffinity>
-6.87670946

$$$$

 OpenBabel03272503213D

 35 38  0  0  0  0  0  0  0  0999 V2000
   36.6710   27.0300   32.7430 C   0  0  0  0  0  0  0  0  0  0  0  0
   37.4190   26.2950   33.5660 C   0  0  0  0  0  0  0  0  0  0  0  0
   37.5860   24.9780   33.3400 C   0  0  0  0  0  0  0  0  0  0  0  0
   36.9520   24.4480   32.2340 C   0  0  0  0  0  0  0  0  0  0  0  0
   36.0980   25.9030   31.5140 S   0  0  0  0  0  0  0  0  0  0  0  0
   37.8830   26.7990   34.4170 H   0  0  0  0  0  0  0  0  0  0  0  0
   38.1620   24.2750   33.9260 H   0  0  0  0  0  0  0  0  0  0  0  0
   39.4720   23.4830   30.8300 Cl  0  0  0  0  0  0  0  0  0  0  0  0
   37.9770   22.6190   31.0290 C   0  0  0  0  0  0  0  0  0  0  0  0
   36.8870   23.1220   31.6720 C   0  0  0  0  0  0  0  0  0  0  0  0
   35.6960   22.4830   31.8500 C   0  0  0  0  0  0  0  0  0  0  0  0
   35.5470   21.1910   31.3370 C   0  0  0  0  0  0  0  0  0  0  0  0
   36.6000   20.6210   30.6800 C   0  0  0  0  0  0  0  0  0  0  0  0
   36.5160   19.0070   30.0010 Cl  0  0  0  0  0  0  0  0  0  0  0  0
   37.7890   21.3250   30.5320 C   0  0  0  0  0  0  0  0  0  0  0  0
   34.8380   22.8990   32.3650 H   0  0  0  0  0  0  0  0  0  0  0  0
   34.6210   20.6420   31.4530 H   0  0  0  0  0  0  0  0  0  0  0  0
   38.6280   20.8570   30.0010 H   0  0  0  0  0  0  0  0  0  0  0  0
   36.2660   30.6290   31.7180 C   0  0  0  0  0  0  0  0  0  0  0  0
   36.6410   29.2680   31.6370 C   0  0  0  0  0  0  0  0  0  0  0  0
   36.3200   28.4540   32.7420 C   0  0  0  0  0  0  0  0  0  0  0  0
   35.6920   28.9870   33.7920 N   0  0  0  0  0  0  0  0  0  0  0  0
   35.3530   30.2870   33.8280 C   0  0  0  0  0  0  0  0  0  0  0  0
   35.6400   31.1010   32.7960 N   0  0  0  0  0  0  0  0  0  0  0  0
   36.5190   31.2450   30.8610 H   0  0  0  0  0  0  0  0  0  0  0  0
   37.1470   28.8420   30.7900 H   0  0  0  0  0  0  0  0  0  0  0  0
   36.6690   31.8330   35.7660 F   0  0  0  0  0  0  0  0  0  0  0  0
   35.3490   31.5550   35.9410 C   0  0  0  0  0  0  0  0  0  0  0  0
   34.6690   30.7980   35.0070 C   0  0  0  0  0  0  0  0  0  0  0  0
   33.3350   30.5140   35.1800 C   0  0  0  0  0  0  0  0  0  0  0  0
   32.7820   29.9200   34.4590 H   0  0  0  0  0  0  0  0  0  0  0  0
   32.7200   31.0120   36.3090 C   0  0  0  0  0  0  0  0  0  0  0  0
   31.6590   30.7680   36.4150 H   0  0  0  0  0  0  0  0  0  0  0  0
   33.3720   31.7730   37.2590 C   0  0  0  0  0  3  0  0  0  0  0  0
   34.7110   32.0440   37.0630 C   0  0  0  0  0  3  0  0  0  0  0  0
  1  2  2  0  0  0  0
  2  6  1  0  0  0  0
  3  2  1  0  0  0  0
  3  7  1  0  0  0  0
  4  3  2  0  0  0  0
  5  4  1  0  0  0  0
  5  1  1  0  0  0  0
  8  9  1  0  0  0  0
  9 10  1  0  0  0  0
 10 11  2  0  0  0  0
 10  4  1  0  0  0  0
 11 16  1  0  0  0  0
 12 17  1  0  0  0  0
 12 11  1  0  0  0  0
 13 12  2  0  0  0  0
 14 13  1  0  0  0  0
 15 13  1  0  0  0  0
 15  9  2  0  0  0  0
 18 15  1  0  0  0  0
 19 24  1  0  0  0  0
 20 19  2  0  0  0  0
 20 21  1  0  0  0  0
 21  1  1  0  0  0  0
 21 22  2  0  0  0  0
 22 23  1  0  0  0  0
 23 29  1  0  0  0  0
 24 23  2  0  0  0  0
 25 19  1  0  0  0  0
 26 20  1  0  0  0  0
 27 28  1  0  0  0  0
 28 35  1  0  0  0  0
 29 30  1  0  0  0  0
 29 28  2  0  0  0  0
 30 32  2  0  0  0  0
 31 30  1  0  0  0  0
 32 33  1  0  0  0  0
 32 34  1  0  0  0  0
 35 34  2  0  0  0  0
M  END
>  <minimizedAffinity>
-6.62326384

$$$$

 OpenBabel03272503213D

 35 38  0  0  0  0  0  0  0  0999 V2000
   36.9770   27.1360   33.3300 C   0  0  0  0  0  0  0  0  0  0  0  0
   37.1200   26.0570   32.5610 C   0  0  0  0  0  0  0  0  0  0  0  0
   37.8330   25.0010   32.9950 C   0  0  0  0  0  0  0  0  0  0  0  0
   38.3950   25.1000   34.2530 C   0  0  0  0  0  0  0  0  0  0  0  0
   37.8670   26.7670   34.8070 S   0  0  0  0  0  0  0  0  0  0  0  0
   36.6410   26.0660   31.5790 H   0  0  0  0  0  0  0  0  0  0  0  0
   38.0250   24.0730   32.4740 H   0  0  0  0  0  0  0  0  0  0  0  0
   41.3690   25.7360   34.3340 Cl  0  0  0  0  0  0  0  0  0  0  0  0
   40.5450   24.4300   35.1330 C   0  0  0  0  0  0  0  0  0  0  0  0
   39.2040   24.2100   35.0480 C   0  0  0  0  0  0  0  0  0  0  0  0
   38.5180   23.2010   35.6540 C   0  0  0  0  0  0  0  0  0  0  0  0
   39.2260   22.2910   36.4450 C   0  0  0  0  0  0  0  0  0  0  0  0
   40.5750   22.4500   36.5790 C   0  0  0  0  0  0  0  0  0  0  0  0
   41.5540   21.3660   37.5470 Cl  0  0  0  0  0  0  0  0  0  0  0  0
   41.2170   23.5010   35.9340 C   0  0  0  0  0  0  0  0  0  0  0  0
   37.4480   23.0390   35.5740 H   0  0  0  0  0  0  0  0  0  0  0  0
   38.7250   21.4730   36.9480 H   0  0  0  0  0  0  0  0  0  0  0  0
   42.3030   23.6190   36.0480 H   0  0  0  0  0  0  0  0  0  0  0  0
   35.4900   30.1960   31.7220 C   0  0  0  0  0  0  0  0  0  0  0  0
   36.1880   28.9720   31.8340 C   0  0  0  0  0  0  0  0  0  0  0  0
   36.2730   28.4050   33.1220 C   0  0  0  0  0  0  0  0  0  0  0  0
   35.7050   29.0300   34.1560 N   0  0  0  0  0  0  0  0  0  0  0  0
   35.0500   30.1940   34.0040 C   0  0  0  0  0  0  0  0  0  0  0  0
   34.9440   30.7710   32.7940 N   0  0  0  0  0  0  0  0  0  0  0  0
   35.4320   30.6230   30.7250 H   0  0  0  0  0  0  0  0  0  0  0  0
   36.6440   28.4710   31.0000 H   0  0  0  0  0  0  0  0  0  0  0  0
   36.5410   31.7980   35.7600 F   0  0  0  0  0  0  0  0  0  0  0  0
   35.2210   31.6000   36.0200 C   0  0  0  0  0  0  0  0  0  0  0  0
   34.4560   30.8180   35.1780 C   0  0  0  0  0  0  0  0  0  0  0  0
   33.1210   30.6150   35.4380 C   0  0  0  0  0  0  0  0  0  0  0  0
   32.5020   30.0040   34.7890 H   0  0  0  0  0  0  0  0  0  0  0  0
   32.5920   31.2200   36.5580 C   0  0  0  0  0  0  0  0  0  0  0  0
   31.5280   31.0390   36.7350 H   0  0  0  0  0  0  0  0  0  0  0  0
   33.3300   32.0090   37.4180 C   0  0  0  0  0  3  0  0  0  0  0  0
   34.6680   32.1960   37.1370 C   0  0  0  0  0  3  0  0  0  0  0  0
  1  5  1  0  0  0  0
  2  3  1  0  0  0  0
  2  1  2  0  0  0  0
  3  4  2  0  0  0  0
  4  5  1  0  0  0  0
  4 10  1  0  0  0  0
  6  2  1  0  0  0  0
  7  3  1  0  0  0  0
  8  9  1  0  0  0  0
  9 15  1  0  0  0  0
 10  9  2  0  0  0  0
 10 11  1  0  0  0  0
 11 12  2  0  0  0  0
 12 13  1  0  0  0  0
 12 17  1  0  0  0  0
 13 14  1  0  0  0  0
 15 18  1  0  0  0  0
 15 13  2  0  0  0  0
 16 11  1  0  0  0  0
 19 20  2  0  0  0  0
 19 24  1  0  0  0  0
 20 21  1  0  0  0  0
 21  1  1  0  0  0  0
 21 22  2  0  0  0  0
 23 22  1  0  0  0  0
 23 29  1  0  0  0  0
 24 23  2  0  0  0  0
 25 19  1  0  0  0  0
 26 20  1  0  0  0  0
 27 28  1  0  0  0  0
 28 35  1  0  0  0  0
 29 30  1  0  0  0  0
 29 28  2  0  0  0  0
 30 32  2  0  0  0  0
 31 30  1  0  0  0  0
 32 33  1  0  0  0  0
 32 34  1  0  0  0  0
 35 34  2  0  0  0  0
M  END
>  <minimizedAffinity>
-6.54726791

$$$$

 OpenBabel03272503213D

 35 38  0  0  0  0  0  0  0  0999 V2000
   37.1940   26.6580   33.3910 C   0  0  0  0  0  0  0  0  0  0  0  0
   37.1060   25.4740   32.7840 C   0  0  0  0  0  0  0  0  0  0  0  0
   37.7900   24.4150   33.2560 C   0  0  0  0  0  0  0  0  0  0  0  0
   38.5690   24.6230   34.3780 C   0  0  0  0  0  0  0  0  0  0  0  0
   38.2930   26.3980   34.7450 S   0  0  0  0  0  0  0  0  0  0  0  0
   36.4660   25.4020   31.9020 H   0  0  0  0  0  0  0  0  0  0  0  0
   37.8060   23.4090   32.8600 H   0  0  0  0  0  0  0  0  0  0  0  0
   41.1040   23.6660   32.9940 Cl  0  0  0  0  0  0  0  0  0  0  0  0
   40.5780   23.2980   34.6090 C   0  0  0  0  0  0  0  0  0  0  0  0
   39.4240   23.7660   35.1600 C   0  0  0  0  0  0  0  0  0  0  0  0
   38.9720   23.5020   36.4180 C   0  0  0  0  0  0  0  0  0  0  0  0
   39.7410   22.6790   37.2460 C   0  0  0  0  0  0  0  0  0  0  0  0
   40.9130   22.1730   36.7620 C   0  0  0  0  0  0  0  0  0  0  0  0
   41.9500   21.1330   37.7180 Cl  0  0  0  0  0  0  0  0  0  0  0  0
   41.3190   22.4800   35.4690 C   0  0  0  0  0  0  0  0  0  0  0  0
   38.0490   23.8830   36.8410 H   0  0  0  0  0  0  0  0  0  0  0  0
   39.4250   22.4400   38.2540 H   0  0  0  0  0  0  0  0  0  0  0  0
   42.2630   22.0670   35.0890 H   0  0  0  0  0  0  0  0  0  0  0  0
   35.9520   29.7290   31.6040 C   0  0  0  0  0  0  0  0  0  0  0  0
   36.5690   28.4710   31.7920 C   0  0  0  0  0  0  0  0  0  0  0  0
   36.5770   27.9570   33.1050 C   0  0  0  0  0  0  0  0  0  0  0  0
   36.0160   28.6610   34.0910 N   0  0  0  0  0  0  0  0  0  0  0  0
   35.4400   29.8540   33.8670 C   0  0  0  0  0  0  0  0  0  0  0  0
   35.4090   30.3820   32.6310 N   0  0  0  0  0  0  0  0  0  0  0  0
   35.9530   30.1140   30.5890 H   0  0  0  0  0  0  0  0  0  0  0  0
   37.0190   27.9060   30.9960 H   0  0  0  0  0  0  0  0  0  0  0  0
   32.7270   29.5950   34.5410 F   0  0  0  0  0  0  0  0  0  0  0  0
   33.5100   30.4130   35.2940 C   0  0  0  0  0  0  0  0  0  0  0  0
   34.8490   30.5640   34.9930 C   0  0  0  0  0  0  0  0  0  0  0  0
   35.6440   31.3910   35.7520 C   0  0  0  0  0  0  0  0  0  0  0  0
   36.6980   31.5250   35.5320 H   0  0  0  0  0  0  0  0  0  0  0  0
   35.0500   32.0480   36.8080 C   0  0  0  0  0  0  0  0  0  0  0  0
   35.7110   32.6970   37.3910 H   0  0  0  0  0  0  0  0  0  0  0  0
   33.7160   31.9160   37.1360 C   0  0  0  0  0  3  0  0  0  0  0  0
   32.9390   31.0820   36.3580 C   0  0  0  0  0  3  0  0  0  0  0  0
  1  5  1  0  0  0  0
  2  3  1  0  0  0  0
  2  1  2  0  0  0  0
  3  4  2  0  0  0  0
  4  5  1  0  0  0  0
  4 10  1  0  0  0  0
  6  2  1  0  0  0  0
  7  3  1  0  0  0  0
  8  9  1  0  0  0  0
  9 10  2  0  0  0  0
  9 15  1  0  0  0  0
 10 11  1  0  0  0  0
 11 16  1  0  0  0  0
 11 12  2  0  0  0  0
 12 17  1  0  0  0  0
 13 12  1  0  0  0  0
 13 14  1  0  0  0  0
 15 13  2  0  0  0  0
 18 15  1  0  0  0  0
 19 20  2  0  0  0  0
 19 24  1  0  0  0  0
 20 21  1  0  0  0  0
 21  1  1  0  0  0  0
 21 22  2  0  0  0  0
 23 22  1  0  0  0  0
 23 29  1  0  0  0  0
 24 23  2  0  0  0  0
 25 19  1  0  0  0  0
 26 20  1  0  0  0  0
 27 28  1  0  0  0  0
 28 35  1  0  0  0  0
 29 28  2  0  0  0  0
 29 30  1  0  0  0  0
 30 32  2  0  0  0  0
 31 30  1  0  0  0  0
 32 34  1  0  0  0  0
 32 33  1  0  0  0  0
 35 34  2  0  0  0  0
M  END
>  <minimizedAffinity>
-6.50060892

$$$$

 OpenBabel03272503213D

 35 38  0  0  0  0  0  0  0  0999 V2000
   36.7470   27.4450   32.8510 C   0  0  0  0  0  0  0  0  0  0  0  0
   36.1070   28.3220   32.0770 C   0  0  0  0  0  0  0  0  0  0  0  0
   35.5030   29.3950   32.6200 C   0  0  0  0  0  0  0  0  0  0  0  0
   35.5830   29.5320   33.9920 C   0  0  0  0  0  0  0  0  0  0  0  0
   36.5600   28.0620   34.4920 S   0  0  0  0  0  0  0  0  0  0  0  0
   36.0940   28.1340   31.0010 H   0  0  0  0  0  0  0  0  0  0  0  0
   34.9540   30.1740   32.1080 H   0  0  0  0  0  0  0  0  0  0  0  0
   32.6220   29.3280   34.6590 Cl  0  0  0  0  0  0  0  0  0  0  0  0
   33.7650   30.4880   35.2670 C   0  0  0  0  0  0  0  0  0  0  0  0
   35.0810   30.5140   34.9190 C   0  0  0  0  0  0  0  0  0  0  0  0
   36.0110   31.4040   35.3680 C   0  0  0  0  0  0  0  0  0  0  0  0
   35.6090   32.3920   36.2720 C   0  0  0  0  0  0  0  0  0  0  0  0
   34.3030   32.4260   36.6690 C   0  0  0  0  0  0  0  0  0  0  0  0
   33.6980   33.6230   37.7970 Cl  0  0  0  0  0  0  0  0  0  0  0  0
   33.4030   31.4900   36.1730 C   0  0  0  0  0  0  0  0  0  0  0  0
   37.0560   31.4120   35.0790 H   0  0  0  0  0  0  0  0  0  0  0  0
   36.3110   33.1220   36.6580 H   0  0  0  0  0  0  0  0  0  0  0  0
   32.3550   31.5270   36.4990 H   0  0  0  0  0  0  0  0  0  0  0  0
   39.4760   25.0220   31.9350 C   0  0  0  0  0  0  0  0  0  0  0  0
   38.8490   26.2570   32.2180 C   0  0  0  0  0  0  0  0  0  0  0  0
   37.4770   26.2130   32.5430 C   0  0  0  0  0  0  0  0  0  0  0  0
   36.8450   25.0380   32.5700 N   0  0  0  0  0  0  0  0  0  0  0  0
   37.4810   23.8860   32.2940 C   0  0  0  0  0  0  0  0  0  0  0  0
   38.7890   23.8810   31.9790 N   0  0  0  0  0  0  0  0  0  0  0  0
   40.5320   25.0690   31.6860 H   0  0  0  0  0  0  0  0  0  0  0  0
   39.3610   27.2010   32.1950 H   0  0  0  0  0  0  0  0  0  0  0  0
   37.5680   22.1700   34.5130 F   0  0  0  0  0  0  0  0  0  0  0  0
   36.7930   21.8220   33.4520 C   0  0  0  0  0  0  0  0  0  0  0  0
   36.7250   22.6430   32.3430 C   0  0  0  0  0  0  0  0  0  0  0  0
   35.9420   22.2950   31.2670 C   0  0  0  0  0  0  0  0  0  0  0  0
   35.8750   22.9250   30.3860 H   0  0  0  0  0  0  0  0  0  0  0  0
   35.2410   21.1110   31.3480 C   0  0  0  0  0  0  0  0  0  0  0  0
   34.6290   20.8650   30.4750 H   0  0  0  0  0  0  0  0  0  0  0  0
   35.2870   20.2710   32.4420 C   0  0  0  0  0  3  0  0  0  0  0  0
   36.0810   20.6410   33.5090 C   0  0  0  0  0  3  0  0  0  0  0  0
  1  5  1  0  0  0  0
  2  3  1  0  0  0  0
  2  1  2  0  0  0  0
  3  4  2  0  0  0  0
  4  5  1  0  0  0  0
  4 10  1  0  0  0  0
  6  2  1  0  0  0  0
  7  3  1  0  0  0  0
  8  9  1  0  0  0  0
  9 15  1  0  0  0  0
 10  9  2  0  0  0  0
 10 11  1  0  0  0  0
 11 12  2  0  0  0  0
 12 17  1  0  0  0  0
 12 13  1  0  0  0  0
 13 14  1  0  0  0  0
 15 18  1  0  0  0  0
 15 13  2  0  0  0  0
 16 11  1  0  0  0  0
 19 24  2  0  0  0  0
 19 20  1  0  0  0  0
 20 21  2  0  0  0  0
 21 22  1  0  0  0  0
 21  1  1  0  0  0  0
 23 29  1  0  0  0  0
 23 22  2  0  0  0  0
 24 23  1  0  0  0  0
 25 19  1  0  0  0  0
 26 20  1  0  0  0  0
 28 35  1  0  0  0  0
 28 27  1  0  0  0  0
 29 28  2  0  0  0  0
 30 32  2  0  0  0  0
 30 29  1  0  0  0  0
 31 30  1  0  0  0  0
 32 34  1  0  0  0  0
 33 32  1  0  0  0  0
 34 35  2  0  0  0  0
M  END
>  <minimizedAffinity>
-6.46541071

$$$$

 OpenBabel03272503213D

 35 38  0  0  0  0  0  0  0  0999 V2000
   37.0380   27.2560   33.2670 C   0  0  0  0  0  0  0  0  0  0  0  0
   36.4760   28.0820   32.3850 C   0  0  0  0  0  0  0  0  0  0  0  0
   35.8090   29.1740   32.8050 C   0  0  0  0  0  0  0  0  0  0  0  0
   35.7440   29.3820   34.1680 C   0  0  0  0  0  0  0  0  0  0  0  0
   36.6750   27.9540   34.8450 S   0  0  0  0  0  0  0  0  0  0  0  0
   36.5770   27.8390   31.3250 H   0  0  0  0  0  0  0  0  0  0  0  0
   35.3100   29.9180   32.1980 H   0  0  0  0  0  0  0  0  0  0  0  0
   32.7110   29.2800   34.3830 Cl  0  0  0  0  0  0  0  0  0  0  0  0
   33.7860   30.4240   35.1310 C   0  0  0  0  0  0  0  0  0  0  0  0
   35.1390   30.4040   34.9850 C   0  0  0  0  0  0  0  0  0  0  0  0
   36.0180   31.2790   35.5490 C   0  0  0  0  0  0  0  0  0  0  0  0
   35.5170   32.3030   36.3580 C   0  0  0  0  0  0  0  0  0  0  0  0
   34.1680   32.3850   36.5510 C   0  0  0  0  0  0  0  0  0  0  0  0
   33.4380   33.6290   37.5470 Cl  0  0  0  0  0  0  0  0  0  0  0  0
   33.3230   31.4610   35.9470 C   0  0  0  0  0  0  0  0  0  0  0  0
   37.0950   31.2500   35.4220 H   0  0  0  0  0  0  0  0  0  0  0  0
   36.1750   33.0240   36.8290 H   0  0  0  0  0  0  0  0  0  0  0  0
   32.2400   31.5360   36.1090 H   0  0  0  0  0  0  0  0  0  0  0  0
   38.7280   24.2520   31.7550 C   0  0  0  0  0  0  0  0  0  0  0  0
   37.9710   25.4440   31.8250 C   0  0  0  0  0  0  0  0  0  0  0  0
   37.8080   26.0190   33.1020 C   0  0  0  0  0  0  0  0  0  0  0  0
   38.3600   25.4300   34.1640 N   0  0  0  0  0  0  0  0  0  0  0  0
   39.0730   24.2960   34.0530 C   0  0  0  0  0  0  0  0  0  0  0  0
   39.2540   23.7130   32.8540 N   0  0  0  0  0  0  0  0  0  0  0  0
   38.8460   23.8190   30.7660 H   0  0  0  0  0  0  0  0  0  0  0  0
   37.5280   25.9160   30.9670 H   0  0  0  0  0  0  0  0  0  0  0  0
   37.5380   23.8020   36.3500 F   0  0  0  0  0  0  0  0  0  0  0  0
   38.8590   23.4820   36.3690 C   0  0  0  0  0  0  0  0  0  0  0  0
   39.6450   23.7100   35.2570 C   0  0  0  0  0  0  0  0  0  0  0  0
   40.9820   23.3890   35.2720 C   0  0  0  0  0  0  0  0  0  0  0  0
   41.6180   23.5610   34.4080 H   0  0  0  0  0  0  0  0  0  0  0  0
   41.4900   22.8380   36.4280 C   0  0  0  0  0  0  0  0  0  0  0  0
   42.5570   22.5940   36.4060 H   0  0  0  0  0  0  0  0  0  0  0  0
   40.7310   22.5960   37.5550 C   0  0  0  0  0  3  0  0  0  0  0  0
   39.3910   22.9280   37.5160 C   0  0  0  0  0  3  0  0  0  0  0  0
  1  5  1  0  0  0  0
  2  3  1  0  0  0  0
  2  1  2  0  0  0  0
  3  4  2  0  0  0  0
  4  5  1  0  0  0  0
  4 10  1  0  0  0  0
  6  2  1  0  0  0  0
  7  3  1  0  0  0  0
  8  9  1  0  0  0  0
  9 15  1  0  0  0  0
 10  9  2  0  0  0  0
 10 11  1  0  0  0  0
 11 12  2  0  0  0  0
 12 13  1  0  0  0  0
 12 17  1  0  0  0  0
 13 14  1  0  0  0  0
 15 18  1  0  0  0  0
 15 13  2  0  0  0  0
 16 11  1  0  0  0  0
 19 20  2  0  0  0  0
 19 24  1  0  0  0  0
 20 21  1  0  0  0  0
 21  1  1  0  0  0  0
 21 22  2  0  0  0  0
 23 22  1  0  0  0  0
 23 29  1  0  0  0  0
 24 23  2  0  0  0  0
 25 19  1  0  0  0  0
 26 20  1  0  0  0  0
 27 28  1  0  0  0  0
 28 35  1  0  0  0  0
 29 30  1  0  0  0  0
 29 28  2  0  0  0  0
 30 32  2  0  0  0  0
 31 30  1  0  0  0  0
 32 34  1  0  0  0  0
 33 32  1  0  0  0  0
 35 34  2  0  0  0  0
M  END
>  <minimizedAffinity>
-6.37475014

$$$$

 OpenBabel03272503213D

 35 38  0  0  0  0  0  0  0  0999 V2000
   37.1900   27.5710   34.3430 C   0  0  0  0  0  0  0  0  0  0  0  0
   37.7720   27.8620   35.5070 C   0  0  0  0  0  0  0  0  0  0  0  0
   38.5770   26.9660   36.1080 C   0  0  0  0  0  0  0  0  0  0  0  0
   38.7600   25.7580   35.4640 C   0  0  0  0  0  0  0  0  0  0  0  0
   37.7350   25.9400   33.9540 S   0  0  0  0  0  0  0  0  0  0  0  0
   37.5700   28.8430   35.9440 H   0  0  0  0  0  0  0  0  0  0  0  0
   39.1050   27.0770   37.0450 H   0  0  0  0  0  0  0  0  0  0  0  0
   37.4000   23.7560   37.3070 Cl  0  0  0  0  0  0  0  0  0  0  0  0
   38.9810   23.6330   36.5960 C   0  0  0  0  0  0  0  0  0  0  0  0
   39.5230   24.5760   35.7770 C   0  0  0  0  0  0  0  0  0  0  0  0
   40.7570   24.5230   35.2000 C   0  0  0  0  0  0  0  0  0  0  0  0
   41.5650   23.4100   35.4510 C   0  0  0  0  0  0  0  0  0  0  0  0
   41.0870   22.4220   36.2620 C   0  0  0  0  0  0  0  0  0  0  0  0
   42.0190   20.9860   36.6390 Cl  0  0  0  0  0  0  0  0  0  0  0  0
   39.8190   22.5360   36.8210 C   0  0  0  0  0  0  0  0  0  0  0  0
   41.1740   25.2850   34.5510 H   0  0  0  0  0  0  0  0  0  0  0  0
   42.5530   23.3210   35.0150 H   0  0  0  0  0  0  0  0  0  0  0  0
   39.4450   21.7350   37.4720 H   0  0  0  0  0  0  0  0  0  0  0  0
   35.7150   29.3710   31.3860 C   0  0  0  0  0  0  0  0  0  0  0  0
   36.6470   28.6320   32.1490 C   0  0  0  0  0  0  0  0  0  0  0  0
   36.2850   28.3340   33.4790 C   0  0  0  0  0  0  0  0  0  0  0  0
   35.1080   28.7530   33.9500 N   0  0  0  0  0  0  0  0  0  0  0  0
   34.2510   29.4540   33.1880 C   0  0  0  0  0  0  0  0  0  0  0  0
   34.5550   29.7600   31.9150 N   0  0  0  0  0  0  0  0  0  0  0  0
   36.0050   29.5940   30.3630 H   0  0  0  0  0  0  0  0  0  0  0  0
   37.5940   28.2960   31.7670 H   0  0  0  0  0  0  0  0  0  0  0  0
   31.8430   28.1080   32.6710 F   0  0  0  0  0  0  0  0  0  0  0  0
   31.8200   29.1900   33.4930 C   0  0  0  0  0  0  0  0  0  0  0  0
   32.9850   29.8770   33.7710 C   0  0  0  0  0  0  0  0  0  0  0  0
   32.9660   30.9720   34.6020 C   0  0  0  0  0  0  0  0  0  0  0  0
   33.8700   31.5260   34.8330 H   0  0  0  0  0  0  0  0  0  0  0  0
   31.7500   31.3440   35.1350 C   0  0  0  0  0  0  0  0  0  0  0  0
   31.7710   32.2190   35.7920 H   0  0  0  0  0  0  0  0  0  0  0  0
   30.5690   30.6780   34.8780 C   0  0  0  0  0  3  0  0  0  0  0  0
   30.6140   29.5820   34.0400 C   0  0  0  0  0  3  0  0  0  0  0  0
  1  2  2  0  0  0  0
  2  6  1  0  0  0  0
  2  3  1  0  0  0  0
  3  7  1  0  0  0  0
  4 10  1  0  0  0  0
  4  3  2  0  0  0  0
  5  1  1  0  0  0  0
  5  4  1  0  0  0  0
  9 15  1  0  0  0  0
  9  8  1  0  0  0  0
 10  9  2  0  0  0  0
 11 12  2  0  0  0  0
 11 10  1  0  0  0  0
 12 13  1  0  0  0  0
 13 14  1  0  0  0  0
 13 15  2  0  0  0  0
 15 18  1  0  0  0  0
 16 11  1  0  0  0  0
 17 12  1  0  0  0  0
 19 24  2  0  0  0  0
 19 20  1  0  0  0  0
 20 21  2  0  0  0  0
 21 22  1  0  0  0  0
 21  1  1  0  0  0  0
 23 29  1  0  0  0  0
 23 22  2  0  0  0  0
 24 23  1  0  0  0  0
 25 19  1  0  0  0  0
 26 20  1  0  0  0  0
 27 28  1  0  0  0  0
 28 29  2  0  0  0  0
 28 35  1  0  0  0  0
 29 30  1  0  0  0  0
 30 31  1  0  0  0  0
 30 32  2  0  0  0  0
 32 33  1  0  0  0  0
 34 32  1  0  0  0  0
 35 34  2  0  0  0  0
M  END
>  <minimizedAffinity>
-6.19854689

$$$$

 OpenBabel03272503213D

 35 38  0  0  0  0  0  0  0  0999 V2000
   36.6160   27.1220   33.2000 C   0  0  0  0  0  0  0  0  0  0  0  0
   36.0310   27.8530   32.2510 C   0  0  0  0  0  0  0  0  0  0  0  0
   35.6830   29.1310   32.4940 C   0  0  0  0  0  0  0  0  0  0  0  0
   35.9620   29.6270   33.7530 C   0  0  0  0  0  0  0  0  0  0  0  0
   36.7450   28.1960   34.5920 S   0  0  0  0  0  0  0  0  0  0  0  0
   35.8480   27.3780   31.2840 H   0  0  0  0  0  0  0  0  0  0  0  0
   35.2060   29.8260   31.8170 H   0  0  0  0  0  0  0  0  0  0  0  0
   36.4440   32.0600   31.9910 Cl  0  0  0  0  0  0  0  0  0  0  0  0
   35.9440   32.0430   33.6560 C   0  0  0  0  0  0  0  0  0  0  0  0
   35.7490   30.9070   34.3800 C   0  0  0  0  0  0  0  0  0  0  0  0
   35.3600   30.8460   35.6850 C   0  0  0  0  0  0  0  0  0  0  0  0
   35.1300   32.0420   36.3710 C   0  0  0  0  0  0  0  0  0  0  0  0
   35.3040   33.2220   35.7080 C   0  0  0  0  0  0  0  0  0  0  0  0
   35.0430   34.7760   36.4760 Cl  0  0  0  0  0  0  0  0  0  0  0  0
   35.7030   33.2170   34.3760 C   0  0  0  0  0  0  0  0  0  0  0  0
   35.2100   29.9310   36.2480 H   0  0  0  0  0  0  0  0  0  0  0  0
   34.8190   32.0460   37.4090 H   0  0  0  0  0  0  0  0  0  0  0  0
   35.8400   34.1720   33.8530 H   0  0  0  0  0  0  0  0  0  0  0  0
   37.3050   23.5490   32.2410 C   0  0  0  0  0  0  0  0  0  0  0  0
   36.8080   24.8680   32.1430 C   0  0  0  0  0  0  0  0  0  0  0  0
   37.0920   25.7360   33.2180 C   0  0  0  0  0  0  0  0  0  0  0  0
   37.7990   25.2870   34.2570 N   0  0  0  0  0  0  0  0  0  0  0  0
   38.2540   24.0230   34.3090 C   0  0  0  0  0  0  0  0  0  0  0  0
   38.0070   23.1610   33.3060 N   0  0  0  0  0  0  0  0  0  0  0  0
   37.0810   22.8910   31.4070 H   0  0  0  0  0  0  0  0  0  0  0  0
   36.2390   25.2270   31.3050 H   0  0  0  0  0  0  0  0  0  0  0  0
   37.0920   23.7860   36.8540 F   0  0  0  0  0  0  0  0  0  0  0  0
   38.4140   23.5000   36.7120 C   0  0  0  0  0  0  0  0  0  0  0  0
   39.0190   23.6040   35.4750 C   0  0  0  0  0  0  0  0  0  0  0  0
   40.3560   23.3160   35.3280 C   0  0  0  0  0  0  0  0  0  0  0  0
   40.8510   23.3930   34.3650 H   0  0  0  0  0  0  0  0  0  0  0  0
   41.0490   22.9240   36.4530 C   0  0  0  0  0  0  0  0  0  0  0  0
   42.1100   22.7030   36.3000 H   0  0  0  0  0  0  0  0  0  0  0  0
   40.4730   22.8090   37.7010 C   0  0  0  0  0  3  0  0  0  0  0  0
   39.1300   23.1050   37.8250 C   0  0  0  0  0  3  0  0  0  0  0  0
  1 21  1  0  0  0  0
  1  5  1  0  0  0  0
  2  3  1  0  0  0  0
  2  1  2  0  0  0  0
  3  4  2  0  0  0  0
  4 10  1  0  0  0  0
  4  5  1  0  0  0  0
  6  2  1  0  0  0  0
  7  3  1  0  0  0  0
  8  9  1  0  0  0  0
  9 15  2  0  0  0  0
  9 10  1  0  0  0  0
 10 11  2  0  0  0  0
 11 16  1  0  0  0  0
 11 12  1  0  0  0  0
 12 17  1  0  0  0  0
 13 12  2  0  0  0  0
 13 14  1  0  0  0  0
 15 13  1  0  0  0  0
 18 15  1  0  0  0  0
 19 24  1  0  0  0  0
 20 19  2  0  0  0  0
 20 21  1  0  0  0  0
 21 22  2  0  0  0  0
 22 23  1  0  0  0  0
 23 29  1  0  0  0  0
 24 23  2  0  0  0  0
 25 19  1  0  0  0  0
 26 20  1  0  0  0  0
 28 27  1  0  0  0  0
 28 35  1  0  0  0  0
 29 28  2  0  0  0  0
 30 29  1  0  0  0  0
 30 32  2  0  0  0  0
 31 30  1  0  0  0  0
 32 34  1  0  0  0  0
 33 32  1  0  0  0  0
 34 35  2  0  0  0  0
M  END
>  <minimizedAffinity>
-6.07773399

$$$$

 OpenBabel03272503213D

 35 38  0  0  0  0  0  0  0  0999 V2000
   37.2070   27.5750   33.2220 C   0  0  0  0  0  0  0  0  0  0  0  0
   37.7730   26.7700   32.3220 C   0  0  0  0  0  0  0  0  0  0  0  0
   38.5150   25.7200   32.7210 C   0  0  0  0  0  0  0  0  0  0  0  0
   38.6520   25.5300   34.0820 C   0  0  0  0  0  0  0  0  0  0  0  0
   37.6770   26.9140   34.7880 S   0  0  0  0  0  0  0  0  0  0  0  0
   37.6110   26.9960   31.2660 H   0  0  0  0  0  0  0  0  0  0  0  0
   39.0240   24.9970   32.0980 H   0  0  0  0  0  0  0  0  0  0  0  0
   41.6070   26.0720   34.5650 Cl  0  0  0  0  0  0  0  0  0  0  0  0
   40.6710   24.7240   35.1390 C   0  0  0  0  0  0  0  0  0  0  0  0
   39.3460   24.5500   34.8790 C   0  0  0  0  0  0  0  0  0  0  0  0
   38.5750   23.5110   35.3050 C   0  0  0  0  0  0  0  0  0  0  0  0
   39.1690   22.5140   36.0860 C   0  0  0  0  0  0  0  0  0  0  0  0
   40.4960   22.6220   36.3890 C   0  0  0  0  0  0  0  0  0  0  0  0
   41.3350   21.4280   37.3600 Cl  0  0  0  0  0  0  0  0  0  0  0  0
   41.2280   23.7080   35.9230 C   0  0  0  0  0  0  0  0  0  0  0  0
   37.5210   23.3870   35.0880 H   0  0  0  0  0  0  0  0  0  0  0  0
   38.5990   21.6680   36.4490 H   0  0  0  0  0  0  0  0  0  0  0  0
   42.2940   23.7840   36.1730 H   0  0  0  0  0  0  0  0  0  0  0  0
   35.4960   30.6170   31.8160 C   0  0  0  0  0  0  0  0  0  0  0  0
   36.3330   29.4800   31.8650 C   0  0  0  0  0  0  0  0  0  0  0  0
   36.3670   28.7680   33.0820 C   0  0  0  0  0  0  0  0  0  0  0  0
   35.6250   29.1860   34.1100 N   0  0  0  0  0  0  0  0  0  0  0  0
   34.8420   30.2740   34.0190 C   0  0  0  0  0  0  0  0  0  0  0  0
   34.7790   30.9830   32.8780 N   0  0  0  0  0  0  0  0  0  0  0  0
   35.4780   31.1570   30.8730 H   0  0  0  0  0  0  0  0  0  0  0  0
   36.9290   29.1450   31.0350 H   0  0  0  0  0  0  0  0  0  0  0  0
   32.4530   28.9820   34.7280 F   0  0  0  0  0  0  0  0  0  0  0  0
   32.8900   30.0120   35.5000 C   0  0  0  0  0  0  0  0  0  0  0  0
   34.0610   30.6710   35.1830 C   0  0  0  0  0  0  0  0  0  0  0  0
   34.5070   31.7130   35.9610 C   0  0  0  0  0  0  0  0  0  0  0  0
   35.4240   32.2440   35.7290 H   0  0  0  0  0  0  0  0  0  0  0  0
   33.7420   32.0620   37.0540 C   0  0  0  0  0  0  0  0  0  0  0  0
   34.1250   32.8940   37.6520 H   0  0  0  0  0  0  0  0  0  0  0  0
   32.5690   31.4220   37.3990 C   0  0  0  0  0  3  0  0  0  0  0  0
   32.1420   30.3800   36.6010 C   0  0  0  0  0  3  0  0  0  0  0  0
  1  5  1  0  0  0  0
  2  3  1  0  0  0  0
  2  1  2  0  0  0  0
  3  4  2  0  0  0  0
  4  5  1  0  0  0  0
  4 10  1  0  0  0  0
  6  2  1  0  0  0  0
  7  3  1  0  0  0  0
  8  9  1  0  0  0  0
  9 15  1  0  0  0  0
 10  9  2  0  0  0  0
 10 11  1  0  0  0  0
 11 12  2  0  0  0  0
 12 13  1  0  0  0  0
 12 17  1  0  0  0  0
 13 14  1  0  0  0  0
 15 18  1  0  0  0  0
 15 13  2  0  0  0  0
 16 11  1  0  0  0  0
 19 20  2  0  0  0  0
 19 24  1  0  0  0  0
 20 21  1  0  0  0  0
 21  1  1  0  0  0  0
 21 22  2  0  0  0  0
 23 22  1  0  0  0  0
 23 29  1  0  0  0  0
 24 23  2  0  0  0  0
 25 19  1  0  0  0  0
 26 20  1  0  0  0  0
 27 28  1  0  0  0  0
 28 35  1  0  0  0  0
 29 28  2  0  0  0  0
 29 30  1  0  0  0  0
 30 32  2  0  0  0  0
 31 30  1  0  0  0  0
 32 34  1  0  0  0  0
 32 33  1  0  0  0  0
 35 34  2  0  0  0  0
M  END
>  <minimizedAffinity>
-6.05409241

$$$$
