
 OpenBabel03272501323D

 27 29  0  0  1  0  0  0  0  0999 V2000
   38.0210   32.0430   47.5150 C   0  0  2  0  0  0  0  0  0  0  0  0
   38.0500   30.5100   47.1340 C   0  0  0  0  0  0  0  0  0  0  0  0
   39.1450   31.5050   46.7800 C   0  0  1  0  0  0  0  0  0  0  0  0
   37.0220   32.4010   47.1200 H   0  0  0  0  0  0  0  0  0  0  0  0
   38.2390   29.7920   47.9250 H   0  0  0  0  0  0  0  0  0  0  0  0
   37.3950   30.1830   46.3110 H   0  0  0  0  0  0  0  0  0  0  0  0
   40.0800   31.3580   47.3880 H   0  0  0  0  0  0  0  0  0  0  0  0
   39.3710   29.3850   44.8840 F   0  0  0  0  0  0  0  0  0  0  0  0
   39.4790   30.6400   44.4310 C   0  0  0  0  0  0  0  0  0  0  0  0
   39.3690   31.6900   45.3490 C   0  0  0  0  0  0  0  0  0  0  0  0
   39.4820   33.0050   44.8800 C   0  0  0  0  0  0  0  0  0  0  0  0
   39.3980   33.8370   45.5890 H   0  0  0  0  0  0  0  0  0  0  0  0
   39.6950   33.2820   43.5460 C   0  0  0  0  0  0  0  0  0  0  0  0
   39.7710   34.3270   43.2590 H   0  0  0  0  0  0  0  0  0  0  0  0
   39.8060   32.2510   42.6190 C   0  0  0  0  0  0  0  0  0  0  0  0
   39.6910   30.9690   43.1120 C   0  0  0  0  0  0  0  0  0  0  0  0
   38.0600   32.1580   49.0060 C   0  0  0  0  0  0  0  0  0  0  0  0
   38.7910   33.0720   49.5280 O   0  0  0  0  0  0  0  0  0  0  0  0
   37.1220   29.6360   51.6030 C   0  0  0  0  0  0  0  0  0  0  0  0
   37.8790   30.5430   50.8730 C   0  0  0  0  0  0  0  0  0  0  0  0
   37.2830   31.2320   49.8120 C   0  0  0  0  0  0  0  0  0  0  0  0
   36.0000   30.9760   49.5550 N   0  0  0  0  0  0  0  0  0  0  0  0
   35.2840   30.0860   50.2840 C   0  0  0  0  0  0  0  0  0  0  0  0
   35.8250   29.4140   51.3020 N   0  0  0  0  0  0  0  0  0  0  0  0
   37.6830   29.1620   52.3980 H   0  0  0  0  0  0  0  0  0  0  0  0
   38.9170   30.7600   51.0710 H   0  0  0  0  0  0  0  0  0  0  0  0
   34.2380   29.8980   50.0530 H   0  0  0  0  0  0  0  0  0  0  0  0
  1  4  1  6  0  0  0
  1 17  1  0  0  0  0
  2  1  1  0  0  0  0
  2  5  1  0  0  0  0
  3  2  1  0  0  0  0
  3  7  1  1  0  0  0
  3  1  1  0  0  0  0
  6  2  1  0  0  0  0
  9  8  1  0  0  0  0
  9 10  1  0  0  0  0
 10  3  1  0  0  0  0
 11 10  2  0  0  0  0
 11 12  1  0  0  0  0
 13 11  1  0  0  0  0
 14 13  1  0  0  0  0
 15 16  1  0  0  0  0
 15 13  2  0  0  0  0
 16  9  2  0  0  0  0
 17 18  2  0  0  0  0
 17 21  1  0  0  0  0
 19 25  1  0  0  0  0
 20 26  1  0  0  0  0
 20 19  2  0  0  0  0
 21 20  1  0  0  0  0
 22 21  2  0  0  0  0
 22 23  1  0  0  0  0
 23 24  2  0  0  0  0
 24 19  1  0  0  0  0
 27 23  1  0  0  0  0
M  END
>  <minimizedAffinity>
-5.7608223

>  <minimizedRMSD>
1.10288024

$$$$
