
     RDKit          3D

 33 36  0  0  0  0  0  0  0  0999 V2000
   37.0483   30.7245   46.7766 C   0  0  0  0  0  0  0  0  0  0  0  0
   37.7001   31.1423   47.9287 C   0  0  0  0  0  0  0  0  0  0  0  0
   38.7165   32.0536   47.8335 C   0  0  0  0  0  0  0  0  0  0  0  0
   39.0626   32.5325   46.5725 C   0  0  0  0  0  0  0  0  0  0  0  0
   40.0257   33.4290   46.2419 N   0  0  0  0  0  0  0  0  0  0  0  0
   40.0034   33.5917   44.9136 C   0  0  0  0  0  0  0  0  0  0  0  0
   39.0465   32.8171   44.3968 N   0  0  0  0  0  0  0  0  0  0  0  0
   38.4381   32.1422   45.3965 C   0  0  0  0  0  0  0  0  0  0  0  0
   37.4080   31.2154   45.5166 C   0  0  0  0  0  0  0  0  0  0  0  0
   37.3835   30.1786   51.5495 C   0  0  0  0  0  0  0  0  0  0  0  0
   37.8920   30.7701   50.3892 C   0  0  0  0  0  0  0  0  0  0  0  0
   37.2495   30.5724   49.1798 C   0  0  0  0  0  0  0  0  0  0  0  0
   36.1268   29.7976   49.1562 N   0  0  0  0  0  0  0  0  0  0  0  0
   35.6474   29.2277   50.3089 C   0  0  0  0  0  0  0  0  0  0  0  0
   36.2625   29.4154   51.4748 N   0  0  0  0  0  0  0  0  0  0  0  0
   36.2341   30.0064   46.7673 H   0  0  0  0  0  0  0  0  0  0  0  0
   39.2338   32.3888   48.7210 H   0  0  0  0  0  0  0  0  0  0  0  0
   40.6680   33.9069   46.8944 H   0  0  0  0  0  0  0  0  0  0  0  0
   36.9124   30.8996   44.6267 H   0  0  0  0  0  0  0  0  0  0  0  0
   37.8712   30.3234   52.4926 H   0  0  0  0  0  0  0  0  0  0  0  0
   38.7710   31.3725   50.4282 H   0  0  0  0  0  0  0  0  0  0  0  0
   34.7533   28.6275   50.2083 H   0  0  0  0  0  0  0  0  0  0  0  0
   39.8200   33.8152   42.1060 F   0  0  0  0  0  0  0  0  0  0  0  0
   40.7594   34.5557   42.7573 C   0  0  0  0  0  0  0  0  0  0  0  0
   40.8843   34.4777   44.1295 C   0  0  0  0  0  0  0  0  0  0  0  0
   41.8455   35.2347   44.8027 C   0  0  0  0  0  0  0  0  0  0  0  0
   41.9765   35.2028   45.8778 H   0  0  0  0  0  0  0  0  0  0  0  0
   42.6979   36.0857   44.0906 C   0  0  0  0  0  0  0  0  0  0  0  0
   43.4632   36.7015   44.5303 H   0  0  0  0  0  0  0  0  0  0  0  0
   42.4933   36.0923   42.7254 C   0  0  0  0  0  0  0  0  0  0  0  0
   41.5692   35.3754   41.9986 C   0  0  0  0  0  0  0  0  0  0  0  0
   43.1550   36.7562   42.1486 H   0  0  0  0  0  0  0  0  0  0  0  0
   41.5269   35.4857   40.9239 H   0  0  0  0  0  0  0  0  0  0  0  0
  1  2  2  0
  2 12  1  0
  3  2  1  0
  4  3  2  0
  5  4  1  0
  6  5  1  0
  7  6  2  0
  7  8  1  0
  8  9  2  0
  8  4  1  0
  9  1  1  0
 11 10  2  0
 12 11  1  0
 13 12  2  0
 13 14  1  0
 14 15  2  0
 15 10  1  0
  1 16  1  0
  3 17  1  0
  5 18  1  0
  9 19  1  0
 10 20  1  0
 11 21  1  0
 14 22  1  0
 23 24  1  0
 24 25  2  0
 25 26  1  0
 26 27  1  0
 26 28  2  0
 28 29  1  0
 28 30  1  0
 30 31  2  0
 31 24  1  0
 30 32  1  0
 31 33  1  0
  6 25  1  0
M  ISO  8  16  14  17  14  18   9  19  14  20  14  21  14  22  14  27  15
M  ISO  1  29  16
M  END
>  <DihAtoms>  (1) 
4,5,24,23

>  <DihDeg>  (1) 
179.99914975373628

$$$$
