REMARK  Name = 
REMARK  2 active torsions:
REMARK  status: ('A' for Active; 'I' for Inactive)
REMARK    1  A    between atoms: C_5  and  C_7
REMARK    2  A    between atoms: C_12  and  C_22
REMARK                            x       y       z     vdW  Elec       q    Type
REMARK                         _______ _______ _______ _____ _____    ______ ____
ROOT
ATOM      1  C   UNL     1      36.099  30.133  48.601  0.00  0.00    +0.000 A 
ATOM      2  C   UNL     1      35.285  29.956  47.494  0.00  0.00    +0.000 A 
ATOM      3  C   UNL     1      34.300  28.981  47.503  0.00  0.00    +0.000 A 
ATOM      4  C   UNL     1      34.153  28.196  48.640  0.00  0.00    +0.000 A 
ATOM      5  C   UNL     1      34.956  28.362  49.747  0.00  0.00    +0.000 A 
ATOM      6  C   UNL     1      35.937  29.338  49.730  0.00  0.00    +0.000 A 
ATOM      7  H   UNL     1      35.419  30.573  46.634  0.00  0.00    +0.000 HD
ATOM      8  H   UNL     1      33.678  28.855  46.641  0.00  0.00    +0.000 HD
ATOM      9  H   UNL     1      33.394  27.422  48.688  0.00  0.00    +0.000 HD
ATOM     10  H   UNL     1      34.871  27.771  50.648  0.00  0.00    +0.000 HD
ENDROOT
BRANCH   1  15
ATOM     11  C   UNL     1      38.011  33.101  49.481  0.00  0.00    +0.000 A 
ATOM     12  C   UNL     1      38.971  33.208  48.466  0.00  0.00    +0.000 A 
ATOM     13  C   UNL     1      38.943  32.224  47.464  0.00  0.00    +0.000 A 
ATOM     14  N   UNL     1      38.011  31.253  47.537  0.00  0.00    +0.000 NA
ATOM     15  C   UNL     1      37.105  31.174  48.518  0.00  0.00    +0.000 A 
ATOM     16  N   UNL     1      37.114  32.109  49.491  0.00  0.00    +0.000 NA
ATOM     17  H   UNL     1      37.956  33.810  50.292  0.00  0.00    +0.000 HD
ATOM     18  H   UNL     1      39.645  34.024  48.535  0.00  0.00    +0.000 HD
ATOM     19  H   UNL     1      39.686  32.314  46.684  0.00  0.00    +0.000 HD
ENDBRANCH   1  15
BRANCH   6  22
ATOM     20  F   UNL     1      35.170  31.239  51.622  0.00  0.00    +0.000 F 
ATOM     21  C   UNL     1      36.313  30.506  51.767  0.00  0.00    +0.000 A 
ATOM     22  C   UNL     1      36.801  29.530  50.893  0.00  0.00    +0.000 A 
ATOM     23  C   UNL     1      37.995  28.895  51.227  0.00  0.00    +0.000 A 
ATOM     24  H   UNL     1      38.281  28.170  50.498  0.00  0.00    +0.000 HD
ATOM     25  C   UNL     1      38.642  29.234  52.373  0.00  0.00    +0.000 A 
ATOM     26  H   UNL     1      39.556  28.684  52.540  0.00  0.00    +0.000 HD
ATOM     27  C   UNL     1      38.172  30.195  53.246  0.00  0.00    +0.000 A 
ATOM     28  C   UNL     1      36.982  30.838  52.927  0.00  0.00    +0.000 A 
ENDBRANCH   6  22
TORSDOF 2
