
 OpenBabel03272501363D

 36 39  0  0  1  0  0  0  0  0999 V2000
   38.8490   32.2150   47.4100 C   0  0  2  0  0  0  0  0  0  0  0  0
   39.5210   33.2730   47.7160 O   0  0  0  0  0  0  0  0  0  0  0  0
   37.6060   30.8190   50.6350 C   0  0  0  0  0  0  0  0  0  0  0  0
   38.3480   31.4860   49.6880 C   0  0  0  0  0  0  0  0  0  0  0  0
   37.9940   31.5170   48.3230 C   0  0  0  0  0  0  0  0  0  0  0  0
   36.9050   30.8680   47.9980 N   0  0  0  0  0  0  0  0  0  0  0  0
   36.1710   30.2050   48.9520 C   0  0  0  0  0  0  0  0  0  0  0  0
   36.5000   30.1730   50.2360 N   0  0  0  0  0  0  0  0  0  0  0  0
   37.8740   30.7950   51.6690 H   0  0  0  0  0  0  0  0  0  0  0  0
   39.2370   32.0010   50.0280 H   0  0  0  0  0  0  0  0  0  0  0  0
   35.1990   30.3530   46.2840 F   0  0  0  0  0  0  0  0  0  0  0  0
   34.5180   29.5960   47.1950 C   0  0  0  0  0  0  0  0  0  0  0  0
   34.9700   29.5090   48.4960 C   0  0  0  0  0  0  0  0  0  0  0  0
   34.2370   28.7260   49.3710 C   0  0  0  0  0  0  0  0  0  0  0  0
   34.5710   28.6430   50.3960 H   0  0  0  0  0  0  0  0  0  0  0  0
   33.0870   28.0400   48.9980 C   0  0  0  0  0  0  0  0  0  0  0  0
   32.5770   27.4480   49.7620 H   0  0  0  0  0  0  0  0  0  0  0  0
   32.6370   28.1280   47.6970 C   0  0  0  0  0  0  0  0  0  0  0  0
   33.3760   28.9100   46.8350 C   0  0  0  0  0  0  0  0  0  0  0  0
   38.9710   31.6650   46.0100 C   0  0  2  0  0  0  0  0  0  0  0  0
   40.4870   31.2060   45.8170 C   0  0  0  0  0  0  0  0  0  0  0  0
   39.8010   32.3040   45.0440 C   0  0  1  0  0  0  0  0  0  0  0  0
   38.3200   30.7840   45.8170 H   0  0  0  0  0  0  0  0  0  0  0  0
   40.6130   30.2270   45.3100 H   0  0  0  0  0  0  0  0  0  0  0  0
   41.1920   31.4410   46.6000 H   0  0  0  0  0  0  0  0  0  0  0  0
   40.2580   33.3160   45.2930 H   0  0  0  0  0  0  0  0  0  0  0  0
   39.7470   32.1070   43.5930 C   0  0  0  0  0  0  0  0  0  0  0  0
   39.0230   33.0310   42.8480 C   0  0  0  0  0  0  0  0  0  0  0  0
   38.9720   32.8430   41.4900 C   0  0  0  0  0  0  0  0  0  0  0  0
   39.6080   31.7800   40.8670 C   0  0  0  0  0  0  0  0  0  0  0  0
   40.3120   30.8920   41.6410 C   0  0  0  0  0  0  0  0  0  0  0  0
   40.3660   31.0710   42.9700 N   0  0  0  0  0  0  0  0  0  0  0  0
   38.5250   33.8620   43.3410 H   0  0  0  0  0  0  0  0  0  0  0  0
   38.4090   33.5570   40.9040 H   0  0  0  0  0  0  0  0  0  0  0  0
   39.5030   31.7250   39.7880 H   0  0  0  0  0  0  0  0  0  0  0  0
   40.8070   30.0640   41.1500 H   0  0  0  0  0  0  0  0  0  0  0  0
  1  2  1  1  0  0  0
  1  5  1  0  0  0  0
  3  9  1  0  0  0  0
  4 10  1  0  0  0  0
  4  3  2  0  0  0  0
  5  4  1  0  0  0  0
  6  5  2  0  0  0  0
  6  7  1  0  0  0  0
  7  8  2  0  0  0  0
  8  3  1  0  0  0  0
 11 12  1  0  0  0  0
 12 13  1  0  0  0  0
 13  7  1  0  0  0  0
 13 14  2  0  0  0  0
 14 15  1  0  0  0  0
 16 14  1  0  0  0  0
 16 17  1  0  0  0  0
 18 16  2  0  0  0  0
 19 12  2  0  0  0  0
 19 18  1  0  0  0  0
 20 23  1  6  0  0  0
 20  1  1  0  0  0  0
 21 20  1  0  0  0  0
 21 25  1  0  0  0  0
 22 26  1  1  0  0  0
 22 21  1  0  0  0  0
 22 20  1  0  0  0  0
 24 21  1  0  0  0  0
 27 22  1  0  0  0  0
 28 33  1  0  0  0  0
 28 27  2  0  0  0  0
 29 28  1  0  0  0  0
 30 29  2  0  0  0  0
 30 31  1  0  0  0  0
 31 32  2  0  0  0  0
 32 27  1  0  0  0  0
 34 29  1  0  0  0  0
 35 30  1  0  0  0  0
 36 31  1  0  0  0  0
M  END
>  <minimizedAffinity>
-6.49109793

>  <minimizedRMSD>
1.88156378

$$$$
