
 OpenBabel03272510333D

 28 30  0  0  0  0  0  0  0  0999 V2000
   35.9040   30.1660   46.8240 C   0  0  0  0  0  0  0  0  0  0  0  0
   35.2310   30.1930   45.6130 C   0  0  0  0  0  0  0  0  0  0  0  0
   34.0080   29.5540   45.4820 C   0  0  0  0  0  0  0  0  0  0  0  0
   33.4820   28.8940   46.5860 C   0  0  0  0  0  0  0  0  0  0  0  0
   34.1420   28.8590   47.7950 C   0  0  0  0  0  0  0  0  0  0  0  0
   35.3630   29.5000   47.9170 C   0  0  0  0  0  0  0  0  0  0  0  0
   35.6570   30.7080   44.7820 H   0  0  0  0  0  0  0  0  0  0  0  0
   33.4990   29.5830   44.5410 H   0  0  0  0  0  0  0  0  0  0  0  0
   32.5280   28.3810   46.5250 H   0  0  0  0  0  0  0  0  0  0  0  0
   33.7640   28.3560   48.6740 H   0  0  0  0  0  0  0  0  0  0  0  0
   38.4200   32.5870   47.8490 C   0  0  0  0  0  0  0  0  0  0  0  0
   39.5480   32.2580   47.0860 C   0  0  0  0  0  0  0  0  0  0  0  0
   39.4200   31.1720   46.2040 C   0  0  0  0  0  0  0  0  0  0  0  0
   38.2400   30.5230   46.1450 N   0  0  0  0  0  0  0  0  0  0  0  0
   37.1770   30.8580   46.8840 C   0  0  0  0  0  0  0  0  0  0  0  0
   37.2780   31.8980   47.7390 N   0  0  0  0  0  0  0  0  0  0  0  0
   38.4250   33.4040   48.5520 H   0  0  0  0  0  0  0  0  0  0  0  0
   40.4120   32.8540   47.2360 H   0  0  0  0  0  0  0  0  0  0  0  0
   40.2940   30.9250   45.6180 H   0  0  0  0  0  0  0  0  0  0  0  0
   33.8850   29.8750   50.2530 F   0  0  0  0  0  0  0  0  0  0  0  0
   35.2340   29.6730   50.2860 C   0  0  0  0  0  0  0  0  0  0  0  0
   36.0800   29.4740   49.1900 C   0  0  0  0  0  0  0  0  0  0  0  0
   37.4370   29.2860   49.4420 C   0  0  0  0  0  0  0  0  0  0  0  0
   37.9960   29.1440   48.5430 H   0  0  0  0  0  0  0  0  0  0  0  0
   37.8940   29.3010   50.7210 C   0  0  0  0  0  0  0  0  0  0  0  0
   38.9610   29.1450   50.8070 H   0  0  0  0  0  0  0  0  0  0  0  0
   37.0720   29.4950   51.8120 C   0  0  0  0  0  3  0  0  0  0  0  0
   35.7150   29.6840   51.5780 C   0  0  0  0  0  3  0  0  0  0  0  0
  1 15  1  0  0  0  0
  1  6  1  0  0  0  0
  2  1  2  0  0  0  0
  3  2  1  0  0  0  0
  3  4  2  0  0  0  0
  4  5  1  0  0  0  0
  5  6  2  0  0  0  0
  5 10  1  0  0  0  0
  6 22  1  0  0  0  0
  7  2  1  0  0  0  0
  8  3  1  0  0  0  0
  9  4  1  0  0  0  0
 11 17  1  0  0  0  0
 12 18  1  0  0  0  0
 12 11  2  0  0  0  0
 13 12  1  0  0  0  0
 14 13  2  0  0  0  0
 14 15  1  0  0  0  0
 15 16  2  0  0  0  0
 16 11  1  0  0  0  0
 19 13  1  0  0  0  0
 20 21  1  0  0  0  0
 21 28  1  0  0  0  0
 22 23  1  0  0  0  0
 22 21  2  0  0  0  0
 23 25  2  0  0  0  0
 24 23  1  0  0  0  0
 25 26  1  0  0  0  0
 25 27  1  0  0  0  0
 28 27  2  0  0  0  0
M  END
>  <minimizedAffinity>
-5.24338579

>  <minimizedRMSD>
1.97621381

$$$$
