REMARK  Name = 
REMARK  2 active torsions:
REMARK  status: ('A' for Active; 'I' for Inactive)
REMARK    1  A    between atoms: C_1  and  C_7
REMARK    2  A    between atoms: C_2  and  C_19
REMARK                            x       y       z     vdW  Elec       q    Type
REMARK                         _______ _______ _______ _____ _____    ______ ____
ROOT
ATOM      1  C   UNL     1      37.046  31.133  49.261  0.00  0.00    +0.000 A 
ATOM      2  C   UNL     1      37.298  32.453  49.715  0.00  0.00    +0.000 A 
ATOM      3  C   UNL     1      38.262  33.145  48.989  0.00  0.00    +0.000 A 
ATOM      4  N   UNL     1      38.883  32.550  47.931  0.00  0.00    +0.000 NA
ATOM      5  C   UNL     1      38.603  31.274  47.534  0.00  0.00    +0.000 A 
ATOM      6  N   UNL     1      37.677  30.559  48.206  0.00  0.00    +0.000 NA
ATOM      7  H   UNL     1      38.508  34.158  49.278  0.00  0.00    +0.000 HD
ATOM      8  H   UNL     1      39.109  30.826  46.693  0.00  0.00    +0.000 HD
ENDROOT
BRANCH   2  11
ATOM      9  F   UNL     1      37.902  31.697  52.346  0.00  0.00    +0.000 F 
ATOM     10  C   UNL     1      36.929  32.605  52.116  0.00  0.00    +0.000 A 
ATOM     11  C   UNL     1      36.597  33.007  50.840  0.00  0.00    +0.000 A 
ATOM     12  C   UNL     1      35.588  33.943  50.694  0.00  0.00    +0.000 A 
ATOM     13  H   UNL     1      35.299  34.284  49.705  0.00  0.00    +0.000 HD
ATOM     14  C   UNL     1      34.929  34.461  51.804  0.00  0.00    +0.000 A 
ATOM     15  H   UNL     1      34.151  35.184  51.656  0.00  0.00    +0.000 HD
ATOM     16  C   UNL     1      35.276  34.044  53.091  0.00  0.00    +0.000 A 
ATOM     17  C   UNL     1      36.291  33.103  53.232  0.00  0.00    +0.000 A 
ENDBRANCH   2  11
BRANCH   1  18
ATOM     18  C   UNL     1      35.934  30.426  50.014  0.00  0.00    +0.000 C 
ATOM     19  C   UNL     1      35.714  29.014  49.831  0.00  0.00    +0.000 C 
ATOM     20  C   UNL     1      36.518  29.435  51.039  0.00  0.00    +0.000 C 
ATOM     21  H   UNL     1      35.239  31.121  50.551  0.00  0.00    +0.000 HD
ATOM     22  H   UNL     1      36.260  28.470  49.017  0.00  0.00    +0.000 HD
ATOM     23  H   UNL     1      34.723  28.546  50.021  0.00  0.00    +0.000 HD
ATOM     24  H   UNL     1      37.605  29.299  51.044  0.00  0.00    +0.000 HD
ATOM     25  H   UNL     1      36.014  29.393  52.011  0.00  0.00    +0.000 HD
ENDBRANCH   1  18
TORSDOF 2
