
 OpenBabel03272502503D

 42 45  0  0  0  0  0  0  0  0999 V2000
   37.1570   28.3100   29.7470 Cl  0  0  0  0  0  0  0  0  0  0  0  0
   36.5350   29.0540   31.1920 C   0  0  0  0  0  0  0  0  0  0  0  0
   36.1770   28.2650   32.2500 C   0  0  0  0  0  0  0  0  0  0  0  0
   35.6790   28.8200   33.4150 C   0  0  0  0  0  0  0  0  0  0  0  0
   35.5310   30.1870   33.5370 C   0  0  0  0  0  0  0  0  0  0  0  0
   35.8850   31.0000   32.4840 C   0  0  0  0  0  0  0  0  0  0  0  0
   35.7400   32.7460   32.5240 Cl  0  0  0  0  0  0  0  0  0  0  0  0
   36.3770   30.4020   31.3410 C   0  0  0  0  0  0  0  0  0  0  0  0
   35.4110   28.1520   34.2220 H   0  0  0  0  0  0  0  0  0  0  0  0
   32.8280   30.1310   33.9250 F   0  0  0  0  0  0  0  0  0  0  0  0
   33.6360   30.7190   34.8630 C   0  0  0  0  0  0  0  0  0  0  0  0
   35.0080   30.7960   34.7560 C   0  0  0  0  0  0  0  0  0  0  0  0
   35.7590   31.4070   35.7470 C   0  0  0  0  0  0  0  0  0  0  0  0
   36.8350   31.4260   35.5870 H   0  0  0  0  0  0  0  0  0  0  0  0
   35.1010   31.9330   36.8400 C   0  0  0  0  0  0  0  0  0  0  0  0
   35.6940   32.4080   37.6070 H   0  0  0  0  0  0  0  0  0  0  0  0
   33.7230   31.8580   36.9490 C   0  0  0  0  0  3  0  0  0  0  0  0
   32.9520   31.2440   35.9580 C   0  0  0  0  0  3  0  0  0  0  0  0
   35.8010   24.7810   31.1660 C   0  0  0  0  0  0  0  0  0  0  0  0
   36.6420   24.0850   32.0280 C   0  0  0  0  0  0  0  0  0  0  0  0
   37.3290   24.8320   32.9750 C   0  0  0  0  0  0  0  0  0  0  0  0
   37.1520   26.1720   33.0110 N   0  0  0  0  0  0  0  0  0  0  0  0
   36.3230   26.8100   32.1530 C   0  0  0  0  0  0  0  0  0  0  0  0
   35.6620   26.0990   31.2450 N   0  0  0  0  0  0  0  0  0  0  0  0
   35.2430   24.2310   30.4100 H   0  0  0  0  0  0  0  0  0  0  0  0
   36.7750   23.0310   31.9920 H   0  0  0  0  0  0  0  0  0  0  0  0
   38.2480   24.2200   33.9440 C   0  0  0  0  0  0  0  0  0  0  0  0
   39.5740   23.9760   33.6920 C   0  0  0  0  0  0  0  0  0  0  0  0
   40.1800   23.4050   34.7630 N   0  0  0  0  0  0  0  0  0  0  0  0
   39.2240   23.2910   35.6980 C   0  0  0  0  0  0  0  0  0  0  0  0
   38.0870   23.7820   35.1860 N   0  0  0  0  0  0  0  0  0  0  0  0
   38.3530   23.3340   37.9710 C   0  0  0  0  0  0  0  0  0  0  0  0
   37.5720   24.2470   37.6250 O   0  0  0  0  0  0  0  0  0  0  0  0
   39.2580   22.7750   37.0130 N   0  0  0  0  0  0  0  0  0  0  0  0
   40.1310   24.1870   32.7730 H   0  0  0  0  0  0  0  0  0  0  0  0
   41.1610   23.0970   34.9070 H   0  0  0  0  0  0  0  0  0  0  0  0
   38.3440   22.9590   39.0170 H   0  0  0  0  0  0  0  0  0  0  0  0
   39.9280   22.0050   37.2700 H   0  0  0  0  0  0  0  0  0  0  0  0
   36.7690   31.2620   30.1840 C   0  0  0  0  0  0  0  0  0  0  0  0
   35.7140   32.0840   29.8020 F   0  0  0  0  0  0  0  0  0  0  0  0
   36.9720   30.4520   29.0470 F   0  0  0  0  0  0  0  0  0  0  0  0
   37.9260   31.9550   30.3970 F   0  0  0  0  0  0  0  0  0  0  0  0
  1  2  1  0  0  0  0
  2  8  2  0  0  0  0
  2  3  1  0  0  0  0
  3  4  2  0  0  0  0
  4  5  1  0  0  0  0
  4  9  1  0  0  0  0
  5 12  1  0  0  0  0
  6  7  1  0  0  0  0
  6  5  2  0  0  0  0
  8  6  1  0  0  0  0
 10 11  1  0  0  0  0
 11 18  1  0  0  0  0
 12 11  2  0  0  0  0
 12 13  1  0  0  0  0
 13 15  2  0  0  0  0
 14 13  1  0  0  0  0
 15 17  1  0  0  0  0
 15 16  1  0  0  0  0
 18 17  2  0  0  0  0
 19 24  2  0  0  0  0
 19 20  1  0  0  0  0
 20 21  2  0  0  0  0
 21 22  1  0  0  0  0
 21 27  1  0  0  0  0
 23  3  1  0  0  0  0
 23 22  2  0  0  0  0
 24 23  1  0  0  0  0
 25 19  1  0  0  0  0
 26 20  1  0  0  0  0
 27 31  1  0  0  0  0
 28 27  2  0  0  0  0
 28 29  1  0  0  0  0
 29 36  1  0  0  0  0
 29 30  1  0  0  0  0
 30 34  1  0  0  0  0
 31 30  2  0  0  0  0
 32 37  1  0  0  0  0
 33 32  2  0  0  0  0
 34 38  1  0  0  0  0
 34 32  1  0  0  0  0
 35 28  1  0  0  0  0
 39 42  1  0  0  0  0
 39  8  1  0  0  0  0
 40 39  1  0  0  0  0
 41 39  1  0  0  0  0
M  END
>  <minimizedAffinity>
-7.57534027

$$$$

 OpenBabel03272502503D

 42 45  0  0  0  0  0  0  0  0999 V2000
   37.9040   27.6750   31.1010 Cl  0  0  0  0  0  0  0  0  0  0  0  0
   36.9370   28.5230   32.2750 C   0  0  0  0  0  0  0  0  0  0  0  0
   36.7780   27.9880   33.5220 C   0  0  0  0  0  0  0  0  0  0  0  0
   36.0170   28.6330   34.4810 C   0  0  0  0  0  0  0  0  0  0  0  0
   35.3980   29.8340   34.1990 C   0  0  0  0  0  0  0  0  0  0  0  0
   35.5440   30.3900   32.9490 C   0  0  0  0  0  0  0  0  0  0  0  0
   34.8060   31.9080   32.4770 Cl  0  0  0  0  0  0  0  0  0  0  0  0
   36.3120   29.7120   32.0240 C   0  0  0  0  0  0  0  0  0  0  0  0
   35.9240   28.1680   35.4530 H   0  0  0  0  0  0  0  0  0  0  0  0
   36.6690   31.5880   35.8620 F   0  0  0  0  0  0  0  0  0  0  0  0
   35.3180   31.3950   35.9850 C   0  0  0  0  0  0  0  0  0  0  0  0
   34.5900   30.5330   35.1940 C   0  0  0  0  0  0  0  0  0  0  0  0
   33.2250   30.3910   35.3780 C   0  0  0  0  0  0  0  0  0  0  0  0
   32.7230   29.6900   34.7120 H   0  0  0  0  0  0  0  0  0  0  0  0
   32.6140   31.1310   36.3700 C   0  0  0  0  0  0  0  0  0  0  0  0
   31.5500   31.0130   36.5070 H   0  0  0  0  0  0  0  0  0  0  0  0
   33.3440   31.9960   37.1660 C   0  0  0  0  0  3  0  0  0  0  0  0
   34.7220   32.1520   36.9920 C   0  0  0  0  0  3  0  0  0  0  0  0
   38.8250   25.4370   35.1820 C   0  0  0  0  0  0  0  0  0  0  0  0
   38.5970   24.2960   34.4180 C   0  0  0  0  0  0  0  0  0  0  0  0
   37.7360   24.4270   33.3370 C   0  0  0  0  0  0  0  0  0  0  0  0
   37.1730   25.6300   33.0850 N   0  0  0  0  0  0  0  0  0  0  0  0
   37.4230   26.7140   33.8540 C   0  0  0  0  0  0  0  0  0  0  0  0
   38.2460   26.5950   34.8900 N   0  0  0  0  0  0  0  0  0  0  0  0
   39.4950   25.3770   36.0380 H   0  0  0  0  0  0  0  0  0  0  0  0
   39.0440   23.3550   34.6230 H   0  0  0  0  0  0  0  0  0  0  0  0
   37.4110   23.3010   32.4500 C   0  0  0  0  0  0  0  0  0  0  0  0
   38.1030   23.0040   31.3040 C   0  0  0  0  0  0  0  0  0  0  0  0
   37.5840   21.9150   30.6850 N   0  0  0  0  0  0  0  0  0  0  0  0
   36.5550   21.5230   31.4510 C   0  0  0  0  0  0  0  0  0  0  0  0
   36.4740   22.3620   32.4930 N   0  0  0  0  0  0  0  0  0  0  0  0
   35.1030   19.8830   32.5150 C   0  0  0  0  0  0  0  0  0  0  0  0
   35.4470   20.3400   33.6270 O   0  0  0  0  0  0  0  0  0  0  0  0
   35.6430   20.4520   31.3170 N   0  0  0  0  0  0  0  0  0  0  0  0
   38.9660   23.5340   30.8870 H   0  0  0  0  0  0  0  0  0  0  0  0
   37.8640   21.4300   29.8110 H   0  0  0  0  0  0  0  0  0  0  0  0
   34.3820   19.0390   32.4580 H   0  0  0  0  0  0  0  0  0  0  0  0
   35.3740   20.0920   30.3650 H   0  0  0  0  0  0  0  0  0  0  0  0
   36.4880   30.2940   30.6590 C   0  0  0  0  0  0  0  0  0  0  0  0
   35.4200   31.1250   30.3380 F   0  0  0  0  0  0  0  0  0  0  0  0
   36.3950   29.2670   29.6970 F   0  0  0  0  0  0  0  0  0  0  0  0
   37.6990   30.9010   30.4850 F   0  0  0  0  0  0  0  0  0  0  0  0
  1  2  1  0  0  0  0
  2  3  1  0  0  0  0
  3 23  1  0  0  0  0
  3  4  2  0  0  0  0
  4  9  1  0  0  0  0
  5  4  1  0  0  0  0
  5 12  1  0  0  0  0
  6  5  2  0  0  0  0
  7  6  1  0  0  0  0
  8  2  2  0  0  0  0
  8  6  1  0  0  0  0
 10 11  1  0  0  0  0
 11 18  1  0  0  0  0
 12 13  1  0  0  0  0
 12 11  2  0  0  0  0
 13 15  2  0  0  0  0
 14 13  1  0  0  0  0
 15 16  1  0  0  0  0
 15 17  1  0  0  0  0
 18 17  2  0  0  0  0
 19 25  1  0  0  0  0
 20 26  1  0  0  0  0
 20 19  2  0  0  0  0
 21 20  1  0  0  0  0
 22 21  2  0  0  0  0
 22 23  1  0  0  0  0
 23 24  2  0  0  0  0
 24 19  1  0  0  0  0
 27 31  1  0  0  0  0
 27 21  1  0  0  0  0
 28 27  2  0  0  0  0
 29 28  1  0  0  0  0
 29 30  1  0  0  0  0
 30 31  2  0  0  0  0
 32 33  2  0  0  0  0
 34 30  1  0  0  0  0
 34 32  1  0  0  0  0
 35 28  1  0  0  0  0
 36 29  1  0  0  0  0
 37 32  1  0  0  0  0
 38 34  1  0  0  0  0
 39  8  1  0  0  0  0
 40 39  1  0  0  0  0
 41 39  1  0  0  0  0
 42 39  1  0  0  0  0
M  END
>  <minimizedAffinity>
-7.41662264

$$$$

 OpenBabel03272502503D

 42 45  0  0  0  0  0  0  0  0999 V2000
   37.7040   28.5860   30.4440 Cl  0  0  0  0  0  0  0  0  0  0  0  0
   36.7760   29.2180   31.7730 C   0  0  0  0  0  0  0  0  0  0  0  0
   36.6120   28.4570   32.8970 C   0  0  0  0  0  0  0  0  0  0  0  0
   35.8820   28.9260   33.9740 C   0  0  0  0  0  0  0  0  0  0  0  0
   35.2980   30.1770   33.9390 C   0  0  0  0  0  0  0  0  0  0  0  0
   35.4500   30.9600   32.8170 C   0  0  0  0  0  0  0  0  0  0  0  0
   34.7560   32.5610   32.6580 Cl  0  0  0  0  0  0  0  0  0  0  0  0
   36.1870   30.4510   31.7660 C   0  0  0  0  0  0  0  0  0  0  0  0
   35.7830   28.2850   34.8380 H   0  0  0  0  0  0  0  0  0  0  0  0
   36.6040   31.7080   35.7850 F   0  0  0  0  0  0  0  0  0  0  0  0
   35.2660   31.4540   35.9390 C   0  0  0  0  0  0  0  0  0  0  0  0
   34.5230   30.6940   35.0620 C   0  0  0  0  0  0  0  0  0  0  0  0
   33.1720   30.4800   35.2840 C   0  0  0  0  0  0  0  0  0  0  0  0
   32.6570   29.8690   34.5450 H   0  0  0  0  0  0  0  0  0  0  0  0
   32.5920   31.0450   36.4020 C   0  0  0  0  0  0  0  0  0  0  0  0
   31.5400   30.8720   36.5680 H   0  0  0  0  0  0  0  0  0  0  0  0
   33.3380   31.8070   37.2850 C   0  0  0  0  0  3  0  0  0  0  0  0
   34.7010   32.0330   37.0740 C   0  0  0  0  0  3  0  0  0  0  0  0
   37.1370   24.8390   32.6100 C   0  0  0  0  0  0  0  0  0  0  0  0
   38.4170   24.6590   33.1280 C   0  0  0  0  0  0  0  0  0  0  0  0
   39.0800   25.7940   33.5700 C   0  0  0  0  0  0  0  0  0  0  0  0
   38.4660   26.9950   33.4780 N   0  0  0  0  0  0  0  0  0  0  0  0
   37.2190   27.1250   32.9670 C   0  0  0  0  0  0  0  0  0  0  0  0
   36.5790   26.0410   32.5420 N   0  0  0  0  0  0  0  0  0  0  0  0
   36.5830   23.9720   32.2540 H   0  0  0  0  0  0  0  0  0  0  0  0
   38.8920   23.7110   33.1980 H   0  0  0  0  0  0  0  0  0  0  0  0
   40.4350   25.7430   34.1390 C   0  0  0  0  0  0  0  0  0  0  0  0
   41.2870   26.8170   34.1850 C   0  0  0  0  0  0  0  0  0  0  0  0
   42.4670   26.4830   34.7610 N   0  0  0  0  0  0  0  0  0  0  0  0
   42.3560   25.1840   35.0810 C   0  0  0  0  0  0  0  0  0  0  0  0
   41.1400   24.7690   34.7010 N   0  0  0  0  0  0  0  0  0  0  0  0
   42.7100   23.2250   36.4820 C   0  0  0  0  0  0  0  0  0  0  0  0
   41.4700   23.1130   36.5920 O   0  0  0  0  0  0  0  0  0  0  0  0
   43.2600   24.2930   35.7020 N   0  0  0  0  0  0  0  0  0  0  0  0
   41.1010   27.8340   33.8230 H   0  0  0  0  0  0  0  0  0  0  0  0
   43.3170   27.0480   34.9500 H   0  0  0  0  0  0  0  0  0  0  0  0
   43.3830   22.4990   36.9890 H   0  0  0  0  0  0  0  0  0  0  0  0
   44.2990   24.4160   35.5880 H   0  0  0  0  0  0  0  0  0  0  0  0
   36.3680   31.2810   30.5370 C   0  0  0  0  0  0  0  0  0  0  0  0
   35.1820   31.9230   30.1980 F   0  0  0  0  0  0  0  0  0  0  0  0
   36.6010   30.4350   29.4330 F   0  0  0  0  0  0  0  0  0  0  0  0
   37.4270   32.1390   30.6190 F   0  0  0  0  0  0  0  0  0  0  0  0
  1  2  1  0  0  0  0
  2  3  1  0  0  0  0
  3 23  1  0  0  0  0
  3  4  2  0  0  0  0
  4  9  1  0  0  0  0
  5  4  1  0  0  0  0
  5 12  1  0  0  0  0
  6  5  2  0  0  0  0
  7  6  1  0  0  0  0
  8  2  2  0  0  0  0
  8  6  1  0  0  0  0
 10 11  1  0  0  0  0
 11 18  1  0  0  0  0
 12 13  1  0  0  0  0
 12 11  2  0  0  0  0
 13 15  2  0  0  0  0
 14 13  1  0  0  0  0
 15 16  1  0  0  0  0
 15 17  1  0  0  0  0
 18 17  2  0  0  0  0
 19 20  1  0  0  0  0
 20 26  1  0  0  0  0
 20 21  2  0  0  0  0
 21 27  1  0  0  0  0
 22 21  1  0  0  0  0
 23 22  2  0  0  0  0
 24 19  2  0  0  0  0
 24 23  1  0  0  0  0
 25 19  1  0  0  0  0
 27 28  2  0  0  0  0
 27 31  1  0  0  0  0
 28 29  1  0  0  0  0
 29 36  1  0  0  0  0
 29 30  1  0  0  0  0
 30 34  1  0  0  0  0
 31 30  2  0  0  0  0
 32 33  2  0  0  0  0
 32 37  1  0  0  0  0
 34 32  1  0  0  0  0
 35 28  1  0  0  0  0
 38 34  1  0  0  0  0
 39 42  1  0  0  0  0
 39  8  1  0  0  0  0
 40 39  1  0  0  0  0
 41 39  1  0  0  0  0
M  END
>  <minimizedAffinity>
-7.20193291

$$$$

 OpenBabel03272502503D

 42 45  0  0  0  0  0  0  0  0999 V2000
   38.5210   27.2400   34.4030 Cl  0  0  0  0  0  0  0  0  0  0  0  0
   37.9710   25.7230   33.7510 C   0  0  0  0  0  0  0  0  0  0  0  0
   37.1910   25.7200   32.6290 C   0  0  0  0  0  0  0  0  0  0  0  0
   36.7360   24.5340   32.0820 C   0  0  0  0  0  0  0  0  0  0  0  0
   37.0590   23.3220   32.6590 C   0  0  0  0  0  0  0  0  0  0  0  0
   37.8430   23.3010   33.7900 C   0  0  0  0  0  0  0  0  0  0  0  0
   38.3150   21.8260   34.6080 Cl  0  0  0  0  0  0  0  0  0  0  0  0
   38.2740   24.5090   34.3010 C   0  0  0  0  0  0  0  0  0  0  0  0
   36.1220   24.5870   31.1930 H   0  0  0  0  0  0  0  0  0  0  0  0
   38.5890   22.1410   30.7300 F   0  0  0  0  0  0  0  0  0  0  0  0
   37.4270   21.5390   31.1350 C   0  0  0  0  0  0  0  0  0  0  0  0
   36.5900   22.0570   32.1000 C   0  0  0  0  0  0  0  0  0  0  0  0
   35.4300   21.3900   32.4580 C   0  0  0  0  0  0  0  0  0  0  0  0
   34.8240   21.8660   33.2280 H   0  0  0  0  0  0  0  0  0  0  0  0
   35.1350   20.1990   31.8270 C   0  0  0  0  0  0  0  0  0  0  0  0
   34.2290   19.6860   32.1120 H   0  0  0  0  0  0  0  0  0  0  0  0
   35.9740   19.6780   30.8570 C   0  0  0  0  0  3  0  0  0  0  0  0
   37.1480   20.3380   30.4860 C   0  0  0  0  0  3  0  0  0  0  0  0
   36.9200   28.4580   30.2030 C   0  0  0  0  0  0  0  0  0  0  0  0
   36.1170   29.3880   30.8580 C   0  0  0  0  0  0  0  0  0  0  0  0
   35.6820   29.0530   32.1320 C   0  0  0  0  0  0  0  0  0  0  0  0
   36.0490   27.8650   32.6640 N   0  0  0  0  0  0  0  0  0  0  0  0
   36.8310   26.9900   31.9910 C   0  0  0  0  0  0  0  0  0  0  0  0
   37.2510   27.3050   30.7710 N   0  0  0  0  0  0  0  0  0  0  0  0
   37.2830   28.6830   29.2020 H   0  0  0  0  0  0  0  0  0  0  0  0
   35.8340   30.3190   30.4330 H   0  0  0  0  0  0  0  0  0  0  0  0
   34.8300   29.9460   32.9320 C   0  0  0  0  0  0  0  0  0  0  0  0
   33.4640   30.0030   32.8200 C   0  0  0  0  0  0  0  0  0  0  0  0
   32.9400   30.9130   33.6770 N   0  0  0  0  0  0  0  0  0  0  0  0
   33.9870   31.4320   34.3360 C   0  0  0  0  0  0  0  0  0  0  0  0
   35.0980   30.8410   33.8740 N   0  0  0  0  0  0  0  0  0  0  0  0
   35.1370   32.3230   36.2880 C   0  0  0  0  0  0  0  0  0  0  0  0
   35.9630   31.3900   36.1930 O   0  0  0  0  0  0  0  0  0  0  0  0
   34.0630   32.4170   35.3460 N   0  0  0  0  0  0  0  0  0  0  0  0
   32.8230   29.4210   32.1500 H   0  0  0  0  0  0  0  0  0  0  0  0
   31.9570   31.2010   33.8480 H   0  0  0  0  0  0  0  0  0  0  0  0
   35.2360   33.0770   37.1000 H   0  0  0  0  0  0  0  0  0  0  0  0
   33.3500   33.1900   35.3960 H   0  0  0  0  0  0  0  0  0  0  0  0
   39.1270   24.5150   35.5280 C   0  0  0  0  0  0  0  0  0  0  0  0
   38.9840   23.3250   36.2310 F   0  0  0  0  0  0  0  0  0  0  0  0
   38.6400   25.4820   36.4310 F   0  0  0  0  0  0  0  0  0  0  0  0
   40.4330   24.8230   35.2720 F   0  0  0  0  0  0  0  0  0  0  0  0
  2  8  1  0  0  0  0
  2  1  1  0  0  0  0
  3  2  2  0  0  0  0
  4  3  1  0  0  0  0
  4  5  2  0  0  0  0
  5  6  1  0  0  0  0
  6  8  2  0  0  0  0
  6  7  1  0  0  0  0
  8 39  1  0  0  0  0
  9  4  1  0  0  0  0
 10 11  1  0  0  0  0
 11 12  1  0  0  0  0
 12 13  2  0  0  0  0
 12  5  1  0  0  0  0
 13 14  1  0  0  0  0
 15 16  1  0  0  0  0
 15 13  1  0  0  0  0
 17 15  2  0  0  0  0
 18 17  1  0  0  0  0
 18 11  2  0  0  0  0
 19 24  2  0  0  0  0
 19 20  1  0  0  0  0
 20 21  2  0  0  0  0
 21 22  1  0  0  0  0
 21 27  1  0  0  0  0
 23  3  1  0  0  0  0
 23 22  2  0  0  0  0
 24 23  1  0  0  0  0
 25 19  1  0  0  0  0
 26 20  1  0  0  0  0
 27 31  1  0  0  0  0
 28 27  2  0  0  0  0
 28 29  1  0  0  0  0
 29 36  1  0  0  0  0
 29 30  1  0  0  0  0
 30 34  1  0  0  0  0
 31 30  2  0  0  0  0
 32 37  1  0  0  0  0
 33 32  2  0  0  0  0
 34 38  1  0  0  0  0
 34 32  1  0  0  0  0
 35 28  1  0  0  0  0
 39 40  1  0  0  0  0
 39 41  1  0  0  0  0
 42 39  1  0  0  0  0
M  END
>  <minimizedAffinity>
-7.04366302

$$$$

 OpenBabel03272502503D

 42 45  0  0  0  0  0  0  0  0999 V2000
   35.2450   24.9850   30.7110 Cl  0  0  0  0  0  0  0  0  0  0  0  0
   36.4090   24.5230   31.9200 C   0  0  0  0  0  0  0  0  0  0  0  0
   37.1640   25.4880   32.5250 C   0  0  0  0  0  0  0  0  0  0  0  0
   38.0990   25.1600   33.4900 C   0  0  0  0  0  0  0  0  0  0  0  0
   38.2910   23.8450   33.8670 C   0  0  0  0  0  0  0  0  0  0  0  0
   37.5420   22.8570   33.2700 C   0  0  0  0  0  0  0  0  0  0  0  0
   37.6990   21.1570   33.6650 Cl  0  0  0  0  0  0  0  0  0  0  0  0
   36.6210   23.2310   32.3120 C   0  0  0  0  0  0  0  0  0  0  0  0
   38.6700   25.9610   33.9380 H   0  0  0  0  0  0  0  0  0  0  0  0
   37.4330   23.6670   36.4530 F   0  0  0  0  0  0  0  0  0  0  0  0
   38.7460   23.4100   36.1550 C   0  0  0  0  0  0  0  0  0  0  0  0
   39.2710   23.4740   34.8830 C   0  0  0  0  0  0  0  0  0  0  0  0
   40.6110   23.2000   34.6590 C   0  0  0  0  0  0  0  0  0  0  0  0
   40.9470   23.2720   33.6260 H   0  0  0  0  0  0  0  0  0  0  0  0
   41.4020   22.8620   35.7380 C   0  0  0  0  0  0  0  0  0  0  0  0
   42.4440   22.6510   35.5550 H   0  0  0  0  0  0  0  0  0  0  0  0
   40.8760   22.7980   37.0170 C   0  0  0  0  0  3  0  0  0  0  0  0
   39.5260   23.0710   37.2580 C   0  0  0  0  0  3  0  0  0  0  0  0
   37.5020   28.7200   30.8230 C   0  0  0  0  0  0  0  0  0  0  0  0
   36.5970   29.5330   31.4990 C   0  0  0  0  0  0  0  0  0  0  0  0
   35.8810   28.9510   32.5350 C   0  0  0  0  0  0  0  0  0  0  0  0
   36.0930   27.6490   32.8320 N   0  0  0  0  0  0  0  0  0  0  0  0
   36.9840   26.8930   32.1490 C   0  0  0  0  0  0  0  0  0  0  0  0
   37.6720   27.4460   31.1560 N   0  0  0  0  0  0  0  0  0  0  0  0
   38.0840   29.1390   30.0040 H   0  0  0  0  0  0  0  0  0  0  0  0
   36.4370   30.5560   31.2580 H   0  0  0  0  0  0  0  0  0  0  0  0
   34.8950   29.6990   33.3270 C   0  0  0  0  0  0  0  0  0  0  0  0
   33.5500   29.4290   33.3260 C   0  0  0  0  0  0  0  0  0  0  0  0
   32.8790   30.2750   34.1470 N   0  0  0  0  0  0  0  0  0  0  0  0
   33.8130   31.0840   34.6710 C   0  0  0  0  0  0  0  0  0  0  0  0
   35.0010   30.7200   34.1670 N   0  0  0  0  0  0  0  0  0  0  0  0
   34.8400   32.4040   36.4400 C   0  0  0  0  0  0  0  0  0  0  0  0
   35.8560   31.6800   36.3530 O   0  0  0  0  0  0  0  0  0  0  0  0
   33.7170   32.1550   35.5870 N   0  0  0  0  0  0  0  0  0  0  0  0
   33.0230   28.6520   32.7620 H   0  0  0  0  0  0  0  0  0  0  0  0
   31.8690   30.3450   34.3760 H   0  0  0  0  0  0  0  0  0  0  0  0
   34.8090   33.2360   37.1760 H   0  0  0  0  0  0  0  0  0  0  0  0
   32.8470   32.7440   35.6340 H   0  0  0  0  0  0  0  0  0  0  0  0
   35.7940   22.1780   31.6490 C   0  0  0  0  0  0  0  0  0  0  0  0
   36.6040   21.1980   31.0870 F   0  0  0  0  0  0  0  0  0  0  0  0
   35.1390   22.7330   30.5310 F   0  0  0  0  0  0  0  0  0  0  0  0
   34.8290   21.6600   32.4660 F   0  0  0  0  0  0  0  0  0  0  0  0
  1  2  1  0  0  0  0
  2  8  2  0  0  0  0
  2  3  1  0  0  0  0
  3  4  2  0  0  0  0
  4  5  1  0  0  0  0
  4  9  1  0  0  0  0
  5 12  1  0  0  0  0
  6  7  1  0  0  0  0
  6  5  2  0  0  0  0
  8  6  1  0  0  0  0
 11 10  1  0  0  0  0
 11 18  1  0  0  0  0
 12 11  2  0  0  0  0
 13 12  1  0  0  0  0
 13 15  2  0  0  0  0
 14 13  1  0  0  0  0
 15 17  1  0  0  0  0
 16 15  1  0  0  0  0
 17 18  2  0  0  0  0
 19 24  2  0  0  0  0
 19 20  1  0  0  0  0
 20 21  2  0  0  0  0
 21 22  1  0  0  0  0
 21 27  1  0  0  0  0
 23  3  1  0  0  0  0
 23 22  2  0  0  0  0
 24 23  1  0  0  0  0
 25 19  1  0  0  0  0
 26 20  1  0  0  0  0
 27 31  1  0  0  0  0
 28 27  2  0  0  0  0
 28 29  1  0  0  0  0
 29 36  1  0  0  0  0
 29 30  1  0  0  0  0
 30 34  1  0  0  0  0
 31 30  2  0  0  0  0
 32 37  1  0  0  0  0
 33 32  2  0  0  0  0
 34 38  1  0  0  0  0
 34 32  1  0  0  0  0
 35 28  1  0  0  0  0
 39  8  1  0  0  0  0
 39 42  1  0  0  0  0
 40 39  1  0  0  0  0
 41 39  1  0  0  0  0
M  END
>  <minimizedAffinity>
-6.94865036

$$$$

 OpenBabel03272502503D

 42 45  0  0  0  0  0  0  0  0999 V2000
   37.6270   27.2850   31.1990 Cl  0  0  0  0  0  0  0  0  0  0  0  0
   36.8440   28.3000   32.3770 C   0  0  0  0  0  0  0  0  0  0  0  0
   36.7330   27.8640   33.6670 C   0  0  0  0  0  0  0  0  0  0  0  0
   36.1180   28.6430   34.6310 C   0  0  0  0  0  0  0  0  0  0  0  0
   35.6010   29.8820   34.3110 C   0  0  0  0  0  0  0  0  0  0  0  0
   35.7020   30.3410   33.0170 C   0  0  0  0  0  0  0  0  0  0  0  0
   35.0830   31.8940   32.4950 Cl  0  0  0  0  0  0  0  0  0  0  0  0
   36.3230   29.5290   32.0890 C   0  0  0  0  0  0  0  0  0  0  0  0
   36.0570   28.2520   35.6370 H   0  0  0  0  0  0  0  0  0  0  0  0
   32.9200   29.5410   34.6990 F   0  0  0  0  0  0  0  0  0  0  0  0
   33.5970   30.4780   35.4350 C   0  0  0  0  0  0  0  0  0  0  0  0
   34.9480   30.7220   35.3110 C   0  0  0  0  0  0  0  0  0  0  0  0
   35.5650   31.6860   36.0900 C   0  0  0  0  0  0  0  0  0  0  0  0
   36.6340   31.8180   35.9310 H   0  0  0  0  0  0  0  0  0  0  0  0
   34.7960   32.3940   36.9920 C   0  0  0  0  0  0  0  0  0  0  0  0
   35.2840   33.1440   37.5950 H   0  0  0  0  0  0  0  0  0  0  0  0
   33.4390   32.1500   37.1180 C   0  0  0  0  0  3  0  0  0  0  0  0
   32.8020   31.1800   36.3390 C   0  0  0  0  0  3  0  0  0  0  0  0
   38.2460   25.1250   35.5810 C   0  0  0  0  0  0  0  0  0  0  0  0
   38.2690   24.0720   34.6700 C   0  0  0  0  0  0  0  0  0  0  0  0
   37.7600   24.3260   33.4040 C   0  0  0  0  0  0  0  0  0  0  0  0
   37.2760   25.5570   33.1230 N   0  0  0  0  0  0  0  0  0  0  0  0
   37.2730   26.5530   34.0400 C   0  0  0  0  0  0  0  0  0  0  0  0
   37.7590   26.3150   35.2530 N   0  0  0  0  0  0  0  0  0  0  0  0
   38.6360   24.9660   36.5840 H   0  0  0  0  0  0  0  0  0  0  0  0
   38.6510   23.1080   34.8990 H   0  0  0  0  0  0  0  0  0  0  0  0
   37.7260   23.3030   32.3500 C   0  0  0  0  0  0  0  0  0  0  0  0
   36.6730   22.4460   32.1490 C   0  0  0  0  0  0  0  0  0  0  0  0
   36.9130   21.6090   31.1100 N   0  0  0  0  0  0  0  0  0  0  0  0
   38.1290   21.9440   30.6520 C   0  0  0  0  0  0  0  0  0  0  0  0
   38.5900   22.9520   31.4060 N   0  0  0  0  0  0  0  0  0  0  0  0
   39.8040   22.3220   28.9250 C   0  0  0  0  0  0  0  0  0  0  0  0
   39.8760   23.5140   29.2950 O   0  0  0  0  0  0  0  0  0  0  0  0
   38.9050   21.4270   29.5910 N   0  0  0  0  0  0  0  0  0  0  0  0
   35.7370   22.3920   32.7150 H   0  0  0  0  0  0  0  0  0  0  0  0
   36.3350   20.8520   30.6970 H   0  0  0  0  0  0  0  0  0  0  0  0
   40.4340   21.9580   28.0850 H   0  0  0  0  0  0  0  0  0  0  0  0
   38.8190   20.4170   29.3060 H   0  0  0  0  0  0  0  0  0  0  0  0
   36.4460   30.0040   30.6770 C   0  0  0  0  0  0  0  0  0  0  0  0
   35.3140   30.7150   30.2970 F   0  0  0  0  0  0  0  0  0  0  0  0
   36.4350   28.8930   29.8080 F   0  0  0  0  0  0  0  0  0  0  0  0
   37.6040   30.6900   30.4400 F   0  0  0  0  0  0  0  0  0  0  0  0
  1  2  1  0  0  0  0
  2  3  1  0  0  0  0
  3 23  1  0  0  0  0
  3  4  2  0  0  0  0
  4  9  1  0  0  0  0
  5  4  1  0  0  0  0
  5 12  1  0  0  0  0
  6  5  2  0  0  0  0
  7  6  1  0  0  0  0
  8  2  2  0  0  0  0
  8  6  1  0  0  0  0
 10 11  1  0  0  0  0
 11 18  1  0  0  0  0
 12 11  2  0  0  0  0
 12 13  1  0  0  0  0
 13 15  2  0  0  0  0
 14 13  1  0  0  0  0
 15 17  1  0  0  0  0
 15 16  1  0  0  0  0
 18 17  2  0  0  0  0
 19 25  1  0  0  0  0
 20 26  1  0  0  0  0
 20 19  2  0  0  0  0
 21 20  1  0  0  0  0
 22 21  2  0  0  0  0
 22 23  1  0  0  0  0
 23 24  2  0  0  0  0
 24 19  1  0  0  0  0
 27 21  1  0  0  0  0
 28 27  2  0  0  0  0
 28 35  1  0  0  0  0
 29 28  1  0  0  0  0
 30 29  1  0  0  0  0
 30 31  2  0  0  0  0
 31 27  1  0  0  0  0
 32 33  2  0  0  0  0
 32 34  1  0  0  0  0
 34 30  1  0  0  0  0
 36 29  1  0  0  0  0
 37 32  1  0  0  0  0
 38 34  1  0  0  0  0
 39  8  1  0  0  0  0
 40 39  1  0  0  0  0
 41 39  1  0  0  0  0
 42 39  1  0  0  0  0
M  END
>  <minimizedAffinity>
-6.94262838

$$$$

 OpenBabel03272502503D

 42 45  0  0  0  0  0  0  0  0999 V2000
   35.1600   25.1770   30.8080 Cl  0  0  0  0  0  0  0  0  0  0  0  0
   36.3570   24.6930   31.9760 C   0  0  0  0  0  0  0  0  0  0  0  0
   37.0430   25.6530   32.6670 C   0  0  0  0  0  0  0  0  0  0  0  0
   38.0010   25.3070   33.6030 C   0  0  0  0  0  0  0  0  0  0  0  0
   38.2880   23.9820   33.8620 C   0  0  0  0  0  0  0  0  0  0  0  0
   37.6090   22.9990   33.1780 C   0  0  0  0  0  0  0  0  0  0  0  0
   37.8890   21.2870   33.4210 Cl  0  0  0  0  0  0  0  0  0  0  0  0
   36.6620   23.3910   32.2520 C   0  0  0  0  0  0  0  0  0  0  0  0
   38.5150   26.1040   34.1230 H   0  0  0  0  0  0  0  0  0  0  0  0
   37.4620   23.5820   36.4340 F   0  0  0  0  0  0  0  0  0  0  0  0
   38.7830   23.4140   36.1130 C   0  0  0  0  0  0  0  0  0  0  0  0
   39.2940   23.5920   34.8450 C   0  0  0  0  0  0  0  0  0  0  0  0
   40.6440   23.4040   34.5960 C   0  0  0  0  0  0  0  0  0  0  0  0
   40.9670   23.5650   33.5690 H   0  0  0  0  0  0  0  0  0  0  0  0
   41.4610   23.0340   35.6460 C   0  0  0  0  0  0  0  0  0  0  0  0
   42.5110   22.8910   35.4430 H   0  0  0  0  0  0  0  0  0  0  0  0
   40.9490   22.8560   36.9190 C   0  0  0  0  0  3  0  0  0  0  0  0
   39.5900   23.0410   37.1860 C   0  0  0  0  0  3  0  0  0  0  0  0
   35.8450   29.0980   33.0540 C   0  0  0  0  0  0  0  0  0  0  0  0
   36.2690   29.7170   31.8820 C   0  0  0  0  0  0  0  0  0  0  0  0
   36.9650   28.9330   30.9730 C   0  0  0  0  0  0  0  0  0  0  0  0
   37.1930   27.6320   31.2640 N   0  0  0  0  0  0  0  0  0  0  0  0
   36.7620   27.0690   32.4170 C   0  0  0  0  0  0  0  0  0  0  0  0
   36.0950   27.8160   33.2900 N   0  0  0  0  0  0  0  0  0  0  0  0
   35.2960   29.6790   33.7920 H   0  0  0  0  0  0  0  0  0  0  0  0
   36.0860   30.7410   31.6610 H   0  0  0  0  0  0  0  0  0  0  0  0
   37.4670   29.4640   29.6980 C   0  0  0  0  0  0  0  0  0  0  0  0
   37.1990   30.7270   29.2360 C   0  0  0  0  0  0  0  0  0  0  0  0
   37.7900   30.9470   28.0360 N   0  0  0  0  0  0  0  0  0  0  0  0
   38.4370   29.8090   27.7400 C   0  0  0  0  0  0  0  0  0  0  0  0
   38.2290   28.9450   28.7440 N   0  0  0  0  0  0  0  0  0  0  0  0
   40.2780   28.4950   26.8390 C   0  0  0  0  0  0  0  0  0  0  0  0
   40.4660   28.0250   27.9820 O   0  0  0  0  0  0  0  0  0  0  0  0
   39.2260   29.4430   26.6270 N   0  0  0  0  0  0  0  0  0  0  0  0
   36.5970   31.5030   29.7210 H   0  0  0  0  0  0  0  0  0  0  0  0
   37.7910   31.7820   27.4190 H   0  0  0  0  0  0  0  0  0  0  0  0
   40.9230   28.1770   25.9920 H   0  0  0  0  0  0  0  0  0  0  0  0
   39.0400   29.8580   25.6770 H   0  0  0  0  0  0  0  0  0  0  0  0
   35.9110   22.3440   31.4950 C   0  0  0  0  0  0  0  0  0  0  0  0
   36.7850   21.5240   30.7900 F   0  0  0  0  0  0  0  0  0  0  0  0
   35.1540   22.9570   30.4760 F   0  0  0  0  0  0  0  0  0  0  0  0
   35.0400   21.6380   32.2760 F   0  0  0  0  0  0  0  0  0  0  0  0
  1  2  1  0  0  0  0
  2  8  2  0  0  0  0
  2  3  1  0  0  0  0
  3  4  2  0  0  0  0
  4  5  1  0  0  0  0
  4  9  1  0  0  0  0
  5 12  1  0  0  0  0
  6  7  1  0  0  0  0
  6  5  2  0  0  0  0
  8  6  1  0  0  0  0
 11 10  1  0  0  0  0
 11 18  1  0  0  0  0
 12 11  2  0  0  0  0
 13 12  1  0  0  0  0
 13 15  2  0  0  0  0
 14 13  1  0  0  0  0
 15 17  1  0  0  0  0
 16 15  1  0  0  0  0
 17 18  2  0  0  0  0
 19 24  1  0  0  0  0
 19 25  1  0  0  0  0
 20 19  2  0  0  0  0
 21 22  2  0  0  0  0
 21 20  1  0  0  0  0
 22 23  1  0  0  0  0
 23  3  1  0  0  0  0
 23 24  2  0  0  0  0
 26 20  1  0  0  0  0
 27 21  1  0  0  0  0
 28 27  2  0  0  0  0
 28 35  1  0  0  0  0
 29 28  1  0  0  0  0
 30 29  1  0  0  0  0
 30 31  2  0  0  0  0
 31 27  1  0  0  0  0
 32 33  2  0  0  0  0
 34 32  1  0  0  0  0
 34 30  1  0  0  0  0
 36 29  1  0  0  0  0
 37 32  1  0  0  0  0
 38 34  1  0  0  0  0
 39  8  1  0  0  0  0
 39 42  1  0  0  0  0
 40 39  1  0  0  0  0
 41 39  1  0  0  0  0
M  END
>  <minimizedAffinity>
-6.81426668

$$$$

 OpenBabel03272502503D

 42 45  0  0  0  0  0  0  0  0999 V2000
   38.7090   27.2450   34.3250 Cl  0  0  0  0  0  0  0  0  0  0  0  0
   38.1060   25.7350   33.7030 C   0  0  0  0  0  0  0  0  0  0  0  0
   37.4280   25.7230   32.5170 C   0  0  0  0  0  0  0  0  0  0  0  0
   36.9350   24.5420   31.9910 C   0  0  0  0  0  0  0  0  0  0  0  0
   37.1170   23.3450   32.6550 C   0  0  0  0  0  0  0  0  0  0  0  0
   37.7970   23.3340   33.8510 C   0  0  0  0  0  0  0  0  0  0  0  0
   38.0870   21.8780   34.7810 Cl  0  0  0  0  0  0  0  0  0  0  0  0
   38.2700   24.5360   34.3380 C   0  0  0  0  0  0  0  0  0  0  0  0
   36.4050   24.5870   31.0500 H   0  0  0  0  0  0  0  0  0  0  0  0
   38.7140   21.9570   30.9290 F   0  0  0  0  0  0  0  0  0  0  0  0
   37.4810   21.4600   31.2600 C   0  0  0  0  0  0  0  0  0  0  0  0
   36.6060   22.0870   32.1200 C   0  0  0  0  0  0  0  0  0  0  0  0
   35.3740   21.5220   32.4070 C   0  0  0  0  0  0  0  0  0  0  0  0
   34.7410   22.0800   33.0950 H   0  0  0  0  0  0  0  0  0  0  0  0
   35.0470   20.3200   31.8120 C   0  0  0  0  0  0  0  0  0  0  0  0
   34.0850   19.8880   32.0410 H   0  0  0  0  0  0  0  0  0  0  0  0
   35.9250   19.6900   30.9470 C   0  0  0  0  0  3  0  0  0  0  0  0
   37.1710   20.2470   30.6480 C   0  0  0  0  0  3  0  0  0  0  0  0
   37.8230   28.4920   30.1440 C   0  0  0  0  0  0  0  0  0  0  0  0
   36.7670   29.3400   30.4640 C   0  0  0  0  0  0  0  0  0  0  0  0
   35.9320   28.9410   31.4970 C   0  0  0  0  0  0  0  0  0  0  0  0
   36.1790   27.7720   32.1300 N   0  0  0  0  0  0  0  0  0  0  0  0
   37.2180   26.9770   31.7870 C   0  0  0  0  0  0  0  0  0  0  0  0
   38.0210   27.3540   30.7990 N   0  0  0  0  0  0  0  0  0  0  0  0
   38.5020   28.7690   29.3400 H   0  0  0  0  0  0  0  0  0  0  0  0
   36.5800   30.2580   29.9600 H   0  0  0  0  0  0  0  0  0  0  0  0
   34.7810   29.7450   31.9340 C   0  0  0  0  0  0  0  0  0  0  0  0
   34.5910   31.0590   31.5890 C   0  0  0  0  0  0  0  0  0  0  0  0
   33.4480   31.5480   32.1320 N   0  0  0  0  0  0  0  0  0  0  0  0
   32.9150   30.5300   32.8240 C   0  0  0  0  0  0  0  0  0  0  0  0
   33.7260   29.4710   32.6900 N   0  0  0  0  0  0  0  0  0  0  0  0
   31.0860   29.1630   33.6700 C   0  0  0  0  0  0  0  0  0  0  0  0
   31.5730   28.1840   33.0650 O   0  0  0  0  0  0  0  0  0  0  0  0
   31.7330   30.4380   33.5930 N   0  0  0  0  0  0  0  0  0  0  0  0
   35.2350   31.6880   30.9650 H   0  0  0  0  0  0  0  0  0  0  0  0
   33.0130   32.4880   32.0720 H   0  0  0  0  0  0  0  0  0  0  0  0
   30.1540   29.0450   34.2650 H   0  0  0  0  0  0  0  0  0  0  0  0
   31.3500   31.2830   34.0910 H   0  0  0  0  0  0  0  0  0  0  0  0
   39.0130   24.5520   35.6350 C   0  0  0  0  0  0  0  0  0  0  0  0
   38.7560   23.3960   36.3620 F   0  0  0  0  0  0  0  0  0  0  0  0
   38.4930   25.5720   36.4580 F   0  0  0  0  0  0  0  0  0  0  0  0
   40.3490   24.7950   35.4860 F   0  0  0  0  0  0  0  0  0  0  0  0
  2  1  1  0  0  0  0
  2  8  1  0  0  0  0
  3  2  2  0  0  0  0
  4  3  1  0  0  0  0
  4  5  2  0  0  0  0
  5  6  1  0  0  0  0
  6  8  2  0  0  0  0
  6  7  1  0  0  0  0
  8 39  1  0  0  0  0
  9  4  1  0  0  0  0
 10 11  1  0  0  0  0
 11 12  1  0  0  0  0
 12 13  2  0  0  0  0
 12  5  1  0  0  0  0
 13 14  1  0  0  0  0
 15 16  1  0  0  0  0
 15 13  1  0  0  0  0
 17 15  2  0  0  0  0
 18 17  1  0  0  0  0
 18 11  2  0  0  0  0
 19 20  2  0  0  0  0
 19 24  1  0  0  0  0
 20 21  1  0  0  0  0
 21 27  1  0  0  0  0
 21 22  2  0  0  0  0
 23 22  1  0  0  0  0
 23  3  1  0  0  0  0
 24 23  2  0  0  0  0
 25 19  1  0  0  0  0
 26 20  1  0  0  0  0
 27 31  1  0  0  0  0
 28 27  2  0  0  0  0
 28 29  1  0  0  0  0
 29 30  1  0  0  0  0
 30 34  1  0  0  0  0
 31 30  2  0  0  0  0
 32 37  1  0  0  0  0
 33 32  2  0  0  0  0
 34 32  1  0  0  0  0
 34 38  1  0  0  0  0
 35 28  1  0  0  0  0
 36 29  1  0  0  0  0
 39 40  1  0  0  0  0
 39 41  1  0  0  0  0
 42 39  1  0  0  0  0
M  END
>  <minimizedAffinity>
-6.73557854

$$$$

 OpenBabel03272502503D

 42 45  0  0  0  0  0  0  0  0999 V2000
   38.4990   27.3150   34.4750 Cl  0  0  0  0  0  0  0  0  0  0  0  0
   37.9700   25.8030   33.7910 C   0  0  0  0  0  0  0  0  0  0  0  0
   37.1640   25.8140   32.6880 C   0  0  0  0  0  0  0  0  0  0  0  0
   36.7240   24.6330   32.1170 C   0  0  0  0  0  0  0  0  0  0  0  0
   37.0900   23.4130   32.6500 C   0  0  0  0  0  0  0  0  0  0  0  0
   37.9010   23.3790   33.7610 C   0  0  0  0  0  0  0  0  0  0  0  0
   38.4290   21.8930   34.5250 Cl  0  0  0  0  0  0  0  0  0  0  0  0
   38.3150   24.5820   34.2980 C   0  0  0  0  0  0  0  0  0  0  0  0
   36.0880   24.6960   31.2450 H   0  0  0  0  0  0  0  0  0  0  0  0
   38.6510   22.2800   30.7170 F   0  0  0  0  0  0  0  0  0  0  0  0
   37.4900   21.6600   31.1000 C   0  0  0  0  0  0  0  0  0  0  0  0
   36.6390   22.1540   32.0650 C   0  0  0  0  0  0  0  0  0  0  0  0
   35.4810   21.4710   32.4010 C   0  0  0  0  0  0  0  0  0  0  0  0
   34.8640   21.9270   33.1720 H   0  0  0  0  0  0  0  0  0  0  0  0
   35.2040   20.2870   31.7460 C   0  0  0  0  0  0  0  0  0  0  0  0
   34.2990   19.7620   32.0130 H   0  0  0  0  0  0  0  0  0  0  0  0
   36.0570   19.7910   30.7770 C   0  0  0  0  0  3  0  0  0  0  0  0
   37.2290   20.4680   30.4280 C   0  0  0  0  0  3  0  0  0  0  0  0
   35.4400   28.9960   32.0920 C   0  0  0  0  0  0  0  0  0  0  0  0
   36.0470   29.4770   30.9350 C   0  0  0  0  0  0  0  0  0  0  0  0
   37.0440   28.6910   30.3760 C   0  0  0  0  0  0  0  0  0  0  0  0
   37.3730   27.5220   30.9710 N   0  0  0  0  0  0  0  0  0  0  0  0
   36.7580   27.0920   32.0970 C   0  0  0  0  0  0  0  0  0  0  0  0
   35.8010   27.8400   32.6360 N   0  0  0  0  0  0  0  0  0  0  0  0
   34.6520   29.5830   32.5610 H   0  0  0  0  0  0  0  0  0  0  0  0
   35.7810   30.3970   30.4740 H   0  0  0  0  0  0  0  0  0  0  0  0
   37.7630   29.0830   29.1560 C   0  0  0  0  0  0  0  0  0  0  0  0
   38.5860   28.2430   28.4490 C   0  0  0  0  0  0  0  0  0  0  0  0
   39.1160   28.8690   27.3700 N   0  0  0  0  0  0  0  0  0  0  0  0
   38.6210   30.1160   27.3980 C   0  0  0  0  0  0  0  0  0  0  0  0
   37.8200   30.2160   28.4680 N   0  0  0  0  0  0  0  0  0  0  0  0
   37.7380   32.1560   26.4050 C   0  0  0  0  0  0  0  0  0  0  0  0
   36.6780   31.9760   27.0440 O   0  0  0  0  0  0  0  0  0  0  0  0
   38.8130   31.2190   26.5360 N   0  0  0  0  0  0  0  0  0  0  0  0
   38.8260   27.1980   28.6720 H   0  0  0  0  0  0  0  0  0  0  0  0
   39.7670   28.5280   26.6360 H   0  0  0  0  0  0  0  0  0  0  0  0
   37.8440   33.0390   25.7380 H   0  0  0  0  0  0  0  0  0  0  0  0
   39.7180   31.3400   26.0130 H   0  0  0  0  0  0  0  0  0  0  0  0
   39.1970   24.5740   35.5040 C   0  0  0  0  0  0  0  0  0  0  0  0
   39.2090   23.3160   36.0950 F   0  0  0  0  0  0  0  0  0  0  0  0
   38.6300   25.3920   36.5030 F   0  0  0  0  0  0  0  0  0  0  0  0
   40.4520   25.0520   35.2550 F   0  0  0  0  0  0  0  0  0  0  0  0
  2  8  1  0  0  0  0
  2  1  1  0  0  0  0
  3  2  2  0  0  0  0
  4  5  2  0  0  0  0
  4  3  1  0  0  0  0
  5  6  1  0  0  0  0
  6  8  2  0  0  0  0
  6  7  1  0  0  0  0
  8 39  1  0  0  0  0
  9  4  1  0  0  0  0
 10 11  1  0  0  0  0
 11 12  1  0  0  0  0
 12 13  2  0  0  0  0
 12  5  1  0  0  0  0
 13 14  1  0  0  0  0
 15 16  1  0  0  0  0
 15 13  1  0  0  0  0
 17 15  2  0  0  0  0
 18 17  1  0  0  0  0
 18 11  2  0  0  0  0
 19 25  1  0  0  0  0
 19 24  1  0  0  0  0
 20 19  2  0  0  0  0
 21 20  1  0  0  0  0
 21 22  2  0  0  0  0
 22 23  1  0  0  0  0
 23 24  2  0  0  0  0
 23  3  1  0  0  0  0
 26 20  1  0  0  0  0
 27 21  1  0  0  0  0
 28 35  1  0  0  0  0
 28 27  2  0  0  0  0
 29 30  1  0  0  0  0
 29 28  1  0  0  0  0
 30 31  2  0  0  0  0
 31 27  1  0  0  0  0
 32 34  1  0  0  0  0
 32 33  2  0  0  0  0
 34 30  1  0  0  0  0
 36 29  1  0  0  0  0
 37 32  1  0  0  0  0
 38 34  1  0  0  0  0
 39 40  1  0  0  0  0
 39 41  1  0  0  0  0
 42 39  1  0  0  0  0
M  END
>  <minimizedAffinity>
-6.7173295

$$$$
