REMARK  Name = 
REMARK  2 active torsions:
REMARK  status: ('A' for Active; 'I' for Inactive)
REMARK    1  A    between atoms: C_2  and  C_12
REMARK    2  A    between atoms: C_6  and  C_25
REMARK                            x       y       z     vdW  Elec       q    Type
REMARK                         _______ _______ _______ _____ _____    ______ ____
ROOT
ATOM      1  C   UNL     1      37.048  30.724  46.777  0.00  0.00    +0.000 A 
ATOM      2  C   UNL     1      37.700  31.142  47.929  0.00  0.00    +0.000 A 
ATOM      3  C   UNL     1      38.717  32.054  47.834  0.00  0.00    +0.000 A 
ATOM      4  C   UNL     1      39.063  32.532  46.572  0.00  0.00    +0.000 A 
ATOM      5  N   UNL     1      40.026  33.429  46.242  0.00  0.00    +0.000 N 
ATOM      6  C   UNL     1      40.003  33.592  44.914  0.00  0.00    +0.000 A 
ATOM      7  N   UNL     1      39.047  32.817  44.397  0.00  0.00    +0.000 NA
ATOM      8  C   UNL     1      38.438  32.142  45.397  0.00  0.00    +0.000 A 
ATOM      9  C   UNL     1      37.408  31.215  45.517  0.00  0.00    +0.000 A 
ATOM     10  H   UNL     1      36.234  30.006  46.767  0.00  0.00    +0.000 HD
ATOM     11  H   UNL     1      39.234  32.389  48.721  0.00  0.00    +0.000 HD
ATOM     12  H   UNL     1      40.668  33.907  46.894  0.00  0.00    +0.000 HD
ATOM     13  H   UNL     1      36.912  30.900  44.627  0.00  0.00    +0.000 HD
ENDROOT
BRANCH   2  16
ATOM     14  C   UNL     1      37.383  30.179  51.550  0.00  0.00    +0.000 A 
ATOM     15  C   UNL     1      37.892  30.770  50.389  0.00  0.00    +0.000 A 
ATOM     16  C   UNL     1      37.249  30.572  49.180  0.00  0.00    +0.000 A 
ATOM     17  N   UNL     1      36.127  29.798  49.156  0.00  0.00    +0.000 NA
ATOM     18  C   UNL     1      35.647  29.228  50.309  0.00  0.00    +0.000 A 
ATOM     19  N   UNL     1      36.263  29.415  51.475  0.00  0.00    +0.000 NA
ATOM     20  H   UNL     1      37.871  30.323  52.493  0.00  0.00    +0.000 HD
ATOM     21  H   UNL     1      38.771  31.372  50.428  0.00  0.00    +0.000 HD
ATOM     22  H   UNL     1      34.753  28.628  50.208  0.00  0.00    +0.000 HD
ENDBRANCH   2  16
BRANCH   6  25
ATOM     23  F   UNL     1      39.820  33.815  42.106  0.00  0.00    +0.000 F 
ATOM     24  C   UNL     1      40.759  34.556  42.757  0.00  0.00    +0.000 A 
ATOM     25  C   UNL     1      40.884  34.478  44.130  0.00  0.00    +0.000 A 
ATOM     26  C   UNL     1      41.846  35.235  44.803  0.00  0.00    +0.000 A 
ATOM     27  H   UNL     1      41.977  35.203  45.878  0.00  0.00    +0.000 HD
ATOM     28  C   UNL     1      42.698  36.086  44.091  0.00  0.00    +0.000 A 
ATOM     29  H   UNL     1      43.463  36.702  44.530  0.00  0.00    +0.000 HD
ATOM     30  C   UNL     1      42.493  36.092  42.725  0.00  0.00    +0.000 A 
ATOM     31  C   UNL     1      41.569  35.375  41.999  0.00  0.00    +0.000 A 
ENDBRANCH   6  25
TORSDOF 2
