
 OpenBabel03272508483D

 40 44  0  0  0  0  0  0  0  0999 V2000
   35.4920   29.5040   49.5940 C   0  0  0  0  0  0  0  0  0  0  0  0
   36.5450   29.0230   50.3480 C   0  0  0  0  0  0  0  0  0  0  0  0
   37.6640   29.5660   49.7220 C   0  0  0  0  0  0  0  0  0  0  0  0
   37.2570   30.3260   48.6550 C   0  0  0  0  0  0  0  0  0  0  0  0
   35.9470   30.2650   48.6080 O   0  0  0  0  0  0  0  0  0  0  0  0
   36.4700   28.3870   51.2030 H   0  0  0  0  0  0  0  0  0  0  0  0
   38.6810   29.4020   50.0430 H   0  0  0  0  0  0  0  0  0  0  0  0
   38.5980   32.3040   48.1100 C   0  0  0  0  0  0  0  0  0  0  0  0
   38.1020   31.0700   47.7290 C   0  0  0  0  0  0  0  0  0  0  0  0
   38.3900   30.5220   46.4860 C   0  0  0  0  0  0  0  0  0  0  0  0
   39.1920   31.2120   45.5870 C   0  0  0  0  0  0  0  0  0  0  0  0
   39.6400   30.9580   44.3440 N   0  0  0  0  0  0  0  0  0  0  0  0
   40.3790   31.9960   43.9820 N   0  0  0  0  0  0  0  0  0  0  0  0
   40.4170   32.9200   44.9730 C   0  0  0  0  0  0  0  0  0  0  0  0
   39.6540   32.4380   46.0300 C   0  0  0  0  0  0  0  0  0  0  0  0
   39.4110   33.0340   47.2340 C   0  0  0  0  0  0  0  0  0  0  0  0
   38.3590   32.7120   49.0870 H   0  0  0  0  0  0  0  0  0  0  0  0
   38.0110   29.5610   46.1740 H   0  0  0  0  0  0  0  0  0  0  0  0
   39.4170   30.0840   43.8060 H   0  0  0  0  0  0  0  0  0  0  0  0
   40.9740   33.8490   44.8690 H   0  0  0  0  0  0  0  0  0  0  0  0
   39.8150   33.9840   47.4790 H   0  0  0  0  0  0  0  0  0  0  0  0
   34.0950   29.2090   49.8570 C   0  0  0  0  0  0  0  0  0  0  0  0
   33.5390   29.7990   50.8120 O   0  0  0  0  0  0  0  0  0  0  0  0
   31.3630   27.2150   48.4840 C   0  0  0  0  0  0  0  0  0  0  0  0
   31.9980   26.4730   47.4900 C   0  0  0  0  0  0  0  0  0  0  0  0
   33.3420   26.6390   47.2780 C   0  0  0  0  0  0  0  0  0  0  0  0
   33.9860   27.5280   48.0590 N   0  0  0  0  0  0  0  0  0  0  0  0
   33.3710   28.2480   49.0210 C   0  0  0  0  0  0  0  0  0  0  0  0
   32.0550   28.0850   49.2290 N   0  0  0  0  0  0  0  0  0  0  0  0
   30.3070   27.1350   48.7050 H   0  0  0  0  0  0  0  0  0  0  0  0
   31.4220   25.7780   46.9020 H   0  0  0  0  0  0  0  0  0  0  0  0
   33.7570   27.6870   44.7660 F   0  0  0  0  0  0  0  0  0  0  0  0
   34.2730   26.4480   45.0180 C   0  0  0  0  0  0  0  0  0  0  0  0
   34.0790   25.9020   46.2620 C   0  0  0  0  0  0  0  0  0  0  0  0
   34.6220   24.6580   46.4430 C   0  0  0  0  0  0  0  0  0  0  0  0
   34.5100   24.1660   47.3970 H   0  0  0  0  0  0  0  0  0  0  0  0
   35.3110   24.0150   45.4360 C   0  0  0  0  0  0  0  0  0  0  0  0
   35.7270   23.0250   45.6230 H   0  0  0  0  0  0  0  0  0  0  0  0
   35.4920   24.5850   44.1920 C   0  0  0  0  0  3  0  0  0  0  0  0
   34.9520   25.8360   43.9900 C   0  0  0  0  0  3  0  0  0  0  0  0
  1 22  1  0  0  0  0
  1  2  2  0  0  0  0
  2  6  1  0  0  0  0
  3  7  1  0  0  0  0
  3  2  1  0  0  0  0
  4  3  2  0  0  0  0
  5  4  1  0  0  0  0
  5  1  1  0  0  0  0
  8 17  1  0  0  0  0
  9  8  1  0  0  0  0
  9  4  1  0  0  0  0
 10  9  2  0  0  0  0
 11 15  2  0  0  0  0
 11 10  1  0  0  0  0
 12 11  1  0  0  0  0
 13 12  1  0  0  0  0
 13 14  2  0  0  0  0
 14 15  1  0  0  0  0
 15 16  1  0  0  0  0
 16 21  1  0  0  0  0
 16  8  2  0  0  0  0
 18 10  1  0  0  0  0
 19 12  1  0  0  0  0
 20 14  1  0  0  0  0
 22 23  2  0  0  0  0
 24 30  1  0  0  0  0
 24 29  1  0  0  0  0
 25 24  2  0  0  0  0
 26 25  1  0  0  0  0
 26 27  2  0  0  0  0
 27 28  1  0  0  0  0
 28 29  2  0  0  0  0
 28 22  1  0  0  0  0
 31 25  1  0  0  0  0
 32 33  1  0  0  0  0
 33 34  1  0  0  0  0
 34 35  2  0  0  0  0
 34 26  1  0  0  0  0
 35 36  1  0  0  0  0
 37 38  1  0  0  0  0
 37 35  1  0  0  0  0
 39 37  2  0  0  0  0
 40 39  1  0  0  0  0
 40 33  2  0  0  0  0
M  END
>  <minimizedAffinity>
-6.79196167

>  <minimizedRMSD>
0.589736402

$$$$
