REMARK  Name = 
REMARK  4 active torsions:
REMARK  status: ('A' for Active; 'I' for Inactive)
REMARK    1  A    between atoms: C_1  and  C_15
REMARK    2  A    between atoms: C_4  and  C_7
REMARK    3  A    between atoms: C_15  and  C_21
REMARK    4  A    between atoms: C_19  and  C_34
REMARK                            x       y       z     vdW  Elec       q    Type
REMARK                         _______ _______ _______ _____ _____    ______ ____
ROOT
ATOM      1  C   UNL     1      35.549  29.698  49.808  0.00  0.00    +0.000 A 
ATOM      2  C   UNL     1      36.539  29.531  50.757  0.00  0.00    +0.000 A 
ATOM      3  C   UNL     1      37.667  30.072  50.144  0.00  0.00    +0.000 A 
ATOM      4  C   UNL     1      37.325  30.527  48.896  0.00  0.00    +0.000 A 
ATOM      5  O   UNL     1      36.046  30.285  48.728  0.00  0.00    +0.000 OA
ATOM      6  H   UNL     1      36.421  29.087  51.721  0.00  0.00    +0.000 HD
ATOM      7  H   UNL     1      38.645  30.116  50.598  0.00  0.00    +0.000 HD
ENDROOT
BRANCH   4   9
ATOM      8  C   UNL     1      38.628  32.460  48.138  0.00  0.00    +0.000 A 
ATOM      9  C   UNL     1      38.200  31.163  47.919  0.00  0.00    +0.000 A 
ATOM     10  C   UNL     1      38.584  30.450  46.791  0.00  0.00    +0.000 A 
ATOM     11  C   UNL     1      39.417  31.034  45.845  0.00  0.00    +0.000 A 
ATOM     12  N   UNL     1      39.951  30.620  44.682  0.00  0.00    +0.000 N 
ATOM     13  N   UNL     1      40.675  31.624  44.211  0.00  0.00    +0.000 NA
ATOM     14  C   UNL     1      40.618  32.685  45.053  0.00  0.00    +0.000 A 
ATOM     15  C   UNL     1      39.807  32.331  46.125  0.00  0.00    +0.000 A 
ATOM     16  C   UNL     1      39.469  33.087  47.210  0.00  0.00    +0.000 A 
ATOM     17  H   UNL     1      38.314  32.997  49.028  0.00  0.00    +0.000 HD
ATOM     18  H   UNL     1      38.259  29.438  46.605  0.00  0.00    +0.000 HD
ATOM     19  H   UNL     1      39.792  29.667  44.269  0.00  0.00    +0.000 HD
ATOM     20  H   UNL     1      41.148  33.612  44.843  0.00  0.00    +0.000 HD
ATOM     21  H   UNL     1      39.823  34.080  47.333  0.00  0.00    +0.000 HD
ENDBRANCH   4   9
BRANCH   1  22
ATOM     22  C   UNL     1      34.169  29.283  49.984  0.00  0.00    +0.000 C 
ATOM     23  O   UNL     1      33.502  29.830  50.893  0.00  0.00    +0.000 OA
BRANCH  22  28
ATOM     24  C   UNL     1      31.693  27.151  48.357  0.00  0.00    +0.000 A 
ATOM     25  C   UNL     1      32.477  26.357  47.522  0.00  0.00    +0.000 A 
ATOM     26  C   UNL     1      33.836  26.535  47.503  0.00  0.00    +0.000 A 
ATOM     27  N   UNL     1      34.347  27.486  48.309  0.00  0.00    +0.000 NA
ATOM     28  C   UNL     1      33.588  28.256  49.117  0.00  0.00    +0.000 A 
ATOM     29  N   UNL     1      32.257  28.082  49.136  0.00  0.00    +0.000 NA
ATOM     30  H   UNL     1      30.616  27.066  48.422  0.00  0.00    +0.000 HD
ATOM     31  H   UNL     1      32.002  25.614  46.903  0.00  0.00    +0.000 HD
BRANCH  26  34
ATOM     32  F   UNL     1      35.835  24.981  48.586  0.00  0.00    +0.000 F 
ATOM     33  C   UNL     1      35.713  24.981  47.226  0.00  0.00    +0.000 A 
ATOM     34  C   UNL     1      34.724  25.747  46.661  0.00  0.00    +0.000 A 
ATOM     35  C   UNL     1      34.660  25.699  45.292  0.00  0.00    +0.000 A 
ATOM     36  H   UNL     1      33.907  26.277  44.779  0.00  0.00    +0.000 HD
ATOM     37  C   UNL     1      35.535  24.930  44.555  0.00  0.00    +0.000 A 
ATOM     38  H   UNL     1      35.449  24.922  43.467  0.00  0.00    +0.000 HD
ATOM     39  C   UNL     1      36.521  24.168  45.146  0.00  0.00    +0.000 A 
ATOM     40  C   UNL     1      36.602  24.203  46.521  0.00  0.00    +0.000 A 
ENDBRANCH  26  34
ENDBRANCH  22  28
ENDBRANCH   1  22
TORSDOF 4
