
 OpenBabel03272510073D

 30 32  0  0  0  0  0  0  0  0999 V2000
   36.5680   31.0830   49.0850 C   0  0  0  0  0  0  0  0  0  0  0  0
   37.2090   31.4500   47.8730 C   0  0  0  0  0  0  0  0  0  0  0  0
   36.7700   30.8660   46.6840 C   0  0  0  0  0  0  0  0  0  0  0  0
   35.7450   29.9690   46.7460 N   0  0  0  0  0  0  0  0  0  0  0  0
   35.1570   29.6400   47.9060 C   0  0  0  0  0  0  0  0  0  0  0  0
   35.5460   30.1790   49.0850 N   0  0  0  0  0  0  0  0  0  0  0  0
   34.0770   28.6840   47.8910 N   0  0  0  0  0  0  0  0  0  0  0  0
   32.8450   28.9240   47.1350 C   0  0  0  0  0  0  0  0  0  0  0  0
   32.1050   27.6350   47.2010 C   0  0  0  0  0  0  0  0  0  0  0  0
   33.0830   26.6240   47.7540 C   0  0  0  0  0  0  0  0  0  0  0  0
   34.0460   27.4180   48.5780 C   0  0  0  0  0  0  0  0  0  0  0  0
   36.8940   31.5230   50.0070 H   0  0  0  0  0  0  0  0  0  0  0  0
   37.2420   31.1280   45.7490 H   0  0  0  0  0  0  0  0  0  0  0  0
   32.3110   29.7870   47.6090 H   0  0  0  0  0  0  0  0  0  0  0  0
   33.0740   29.2560   46.1000 H   0  0  0  0  0  0  0  0  0  0  0  0
   31.1870   27.7010   47.8210 H   0  0  0  0  0  0  0  0  0  0  0  0
   31.7740   27.3910   46.1680 H   0  0  0  0  0  0  0  0  0  0  0  0
   33.6540   26.1080   46.9440 H   0  0  0  0  0  0  0  0  0  0  0  0
   32.4960   25.9280   48.3870 H   0  0  0  0  0  0  0  0  0  0  0  0
   33.6930   27.5210   49.6160 H   0  0  0  0  0  0  0  0  0  0  0  0
   35.0390   26.9160   48.5910 H   0  0  0  0  0  0  0  0  0  0  0  0
   39.0270   31.7690   45.7330 F   0  0  0  0  0  0  0  0  0  0  0  0
   39.1760   32.5590   46.8240 C   0  0  0  0  0  0  0  0  0  0  0  0
   38.3020   32.4170   47.8720 C   0  0  0  0  0  0  0  0  0  0  0  0
   38.4120   33.2030   49.0130 C   0  0  0  0  0  0  0  0  0  0  0  0
   37.7330   33.1120   49.8580 H   0  0  0  0  0  0  0  0  0  0  0  0
   39.4150   34.1620   49.1330 C   0  0  0  0  0  0  0  0  0  0  0  0
   39.5270   34.7910   50.0130 H   0  0  0  0  0  0  0  0  0  0  0  0
   40.2930   34.2980   48.0710 C   0  0  0  0  0  3  0  0  0  0  0  0
   40.1860   33.5200   46.9370 C   0  0  0  0  0  3  0  0  0  0  0  0
  1  6  1  0  0  0  0
  1 12  1  0  0  0  0
  2  1  2  0  0  0  0
  3  4  2  0  0  0  0
  3  2  1  0  0  0  0
  4  5  1  0  0  0  0
  5  6  2  0  0  0  0
  7  5  1  0  0  0  0
  7 11  1  0  0  0  0
  8  9  1  0  0  0  0
  8 14  1  0  0  0  0
  8  7  1  0  0  0  0
  9 10  1  0  0  0  0
  9 16  1  0  0  0  0
 10 19  1  0  0  0  0
 10 11  1  0  0  0  0
 11 21  1  0  0  0  0
 11 20  1  0  0  0  0
 13  3  1  0  0  0  0
 15  8  1  0  0  0  0
 17  9  1  0  0  0  0
 18 10  1  0  0  0  0
 22 23  1  0  0  0  0
 23 30  2  0  0  0  0
 23 24  1  0  0  0  0
 24  2  1  0  0  0  0
 24 25  2  0  0  0  0
 25 27  1  0  0  0  0
 25 26  1  0  0  0  0
 27 28  1  0  0  0  0
 29 27  2  0  0  0  0
 30 29  1  0  0  0  0
M  END
>  <minimizedAffinity>
-5.31930542

>  <minimizedRMSD>
2.55874825

$$$$
