
 OpenBabel03272509503D

 33 35  0  0  0  0  0  0  0  0999 V2000
   36.8300   29.6560   51.4700 C   0  0  0  0  0  0  0  0  0  0  0  0
   37.6750   30.6570   50.9200 C   0  0  0  0  0  0  0  0  0  0  0  0
   37.5960   30.8690   49.5570 C   0  0  0  0  0  0  0  0  0  0  0  0
   36.7070   30.0930   48.8560 N   0  0  0  0  0  0  0  0  0  0  0  0
   35.9280   29.1610   49.4000 C   0  0  0  0  0  0  0  0  0  0  0  0
   35.9960   28.9460   50.7270 N   0  0  0  0  0  0  0  0  0  0  0  0
   36.8900   29.4880   52.5410 H   0  0  0  0  0  0  0  0  0  0  0  0
   38.3480   31.2280   51.5260 H   0  0  0  0  0  0  0  0  0  0  0  0
   38.6930   30.6080   46.8890 F   0  0  0  0  0  0  0  0  0  0  0  0
   38.8880   31.7330   47.5640 C   0  0  0  0  0  0  0  0  0  0  0  0
   38.3660   31.8340   48.8130 C   0  0  0  0  0  0  0  0  0  0  0  0
   38.6360   33.0590   49.4210 C   0  0  0  0  0  0  0  0  0  0  0  0
   38.2860   33.3070   50.4360 H   0  0  0  0  0  0  0  0  0  0  0  0
   39.3610   34.0590   48.8130 C   0  0  0  0  0  0  0  0  0  0  0  0
   39.5520   34.9940   49.3130 H   0  0  0  0  0  0  0  0  0  0  0  0
   39.8660   33.9050   47.5520 C   0  0  0  0  0  3  0  0  0  0  0  0
   39.6180   32.7100   46.9220 C   0  0  0  0  0  3  0  0  0  0  0  0
   35.1360   28.5290   48.4880 O   0  0  0  0  0  0  0  0  0  0  0  0
   34.1760   29.2940   47.7690 C   0  0  0  0  0  0  0  0  0  0  0  0
   33.5010   29.8610   48.4430 H   0  0  0  0  0  0  0  0  0  0  0  0
   34.7200   30.0440   47.1570 H   0  0  0  0  0  0  0  0  0  0  0  0
   33.3330   28.3940   46.9150 C   0  0  0  0  0  0  0  0  0  0  0  0
   33.3540   28.7810   45.8820 H   0  0  0  0  0  0  0  0  0  0  0  0
   33.7810   27.3710   46.9130 H   0  0  0  0  0  0  0  0  0  0  0  0
   31.9310   28.3020   47.3970 C   0  0  0  0  0  0  0  0  0  0  0  0
   31.7110   27.6690   48.6170 C   0  0  0  0  0  0  0  0  0  0  0  0
   30.4540   27.5330   49.1480 C   0  0  0  0  0  0  0  0  0  0  0  0
   29.4150   28.0150   48.4820 N   0  0  0  0  0  0  0  0  0  0  0  0
   29.6280   28.6360   47.2850 C   0  0  0  0  0  0  0  0  0  0  0  0
   30.8540   28.7890   46.7310 N   0  0  0  0  0  0  0  0  0  0  0  0
   32.5210   27.2570   49.2060 H   0  0  0  0  0  0  0  0  0  0  0  0
   30.2680   27.0530   50.0800 H   0  0  0  0  0  0  0  0  0  0  0  0
   28.8560   29.0670   46.6570 H   0  0  0  0  0  0  0  0  0  0  0  0
  1  7  1  0  0  0  0
  2  1  1  0  0  0  0
  2  8  1  0  0  0  0
  3  2  2  0  0  0  0
  4  5  2  0  0  0  0
  4  3  1  0  0  0  0
  5  6  1  0  0  0  0
  6  1  2  0  0  0  0
  9 10  1  0  0  0  0
 10 11  1  0  0  0  0
 11 12  2  0  0  0  0
 11  3  1  0  0  0  0
 12 13  1  0  0  0  0
 14 15  1  0  0  0  0
 14 12  1  0  0  0  0
 16 14  2  0  0  0  0
 17 16  1  0  0  0  0
 17 10  2  0  0  0  0
 18  5  1  0  0  0  0
 19 20  1  0  0  0  0
 19 18  1  0  0  0  0
 21 19  1  0  0  0  0
 22 25  1  0  0  0  0
 22 19  1  0  0  0  0
 23 22  1  0  0  0  0
 24 22  1  0  0  0  0
 25 26  1  0  0  0  0
 26 27  2  0  0  0  0
 26 31  1  0  0  0  0
 27 32  1  0  0  0  0
 28 27  1  0  0  0  0
 29 28  2  0  0  0  0
 30 29  1  0  0  0  0
 30 25  2  0  0  0  0
 33 29  1  0  0  0  0
M  END
>  <minimizedAffinity>
-6.00620031

>  <minimizedRMSD>
1.75494993

$$$$
