
 OpenBabel03272510073D

 30 32  0  0  0  0  0  0  0  0999 V2000
   37.8000   31.8680   47.2440 C   0  0  0  0  0  0  0  0  0  0  0  0
   37.5440   31.4820   45.9010 C   0  0  0  0  0  0  0  0  0  0  0  0
   36.5170   30.5700   45.6550 C   0  0  0  0  0  0  0  0  0  0  0  0
   35.8090   30.0930   46.7180 N   0  0  0  0  0  0  0  0  0  0  0  0
   36.0730   30.4750   47.9770 C   0  0  0  0  0  0  0  0  0  0  0  0
   37.0580   31.3570   48.2680 N   0  0  0  0  0  0  0  0  0  0  0  0
   35.2780   29.9270   49.0500 N   0  0  0  0  0  0  0  0  0  0  0  0
   33.8270   30.1200   49.1110 C   0  0  0  0  0  0  0  0  0  0  0  0
   33.3760   29.2330   50.2180 C   0  0  0  0  0  0  0  0  0  0  0  0
   34.5600   28.3550   50.5540 C   0  0  0  0  0  0  0  0  0  0  0  0
   35.7640   29.1510   50.1630 C   0  0  0  0  0  0  0  0  0  0  0  0
   38.5850   32.5680   47.4480 H   0  0  0  0  0  0  0  0  0  0  0  0
   36.3030   30.2600   44.6430 H   0  0  0  0  0  0  0  0  0  0  0  0
   33.6300   31.2080   49.2830 H   0  0  0  0  0  0  0  0  0  0  0  0
   33.3560   29.8890   48.1330 H   0  0  0  0  0  0  0  0  0  0  0  0
   33.0220   29.8020   51.1030 H   0  0  0  0  0  0  0  0  0  0  0  0
   32.5050   28.6530   49.8420 H   0  0  0  0  0  0  0  0  0  0  0  0
   34.5560   27.4060   49.9640 H   0  0  0  0  0  0  0  0  0  0  0  0
   34.5310   28.1890   51.6500 H   0  0  0  0  0  0  0  0  0  0  0  0
   36.1080   29.7890   50.9920 H   0  0  0  0  0  0  0  0  0  0  0  0
   36.5940   28.4670   49.8750 H   0  0  0  0  0  0  0  0  0  0  0  0
   37.1890   30.7650   43.1910 F   0  0  0  0  0  0  0  0  0  0  0  0
   38.1520   31.6690   43.4940 C   0  0  0  0  0  0  0  0  0  0  0  0
   38.3380   32.0280   44.8050 C   0  0  0  0  0  0  0  0  0  0  0  0
   39.3110   32.9510   45.1680 C   0  0  0  0  0  0  0  0  0  0  0  0
   39.4790   33.2540   46.2000 H   0  0  0  0  0  0  0  0  0  0  0  0
   40.1330   33.5450   44.2150 C   0  0  0  0  0  0  0  0  0  0  0  0
   40.9030   34.2700   44.4660 H   0  0  0  0  0  0  0  0  0  0  0  0
   39.9390   33.1770   42.8930 C   0  0  0  0  0  3  0  0  0  0  0  0
   38.9740   32.2610   42.5290 C   0  0  0  0  0  3  0  0  0  0  0  0
  1 12  1  0  0  0  0
  1  6  1  0  0  0  0
  2  1  2  0  0  0  0
  3  2  1  0  0  0  0
  3  4  2  0  0  0  0
  4  5  1  0  0  0  0
  5  6  2  0  0  0  0
  5  7  1  0  0  0  0
  7  8  1  0  0  0  0
  7 11  1  0  0  0  0
  8 14  1  0  0  0  0
  8  9  1  0  0  0  0
  9 10  1  0  0  0  0
  9 16  1  0  0  0  0
 10 19  1  0  0  0  0
 11 10  1  0  0  0  0
 11 20  1  0  0  0  0
 13  3  1  0  0  0  0
 15  8  1  0  0  0  0
 17  9  1  0  0  0  0
 18 10  1  0  0  0  0
 21 11  1  0  0  0  0
 22 23  1  0  0  0  0
 23 24  1  0  0  0  0
 24 25  2  0  0  0  0
 24  2  1  0  0  0  0
 25 26  1  0  0  0  0
 27 28  1  0  0  0  0
 27 25  1  0  0  0  0
 29 27  2  0  0  0  0
 30 29  1  0  0  0  0
 30 23  2  0  0  0  0
M  END
>  <minimizedAffinity>
-3.03740764

>  <minimizedRMSD>
3.73104811

$$$$
