
 OpenBabel03272509503D

 33 35  0  0  0  0  0  0  0  0999 V2000
   37.3310   30.1750   51.5130 C   0  0  0  0  0  0  0  0  0  0  0  0
   38.0740   30.8650   50.5170 C   0  0  0  0  0  0  0  0  0  0  0  0
   37.7110   30.6520   49.2010 C   0  0  0  0  0  0  0  0  0  0  0  0
   36.6650   29.7930   48.9730 N   0  0  0  0  0  0  0  0  0  0  0  0
   35.9890   29.1600   49.9290 C   0  0  0  0  0  0  0  0  0  0  0  0
   36.3330   29.3600   51.2150 N   0  0  0  0  0  0  0  0  0  0  0  0
   37.6140   30.3420   52.5480 H   0  0  0  0  0  0  0  0  0  0  0  0
   38.8810   31.5240   50.7630 H   0  0  0  0  0  0  0  0  0  0  0  0
   38.9420   33.2670   49.0010 F   0  0  0  0  0  0  0  0  0  0  0  0
   38.9180   32.4770   47.9360 C   0  0  0  0  0  0  0  0  0  0  0  0
   38.3360   31.2560   48.0500 C   0  0  0  0  0  0  0  0  0  0  0  0
   38.3720   30.5190   46.8670 C   0  0  0  0  0  0  0  0  0  0  0  0
   37.9440   29.5070   46.7880 H   0  0  0  0  0  0  0  0  0  0  0  0
   38.9410   30.9860   45.7050 C   0  0  0  0  0  0  0  0  0  0  0  0
   38.9520   30.3910   44.8080 H   0  0  0  0  0  0  0  0  0  0  0  0
   39.5150   32.2270   45.6430 C   0  0  0  0  0  0  0  0  0  0  0  0
   39.4970   32.9800   46.7900 C   0  0  0  0  0  0  0  0  0  0  0  0
   34.9970   28.3620   49.4410 O   0  0  0  0  0  0  0  0  0  0  0  0
   34.4470   28.6570   48.1630 C   0  0  0  0  0  0  0  0  0  0  0  0
   33.8420   29.5870   48.1710 H   0  0  0  0  0  0  0  0  0  0  0  0
   35.2870   28.8290   47.4570 H   0  0  0  0  0  0  0  0  0  0  0  0
   33.5650   27.5320   47.7080 C   0  0  0  0  0  0  0  0  0  0  0  0
   33.8860   27.2320   46.6960 H   0  0  0  0  0  0  0  0  0  0  0  0
   33.7070   26.6600   48.3910 H   0  0  0  0  0  0  0  0  0  0  0  0
   32.1270   27.9040   47.6970 C   0  0  0  0  0  0  0  0  0  0  0  0
   31.3540   27.5110   48.7850 C   0  0  0  0  0  0  0  0  0  0  0  0
   30.0180   27.8050   48.8710 C   0  0  0  0  0  0  0  0  0  0  0  0
   29.4410   28.4820   47.8890 N   0  0  0  0  0  0  0  0  0  0  0  0
   30.1970   28.8680   46.8200 C   0  0  0  0  0  0  0  0  0  0  0  0
   31.5180   28.5960   46.7030 N   0  0  0  0  0  0  0  0  0  0  0  0
   31.7710   26.9560   49.6170 H   0  0  0  0  0  0  0  0  0  0  0  0
   29.4120   27.5120   49.6960 H   0  0  0  0  0  0  0  0  0  0  0  0
   29.8320   29.4240   45.9640 H   0  0  0  0  0  0  0  0  0  0  0  0
  1  7  1  0  0  0  0
  2  8  1  0  0  0  0
  2  1  2  0  0  0  0
  3  2  1  0  0  0  0
  4  3  2  0  0  0  0
  4  5  1  0  0  0  0
  5  6  2  0  0  0  0
  6  1  1  0  0  0  0
 10 11  1  0  0  0  0
 10  9  1  0  0  0  0
 11  3  1  0  0  0  0
 12 11  2  0  0  0  0
 13 12  1  0  0  0  0
 14 12  1  0  0  0  0
 15 14  1  0  0  0  0
 16 14  2  0  0  0  0
 16 17  1  0  0  0  0
 17 10  2  0  0  0  0
 18  5  1  0  0  0  0
 19 20  1  0  0  0  0
 19 18  1  0  0  0  0
 21 19  1  0  0  0  0
 22 19  1  0  0  0  0
 22 24  1  0  0  0  0
 23 22  1  0  0  0  0
 25 22  1  0  0  0  0
 25 26  1  0  0  0  0
 26 27  2  0  0  0  0
 26 31  1  0  0  0  0
 27 32  1  0  0  0  0
 28 27  1  0  0  0  0
 29 28  2  0  0  0  0
 30 29  1  0  0  0  0
 30 25  2  0  0  0  0
 33 29  1  0  0  0  0
M  END
>  <minimizedAffinity>
-6.2351284

>  <minimizedRMSD>
0.935564697

$$$$
