
 OpenBabel03272507113D

 27 29  0  0  0  0  0  0  0  0999 V2000
   36.5510   28.6430   32.7890 C   0  0  0  0  0  0  0  0  0  0  0  0
   36.2730   29.6890   31.9550 C   0  0  0  0  0  0  0  0  0  0  0  0
   35.5060   30.5980   32.6830 C   0  0  0  0  0  0  0  0  0  0  0  0
   35.3620   30.0390   33.9390 C   0  0  0  0  0  0  0  0  0  0  0  0
   35.9940   28.9000   33.9370 O   0  0  0  0  0  0  0  0  0  0  0  0
   36.5260   29.9100   30.9120 H   0  0  0  0  0  0  0  0  0  0  0  0
   35.0620   31.5680   32.4230 H   0  0  0  0  0  0  0  0  0  0  0  0
   36.6090   31.7560   35.6780 F   0  0  0  0  0  0  0  0  0  0  0  0
   35.2910   31.4700   35.9240 C   0  0  0  0  0  0  0  0  0  0  0  0
   34.6380   30.6100   35.0680 C   0  0  0  0  0  0  0  0  0  0  0  0
   33.3150   30.3130   35.3020 C   0  0  0  0  0  0  0  0  0  0  0  0
   32.7790   29.6440   34.6480 H   0  0  0  0  0  0  0  0  0  0  0  0
   32.6400   30.8550   36.3670 C   0  0  0  0  0  0  0  0  0  0  0  0
   31.6010   30.6500   36.5890 H   0  0  0  0  0  0  0  0  0  0  0  0
   33.3570   31.7080   37.1830 C   0  0  0  0  0  3  0  0  0  0  0  0
   34.6880   32.0700   37.0320 C   0  0  0  0  0  3  0  0  0  0  0  0
   37.3360   27.4990   32.3720 C   0  0  0  0  0  0  0  0  0  0  0  0
   38.5800   27.5810   32.3880 O   0  0  0  0  0  0  0  0  0  0  0  0
   36.6140   26.3110   31.9560 C   0  0  0  0  0  0  0  0  0  0  0  0
   37.1510   25.0840   32.3530 C   0  0  0  0  0  0  0  0  0  0  0  0
   36.4870   23.9190   31.9740 C   0  0  0  0  0  0  0  0  0  0  0  0
   35.3390   24.0500   31.2290 N   0  0  0  0  0  0  0  0  0  0  0  0
   34.8540   25.2490   30.8670 C   0  0  0  0  0  0  0  0  0  0  0  0
   35.4900   26.3660   31.2290 N   0  0  0  0  0  0  0  0  0  0  0  0
   38.0580   25.0500   32.9390 H   0  0  0  0  0  0  0  0  0  0  0  0
   36.8590   22.9400   32.2550 H   0  0  0  0  0  0  0  0  0  0  0  0
   33.9450   25.2170   30.2820 H   0  0  0  0  0  0  0  0  0  0  0  0
  1  5  1  0  0  0  0
  2  3  1  0  0  0  0
  2  1  2  0  0  0  0
  3  4  2  0  0  0  0
  4 10  1  0  0  0  0
  5  4  1  0  0  0  0
  6  2  1  0  0  0  0
  7  3  1  0  0  0  0
  8  9  1  0  0  0  0
  9 16  1  0  0  0  0
 10 11  1  0  0  0  0
 10  9  2  0  0  0  0
 11 13  2  0  0  0  0
 12 11  1  0  0  0  0
 13 14  1  0  0  0  0
 13 15  1  0  0  0  0
 16 15  2  0  0  0  0
 17 18  2  0  0  0  0
 17  1  1  0  0  0  0
 19 20  1  0  0  0  0
 19 17  1  0  0  0  0
 20 25  1  0  0  0  0
 21 26  1  0  0  0  0
 21 20  2  0  0  0  0
 22 21  1  0  0  0  0
 23 24  1  0  0  0  0
 23 22  2  0  0  0  0
 24 19  2  0  0  0  0
 27 23  1  0  0  0  0
M  END
>  <minimizedAffinity>
-5.47811031

$$$$

 OpenBabel03272507113D

 27 29  0  0  0  0  0  0  0  0999 V2000
   37.9970   25.4300   35.8800 C   0  0  0  0  0  0  0  0  0  0  0  0
   38.4480   26.5850   36.4530 C   0  0  0  0  0  0  0  0  0  0  0  0
   38.2210   27.6110   35.5360 C   0  0  0  0  0  0  0  0  0  0  0  0
   37.6350   27.0060   34.4410 C   0  0  0  0  0  0  0  0  0  0  0  0
   37.5320   25.7340   34.7030 O   0  0  0  0  0  0  0  0  0  0  0  0
   38.9140   26.8180   37.4170 H   0  0  0  0  0  0  0  0  0  0  0  0
   38.4200   28.6910   35.5680 H   0  0  0  0  0  0  0  0  0  0  0  0
   35.4130   28.6150   34.4130 F   0  0  0  0  0  0  0  0  0  0  0  0
   36.0860   28.4630   33.2280 C   0  0  0  0  0  0  0  0  0  0  0  0
   37.2050   27.6610   33.2110 C   0  0  0  0  0  0  0  0  0  0  0  0
   37.8910   27.4980   32.0300 C   0  0  0  0  0  0  0  0  0  0  0  0
   38.7710   26.8760   31.9870 H   0  0  0  0  0  0  0  0  0  0  0  0
   37.4810   28.1180   30.8750 C   0  0  0  0  0  0  0  0  0  0  0  0
   37.9890   28.0190   29.9250 H   0  0  0  0  0  0  0  0  0  0  0  0
   36.3510   28.9070   30.9670 C   0  0  0  0  0  3  0  0  0  0  0  0
   35.5930   29.1330   32.1060 C   0  0  0  0  0  3  0  0  0  0  0  0
   38.0710   24.1460   36.5480 C   0  0  0  0  0  0  0  0  0  0  0  0
   37.1100   23.7750   37.2490 O   0  0  0  0  0  0  0  0  0  0  0  0
   39.2770   23.3620   36.3530 C   0  0  0  0  0  0  0  0  0  0  0  0
   39.8260   22.7730   37.4940 C   0  0  0  0  0  0  0  0  0  0  0  0
   40.9850   22.0110   37.3510 C   0  0  0  0  0  0  0  0  0  0  0  0
   41.5170   21.8880   36.0890 N   0  0  0  0  0  0  0  0  0  0  0  0
   40.9580   22.4720   35.0150 C   0  0  0  0  0  0  0  0  0  0  0  0
   39.8490   23.2020   35.1530 N   0  0  0  0  0  0  0  0  0  0  0  0
   39.3590   22.9090   38.4580 H   0  0  0  0  0  0  0  0  0  0  0  0
   41.4540   21.5320   38.2010 H   0  0  0  0  0  0  0  0  0  0  0  0
   41.4740   22.2990   34.0800 H   0  0  0  0  0  0  0  0  0  0  0  0
  1  2  2  0  0  0  0
  1 17  1  0  0  0  0
  2  6  1  0  0  0  0
  3  7  1  0  0  0  0
  3  2  1  0  0  0  0
  4  5  1  0  0  0  0
  4  3  2  0  0  0  0
  5  1  1  0  0  0  0
  9  8  1  0  0  0  0
 10  9  1  0  0  0  0
 10  4  1  0  0  0  0
 11 10  2  0  0  0  0
 12 11  1  0  0  0  0
 13 15  2  0  0  0  0
 13 11  1  0  0  0  0
 14 13  1  0  0  0  0
 15 16  1  0  0  0  0
 16  9  2  0  0  0  0
 17 18  2  0  0  0  0
 19 17  1  0  0  0  0
 19 20  1  0  0  0  0
 20 25  1  0  0  0  0
 21 20  2  0  0  0  0
 21 26  1  0  0  0  0
 22 21  1  0  0  0  0
 23 24  1  0  0  0  0
 23 22  2  0  0  0  0
 24 19  2  0  0  0  0
 27 23  1  0  0  0  0
M  END
>  <minimizedAffinity>
-5.43472624

$$$$

 OpenBabel03272507113D

 27 29  0  0  0  0  0  0  0  0999 V2000
   37.9650   23.9270   33.7000 C   0  0  0  0  0  0  0  0  0  0  0  0
   37.2740   24.5210   32.6820 C   0  0  0  0  0  0  0  0  0  0  0  0
   36.6230   23.5050   31.9840 C   0  0  0  0  0  0  0  0  0  0  0  0
   36.9630   22.3330   32.6320 C   0  0  0  0  0  0  0  0  0  0  0  0
   37.7470   22.6450   33.6240 O   0  0  0  0  0  0  0  0  0  0  0  0
   37.1590   25.5600   32.3530 H   0  0  0  0  0  0  0  0  0  0  0  0
   35.9630   23.5140   31.1050 H   0  0  0  0  0  0  0  0  0  0  0  0
   35.5130   20.8210   34.4040 F   0  0  0  0  0  0  0  0  0  0  0  0
   35.8030   20.2510   33.1910 C   0  0  0  0  0  0  0  0  0  0  0  0
   36.5300   20.9860   32.2800 C   0  0  0  0  0  0  0  0  0  0  0  0
   36.8280   20.4280   31.0590 C   0  0  0  0  0  0  0  0  0  0  0  0
   37.3950   20.9810   30.3270 H   0  0  0  0  0  0  0  0  0  0  0  0
   36.4160   19.1590   30.7350 C   0  0  0  0  0  0  0  0  0  0  0  0
   36.6270   18.6800   29.7880 H   0  0  0  0  0  0  0  0  0  0  0  0
   35.6920   18.4810   31.6960 C   0  0  0  0  0  3  0  0  0  0  0  0
   35.3410   18.9540   32.9520 C   0  0  0  0  0  3  0  0  0  0  0  0
   38.7680   24.6790   34.6430 C   0  0  0  0  0  0  0  0  0  0  0  0
   39.3330   25.7210   34.2580 O   0  0  0  0  0  0  0  0  0  0  0  0
   38.8640   24.1640   35.9960 C   0  0  0  0  0  0  0  0  0  0  0  0
   37.9290   24.6480   36.9140 C   0  0  0  0  0  0  0  0  0  0  0  0
   37.9870   24.1780   38.2250 C   0  0  0  0  0  0  0  0  0  0  0  0
   38.9660   23.2640   38.5340 N   0  0  0  0  0  0  0  0  0  0  0  0
   39.8480   22.8230   37.6220 C   0  0  0  0  0  0  0  0  0  0  0  0
   39.7930   23.2730   36.3660 N   0  0  0  0  0  0  0  0  0  0  0  0
   37.1840   25.3660   36.6070 H   0  0  0  0  0  0  0  0  0  0  0  0
   37.2870   24.5180   38.9790 H   0  0  0  0  0  0  0  0  0  0  0  0
   40.5680   22.1050   37.9910 H   0  0  0  0  0  0  0  0  0  0  0  0
  1 17  1  0  0  0  0
  2  1  2  0  0  0  0
  3  4  2  0  0  0  0
  3  2  1  0  0  0  0
  4  5  1  0  0  0  0
  5  1  1  0  0  0  0
  6  2  1  0  0  0  0
  7  3  1  0  0  0  0
  9  8  1  0  0  0  0
 10  4  1  0  0  0  0
 10  9  2  0  0  0  0
 11 10  1  0  0  0  0
 12 11  1  0  0  0  0
 13 11  2  0  0  0  0
 13 15  1  0  0  0  0
 14 13  1  0  0  0  0
 15 16  2  0  0  0  0
 16  9  1  0  0  0  0
 17 19  1  0  0  0  0
 18 17  2  0  0  0  0
 19 24  2  0  0  0  0
 19 20  1  0  0  0  0
 20 21  2  0  0  0  0
 21 22  1  0  0  0  0
 21 26  1  0  0  0  0
 23 27  1  0  0  0  0
 23 22  2  0  0  0  0
 24 23  1  0  0  0  0
 25 20  1  0  0  0  0
M  END
>  <minimizedAffinity>
-5.37898779

$$$$

 OpenBabel03272507113D

 27 29  0  0  0  0  0  0  0  0999 V2000
   36.3400   26.0370   31.9910 C   0  0  0  0  0  0  0  0  0  0  0  0
   35.3370   26.0260   31.0640 C   0  0  0  0  0  0  0  0  0  0  0  0
   35.0570   24.6890   30.7830 C   0  0  0  0  0  0  0  0  0  0  0  0
   35.9230   23.9560   31.5710 C   0  0  0  0  0  0  0  0  0  0  0  0
   36.6450   24.7990   32.2520 O   0  0  0  0  0  0  0  0  0  0  0  0
   34.7710   26.8130   30.5530 H   0  0  0  0  0  0  0  0  0  0  0  0
   34.3360   24.2090   30.1080 H   0  0  0  0  0  0  0  0  0  0  0  0
   37.9920   22.6340   30.3450 F   0  0  0  0  0  0  0  0  0  0  0  0
   37.0720   21.8670   31.0120 C   0  0  0  0  0  0  0  0  0  0  0  0
   36.0210   22.5020   31.6370 C   0  0  0  0  0  0  0  0  0  0  0  0
   35.0900   21.7460   32.3100 C   0  0  0  0  0  0  0  0  0  0  0  0
   34.2580   22.2170   32.8090 H   0  0  0  0  0  0  0  0  0  0  0  0
   35.1900   20.3780   32.3690 C   0  0  0  0  0  0  0  0  0  0  0  0
   34.4810   19.7440   32.8860 H   0  0  0  0  0  0  0  0  0  0  0  0
   36.2680   19.8100   31.7200 C   0  0  0  0  0  3  0  0  0  0  0  0
   37.2560   20.4820   31.0170 C   0  0  0  0  0  3  0  0  0  0  0  0
   36.8950   27.2640   32.5260 C   0  0  0  0  0  0  0  0  0  0  0  0
   36.3900   28.3530   32.1890 O   0  0  0  0  0  0  0  0  0  0  0  0
   38.0220   27.1460   33.4330 C   0  0  0  0  0  0  0  0  0  0  0  0
   37.7340   27.2270   34.7970 C   0  0  0  0  0  0  0  0  0  0  0  0
   38.7890   27.1180   35.7020 C   0  0  0  0  0  0  0  0  0  0  0  0
   40.0530   26.9370   35.1920 N   0  0  0  0  0  0  0  0  0  0  0  0
   40.2890   26.8650   33.8720 C   0  0  0  0  0  0  0  0  0  0  0  0
   39.2790   26.9700   33.0040 N   0  0  0  0  0  0  0  0  0  0  0  0
   36.7180   27.3700   35.1330 H   0  0  0  0  0  0  0  0  0  0  0  0
   38.6230   27.1730   36.7710 H   0  0  0  0  0  0  0  0  0  0  0  0
   41.3260   26.7220   33.6000 H   0  0  0  0  0  0  0  0  0  0  0  0
  1  5  1  0  0  0  0
  1 17  1  0  0  0  0
  2  1  2  0  0  0  0
  3  2  1  0  0  0  0
  3  4  2  0  0  0  0
  4 10  1  0  0  0  0
  4  5  1  0  0  0  0
  6  2  1  0  0  0  0
  7  3  1  0  0  0  0
  8  9  1  0  0  0  0
  9 16  2  0  0  0  0
  9 10  1  0  0  0  0
 10 11  2  0  0  0  0
 11 13  1  0  0  0  0
 11 12  1  0  0  0  0
 13 14  1  0  0  0  0
 15 13  2  0  0  0  0
 16 15  1  0  0  0  0
 17 19  1  0  0  0  0
 18 17  2  0  0  0  0
 19 20  1  0  0  0  0
 20 25  1  0  0  0  0
 20 21  2  0  0  0  0
 21 26  1  0  0  0  0
 22 21  1  0  0  0  0
 23 22  2  0  0  0  0
 24 19  2  0  0  0  0
 24 23  1  0  0  0  0
 27 23  1  0  0  0  0
M  END
>  <minimizedAffinity>
-5.34783173

$$$$

 OpenBabel03272507113D

 27 29  0  0  0  0  0  0  0  0999 V2000
   38.0220   25.4200   35.8350 C   0  0  0  0  0  0  0  0  0  0  0  0
   38.3920   26.5880   36.4400 C   0  0  0  0  0  0  0  0  0  0  0  0
   38.1630   27.6120   35.5220 C   0  0  0  0  0  0  0  0  0  0  0  0
   37.6580   26.9940   34.3950 C   0  0  0  0  0  0  0  0  0  0  0  0
   37.6000   25.7160   34.6400 O   0  0  0  0  0  0  0  0  0  0  0  0
   38.8000   26.8300   37.4270 H   0  0  0  0  0  0  0  0  0  0  0  0
   38.3120   28.7000   35.5730 H   0  0  0  0  0  0  0  0  0  0  0  0
   39.2720   26.8870   32.1790 F   0  0  0  0  0  0  0  0  0  0  0  0
   38.0900   27.5710   32.0560 C   0  0  0  0  0  0  0  0  0  0  0  0
   37.2590   27.6420   33.1510 C   0  0  0  0  0  0  0  0  0  0  0  0
   36.0700   28.3240   33.0420 C   0  0  0  0  0  0  0  0  0  0  0  0
   35.3990   28.3960   33.8840 H   0  0  0  0  0  0  0  0  0  0  0  0
   35.7000   28.9320   31.8680 C   0  0  0  0  0  0  0  0  0  0  0  0
   34.7760   29.4790   31.7370 H   0  0  0  0  0  0  0  0  0  0  0  0
   36.5830   28.8200   30.8120 C   0  0  0  0  0  3  0  0  0  0  0  0
   37.8010   28.1560   30.8200 C   0  0  0  0  0  3  0  0  0  0  0  0
   38.1210   24.1330   36.4940 C   0  0  0  0  0  0  0  0  0  0  0  0
   37.1510   23.7180   37.1560 O   0  0  0  0  0  0  0  0  0  0  0  0
   39.3630   23.3990   36.3390 C   0  0  0  0  0  0  0  0  0  0  0  0
   39.8490   22.7500   37.4760 C   0  0  0  0  0  0  0  0  0  0  0  0
   41.0400   22.0330   37.3690 C   0  0  0  0  0  0  0  0  0  0  0  0
   41.6650   22.0110   36.1450 N   0  0  0  0  0  0  0  0  0  0  0  0
   41.1650   22.6490   35.0730 C   0  0  0  0  0  0  0  0  0  0  0  0
   40.0250   23.3360   35.1760 N   0  0  0  0  0  0  0  0  0  0  0  0
   39.3100   22.8070   38.4090 H   0  0  0  0  0  0  0  0  0  0  0  0
   41.4630   21.5110   38.2180 H   0  0  0  0  0  0  0  0  0  0  0  0
   41.7520   22.5540   34.1690 H   0  0  0  0  0  0  0  0  0  0  0  0
  1  2  2  0  0  0  0
  1 17  1  0  0  0  0
  2  6  1  0  0  0  0
  3  7  1  0  0  0  0
  3  2  1  0  0  0  0
  4  5  1  0  0  0  0
  4  3  2  0  0  0  0
  5  1  1  0  0  0  0
  9  8  1  0  0  0  0
  9 10  1  0  0  0  0
 10  4  1  0  0  0  0
 11 10  2  0  0  0  0
 11 12  1  0  0  0  0
 13 11  1  0  0  0  0
 14 13  1  0  0  0  0
 15 16  1  0  0  0  0
 15 13  2  0  0  0  0
 16  9  2  0  0  0  0
 17 18  2  0  0  0  0
 19 17  1  0  0  0  0
 19 20  1  0  0  0  0
 20 25  1  0  0  0  0
 21 20  2  0  0  0  0
 21 26  1  0  0  0  0
 22 21  1  0  0  0  0
 23 24  1  0  0  0  0
 23 22  2  0  0  0  0
 24 19  2  0  0  0  0
 27 23  1  0  0  0  0
M  END
>  <minimizedAffinity>
-5.33725786

$$$$

 OpenBabel03272507113D

 27 29  0  0  0  0  0  0  0  0999 V2000
   36.3710   28.4210   33.2250 C   0  0  0  0  0  0  0  0  0  0  0  0
   36.1980   29.4110   32.2990 C   0  0  0  0  0  0  0  0  0  0  0  0
   35.4970   30.4390   32.9280 C   0  0  0  0  0  0  0  0  0  0  0  0
   35.2820   30.0040   34.2220 C   0  0  0  0  0  0  0  0  0  0  0  0
   35.8150   28.8210   34.3320 O   0  0  0  0  0  0  0  0  0  0  0  0
   36.4880   29.5210   31.2480 H   0  0  0  0  0  0  0  0  0  0  0  0
   35.1410   31.4170   32.5760 H   0  0  0  0  0  0  0  0  0  0  0  0
   36.6430   31.7310   35.8630 F   0  0  0  0  0  0  0  0  0  0  0  0
   35.2970   31.5880   36.0880 C   0  0  0  0  0  0  0  0  0  0  0  0
   34.5880   30.7280   35.2800 C   0  0  0  0  0  0  0  0  0  0  0  0
   33.2380   30.5740   35.4930 C   0  0  0  0  0  0  0  0  0  0  0  0
   32.6570   29.9070   34.8750 H   0  0  0  0  0  0  0  0  0  0  0  0
   32.5900   31.2590   36.4910 C   0  0  0  0  0  0  0  0  0  0  0  0
   31.5310   31.1690   36.6950 H   0  0  0  0  0  0  0  0  0  0  0  0
   33.3640   32.1040   37.2620 C   0  0  0  0  0  3  0  0  0  0  0  0
   34.7270   32.3270   37.1270 C   0  0  0  0  0  3  0  0  0  0  0  0
   37.0640   27.1840   32.9250 C   0  0  0  0  0  0  0  0  0  0  0  0
   36.4320   26.2510   32.3950 O   0  0  0  0  0  0  0  0  0  0  0  0
   38.4730   27.1110   33.2680 C   0  0  0  0  0  0  0  0  0  0  0  0
   38.7760   26.8980   34.6140 C   0  0  0  0  0  0  0  0  0  0  0  0
   40.1170   26.8210   34.9850 C   0  0  0  0  0  0  0  0  0  0  0  0
   41.0630   26.9600   33.9970 N   0  0  0  0  0  0  0  0  0  0  0  0
   40.7310   27.1650   32.7110 C   0  0  0  0  0  0  0  0  0  0  0  0
   39.4460   27.2400   32.3560 N   0  0  0  0  0  0  0  0  0  0  0  0
   37.9850   26.7960   35.3420 H   0  0  0  0  0  0  0  0  0  0  0  0
   40.4100   26.6570   36.0150 H   0  0  0  0  0  0  0  0  0  0  0  0
   41.5670   27.2590   32.0320 H   0  0  0  0  0  0  0  0  0  0  0  0
  1  5  1  0  0  0  0
  2  3  1  0  0  0  0
  2  1  2  0  0  0  0
  3  4  2  0  0  0  0
  4  5  1  0  0  0  0
  4 10  1  0  0  0  0
  6  2  1  0  0  0  0
  7  3  1  0  0  0  0
  8  9  1  0  0  0  0
  9 16  1  0  0  0  0
 10 11  1  0  0  0  0
 10  9  2  0  0  0  0
 11 13  2  0  0  0  0
 12 11  1  0  0  0  0
 13 14  1  0  0  0  0
 13 15  1  0  0  0  0
 16 15  2  0  0  0  0
 17  1  1  0  0  0  0
 17 19  1  0  0  0  0
 18 17  2  0  0  0  0
 19 20  1  0  0  0  0
 20 21  2  0  0  0  0
 20 25  1  0  0  0  0
 21 26  1  0  0  0  0
 22 21  1  0  0  0  0
 23 22  2  0  0  0  0
 24 23  1  0  0  0  0
 24 19  2  0  0  0  0
 27 23  1  0  0  0  0
M  END
>  <minimizedAffinity>
-5.33590508

$$$$

 OpenBabel03272507113D

 27 29  0  0  0  0  0  0  0  0999 V2000
   36.4170   28.0090   32.5390 C   0  0  0  0  0  0  0  0  0  0  0  0
   37.0770   27.4790   33.6110 C   0  0  0  0  0  0  0  0  0  0  0  0
   36.7310   28.2460   34.7230 C   0  0  0  0  0  0  0  0  0  0  0  0
   35.8640   29.2130   34.2510 C   0  0  0  0  0  0  0  0  0  0  0  0
   35.7210   29.0220   32.9710 O   0  0  0  0  0  0  0  0  0  0  0  0
   37.7670   26.6360   33.7310 H   0  0  0  0  0  0  0  0  0  0  0  0
   37.0180   28.1870   35.7820 H   0  0  0  0  0  0  0  0  0  0  0  0
   33.1330   29.3060   34.4880 F   0  0  0  0  0  0  0  0  0  0  0  0
   33.8470   30.2820   35.1340 C   0  0  0  0  0  0  0  0  0  0  0  0
   35.2210   30.2620   35.0330 C   0  0  0  0  0  0  0  0  0  0  0  0
   35.9510   31.2340   35.6760 C   0  0  0  0  0  0  0  0  0  0  0  0
   37.0280   31.2420   35.6150 H   0  0  0  0  0  0  0  0  0  0  0  0
   35.3370   32.2180   36.4110 C   0  0  0  0  0  0  0  0  0  0  0  0
   35.8710   33.0020   36.9320 H   0  0  0  0  0  0  0  0  0  0  0  0
   33.9590   32.1770   36.4680 C   0  0  0  0  0  3  0  0  0  0  0  0
   33.1350   31.2420   35.8580 C   0  0  0  0  0  3  0  0  0  0  0  0
   36.5360   27.4660   31.2010 C   0  0  0  0  0  0  0  0  0  0  0  0
   36.5270   28.2470   30.2300 O   0  0  0  0  0  0  0  0  0  0  0  0
   36.6620   26.0260   31.0760 C   0  0  0  0  0  0  0  0  0  0  0  0
   35.4990   25.2800   31.2800 C   0  0  0  0  0  0  0  0  0  0  0  0
   35.5760   23.8920   31.1680 C   0  0  0  0  0  0  0  0  0  0  0  0
   36.7990   23.3430   30.8640 N   0  0  0  0  0  0  0  0  0  0  0  0
   37.8960   24.0950   30.6750 C   0  0  0  0  0  0  0  0  0  0  0  0
   37.8220   25.4240   30.7830 N   0  0  0  0  0  0  0  0  0  0  0  0
   34.5680   25.7740   31.5160 H   0  0  0  0  0  0  0  0  0  0  0  0
   34.7050   23.2650   31.3160 H   0  0  0  0  0  0  0  0  0  0  0  0
   38.7950   23.5420   30.4420 H   0  0  0  0  0  0  0  0  0  0  0  0
  1  5  1  0  0  0  0
  1  2  2  0  0  0  0
  2  6  1  0  0  0  0
  2  3  1  0  0  0  0
  3  7  1  0  0  0  0
  4  3  2  0  0  0  0
  4 10  1  0  0  0  0
  5  4  1  0  0  0  0
  8  9  1  0  0  0  0
  9 16  1  0  0  0  0
 10  9  2  0  0  0  0
 10 11  1  0  0  0  0
 11 13  2  0  0  0  0
 12 11  1  0  0  0  0
 13 15  1  0  0  0  0
 13 14  1  0  0  0  0
 16 15  2  0  0  0  0
 17  1  1  0  0  0  0
 18 17  2  0  0  0  0
 19 17  1  0  0  0  0
 19 20  1  0  0  0  0
 20 25  1  0  0  0  0
 21 20  2  0  0  0  0
 21 26  1  0  0  0  0
 22 21  1  0  0  0  0
 23 24  1  0  0  0  0
 23 22  2  0  0  0  0
 24 19  2  0  0  0  0
 27 23  1  0  0  0  0
M  END
>  <minimizedAffinity>
-5.3349514

$$$$

 OpenBabel03272507113D

 27 29  0  0  0  0  0  0  0  0999 V2000
   37.0970   26.3110   33.3570 C   0  0  0  0  0  0  0  0  0  0  0  0
   37.1660   27.3730   34.2140 C   0  0  0  0  0  0  0  0  0  0  0  0
   37.7260   26.9040   35.4010 C   0  0  0  0  0  0  0  0  0  0  0  0
   37.9680   25.5600   35.1900 C   0  0  0  0  0  0  0  0  0  0  0  0
   37.5800   25.2750   33.9810 O   0  0  0  0  0  0  0  0  0  0  0  0
   36.8820   28.4280   34.1320 H   0  0  0  0  0  0  0  0  0  0  0  0
   37.9670   27.3970   36.3530 H   0  0  0  0  0  0  0  0  0  0  0  0
   40.2760   24.2050   34.5830 F   0  0  0  0  0  0  0  0  0  0  0  0
   39.7120   23.9560   35.8080 C   0  0  0  0  0  0  0  0  0  0  0  0
   38.5520   24.6210   36.1410 C   0  0  0  0  0  0  0  0  0  0  0  0
   37.9750   24.3820   37.3660 C   0  0  0  0  0  0  0  0  0  0  0  0
   37.0670   24.8890   37.6530 H   0  0  0  0  0  0  0  0  0  0  0  0
   38.5310   23.4960   38.2560 C   0  0  0  0  0  0  0  0  0  0  0  0
   38.1110   23.2770   39.2300 H   0  0  0  0  0  0  0  0  0  0  0  0
   39.6920   22.8660   37.8560 C   0  0  0  0  0  3  0  0  0  0  0  0
   40.3500   23.0390   36.6470 C   0  0  0  0  0  3  0  0  0  0  0  0
   36.5630   26.4230   32.0150 C   0  0  0  0  0  0  0  0  0  0  0  0
   35.7030   25.6040   31.6360 O   0  0  0  0  0  0  0  0  0  0  0  0
   37.0710   27.4990   31.1840 C   0  0  0  0  0  0  0  0  0  0  0  0
   38.3990   27.3890   30.7670 C   0  0  0  0  0  0  0  0  0  0  0  0
   38.9260   28.4020   29.9660 C   0  0  0  0  0  0  0  0  0  0  0  0
   38.1020   29.4510   29.6380 N   0  0  0  0  0  0  0  0  0  0  0  0
   36.8280   29.5210   30.0600 C   0  0  0  0  0  0  0  0  0  0  0  0
   36.3230   28.5510   30.8270 N   0  0  0  0  0  0  0  0  0  0  0  0
   38.9950   26.5370   31.0600 H   0  0  0  0  0  0  0  0  0  0  0  0
   39.9500   28.3680   29.6140 H   0  0  0  0  0  0  0  0  0  0  0  0
   36.2850   30.3970   29.7330 H   0  0  0  0  0  0  0  0  0  0  0  0
  1  5  1  0  0  0  0
  1  2  2  0  0  0  0
  2  3  1  0  0  0  0
  3  7  1  0  0  0  0
  4  3  2  0  0  0  0
  4 10  1  0  0  0  0
  5  4  1  0  0  0  0
  6  2  1  0  0  0  0
  8  9  1  0  0  0  0
  9 10  2  0  0  0  0
  9 16  1  0  0  0  0
 10 11  1  0  0  0  0
 11 12  1  0  0  0  0
 11 13  2  0  0  0  0
 13 14  1  0  0  0  0
 15 13  1  0  0  0  0
 16 15  2  0  0  0  0
 17  1  1  0  0  0  0
 18 17  2  0  0  0  0
 19 17  1  0  0  0  0
 20 25  1  0  0  0  0
 20 19  2  0  0  0  0
 21 20  1  0  0  0  0
 22 21  2  0  0  0  0
 22 23  1  0  0  0  0
 23 24  2  0  0  0  0
 24 19  1  0  0  0  0
 26 21  1  0  0  0  0
 27 23  1  0  0  0  0
M  END
>  <minimizedAffinity>
-5.27939844

$$$$

 OpenBabel03272507113D

 27 29  0  0  0  0  0  0  0  0999 V2000
   37.3060   26.1230   33.5060 C   0  0  0  0  0  0  0  0  0  0  0  0
   37.6390   27.1900   34.2900 C   0  0  0  0  0  0  0  0  0  0  0  0
   38.4010   26.6960   35.3490 C   0  0  0  0  0  0  0  0  0  0  0  0
   38.4860   25.3330   35.1400 C   0  0  0  0  0  0  0  0  0  0  0  0
   37.8270   25.0610   34.0490 O   0  0  0  0  0  0  0  0  0  0  0  0
   37.4290   28.2640   34.2340 H   0  0  0  0  0  0  0  0  0  0  0  0
   38.8770   27.1840   36.2110 H   0  0  0  0  0  0  0  0  0  0  0  0
   37.3500   24.4210   37.4650 F   0  0  0  0  0  0  0  0  0  0  0  0
   38.5860   23.9250   37.1400 C   0  0  0  0  0  0  0  0  0  0  0  0
   39.1820   24.3650   35.9790 C   0  0  0  0  0  0  0  0  0  0  0  0
   40.4230   23.8770   35.6400 C   0  0  0  0  0  0  0  0  0  0  0  0
   40.9120   24.2030   34.7360 H   0  0  0  0  0  0  0  0  0  0  0  0
   41.0720   22.9650   36.4350 C   0  0  0  0  0  0  0  0  0  0  0  0
   42.0480   22.5550   36.2070 H   0  0  0  0  0  0  0  0  0  0  0  0
   40.4150   22.5700   37.5830 C   0  0  0  0  0  3  0  0  0  0  0  0
   39.1680   23.0010   38.0110 C   0  0  0  0  0  3  0  0  0  0  0  0
   36.5100   26.2560   32.3020 C   0  0  0  0  0  0  0  0  0  0  0  0
   35.9420   25.2480   31.8390 O   0  0  0  0  0  0  0  0  0  0  0  0
   36.4230   27.5760   31.7040 C   0  0  0  0  0  0  0  0  0  0  0  0
   37.3990   27.8960   30.7580 C   0  0  0  0  0  0  0  0  0  0  0  0
   37.3510   29.1540   30.1590 C   0  0  0  0  0  0  0  0  0  0  0  0
   36.3410   30.0050   30.5410 N   0  0  0  0  0  0  0  0  0  0  0  0
   35.4200   29.6600   31.4570 C   0  0  0  0  0  0  0  0  0  0  0  0
   35.4660   28.4550   32.0310 N   0  0  0  0  0  0  0  0  0  0  0  0
   38.1660   27.1810   30.5020 H   0  0  0  0  0  0  0  0  0  0  0  0
   38.0820   29.4550   29.4190 H   0  0  0  0  0  0  0  0  0  0  0  0
   34.6790   30.4190   31.6690 H   0  0  0  0  0  0  0  0  0  0  0  0
  1  5  1  0  0  0  0
  1  2  2  0  0  0  0
  2  3  1  0  0  0  0
  3  7  1  0  0  0  0
  4  3  2  0  0  0  0
  4 10  1  0  0  0  0
  5  4  1  0  0  0  0
  6  2  1  0  0  0  0
  9  8  1  0  0  0  0
  9 16  1  0  0  0  0
 10  9  2  0  0  0  0
 11 10  1  0  0  0  0
 11 13  2  0  0  0  0
 12 11  1  0  0  0  0
 13 15  1  0  0  0  0
 14 13  1  0  0  0  0
 15 16  2  0  0  0  0
 17  1  1  0  0  0  0
 18 17  2  0  0  0  0
 19 24  1  0  0  0  0
 19 17  1  0  0  0  0
 20 19  2  0  0  0  0
 21 22  2  0  0  0  0
 21 20  1  0  0  0  0
 22 23  1  0  0  0  0
 23 27  1  0  0  0  0
 23 24  2  0  0  0  0
 25 20  1  0  0  0  0
 26 21  1  0  0  0  0
M  END
>  <minimizedAffinity>
-5.23919153

$$$$
