
 OpenBabel03272506133D

 44 47  0  0  1  0  0  0  0  0999 V2000
   39.8340   25.1530   34.0240 C   0  0  1  0  0  0  0  0  0  0  0  0
   41.3510   24.7840   33.8860 C   0  0  0  0  0  0  0  0  0  0  0  0
   42.2370   25.8910   34.4450 C   0  0  0  0  0  0  0  0  0  0  0  0
   41.8160   27.2030   33.9080 C   0  0  0  0  0  0  0  0  0  0  0  0
   40.8530   27.0800   32.8100 C   0  0  0  0  0  0  0  0  0  0  0  0
   39.6280   26.3480   33.1460 C   0  0  2  0  0  0  0  0  0  0  0  0
   39.8750   25.5690   34.9680 H   0  0  0  0  0  0  0  0  0  0  0  0
   41.6120   24.6350   32.8310 H   0  0  0  0  0  0  0  0  0  0  0  0
   41.4820   23.8830   34.4830 H   0  0  0  0  0  0  0  0  0  0  0  0
   43.2690   25.5680   34.2070 H   0  0  0  0  0  0  0  0  0  0  0  0
   42.2010   25.8780   35.5690 H   0  0  0  0  0  0  0  0  0  0  0  0
   41.6630   27.9880   34.6630 H   0  0  0  0  0  0  0  0  0  0  0  0
   42.7630   27.6040   33.3970 H   0  0  0  0  0  0  0  0  0  0  0  0
   40.5480   28.1190   32.5070 H   0  0  0  0  0  0  0  0  0  0  0  0
   41.4110   26.7150   31.8950 H   0  0  0  0  0  0  0  0  0  0  0  0
   39.4070   25.8790   32.1300 H   0  0  0  0  0  0  0  0  0  0  0  0
   38.4110   23.2440   34.5680 C   0  0  0  0  0  0  0  0  0  0  0  0
   37.6250   22.1740   34.1150 C   0  0  0  0  0  0  0  0  0  0  0  0
   37.5390   21.8090   32.7850 C   0  0  0  0  0  0  0  0  0  0  0  0
   38.2650   22.5310   31.8270 C   0  0  0  0  0  0  0  0  0  0  0  0
   39.0260   23.5760   32.3030 C   0  0  0  0  0  0  0  0  0  0  0  0
   39.1250   23.9620   33.6230 C   0  0  0  0  0  0  0  0  0  0  0  0
   37.0330   21.5770   34.8230 H   0  0  0  0  0  0  0  0  0  0  0  0
   36.8940   20.9640   32.5470 H   0  0  0  0  0  0  0  0  0  0  0  0
   38.1220   22.1570   30.8300 H   0  0  0  0  0  0  0  0  0  0  0  0
   39.5070   23.9800   31.4280 H   0  0  0  0  0  0  0  0  0  0  0  0
   39.5610   22.7200   36.6640 C   0  0  0  0  0  0  0  0  0  0  0  0
   38.4760   23.3890   35.9840 C   0  0  0  0  0  0  0  0  0  0  0  0
   37.6300   24.1140   36.7670 C   0  0  0  0  0  0  0  0  0  0  0  0
   37.8360   24.1800   38.1000 N   0  0  0  0  0  0  0  0  0  0  0  0
   38.8750   23.5360   38.7210 C   0  0  0  0  0  0  0  0  0  0  0  0
   39.7610   22.7860   37.9860 N   0  0  0  0  0  0  0  0  0  0  0  0
   40.3080   22.1120   36.1790 H   0  0  0  0  0  0  0  0  0  0  0  0
   36.7440   24.6230   36.5480 H   0  0  0  0  0  0  0  0  0  0  0  0
   39.0340   23.5950   39.8010 H   0  0  0  0  0  0  0  0  0  0  0  0
   38.5670   27.2340   35.7240 F   0  0  0  0  0  0  0  0  0  0  0  0
   37.8900   27.5220   34.5930 C   0  0  0  0  0  0  0  0  0  0  0  0
   38.3780   27.1000   33.3770 C   0  0  0  0  0  0  0  0  0  0  0  0
   37.5020   27.5020   32.3470 C   0  0  0  0  0  0  0  0  0  0  0  0
   37.7860   27.2220   31.3180 H   0  0  0  0  0  0  0  0  0  0  0  0
   36.3430   28.1960   32.4480 C   0  0  0  0  0  0  0  0  0  0  0  0
   35.7520   28.4480   31.5820 H   0  0  0  0  0  0  0  0  0  0  0  0
   35.9550   28.5660   33.7170 C   0  0  0  0  0  3  0  0  0  0  0  0
   36.7280   28.2300   34.8060 C   0  0  0  0  0  3  0  0  0  0  0  0
  1  7  1  1  0  0  0
  2  1  1  0  0  0  0
  2  3  1  0  0  0  0
  2  9  1  0  0  0  0
  3 11  1  0  0  0  0
  4  3  1  0  0  0  0
  4 12  1  0  0  0  0
  5  6  1  0  0  0  0
  5  4  1  0  0  0  0
  6 16  1  6  0  0  0
  6 38  1  0  0  0  0
  6  1  1  0  0  0  0
  8  2  1  0  0  0  0
 10  3  1  0  0  0  0
 13  4  1  0  0  0  0
 14  5  1  0  0  0  0
 15  5  1  0  0  0  0
 17 28  1  0  0  0  0
 18 17  1  0  0  0  0
 18 23  1  0  0  0  0
 19 18  2  0  0  0  0
 20 21  2  0  0  0  0
 20 19  1  0  0  0  0
 21 22  1  0  0  0  0
 22  1  1  0  0  0  0
 22 17  2  0  0  0  0
 24 19  1  0  0  0  0
 25 20  1  0  0  0  0
 26 21  1  0  0  0  0
 27 32  1  0  0  0  0
 28 27  2  0  0  0  0
 28 29  1  0  0  0  0
 29 30  2  0  0  0  0
 30 31  1  0  0  0  0
 31 35  1  0  0  0  0
 32 31  2  0  0  0  0
 33 27  1  0  0  0  0
 34 29  1  0  0  0  0
 37 44  1  0  0  0  0
 37 36  1  0  0  0  0
 38 37  2  0  0  0  0
 39 41  2  0  0  0  0
 39 38  1  0  0  0  0
 40 39  1  0  0  0  0
 41 43  1  0  0  0  0
 42 41  1  0  0  0  0
 43 44  2  0  0  0  0
M  END
>  <minimizedAffinity>
-6.0815568

$$$$

 OpenBabel03272506133D

 44 47  0  0  1  0  0  0  0  0999 V2000
   38.5520   24.2180   33.4900 C   0  0  1  0  0  0  0  0  0  0  0  0
   38.1790   23.7530   32.0410 C   0  0  0  0  0  0  0  0  0  0  0  0
   36.8730   22.9670   32.0380 C   0  0  0  0  0  0  0  0  0  0  0  0
   36.9000   21.9260   33.0880 C   0  0  0  0  0  0  0  0  0  0  0  0
   38.2320   21.7500   33.6730 C   0  0  0  0  0  0  0  0  0  0  0  0
   38.8090   22.9620   34.2630 C   0  0  2  0  0  0  0  0  0  0  0  0
   37.6050   24.4860   33.8010 H   0  0  0  0  0  0  0  0  0  0  0  0
   38.9680   23.1090   31.6320 H   0  0  0  0  0  0  0  0  0  0  0  0
   38.0470   24.6700   31.4710 H   0  0  0  0  0  0  0  0  0  0  0  0
   36.7650   22.6110   30.9940 H   0  0  0  0  0  0  0  0  0  0  0  0
   36.0060   23.6670   32.1780 H   0  0  0  0  0  0  0  0  0  0  0  0
   36.0230   21.9100   33.7510 H   0  0  0  0  0  0  0  0  0  0  0  0
   36.7260   20.9500   32.5080 H   0  0  0  0  0  0  0  0  0  0  0  0
   38.1440   20.9880   34.4960 H   0  0  0  0  0  0  0  0  0  0  0  0
   38.8800   21.2140   32.9140 H   0  0  0  0  0  0  0  0  0  0  0  0
   39.9130   22.7610   34.0580 H   0  0  0  0  0  0  0  0  0  0  0  0
   39.5430   26.4500   33.4740 C   0  0  0  0  0  0  0  0  0  0  0  0
   40.7000   27.2430   33.4360 C   0  0  0  0  0  0  0  0  0  0  0  0
   41.9660   26.7230   33.2480 C   0  0  0  0  0  0  0  0  0  0  0  0
   42.1220   25.3390   33.0850 C   0  0  0  0  0  0  0  0  0  0  0  0
   40.9680   24.5880   33.1280 C   0  0  0  0  0  0  0  0  0  0  0  0
   39.6950   25.0830   33.3190 C   0  0  0  0  0  0  0  0  0  0  0  0
   40.6350   28.3330   33.5630 H   0  0  0  0  0  0  0  0  0  0  0  0
   42.7940   27.4310   33.2400 H   0  0  0  0  0  0  0  0  0  0  0  0
   43.1480   25.0500   32.9440 H   0  0  0  0  0  0  0  0  0  0  0  0
   41.2980   23.5760   32.9680 H   0  0  0  0  0  0  0  0  0  0  0  0
   37.7700   27.6690   32.3060 C   0  0  0  0  0  0  0  0  0  0  0  0
   38.3170   27.1740   33.5490 C   0  0  0  0  0  0  0  0  0  0  0  0
   37.5920   27.4320   34.6720 C   0  0  0  0  0  0  0  0  0  0  0  0
   36.4280   28.1110   34.5810 N   0  0  0  0  0  0  0  0  0  0  0  0
   35.9300   28.5700   33.3880 C   0  0  0  0  0  0  0  0  0  0  0  0
   36.6170   28.3440   32.2200 N   0  0  0  0  0  0  0  0  0  0  0  0
   38.2300   27.5420   31.3390 H   0  0  0  0  0  0  0  0  0  0  0  0
   37.7900   27.2570   35.6830 H   0  0  0  0  0  0  0  0  0  0  0  0
   34.9870   29.1180   33.3240 H   0  0  0  0  0  0  0  0  0  0  0  0
   40.8860   22.0170   36.0940 F   0  0  0  0  0  0  0  0  0  0  0  0
   39.8130   22.6710   36.5880 C   0  0  0  0  0  0  0  0  0  0  0  0
   38.8270   23.1110   35.7330 C   0  0  0  0  0  0  0  0  0  0  0  0
   37.8090   23.7500   36.4700 C   0  0  0  0  0  0  0  0  0  0  0  0
   36.9560   24.1500   35.8940 H   0  0  0  0  0  0  0  0  0  0  0  0
   37.7320   23.9450   37.8090 C   0  0  0  0  0  0  0  0  0  0  0  0
   36.8970   24.4530   38.2640 H   0  0  0  0  0  0  0  0  0  0  0  0
   38.7780   23.4620   38.5630 C   0  0  0  0  0  3  0  0  0  0  0  0
   39.8330   22.8170   37.9570 C   0  0  0  0  0  3  0  0  0  0  0  0
  1  7  1  1  0  0  0
  1  6  1  0  0  0  0
  2  1  1  0  0  0  0
  3  2  1  0  0  0  0
  3 11  1  0  0  0  0
  3  4  1  0  0  0  0
  4  5  1  0  0  0  0
  4 12  1  0  0  0  0
  5  6  1  0  0  0  0
  5 14  1  0  0  0  0
  6 16  1  6  0  0  0
  6 38  1  0  0  0  0
  8  2  1  0  0  0  0
  9  2  1  0  0  0  0
 10  3  1  0  0  0  0
 13  4  1  0  0  0  0
 15  5  1  0  0  0  0
 17 28  1  0  0  0  0
 18 17  1  0  0  0  0
 18 23  1  0  0  0  0
 19 18  2  0  0  0  0
 20 21  2  0  0  0  0
 20 19  1  0  0  0  0
 21 22  1  0  0  0  0
 22 17  2  0  0  0  0
 22  1  1  0  0  0  0
 24 19  1  0  0  0  0
 25 20  1  0  0  0  0
 26 21  1  0  0  0  0
 27 28  1  0  0  0  0
 28 29  2  0  0  0  0
 29 34  1  0  0  0  0
 30 29  1  0  0  0  0
 31 30  2  0  0  0  0
 32 27  2  0  0  0  0
 32 31  1  0  0  0  0
 33 27  1  0  0  0  0
 35 31  1  0  0  0  0
 36 37  1  0  0  0  0
 37 44  1  0  0  0  0
 38 39  1  0  0  0  0
 38 37  2  0  0  0  0
 39 41  2  0  0  0  0
 40 39  1  0  0  0  0
 41 42  1  0  0  0  0
 41 43  1  0  0  0  0
 44 43  2  0  0  0  0
M  END
>  <minimizedAffinity>
-5.81987429

$$$$

 OpenBabel03272506133D

 44 47  0  0  1  0  0  0  0  0999 V2000
   39.2220   25.6940   33.9360 C   0  0  1  0  0  0  0  0  0  0  0  0
   39.7250   26.8980   34.8040 C   0  0  0  0  0  0  0  0  0  0  0  0
   38.6620   27.3350   35.8030 C   0  0  0  0  0  0  0  0  0  0  0  0
   37.3580   27.4990   35.1240 C   0  0  0  0  0  0  0  0  0  0  0  0
   37.4750   27.4540   33.6640 C   0  0  0  0  0  0  0  0  0  0  0  0
   38.0770   26.2270   33.1330 C   0  0  2  0  0  0  0  0  0  0  0  0
   38.7480   25.1670   34.6860 H   0  0  0  0  0  0  0  0  0  0  0  0
   39.9670   27.7550   34.1620 H   0  0  0  0  0  0  0  0  0  0  0  0
   40.5920   26.5190   35.3430 H   0  0  0  0  0  0  0  0  0  0  0  0
   39.0850   28.2390   36.2830 H   0  0  0  0  0  0  0  0  0  0  0  0
   38.5950   26.5890   36.6410 H   0  0  0  0  0  0  0  0  0  0  0  0
   36.5140   26.9850   35.6060 H   0  0  0  0  0  0  0  0  0  0  0  0
   37.0740   28.5900   35.3410 H   0  0  0  0  0  0  0  0  0  0  0  0
   36.4360   27.5260   33.2380 H   0  0  0  0  0  0  0  0  0  0  0  0
   37.9460   28.4240   33.3200 H   0  0  0  0  0  0  0  0  0  0  0  0
   38.5930   26.6570   32.2110 H   0  0  0  0  0  0  0  0  0  0  0  0
   41.0460   24.1230   33.5230 C   0  0  0  0  0  0  0  0  0  0  0  0
   42.0730   23.6820   32.6740 C   0  0  0  0  0  0  0  0  0  0  0  0
   42.4400   24.3500   31.5220 C   0  0  0  0  0  0  0  0  0  0  0  0
   41.7660   25.5270   31.1670 C   0  0  0  0  0  0  0  0  0  0  0  0
   40.7620   25.9330   32.0190 C   0  0  0  0  0  0  0  0  0  0  0  0
   40.3750   25.2820   33.1710 C   0  0  0  0  0  0  0  0  0  0  0  0
   42.6310   22.7640   32.9040 H   0  0  0  0  0  0  0  0  0  0  0  0
   43.2490   23.9160   30.9370 H   0  0  0  0  0  0  0  0  0  0  0  0
   42.1370   25.9600   30.2560 H   0  0  0  0  0  0  0  0  0  0  0  0
   40.3910   26.8460   31.5840 H   0  0  0  0  0  0  0  0  0  0  0  0
   41.8980   23.5710   35.7490 C   0  0  0  0  0  0  0  0  0  0  0  0
   40.8950   23.3760   34.7270 C   0  0  0  0  0  0  0  0  0  0  0  0
   39.8890   22.5100   35.0270 C   0  0  0  0  0  0  0  0  0  0  0  0
   39.8670   21.8930   36.2290 N   0  0  0  0  0  0  0  0  0  0  0  0
   40.8310   22.0960   37.1830 C   0  0  0  0  0  0  0  0  0  0  0  0
   41.8740   22.9560   36.9380 N   0  0  0  0  0  0  0  0  0  0  0  0
   42.7510   24.2250   35.6570 H   0  0  0  0  0  0  0  0  0  0  0  0
   39.0970   22.1400   34.4560 H   0  0  0  0  0  0  0  0  0  0  0  0
   40.8050   21.5930   38.1520 H   0  0  0  0  0  0  0  0  0  0  0  0
   35.8340   26.7120   31.3180 F   0  0  0  0  0  0  0  0  0  0  0  0
   36.1600   25.4440   31.6470 C   0  0  0  0  0  0  0  0  0  0  0  0
   37.2080   25.2080   32.5080 C   0  0  0  0  0  0  0  0  0  0  0  0
   37.3520   23.8210   32.7140 C   0  0  0  0  0  0  0  0  0  0  0  0
   38.1650   23.5010   33.3890 H   0  0  0  0  0  0  0  0  0  0  0  0
   36.6200   22.8090   32.1880 C   0  0  0  0  0  0  0  0  0  0  0  0
   36.8260   21.7760   32.4200 H   0  0  0  0  0  0  0  0  0  0  0  0
   35.5970   23.1660   31.3380 C   0  0  0  0  0  3  0  0  0  0  0  0
   35.3550   24.4930   31.0590 C   0  0  0  0  0  3  0  0  0  0  0  0
  1  7  1  1  0  0  0
  1  2  1  0  0  0  0
  2  9  1  0  0  0  0
  2  3  1  0  0  0  0
  3 10  1  0  0  0  0
  3 11  1  0  0  0  0
  4 13  1  0  0  0  0
  4 12  1  0  0  0  0
  4  3  1  0  0  0  0
  5  4  1  0  0  0  0
  6 16  1  6  0  0  0
  6  5  1  0  0  0  0
  6  1  1  0  0  0  0
  8  2  1  0  0  0  0
 14  5  1  0  0  0  0
 15  5  1  0  0  0  0
 17 28  1  0  0  0  0
 18 23  1  0  0  0  0
 18 17  2  0  0  0  0
 19 18  1  0  0  0  0
 20 19  2  0  0  0  0
 20 21  1  0  0  0  0
 21 22  2  0  0  0  0
 22 17  1  0  0  0  0
 22  1  1  0  0  0  0
 24 19  1  0  0  0  0
 25 20  1  0  0  0  0
 26 21  1  0  0  0  0
 27 32  1  0  0  0  0
 28 29  1  0  0  0  0
 28 27  2  0  0  0  0
 29 30  2  0  0  0  0
 30 31  1  0  0  0  0
 31 35  1  0  0  0  0
 32 31  2  0  0  0  0
 33 27  1  0  0  0  0
 34 29  1  0  0  0  0
 36 37  1  0  0  0  0
 37 38  1  0  0  0  0
 38 39  2  0  0  0  0
 38  6  1  0  0  0  0
 39 40  1  0  0  0  0
 41 42  1  0  0  0  0
 41 39  1  0  0  0  0
 43 41  2  0  0  0  0
 44 43  1  0  0  0  0
 44 37  2  0  0  0  0
M  END
>  <minimizedAffinity>
-5.73440504

$$$$

 OpenBabel03272506133D

 44 47  0  0  1  0  0  0  0  0999 V2000
   39.6980   24.0300   34.8450 C   0  0  1  0  0  0  0  0  0  0  0  0
   41.1320   24.4130   35.3470 C   0  0  0  0  0  0  0  0  0  0  0  0
   42.0620   23.2060   35.3220 C   0  0  0  0  0  0  0  0  0  0  0  0
   41.4140   22.0470   35.9730 C   0  0  0  0  0  0  0  0  0  0  0  0
   40.1860   22.4150   36.6840 C   0  0  0  0  0  0  0  0  0  0  0  0
   39.1650   23.0600   35.8520 C   0  0  2  0  0  0  0  0  0  0  0  0
   39.9810   23.4150   34.0650 H   0  0  0  0  0  0  0  0  0  0  0  0
   41.0870   24.7910   36.3770 H   0  0  0  0  0  0  0  0  0  0  0  0
   41.4930   25.1590   34.6410 H   0  0  0  0  0  0  0  0  0  0  0  0
   43.0020   23.5690   35.7840 H   0  0  0  0  0  0  0  0  0  0  0  0
   42.3540   22.9700   34.2620 H   0  0  0  0  0  0  0  0  0  0  0  0
   41.4310   21.1150   35.3890 H   0  0  0  0  0  0  0  0  0  0  0  0
   42.1420   21.7660   36.8150 H   0  0  0  0  0  0  0  0  0  0  0  0
   39.7340   21.4690   37.0930 H   0  0  0  0  0  0  0  0  0  0  0  0
   40.4790   22.9710   37.6250 H   0  0  0  0  0  0  0  0  0  0  0  0
   38.6920   23.7430   36.6350 H   0  0  0  0  0  0  0  0  0  0  0  0
   38.3760   25.6370   33.5670 C   0  0  0  0  0  0  0  0  0  0  0  0
   37.5820   26.7930   33.5620 C   0  0  0  0  0  0  0  0  0  0  0  0
   37.3930   27.5850   34.6780 C   0  0  0  0  0  0  0  0  0  0  0  0
   38.0160   27.2320   35.8830 C   0  0  0  0  0  0  0  0  0  0  0  0
   38.7880   26.0910   35.8560 C   0  0  0  0  0  0  0  0  0  0  0  0
   38.9880   25.2830   34.7580 C   0  0  0  0  0  0  0  0  0  0  0  0
   37.0670   27.1140   32.6450 H   0  0  0  0  0  0  0  0  0  0  0  0
   36.7520   28.4580   34.5610 H   0  0  0  0  0  0  0  0  0  0  0  0
   37.8000   27.9200   36.6800 H   0  0  0  0  0  0  0  0  0  0  0  0
   39.1830   26.0090   36.8550 H   0  0  0  0  0  0  0  0  0  0  0  0
   37.3920   24.4180   31.6860 C   0  0  0  0  0  0  0  0  0  0  0  0
   38.5560   25.0220   32.2940 C   0  0  0  0  0  0  0  0  0  0  0  0
   39.7110   24.9630   31.5750 C   0  0  0  0  0  0  0  0  0  0  0  0
   39.7200   24.3670   30.3630 N   0  0  0  0  0  0  0  0  0  0  0  0
   38.6010   23.8010   29.8080 C   0  0  0  0  0  0  0  0  0  0  0  0
   37.4060   23.8260   30.4860 N   0  0  0  0  0  0  0  0  0  0  0  0
   36.4110   24.3880   32.1340 H   0  0  0  0  0  0  0  0  0  0  0  0
   40.6890   25.2490   31.8060 H   0  0  0  0  0  0  0  0  0  0  0  0
   38.6180   23.3210   28.8260 H   0  0  0  0  0  0  0  0  0  0  0  0
   36.8810   22.2840   37.5090 F   0  0  0  0  0  0  0  0  0  0  0  0
   36.9090   21.9270   36.2080 C   0  0  0  0  0  0  0  0  0  0  0  0
   37.9850   22.2800   35.4240 C   0  0  0  0  0  0  0  0  0  0  0  0
   37.8000   21.7910   34.1140 C   0  0  0  0  0  0  0  0  0  0  0  0
   38.6000   22.0110   33.3860 H   0  0  0  0  0  0  0  0  0  0  0  0
   36.7610   21.0770   33.6190 C   0  0  0  0  0  0  0  0  0  0  0  0
   36.7290   20.7560   32.5900 H   0  0  0  0  0  0  0  0  0  0  0  0
   35.7410   20.7840   34.4970 C   0  0  0  0  0  3  0  0  0  0  0  0
   35.8060   21.2070   35.8050 C   0  0  0  0  0  3  0  0  0  0  0  0
  1  7  1  6  0  0  0
  1  2  1  0  0  0  0
  1  6  1  0  0  0  0
  2  8  1  0  0  0  0
  3  2  1  0  0  0  0
  3 10  1  0  0  0  0
  3  4  1  0  0  0  0
  4  5  1  0  0  0  0
  4 13  1  0  0  0  0
  5 14  1  0  0  0  0
  5 15  1  0  0  0  0
  6 16  1  1  0  0  0
  6  5  1  0  0  0  0
  9  2  1  0  0  0  0
 11  3  1  0  0  0  0
 12  4  1  0  0  0  0
 17 22  1  0  0  0  0
 18 17  2  0  0  0  0
 18 19  1  0  0  0  0
 19 20  2  0  0  0  0
 20 25  1  0  0  0  0
 21 20  1  0  0  0  0
 21 26  1  0  0  0  0
 22  1  1  0  0  0  0
 22 21  2  0  0  0  0
 23 18  1  0  0  0  0
 24 19  1  0  0  0  0
 27 33  1  0  0  0  0
 27 28  1  0  0  0  0
 28 17  1  0  0  0  0
 29 34  1  0  0  0  0
 29 28  2  0  0  0  0
 30 29  1  0  0  0  0
 31 30  2  0  0  0  0
 31 32  1  0  0  0  0
 32 27  2  0  0  0  0
 35 31  1  0  0  0  0
 37 36  1  0  0  0  0
 38  6  1  0  0  0  0
 38 37  2  0  0  0  0
 39 38  1  0  0  0  0
 40 39  1  0  0  0  0
 41 39  2  0  0  0  0
 41 43  1  0  0  0  0
 42 41  1  0  0  0  0
 43 44  2  0  0  0  0
 44 37  1  0  0  0  0
M  END
>  <minimizedAffinity>
-5.73170567

$$$$

 OpenBabel03272506133D

 44 47  0  0  1  0  0  0  0  0999 V2000
   32.9380   31.4380   35.7710 C   0  0  1  0  0  0  0  0  0  0  0  0
   32.5960   32.0560   37.1700 C   0  0  0  0  0  0  0  0  0  0  0  0
   33.2320   33.4310   37.3330 C   0  0  0  0  0  0  0  0  0  0  0  0
   34.6610   33.3800   36.9560 C   0  0  0  0  0  0  0  0  0  0  0  0
   35.1490   32.0090   36.7770 C   0  0  0  0  0  0  0  0  0  0  0  0
   34.4190   31.2240   35.7770 C   0  0  2  0  0  0  0  0  0  0  0  0
   32.8350   32.2980   35.2080 H   0  0  0  0  0  0  0  0  0  0  0  0
   32.9670   31.4080   37.9740 H   0  0  0  0  0  0  0  0  0  0  0  0
   31.5120   32.1580   37.1800 H   0  0  0  0  0  0  0  0  0  0  0  0
   33.0080   33.7200   38.3790 H   0  0  0  0  0  0  0  0  0  0  0  0
   32.6730   34.1860   36.7160 H   0  0  0  0  0  0  0  0  0  0  0  0
   34.9840   34.1550   36.2460 H   0  0  0  0  0  0  0  0  0  0  0  0
   35.2050   33.7410   37.9010 H   0  0  0  0  0  0  0  0  0  0  0  0
   36.2190   32.0710   36.4370 H   0  0  0  0  0  0  0  0  0  0  0  0
   35.2460   31.5360   37.8010 H   0  0  0  0  0  0  0  0  0  0  0  0
   34.5220   30.1880   36.2430 H   0  0  0  0  0  0  0  0  0  0  0  0
   31.5170   29.9150   34.4960 C   0  0  0  0  0  0  0  0  0  0  0  0
   30.8660   28.6750   34.4170 C   0  0  0  0  0  0  0  0  0  0  0  0
   30.8170   27.7790   35.4670 C   0  0  0  0  0  0  0  0  0  0  0  0
   31.4420   28.1070   36.6790 C   0  0  0  0  0  0  0  0  0  0  0  0
   32.0730   29.3300   36.7250 C   0  0  0  0  0  0  0  0  0  0  0  0
   32.1390   30.2390   35.6900 C   0  0  0  0  0  0  0  0  0  0  0  0
   30.3630   28.3660   33.4900 H   0  0  0  0  0  0  0  0  0  0  0  0
   30.2870   26.8430   35.2930 H   0  0  0  0  0  0  0  0  0  0  0  0
   31.3370   27.3370   37.4220 H   0  0  0  0  0  0  0  0  0  0  0  0
   32.4650   29.3950   37.7260 H   0  0  0  0  0  0  0  0  0  0  0  0
   32.2670   30.5590   32.2580 C   0  0  0  0  0  0  0  0  0  0  0  0
   31.3520   30.7570   33.3580 C   0  0  0  0  0  0  0  0  0  0  0  0
   30.4050   31.7200   33.1890 C   0  0  0  0  0  0  0  0  0  0  0  0
   30.3570   32.4220   32.0370 N   0  0  0  0  0  0  0  0  0  0  0  0
   31.2370   32.2140   31.0060 C   0  0  0  0  0  0  0  0  0  0  0  0
   32.2180   31.2590   31.1180 N   0  0  0  0  0  0  0  0  0  0  0  0
   33.0670   29.8350   32.2460 H   0  0  0  0  0  0  0  0  0  0  0  0
   29.6840   32.1080   33.8390 H   0  0  0  0  0  0  0  0  0  0  0  0
   31.1910   32.7880   30.0770 H   0  0  0  0  0  0  0  0  0  0  0  0
   35.0770   28.6340   34.5860 F   0  0  0  0  0  0  0  0  0  0  0  0
   35.3320   29.7660   33.8960 C   0  0  0  0  0  0  0  0  0  0  0  0
   35.0340   30.9890   34.4540 C   0  0  0  0  0  0  0  0  0  0  0  0
   35.3970   32.0200   33.5630 C   0  0  0  0  0  0  0  0  0  0  0  0
   35.2060   33.0540   33.8980 H   0  0  0  0  0  0  0  0  0  0  0  0
   35.9570   31.9140   32.3340 C   0  0  0  0  0  0  0  0  0  0  0  0
   36.1920   32.7820   31.7380 H   0  0  0  0  0  0  0  0  0  0  0  0
   36.2090   30.6390   31.8790 C   0  0  0  0  0  3  0  0  0  0  0  0
   35.8990   29.5480   32.6600 C   0  0  0  0  0  3  0  0  0  0  0  0
  1  7  1  6  0  0  0
  1  6  1  0  0  0  0
  1  2  1  0  0  0  0
  2  9  1  0  0  0  0
  2  3  1  0  0  0  0
  2  8  1  0  0  0  0
  3 10  1  0  0  0  0
  4  3  1  0  0  0  0
  4 13  1  0  0  0  0
  5  4  1  0  0  0  0
  5 15  1  0  0  0  0
  6 16  1  1  0  0  0
  6  5  1  0  0  0  0
 11  3  1  0  0  0  0
 12  4  1  0  0  0  0
 14  5  1  0  0  0  0
 17 22  1  0  0  0  0
 18 17  2  0  0  0  0
 18 19  1  0  0  0  0
 19 20  2  0  0  0  0
 20 21  1  0  0  0  0
 20 25  1  0  0  0  0
 21 26  1  0  0  0  0
 22  1  1  0  0  0  0
 22 21  2  0  0  0  0
 23 18  1  0  0  0  0
 24 19  1  0  0  0  0
 27 28  1  0  0  0  0
 28 17  1  0  0  0  0
 29 28  2  0  0  0  0
 29 34  1  0  0  0  0
 30 29  1  0  0  0  0
 31 32  1  0  0  0  0
 31 30  2  0  0  0  0
 32 27  2  0  0  0  0
 33 27  1  0  0  0  0
 35 31  1  0  0  0  0
 37 38  1  0  0  0  0
 37 36  1  0  0  0  0
 38  6  1  0  0  0  0
 39 40  1  0  0  0  0
 39 38  2  0  0  0  0
 41 39  1  0  0  0  0
 42 41  1  0  0  0  0
 43 41  2  0  0  0  0
 43 44  1  0  0  0  0
 44 37  2  0  0  0  0
M  END
>  <minimizedAffinity>
-5.67383194

$$$$

 OpenBabel03272506133D

 44 47  0  0  1  0  0  0  0  0999 V2000
   38.1980   26.4210   34.3600 C   0  0  1  0  0  0  0  0  0  0  0  0
   38.0920   27.8440   35.0080 C   0  0  0  0  0  0  0  0  0  0  0  0
   36.6700   28.3850   34.9130 C   0  0  0  0  0  0  0  0  0  0  0  0
   36.1580   28.2380   33.5330 C   0  0  0  0  0  0  0  0  0  0  0  0
   37.2070   27.8620   32.5800 C   0  0  0  0  0  0  0  0  0  0  0  0
   37.9130   26.6190   32.9040 C   0  0  2  0  0  0  0  0  0  0  0  0
   37.3070   26.0370   34.7150 H   0  0  0  0  0  0  0  0  0  0  0  0
   38.7610   28.5470   34.4950 H   0  0  0  0  0  0  0  0  0  0  0  0
   38.3530   27.7020   36.0550 H   0  0  0  0  0  0  0  0  0  0  0  0
   36.7380   29.4180   35.3060 H   0  0  0  0  0  0  0  0  0  0  0  0
   36.0100   27.8560   35.6520 H   0  0  0  0  0  0  0  0  0  0  0  0
   35.1700   27.7630   33.4500 H   0  0  0  0  0  0  0  0  0  0  0  0
   35.8860   29.3120   33.2280 H   0  0  0  0  0  0  0  0  0  0  0  0
   36.7190   27.7160   31.5770 H   0  0  0  0  0  0  0  0  0  0  0  0
   37.8610   28.7690   32.4020 H   0  0  0  0  0  0  0  0  0  0  0  0
   38.9410   26.8730   32.4790 H   0  0  0  0  0  0  0  0  0  0  0  0
   39.7260   24.6680   35.1060 C   0  0  0  0  0  0  0  0  0  0  0  0
   41.0470   24.2260   35.2680 C   0  0  0  0  0  0  0  0  0  0  0  0
   42.1470   25.0260   35.0230 C   0  0  0  0  0  0  0  0  0  0  0  0
   41.9530   26.3450   34.5910 C   0  0  0  0  0  0  0  0  0  0  0  0
   40.6440   26.7490   34.4410 C   0  0  0  0  0  0  0  0  0  0  0  0
   39.5320   25.9690   34.6740 C   0  0  0  0  0  0  0  0  0  0  0  0
   41.2560   23.1990   35.6000 H   0  0  0  0  0  0  0  0  0  0  0  0
   43.1270   24.5770   35.1780 H   0  0  0  0  0  0  0  0  0  0  0  0
   42.8770   26.8720   34.4350 H   0  0  0  0  0  0  0  0  0  0  0  0
   40.7130   27.7770   34.1260 H   0  0  0  0  0  0  0  0  0  0  0  0
   38.3390   22.7190   34.5860 C   0  0  0  0  0  0  0  0  0  0  0  0
   38.7240   23.7450   35.5280 C   0  0  0  0  0  0  0  0  0  0  0  0
   38.1050   23.7160   36.7390 C   0  0  0  0  0  0  0  0  0  0  0  0
   37.1900   22.7580   37.0050 N   0  0  0  0  0  0  0  0  0  0  0  0
   36.8420   21.7940   36.0940 C   0  0  0  0  0  0  0  0  0  0  0  0
   37.4300   21.7730   34.8530 N   0  0  0  0  0  0  0  0  0  0  0  0
   38.7420   22.6150   33.5920 H   0  0  0  0  0  0  0  0  0  0  0  0
   38.1410   24.3670   37.5560 H   0  0  0  0  0  0  0  0  0  0  0  0
   36.1010   21.0230   36.3180 H   0  0  0  0  0  0  0  0  0  0  0  0
   39.8130   24.9040   31.4850 F   0  0  0  0  0  0  0  0  0  0  0  0
   38.5010   24.5840   31.4860 C   0  0  0  0  0  0  0  0  0  0  0  0
   37.6000   25.3910   32.1440 C   0  0  0  0  0  0  0  0  0  0  0  0
   36.2990   24.8690   31.9970 C   0  0  0  0  0  0  0  0  0  0  0  0
   35.4820   25.4300   32.4840 H   0  0  0  0  0  0  0  0  0  0  0  0
   35.9060   23.7560   31.3320 C   0  0  0  0  0  0  0  0  0  0  0  0
   34.8720   23.4520   31.2890 H   0  0  0  0  0  0  0  0  0  0  0  0
   36.8970   23.0260   30.7130 C   0  0  0  0  0  3  0  0  0  0  0  0
   38.2100   23.4360   30.7830 C   0  0  0  0  0  3  0  0  0  0  0  0
  1 22  1  0  0  0  0
  1  7  1  1  0  0  0
  1  2  1  0  0  0  0
  2  9  1  0  0  0  0
  3  2  1  0  0  0  0
  3 10  1  0  0  0  0
  3 11  1  0  0  0  0
  4  3  1  0  0  0  0
  5  6  1  0  0  0  0
  5  4  1  0  0  0  0
  6 16  1  6  0  0  0
  6  1  1  0  0  0  0
  8  2  1  0  0  0  0
 12  4  1  0  0  0  0
 13  4  1  0  0  0  0
 14  5  1  0  0  0  0
 15  5  1  0  0  0  0
 17 18  1  0  0  0  0
 17 28  1  0  0  0  0
 18 23  1  0  0  0  0
 19 24  1  0  0  0  0
 19 18  2  0  0  0  0
 20 19  1  0  0  0  0
 21 20  2  0  0  0  0
 21 22  1  0  0  0  0
 22 17  2  0  0  0  0
 25 20  1  0  0  0  0
 26 21  1  0  0  0  0
 27 32  2  0  0  0  0
 27 28  1  0  0  0  0
 28 29  2  0  0  0  0
 29 30  1  0  0  0  0
 29 34  1  0  0  0  0
 31 35  1  0  0  0  0
 31 30  2  0  0  0  0
 32 31  1  0  0  0  0
 33 27  1  0  0  0  0
 36 37  1  0  0  0  0
 37 38  1  0  0  0  0
 38  6  1  0  0  0  0
 39 38  2  0  0  0  0
 39 40  1  0  0  0  0
 41 39  1  0  0  0  0
 42 41  1  0  0  0  0
 43 44  1  0  0  0  0
 43 41  2  0  0  0  0
 44 37  2  0  0  0  0
M  END
>  <minimizedAffinity>
-5.65839481

$$$$

 OpenBabel03272506133D

 44 47  0  0  1  0  0  0  0  0999 V2000
   38.5360   23.2130   32.1520 C   0  0  1  0  0  0  0  0  0  0  0  0
   39.4740   23.0660   30.9050 C   0  0  0  0  0  0  0  0  0  0  0  0
   40.7100   22.2420   31.2440 C   0  0  0  0  0  0  0  0  0  0  0  0
   41.3300   22.7390   32.4910 C   0  0  0  0  0  0  0  0  0  0  0  0
   40.7660   24.0200   32.9290 C   0  0  0  0  0  0  0  0  0  0  0  0
   39.3170   24.0080   33.1510 C   0  0  2  0  0  0  0  0  0  0  0  0
   38.6240   22.2490   32.5100 H   0  0  0  0  0  0  0  0  0  0  0  0
   39.8030   24.0530   30.5570 H   0  0  0  0  0  0  0  0  0  0  0  0
   38.8810   22.5340   30.1620 H   0  0  0  0  0  0  0  0  0  0  0  0
   41.3350   22.2890   30.3300 H   0  0  0  0  0  0  0  0  0  0  0  0
   40.4340   21.1560   31.3290 H   0  0  0  0  0  0  0  0  0  0  0  0
   41.5440   21.9680   33.2450 H   0  0  0  0  0  0  0  0  0  0  0  0
   42.4010   23.0080   32.1750 H   0  0  0  0  0  0  0  0  0  0  0  0
   41.2510   24.2880   33.9070 H   0  0  0  0  0  0  0  0  0  0  0  0
   41.1530   24.8280   32.2360 H   0  0  0  0  0  0  0  0  0  0  0  0
   39.0760   25.0850   32.8600 H   0  0  0  0  0  0  0  0  0  0  0  0
   36.1550   23.1460   31.6120 C   0  0  0  0  0  0  0  0  0  0  0  0
   34.9950   23.8430   31.2450 C   0  0  0  0  0  0  0  0  0  0  0  0
   34.9910   25.1850   30.9170 C   0  0  0  0  0  0  0  0  0  0  0  0
   36.1950   25.9020   30.9460 C   0  0  0  0  0  0  0  0  0  0  0  0
   37.3170   25.1900   31.3110 C   0  0  0  0  0  0  0  0  0  0  0  0
   37.3450   23.8530   31.6470 C   0  0  0  0  0  0  0  0  0  0  0  0
   34.0230   23.3300   31.2090 H   0  0  0  0  0  0  0  0  0  0  0  0
   34.0300   25.6250   30.6510 H   0  0  0  0  0  0  0  0  0  0  0  0
   36.0720   26.9340   30.6720 H   0  0  0  0  0  0  0  0  0  0  0  0
   38.1210   25.9050   31.2550 H   0  0  0  0  0  0  0  0  0  0  0  0
   35.6820   21.2830   33.1260 C   0  0  0  0  0  0  0  0  0  0  0  0
   35.9860   21.7420   31.7900 C   0  0  0  0  0  0  0  0  0  0  0  0
   36.0590   20.7850   30.8250 C   0  0  0  0  0  0  0  0  0  0  0  0
   35.8460   19.4900   31.1440 N   0  0  0  0  0  0  0  0  0  0  0  0
   35.5580   19.0790   32.4200 C   0  0  0  0  0  0  0  0  0  0  0  0
   35.4740   19.9970   33.4380 N   0  0  0  0  0  0  0  0  0  0  0  0
   35.5910   21.9220   33.9900 H   0  0  0  0  0  0  0  0  0  0  0  0
   36.3290   20.8330   29.8170 H   0  0  0  0  0  0  0  0  0  0  0  0
   35.3880   18.0290   32.6680 H   0  0  0  0  0  0  0  0  0  0  0  0
   38.5820   21.6340   34.6940 F   0  0  0  0  0  0  0  0  0  0  0  0
   38.4640   22.8540   35.2580 C   0  0  0  0  0  0  0  0  0  0  0  0
   38.7990   23.9770   34.5350 C   0  0  0  0  0  0  0  0  0  0  0  0
   38.5830   25.1300   35.3180 C   0  0  0  0  0  0  0  0  0  0  0  0
   38.8170   26.1000   34.8470 H   0  0  0  0  0  0  0  0  0  0  0  0
   38.1220   25.2120   36.5890 C   0  0  0  0  0  0  0  0  0  0  0  0
   37.9980   26.1580   37.0910 H   0  0  0  0  0  0  0  0  0  0  0  0
   37.8200   24.0210   37.2130 C   0  0  0  0  0  3  0  0  0  0  0  0
   37.9890   22.8260   36.5500 C   0  0  0  0  0  3  0  0  0  0  0  0
  1  7  1  1  0  0  0
  1  6  1  0  0  0  0
  2  3  1  0  0  0  0
  2  1  1  0  0  0  0
  3 11  1  0  0  0  0
  3  4  1  0  0  0  0
  4  5  1  0  0  0  0
  4 12  1  0  0  0  0
  5  6  1  0  0  0  0
  5 14  1  0  0  0  0
  6 16  1  6  0  0  0
  6 38  1  0  0  0  0
  8  2  1  0  0  0  0
  9  2  1  0  0  0  0
 10  3  1  0  0  0  0
 13  4  1  0  0  0  0
 15  5  1  0  0  0  0
 17 22  1  0  0  0  0
 17 28  1  0  0  0  0
 18 17  2  0  0  0  0
 19 20  2  0  0  0  0
 19 18  1  0  0  0  0
 20 21  1  0  0  0  0
 21 22  2  0  0  0  0
 22  1  1  0  0  0  0
 23 18  1  0  0  0  0
 24 19  1  0  0  0  0
 25 20  1  0  0  0  0
 26 21  1  0  0  0  0
 27 32  1  0  0  0  0
 27 33  1  0  0  0  0
 28 27  2  0  0  0  0
 29 30  2  0  0  0  0
 29 28  1  0  0  0  0
 30 31  1  0  0  0  0
 31 35  1  0  0  0  0
 31 32  2  0  0  0  0
 34 29  1  0  0  0  0
 36 37  1  0  0  0  0
 37 44  1  0  0  0  0
 38 37  2  0  0  0  0
 38 39  1  0  0  0  0
 39 41  2  0  0  0  0
 40 39  1  0  0  0  0
 41 42  1  0  0  0  0
 41 43  1  0  0  0  0
 44 43  2  0  0  0  0
M  END
>  <minimizedAffinity>
-5.5956769

$$$$

 OpenBabel03272506133D

 44 47  0  0  1  0  0  0  0  0999 V2000
   38.3300   26.3970   32.9170 C   0  0  1  0  0  0  0  0  0  0  0  0
   38.3720   26.0280   34.4400 C   0  0  0  0  0  0  0  0  0  0  0  0
   39.3710   26.9010   35.1890 C   0  0  0  0  0  0  0  0  0  0  0  0
   40.6650   26.9270   34.4720 C   0  0  0  0  0  0  0  0  0  0  0  0
   40.7340   25.9310   33.3990 C   0  0  0  0  0  0  0  0  0  0  0  0
   39.6840   26.0490   32.3820 C   0  0  2  0  0  0  0  0  0  0  0  0
   38.3830   27.4230   33.0190 H   0  0  0  0  0  0  0  0  0  0  0  0
   38.6670   24.9790   34.5700 H   0  0  0  0  0  0  0  0  0  0  0  0
   37.3680   26.2310   34.8110 H   0  0  0  0  0  0  0  0  0  0  0  0
   39.3850   26.4890   36.2170 H   0  0  0  0  0  0  0  0  0  0  0  0
   38.9530   27.9370   35.3160 H   0  0  0  0  0  0  0  0  0  0  0  0
   41.0780   27.9300   34.2930 H   0  0  0  0  0  0  0  0  0  0  0  0
   41.4150   26.5410   35.2510 H   0  0  0  0  0  0  0  0  0  0  0  0
   41.7210   26.0640   32.8760 H   0  0  0  0  0  0  0  0  0  0  0  0
   40.8470   24.9110   33.8750 H   0  0  0  0  0  0  0  0  0  0  0  0
   39.5710   24.9490   32.1040 H   0  0  0  0  0  0  0  0  0  0  0  0
   36.2780   26.2550   31.6020 C   0  0  0  0  0  0  0  0  0  0  0  0
   35.3090   25.4500   30.9840 C   0  0  0  0  0  0  0  0  0  0  0  0
   35.2700   24.0760   31.1200 C   0  0  0  0  0  0  0  0  0  0  0  0
   36.2360   23.4370   31.9110 C   0  0  0  0  0  0  0  0  0  0  0  0
   37.1730   24.2540   32.5030 C   0  0  0  0  0  0  0  0  0  0  0  0
   37.2360   25.6260   32.3790 C   0  0  0  0  0  0  0  0  0  0  0  0
   34.5310   25.8990   30.3500 H   0  0  0  0  0  0  0  0  0  0  0  0
   34.4750   23.5500   30.5920 H   0  0  0  0  0  0  0  0  0  0  0  0
   36.1050   22.3710   31.9460 H   0  0  0  0  0  0  0  0  0  0  0  0
   37.7980   23.5830   33.0680 H   0  0  0  0  0  0  0  0  0  0  0  0
   36.7260   28.2920   30.3230 C   0  0  0  0  0  0  0  0  0  0  0  0
   36.0830   27.6590   31.4500 C   0  0  0  0  0  0  0  0  0  0  0  0
   35.3310   28.4660   32.2480 C   0  0  0  0  0  0  0  0  0  0  0  0
   35.2180   29.7810   31.9590 N   0  0  0  0  0  0  0  0  0  0  0  0
   35.8390   30.3590   30.8820 C   0  0  0  0  0  0  0  0  0  0  0  0
   36.6140   29.5970   30.0420 N   0  0  0  0  0  0  0  0  0  0  0  0
   37.3510   27.7840   29.6050 H   0  0  0  0  0  0  0  0  0  0  0  0
   34.8310   28.2850   33.1470 H   0  0  0  0  0  0  0  0  0  0  0  0
   35.7410   31.4240   30.6570 H   0  0  0  0  0  0  0  0  0  0  0  0
   38.9870   24.9570   29.7590 F   0  0  0  0  0  0  0  0  0  0  0  0
   39.6770   26.1150   29.8340 C   0  0  0  0  0  0  0  0  0  0  0  0
   40.0170   26.6300   31.0650 C   0  0  0  0  0  0  0  0  0  0  0  0
   40.7400   27.8290   30.8950 C   0  0  0  0  0  0  0  0  0  0  0  0
   41.0710   28.3420   31.8150 H   0  0  0  0  0  0  0  0  0  0  0  0
   41.0900   28.4470   29.7420 C   0  0  0  0  0  0  0  0  0  0  0  0
   41.6490   29.3690   29.7360 H   0  0  0  0  0  0  0  0  0  0  0  0
   40.6940   27.8390   28.5710 C   0  0  0  0  0  3  0  0  0  0  0  0
   39.9810   26.6610   28.6070 C   0  0  0  0  0  3  0  0  0  0  0  0
  1  7  1  6  0  0  0
  1  2  1  0  0  0  0
  2  8  1  0  0  0  0
  2  9  1  0  0  0  0
  2  3  1  0  0  0  0
  3 11  1  0  0  0  0
  3 10  1  0  0  0  0
  4  3  1  0  0  0  0
  4 13  1  0  0  0  0
  5 15  1  0  0  0  0
  5  4  1  0  0  0  0
  6 16  1  6  0  0  0
  6  1  1  0  0  0  0
  6  5  1  0  0  0  0
 12  4  1  0  0  0  0
 14  5  1  0  0  0  0
 17 22  1  0  0  0  0
 18 19  1  0  0  0  0
 18 17  2  0  0  0  0
 19 20  2  0  0  0  0
 20 25  1  0  0  0  0
 20 21  1  0  0  0  0
 21 26  1  0  0  0  0
 22 21  2  0  0  0  0
 22  1  1  0  0  0  0
 23 18  1  0  0  0  0
 24 19  1  0  0  0  0
 27 28  1  0  0  0  0
 28 17  1  0  0  0  0
 28 29  2  0  0  0  0
 29 34  1  0  0  0  0
 30 29  1  0  0  0  0
 31 30  2  0  0  0  0
 32 27  2  0  0  0  0
 32 31  1  0  0  0  0
 33 27  1  0  0  0  0
 35 31  1  0  0  0  0
 36 37  1  0  0  0  0
 37 38  1  0  0  0  0
 38  6  1  0  0  0  0
 39 38  2  0  0  0  0
 39 40  1  0  0  0  0
 41 39  1  0  0  0  0
 42 41  1  0  0  0  0
 43 44  1  0  0  0  0
 43 41  2  0  0  0  0
 44 37  2  0  0  0  0
M  END
>  <minimizedAffinity>
-5.50914907

$$$$

 OpenBabel03272506133D

 44 47  0  0  1  0  0  0  0  0999 V2000
   38.5360   23.8070   31.6280 C   0  0  1  0  0  0  0  0  0  0  0  0
   38.6090   23.5390   30.0860 C   0  0  0  0  0  0  0  0  0  0  0  0
   39.7010   24.3780   29.4340 C   0  0  0  0  0  0  0  0  0  0  0  0
   39.5860   25.7890   29.8630 C   0  0  0  0  0  0  0  0  0  0  0  0
   38.3340   26.0610   30.5760 C   0  0  0  0  0  0  0  0  0  0  0  0
   38.1160   25.2370   31.7690 C   0  0  2  0  0  0  0  0  0  0  0  0
   39.5510   23.8500   31.8120 H   0  0  0  0  0  0  0  0  0  0  0  0
   37.6520   23.7910   29.6090 H   0  0  0  0  0  0  0  0  0  0  0  0
   38.8610   22.4840   29.9900 H   0  0  0  0  0  0  0  0  0  0  0  0
   39.5930   24.1820   28.3490 H   0  0  0  0  0  0  0  0  0  0  0  0
   40.7110   23.9550   29.6880 H   0  0  0  0  0  0  0  0  0  0  0  0
   40.5170   26.2410   30.2340 H   0  0  0  0  0  0  0  0  0  0  0  0
   39.4680   26.3650   28.8760 H   0  0  0  0  0  0  0  0  0  0  0  0
   38.3610   27.1340   30.9130 H   0  0  0  0  0  0  0  0  0  0  0  0
   37.4930   26.0650   29.8180 H   0  0  0  0  0  0  0  0  0  0  0  0
   36.9770   25.1690   31.7410 H   0  0  0  0  0  0  0  0  0  0  0  0
   37.7550   22.3310   33.4090 C   0  0  0  0  0  0  0  0  0  0  0  0
   36.7460   21.4940   33.9100 C   0  0  0  0  0  0  0  0  0  0  0  0
   35.6190   21.1530   33.1870 C   0  0  0  0  0  0  0  0  0  0  0  0
   35.4590   21.6570   31.8890 C   0  0  0  0  0  0  0  0  0  0  0  0
   36.4650   22.4760   31.4260 C   0  0  0  0  0  0  0  0  0  0  0  0
   37.5960   22.8340   32.1290 C   0  0  0  0  0  0  0  0  0  0  0  0
   36.8200   21.0750   34.9240 H   0  0  0  0  0  0  0  0  0  0  0  0
   34.8990   20.4990   33.6770 H   0  0  0  0  0  0  0  0  0  0  0  0
   34.5490   21.3240   31.4230 H   0  0  0  0  0  0  0  0  0  0  0  0
   36.1640   22.7350   30.4250 H   0  0  0  0  0  0  0  0  0  0  0  0
   38.6980   23.0900   35.5370 C   0  0  0  0  0  0  0  0  0  0  0  0
   38.8990   22.4660   34.2490 C   0  0  0  0  0  0  0  0  0  0  0  0
   40.1650   22.0490   33.9720 C   0  0  0  0  0  0  0  0  0  0  0  0
   41.1460   22.2230   34.8840 N   0  0  0  0  0  0  0  0  0  0  0  0
   40.9280   22.8170   36.1010 C   0  0  0  0  0  0  0  0  0  0  0  0
   39.6740   23.2630   36.4370 N   0  0  0  0  0  0  0  0  0  0  0  0
   37.7540   23.4690   35.8950 H   0  0  0  0  0  0  0  0  0  0  0  0
   40.5900   21.6440   33.1080 H   0  0  0  0  0  0  0  0  0  0  0  0
   41.7290   22.9540   36.8320 H   0  0  0  0  0  0  0  0  0  0  0  0
   40.6800   25.8300   33.0470 F   0  0  0  0  0  0  0  0  0  0  0  0
   39.5320   26.1170   33.6970 C   0  0  0  0  0  0  0  0  0  0  0  0
   38.3210   25.8320   33.1050 C   0  0  0  0  0  0  0  0  0  0  0  0
   37.2710   26.2040   33.9690 C   0  0  0  0  0  0  0  0  0  0  0  0
   36.2440   26.0250   33.6060 H   0  0  0  0  0  0  0  0  0  0  0  0
   37.3490   26.7600   35.2020 C   0  0  0  0  0  0  0  0  0  0  0  0
   36.4680   27.0040   35.7740 H   0  0  0  0  0  0  0  0  0  0  0  0
   38.6140   27.0010   35.6910 C   0  0  0  0  0  3  0  0  0  0  0  0
   39.7220   26.6790   34.9400 C   0  0  0  0  0  3  0  0  0  0  0  0
  1  6  1  0  0  0  0
  1  7  1  1  0  0  0
  1 22  1  0  0  0  0
  2  1  1  0  0  0  0
  3 11  1  0  0  0  0
  3  4  1  0  0  0  0
  3  2  1  0  0  0  0
  4 12  1  0  0  0  0
  4  5  1  0  0  0  0
  5 14  1  0  0  0  0
  5  6  1  0  0  0  0
  6 16  1  6  0  0  0
  6 38  1  0  0  0  0
  8  2  1  0  0  0  0
  9  2  1  0  0  0  0
 10  3  1  0  0  0  0
 13  4  1  0  0  0  0
 15  5  1  0  0  0  0
 17 18  1  0  0  0  0
 17 28  1  0  0  0  0
 18 23  1  0  0  0  0
 19 24  1  0  0  0  0
 19 18  2  0  0  0  0
 20 19  1  0  0  0  0
 21 20  2  0  0  0  0
 21 22  1  0  0  0  0
 22 17  2  0  0  0  0
 25 20  1  0  0  0  0
 26 21  1  0  0  0  0
 27 33  1  0  0  0  0
 27 32  1  0  0  0  0
 28 27  2  0  0  0  0
 29 28  1  0  0  0  0
 29 30  2  0  0  0  0
 30 31  1  0  0  0  0
 31 32  2  0  0  0  0
 31 35  1  0  0  0  0
 34 29  1  0  0  0  0
 36 37  1  0  0  0  0
 37 44  1  0  0  0  0
 38 37  2  0  0  0  0
 38 39  1  0  0  0  0
 39 41  2  0  0  0  0
 40 39  1  0  0  0  0
 41 43  1  0  0  0  0
 41 42  1  0  0  0  0
 44 43  2  0  0  0  0
M  END
>  <minimizedAffinity>
-5.45821762

$$$$
