
 OpenBabel03272509503D

 33 35  0  0  0  0  0  0  0  0999 V2000
   37.3300   30.1750   51.5130 C   0  0  0  0  0  0  0  0  0  0  0  0
   38.0730   30.8650   50.5180 C   0  0  0  0  0  0  0  0  0  0  0  0
   37.7110   30.6520   49.2010 C   0  0  0  0  0  0  0  0  0  0  0  0
   36.6650   29.7930   48.9740 N   0  0  0  0  0  0  0  0  0  0  0  0
   35.9880   29.1600   49.9290 C   0  0  0  0  0  0  0  0  0  0  0  0
   36.3320   29.3600   51.2150 N   0  0  0  0  0  0  0  0  0  0  0  0
   37.6140   30.3420   52.5480 H   0  0  0  0  0  0  0  0  0  0  0  0
   38.8800   31.5230   50.7640 H   0  0  0  0  0  0  0  0  0  0  0  0
   38.9420   33.2660   49.0020 F   0  0  0  0  0  0  0  0  0  0  0  0
   38.9180   32.4770   47.9360 C   0  0  0  0  0  0  0  0  0  0  0  0
   38.3360   31.2550   48.0510 C   0  0  0  0  0  0  0  0  0  0  0  0
   38.3720   30.5190   46.8670 C   0  0  0  0  0  0  0  0  0  0  0  0
   37.9440   29.5070   46.7870 H   0  0  0  0  0  0  0  0  0  0  0  0
   38.9400   30.9870   45.7040 C   0  0  0  0  0  0  0  0  0  0  0  0
   38.9490   30.3920   44.8070 H   0  0  0  0  0  0  0  0  0  0  0  0
   39.5140   32.2270   45.6440 C   0  0  0  0  0  3  0  0  0  0  0  0
   39.4970   32.9810   46.7910 C   0  0  0  0  0  3  0  0  0  0  0  0
   34.9960   28.3620   49.4410 O   0  0  0  0  0  0  0  0  0  0  0  0
   34.4460   28.6570   48.1640 C   0  0  0  0  0  0  0  0  0  0  0  0
   33.8410   29.5870   48.1710 H   0  0  0  0  0  0  0  0  0  0  0  0
   35.2860   28.8290   47.4570 H   0  0  0  0  0  0  0  0  0  0  0  0
   33.5650   27.5320   47.7080 C   0  0  0  0  0  0  0  0  0  0  0  0
   33.8860   27.2320   46.6960 H   0  0  0  0  0  0  0  0  0  0  0  0
   33.7060   26.6600   48.3910 H   0  0  0  0  0  0  0  0  0  0  0  0
   32.1270   27.9040   47.6970 C   0  0  0  0  0  0  0  0  0  0  0  0
   31.3540   27.5110   48.7860 C   0  0  0  0  0  0  0  0  0  0  0  0
   30.0180   27.8050   48.8720 C   0  0  0  0  0  0  0  0  0  0  0  0
   29.4400   28.4820   47.8900 N   0  0  0  0  0  0  0  0  0  0  0  0
   30.1970   28.8680   46.8200 C   0  0  0  0  0  0  0  0  0  0  0  0
   31.5170   28.5960   46.7030 N   0  0  0  0  0  0  0  0  0  0  0  0
   31.7710   26.9570   49.6180 H   0  0  0  0  0  0  0  0  0  0  0  0
   29.4120   27.5130   49.6970 H   0  0  0  0  0  0  0  0  0  0  0  0
   29.8310   29.4240   45.9650 H   0  0  0  0  0  0  0  0  0  0  0  0
  1  7  1  0  0  0  0
  2  8  1  0  0  0  0
  2  1  2  0  0  0  0
  3  2  1  0  0  0  0
  4  3  2  0  0  0  0
  4  5  1  0  0  0  0
  5  6  2  0  0  0  0
  6  1  1  0  0  0  0
 10 11  1  0  0  0  0
 10  9  1  0  0  0  0
 11  3  1  0  0  0  0
 12 11  2  0  0  0  0
 13 12  1  0  0  0  0
 14 12  1  0  0  0  0
 15 14  1  0  0  0  0
 16 14  2  0  0  0  0
 16 17  1  0  0  0  0
 17 10  2  0  0  0  0
 18  5  1  0  0  0  0
 19 20  1  0  0  0  0
 19 18  1  0  0  0  0
 21 19  1  0  0  0  0
 22 19  1  0  0  0  0
 22 24  1  0  0  0  0
 23 22  1  0  0  0  0
 25 22  1  0  0  0  0
 25 26  1  0  0  0  0
 26 27  2  0  0  0  0
 26 31  1  0  0  0  0
 27 32  1  0  0  0  0
 28 27  1  0  0  0  0
 29 28  2  0  0  0  0
 30 29  1  0  0  0  0
 30 25  2  0  0  0  0
 33 29  1  0  0  0  0
M  END
>  <minimizedAffinity>
-6.23495865

>  <minimizedRMSD>
1.48344445

$$$$
