
     RDKit          3D

 35 37  0  0  0  0  0  0  0  0999 V2000
   33.7247   28.6077   48.6900 C   0  0  0  0  0  0  0  0  0  0  0  0
   32.8129   27.4702   48.3387 C   0  0  0  0  0  0  0  0  0  0  0  0
   31.3807   27.8639   48.3479 C   0  0  0  0  0  0  0  0  0  0  0  0
   30.6904   27.7464   49.5502 C   0  0  0  0  0  0  0  0  0  0  0  0
   29.3657   28.0837   49.6632 C   0  0  0  0  0  0  0  0  0  0  0  0
   28.7207   28.5355   48.5966 N   0  0  0  0  0  0  0  0  0  0  0  0
   29.3968   28.6513   47.4161 C   0  0  0  0  0  0  0  0  0  0  0  0
   30.7033   28.3280   47.2685 N   0  0  0  0  0  0  0  0  0  0  0  0
   34.6138   28.2208   49.7298 O   0  0  0  0  0  0  0  0  0  0  0  0
   37.2230   30.1698   51.2869 C   0  0  0  0  0  0  0  0  0  0  0  0
   37.9185   30.6296   50.1368 C   0  0  0  0  0  0  0  0  0  0  0  0
   37.4327   30.2323   48.9056 C   0  0  0  0  0  0  0  0  0  0  0  0
   36.3214   29.4281   48.9054 N   0  0  0  0  0  0  0  0  0  0  0  0
   35.6907   29.0122   50.0010 C   0  0  0  0  0  0  0  0  0  0  0  0
   36.1548   29.3936   51.2061 N   0  0  0  0  0  0  0  0  0  0  0  0
   33.0967   29.4773   48.9757 H   0  0  0  0  0  0  0  0  0  0  0  0
   34.3328   28.9282   47.8173 H   0  0  0  0  0  0  0  0  0  0  0  0
   33.0973   27.0971   47.3398 H   0  0  0  0  0  0  0  0  0  0  0  0
   32.9635   26.6444   49.0747 H   0  0  0  0  0  0  0  0  0  0  0  0
   31.1645   27.3836   50.4537 H   0  0  0  0  0  0  0  0  0  0  0  0
   28.8219   28.0004   50.5739 H   0  0  0  0  0  0  0  0  0  0  0  0
   28.9719   29.0075   46.4852 H   0  0  0  0  0  0  0  0  0  0  0  0
   37.6033   30.4817   52.2551 H   0  0  0  0  0  0  0  0  0  0  0  0
   38.7834   31.2576   50.2083 H   0  0  0  0  0  0  0  0  0  0  0  0
   38.9997   28.5816   47.1142 F   0  0  0  0  0  0  0  0  0  0  0  0
   38.7301   29.8350   46.7734 C   0  0  0  0  0  0  0  0  0  0  0  0
   37.9944   30.5912   47.6268 C   0  0  0  0  0  0  0  0  0  0  0  0
   37.7764   31.8875   47.1619 C   0  0  0  0  0  0  0  0  0  0  0  0
   37.1982   32.6319   47.7323 H   0  0  0  0  0  0  0  0  0  0  0  0
   38.2606   32.3475   45.9588 C   0  0  0  0  0  0  0  0  0  0  0  0
   38.0739   33.3558   45.6289 H   0  0  0  0  0  0  0  0  0  0  0  0
   38.9979   31.5426   45.1348 C   0  0  0  0  0  0  0  0  0  0  0  0
   39.2318   30.2589   45.5618 C   0  0  0  0  0  0  0  0  0  0  0  0
   39.3835   31.8797   44.1962 H   0  0  0  0  0  0  0  0  0  0  0  0
   39.8115   29.6039   44.9289 H   0  0  0  0  0  0  0  0  0  0  0  0
  1  9  1  0
  2  1  1  0
  3  2  1  0
  3  4  2  0
  4  5  1  0
  6  5  2  0
  7  6  1  0
  8  7  2  0
  8  3  1  0
  9 14  1  0
 11 10  2  0
 12 11  1  0
 13 12  2  0
 13 14  1  0
 14 15  2  0
 15 10  1  0
  1 16  1  0
  1 17  1  0
  2 18  1  0
  2 19  1  0
  4 20  1  0
  5 21  1  0
  7 22  1  0
 10 23  1  0
 11 24  1  0
 25 26  1  0
 26 27  2  0
 27 28  1  0
 28 29  1  0
 28 30  2  0
 30 31  1  0
 30 32  1  0
 32 33  2  0
 33 26  1  0
 32 34  1  0
 33 35  1  0
 12 27  1  0
M  ISO  8  16   8  17   8  18   8  19   8  20  14  21  14  22  14  23  14
M  ISO  3  24  14  29  15  31  16
M  END
>  <DihAtoms>  (1) 
10,11,26,25

>  <DihDeg>  (1) 
-0.0005251034338555592

$$$$
