
 OpenBabel03272500153D

 31 33  0  0  0  0  0  0  0  0999 V2000
   32.8310   30.9360   46.5150 Cl  0  0  0  0  0  0  0  0  0  0  0  0
   32.9320   29.2590   47.0200 C   0  0  0  0  0  0  0  0  0  0  0  0
   34.0050   28.8330   47.7740 C   0  0  0  0  0  0  0  0  0  0  0  0
   34.1100   27.4960   48.1950 C   0  0  0  0  0  0  0  0  0  0  0  0
   33.1110   26.6180   47.8320 C   0  0  0  0  0  0  0  0  0  0  0  0
   32.0250   27.0320   47.0720 C   0  0  0  0  0  0  0  0  0  0  0  0
   30.7870   25.8890   46.6320 Cl  0  0  0  0  0  0  0  0  0  0  0  0
   31.9420   28.3720   46.6640 C   0  0  0  0  0  0  0  0  0  0  0  0
   34.9530   27.1560   48.7900 H   0  0  0  0  0  0  0  0  0  0  0  0
   33.2000   25.5930   48.1600 H   0  0  0  0  0  0  0  0  0  0  0  0
   31.8630   28.4730   43.8300 F   0  0  0  0  0  0  0  0  0  0  0  0
   30.7500   28.9040   44.4870 C   0  0  0  0  0  0  0  0  0  0  0  0
   30.8140   28.8450   45.8640 C   0  0  0  0  0  0  0  0  0  0  0  0
   29.7420   29.2540   46.6490 C   0  0  0  0  0  0  0  0  0  0  0  0
   29.7140   29.2390   47.7290 H   0  0  0  0  0  0  0  0  0  0  0  0
   28.5880   29.7330   46.0330 C   0  0  0  0  0  0  0  0  0  0  0  0
   27.7270   30.0630   46.6170 H   0  0  0  0  0  0  0  0  0  0  0  0
   28.5370   29.7870   44.6540 C   0  0  0  0  0  0  0  0  0  0  0  0
   29.5990   29.3800   43.8710 C   0  0  0  0  0  0  0  0  0  0  0  0
   36.1730   31.0530   49.7540 C   0  0  0  0  0  0  0  0  0  0  0  0
   37.1310   31.4380   48.7810 C   0  0  0  0  0  0  0  0  0  0  0  0
   37.0170   30.9320   47.4720 C   0  0  0  0  0  0  0  0  0  0  0  0
   35.9740   30.0930   47.2290 N   0  0  0  0  0  0  0  0  0  0  0  0
   35.0770   29.7420   48.1690 C   0  0  0  0  0  0  0  0  0  0  0  0
   35.1690   30.2090   49.4070 N   0  0  0  0  0  0  0  0  0  0  0  0
   36.2520   31.4360   50.7630 H   0  0  0  0  0  0  0  0  0  0  0  0
   37.7420   31.2310   46.7610 H   0  0  0  0  0  0  0  0  0  0  0  0
   38.2190   32.3710   49.2130 C   0  0  0  0  0  0  0  0  0  0  0  0
   39.0790   32.6340   48.1450 F   0  0  0  0  0  0  0  0  0  0  0  0
   37.6350   33.5700   49.5620 F   0  0  0  0  0  0  0  0  0  0  0  0
   38.9510   31.9000   50.2750 F   0  0  0  0  0  0  0  0  0  0  0  0
  1  2  1  0  0  0  0
  2  3  1  0  0  0  0
  3 24  1  0  0  0  0
  3  4  2  0  0  0  0
  4  9  1  0  0  0  0
  5 10  1  0  0  0  0
  5  4  1  0  0  0  0
  6  5  2  0  0  0  0
  7  6  1  0  0  0  0
  8  2  2  0  0  0  0
  8  6  1  0  0  0  0
 11 12  1  0  0  0  0
 12 13  1  0  0  0  0
 13 14  2  0  0  0  0
 13  8  1  0  0  0  0
 14 15  1  0  0  0  0
 16 17  1  0  0  0  0
 16 14  1  0  0  0  0
 18 16  2  0  0  0  0
 19 12  2  0  0  0  0
 19 18  1  0  0  0  0
 20 26  1  0  0  0  0
 21 28  1  0  0  0  0
 21 20  2  0  0  0  0
 22 21  1  0  0  0  0
 23 22  2  0  0  0  0
 23 24  1  0  0  0  0
 24 25  2  0  0  0  0
 25 20  1  0  0  0  0
 27 22  1  0  0  0  0
 28 30  1  0  0  0  0
 28 31  1  0  0  0  0
 29 28  1  0  0  0  0
M  END
>  <minimizedAffinity>
-5.7999053

>  <minimizedRMSD>
1.66079366

$$$$
