
 OpenBabel03272509063D

 33 35  0  0  0  0  0  0  0  0999 V2000
   39.2490   27.0060   33.1240 C   0  0  0  0  0  0  0  0  0  0  0  0
   39.4730   26.4410   34.3950 C   0  0  0  0  0  0  0  0  0  0  0  0
   38.7580   25.2800   34.7370 C   0  0  0  0  0  0  0  0  0  0  0  0
   37.8930   24.7840   33.7990 N   0  0  0  0  0  0  0  0  0  0  0  0
   37.7150   25.3630   32.5950 C   0  0  0  0  0  0  0  0  0  0  0  0
   38.3950   26.4680   32.2690 N   0  0  0  0  0  0  0  0  0  0  0  0
   39.8360   27.9040   32.9260 H   0  0  0  0  0  0  0  0  0  0  0  0
   40.1510   26.8540   35.0900 H   0  0  0  0  0  0  0  0  0  0  0  0
   40.5830   23.1190   35.3850 F   0  0  0  0  0  0  0  0  0  0  0  0
   39.6970   23.5320   36.3120 C   0  0  0  0  0  0  0  0  0  0  0  0
   38.8460   24.5520   35.9870 C   0  0  0  0  0  0  0  0  0  0  0  0
   37.9800   24.9020   36.9980 C   0  0  0  0  0  0  0  0  0  0  0  0
   37.2350   25.6940   36.9120 H   0  0  0  0  0  0  0  0  0  0  0  0
   37.9830   24.2710   38.2270 C   0  0  0  0  0  0  0  0  0  0  0  0
   37.3050   24.5500   39.0110 H   0  0  0  0  0  0  0  0  0  0  0  0
   38.8600   23.2460   38.5080 C   0  0  0  0  0  3  0  0  0  0  0  0
   39.7420   22.8690   37.5180 C   0  0  0  0  0  3  0  0  0  0  0  0
   36.7710   24.7070   31.7310 C   0  0  0  0  0  3  0  0  0  0  0  0
   36.4710   23.4630   31.9350 C   0  0  0  0  0  3  0  0  0  0  0  0
   35.5420   22.6070   31.1810 C   0  0  0  0  0  0  0  0  0  0  0  0
   35.6700   22.7220   30.0850 H   0  0  0  0  0  0  0  0  0  0  0  0
   34.5210   22.9090   31.4640 H   0  0  0  0  0  0  0  0  0  0  0  0
   35.7310   21.1520   31.4820 C   0  0  0  0  0  0  0  0  0  0  0  0
   36.2900   20.2210   30.6200 C   0  0  0  0  0  0  0  0  0  0  0  0
   36.4170   18.9070   30.9990 C   0  0  0  0  0  0  0  0  0  0  0  0
   35.9830   18.4780   32.2680 C   0  0  0  0  0  0  0  0  0  0  0  0
   35.4280   19.3960   33.1290 C   0  0  0  0  0  0  0  0  0  0  0  0
   35.3070   20.7110   32.7330 C   0  0  0  0  0  0  0  0  0  0  0  0
   36.6030   20.6140   29.6620 H   0  0  0  0  0  0  0  0  0  0  0  0
   36.8580   18.2100   30.2970 H   0  0  0  0  0  0  0  0  0  0  0  0
   36.0950   17.4290   32.5450 H   0  0  0  0  0  0  0  0  0  0  0  0
   35.1020   19.0400   34.0980 H   0  0  0  0  0  0  0  0  0  0  0  0
   34.8650   21.4050   33.4370 H   0  0  0  0  0  0  0  0  0  0  0  0
  1  2  1  0  0  0  0
  2  3  2  0  0  0  0
  2  8  1  0  0  0  0
  3 11  1  0  0  0  0
  4  3  1  0  0  0  0
  5  4  2  0  0  0  0
  6  5  1  0  0  0  0
  6  1  2  0  0  0  0
  7  1  1  0  0  0  0
  9 10  1  0  0  0  0
 10 17  1  0  0  0  0
 11 10  2  0  0  0  0
 11 12  1  0  0  0  0
 12 14  2  0  0  0  0
 13 12  1  0  0  0  0
 14 16  1  0  0  0  0
 14 15  1  0  0  0  0
 17 16  2  0  0  0  0
 18 19  2  0  0  0  0
 18  5  1  0  0  0  0
 20 22  1  0  0  0  0
 20 23  1  0  0  0  0
 20 19  1  0  0  0  0
 21 20  1  0  0  0  0
 23 28  1  0  0  0  0
 24 25  1  0  0  0  0
 24 23  2  0  0  0  0
 25 26  2  0  0  0  0
 26 31  1  0  0  0  0
 26 27  1  0  0  0  0
 27 32  1  0  0  0  0
 28 27  2  0  0  0  0
 28 33  1  0  0  0  0
 29 24  1  0  0  0  0
 30 25  1  0  0  0  0
M  END
>  <minimizedAffinity>
-6.18993568

$$$$

 OpenBabel03272509063D

 33 35  0  0  0  0  0  0  0  0999 V2000
   37.2210   25.5210   32.5440 C   0  0  0  0  0  0  0  0  0  0  0  0
   37.7810   24.6560   33.5050 C   0  0  0  0  0  0  0  0  0  0  0  0
   37.9130   25.1290   34.8220 C   0  0  0  0  0  0  0  0  0  0  0  0
   37.4830   26.4050   35.0700 N   0  0  0  0  0  0  0  0  0  0  0  0
   36.9530   27.1930   34.1130 C   0  0  0  0  0  0  0  0  0  0  0  0
   36.8260   26.7430   32.8600 N   0  0  0  0  0  0  0  0  0  0  0  0
   37.1490   25.0890   31.5440 H   0  0  0  0  0  0  0  0  0  0  0  0
   38.1000   23.6770   33.2730 H   0  0  0  0  0  0  0  0  0  0  0  0
   40.3000   23.4800   34.8500 F   0  0  0  0  0  0  0  0  0  0  0  0
   39.5830   23.6170   35.9820 C   0  0  0  0  0  0  0  0  0  0  0  0
   38.4610   24.3990   35.9480 C   0  0  0  0  0  0  0  0  0  0  0  0
   37.7970   24.4780   37.1510 C   0  0  0  0  0  0  0  0  0  0  0  0
   36.8850   25.0570   37.3040 H   0  0  0  0  0  0  0  0  0  0  0  0
   38.2370   23.8210   38.2830 C   0  0  0  0  0  0  0  0  0  0  0  0
   37.7130   23.8870   39.2190 H   0  0  0  0  0  0  0  0  0  0  0  0
   39.3740   23.0430   38.2690 C   0  0  0  0  0  3  0  0  0  0  0  0
   40.0650   22.9420   37.0800 C   0  0  0  0  0  3  0  0  0  0  0  0
   36.5490   28.5020   34.5500 C   0  0  0  0  0  3  0  0  0  0  0  0
   35.8130   29.2390   33.7770 C   0  0  0  0  0  3  0  0  0  0  0  0
   35.2940   30.5930   34.0220 C   0  0  0  0  0  0  0  0  0  0  0  0
   34.8280   31.0270   33.1140 H   0  0  0  0  0  0  0  0  0  0  0  0
   36.1480   31.2170   34.3310 H   0  0  0  0  0  0  0  0  0  0  0  0
   34.2470   30.6190   35.0940 C   0  0  0  0  0  0  0  0  0  0  0  0
   33.1360   29.7920   35.1500 C   0  0  0  0  0  0  0  0  0  0  0  0
   32.2360   29.9010   36.1810 C   0  0  0  0  0  0  0  0  0  0  0  0
   32.4220   30.8540   37.2010 C   0  0  0  0  0  0  0  0  0  0  0  0
   33.5220   31.6770   37.1540 C   0  0  0  0  0  0  0  0  0  0  0  0
   34.4160   31.5550   36.1110 C   0  0  0  0  0  0  0  0  0  0  0  0
   33.0510   29.0830   34.3370 H   0  0  0  0  0  0  0  0  0  0  0  0
   31.3800   29.2370   36.1890 H   0  0  0  0  0  0  0  0  0  0  0  0
   31.6920   30.9190   38.0100 H   0  0  0  0  0  0  0  0  0  0  0  0
   33.6410   32.4000   37.9500 H   0  0  0  0  0  0  0  0  0  0  0  0
   35.2700   32.2210   36.1060 H   0  0  0  0  0  0  0  0  0  0  0  0
  1  6  2  0  0  0  0
  1  2  1  0  0  0  0
  2  3  2  0  0  0  0
  3  4  1  0  0  0  0
  3 11  1  0  0  0  0
  5 18  1  0  0  0  0
  5  4  2  0  0  0  0
  6  5  1  0  0  0  0
  7  1  1  0  0  0  0
  8  2  1  0  0  0  0
  9 10  1  0  0  0  0
 10 17  1  0  0  0  0
 11 10  2  0  0  0  0
 11 12  1  0  0  0  0
 12 13  1  0  0  0  0
 12 14  2  0  0  0  0
 14 15  1  0  0  0  0
 16 14  1  0  0  0  0
 17 16  2  0  0  0  0
 19 20  1  0  0  0  0
 19 18  2  0  0  0  0
 20 22  1  0  0  0  0
 20 23  1  0  0  0  0
 21 20  1  0  0  0  0
 23 24  2  0  0  0  0
 23 28  1  0  0  0  0
 24 25  1  0  0  0  0
 25 30  1  0  0  0  0
 25 26  2  0  0  0  0
 26 31  1  0  0  0  0
 27 26  1  0  0  0  0
 27 32  1  0  0  0  0
 28 27  2  0  0  0  0
 29 24  1  0  0  0  0
 33 28  1  0  0  0  0
M  END
>  <minimizedAffinity>
-6.07416964

$$$$

 OpenBabel03272509063D

 33 35  0  0  0  0  0  0  0  0999 V2000
   35.5430   29.2960   31.6650 C   0  0  0  0  0  0  0  0  0  0  0  0
   34.8980   30.1010   32.6250 C   0  0  0  0  0  0  0  0  0  0  0  0
   35.1960   29.8790   33.9800 C   0  0  0  0  0  0  0  0  0  0  0  0
   36.0980   28.8890   34.2640 N   0  0  0  0  0  0  0  0  0  0  0  0
   36.6880   28.1460   33.3070 C   0  0  0  0  0  0  0  0  0  0  0  0
   36.4050   28.3570   32.0170 N   0  0  0  0  0  0  0  0  0  0  0  0
   35.2640   29.5220   30.6340 H   0  0  0  0  0  0  0  0  0  0  0  0
   34.2080   30.8560   32.3640 H   0  0  0  0  0  0  0  0  0  0  0  0
   36.5890   31.7070   35.7510 F   0  0  0  0  0  0  0  0  0  0  0  0
   35.2810   31.4600   35.9580 C   0  0  0  0  0  0  0  0  0  0  0  0
   34.6420   30.5960   35.1120 C   0  0  0  0  0  0  0  0  0  0  0  0
   33.3100   30.4090   35.4040 C   0  0  0  0  0  0  0  0  0  0  0  0
   32.6500   29.7550   34.8330 H   0  0  0  0  0  0  0  0  0  0  0  0
   32.6880   31.0450   36.4600 C   0  0  0  0  0  0  0  0  0  0  0  0
   31.6470   30.8940   36.6820 H   0  0  0  0  0  0  0  0  0  0  0  0
   33.3740   31.9080   37.2860 C   0  0  0  0  0  3  0  0  0  0  0  0
   34.7100   32.1200   37.0230 C   0  0  0  0  0  3  0  0  0  0  0  0
   37.6130   27.1530   33.7830 C   0  0  0  0  0  3  0  0  0  0  0  0
   38.4050   27.4330   34.7700 C   0  0  0  0  0  3  0  0  0  0  0  0
   39.4170   26.5770   35.4070 C   0  0  0  0  0  0  0  0  0  0  0  0
   39.7530   26.9880   36.3810 H   0  0  0  0  0  0  0  0  0  0  0  0
   40.2740   26.5190   34.7170 H   0  0  0  0  0  0  0  0  0  0  0  0
   38.9060   25.1950   35.6820 C   0  0  0  0  0  0  0  0  0  0  0  0
   39.2040   24.0680   34.9330 C   0  0  0  0  0  0  0  0  0  0  0  0
   38.6800   22.8450   35.2750 C   0  0  0  0  0  0  0  0  0  0  0  0
   37.8310   22.7110   36.3900 C   0  0  0  0  0  0  0  0  0  0  0  0
   37.5310   23.8250   37.1390 C   0  0  0  0  0  0  0  0  0  0  0  0
   38.0650   25.0460   36.7820 C   0  0  0  0  0  0  0  0  0  0  0  0
   39.8610   24.2370   34.0900 H   0  0  0  0  0  0  0  0  0  0  0  0
   38.9350   21.9870   34.6640 H   0  0  0  0  0  0  0  0  0  0  0  0
   37.4280   21.7280   36.6410 H   0  0  0  0  0  0  0  0  0  0  0  0
   36.8770   23.6950   37.9910 H   0  0  0  0  0  0  0  0  0  0  0  0
   37.8070   25.9010   37.3940 H   0  0  0  0  0  0  0  0  0  0  0  0
  1  6  2  0  0  0  0
  1  2  1  0  0  0  0
  2  3  2  0  0  0  0
  3  4  1  0  0  0  0
  3 11  1  0  0  0  0
  5 18  1  0  0  0  0
  5  4  2  0  0  0  0
  6  5  1  0  0  0  0
  7  1  1  0  0  0  0
  8  2  1  0  0  0  0
  9 10  1  0  0  0  0
 10 17  1  0  0  0  0
 11 12  1  0  0  0  0
 11 10  2  0  0  0  0
 12 14  2  0  0  0  0
 13 12  1  0  0  0  0
 14 15  1  0  0  0  0
 14 16  1  0  0  0  0
 17 16  2  0  0  0  0
 18 19  2  0  0  0  0
 19 20  1  0  0  0  0
 20 23  1  0  0  0  0
 20 21  1  0  0  0  0
 22 20  1  0  0  0  0
 23 28  1  0  0  0  0
 24 25  1  0  0  0  0
 24 23  2  0  0  0  0
 25 26  2  0  0  0  0
 26 31  1  0  0  0  0
 26 27  1  0  0  0  0
 27 32  1  0  0  0  0
 28 27  2  0  0  0  0
 28 33  1  0  0  0  0
 29 24  1  0  0  0  0
 30 25  1  0  0  0  0
M  END
>  <minimizedAffinity>
-5.96483183

$$$$

 OpenBabel03272509063D

 33 35  0  0  0  0  0  0  0  0999 V2000
   39.9910   26.0350   32.5640 C   0  0  0  0  0  0  0  0  0  0  0  0
   40.1140   25.2330   33.7160 C   0  0  0  0  0  0  0  0  0  0  0  0
   39.0970   25.3060   34.6830 C   0  0  0  0  0  0  0  0  0  0  0  0
   38.0570   26.1590   34.4270 N   0  0  0  0  0  0  0  0  0  0  0  0
   37.9870   26.9060   33.3070 C   0  0  0  0  0  0  0  0  0  0  0  0
   38.9540   26.8360   32.3860 N   0  0  0  0  0  0  0  0  0  0  0  0
   40.8160   25.9280   31.8570 H   0  0  0  0  0  0  0  0  0  0  0  0
   40.9330   24.5870   33.8740 H   0  0  0  0  0  0  0  0  0  0  0  0
   40.7700   23.0730   35.4790 F   0  0  0  0  0  0  0  0  0  0  0  0
   39.8150   23.5130   36.3220 C   0  0  0  0  0  0  0  0  0  0  0  0
   39.0380   24.5670   35.9280 C   0  0  0  0  0  0  0  0  0  0  0  0
   38.0930   24.9440   36.8560 C   0  0  0  0  0  0  0  0  0  0  0  0
   37.3900   25.7630   36.7080 H   0  0  0  0  0  0  0  0  0  0  0  0
   37.9560   24.3040   38.0730 C   0  0  0  0  0  0  0  0  0  0  0  0
   37.2170   24.6040   38.7920 H   0  0  0  0  0  0  0  0  0  0  0  0
   38.7640   23.2450   38.4250 C   0  0  0  0  0  3  0  0  0  0  0  0
   39.7210   22.8420   37.5200 C   0  0  0  0  0  3  0  0  0  0  0  0
   36.8220   27.7430   33.1990 C   0  0  0  0  0  3  0  0  0  0  0  0
   36.3730   28.3580   34.2480 C   0  0  0  0  0  3  0  0  0  0  0  0
   35.2110   29.2520   34.3600 C   0  0  0  0  0  0  0  0  0  0  0  0
   34.5770   28.9990   35.2350 H   0  0  0  0  0  0  0  0  0  0  0  0
   34.6220   29.1370   33.4360 H   0  0  0  0  0  0  0  0  0  0  0  0
   35.6060   30.6880   34.5220 C   0  0  0  0  0  0  0  0  0  0  0  0
   35.9300   31.3000   35.7220 C   0  0  0  0  0  0  0  0  0  0  0  0
   36.2810   32.6270   35.7560 C   0  0  0  0  0  0  0  0  0  0  0  0
   36.3180   33.3930   34.5750 C   0  0  0  0  0  0  0  0  0  0  0  0
   35.9980   32.7930   33.3800 C   0  0  0  0  0  0  0  0  0  0  0  0
   35.6480   31.4590   33.3630 C   0  0  0  0  0  0  0  0  0  0  0  0
   35.8830   30.6580   36.5910 H   0  0  0  0  0  0  0  0  0  0  0  0
   36.5270   33.0700   36.7140 H   0  0  0  0  0  0  0  0  0  0  0  0
   36.6000   34.4460   34.6300 H   0  0  0  0  0  0  0  0  0  0  0  0
   36.0350   33.4040   32.4870 H   0  0  0  0  0  0  0  0  0  0  0  0
   35.4020   31.0210   32.4040 H   0  0  0  0  0  0  0  0  0  0  0  0
  1  2  1  0  0  0  0
  2  8  1  0  0  0  0
  2  3  2  0  0  0  0
  3 11  1  0  0  0  0
  4  3  1  0  0  0  0
  5  4  2  0  0  0  0
  6  1  2  0  0  0  0
  6  5  1  0  0  0  0
  7  1  1  0  0  0  0
  9 10  1  0  0  0  0
 10 17  1  0  0  0  0
 11 10  2  0  0  0  0
 11 12  1  0  0  0  0
 12 14  2  0  0  0  0
 13 12  1  0  0  0  0
 14 16  1  0  0  0  0
 14 15  1  0  0  0  0
 17 16  2  0  0  0  0
 18  5  1  0  0  0  0
 18 19  2  0  0  0  0
 19 20  1  0  0  0  0
 20 23  1  0  0  0  0
 20 21  1  0  0  0  0
 22 20  1  0  0  0  0
 23 24  1  0  0  0  0
 24 25  2  0  0  0  0
 24 29  1  0  0  0  0
 25 30  1  0  0  0  0
 26 31  1  0  0  0  0
 26 25  1  0  0  0  0
 27 26  2  0  0  0  0
 28 27  1  0  0  0  0
 28 23  2  0  0  0  0
 32 27  1  0  0  0  0
 33 28  1  0  0  0  0
M  END
>  <minimizedAffinity>
-5.94046593

$$$$

 OpenBabel03272509063D

 33 35  0  0  0  0  0  0  0  0999 V2000
   39.1110   27.0500   31.5990 C   0  0  0  0  0  0  0  0  0  0  0  0
   39.2390   26.1170   32.6480 C   0  0  0  0  0  0  0  0  0  0  0  0
   38.2320   26.0830   33.6270 C   0  0  0  0  0  0  0  0  0  0  0  0
   37.1950   26.9650   33.4840 N   0  0  0  0  0  0  0  0  0  0  0  0
   37.1190   27.8380   32.4600 C   0  0  0  0  0  0  0  0  0  0  0  0
   38.0770   27.8720   31.5270 N   0  0  0  0  0  0  0  0  0  0  0  0
   39.9280   27.0210   30.8760 H   0  0  0  0  0  0  0  0  0  0  0  0
   40.0550   25.4530   32.7220 H   0  0  0  0  0  0  0  0  0  0  0  0
   38.1220   26.8550   36.4220 F   0  0  0  0  0  0  0  0  0  0  0  0
   38.1280   25.5460   36.1010 C   0  0  0  0  0  0  0  0  0  0  0  0
   38.1800   25.2030   34.7780 C   0  0  0  0  0  0  0  0  0  0  0  0
   38.1810   23.8460   34.5520 C   0  0  0  0  0  0  0  0  0  0  0  0
   38.2190   23.3960   33.5590 H   0  0  0  0  0  0  0  0  0  0  0  0
   38.1330   22.9240   35.5800 C   0  0  0  0  0  0  0  0  0  0  0  0
   38.1350   21.8660   35.3960 H   0  0  0  0  0  0  0  0  0  0  0  0
   38.0820   23.3190   36.8990 C   0  0  0  0  0  3  0  0  0  0  0  0
   38.0790   24.6720   37.1630 C   0  0  0  0  0  3  0  0  0  0  0  0
   35.9600   28.6890   32.4620 C   0  0  0  0  0  3  0  0  0  0  0  0
   35.3210   28.9020   33.5700 C   0  0  0  0  0  3  0  0  0  0  0  0
   34.1250   29.7270   33.7960 C   0  0  0  0  0  0  0  0  0  0  0  0
   33.2260   29.1070   33.9930 H   0  0  0  0  0  0  0  0  0  0  0  0
   33.9650   30.3240   32.8830 H   0  0  0  0  0  0  0  0  0  0  0  0
   34.2760   30.6450   34.9700 C   0  0  0  0  0  0  0  0  0  0  0  0
   33.3070   30.8840   35.9310 C   0  0  0  0  0  0  0  0  0  0  0  0
   33.5520   31.7490   36.9700 C   0  0  0  0  0  0  0  0  0  0  0  0
   34.7900   32.4100   37.0800 C   0  0  0  0  0  0  0  0  0  0  0  0
   35.7580   32.1780   36.1300 C   0  0  0  0  0  0  0  0  0  0  0  0
   35.4950   31.3070   35.0930 C   0  0  0  0  0  0  0  0  0  0  0  0
   32.3790   30.3460   35.7900 H   0  0  0  0  0  0  0  0  0  0  0  0
   32.7690   31.9090   37.7000 H   0  0  0  0  0  0  0  0  0  0  0  0
   34.9590   33.0910   37.9150 H   0  0  0  0  0  0  0  0  0  0  0  0
   36.7000   32.6990   36.2380 H   0  0  0  0  0  0  0  0  0  0  0  0
   36.2800   31.1500   34.3640 H   0  0  0  0  0  0  0  0  0  0  0  0
  1  2  1  0  0  0  0
  2  8  1  0  0  0  0
  2  3  2  0  0  0  0
  3 11  1  0  0  0  0
  4  3  1  0  0  0  0
  5 18  1  0  0  0  0
  5  4  2  0  0  0  0
  6  1  2  0  0  0  0
  6  5  1  0  0  0  0
  7  1  1  0  0  0  0
 10  9  1  0  0  0  0
 10 17  1  0  0  0  0
 11 10  2  0  0  0  0
 12 11  1  0  0  0  0
 12 14  2  0  0  0  0
 13 12  1  0  0  0  0
 14 16  1  0  0  0  0
 15 14  1  0  0  0  0
 16 17  2  0  0  0  0
 18 19  2  0  0  0  0
 19 20  1  0  0  0  0
 20 21  1  0  0  0  0
 20 23  1  0  0  0  0
 22 20  1  0  0  0  0
 23 28  2  0  0  0  0
 23 24  1  0  0  0  0
 24 25  2  0  0  0  0
 25 26  1  0  0  0  0
 25 30  1  0  0  0  0
 26 31  1  0  0  0  0
 27 32  1  0  0  0  0
 27 26  2  0  0  0  0
 28 27  1  0  0  0  0
 29 24  1  0  0  0  0
 33 28  1  0  0  0  0
M  END
>  <minimizedAffinity>
-5.74890757

$$$$

 OpenBabel03272509063D

 33 35  0  0  0  0  0  0  0  0999 V2000
   35.7840   29.7460   31.6820 C   0  0  0  0  0  0  0  0  0  0  0  0
   35.1770   30.5710   32.6500 C   0  0  0  0  0  0  0  0  0  0  0  0
   35.2110   30.1500   33.9900 C   0  0  0  0  0  0  0  0  0  0  0  0
   35.8370   28.9610   34.2530 N   0  0  0  0  0  0  0  0  0  0  0  0
   36.4030   28.2090   33.2880 C   0  0  0  0  0  0  0  0  0  0  0  0
   36.3720   28.6090   32.0120 N   0  0  0  0  0  0  0  0  0  0  0  0
   35.7200   30.1340   30.6630 H   0  0  0  0  0  0  0  0  0  0  0  0
   34.7050   31.4830   32.4060 H   0  0  0  0  0  0  0  0  0  0  0  0
   36.6300   31.7850   35.9230 F   0  0  0  0  0  0  0  0  0  0  0  0
   35.2980   31.6250   36.0490 C   0  0  0  0  0  0  0  0  0  0  0  0
   34.6480   30.8510   35.1270 C   0  0  0  0  0  0  0  0  0  0  0  0
   33.2920   30.7480   35.3400 C   0  0  0  0  0  0  0  0  0  0  0  0
   32.6200   30.1720   34.7030 H   0  0  0  0  0  0  0  0  0  0  0  0
   32.6590   31.3780   36.3930 C   0  0  0  0  0  0  0  0  0  0  0  0
   31.5990   31.2930   36.5530 H   0  0  0  0  0  0  0  0  0  0  0  0
   33.3570   32.1480   37.2970 C   0  0  0  0  0  3  0  0  0  0  0  0
   34.7170   32.2730   37.1150 C   0  0  0  0  0  3  0  0  0  0  0  0
   37.0210   26.9920   33.7420 C   0  0  0  0  0  3  0  0  0  0  0  0
   37.5780   26.9510   34.9120 C   0  0  0  0  0  3  0  0  0  0  0  0
   38.2590   25.8240   35.5660 C   0  0  0  0  0  0  0  0  0  0  0  0
   37.7740   24.8550   35.3310 H   0  0  0  0  0  0  0  0  0  0  0  0
   38.2130   26.0030   36.6520 H   0  0  0  0  0  0  0  0  0  0  0  0
   39.6910   25.6980   35.1440 C   0  0  0  0  0  0  0  0  0  0  0  0
   40.4960   26.7410   34.7170 C   0  0  0  0  0  0  0  0  0  0  0  0
   41.8000   26.5130   34.3520 C   0  0  0  0  0  0  0  0  0  0  0  0
   42.3460   25.2160   34.4030 C   0  0  0  0  0  0  0  0  0  0  0  0
   41.5540   24.1750   34.8260 C   0  0  0  0  0  0  0  0  0  0  0  0
   40.2460   24.4210   35.1890 C   0  0  0  0  0  0  0  0  0  0  0  0
   40.0170   27.7120   34.7000 H   0  0  0  0  0  0  0  0  0  0  0  0
   42.3960   27.3560   34.0230 H   0  0  0  0  0  0  0  0  0  0  0  0
   43.3850   25.0620   34.1080 H   0  0  0  0  0  0  0  0  0  0  0  0
   41.9980   23.1880   34.8560 H   0  0  0  0  0  0  0  0  0  0  0  0
   39.6520   23.5770   35.5160 H   0  0  0  0  0  0  0  0  0  0  0  0
  1  6  2  0  0  0  0
  1  2  1  0  0  0  0
  2  3  2  0  0  0  0
  3  4  1  0  0  0  0
  3 11  1  0  0  0  0
  5 18  1  0  0  0  0
  5  4  2  0  0  0  0
  6  5  1  0  0  0  0
  7  1  1  0  0  0  0
  8  2  1  0  0  0  0
  9 10  1  0  0  0  0
 10 17  1  0  0  0  0
 11 12  1  0  0  0  0
 11 10  2  0  0  0  0
 12 14  2  0  0  0  0
 13 12  1  0  0  0  0
 14 15  1  0  0  0  0
 14 16  1  0  0  0  0
 17 16  2  0  0  0  0
 18 19  2  0  0  0  0
 19 20  1  0  0  0  0
 20 22  1  0  0  0  0
 21 20  1  0  0  0  0
 23 28  1  0  0  0  0
 23 20  1  0  0  0  0
 24 23  2  0  0  0  0
 25 26  2  0  0  0  0
 25 24  1  0  0  0  0
 26 27  1  0  0  0  0
 27 32  1  0  0  0  0
 27 28  2  0  0  0  0
 28 33  1  0  0  0  0
 29 24  1  0  0  0  0
 30 25  1  0  0  0  0
 31 26  1  0  0  0  0
M  END
>  <minimizedAffinity>
-5.73892879

$$$$

 OpenBabel03272509063D

 33 35  0  0  0  0  0  0  0  0999 V2000
   37.3290   25.3790   32.6060 C   0  0  0  0  0  0  0  0  0  0  0  0
   38.0200   24.5020   33.4650 C   0  0  0  0  0  0  0  0  0  0  0  0
   38.2370   24.9120   34.7920 C   0  0  0  0  0  0  0  0  0  0  0  0
   37.7540   26.1430   35.1490 N   0  0  0  0  0  0  0  0  0  0  0  0
   37.0990   26.9450   34.2870 C   0  0  0  0  0  0  0  0  0  0  0  0
   36.8920   26.5550   33.0240 N   0  0  0  0  0  0  0  0  0  0  0  0
   37.1980   24.9970   31.5920 H   0  0  0  0  0  0  0  0  0  0  0  0
   38.3760   23.5600   33.1510 H   0  0  0  0  0  0  0  0  0  0  0  0
   37.1910   24.1390   37.3860 F   0  0  0  0  0  0  0  0  0  0  0  0
   38.4480   23.7860   37.0520 C   0  0  0  0  0  0  0  0  0  0  0  0
   38.9220   24.1600   35.8250 C   0  0  0  0  0  0  0  0  0  0  0  0
   40.2130   23.7540   35.5760 C   0  0  0  0  0  0  0  0  0  0  0  0
   40.7480   23.9650   34.6500 H   0  0  0  0  0  0  0  0  0  0  0  0
   40.9520   23.0330   36.4940 C   0  0  0  0  0  0  0  0  0  0  0  0
   41.9590   22.7190   36.2930 H   0  0  0  0  0  0  0  0  0  0  0  0
   40.4300   22.6800   37.7200 C   0  0  0  0  0  3  0  0  0  0  0  0
   39.1390   23.0700   38.0030 C   0  0  0  0  0  3  0  0  0  0  0  0
   36.6570   28.2010   34.8310 C   0  0  0  0  0  3  0  0  0  0  0  0
   35.6850   28.8420   34.2610 C   0  0  0  0  0  3  0  0  0  0  0  0
   35.0820   30.1270   34.6450 C   0  0  0  0  0  0  0  0  0  0  0  0
   35.2100   30.3360   35.7270 H   0  0  0  0  0  0  0  0  0  0  0  0
   34.0080   30.0650   34.4070 H   0  0  0  0  0  0  0  0  0  0  0  0
   35.6880   31.2850   33.9130 C   0  0  0  0  0  0  0  0  0  0  0  0
   36.1240   32.4630   34.4970 C   0  0  0  0  0  0  0  0  0  0  0  0
   36.6660   33.4650   33.7290 C   0  0  0  0  0  0  0  0  0  0  0  0
   36.7890   33.3160   32.3350 C   0  0  0  0  0  0  0  0  0  0  0  0
   36.3590   32.1500   31.7470 C   0  0  0  0  0  0  0  0  0  0  0  0
   35.8170   31.1540   32.5320 C   0  0  0  0  0  0  0  0  0  0  0  0
   36.0020   32.5150   35.5720 H   0  0  0  0  0  0  0  0  0  0  0  0
   36.9950   34.3710   34.2240 H   0  0  0  0  0  0  0  0  0  0  0  0
   37.2240   34.1270   31.7480 H   0  0  0  0  0  0  0  0  0  0  0  0
   36.4650   32.0610   30.6730 H   0  0  0  0  0  0  0  0  0  0  0  0
   35.4890   30.2500   32.0350 H   0  0  0  0  0  0  0  0  0  0  0  0
  1  6  2  0  0  0  0
  1  2  1  0  0  0  0
  2  3  2  0  0  0  0
  3  4  1  0  0  0  0
  3 11  1  0  0  0  0
  5 18  1  0  0  0  0
  5  4  2  0  0  0  0
  6  5  1  0  0  0  0
  7  1  1  0  0  0  0
  8  2  1  0  0  0  0
 10  9  1  0  0  0  0
 10 17  1  0  0  0  0
 11 10  2  0  0  0  0
 12 11  1  0  0  0  0
 12 14  2  0  0  0  0
 13 12  1  0  0  0  0
 14 16  1  0  0  0  0
 15 14  1  0  0  0  0
 16 17  2  0  0  0  0
 19 20  1  0  0  0  0
 19 18  2  0  0  0  0
 20 21  1  0  0  0  0
 22 20  1  0  0  0  0
 23 24  1  0  0  0  0
 23 20  1  0  0  0  0
 24 29  1  0  0  0  0
 25 30  1  0  0  0  0
 25 24  2  0  0  0  0
 26 25  1  0  0  0  0
 27 26  2  0  0  0  0
 27 28  1  0  0  0  0
 28 23  2  0  0  0  0
 31 26  1  0  0  0  0
 32 27  1  0  0  0  0
 33 28  1  0  0  0  0
M  END
>  <minimizedAffinity>
-5.6848197

$$$$

 OpenBabel03272509063D

 33 35  0  0  0  0  0  0  0  0999 V2000
   37.4890   25.0190   32.4650 C   0  0  0  0  0  0  0  0  0  0  0  0
   38.1790   24.1990   33.3810 C   0  0  0  0  0  0  0  0  0  0  0  0
   38.3390   24.6670   34.6960 C   0  0  0  0  0  0  0  0  0  0  0  0
   37.8060   25.8950   34.9880 N   0  0  0  0  0  0  0  0  0  0  0  0
   37.1540   26.6400   34.0740 C   0  0  0  0  0  0  0  0  0  0  0  0
   37.0010   26.1950   32.8220 N   0  0  0  0  0  0  0  0  0  0  0  0
   37.4030   24.5930   31.4640 H   0  0  0  0  0  0  0  0  0  0  0  0
   38.5740   23.2570   33.1160 H   0  0  0  0  0  0  0  0  0  0  0  0
   37.3000   24.1340   37.3530 F   0  0  0  0  0  0  0  0  0  0  0  0
   38.5420   23.7190   37.0370 C   0  0  0  0  0  0  0  0  0  0  0  0
   39.0130   23.9790   35.7790 C   0  0  0  0  0  0  0  0  0  0  0  0
   40.2890   23.5160   35.5520 C   0  0  0  0  0  0  0  0  0  0  0  0
   40.8190   23.6370   34.6070 H   0  0  0  0  0  0  0  0  0  0  0  0
   41.0160   22.8480   36.5180 C   0  0  0  0  0  0  0  0  0  0  0  0
   42.0120   22.4890   36.3340 H   0  0  0  0  0  0  0  0  0  0  0  0
   40.4990   22.6090   37.7720 C   0  0  0  0  0  3  0  0  0  0  0  0
   39.2230   23.0590   38.0350 C   0  0  0  0  0  3  0  0  0  0  0  0
   36.6550   27.9010   34.5530 C   0  0  0  0  0  3  0  0  0  0  0  0
   36.0040   28.6820   33.7490 C   0  0  0  0  0  3  0  0  0  0  0  0
   35.4140   30.0000   34.0260 C   0  0  0  0  0  0  0  0  0  0  0  0
   35.5800   30.7120   33.1920 H   0  0  0  0  0  0  0  0  0  0  0  0
   35.8970   30.3860   34.9390 H   0  0  0  0  0  0  0  0  0  0  0  0
   33.9330   29.9310   34.2390 C   0  0  0  0  0  0  0  0  0  0  0  0
   33.2660   30.3520   35.3780 C   0  0  0  0  0  0  0  0  0  0  0  0
   31.9000   30.2430   35.4680 C   0  0  0  0  0  0  0  0  0  0  0  0
   31.1490   29.7020   34.4080 C   0  0  0  0  0  0  0  0  0  0  0  0
   31.8030   29.2820   33.2730 C   0  0  0  0  0  0  0  0  0  0  0  0
   33.1750   29.3980   33.1990 C   0  0  0  0  0  0  0  0  0  0  0  0
   33.9000   30.7590   36.1560 H   0  0  0  0  0  0  0  0  0  0  0  0
   31.4160   30.5830   36.3760 H   0  0  0  0  0  0  0  0  0  0  0  0
   30.0650   29.6260   34.5040 H   0  0  0  0  0  0  0  0  0  0  0  0
   31.2020   28.8700   32.4730 H   0  0  0  0  0  0  0  0  0  0  0  0
   33.6560   29.0570   32.2900 H   0  0  0  0  0  0  0  0  0  0  0  0
  1  6  2  0  0  0  0
  1  2  1  0  0  0  0
  2  3  2  0  0  0  0
  3  4  1  0  0  0  0
  3 11  1  0  0  0  0
  5 18  1  0  0  0  0
  5  4  2  0  0  0  0
  6  5  1  0  0  0  0
  7  1  1  0  0  0  0
  8  2  1  0  0  0  0
 10  9  1  0  0  0  0
 10 17  1  0  0  0  0
 11 10  2  0  0  0  0
 12 11  1  0  0  0  0
 12 14  2  0  0  0  0
 13 12  1  0  0  0  0
 14 16  1  0  0  0  0
 15 14  1  0  0  0  0
 16 17  2  0  0  0  0
 19 20  1  0  0  0  0
 19 18  2  0  0  0  0
 20 23  1  0  0  0  0
 20 22  1  0  0  0  0
 21 20  1  0  0  0  0
 23 24  1  0  0  0  0
 24 25  2  0  0  0  0
 24 29  1  0  0  0  0
 25 30  1  0  0  0  0
 26 31  1  0  0  0  0
 26 25  1  0  0  0  0
 27 26  2  0  0  0  0
 28 27  1  0  0  0  0
 28 23  2  0  0  0  0
 32 27  1  0  0  0  0
 33 28  1  0  0  0  0
M  END
>  <minimizedAffinity>
-5.64779949

$$$$

 OpenBabel03272509063D

 33 35  0  0  0  0  0  0  0  0999 V2000
   35.9580   24.9820   31.1870 C   0  0  0  0  0  0  0  0  0  0  0  0
   35.6750   23.6100   31.0310 C   0  0  0  0  0  0  0  0  0  0  0  0
   36.2780   22.7070   31.9240 C   0  0  0  0  0  0  0  0  0  0  0  0
   37.0980   23.2360   32.8840 N   0  0  0  0  0  0  0  0  0  0  0  0
   37.3350   24.5580   32.9900 C   0  0  0  0  0  0  0  0  0  0  0  0
   36.7620   25.4190   32.1420 N   0  0  0  0  0  0  0  0  0  0  0  0
   35.4570   25.6250   30.4610 H   0  0  0  0  0  0  0  0  0  0  0  0
   35.0350   23.2430   30.2770 H   0  0  0  0  0  0  0  0  0  0  0  0
   35.3580   21.0540   34.1240 F   0  0  0  0  0  0  0  0  0  0  0  0
   35.6860   20.4700   32.9550 C   0  0  0  0  0  0  0  0  0  0  0  0
   36.1170   21.2670   31.9300 C   0  0  0  0  0  0  0  0  0  0  0  0
   36.4270   20.5790   30.7790 C   0  0  0  0  0  0  0  0  0  0  0  0
   36.7850   21.0550   29.8660 H   0  0  0  0  0  0  0  0  0  0  0  0
   36.3070   19.2060   30.6830 C   0  0  0  0  0  0  0  0  0  0  0  0
   36.5510   18.6760   29.7800 H   0  0  0  0  0  0  0  0  0  0  0  0
   35.8680   18.4450   31.7440 C   0  0  0  0  0  3  0  0  0  0  0  0
   35.5490   19.1010   32.9130 C   0  0  0  0  0  3  0  0  0  0  0  0
   38.2190   24.9400   34.0590 C   0  0  0  0  0  3  0  0  0  0  0  0
   38.4790   24.0980   35.0100 C   0  0  0  0  0  3  0  0  0  0  0  0
   39.3440   24.2790   36.1850 C   0  0  0  0  0  0  0  0  0  0  0  0
   38.7660   24.2610   37.1310 H   0  0  0  0  0  0  0  0  0  0  0  0
   39.8390   25.2570   36.0760 H   0  0  0  0  0  0  0  0  0  0  0  0
   40.3840   23.2070   36.3010 C   0  0  0  0  0  0  0  0  0  0  0  0
   40.5420   22.3560   37.3830 C   0  0  0  0  0  0  0  0  0  0  0  0
   41.5330   21.4050   37.3850 C   0  0  0  0  0  0  0  0  0  0  0  0
   42.4080   21.2740   36.2900 C   0  0  0  0  0  0  0  0  0  0  0  0
   42.2580   22.1140   35.2110 C   0  0  0  0  0  0  0  0  0  0  0  0
   41.2580   23.0640   35.2250 C   0  0  0  0  0  0  0  0  0  0  0  0
   39.8380   22.5080   38.1910 H   0  0  0  0  0  0  0  0  0  0  0  0
   41.6230   20.7590   38.2500 H   0  0  0  0  0  0  0  0  0  0  0  0
   43.1860   20.5100   36.3170 H   0  0  0  0  0  0  0  0  0  0  0  0
   42.9440   21.9920   34.3830 H   0  0  0  0  0  0  0  0  0  0  0  0
   41.1710   23.7080   34.3600 H   0  0  0  0  0  0  0  0  0  0  0  0
  1  6  1  0  0  0  0
  2  1  2  0  0  0  0
  2  3  1  0  0  0  0
  3 11  1  0  0  0  0
  3  4  2  0  0  0  0
  4  5  1  0  0  0  0
  5 18  1  0  0  0  0
  6  5  2  0  0  0  0
  7  1  1  0  0  0  0
  8  2  1  0  0  0  0
 10  9  1  0  0  0  0
 11 10  2  0  0  0  0
 12 11  1  0  0  0  0
 13 12  1  0  0  0  0
 14 12  2  0  0  0  0
 14 16  1  0  0  0  0
 15 14  1  0  0  0  0
 16 17  2  0  0  0  0
 17 10  1  0  0  0  0
 18 19  2  0  0  0  0
 19 20  1  0  0  0  0
 20 23  1  0  0  0  0
 20 21  1  0  0  0  0
 22 20  1  0  0  0  0
 23 24  1  0  0  0  0
 24 25  2  0  0  0  0
 24 29  1  0  0  0  0
 25 30  1  0  0  0  0
 26 31  1  0  0  0  0
 26 25  1  0  0  0  0
 27 28  1  0  0  0  0
 27 26  2  0  0  0  0
 28 23  2  0  0  0  0
 32 27  1  0  0  0  0
 33 28  1  0  0  0  0
M  END
>  <minimizedAffinity>
-5.54811239

$$$$
