REMARK  Name = 
REMARK  6 active torsions:
REMARK  status: ('A' for Active; 'I' for Inactive)
REMARK    1  A    between atoms: C_1  and  O_14
REMARK    2  A    between atoms: C_2  and  C_8
REMARK    3  A    between atoms: C_6  and  O_15
REMARK    4  A    between atoms: C_9  and  C_13
REMARK    5  A    between atoms: O_15  and  C_17
REMARK    6  A    between atoms: C_24  and  C_40
REMARK                            x       y       z     vdW  Elec       q    Type
REMARK                         _______ _______ _______ _____ _____    ______ ____
ROOT
ATOM      1  C   UNL     1      38.081  31.298  47.776  0.00  0.00    +0.000 A 
ATOM      2  C   UNL     1      37.086  31.303  48.735  0.00  0.00    +0.000 A 
ATOM      3  C   UNL     1      37.130  32.410  49.592  0.00  0.00    +0.000 A 
ATOM      4  C   UNL     1      38.101  33.408  49.469  0.00  0.00    +0.000 A 
ATOM      5  C   UNL     1      39.071  33.305  48.455  0.00  0.00    +0.000 A 
ATOM      6  C   UNL     1      39.050  32.225  47.597  0.00  0.00    +0.000 A 
ATOM      7  H   UNL     1      36.364  32.454  50.363  0.00  0.00    +0.000 HD
ATOM      8  H   UNL     1      38.072  34.231  50.165  0.00  0.00    +0.000 HD
ATOM      9  H   UNL     1      39.799  34.106  48.405  0.00  0.00    +0.000 HD
ENDROOT
BRANCH   2  11
ATOM     10  C   UNL     1      34.961  30.312  48.045  0.00  0.00    +0.000 A 
ATOM     11  C   UNL     1      36.094  30.286  48.862  0.00  0.00    +0.000 A 
ATOM     12  C   UNL     1      36.210  29.240  49.789  0.00  0.00    +0.000 A 
ATOM     13  N   UNL     1      35.225  28.315  49.846  0.00  0.00    +0.000 NA
ATOM     14  C   UNL     1      34.133  28.380  49.027  0.00  0.00    +0.000 A 
ATOM     15  N   UNL     1      34.019  29.369  48.147  0.00  0.00    +0.000 NA
ATOM     16  H   UNL     1      34.875  31.122  47.330  0.00  0.00    +0.000 HD
ATOM     17  H   UNL     1      33.413  27.573  49.174  0.00  0.00    +0.000 HD
BRANCH  12  18
ATOM     18  C   UNL     1      37.393  29.164  50.681  0.00  0.00    +0.000 C 
ATOM     19  H   UNL     1      38.300  29.400  50.061  0.00  0.00    +0.000 HD
ATOM     20  H   UNL     1      37.294  29.789  51.573  0.00  0.00    +0.000 HD
ATOM     21  H   UNL     1      37.509  28.075  50.922  0.00  0.00    +0.000 HD
ENDBRANCH  12  18
ENDBRANCH   2  11
BRANCH   1  22
ATOM     22  O   UNL     1      38.134  30.237  46.865  0.00  0.00    +0.000 OA
ATOM     23  H   UNL     1      38.797  29.492  47.002  0.00  0.00    +0.000 HD
ENDBRANCH   1  22
BRANCH   6  24
ATOM     24  O   UNL     1      40.029  32.197  46.635  0.00  0.00    +0.000 OA
BRANCH  24  26
ATOM     25  C   UNL     1      40.565  31.187  44.412  0.00  0.00    +0.000 A 
ATOM     26  C   UNL     1      39.864  31.983  45.290  0.00  0.00    +0.000 A 
ATOM     27  C   UNL     1      38.787  32.729  44.797  0.00  0.00    +0.000 A 
ATOM     28  C   UNL     1      38.438  32.661  43.439  0.00  0.00    +0.000 A 
ATOM     29  N   UNL     1      37.481  33.240  42.678  0.00  0.00    +0.000 N 
ATOM     30  C   UNL     1      37.594  32.820  41.410  0.00  0.00    +0.000 A 
ATOM     31  N   UNL     1      38.638  31.963  41.373  0.00  0.00    +0.000 NA
ATOM     32  C   UNL     1      39.166  31.854  42.608  0.00  0.00    +0.000 A 
ATOM     33  C   UNL     1      40.227  31.117  43.085  0.00  0.00    +0.000 A 
ATOM     34  H   UNL     1      41.377  30.653  44.896  0.00  0.00    +0.000 HD
ATOM     35  H   UNL     1      38.144  33.399  45.367  0.00  0.00    +0.000 HD
ATOM     36  H   UNL     1      36.762  33.923  43.060  0.00  0.00    +0.000 HD
ATOM     37  H   UNL     1      36.960  33.124  40.594  0.00  0.00    +0.000 HD
BRANCH  33  40
ATOM     38  F   UNL     1      39.293  29.760  40.764  0.00  0.00    +0.000 F 
ATOM     39  C   UNL     1      40.589  29.581  41.093  0.00  0.00    +0.000 A 
ATOM     40  C   UNL     1      41.024  30.247  42.221  0.00  0.00    +0.000 A 
ATOM     41  C   UNL     1      42.343  30.149  42.675  0.00  0.00    +0.000 A 
ATOM     42  H   UNL     1      42.751  30.635  43.538  0.00  0.00    +0.000 HD
ATOM     43  C   UNL     1      43.241  29.358  41.966  0.00  0.00    +0.000 A 
ATOM     44  H   UNL     1      44.277  29.237  42.261  0.00  0.00    +0.000 HD
ATOM     45  C   UNL     1      42.768  28.708  40.844  0.00  0.00    +0.000 A 
ATOM     46  C   UNL     1      41.472  28.789  40.377  0.00  0.00    +0.000 A 
ENDBRANCH  33  40
ENDBRANCH  24  26
ENDBRANCH   6  24
TORSDOF 6
