
     RDKit          3D

 48 52  0  0  0  0  0  0  0  0999 V2000
   38.0809   31.2984   47.7764 C   0  0  0  0  0  0  0  0  0  0  0  0
   37.0861   31.3029   48.7352 C   0  0  0  0  0  0  0  0  0  0  0  0
   37.1297   32.4099   49.5916 C   0  0  0  0  0  0  0  0  0  0  0  0
   38.1014   33.4082   49.4687 C   0  0  0  0  0  0  0  0  0  0  0  0
   39.0705   33.3053   48.4547 C   0  0  0  0  0  0  0  0  0  0  0  0
   39.0504   32.2246   47.5971 C   0  0  0  0  0  0  0  0  0  0  0  0
   34.9606   30.3119   48.0452 C   0  0  0  0  0  0  0  0  0  0  0  0
   36.0943   30.2857   48.8621 C   0  0  0  0  0  0  0  0  0  0  0  0
   36.2100   29.2401   49.7891 C   0  0  0  0  0  0  0  0  0  0  0  0
   35.2249   28.3152   49.8461 N   0  0  0  0  0  0  0  0  0  0  0  0
   34.1330   28.3803   49.0270 C   0  0  0  0  0  0  0  0  0  0  0  0
   34.0186   29.3687   48.1471 N   0  0  0  0  0  0  0  0  0  0  0  0
   37.3931   29.1640   50.6810 C   0  0  0  0  0  0  0  0  0  0  0  0
   38.1338   30.2374   46.8647 O   0  0  0  0  0  0  0  0  0  0  0  0
   40.0292   32.1972   46.6349 O   0  0  0  0  0  0  0  0  0  0  0  0
   40.5648   31.1868   44.4122 C   0  0  0  0  0  0  0  0  0  0  0  0
   39.8641   31.9829   45.2904 C   0  0  0  0  0  0  0  0  0  0  0  0
   38.7869   32.7294   44.7972 C   0  0  0  0  0  0  0  0  0  0  0  0
   38.4376   32.6611   43.4390 C   0  0  0  0  0  0  0  0  0  0  0  0
   37.4811   33.2402   42.6776 N   0  0  0  0  0  0  0  0  0  0  0  0
   37.5943   32.8201   41.4099 C   0  0  0  0  0  0  0  0  0  0  0  0
   38.6381   31.9632   41.3726 N   0  0  0  0  0  0  0  0  0  0  0  0
   39.1664   31.8543   42.6076 C   0  0  0  0  0  0  0  0  0  0  0  0
   40.2271   31.1172   43.0854 C   0  0  0  0  0  0  0  0  0  0  0  0
   36.3641   32.4542   50.3627 H   0  0  0  0  0  0  0  0  0  0  0  0
   38.0723   34.2314   50.1646 H   0  0  0  0  0  0  0  0  0  0  0  0
   39.7990   34.1063   48.4051 H   0  0  0  0  0  0  0  0  0  0  0  0
   34.8752   31.1216   47.3303 H   0  0  0  0  0  0  0  0  0  0  0  0
   33.4127   27.5733   49.1744 H   0  0  0  0  0  0  0  0  0  0  0  0
   38.2995   29.4004   50.0613 H   0  0  0  0  0  0  0  0  0  0  0  0
   37.2943   29.7894   51.5733 H   0  0  0  0  0  0  0  0  0  0  0  0
   37.5091   28.0749   50.9222 H   0  0  0  0  0  0  0  0  0  0  0  0
   38.7966   29.4919   47.0017 H   0  0  0  0  0  0  0  0  0  0  0  0
   41.3768   30.6532   44.8964 H   0  0  0  0  0  0  0  0  0  0  0  0
   38.1438   33.3988   45.3665 H   0  0  0  0  0  0  0  0  0  0  0  0
   36.7616   33.9232   43.0598 H   0  0  0  0  0  0  0  0  0  0  0  0
   36.9596   33.1238   40.5939 H   0  0  0  0  0  0  0  0  0  0  0  0
   41.5570   28.7317   43.8870 F   0  0  0  0  0  0  0  0  0  0  0  0
   41.6750   29.0879   42.5914 C   0  0  0  0  0  0  0  0  0  0  0  0
   41.0240   30.2465   42.2210 C   0  0  0  0  0  0  0  0  0  0  0  0
   41.0635   30.7302   40.9099 C   0  0  0  0  0  0  0  0  0  0  0  0
   40.5848   31.6185   40.5502 H   0  0  0  0  0  0  0  0  0  0  0  0
   41.7808   30.0206   39.9528 C   0  0  0  0  0  0  0  0  0  0  0  0
   41.8539   30.3376   38.9190 H   0  0  0  0  0  0  0  0  0  0  0  0
   42.4183   28.8669   40.3618 C   0  0  0  0  0  0  0  0  0  0  0  0
   42.3940   28.3695   41.6492 C   0  0  0  0  0  0  0  0  0  0  0  0
   42.9795   28.3236   39.5850 H   0  0  0  0  0  0  0  0  0  0  0  0
   42.8951   27.4693   41.9547 H   0  0  0  0  0  0  0  0  0  0  0  0
  1  2  2  0
  2  8  1  0
  2  3  1  0
  4  3  2  0
  5  4  1  0
  6  1  1  0
  6  5  2  0
  7 12  2  0
  7  8  1  0
  8  9  2  0
  9 10  1  0
  9 13  1  0
 11 10  2  0
 12 11  1  0
 14  1  1  0
 15  6  1  0
 16 17  2  0
 17 15  1  0
 18 17  1  0
 19 18  2  0
 20 19  1  0
 21 20  1  0
 22 21  2  0
 22 23  1  0
 23 24  2  0
 23 19  1  0
 24 16  1  0
  3 25  1  0
  4 26  1  0
  5 27  1  0
  7 28  1  0
 11 29  1  0
 13 30  1  0
 13 31  1  0
 13 32  1  0
 14 33  1  0
 16 34  1  0
 18 35  1  0
 20 36  1  0
 21 37  1  0
 38 39  1  0
 39 40  2  0
 40 41  1  0
 41 42  1  0
 41 43  2  0
 43 44  1  0
 43 45  1  0
 45 46  2  0
 46 39  1  0
 45 47  1  0
 46 48  1  0
 24 40  1  0
M  ISO  8  25  14  26  14  27  14  28  14  29  14  30   8  31   8  32   8
M  ISO  7  33   3  34  14  35  14  36   9  37  14  42  15  44  16
M  END
>  <DihAtoms>  (1) 
22,23,39,38

>  <DihDeg>  (1) 
90.00018809000342

$$$$
