
 OpenBabel03272505063D

 33 35  0  0  1  0  0  0  0  0999 V2000
   36.7900   29.3020   49.3210 C   0  0  0  0  0  0  0  0  0  0  0  0
   37.6250   30.3250   48.8820 C   0  0  0  0  0  0  0  0  0  0  0  0
   37.2970   31.0540   47.7480 C   0  0  0  0  0  0  0  0  0  0  0  0
   36.1540   30.7240   47.1170 N   0  0  0  0  0  0  0  0  0  0  0  0
   35.3530   29.7390   47.5420 C   0  0  0  0  0  0  0  0  0  0  0  0
   35.6570   29.0130   48.6520 N   0  0  0  0  0  0  0  0  0  0  0  0
   38.0390   32.1090   47.1760 N   0  0  0  0  0  0  0  0  0  0  0  0
   38.6180   33.1960   47.9260 C   0  0  0  0  0  0  0  0  0  0  0  0
   40.0070   33.5730   47.5930 C   0  0  0  0  0  0  0  0  0  0  0  0
   40.4220   33.4540   46.1740 C   0  0  0  0  0  0  0  0  0  0  0  0
   39.8500   32.2040   45.5740 C   0  0  0  0  0  0  0  0  0  0  0  0
   38.3360   32.2690   45.7910 C   0  0  1  0  0  0  0  0  0  0  0  0
   37.0860   28.7590   50.2130 H   0  0  0  0  0  0  0  0  0  0  0  0
   38.5460   30.6090   49.3710 H   0  0  0  0  0  0  0  0  0  0  0  0
   34.4290   29.4950   47.0040 H   0  0  0  0  0  0  0  0  0  0  0  0
   38.5380   33.0260   49.0180 H   0  0  0  0  0  0  0  0  0  0  0  0
   37.9560   34.0770   47.7240 H   0  0  0  0  0  0  0  0  0  0  0  0
   40.1480   34.6380   47.8960 H   0  0  0  0  0  0  0  0  0  0  0  0
   40.6960   32.9950   48.2620 H   0  0  0  0  0  0  0  0  0  0  0  0
   40.1840   34.3280   45.5410 H   0  0  0  0  0  0  0  0  0  0  0  0
   41.5320   33.3430   46.1470 H   0  0  0  0  0  0  0  0  0  0  0  0
   40.0970   32.0770   44.5030 H   0  0  0  0  0  0  0  0  0  0  0  0
   40.1910   31.3260   46.1790 H   0  0  0  0  0  0  0  0  0  0  0  0
   38.0880   33.3220   45.4420 H   0  0  0  0  0  0  0  0  0  0  0  0
   39.1830   29.6430   45.2050 F   0  0  0  0  0  0  0  0  0  0  0  0
   38.0420   30.0740   44.5720 C   0  0  0  0  0  0  0  0  0  0  0  0
   37.6340   31.3830   44.8560 C   0  0  0  0  0  0  0  0  0  0  0  0
   36.4740   31.7080   44.1620 C   0  0  0  0  0  0  0  0  0  0  0  0
   36.0460   32.6970   44.3030 H   0  0  0  0  0  0  0  0  0  0  0  0
   35.7940   30.8730   43.3020 C   0  0  0  0  0  0  0  0  0  0  0  0
   34.8980   31.2010   42.8000 H   0  0  0  0  0  0  0  0  0  0  0  0
   36.2820   29.6150   43.0960 C   0  0  0  0  0  0  0  0  0  0  0  0
   37.4260   29.1870   43.7340 C   0  0  0  0  0  0  0  0  0  0  0  0
  1 13  1  0  0  0  0
  2  1  1  0  0  0  0
  2 14  1  0  0  0  0
  3  2  2  0  0  0  0
  4  5  2  0  0  0  0
  4  3  1  0  0  0  0
  5  6  1  0  0  0  0
  6  1  2  0  0  0  0
  7  3  1  0  0  0  0
  7  8  1  0  0  0  0
  8 16  1  0  0  0  0
  9 18  1  0  0  0  0
  9  8  1  0  0  0  0
  9 19  1  0  0  0  0
 10  9  1  0  0  0  0
 11 12  1  0  0  0  0
 11 10  1  0  0  0  0
 11 23  1  0  0  0  0
 12 24  1  6  0  0  0
 12  7  1  0  0  0  0
 15  5  1  0  0  0  0
 17  8  1  0  0  0  0
 20 10  1  0  0  0  0
 21 10  1  0  0  0  0
 22 11  1  0  0  0  0
 26 27  1  0  0  0  0
 26 25  1  0  0  0  0
 27 12  1  0  0  0  0
 28 29  1  0  0  0  0
 28 27  2  0  0  0  0
 30 28  1  0  0  0  0
 31 30  1  0  0  0  0
 32 30  2  0  0  0  0
 32 33  1  0  0  0  0
 33 26  2  0  0  0  0
M  END
>  <minimizedAffinity>
-4.45735931

>  <minimizedRMSD>
2.35161257

$$$$
