
 OpenBabel03272509213D

 46 50  0  0  0  0  0  0  0  0999 V2000
   38.0910   31.3970   47.9430 C   0  0  0  0  0  0  0  0  0  0  0  0
   37.2570   31.5930   49.0270 C   0  0  0  0  0  0  0  0  0  0  0  0
   37.4830   32.7970   49.7060 C   0  0  0  0  0  0  0  0  0  0  0  0
   38.4690   33.7030   49.3060 C   0  0  0  0  0  0  0  0  0  0  0  0
   39.2660   33.4050   48.1850 C   0  0  0  0  0  0  0  0  0  0  0  0
   39.0630   32.2260   47.4970 C   0  0  0  0  0  0  0  0  0  0  0  0
   36.8480   32.9920   50.5680 H   0  0  0  0  0  0  0  0  0  0  0  0
   38.5860   34.6100   49.8780 H   0  0  0  0  0  0  0  0  0  0  0  0
   40.0140   34.1420   47.9180 H   0  0  0  0  0  0  0  0  0  0  0  0
   35.1200   30.4710   48.6390 C   0  0  0  0  0  0  0  0  0  0  0  0
   36.2500   30.6700   49.4370 C   0  0  0  0  0  0  0  0  0  0  0  0
   36.3470   29.9390   50.6300 C   0  0  0  0  0  0  0  0  0  0  0  0
   35.3490   29.0830   50.9460 N   0  0  0  0  0  0  0  0  0  0  0  0
   34.2610   28.9200   50.1360 C   0  0  0  0  0  0  0  0  0  0  0  0
   34.1650   29.6100   49.0050 N   0  0  0  0  0  0  0  0  0  0  0  0
   35.0490   31.0380   47.7180 H   0  0  0  0  0  0  0  0  0  0  0  0
   33.5290   28.2000   50.5060 H   0  0  0  0  0  0  0  0  0  0  0  0
   37.5260   30.1120   51.5140 C   0  0  0  0  0  0  0  0  0  0  0  0
   38.4380   30.1450   50.8600 H   0  0  0  0  0  0  0  0  0  0  0  0
   37.4320   30.9710   52.1850 H   0  0  0  0  0  0  0  0  0  0  0  0
   37.6250   29.1390   52.0640 H   0  0  0  0  0  0  0  0  0  0  0  0
   37.9540   30.2260   47.1900 O   0  0  0  0  0  0  0  0  0  0  0  0
   38.5940   29.4620   47.3300 H   0  0  0  0  0  0  0  0  0  0  0  0
   39.8800   32.0080   46.4160 O   0  0  0  0  0  0  0  0  0  0  0  0
   39.9500   30.7970   44.2300 C   0  0  0  0  0  0  0  0  0  0  0  0
   39.4950   31.7370   45.1270 C   0  0  0  0  0  0  0  0  0  0  0  0
   38.4650   32.5950   44.7250 C   0  0  0  0  0  0  0  0  0  0  0  0
   37.9170   32.4930   43.4370 C   0  0  0  0  0  0  0  0  0  0  0  0
   36.9440   33.1530   42.7680 N   0  0  0  0  0  0  0  0  0  0  0  0
   36.8150   32.6440   41.5340 C   0  0  0  0  0  0  0  0  0  0  0  0
   37.7220   31.6470   41.4270 N   0  0  0  0  0  0  0  0  0  0  0  0
   38.4040   31.5410   42.5840 C   0  0  0  0  0  0  0  0  0  0  0  0
   39.4170   30.6930   42.9710 C   0  0  0  0  0  0  0  0  0  0  0  0
   40.7470   30.1840   44.6420 H   0  0  0  0  0  0  0  0  0  0  0  0
   38.0050   33.3830   45.3210 H   0  0  0  0  0  0  0  0  0  0  0  0
   36.3830   33.9530   43.1870 H   0  0  0  0  0  0  0  0  0  0  0  0
   36.1150   32.9830   40.7900 H   0  0  0  0  0  0  0  0  0  0  0  0
   38.4840   28.0130   42.7480 F   0  0  0  0  0  0  0  0  0  0  0  0
   39.5200   28.3640   41.9590 C   0  0  0  0  0  0  0  0  0  0  0  0
   39.9600   29.6670   42.0810 C   0  0  0  0  0  0  0  0  0  0  0  0
   41.0250   30.1620   41.3230 C   0  0  0  0  0  0  0  0  0  0  0  0
   41.4190   31.1580   41.3640 H   0  0  0  0  0  0  0  0  0  0  0  0
   41.6600   29.3150   40.4210 C   0  0  0  0  0  0  0  0  0  0  0  0
   42.4910   29.6320   39.8030 H   0  0  0  0  0  0  0  0  0  0  0  0
   41.1920   28.0200   40.3280 C   0  0  0  0  0  3  0  0  0  0  0  0
   40.1430   27.5080   41.0640 C   0  0  0  0  0  3  0  0  0  0  0  0
  1  2  1  0  0  0  0
  2 11  1  0  0  0  0
  2  3  2  0  0  0  0
  3  7  1  0  0  0  0
  4  3  1  0  0  0  0
  4  8  1  0  0  0  0
  5  4  2  0  0  0  0
  6  1  2  0  0  0  0
  6  5  1  0  0  0  0
  9  5  1  0  0  0  0
 10 15  2  0  0  0  0
 10 11  1  0  0  0  0
 11 12  2  0  0  0  0
 12 13  1  0  0  0  0
 12 18  1  0  0  0  0
 14 17  1  0  0  0  0
 14 13  2  0  0  0  0
 15 14  1  0  0  0  0
 16 10  1  0  0  0  0
 18 21  1  0  0  0  0
 18 20  1  0  0  0  0
 19 18  1  0  0  0  0
 22 23  1  0  0  0  0
 22  1  1  0  0  0  0
 24  6  1  0  0  0  0
 25 34  1  0  0  0  0
 25 26  1  0  0  0  0
 26 24  1  0  0  0  0
 27 26  2  0  0  0  0
 27 35  1  0  0  0  0
 28 27  1  0  0  0  0
 29 36  1  0  0  0  0
 29 28  1  0  0  0  0
 30 29  1  0  0  0  0
 31 30  2  0  0  0  0
 31 32  1  0  0  0  0
 32 33  1  0  0  0  0
 32 28  2  0  0  0  0
 33 25  2  0  0  0  0
 37 30  1  0  0  0  0
 39 40  1  0  0  0  0
 39 38  1  0  0  0  0
 40 33  1  0  0  0  0
 41 42  1  0  0  0  0
 41 40  2  0  0  0  0
 43 41  1  0  0  0  0
 44 43  1  0  0  0  0
 45 43  2  0  0  0  0
 45 46  1  0  0  0  0
 46 39  2  0  0  0  0
M  END
>  <minimizedAffinity>
-7.71750355

>  <minimizedRMSD>
0.986738861

$$$$
