
 OpenBabel03262522333D

 27 29  0  0  0  0  0  0  0  0999 V2000
   36.6050   27.9300   33.5640 C   0  0  0  0  0  0  0  0  0  0  0  0
   36.7310   28.4690   32.3120 C   0  0  0  0  0  0  0  0  0  0  0  0
   36.2060   29.6940   31.9350 C   0  0  0  0  0  0  0  0  0  0  0  0
   35.5140   30.4250   32.8630 C   0  0  0  0  0  0  0  0  0  0  0  0
   35.3980   29.8720   34.1110 C   0  0  0  0  0  0  0  0  0  0  0  0
   35.9210   28.6790   34.4400 N   0  0  0  0  0  0  0  0  0  0  0  0
   37.2780   27.9120   31.5400 H   0  0  0  0  0  0  0  0  0  0  0  0
   36.3560   30.0450   30.9100 H   0  0  0  0  0  0  0  0  0  0  0  0
   35.1110   31.3760   32.5550 H   0  0  0  0  0  0  0  0  0  0  0  0
   37.4240   25.6070   33.0140 C   0  0  0  0  0  0  0  0  0  0  0  0
   37.1630   26.6360   33.9440 C   0  0  0  0  0  0  0  0  0  0  0  0
   37.4470   26.4090   35.2750 C   0  0  0  0  0  0  0  0  0  0  0  0
   37.9710   25.1920   35.6240 N   0  0  0  0  0  0  0  0  0  0  0  0
   38.2100   24.2260   34.6990 C   0  0  0  0  0  0  0  0  0  0  0  0
   37.9410   24.4280   33.4090 N   0  0  0  0  0  0  0  0  0  0  0  0
   37.1690   25.8790   32.0010 H   0  0  0  0  0  0  0  0  0  0  0  0
   37.2790   27.1380   36.0580 H   0  0  0  0  0  0  0  0  0  0  0  0
   38.6250   23.2680   34.9880 H   0  0  0  0  0  0  0  0  0  0  0  0
   36.6760   31.6180   35.8490 F   0  0  0  0  0  0  0  0  0  0  0  0
   35.3210   31.4630   36.0170 C   0  0  0  0  0  0  0  0  0  0  0  0
   34.6740   30.5930   35.1530 C   0  0  0  0  0  0  0  0  0  0  0  0
   33.3200   30.5030   35.3980 C   0  0  0  0  0  0  0  0  0  0  0  0
   32.7320   29.8460   34.7730 H   0  0  0  0  0  0  0  0  0  0  0  0
   32.6810   31.2050   36.3970 C   0  0  0  0  0  0  0  0  0  0  0  0
   31.6150   31.0970   36.5470 H   0  0  0  0  0  0  0  0  0  0  0  0
   33.3980   32.0530   37.2170 C   0  0  0  0  0  3  0  0  0  0  0  0
   34.7580   32.1990   37.0370 C   0  0  0  0  0  3  0  0  0  0  0  0
  1 11  1  0  0  0  0
  1  6  1  0  0  0  0
  2  1  2  0  0  0  0
  3  2  1  0  0  0  0
  3  4  2  0  0  0  0
  4  5  1  0  0  0  0
  5  6  2  0  0  0  0
  5 21  1  0  0  0  0
  7  2  1  0  0  0  0
  8  3  1  0  0  0  0
  9  4  1  0  0  0  0
 10 15  2  0  0  0  0
 10 11  1  0  0  0  0
 11 12  2  0  0  0  0
 12 13  1  0  0  0  0
 12 17  1  0  0  0  0
 14 18  1  0  0  0  0
 14 13  2  0  0  0  0
 15 14  1  0  0  0  0
 16 10  1  0  0  0  0
 19 20  1  0  0  0  0
 20 27  1  0  0  0  0
 21 22  1  0  0  0  0
 21 20  2  0  0  0  0
 22 24  2  0  0  0  0
 23 22  1  0  0  0  0
 24 25  1  0  0  0  0
 24 26  1  0  0  0  0
 27 26  2  0  0  0  0
M  END
>  <minimizedAffinity>
-5.53084755

$$$$

 OpenBabel03262522333D

 27 29  0  0  0  0  0  0  0  0999 V2000
   36.6690   27.8770   33.5390 C   0  0  0  0  0  0  0  0  0  0  0  0
   36.7420   28.3730   32.2650 C   0  0  0  0  0  0  0  0  0  0  0  0
   36.2420   29.6050   31.8800 C   0  0  0  0  0  0  0  0  0  0  0  0
   35.6330   30.3920   32.8210 C   0  0  0  0  0  0  0  0  0  0  0  0
   35.5690   29.8810   34.0910 C   0  0  0  0  0  0  0  0  0  0  0  0
   36.0660   28.6780   34.4280 N   0  0  0  0  0  0  0  0  0  0  0  0
   37.2220   27.7710   31.4820 H   0  0  0  0  0  0  0  0  0  0  0  0
   36.3450   29.9200   30.8370 H   0  0  0  0  0  0  0  0  0  0  0  0
   35.2500   31.3480   32.5060 H   0  0  0  0  0  0  0  0  0  0  0  0
   37.4380   25.5330   33.0050 C   0  0  0  0  0  0  0  0  0  0  0  0
   37.1990   26.5740   33.9280 C   0  0  0  0  0  0  0  0  0  0  0  0
   37.4780   26.3510   35.2610 C   0  0  0  0  0  0  0  0  0  0  0  0
   37.9760   25.1250   35.6180 N   0  0  0  0  0  0  0  0  0  0  0  0
   38.1940   24.1470   34.7000 C   0  0  0  0  0  0  0  0  0  0  0  0
   37.9290   24.3470   33.4090 N   0  0  0  0  0  0  0  0  0  0  0  0
   37.1890   25.8040   31.9900 H   0  0  0  0  0  0  0  0  0  0  0  0
   37.3260   27.0880   36.0380 H   0  0  0  0  0  0  0  0  0  0  0  0
   38.5880   23.1830   34.9950 H   0  0  0  0  0  0  0  0  0  0  0  0
   32.8670   29.6400   34.6760 F   0  0  0  0  0  0  0  0  0  0  0  0
   33.5850   30.5330   35.4340 C   0  0  0  0  0  0  0  0  0  0  0  0
   34.9350   30.6600   35.1490 C   0  0  0  0  0  0  0  0  0  0  0  0
   35.5700   31.5770   35.9600 C   0  0  0  0  0  0  0  0  0  0  0  0
   36.6270   31.7440   35.8100 H   0  0  0  0  0  0  0  0  0  0  0  0
   34.9260   32.2900   36.9480 C   0  0  0  0  0  0  0  0  0  0  0  0
   35.4740   32.9990   37.5560 H   0  0  0  0  0  0  0  0  0  0  0  0
   33.5770   32.1060   37.1700 C   0  0  0  0  0  3  0  0  0  0  0  0
   32.8690   31.2060   36.4010 C   0  0  0  0  0  3  0  0  0  0  0  0
  1 11  1  0  0  0  0
  1  6  1  0  0  0  0
  2  1  2  0  0  0  0
  3  2  1  0  0  0  0
  3  4  2  0  0  0  0
  4  5  1  0  0  0  0
  5  6  2  0  0  0  0
  5 21  1  0  0  0  0
  7  2  1  0  0  0  0
  8  3  1  0  0  0  0
  9  4  1  0  0  0  0
 10 15  2  0  0  0  0
 10 11  1  0  0  0  0
 11 12  2  0  0  0  0
 12 13  1  0  0  0  0
 12 17  1  0  0  0  0
 14 18  1  0  0  0  0
 14 13  2  0  0  0  0
 15 14  1  0  0  0  0
 16 10  1  0  0  0  0
 19 20  1  0  0  0  0
 20 27  1  0  0  0  0
 21 20  2  0  0  0  0
 21 22  1  0  0  0  0
 22 24  2  0  0  0  0
 23 22  1  0  0  0  0
 24 26  1  0  0  0  0
 24 25  1  0  0  0  0
 27 26  2  0  0  0  0
M  END
>  <minimizedAffinity>
-5.45869064

$$$$

 OpenBabel03262522333D

 27 29  0  0  0  0  0  0  0  0999 V2000
   36.0800   23.1560   31.9330 C   0  0  0  0  0  0  0  0  0  0  0  0
   35.2680   23.9440   31.1620 C   0  0  0  0  0  0  0  0  0  0  0  0
   35.4010   25.3170   31.0430 C   0  0  0  0  0  0  0  0  0  0  0  0
   36.4050   25.9430   31.7320 C   0  0  0  0  0  0  0  0  0  0  0  0
   37.2090   25.1400   32.4980 C   0  0  0  0  0  0  0  0  0  0  0  0
   37.0490   23.8090   32.5900 N   0  0  0  0  0  0  0  0  0  0  0  0
   34.4510   23.4790   30.5950 H   0  0  0  0  0  0  0  0  0  0  0  0
   34.7040   25.8670   30.4030 H   0  0  0  0  0  0  0  0  0  0  0  0
   36.4960   27.0120   31.6290 H   0  0  0  0  0  0  0  0  0  0  0  0
   35.6590   21.0600   33.2740 C   0  0  0  0  0  0  0  0  0  0  0  0
   35.9240   21.7100   32.0500 C   0  0  0  0  0  0  0  0  0  0  0  0
   36.0420   20.9430   30.9080 C   0  0  0  0  0  0  0  0  0  0  0  0
   35.8940   19.5860   31.0260 N   0  0  0  0  0  0  0  0  0  0  0  0
   35.6380   18.9960   32.2220 C   0  0  0  0  0  0  0  0  0  0  0  0
   35.5220   19.7220   33.3350 N   0  0  0  0  0  0  0  0  0  0  0  0
   35.5850   21.7430   34.1070 H   0  0  0  0  0  0  0  0  0  0  0  0
   36.2450   21.3530   29.9270 H   0  0  0  0  0  0  0  0  0  0  0  0
   35.5220   17.9220   32.3020 H   0  0  0  0  0  0  0  0  0  0  0  0
   36.7990   26.3070   34.9830 F   0  0  0  0  0  0  0  0  0  0  0  0
   38.0870   26.3140   34.5030 C   0  0  0  0  0  0  0  0  0  0  0  0
   38.3010   25.7340   33.2620 C   0  0  0  0  0  0  0  0  0  0  0  0
   39.6200   25.7890   32.8660 C   0  0  0  0  0  0  0  0  0  0  0  0
   39.8830   25.3610   31.9090 H   0  0  0  0  0  0  0  0  0  0  0  0
   40.6180   26.3620   33.6250 C   0  0  0  0  0  0  0  0  0  0  0  0
   41.6380   26.3790   33.2640 H   0  0  0  0  0  0  0  0  0  0  0  0
   40.3230   26.9210   34.8510 C   0  0  0  0  0  3  0  0  0  0  0  0
   39.0250   26.9060   35.3210 C   0  0  0  0  0  3  0  0  0  0  0  0
  1 11  1  0  0  0  0
  1  6  1  0  0  0  0
  2  1  2  0  0  0  0
  3  2  1  0  0  0  0
  3  4  2  0  0  0  0
  4  5  1  0  0  0  0
  5  6  2  0  0  0  0
  5 21  1  0  0  0  0
  7  2  1  0  0  0  0
  8  3  1  0  0  0  0
  9  4  1  0  0  0  0
 10 15  1  0  0  0  0
 10 16  1  0  0  0  0
 11 10  2  0  0  0  0
 12 13  2  0  0  0  0
 12 11  1  0  0  0  0
 13 14  1  0  0  0  0
 14 18  1  0  0  0  0
 14 15  2  0  0  0  0
 17 12  1  0  0  0  0
 20 19  1  0  0  0  0
 20 27  1  0  0  0  0
 21 20  2  0  0  0  0
 22 21  1  0  0  0  0
 22 24  2  0  0  0  0
 23 22  1  0  0  0  0
 24 26  1  0  0  0  0
 25 24  1  0  0  0  0
 26 27  2  0  0  0  0
M  END
>  <minimizedAffinity>
-5.26597929

$$$$

 OpenBabel03262522333D

 27 29  0  0  0  0  0  0  0  0999 V2000
   36.0940   28.0370   31.9650 C   0  0  0  0  0  0  0  0  0  0  0  0
   36.3940   28.8460   30.9010 C   0  0  0  0  0  0  0  0  0  0  0  0
   36.2840   30.2260   30.9180 C   0  0  0  0  0  0  0  0  0  0  0  0
   35.8500   30.8380   32.0630 C   0  0  0  0  0  0  0  0  0  0  0  0
   35.5550   30.0150   33.1180 C   0  0  0  0  0  0  0  0  0  0  0  0
   35.6740   28.6760   33.0650 N   0  0  0  0  0  0  0  0  0  0  0  0
   36.7440   28.3920   29.9650 H   0  0  0  0  0  0  0  0  0  0  0  0
   36.5450   30.7920   30.0190 H   0  0  0  0  0  0  0  0  0  0  0  0
   35.7690   31.9120   32.0610 H   0  0  0  0  0  0  0  0  0  0  0  0
   37.1230   25.8650   32.7340 C   0  0  0  0  0  0  0  0  0  0  0  0
   36.2130   26.5830   31.9300 C   0  0  0  0  0  0  0  0  0  0  0  0
   35.3970   25.8790   31.0680 C   0  0  0  0  0  0  0  0  0  0  0  0
   35.5140   24.5140   31.0420 N   0  0  0  0  0  0  0  0  0  0  0  0
   36.4010   23.8570   31.8330 C   0  0  0  0  0  0  0  0  0  0  0  0
   37.1980   24.5220   32.6700 N   0  0  0  0  0  0  0  0  0  0  0  0
   37.7160   26.5030   33.3720 H   0  0  0  0  0  0  0  0  0  0  0  0
   34.6710   26.3430   30.4140 H   0  0  0  0  0  0  0  0  0  0  0  0
   36.4840   22.7780   31.8020 H   0  0  0  0  0  0  0  0  0  0  0  0
   32.9050   29.8300   33.9220 F   0  0  0  0  0  0  0  0  0  0  0  0
   33.7610   30.4950   34.7670 C   0  0  0  0  0  0  0  0  0  0  0  0
   35.0870   30.5920   34.3730 C   0  0  0  0  0  0  0  0  0  0  0  0
   35.8670   31.2740   35.2830 C   0  0  0  0  0  0  0  0  0  0  0  0
   36.9160   31.4010   35.0600 H   0  0  0  0  0  0  0  0  0  0  0  0
   35.3770   31.8030   36.4580 C   0  0  0  0  0  0  0  0  0  0  0  0
   36.0340   32.3310   37.1360 H   0  0  0  0  0  0  0  0  0  0  0  0
   34.0420   31.6640   36.7780 C   0  0  0  0  0  3  0  0  0  0  0  0
   33.1930   30.9940   35.9200 C   0  0  0  0  0  3  0  0  0  0  0  0
  1  6  1  0  0  0  0
  2  3  1  0  0  0  0
  2  1  2  0  0  0  0
  3  4  2  0  0  0  0
  4  5  1  0  0  0  0
  5 21  1  0  0  0  0
  6  5  2  0  0  0  0
  7  2  1  0  0  0  0
  8  3  1  0  0  0  0
  9  4  1  0  0  0  0
 10 16  1  0  0  0  0
 11  1  1  0  0  0  0
 11 10  2  0  0  0  0
 12 11  1  0  0  0  0
 13 12  2  0  0  0  0
 13 14  1  0  0  0  0
 14 15  2  0  0  0  0
 15 10  1  0  0  0  0
 17 12  1  0  0  0  0
 18 14  1  0  0  0  0
 19 20  1  0  0  0  0
 20 27  1  0  0  0  0
 21 20  2  0  0  0  0
 21 22  1  0  0  0  0
 22 24  2  0  0  0  0
 23 22  1  0  0  0  0
 24 26  1  0  0  0  0
 24 25  1  0  0  0  0
 27 26  2  0  0  0  0
M  END
>  <minimizedAffinity>
-5.22747421

$$$$

 OpenBabel03262522333D

 27 29  0  0  0  0  0  0  0  0999 V2000
   38.5260   25.6360   33.2980 C   0  0  0  0  0  0  0  0  0  0  0  0
   39.1760   26.8410   33.3400 C   0  0  0  0  0  0  0  0  0  0  0  0
   40.3120   27.0860   34.0930 C   0  0  0  0  0  0  0  0  0  0  0  0
   40.8310   26.0700   34.8500 C   0  0  0  0  0  0  0  0  0  0  0  0
   40.1690   24.8710   34.7960 C   0  0  0  0  0  0  0  0  0  0  0  0
   39.0670   24.6700   34.0520 N   0  0  0  0  0  0  0  0  0  0  0  0
   38.7890   27.6800   32.7480 H   0  0  0  0  0  0  0  0  0  0  0  0
   40.7640   28.0810   34.0660 H   0  0  0  0  0  0  0  0  0  0  0  0
   41.7150   26.2760   35.4310 H   0  0  0  0  0  0  0  0  0  0  0  0
   36.5520   26.4340   31.9420 C   0  0  0  0  0  0  0  0  0  0  0  0
   37.3270   25.3950   32.5000 C   0  0  0  0  0  0  0  0  0  0  0  0
   36.9350   24.0900   32.2840 C   0  0  0  0  0  0  0  0  0  0  0  0
   35.8100   23.8710   31.5330 N   0  0  0  0  0  0  0  0  0  0  0  0
   35.0900   24.8980   31.0100 C   0  0  0  0  0  0  0  0  0  0  0  0
   35.4540   26.1640   31.2110 N   0  0  0  0  0  0  0  0  0  0  0  0
   36.9380   27.4160   32.1670 H   0  0  0  0  0  0  0  0  0  0  0  0
   37.4660   23.2310   32.6720 H   0  0  0  0  0  0  0  0  0  0  0  0
   34.2020   24.7120   30.4190 H   0  0  0  0  0  0  0  0  0  0  0  0
   38.9110   24.0280   37.1220 F   0  0  0  0  0  0  0  0  0  0  0  0
   40.0270   23.3270   36.7350 C   0  0  0  0  0  0  0  0  0  0  0  0
   40.6620   23.7410   35.5750 C   0  0  0  0  0  0  0  0  0  0  0  0
   41.7690   22.9780   35.2690 C   0  0  0  0  0  0  0  0  0  0  0  0
   42.3300   23.2280   34.3800 H   0  0  0  0  0  0  0  0  0  0  0  0
   42.1970   21.9170   36.0380 C   0  0  0  0  0  0  0  0  0  0  0  0
   43.0740   21.3520   35.7510 H   0  0  0  0  0  0  0  0  0  0  0  0
   41.5090   21.5670   37.1820 C   0  0  0  0  0  3  0  0  0  0  0  0
   40.3890   22.2800   37.5580 C   0  0  0  0  0  3  0  0  0  0  0  0
  1  2  2  0  0  0  0
  1  6  1  0  0  0  0
  2  3  1  0  0  0  0
  3  4  2  0  0  0  0
  4  9  1  0  0  0  0
  5  4  1  0  0  0  0
  5 21  1  0  0  0  0
  6  5  2  0  0  0  0
  7  2  1  0  0  0  0
  8  3  1  0  0  0  0
 10 16  1  0  0  0  0
 10 11  1  0  0  0  0
 11  1  1  0  0  0  0
 12 11  2  0  0  0  0
 12 17  1  0  0  0  0
 13 12  1  0  0  0  0
 14 15  1  0  0  0  0
 14 13  2  0  0  0  0
 15 10  2  0  0  0  0
 18 14  1  0  0  0  0
 20 19  1  0  0  0  0
 20 27  1  0  0  0  0
 21 20  2  0  0  0  0
 22 21  1  0  0  0  0
 22 24  2  0  0  0  0
 23 22  1  0  0  0  0
 24 26  1  0  0  0  0
 25 24  1  0  0  0  0
 26 27  2  0  0  0  0
M  END
>  <minimizedAffinity>
-5.1517415

$$$$

 OpenBabel03262522333D

 27 29  0  0  0  0  0  0  0  0999 V2000
   37.4220   25.3200   32.8040 C   0  0  0  0  0  0  0  0  0  0  0  0
   37.5240   24.2390   31.9710 C   0  0  0  0  0  0  0  0  0  0  0  0
   37.9000   22.9710   32.3830 C   0  0  0  0  0  0  0  0  0  0  0  0
   38.1910   22.7700   33.7060 C   0  0  0  0  0  0  0  0  0  0  0  0
   38.0830   23.8620   34.5260 C   0  0  0  0  0  0  0  0  0  0  0  0
   37.7150   25.0790   34.0890 N   0  0  0  0  0  0  0  0  0  0  0  0
   37.3000   24.3610   30.9030 H   0  0  0  0  0  0  0  0  0  0  0  0
   37.9550   22.1650   31.6450 H   0  0  0  0  0  0  0  0  0  0  0  0
   38.4820   21.7780   34.0110 H   0  0  0  0  0  0  0  0  0  0  0  0
   36.6800   27.6930   33.2370 C   0  0  0  0  0  0  0  0  0  0  0  0
   37.0270   26.6510   32.3520 C   0  0  0  0  0  0  0  0  0  0  0  0
   36.9910   26.8980   30.9940 C   0  0  0  0  0  0  0  0  0  0  0  0
   36.6200   28.1500   30.5780 N   0  0  0  0  0  0  0  0  0  0  0  0
   36.2940   29.1300   31.4610 C   0  0  0  0  0  0  0  0  0  0  0  0
   36.3220   28.9060   32.7750 N   0  0  0  0  0  0  0  0  0  0  0  0
   36.7370   27.4020   34.2750 H   0  0  0  0  0  0  0  0  0  0  0  0
   37.2400   26.1610   30.2420 H   0  0  0  0  0  0  0  0  0  0  0  0
   36.0020   30.1150   31.1190 H   0  0  0  0  0  0  0  0  0  0  0  0
   40.3480   22.5420   35.4390 F   0  0  0  0  0  0  0  0  0  0  0  0
   39.5100   23.0650   36.3960 C   0  0  0  0  0  0  0  0  0  0  0  0
   38.3770   23.7260   35.9480 C   0  0  0  0  0  0  0  0  0  0  0  0
   37.6010   24.2150   36.9780 C   0  0  0  0  0  0  0  0  0  0  0  0
   36.6940   24.7450   36.7250 H   0  0  0  0  0  0  0  0  0  0  0  0
   37.9210   24.0600   38.3100 C   0  0  0  0  0  0  0  0  0  0  0  0
   37.2750   24.4640   39.0780 H   0  0  0  0  0  0  0  0  0  0  0  0
   39.0690   23.3880   38.6740 C   0  0  0  0  0  3  0  0  0  0  0  0
   39.9010   22.8680   37.7030 C   0  0  0  0  0  3  0  0  0  0  0  0
  1  6  1  0  0  0  0
  2  3  1  0  0  0  0
  2  1  2  0  0  0  0
  3  4  2  0  0  0  0
  4  9  1  0  0  0  0
  4  5  1  0  0  0  0
  5 21  1  0  0  0  0
  6  5  2  0  0  0  0
  7  2  1  0  0  0  0
  8  3  1  0  0  0  0
 10 16  1  0  0  0  0
 11  1  1  0  0  0  0
 11 10  2  0  0  0  0
 12 11  1  0  0  0  0
 13 12  2  0  0  0  0
 13 14  1  0  0  0  0
 14 15  2  0  0  0  0
 15 10  1  0  0  0  0
 17 12  1  0  0  0  0
 18 14  1  0  0  0  0
 19 20  1  0  0  0  0
 20 27  1  0  0  0  0
 21 20  2  0  0  0  0
 21 22  1  0  0  0  0
 22 24  2  0  0  0  0
 23 22  1  0  0  0  0
 24 26  1  0  0  0  0
 24 25  1  0  0  0  0
 27 26  2  0  0  0  0
M  END
>  <minimizedAffinity>
-5.06467581

$$$$

 OpenBabel03262522333D

 27 29  0  0  0  0  0  0  0  0999 V2000
   36.6420   29.4690   31.6340 C   0  0  0  0  0  0  0  0  0  0  0  0
   37.0040   28.1780   31.9110 C   0  0  0  0  0  0  0  0  0  0  0  0
   36.7970   27.5560   33.1300 C   0  0  0  0  0  0  0  0  0  0  0  0
   36.1920   28.2630   34.1350 C   0  0  0  0  0  0  0  0  0  0  0  0
   35.8350   29.5530   33.8410 C   0  0  0  0  0  0  0  0  0  0  0  0
   36.0520   30.1240   32.6440 N   0  0  0  0  0  0  0  0  0  0  0  0
   37.4930   27.5800   31.1310 H   0  0  0  0  0  0  0  0  0  0  0  0
   37.1210   26.5190   33.2620 H   0  0  0  0  0  0  0  0  0  0  0  0
   36.0380   27.7660   35.0780 H   0  0  0  0  0  0  0  0  0  0  0  0
   36.5050   31.4470   30.0720 C   0  0  0  0  0  0  0  0  0  0  0  0
   36.8700   30.1110   30.3430 C   0  0  0  0  0  0  0  0  0  0  0  0
   37.4690   29.3740   29.3410 C   0  0  0  0  0  0  0  0  0  0  0  0
   37.6810   29.9840   28.1330 N   0  0  0  0  0  0  0  0  0  0  0  0
   37.3180   31.2740   27.9090 C   0  0  0  0  0  0  0  0  0  0  0  0
   36.7360   31.9990   28.8660 N   0  0  0  0  0  0  0  0  0  0  0  0
   36.0440   31.9380   30.9150 H   0  0  0  0  0  0  0  0  0  0  0  0
   37.7820   28.3450   29.4570 H   0  0  0  0  0  0  0  0  0  0  0  0
   37.4900   31.7440   26.9490 H   0  0  0  0  0  0  0  0  0  0  0  0
   33.0970   29.4430   34.2870 F   0  0  0  0  0  0  0  0  0  0  0  0
   33.8170   30.3080   35.0760 C   0  0  0  0  0  0  0  0  0  0  0  0
   35.1850   30.3700   34.8600 C   0  0  0  0  0  0  0  0  0  0  0  0
   35.8190   31.2620   35.6980 C   0  0  0  0  0  0  0  0  0  0  0  0
   36.8900   31.3790   35.6010 H   0  0  0  0  0  0  0  0  0  0  0  0
   35.1600   32.0140   36.6470 C   0  0  0  0  0  0  0  0  0  0  0  0
   35.7080   32.7010   37.2780 H   0  0  0  0  0  0  0  0  0  0  0  0
   33.7940   31.8950   36.8000 C   0  0  0  0  0  3  0  0  0  0  0  0
   33.0840   31.0220   36.0010 C   0  0  0  0  0  3  0  0  0  0  0  0
  1  2  2  0  0  0  0
  1  6  1  0  0  0  0
  2  3  1  0  0  0  0
  3  8  1  0  0  0  0
  3  4  2  0  0  0  0
  4  9  1  0  0  0  0
  5  4  1  0  0  0  0
  5 21  1  0  0  0  0
  6  5  2  0  0  0  0
  7  2  1  0  0  0  0
 10 11  1  0  0  0  0
 10 16  1  0  0  0  0
 11  1  1  0  0  0  0
 12 17  1  0  0  0  0
 12 11  2  0  0  0  0
 13 12  1  0  0  0  0
 14 13  2  0  0  0  0
 14 15  1  0  0  0  0
 15 10  2  0  0  0  0
 18 14  1  0  0  0  0
 19 20  1  0  0  0  0
 20 27  1  0  0  0  0
 21 20  2  0  0  0  0
 21 22  1  0  0  0  0
 22 24  2  0  0  0  0
 23 22  1  0  0  0  0
 24 26  1  0  0  0  0
 24 25  1  0  0  0  0
 27 26  2  0  0  0  0
M  END
>  <minimizedAffinity>
-5.01628304

$$$$

 OpenBabel03262522333D

 27 29  0  0  0  0  0  0  0  0999 V2000
   37.3910   24.5930   32.6470 C   0  0  0  0  0  0  0  0  0  0  0  0
   36.4520   25.3560   32.0060 C   0  0  0  0  0  0  0  0  0  0  0  0
   35.3940   24.8390   31.2790 C   0  0  0  0  0  0  0  0  0  0  0  0
   35.2630   23.4800   31.1830 C   0  0  0  0  0  0  0  0  0  0  0  0
   36.2100   22.7300   31.8310 C   0  0  0  0  0  0  0  0  0  0  0  0
   37.2260   23.2690   32.5290 N   0  0  0  0  0  0  0  0  0  0  0  0
   36.5240   26.4500   32.0590 H   0  0  0  0  0  0  0  0  0  0  0  0
   34.6910   25.5260   30.7990 H   0  0  0  0  0  0  0  0  0  0  0  0
   34.4350   23.0920   30.6140 H   0  0  0  0  0  0  0  0  0  0  0  0
   39.3640   24.3710   34.2050 C   0  0  0  0  0  0  0  0  0  0  0  0
   38.5030   25.1550   33.4080 C   0  0  0  0  0  0  0  0  0  0  0  0
   38.7190   26.5170   33.3450 C   0  0  0  0  0  0  0  0  0  0  0  0
   39.7650   27.0360   34.0620 N   0  0  0  0  0  0  0  0  0  0  0  0
   40.5750   26.2490   34.8170 C   0  0  0  0  0  0  0  0  0  0  0  0
   40.3790   24.9320   34.8900 N   0  0  0  0  0  0  0  0  0  0  0  0
   39.1140   23.3210   34.1900 H   0  0  0  0  0  0  0  0  0  0  0  0
   38.1110   27.1950   32.7620 H   0  0  0  0  0  0  0  0  0  0  0  0
   41.3980   26.6720   35.3790 H   0  0  0  0  0  0  0  0  0  0  0  0
   35.2830   21.2230   33.9690 F   0  0  0  0  0  0  0  0  0  0  0  0
   35.6730   20.5300   32.8480 C   0  0  0  0  0  0  0  0  0  0  0  0
   36.1380   21.2740   31.7760 C   0  0  0  0  0  0  0  0  0  0  0  0
   36.5050   20.4930   30.7010 C   0  0  0  0  0  0  0  0  0  0  0  0
   36.8820   20.9880   29.8170 H   0  0  0  0  0  0  0  0  0  0  0  0
   36.4190   19.1170   30.6970 C   0  0  0  0  0  0  0  0  0  0  0  0
   36.7220   18.5520   29.8250 H   0  0  0  0  0  0  0  0  0  0  0  0
   35.9450   18.4490   31.8070 C   0  0  0  0  0  3  0  0  0  0  0  0
   35.5560   19.1580   32.9250 C   0  0  0  0  0  3  0  0  0  0  0  0
  1 11  1  0  0  0  0
  2  7  1  0  0  0  0
  2  1  2  0  0  0  0
  3  2  1  0  0  0  0
  4  3  2  0  0  0  0
  4  5  1  0  0  0  0
  5  6  2  0  0  0  0
  6  1  1  0  0  0  0
  8  3  1  0  0  0  0
  9  4  1  0  0  0  0
 10 15  1  0  0  0  0
 11 10  2  0  0  0  0
 12 11  1  0  0  0  0
 12 13  2  0  0  0  0
 13 14  1  0  0  0  0
 14 15  2  0  0  0  0
 14 18  1  0  0  0  0
 16 10  1  0  0  0  0
 17 12  1  0  0  0  0
 20 27  1  0  0  0  0
 20 19  1  0  0  0  0
 21  5  1  0  0  0  0
 21 20  2  0  0  0  0
 22 21  1  0  0  0  0
 23 22  1  0  0  0  0
 24 22  2  0  0  0  0
 24 26  1  0  0  0  0
 25 24  1  0  0  0  0
 26 27  2  0  0  0  0
M  END
>  <minimizedAffinity>
-4.99543715

$$$$

 OpenBabel03262522333D

 27 29  0  0  0  0  0  0  0  0999 V2000
   36.6110   29.3660   31.9190 C   0  0  0  0  0  0  0  0  0  0  0  0
   37.0460   28.1330   32.3260 C   0  0  0  0  0  0  0  0  0  0  0  0
   36.7840   27.5870   33.5710 C   0  0  0  0  0  0  0  0  0  0  0  0
   36.0440   28.3140   34.4650 C   0  0  0  0  0  0  0  0  0  0  0  0
   35.6160   29.5450   34.0430 C   0  0  0  0  0  0  0  0  0  0  0  0
   35.8900   30.0430   32.8240 N   0  0  0  0  0  0  0  0  0  0  0  0
   37.6430   27.5210   31.6370 H   0  0  0  0  0  0  0  0  0  0  0  0
   37.1730   26.5930   33.8100 H   0  0  0  0  0  0  0  0  0  0  0  0
   35.8490   27.8760   35.4300 H   0  0  0  0  0  0  0  0  0  0  0  0
   37.3470   29.1500   29.5150 C   0  0  0  0  0  0  0  0  0  0  0  0
   36.8980   29.9280   30.6030 C   0  0  0  0  0  0  0  0  0  0  0  0
   36.7220   31.2840   30.4160 C   0  0  0  0  0  0  0  0  0  0  0  0
   36.9930   31.8040   29.1780 N   0  0  0  0  0  0  0  0  0  0  0  0
   37.4220   31.0220   28.1530 C   0  0  0  0  0  0  0  0  0  0  0  0
   37.5980   29.7110   28.3170 N   0  0  0  0  0  0  0  0  0  0  0  0
   37.4540   28.1040   29.7600 H   0  0  0  0  0  0  0  0  0  0  0  0
   36.3830   31.9580   31.1920 H   0  0  0  0  0  0  0  0  0  0  0  0
   37.6330   31.4450   27.1790 H   0  0  0  0  0  0  0  0  0  0  0  0
   36.7910   31.2690   35.8730 F   0  0  0  0  0  0  0  0  0  0  0  0
   35.4180   31.2370   35.8500 C   0  0  0  0  0  0  0  0  0  0  0  0
   34.8220   30.3780   34.9390 C   0  0  0  0  0  0  0  0  0  0  0  0
   33.4450   30.4160   34.9900 C   0  0  0  0  0  0  0  0  0  0  0  0
   32.8930   29.7780   34.3140 H   0  0  0  0  0  0  0  0  0  0  0  0
   32.7380   31.2220   35.8560 C   0  0  0  0  0  0  0  0  0  0  0  0
   31.6560   31.2110   35.8550 H   0  0  0  0  0  0  0  0  0  0  0  0
   33.4060   32.0490   36.7350 C   0  0  0  0  0  3  0  0  0  0  0  0
   34.7860   32.0720   36.7470 C   0  0  0  0  0  3  0  0  0  0  0  0
  1  2  2  0  0  0  0
  1  6  1  0  0  0  0
  2  3  1  0  0  0  0
  3  8  1  0  0  0  0
  3  4  2  0  0  0  0
  4  9  1  0  0  0  0
  5  4  1  0  0  0  0
  5 21  1  0  0  0  0
  6  5  2  0  0  0  0
  7  2  1  0  0  0  0
 10 16  1  0  0  0  0
 10 11  1  0  0  0  0
 11  1  1  0  0  0  0
 12 11  2  0  0  0  0
 12 17  1  0  0  0  0
 13 12  1  0  0  0  0
 14 15  1  0  0  0  0
 14 13  2  0  0  0  0
 15 10  2  0  0  0  0
 18 14  1  0  0  0  0
 20 19  1  0  0  0  0
 20 27  1  0  0  0  0
 21 22  1  0  0  0  0
 21 20  2  0  0  0  0
 22 24  2  0  0  0  0
 23 22  1  0  0  0  0
 24 26  1  0  0  0  0
 25 24  1  0  0  0  0
 26 27  2  0  0  0  0
M  END
>  <minimizedAffinity>
-4.9378376

$$$$
