
 OpenBabel03272504343D

 40 43  0  0  0  0  0  0  0  0999 V2000
   39.0540   25.0920   35.2840 C   0  0  0  0  0  0  0  0  0  0  0  0
   40.3180   25.3190   34.7750 C   0  0  0  0  0  0  0  0  0  0  0  0
   40.5280   26.3450   33.8630 C   0  0  0  0  0  0  0  0  0  0  0  0
   39.4450   27.0960   33.5070 N   0  0  0  0  0  0  0  0  0  0  0  0
   38.2200   26.8540   34.0180 C   0  0  0  0  0  0  0  0  0  0  0  0
   38.0180   25.8590   34.9020 N   0  0  0  0  0  0  0  0  0  0  0  0
   41.1370   24.6960   35.0920 H   0  0  0  0  0  0  0  0  0  0  0  0
   41.5030   26.5480   33.4490 H   0  0  0  0  0  0  0  0  0  0  0  0
   38.7740   24.0530   36.2250 N   0  0  0  0  0  0  0  0  0  0  0  0
   37.8010   24.2190   37.2940 C   0  0  0  0  0  0  0  0  0  0  0  0
   38.2450   23.6960   38.6170 C   0  0  0  0  0  0  0  0  0  0  0  0
   39.1870   22.6520   38.6370 N   0  0  0  0  0  0  0  0  0  0  0  0
   40.1530   22.6800   37.5490 C   0  0  0  0  0  0  0  0  0  0  0  0
   39.3630   22.7550   36.2730 C   0  0  0  0  0  0  0  0  0  0  0  0
   36.8450   23.7300   36.9620 H   0  0  0  0  0  0  0  0  0  0  0  0
   37.5670   25.3070   37.3500 H   0  0  0  0  0  0  0  0  0  0  0  0
   38.6490   24.5770   39.1900 H   0  0  0  0  0  0  0  0  0  0  0  0
   37.3360   23.3610   39.1840 H   0  0  0  0  0  0  0  0  0  0  0  0
   38.8120   21.7000   38.8050 H   0  0  0  0  0  0  0  0  0  0  0  0
   40.7060   21.7270   37.5750 H   0  0  0  0  0  0  0  0  0  0  0  0
   40.8110   23.5570   37.6270 H   0  0  0  0  0  0  0  0  0  0  0  0
   40.0410   22.6320   35.3830 H   0  0  0  0  0  0  0  0  0  0  0  0
   38.5780   21.9800   36.2580 H   0  0  0  0  0  0  0  0  0  0  0  0
   37.0880   27.6890   33.6020 C   0  0  0  0  0  0  0  0  0  0  0  0
   36.5570   27.5780   32.3470 C   0  0  0  0  0  0  0  0  0  0  0  0
   35.4930   28.3380   31.9060 C   0  0  0  0  0  0  0  0  0  0  0  0
   34.9910   29.2240   32.8130 N   0  0  0  0  0  0  0  0  0  0  0  0
   35.5190   29.3220   34.0350 C   0  0  0  0  0  0  0  0  0  0  0  0
   36.5620   28.5700   34.4540 N   0  0  0  0  0  0  0  0  0  0  0  0
   36.9760   26.8720   31.6600 H   0  0  0  0  0  0  0  0  0  0  0  0
   35.0670   28.2630   30.9290 H   0  0  0  0  0  0  0  0  0  0  0  0
   32.8340   29.2680   34.8270 F   0  0  0  0  0  0  0  0  0  0  0  0
   33.6550   30.2140   35.3700 C   0  0  0  0  0  0  0  0  0  0  0  0
   34.9730   30.2820   35.0170 C   0  0  0  0  0  0  0  0  0  0  0  0
   35.7400   31.2620   35.6050 C   0  0  0  0  0  0  0  0  0  0  0  0
   36.7910   31.3000   35.3090 H   0  0  0  0  0  0  0  0  0  0  0  0
   35.2350   32.1610   36.5220 C   0  0  0  0  0  0  0  0  0  0  0  0
   35.8700   32.9170   36.9620 H   0  0  0  0  0  0  0  0  0  0  0  0
   33.8910   32.0260   36.8260 C   0  0  0  0  0  3  0  0  0  0  0  0
   33.0710   31.0680   36.2730 C   0  0  0  0  0  3  0  0  0  0  0  0
  1  9  1  0  0  0  0
  2  7  1  0  0  0  0
  2  1  2  0  0  0  0
  3  2  1  0  0  0  0
  4  3  2  0  0  0  0
  4  5  1  0  0  0  0
  5  6  2  0  0  0  0
  6  1  1  0  0  0  0
  8  3  1  0  0  0  0
  9 14  1  0  0  0  0
  9 10  1  0  0  0  0
 10 16  1  0  0  0  0
 10 11  1  0  0  0  0
 11 12  1  0  0  0  0
 11 18  1  0  0  0  0
 11 17  1  0  0  0  0
 12 19  1  0  0  0  0
 13 20  1  0  0  0  0
 13 21  1  0  0  0  0
 13 12  1  0  0  0  0
 14 13  1  0  0  0  0
 15 10  1  0  0  0  0
 22 14  1  0  0  0  0
 23 14  1  0  0  0  0
 24  5  1  0  0  0  0
 24 29  1  0  0  0  0
 25 24  2  0  0  0  0
 26 25  1  0  0  0  0
 26 27  2  0  0  0  0
 27 28  1  0  0  0  0
 28 29  2  0  0  0  0
 28 34  1  0  0  0  0
 30 25  1  0  0  0  0
 31 26  1  0  0  0  0
 32 33  1  0  0  0  0
 33 40  1  0  0  0  0
 34 33  2  0  0  0  0
 34 35  1  0  0  0  0
 35 37  2  0  0  0  0
 36 35  1  0  0  0  0
 37 39  1  0  0  0  0
 37 38  1  0  0  0  0
 40 39  2  0  0  0  0
M  END
>  <minimizedAffinity>
-6.97816181

$$$$

 OpenBabel03272504343D

 40 43  0  0  0  0  0  0  0  0999 V2000
   38.1040   24.5520   34.7190 C   0  0  0  0  0  0  0  0  0  0  0  0
   37.9410   23.5560   33.7750 C   0  0  0  0  0  0  0  0  0  0  0  0
   37.3790   23.8520   32.5400 C   0  0  0  0  0  0  0  0  0  0  0  0
   37.0070   25.1460   32.3170 N   0  0  0  0  0  0  0  0  0  0  0  0
   37.1770   26.1010   33.2550 C   0  0  0  0  0  0  0  0  0  0  0  0
   37.7220   25.8120   34.4520 N   0  0  0  0  0  0  0  0  0  0  0  0
   38.2530   22.5510   34.0050 H   0  0  0  0  0  0  0  0  0  0  0  0
   37.2390   23.0970   31.7830 H   0  0  0  0  0  0  0  0  0  0  0  0
   38.6750   24.3110   36.0070 N   0  0  0  0  0  0  0  0  0  0  0  0
   39.9430   23.6160   36.1730 C   0  0  0  0  0  0  0  0  0  0  0  0
   39.9540   22.6090   37.2710 C   0  0  0  0  0  0  0  0  0  0  0  0
   39.0710   22.7930   38.3500 N   0  0  0  0  0  0  0  0  0  0  0  0
   37.8030   23.4170   38.0010 C   0  0  0  0  0  0  0  0  0  0  0  0
   38.1350   24.6870   37.2720 C   0  0  0  0  0  0  0  0  0  0  0  0
   40.7390   24.3950   36.3250 H   0  0  0  0  0  0  0  0  0  0  0  0
   40.1820   23.1440   35.1930 H   0  0  0  0  0  0  0  0  0  0  0  0
   39.7580   21.6100   36.7910 H   0  0  0  0  0  0  0  0  0  0  0  0
   40.9980   22.5460   37.6780 H   0  0  0  0  0  0  0  0  0  0  0  0
   39.4800   23.1900   39.2150 H   0  0  0  0  0  0  0  0  0  0  0  0
   37.2890   23.6660   38.9440 H   0  0  0  0  0  0  0  0  0  0  0  0
   37.2060   22.7630   37.3500 H   0  0  0  0  0  0  0  0  0  0  0  0
   37.2040   25.2960   37.1010 H   0  0  0  0  0  0  0  0  0  0  0  0
   38.8720   25.2790   37.8400 H   0  0  0  0  0  0  0  0  0  0  0  0
   36.7590   27.4770   32.9670 C   0  0  0  0  0  0  0  0  0  0  0  0
   36.9550   28.0250   31.7290 C   0  0  0  0  0  0  0  0  0  0  0  0
   36.5810   29.3150   31.4060 C   0  0  0  0  0  0  0  0  0  0  0  0
   35.9940   30.0240   32.4120 N   0  0  0  0  0  0  0  0  0  0  0  0
   35.8100   29.4760   33.6160 C   0  0  0  0  0  0  0  0  0  0  0  0
   36.1820   28.2110   33.9180 N   0  0  0  0  0  0  0  0  0  0  0  0
   37.4180   27.4410   30.9620 H   0  0  0  0  0  0  0  0  0  0  0  0
   36.7250   29.7570   30.4450 H   0  0  0  0  0  0  0  0  0  0  0  0
   33.0720   29.2810   34.1650 F   0  0  0  0  0  0  0  0  0  0  0  0
   33.8340   30.1150   34.9320 C   0  0  0  0  0  0  0  0  0  0  0  0
   35.1740   30.2460   34.7050 C   0  0  0  0  0  0  0  0  0  0  0  0
   35.8770   31.1050   35.5180 C   0  0  0  0  0  0  0  0  0  0  0  0
   36.9480   31.1950   35.3190 H   0  0  0  0  0  0  0  0  0  0  0  0
   35.2880   31.8260   36.5350 C   0  0  0  0  0  0  0  0  0  0  0  0
   35.8750   32.4920   37.1530 H   0  0  0  0  0  0  0  0  0  0  0  0
   33.9260   31.6390   36.7020 C   0  0  0  0  0  3  0  0  0  0  0  0
   33.1670   30.7950   35.9230 C   0  0  0  0  0  3  0  0  0  0  0  0
  1  9  1  0  0  0  0
  2  7  1  0  0  0  0
  2  1  2  0  0  0  0
  3  2  1  0  0  0  0
  4  3  2  0  0  0  0
  4  5  1  0  0  0  0
  5  6  2  0  0  0  0
  6  1  1  0  0  0  0
  8  3  1  0  0  0  0
  9 10  1  0  0  0  0
  9 14  1  0  0  0  0
 10 15  1  0  0  0  0
 10 11  1  0  0  0  0
 11 18  1  0  0  0  0
 11 12  1  0  0  0  0
 12 19  1  0  0  0  0
 13 12  1  0  0  0  0
 13 20  1  0  0  0  0
 14 23  1  0  0  0  0
 14 13  1  0  0  0  0
 16 10  1  0  0  0  0
 17 11  1  0  0  0  0
 21 13  1  0  0  0  0
 22 14  1  0  0  0  0
 24  5  1  0  0  0  0
 24 29  1  0  0  0  0
 25 24  2  0  0  0  0
 26 25  1  0  0  0  0
 26 27  2  0  0  0  0
 27 28  1  0  0  0  0
 28 29  2  0  0  0  0
 28 34  1  0  0  0  0
 30 25  1  0  0  0  0
 31 26  1  0  0  0  0
 32 33  1  0  0  0  0
 33 40  1  0  0  0  0
 34 33  2  0  0  0  0
 34 35  1  0  0  0  0
 35 37  2  0  0  0  0
 36 35  1  0  0  0  0
 37 39  1  0  0  0  0
 37 38  1  0  0  0  0
 40 39  2  0  0  0  0
M  END
>  <minimizedAffinity>
-6.89290094

$$$$

 OpenBabel03272504343D

 40 43  0  0  0  0  0  0  0  0999 V2000
   37.9040   25.0590   34.3830 C   0  0  0  0  0  0  0  0  0  0  0  0
   37.7550   24.1860   33.3220 C   0  0  0  0  0  0  0  0  0  0  0  0
   37.1730   24.6230   32.1380 C   0  0  0  0  0  0  0  0  0  0  0  0
   36.7690   25.9240   32.0830 N   0  0  0  0  0  0  0  0  0  0  0  0
   36.9270   26.7580   33.1330 C   0  0  0  0  0  0  0  0  0  0  0  0
   37.4910   26.3330   34.2800 N   0  0  0  0  0  0  0  0  0  0  0  0
   38.0920   23.1680   33.4200 H   0  0  0  0  0  0  0  0  0  0  0  0
   37.0430   23.9660   31.2930 H   0  0  0  0  0  0  0  0  0  0  0  0
   38.4940   24.6710   35.6250 N   0  0  0  0  0  0  0  0  0  0  0  0
   39.7620   23.9600   35.6920 C   0  0  0  0  0  0  0  0  0  0  0  0
   39.7870   22.8340   36.6670 C   0  0  0  0  0  0  0  0  0  0  0  0
   38.9200   22.8940   37.7730 N   0  0  0  0  0  0  0  0  0  0  0  0
   37.6490   23.5550   37.5180 C   0  0  0  0  0  0  0  0  0  0  0  0
   37.9740   24.9010   36.9330 C   0  0  0  0  0  0  0  0  0  0  0  0
   40.5620   24.7160   35.9200 H   0  0  0  0  0  0  0  0  0  0  0  0
   39.9850   23.6040   34.6600 H   0  0  0  0  0  0  0  0  0  0  0  0
   39.5810   21.8970   36.0790 H   0  0  0  0  0  0  0  0  0  0  0  0
   40.8370   22.7240   37.0480 H   0  0  0  0  0  0  0  0  0  0  0  0
   39.3440   23.1890   38.6720 H   0  0  0  0  0  0  0  0  0  0  0  0
   37.1500   23.6950   38.4900 H   0  0  0  0  0  0  0  0  0  0  0  0
   37.0410   22.9810   36.8050 H   0  0  0  0  0  0  0  0  0  0  0  0
   37.0420   25.5260   36.8470 H   0  0  0  0  0  0  0  0  0  0  0  0
   38.7210   25.4220   37.5550 H   0  0  0  0  0  0  0  0  0  0  0  0
   36.4750   28.1490   33.0240 C   0  0  0  0  0  0  0  0  0  0  0  0
   36.7150   28.8780   31.8920 C   0  0  0  0  0  0  0  0  0  0  0  0
   36.3110   30.1900   31.7390 C   0  0  0  0  0  0  0  0  0  0  0  0
   35.6470   30.7260   32.8010 N   0  0  0  0  0  0  0  0  0  0  0  0
   35.4200   30.0020   33.9010 C   0  0  0  0  0  0  0  0  0  0  0  0
   35.8220   28.7180   34.0370 N   0  0  0  0  0  0  0  0  0  0  0  0
   37.2390   28.4260   31.0760 H   0  0  0  0  0  0  0  0  0  0  0  0
   36.4900   30.7720   30.8620 H   0  0  0  0  0  0  0  0  0  0  0  0
   36.6680   31.7500   35.6970 F   0  0  0  0  0  0  0  0  0  0  0  0
   35.3550   31.4340   35.8990 C   0  0  0  0  0  0  0  0  0  0  0  0
   34.7010   30.5860   35.0510 C   0  0  0  0  0  0  0  0  0  0  0  0
   33.3780   30.3140   35.3190 C   0  0  0  0  0  0  0  0  0  0  0  0
   32.8730   29.6330   34.6290 H   0  0  0  0  0  0  0  0  0  0  0  0
   32.7030   30.8560   36.3920 C   0  0  0  0  0  0  0  0  0  0  0  0
   31.6630   30.6160   36.5680 H   0  0  0  0  0  0  0  0  0  0  0  0
   33.4350   31.7050   37.2040 C   0  0  0  0  0  3  0  0  0  0  0  0
   34.7590   32.0170   36.9910 C   0  0  0  0  0  3  0  0  0  0  0  0
  1  9  1  0  0  0  0
  2  7  1  0  0  0  0
  2  1  2  0  0  0  0
  3  2  1  0  0  0  0
  4  3  2  0  0  0  0
  4  5  1  0  0  0  0
  5  6  2  0  0  0  0
  6  1  1  0  0  0  0
  8  3  1  0  0  0  0
  9 10  1  0  0  0  0
  9 14  1  0  0  0  0
 10 15  1  0  0  0  0
 10 11  1  0  0  0  0
 11 18  1  0  0  0  0
 11 12  1  0  0  0  0
 12 19  1  0  0  0  0
 13 12  1  0  0  0  0
 13 20  1  0  0  0  0
 14 13  1  0  0  0  0
 14 23  1  0  0  0  0
 16 10  1  0  0  0  0
 17 11  1  0  0  0  0
 21 13  1  0  0  0  0
 22 14  1  0  0  0  0
 24  5  1  0  0  0  0
 24 29  1  0  0  0  0
 25 24  2  0  0  0  0
 26 25  1  0  0  0  0
 26 27  2  0  0  0  0
 27 28  1  0  0  0  0
 28 29  2  0  0  0  0
 28 34  1  0  0  0  0
 30 25  1  0  0  0  0
 31 26  1  0  0  0  0
 32 33  1  0  0  0  0
 33 40  1  0  0  0  0
 34 35  1  0  0  0  0
 34 33  2  0  0  0  0
 35 37  2  0  0  0  0
 36 35  1  0  0  0  0
 37 38  1  0  0  0  0
 37 39  1  0  0  0  0
 40 39  2  0  0  0  0
M  END
>  <minimizedAffinity>
-6.71703577

$$$$

 OpenBabel03272504343D

 40 43  0  0  0  0  0  0  0  0999 V2000
   37.7850   24.6780   33.5960 C   0  0  0  0  0  0  0  0  0  0  0  0
   38.7110   24.6880   34.6210 C   0  0  0  0  0  0  0  0  0  0  0  0
   38.9590   25.8610   35.3230 C   0  0  0  0  0  0  0  0  0  0  0  0
   38.2570   26.9710   34.9540 N   0  0  0  0  0  0  0  0  0  0  0  0
   37.3570   26.9350   33.9490 C   0  0  0  0  0  0  0  0  0  0  0  0
   37.1170   25.7970   33.2690 N   0  0  0  0  0  0  0  0  0  0  0  0
   39.2370   23.7820   34.8700 H   0  0  0  0  0  0  0  0  0  0  0  0
   39.6760   25.9010   36.1280 H   0  0  0  0  0  0  0  0  0  0  0  0
   37.4850   23.5040   32.8360 N   0  0  0  0  0  0  0  0  0  0  0  0
   36.6580   23.5470   31.6400 C   0  0  0  0  0  0  0  0  0  0  0  0
   35.6570   22.4480   31.5440 C   0  0  0  0  0  0  0  0  0  0  0  0
   35.9360   21.2360   32.2000 N   0  0  0  0  0  0  0  0  0  0  0  0
   36.6930   21.3710   33.4360 C   0  0  0  0  0  0  0  0  0  0  0  0
   37.9190   22.1730   33.1040 C   0  0  0  0  0  0  0  0  0  0  0  0
   37.3460   23.5510   30.7520 H   0  0  0  0  0  0  0  0  0  0  0  0
   36.1620   24.5440   31.6280 H   0  0  0  0  0  0  0  0  0  0  0  0
   34.6840   22.8660   31.9260 H   0  0  0  0  0  0  0  0  0  0  0  0
   35.4820   22.2280   30.4570 H   0  0  0  0  0  0  0  0  0  0  0  0
   36.2880   20.4630   31.6060 H   0  0  0  0  0  0  0  0  0  0  0  0
   36.9970   20.3590   33.7480 H   0  0  0  0  0  0  0  0  0  0  0  0
   36.1060   21.8950   34.2040 H   0  0  0  0  0  0  0  0  0  0  0  0
   38.6250   22.1910   33.9800 H   0  0  0  0  0  0  0  0  0  0  0  0
   38.4290   21.7530   32.2200 H   0  0  0  0  0  0  0  0  0  0  0  0
   36.6280   28.1560   33.5900 C   0  0  0  0  0  0  0  0  0  0  0  0
   36.5960   28.6000   32.2970 C   0  0  0  0  0  0  0  0  0  0  0  0
   35.9250   29.7410   31.9060 C   0  0  0  0  0  0  0  0  0  0  0  0
   35.2830   30.4130   32.9030 N   0  0  0  0  0  0  0  0  0  0  0  0
   35.3220   29.9680   34.1620 C   0  0  0  0  0  0  0  0  0  0  0  0
   35.9840   28.8480   34.5300 N   0  0  0  0  0  0  0  0  0  0  0  0
   37.1110   28.0480   31.5390 H   0  0  0  0  0  0  0  0  0  0  0  0
   35.8900   30.1010   30.9010 H   0  0  0  0  0  0  0  0  0  0  0  0
   36.6590   31.7750   35.8310 F   0  0  0  0  0  0  0  0  0  0  0  0
   35.3240   31.5700   36.0280 C   0  0  0  0  0  0  0  0  0  0  0  0
   34.6260   30.6980   35.2410 C   0  0  0  0  0  0  0  0  0  0  0  0
   33.2830   30.5430   35.5000 C   0  0  0  0  0  0  0  0  0  0  0  0
   32.7430   29.8420   34.8580 H   0  0  0  0  0  0  0  0  0  0  0  0
   32.6290   31.2230   36.5050 C   0  0  0  0  0  0  0  0  0  0  0  0
   31.5720   31.0720   36.6770 H   0  0  0  0  0  0  0  0  0  0  0  0
   33.4060   32.0860   37.2590 C   0  0  0  0  0  3  0  0  0  0  0  0
   34.7520   32.2860   37.0510 C   0  0  0  0  0  3  0  0  0  0  0  0
  1  2  1  0  0  0  0
  2  7  1  0  0  0  0
  2  3  2  0  0  0  0
  3  8  1  0  0  0  0
  4  3  1  0  0  0  0
  5  4  2  0  0  0  0
  6  1  2  0  0  0  0
  6  5  1  0  0  0  0
  9 14  1  0  0  0  0
  9  1  1  0  0  0  0
 10  9  1  0  0  0  0
 11 10  1  0  0  0  0
 11 17  1  0  0  0  0
 11 12  1  0  0  0  0
 12 13  1  0  0  0  0
 13 20  1  0  0  0  0
 13 21  1  0  0  0  0
 14 13  1  0  0  0  0
 14 22  1  0  0  0  0
 15 10  1  0  0  0  0
 16 10  1  0  0  0  0
 18 11  1  0  0  0  0
 19 12  1  0  0  0  0
 23 14  1  0  0  0  0
 24  5  1  0  0  0  0
 24 29  1  0  0  0  0
 25 24  2  0  0  0  0
 26 25  1  0  0  0  0
 26 27  2  0  0  0  0
 27 28  1  0  0  0  0
 28 29  2  0  0  0  0
 28 34  1  0  0  0  0
 30 25  1  0  0  0  0
 31 26  1  0  0  0  0
 32 33  1  0  0  0  0
 33 40  1  0  0  0  0
 34 35  1  0  0  0  0
 34 33  2  0  0  0  0
 35 37  2  0  0  0  0
 36 35  1  0  0  0  0
 37 38  1  0  0  0  0
 37 39  1  0  0  0  0
 40 39  2  0  0  0  0
M  END
>  <minimizedAffinity>
-6.16234827

$$$$

 OpenBabel03272504343D

 40 43  0  0  0  0  0  0  0  0999 V2000
   37.3360   24.9400   33.0140 C   0  0  0  0  0  0  0  0  0  0  0  0
   36.7370   24.2180   31.9990 C   0  0  0  0  0  0  0  0  0  0  0  0
   35.9470   24.8650   31.0580 C   0  0  0  0  0  0  0  0  0  0  0  0
   35.8000   26.2150   31.1860 N   0  0  0  0  0  0  0  0  0  0  0  0
   36.3950   26.8980   32.1860 C   0  0  0  0  0  0  0  0  0  0  0  0
   37.1610   26.2690   33.0990 N   0  0  0  0  0  0  0  0  0  0  0  0
   36.8880   23.1530   31.9450 H   0  0  0  0  0  0  0  0  0  0  0  0
   35.4670   24.3290   30.2540 H   0  0  0  0  0  0  0  0  0  0  0  0
   38.1600   24.3340   34.0120 N   0  0  0  0  0  0  0  0  0  0  0  0
   39.0220   25.1170   34.8850 C   0  0  0  0  0  0  0  0  0  0  0  0
   40.3840   24.5450   35.0800 C   0  0  0  0  0  0  0  0  0  0  0  0
   40.5470   23.1550   34.9430 N   0  0  0  0  0  0  0  0  0  0  0  0
   39.6730   22.5320   33.9590 C   0  0  0  0  0  0  0  0  0  0  0  0
   38.2710   22.9430   34.3080 C   0  0  0  0  0  0  0  0  0  0  0  0
   38.4880   25.2420   35.8650 H   0  0  0  0  0  0  0  0  0  0  0  0
   39.0750   26.1410   34.4500 H   0  0  0  0  0  0  0  0  0  0  0  0
   41.0610   25.0760   34.3540 H   0  0  0  0  0  0  0  0  0  0  0  0
   40.7460   24.8430   36.1000 H   0  0  0  0  0  0  0  0  0  0  0  0
   40.5990   22.6100   35.8230 H   0  0  0  0  0  0  0  0  0  0  0  0
   39.7690   21.4410   34.0780 H   0  0  0  0  0  0  0  0  0  0  0  0
   39.9160   22.8730   32.9430 H   0  0  0  0  0  0  0  0  0  0  0  0
   37.5280   22.3790   33.6770 H   0  0  0  0  0  0  0  0  0  0  0  0
   38.0690   22.7630   35.3770 H   0  0  0  0  0  0  0  0  0  0  0  0
   36.2050   28.3490   32.2820 C   0  0  0  0  0  0  0  0  0  0  0  0
   36.5530   29.1720   31.2460 C   0  0  0  0  0  0  0  0  0  0  0  0
   36.3940   30.5430   31.2850 C   0  0  0  0  0  0  0  0  0  0  0  0
   35.8600   31.0390   32.4380 N   0  0  0  0  0  0  0  0  0  0  0  0
   35.5260   30.2230   33.4410 C   0  0  0  0  0  0  0  0  0  0  0  0
   35.6870   28.8810   33.3890 N   0  0  0  0  0  0  0  0  0  0  0  0
   36.9690   28.7500   30.3560 H   0  0  0  0  0  0  0  0  0  0  0  0
   36.6600   31.1990   30.4860 H   0  0  0  0  0  0  0  0  0  0  0  0
   32.8400   29.8260   34.1220 F   0  0  0  0  0  0  0  0  0  0  0  0
   33.6310   30.5390   34.9760 C   0  0  0  0  0  0  0  0  0  0  0  0
   34.9480   30.7620   34.6890 C   0  0  0  0  0  0  0  0  0  0  0  0
   35.6820   31.4900   35.5970 C   0  0  0  0  0  0  0  0  0  0  0  0
   36.7340   31.6560   35.3490 H   0  0  0  0  0  0  0  0  0  0  0  0
   35.1470   31.9940   36.7630 C   0  0  0  0  0  0  0  0  0  0  0  0
   35.7580   32.5630   37.4510 H   0  0  0  0  0  0  0  0  0  0  0  0
   33.8060   31.7270   36.9810 C   0  0  0  0  0  3  0  0  0  0  0  0
   33.0170   31.0060   36.1130 C   0  0  0  0  0  3  0  0  0  0  0  0
  1  6  1  0  0  0  0
  1  9  1  0  0  0  0
  2  1  2  0  0  0  0
  3  4  2  0  0  0  0
  3  2  1  0  0  0  0
  4  5  1  0  0  0  0
  5 24  1  0  0  0  0
  5  6  2  0  0  0  0
  7  2  1  0  0  0  0
  8  3  1  0  0  0  0
  9 14  1  0  0  0  0
  9 10  1  0  0  0  0
 10 11  1  0  0  0  0
 10 15  1  0  0  0  0
 11 18  1  0  0  0  0
 12 11  1  0  0  0  0
 12 19  1  0  0  0  0
 13 20  1  0  0  0  0
 13 14  1  0  0  0  0
 13 12  1  0  0  0  0
 14 23  1  0  0  0  0
 16 10  1  0  0  0  0
 17 11  1  0  0  0  0
 21 13  1  0  0  0  0
 22 14  1  0  0  0  0
 24 29  1  0  0  0  0
 25 26  1  0  0  0  0
 25 24  2  0  0  0  0
 26 27  2  0  0  0  0
 27 28  1  0  0  0  0
 28 34  1  0  0  0  0
 29 28  2  0  0  0  0
 30 25  1  0  0  0  0
 31 26  1  0  0  0  0
 32 33  1  0  0  0  0
 33 40  1  0  0  0  0
 34 33  2  0  0  0  0
 34 35  1  0  0  0  0
 35 37  2  0  0  0  0
 36 35  1  0  0  0  0
 37 39  1  0  0  0  0
 37 38  1  0  0  0  0
 40 39  2  0  0  0  0
M  END
>  <minimizedAffinity>
-5.85201788

$$$$

 OpenBabel03272504343D

 40 43  0  0  0  0  0  0  0  0999 V2000
   34.7090   30.4620   34.3750 C   0  0  0  0  0  0  0  0  0  0  0  0
   34.0570   30.8670   33.2260 C   0  0  0  0  0  0  0  0  0  0  0  0
   34.3670   30.2790   32.0060 C   0  0  0  0  0  0  0  0  0  0  0  0
   35.3240   29.3070   32.0060 N   0  0  0  0  0  0  0  0  0  0  0  0
   35.9460   28.9280   33.1420 C   0  0  0  0  0  0  0  0  0  0  0  0
   35.6450   29.4990   34.3240 N   0  0  0  0  0  0  0  0  0  0  0  0
   33.3090   31.6390   33.2840 H   0  0  0  0  0  0  0  0  0  0  0  0
   33.8760   30.5730   31.0920 H   0  0  0  0  0  0  0  0  0  0  0  0
   34.4350   31.0270   35.6590 N   0  0  0  0  0  0  0  0  0  0  0  0
   33.1370   30.8920   36.3030 C   0  0  0  0  0  0  0  0  0  0  0  0
   32.6350   32.1410   36.9420 C   0  0  0  0  0  0  0  0  0  0  0  0
   33.5760   33.0890   37.3790 N   0  0  0  0  0  0  0  0  0  0  0  0
   34.7840   33.1680   36.5710 C   0  0  0  0  0  0  0  0  0  0  0  0
   35.3320   31.7720   36.4800 C   0  0  0  0  0  0  0  0  0  0  0  0
   33.2130   30.0550   37.0480 H   0  0  0  0  0  0  0  0  0  0  0  0
   32.4290   30.5260   35.5250 H   0  0  0  0  0  0  0  0  0  0  0  0
   31.9360   32.6210   36.2010 H   0  0  0  0  0  0  0  0  0  0  0  0
   31.9920   31.8530   37.8160 H   0  0  0  0  0  0  0  0  0  0  0  0
   33.7810   33.0960   38.3950 H   0  0  0  0  0  0  0  0  0  0  0  0
   35.5030   33.8020   37.1150 H   0  0  0  0  0  0  0  0  0  0  0  0
   34.5620   33.5430   35.5630 H   0  0  0  0  0  0  0  0  0  0  0  0
   36.3470   31.7800   35.9930 H   0  0  0  0  0  0  0  0  0  0  0  0
   35.4000   31.3160   37.4820 H   0  0  0  0  0  0  0  0  0  0  0  0
   36.9690   27.8780   33.0890 C   0  0  0  0  0  0  0  0  0  0  0  0
   37.8530   27.8110   32.0480 C   0  0  0  0  0  0  0  0  0  0  0  0
   38.8340   26.8440   31.9500 C   0  0  0  0  0  0  0  0  0  0  0  0
   38.8720   25.9430   32.9720 N   0  0  0  0  0  0  0  0  0  0  0  0
   38.0020   26.0210   33.9830 C   0  0  0  0  0  0  0  0  0  0  0  0
   37.0460   26.9740   34.0650 N   0  0  0  0  0  0  0  0  0  0  0  0
   37.7950   28.5350   31.2620 H   0  0  0  0  0  0  0  0  0  0  0  0
   39.5310   26.7790   31.1440 H   0  0  0  0  0  0  0  0  0  0  0  0
   38.2090   26.8180   36.6580 F   0  0  0  0  0  0  0  0  0  0  0  0
   38.1450   25.4840   36.3780 C   0  0  0  0  0  0  0  0  0  0  0  0
   38.0450   25.0430   35.0900 C   0  0  0  0  0  0  0  0  0  0  0  0
   37.9860   23.6830   34.8850 C   0  0  0  0  0  0  0  0  0  0  0  0
   37.9060   23.3510   33.8460 H   0  0  0  0  0  0  0  0  0  0  0  0
   38.0250   22.7670   35.9150 C   0  0  0  0  0  0  0  0  0  0  0  0
   37.9770   21.7060   35.7120 H   0  0  0  0  0  0  0  0  0  0  0  0
   38.1290   23.2920   37.1910 C   0  0  0  0  0  3  0  0  0  0  0  0
   38.1910   24.6410   37.4630 C   0  0  0  0  0  3  0  0  0  0  0  0
  1  9  1  0  0  0  0
  2  7  1  0  0  0  0
  2  1  2  0  0  0  0
  3  4  2  0  0  0  0
  3  2  1  0  0  0  0
  4  5  1  0  0  0  0
  5  6  2  0  0  0  0
  6  1  1  0  0  0  0
  8  3  1  0  0  0  0
  9 10  1  0  0  0  0
  9 14  1  0  0  0  0
 10 11  1  0  0  0  0
 10 15  1  0  0  0  0
 11 12  1  0  0  0  0
 11 18  1  0  0  0  0
 12 19  1  0  0  0  0
 13 20  1  0  0  0  0
 13 12  1  0  0  0  0
 14 13  1  0  0  0  0
 14 23  1  0  0  0  0
 16 10  1  0  0  0  0
 17 11  1  0  0  0  0
 21 13  1  0  0  0  0
 22 14  1  0  0  0  0
 24  5  1  0  0  0  0
 24 29  1  0  0  0  0
 25 24  2  0  0  0  0
 26 25  1  0  0  0  0
 26 27  2  0  0  0  0
 27 28  1  0  0  0  0
 28 29  2  0  0  0  0
 28 34  1  0  0  0  0
 30 25  1  0  0  0  0
 31 26  1  0  0  0  0
 33 32  1  0  0  0  0
 33 40  1  0  0  0  0
 34 33  2  0  0  0  0
 35 34  1  0  0  0  0
 35 37  2  0  0  0  0
 36 35  1  0  0  0  0
 37 39  1  0  0  0  0
 38 37  1  0  0  0  0
 39 40  2  0  0  0  0
M  END
>  <minimizedAffinity>
-5.81026745

$$$$

 OpenBabel03272504343D

 40 43  0  0  0  0  0  0  0  0999 V2000
   36.3540   29.6410   32.0570 C   0  0  0  0  0  0  0  0  0  0  0  0
   35.7510   30.2580   33.1370 C   0  0  0  0  0  0  0  0  0  0  0  0
   35.6130   29.5780   34.3400 C   0  0  0  0  0  0  0  0  0  0  0  0
   36.0930   28.3020   34.3950 N   0  0  0  0  0  0  0  0  0  0  0  0
   36.6790   27.7210   33.3270 C   0  0  0  0  0  0  0  0  0  0  0  0
   36.8110   28.3820   32.1610 N   0  0  0  0  0  0  0  0  0  0  0  0
   35.3900   31.2680   33.0370 H   0  0  0  0  0  0  0  0  0  0  0  0
   35.1480   30.0320   35.2000 H   0  0  0  0  0  0  0  0  0  0  0  0
   36.5250   30.2870   30.7940 N   0  0  0  0  0  0  0  0  0  0  0  0
   37.0420   29.5840   29.6300 C   0  0  0  0  0  0  0  0  0  0  0  0
   38.0460   30.3540   28.8420 C   0  0  0  0  0  0  0  0  0  0  0  0
   37.9930   31.7580   28.8880 N   0  0  0  0  0  0  0  0  0  0  0  0
   37.5440   32.3110   30.1580 C   0  0  0  0  0  0  0  0  0  0  0  0
   36.2340   31.6470   30.4770 C   0  0  0  0  0  0  0  0  0  0  0  0
   36.1640   29.2890   28.9930 H   0  0  0  0  0  0  0  0  0  0  0  0
   37.4700   28.6240   29.9970 H   0  0  0  0  0  0  0  0  0  0  0  0
   39.0590   30.0050   29.1890 H   0  0  0  0  0  0  0  0  0  0  0  0
   37.9700   30.0330   27.7690 H   0  0  0  0  0  0  0  0  0  0  0  0
   37.5500   32.2260   28.0770 H   0  0  0  0  0  0  0  0  0  0  0  0
   37.3740   33.3880   30.0050 H   0  0  0  0  0  0  0  0  0  0  0  0
   38.2680   32.1020   30.9580 H   0  0  0  0  0  0  0  0  0  0  0  0
   35.7560   32.1330   31.3720 H   0  0  0  0  0  0  0  0  0  0  0  0
   35.5530   31.6990   29.6110 H   0  0  0  0  0  0  0  0  0  0  0  0
   37.1780   26.3460   33.4370 C   0  0  0  0  0  0  0  0  0  0  0  0
   37.2720   25.5440   32.3330 C   0  0  0  0  0  0  0  0  0  0  0  0
   37.7350   24.2440   32.3820 C   0  0  0  0  0  0  0  0  0  0  0  0
   38.1000   23.7980   33.6170 N   0  0  0  0  0  0  0  0  0  0  0  0
   38.0030   24.5930   34.6860 C   0  0  0  0  0  0  0  0  0  0  0  0
   37.5470   25.8650   34.6240 N   0  0  0  0  0  0  0  0  0  0  0  0
   36.9770   25.9260   31.3780 H   0  0  0  0  0  0  0  0  0  0  0  0
   37.8150   23.6050   31.5300 H   0  0  0  0  0  0  0  0  0  0  0  0
   40.4050   23.2200   35.1130 F   0  0  0  0  0  0  0  0  0  0  0  0
   39.5820   23.4430   36.1790 C   0  0  0  0  0  0  0  0  0  0  0  0
   38.3990   24.1070   36.0240 C   0  0  0  0  0  0  0  0  0  0  0  0
   37.6220   24.2940   37.1440 C   0  0  0  0  0  0  0  0  0  0  0  0
   36.6790   24.8290   36.9980 H   0  0  0  0  0  0  0  0  0  0  0  0
   37.9880   23.8440   38.3950 C   0  0  0  0  0  0  0  0  0  0  0  0
   37.3490   24.0100   39.2510 H   0  0  0  0  0  0  0  0  0  0  0  0
   39.2000   23.1790   38.4700 C   0  0  0  0  0  3  0  0  0  0  0  0
   40.0230   22.9600   37.3880 C   0  0  0  0  0  3  0  0  0  0  0  0
  1  6  2  0  0  0  0
  1  2  1  0  0  0  0
  2  3  2  0  0  0  0
  3  4  1  0  0  0  0
  3  8  1  0  0  0  0
  5 24  1  0  0  0  0
  5  4  2  0  0  0  0
  6  5  1  0  0  0  0
  7  2  1  0  0  0  0
  9  1  1  0  0  0  0
 10 16  1  0  0  0  0
 10  9  1  0  0  0  0
 11 12  1  0  0  0  0
 11 17  1  0  0  0  0
 11 10  1  0  0  0  0
 12 13  1  0  0  0  0
 13 14  1  0  0  0  0
 13 21  1  0  0  0  0
 14  9  1  0  0  0  0
 14 22  1  0  0  0  0
 15 10  1  0  0  0  0
 18 11  1  0  0  0  0
 19 12  1  0  0  0  0
 20 13  1  0  0  0  0
 23 14  1  0  0  0  0
 24 29  1  0  0  0  0
 25 26  1  0  0  0  0
 25 24  2  0  0  0  0
 26 27  2  0  0  0  0
 27 28  1  0  0  0  0
 28 34  1  0  0  0  0
 29 28  2  0  0  0  0
 30 25  1  0  0  0  0
 31 26  1  0  0  0  0
 32 33  1  0  0  0  0
 33 40  1  0  0  0  0
 34 33  2  0  0  0  0
 34 35  1  0  0  0  0
 35 37  2  0  0  0  0
 36 35  1  0  0  0  0
 37 39  1  0  0  0  0
 37 38  1  0  0  0  0
 40 39  2  0  0  0  0
M  END
>  <minimizedAffinity>
-5.76260138

$$$$

 OpenBabel03272504343D

 40 43  0  0  0  0  0  0  0  0999 V2000
   35.0350   30.8020   34.6170 C   0  0  0  0  0  0  0  0  0  0  0  0
   33.9340   30.8330   33.7820 C   0  0  0  0  0  0  0  0  0  0  0  0
   33.7690   29.8530   32.8110 C   0  0  0  0  0  0  0  0  0  0  0  0
   34.7270   28.8850   32.7300 N   0  0  0  0  0  0  0  0  0  0  0  0
   35.7940   28.8770   33.5580 C   0  0  0  0  0  0  0  0  0  0  0  0
   35.9520   29.8280   34.4980 N   0  0  0  0  0  0  0  0  0  0  0  0
   33.2080   31.6200   33.8900 H   0  0  0  0  0  0  0  0  0  0  0  0
   32.9210   29.8490   32.1450 H   0  0  0  0  0  0  0  0  0  0  0  0
   35.2610   31.7800   35.6340 N   0  0  0  0  0  0  0  0  0  0  0  0
   34.4640   31.8300   36.8510 C   0  0  0  0  0  0  0  0  0  0  0  0
   34.0500   33.2010   37.2590 C   0  0  0  0  0  0  0  0  0  0  0  0
   34.8540   34.2850   36.8640 N   0  0  0  0  0  0  0  0  0  0  0  0
   35.5100   34.1200   35.5760 C   0  0  0  0  0  0  0  0  0  0  0  0
   36.2470   32.8110   35.6320 C   0  0  0  0  0  0  0  0  0  0  0  0
   35.0540   31.3230   37.6620 H   0  0  0  0  0  0  0  0  0  0  0  0
   33.5790   31.1760   36.6820 H   0  0  0  0  0  0  0  0  0  0  0  0
   33.0040   33.3480   36.8700 H   0  0  0  0  0  0  0  0  0  0  0  0
   33.9580   33.2200   38.3780 H   0  0  0  0  0  0  0  0  0  0  0  0
   35.4940   34.6670   37.5850 H   0  0  0  0  0  0  0  0  0  0  0  0
   36.2390   34.9390   35.4710 H   0  0  0  0  0  0  0  0  0  0  0  0
   34.7760   34.0950   34.7590 H   0  0  0  0  0  0  0  0  0  0  0  0
   36.8970   32.6880   34.7220 H   0  0  0  0  0  0  0  0  0  0  0  0
   36.8620   32.7520   36.5450 H   0  0  0  0  0  0  0  0  0  0  0  0
   36.7980   27.8150   33.4300 C   0  0  0  0  0  0  0  0  0  0  0  0
   37.5870   27.7260   32.3170 C   0  0  0  0  0  0  0  0  0  0  0  0
   38.5460   26.7470   32.1470 C   0  0  0  0  0  0  0  0  0  0  0  0
   38.6630   25.8580   33.1740 N   0  0  0  0  0  0  0  0  0  0  0  0
   37.8850   25.9570   34.2550 C   0  0  0  0  0  0  0  0  0  0  0  0
   36.9490   26.9210   34.4070 N   0  0  0  0  0  0  0  0  0  0  0  0
   37.4690   28.4410   31.5300 H   0  0  0  0  0  0  0  0  0  0  0  0
   39.1710   26.6650   31.2850 H   0  0  0  0  0  0  0  0  0  0  0  0
   38.0350   23.1970   33.8100 F   0  0  0  0  0  0  0  0  0  0  0  0
   38.0830   23.6540   35.0950 C   0  0  0  0  0  0  0  0  0  0  0  0
   38.0130   24.9920   35.3660 C   0  0  0  0  0  0  0  0  0  0  0  0
   38.0670   25.3770   36.6860 C   0  0  0  0  0  0  0  0  0  0  0  0
   38.0100   26.4520   36.8800 H   0  0  0  0  0  0  0  0  0  0  0  0
   38.1870   24.4800   37.7260 C   0  0  0  0  0  0  0  0  0  0  0  0
   38.2250   24.8240   38.7500 H   0  0  0  0  0  0  0  0  0  0  0  0
   38.2510   23.1440   37.3700 C   0  0  0  0  0  3  0  0  0  0  0  0
   38.2020   22.6930   36.0700 C   0  0  0  0  0  3  0  0  0  0  0  0
  1  9  1  0  0  0  0
  2  7  1  0  0  0  0
  2  1  2  0  0  0  0
  3  2  1  0  0  0  0
  4  3  2  0  0  0  0
  4  5  1  0  0  0  0
  5  6  2  0  0  0  0
  6  1  1  0  0  0  0
  8  3  1  0  0  0  0
  9 10  1  0  0  0  0
 10 11  1  0  0  0  0
 10 15  1  0  0  0  0
 11 18  1  0  0  0  0
 12 11  1  0  0  0  0
 12 19  1  0  0  0  0
 13 14  1  0  0  0  0
 13 12  1  0  0  0  0
 14  9  1  0  0  0  0
 14 23  1  0  0  0  0
 16 10  1  0  0  0  0
 17 11  1  0  0  0  0
 20 13  1  0  0  0  0
 21 13  1  0  0  0  0
 22 14  1  0  0  0  0
 24  5  1  0  0  0  0
 24 29  1  0  0  0  0
 25 24  2  0  0  0  0
 26 25  1  0  0  0  0
 26 27  2  0  0  0  0
 27 28  1  0  0  0  0
 28 29  2  0  0  0  0
 28 34  1  0  0  0  0
 30 25  1  0  0  0  0
 31 26  1  0  0  0  0
 32 33  1  0  0  0  0
 33 34  2  0  0  0  0
 33 40  1  0  0  0  0
 34 35  1  0  0  0  0
 35 36  1  0  0  0  0
 35 37  2  0  0  0  0
 37 38  1  0  0  0  0
 39 37  1  0  0  0  0
 40 39  2  0  0  0  0
M  END
>  <minimizedAffinity>
-5.73058271

$$$$

 OpenBabel03272504343D

 40 43  0  0  0  0  0  0  0  0999 V2000
   39.8450   26.1640   34.6860 C   0  0  0  0  0  0  0  0  0  0  0  0
   39.3440   25.1100   35.4270 C   0  0  0  0  0  0  0  0  0  0  0  0
   37.9850   25.0380   35.7040 C   0  0  0  0  0  0  0  0  0  0  0  0
   37.1940   26.0370   35.2180 N   0  0  0  0  0  0  0  0  0  0  0  0
   37.7070   27.0560   34.4960 C   0  0  0  0  0  0  0  0  0  0  0  0
   39.0250   27.1250   34.2280 N   0  0  0  0  0  0  0  0  0  0  0  0
   40.0150   24.3480   35.7860 H   0  0  0  0  0  0  0  0  0  0  0  0
   37.5640   24.2290   36.2800 H   0  0  0  0  0  0  0  0  0  0  0  0
   41.2320   26.2950   34.3670 N   0  0  0  0  0  0  0  0  0  0  0  0
   41.7270   27.3400   33.4840 C   0  0  0  0  0  0  0  0  0  0  0  0
   42.7430   26.8800   32.4950 C   0  0  0  0  0  0  0  0  0  0  0  0
   43.5290   25.7600   32.8210 N   0  0  0  0  0  0  0  0  0  0  0  0
   42.8560   24.7570   33.6330 C   0  0  0  0  0  0  0  0  0  0  0  0
   42.3020   25.4750   34.8320 C   0  0  0  0  0  0  0  0  0  0  0  0
   42.1320   28.1660   34.1310 H   0  0  0  0  0  0  0  0  0  0  0  0
   40.8400   27.7780   32.9740 H   0  0  0  0  0  0  0  0  0  0  0  0
   42.1880   26.6830   31.5360 H   0  0  0  0  0  0  0  0  0  0  0  0
   43.4290   27.7400   32.2730 H   0  0  0  0  0  0  0  0  0  0  0  0
   44.4900   25.9570   33.1560 H   0  0  0  0  0  0  0  0  0  0  0  0
   43.6200   24.0370   33.9650 H   0  0  0  0  0  0  0  0  0  0  0  0
   42.0360   24.2830   33.0760 H   0  0  0  0  0  0  0  0  0  0  0  0
   41.8950   24.7360   35.5770 H   0  0  0  0  0  0  0  0  0  0  0  0
   43.0810   26.0960   35.3050 H   0  0  0  0  0  0  0  0  0  0  0  0
   36.8140   28.1070   33.9970 C   0  0  0  0  0  0  0  0  0  0  0  0
   36.6450   28.3040   32.6540 C   0  0  0  0  0  0  0  0  0  0  0  0
   35.8170   29.2780   32.1310 C   0  0  0  0  0  0  0  0  0  0  0  0
   35.1660   30.0470   33.0490 N   0  0  0  0  0  0  0  0  0  0  0  0
   35.3400   29.8430   34.3570 C   0  0  0  0  0  0  0  0  0  0  0  0
   36.1550   28.8850   34.8550 N   0  0  0  0  0  0  0  0  0  0  0  0
   37.1720   27.6820   31.9600 H   0  0  0  0  0  0  0  0  0  0  0  0
   35.6740   29.4440   31.0860 H   0  0  0  0  0  0  0  0  0  0  0  0
   36.6730   31.7650   35.8950 F   0  0  0  0  0  0  0  0  0  0  0  0
   35.3300   31.6020   36.0760 C   0  0  0  0  0  0  0  0  0  0  0  0
   34.6330   30.6780   35.3510 C   0  0  0  0  0  0  0  0  0  0  0  0
   33.2820   30.5700   35.5880 C   0  0  0  0  0  0  0  0  0  0  0  0
   32.7430   29.8240   34.9970 H   0  0  0  0  0  0  0  0  0  0  0  0
   32.6180   31.3460   36.5130 C   0  0  0  0  0  0  0  0  0  0  0  0
   31.5540   31.2310   36.6710 H   0  0  0  0  0  0  0  0  0  0  0  0
   33.3940   32.2590   37.2080 C   0  0  0  0  0  3  0  0  0  0  0  0
   34.7490   32.4160   37.0180 C   0  0  0  0  0  3  0  0  0  0  0  0
  1  2  1  0  0  0  0
  2  3  2  0  0  0  0
  2  7  1  0  0  0  0
  3  8  1  0  0  0  0
  4  3  1  0  0  0  0
  5  4  2  0  0  0  0
  6  5  1  0  0  0  0
  6  1  2  0  0  0  0
  9  1  1  0  0  0  0
  9 14  1  0  0  0  0
 10 15  1  0  0  0  0
 10  9  1  0  0  0  0
 11 12  1  0  0  0  0
 11 10  1  0  0  0  0
 12 19  1  0  0  0  0
 12 13  1  0  0  0  0
 13 20  1  0  0  0  0
 13 14  1  0  0  0  0
 14 23  1  0  0  0  0
 14 22  1  0  0  0  0
 16 10  1  0  0  0  0
 17 11  1  0  0  0  0
 18 11  1  0  0  0  0
 21 13  1  0  0  0  0
 24  5  1  0  0  0  0
 24 29  1  0  0  0  0
 25 24  2  0  0  0  0
 26 25  1  0  0  0  0
 26 27  2  0  0  0  0
 27 28  1  0  0  0  0
 28 29  2  0  0  0  0
 28 34  1  0  0  0  0
 30 25  1  0  0  0  0
 31 26  1  0  0  0  0
 32 33  1  0  0  0  0
 33 40  1  0  0  0  0
 34 35  1  0  0  0  0
 34 33  2  0  0  0  0
 35 37  2  0  0  0  0
 36 35  1  0  0  0  0
 37 38  1  0  0  0  0
 37 39  1  0  0  0  0
 40 39  2  0  0  0  0
M  END
>  <minimizedAffinity>
-5.70602465

$$$$
