
 OpenBabel03272504333D

 40 43  0  0  0  0  0  0  0  0999 V2000
   35.0980   29.6070   47.5790 C   0  0  0  0  0  0  0  0  0  0  0  0
   35.2550   30.0590   46.2820 C   0  0  0  0  0  0  0  0  0  0  0  0
   34.2280   29.8990   45.3610 C   0  0  0  0  0  0  0  0  0  0  0  0
   33.0870   29.2890   45.7950 N   0  0  0  0  0  0  0  0  0  0  0  0
   32.9580   28.8570   47.0670 C   0  0  0  0  0  0  0  0  0  0  0  0
   33.9550   29.0120   47.9590 N   0  0  0  0  0  0  0  0  0  0  0  0
   36.1770   30.5340   45.9930 H   0  0  0  0  0  0  0  0  0  0  0  0
   34.3190   30.2410   44.3420 H   0  0  0  0  0  0  0  0  0  0  0  0
   36.1160   29.7420   48.5720 N   0  0  0  0  0  0  0  0  0  0  0  0
   36.1720   28.8810   49.7440 C   0  0  0  0  0  0  0  0  0  0  0  0
   36.4680   29.5940   51.0180 C   0  0  0  0  0  0  0  0  0  0  0  0
   37.1970   30.7940   50.9550 N   0  0  0  0  0  0  0  0  0  0  0  0
   36.9570   31.5910   49.7600 C   0  0  0  0  0  0  0  0  0  0  0  0
   37.1870   30.6840   48.5850 C   0  0  0  0  0  0  0  0  0  0  0  0
   36.9330   28.0780   49.5390 H   0  0  0  0  0  0  0  0  0  0  0  0
   35.1960   28.3480   49.7990 H   0  0  0  0  0  0  0  0  0  0  0  0
   35.4760   29.7820   51.5170 H   0  0  0  0  0  0  0  0  0  0  0  0
   37.0140   28.8860   51.6970 H   0  0  0  0  0  0  0  0  0  0  0  0
   38.2040   30.7320   51.1910 H   0  0  0  0  0  0  0  0  0  0  0  0
   37.7090   32.3960   49.7460 H   0  0  0  0  0  0  0  0  0  0  0  0
   35.9260   31.9700   49.7380 H   0  0  0  0  0  0  0  0  0  0  0  0
   37.1630   31.2710   47.6250 H   0  0  0  0  0  0  0  0  0  0  0  0
   38.1540   30.1610   48.6820 H   0  0  0  0  0  0  0  0  0  0  0  0
   31.7120   28.2060   47.4840 C   0  0  0  0  0  0  0  0  0  0  0  0
   31.5960   27.6450   48.7260 C   0  0  0  0  0  0  0  0  0  0  0  0
   30.4460   27.0210   49.1690 C   0  0  0  0  0  0  0  0  0  0  0  0
   29.4130   26.9970   48.2790 N   0  0  0  0  0  0  0  0  0  0  0  0
   29.5410   27.5490   47.0700 C   0  0  0  0  0  0  0  0  0  0  0  0
   30.6740   28.1570   46.6490 N   0  0  0  0  0  0  0  0  0  0  0  0
   32.4260   27.6820   49.4000 H   0  0  0  0  0  0  0  0  0  0  0  0
   30.3390   26.5790   50.1350 H   0  0  0  0  0  0  0  0  0  0  0  0
   27.3490   29.2750   47.2970 F   0  0  0  0  0  0  0  0  0  0  0  0
   27.3740   28.3850   46.2620 C   0  0  0  0  0  0  0  0  0  0  0  0
   28.4210   27.5210   46.1070 C   0  0  0  0  0  0  0  0  0  0  0  0
   28.3770   26.6530   45.0400 C   0  0  0  0  0  0  0  0  0  0  0  0
   29.2240   25.9700   44.9340 H   0  0  0  0  0  0  0  0  0  0  0  0
   27.3340   26.6230   44.1390 C   0  0  0  0  0  0  0  0  0  0  0  0
   27.3360   25.9250   43.3130 H   0  0  0  0  0  0  0  0  0  0  0  0
   26.3110   27.5290   44.3640 C   0  0  0  0  0  0  0  0  0  0  0  0
   26.2950   28.4230   45.4120 C   0  0  0  0  0  0  0  0  0  0  0  0
  1  6  1  0  0  0  0
  1  9  1  0  0  0  0
  2  1  2  0  0  0  0
  3  4  2  0  0  0  0
  3  2  1  0  0  0  0
  4  5  1  0  0  0  0
  5 24  1  0  0  0  0
  5  6  2  0  0  0  0
  7  2  1  0  0  0  0
  8  3  1  0  0  0  0
  9 14  1  0  0  0  0
  9 10  1  0  0  0  0
 10 16  1  0  0  0  0
 10 11  1  0  0  0  0
 11 17  1  0  0  0  0
 11 18  1  0  0  0  0
 12 11  1  0  0  0  0
 12 19  1  0  0  0  0
 13 12  1  0  0  0  0
 14 23  1  0  0  0  0
 14 13  1  0  0  0  0
 15 10  1  0  0  0  0
 20 13  1  0  0  0  0
 21 13  1  0  0  0  0
 22 14  1  0  0  0  0
 24 25  1  0  0  0  0
 25 26  2  0  0  0  0
 25 30  1  0  0  0  0
 26 31  1  0  0  0  0
 27 26  1  0  0  0  0
 28 27  2  0  0  0  0
 29 28  1  0  0  0  0
 29 24  2  0  0  0  0
 33 32  1  0  0  0  0
 34 33  1  0  0  0  0
 34 28  1  0  0  0  0
 35 34  2  0  0  0  0
 36 35  1  0  0  0  0
 37 39  2  0  0  0  0
 37 35  1  0  0  0  0
 38 37  1  0  0  0  0
 39 40  1  0  0  0  0
 40 33  2  0  0  0  0
M  END
>  <minimizedAffinity>
-5.57074785

>  <minimizedRMSD>
0.871982872

$$$$
