
 OpenBabel03262523553D

 34 36  0  0  1  0  0  0  0  0999 V2000
   38.6380   22.4900   34.5020 C   0  0  1  0  0  0  0  0  0  0  0  0
   37.3910   21.9120   33.9920 C   0  0  0  0  0  0  0  0  0  0  0  0
   37.6690   21.2900   32.6440 C   0  0  0  0  0  0  0  0  0  0  0  0
   38.5230   22.1740   31.8240 C   0  0  0  0  0  0  0  0  0  0  0  0
   38.7230   23.5730   32.2720 C   0  0  0  0  0  0  0  0  0  0  0  0
   39.0050   23.7140   33.7480 C   0  0  1  0  0  0  0  0  0  0  0  0
   39.4500   21.7240   34.2930 H   0  0  0  0  0  0  0  0  0  0  0  0
   37.1150   21.0510   34.6870 H   0  0  0  0  0  0  0  0  0  0  0  0
   36.5300   22.5640   33.8260 H   0  0  0  0  0  0  0  0  0  0  0  0
   38.1050   20.2760   32.8170 H   0  0  0  0  0  0  0  0  0  0  0  0
   36.6940   21.0820   32.1400 H   0  0  0  0  0  0  0  0  0  0  0  0
   38.2230   22.2070   30.7500 H   0  0  0  0  0  0  0  0  0  0  0  0
   39.5470   21.6960   31.7920 H   0  0  0  0  0  0  0  0  0  0  0  0
   39.5120   24.0190   31.6490 H   0  0  0  0  0  0  0  0  0  0  0  0
   37.7370   24.1050   32.1160 H   0  0  0  0  0  0  0  0  0  0  0  0
   40.1510   23.7390   33.7780 H   0  0  0  0  0  0  0  0  0  0  0  0
   40.0520   22.8030   37.9200 C   0  0  0  0  0  0  0  0  0  0  0  0
   39.9710   22.5510   36.5250 C   0  0  0  0  0  0  0  0  0  0  0  0
   38.7230   22.7480   35.9360 C   0  0  0  0  0  0  0  0  0  0  0  0
   37.6460   23.1600   36.6900 N   0  0  0  0  0  0  0  0  0  0  0  0
   37.7740   23.3840   38.0130 C   0  0  0  0  0  0  0  0  0  0  0  0
   38.9700   23.2080   38.6310 N   0  0  0  0  0  0  0  0  0  0  0  0
   40.9440   22.6980   38.5150 H   0  0  0  0  0  0  0  0  0  0  0  0
   40.8890   22.2230   36.1370 H   0  0  0  0  0  0  0  0  0  0  0  0
   36.8470   23.7010   38.4700 H   0  0  0  0  0  0  0  0  0  0  0  0
   40.7770   25.4590   35.2010 F   0  0  0  0  0  0  0  0  0  0  0  0
   39.4860   25.8820   34.9780 C   0  0  0  0  0  0  0  0  0  0  0  0
   38.6360   25.0270   34.2510 C   0  0  0  0  0  0  0  0  0  0  0  0
   37.4060   25.6290   34.1150 C   0  0  0  0  0  0  0  0  0  0  0  0
   36.6020   25.1460   33.5880 H   0  0  0  0  0  0  0  0  0  0  0  0
   37.0240   26.8640   34.5940 C   0  0  0  0  0  0  0  0  0  0  0  0
   36.0500   27.2990   34.4650 H   0  0  0  0  0  0  0  0  0  0  0  0
   37.9390   27.6170   35.2950 C   0  0  0  0  0  3  0  0  0  0  0  0
   39.1890   27.1230   35.4920 C   0  0  0  0  0  3  0  0  0  0  0  0
  1  7  1  6  0  0  0
  1 19  1  0  0  0  0
  2  1  1  0  0  0  0
  2  8  1  0  0  0  0
  3 10  1  0  0  0  0
  3  2  1  0  0  0  0
  4  5  1  0  0  0  0
  4  3  1  0  0  0  0
  5  6  1  0  0  0  0
  6 16  1  1  0  0  0
  6 28  1  0  0  0  0
  6  1  1  0  0  0  0
  9  2  1  0  0  0  0
 11  3  1  0  0  0  0
 12  4  1  0  0  0  0
 13  4  1  0  0  0  0
 14  5  1  0  0  0  0
 15  5  1  0  0  0  0
 17 23  1  0  0  0  0
 17 22  1  0  0  0  0
 18 17  2  0  0  0  0
 19 18  1  0  0  0  0
 19 20  2  0  0  0  0
 20 21  1  0  0  0  0
 21 25  1  0  0  0  0
 21 22  2  0  0  0  0
 24 18  1  0  0  0  0
 27 26  1  0  0  0  0
 27 34  1  0  0  0  0
 28 27  2  0  0  0  0
 29 28  1  0  0  0  0
 29 31  2  0  0  0  0
 30 29  1  0  0  0  0
 31 33  1  0  0  0  0
 32 31  1  0  0  0  0
 33 34  2  0  0  0  0
M  END
>  <minimizedAffinity>
-5.16570854

$$$$

 OpenBabel03262523553D

 34 36  0  0  1  0  0  0  0  0999 V2000
   41.0940   24.8280   34.6610 C   0  0  1  0  0  0  0  0  0  0  0  0
   41.7510   24.4520   33.4050 C   0  0  0  0  0  0  0  0  0  0  0  0
   43.1600   24.9950   33.4210 C   0  0  0  0  0  0  0  0  0  0  0  0
   43.1850   26.3770   33.9420 C   0  0  0  0  0  0  0  0  0  0  0  0
   41.8980   27.1010   34.0780 C   0  0  0  0  0  0  0  0  0  0  0  0
   40.7890   26.2800   34.6870 C   0  0  1  0  0  0  0  0  0  0  0  0
   41.8550   24.6410   35.4830 H   0  0  0  0  0  0  0  0  0  0  0  0
   41.8490   23.3170   33.4080 H   0  0  0  0  0  0  0  0  0  0  0  0
   41.3290   24.8000   32.4590 H   0  0  0  0  0  0  0  0  0  0  0  0
   43.7950   24.2830   34.0030 H   0  0  0  0  0  0  0  0  0  0  0  0
   43.5740   24.9410   32.3860 H   0  0  0  0  0  0  0  0  0  0  0  0
   43.8880   27.0450   33.3910 H   0  0  0  0  0  0  0  0  0  0  0  0
   43.6360   26.3250   34.9780 H   0  0  0  0  0  0  0  0  0  0  0  0
   42.0890   28.0300   34.6350 H   0  0  0  0  0  0  0  0  0  0  0  0
   41.5440   27.3270   33.0270 H   0  0  0  0  0  0  0  0  0  0  0  0
   40.8520   26.5680   35.7960 H   0  0  0  0  0  0  0  0  0  0  0  0
   38.1160   22.6250   34.4280 C   0  0  0  0  0  0  0  0  0  0  0  0
   39.2640   23.3660   34.0420 C   0  0  0  0  0  0  0  0  0  0  0  0
   39.9140   24.0670   35.0570 C   0  0  0  0  0  0  0  0  0  0  0  0
   39.4460   24.0260   36.3520 N   0  0  0  0  0  0  0  0  0  0  0  0
   38.3490   23.3080   36.6680 C   0  0  0  0  0  0  0  0  0  0  0  0
   37.6830   22.6080   35.7140 N   0  0  0  0  0  0  0  0  0  0  0  0
   37.5100   22.0340   33.7620 H   0  0  0  0  0  0  0  0  0  0  0  0
   39.4440   23.2910   33.0110 H   0  0  0  0  0  0  0  0  0  0  0  0
   38.1020   23.3720   37.7180 H   0  0  0  0  0  0  0  0  0  0  0  0
   38.7760   27.1940   36.5340 F   0  0  0  0  0  0  0  0  0  0  0  0
   38.4750   27.1950   35.1910 C   0  0  0  0  0  0  0  0  0  0  0  0
   39.4740   26.7630   34.2990 C   0  0  0  0  0  0  0  0  0  0  0  0
   38.9950   26.8570   33.0110 C   0  0  0  0  0  0  0  0  0  0  0  0
   39.6010   26.5760   32.1680 H   0  0  0  0  0  0  0  0  0  0  0  0
   37.7500   27.2960   32.6140 C   0  0  0  0  0  0  0  0  0  0  0  0
   37.4150   27.3540   31.5950 H   0  0  0  0  0  0  0  0  0  0  0  0
   36.8480   27.6950   33.5750 C   0  0  0  0  0  3  0  0  0  0  0  0
   37.2120   27.6460   34.8840 C   0  0  0  0  0  3  0  0  0  0  0  0
  1  6  1  0  0  0  0
  1 19  1  0  0  0  0
  1  7  1  1  0  0  0
  2  8  1  0  0  0  0
  2  3  1  0  0  0  0
  2  1  1  0  0  0  0
  3  4  1  0  0  0  0
  3 10  1  0  0  0  0
  4  5  1  0  0  0  0
  4 13  1  0  0  0  0
  5 14  1  0  0  0  0
  5  6  1  0  0  0  0
  6 16  1  1  0  0  0
  9  2  1  0  0  0  0
 11  3  1  0  0  0  0
 12  4  1  0  0  0  0
 15  5  1  0  0  0  0
 17 22  1  0  0  0  0
 18 17  2  0  0  0  0
 18 19  1  0  0  0  0
 19 20  2  0  0  0  0
 20 21  1  0  0  0  0
 21 25  1  0  0  0  0
 22 21  2  0  0  0  0
 23 17  1  0  0  0  0
 24 18  1  0  0  0  0
 27 26  1  0  0  0  0
 28  6  1  0  0  0  0
 28 27  2  0  0  0  0
 29 28  1  0  0  0  0
 30 29  1  0  0  0  0
 31 29  2  0  0  0  0
 31 33  1  0  0  0  0
 32 31  1  0  0  0  0
 33 34  2  0  0  0  0
 34 27  1  0  0  0  0
M  END
>  <minimizedAffinity>
-4.95796251

$$$$

 OpenBabel03262523553D

 34 36  0  0  1  0  0  0  0  0999 V2000
   38.6060   23.1470   36.1750 C   0  0  1  0  0  0  0  0  0  0  0  0
   39.5700   23.0500   37.2760 C   0  0  0  0  0  0  0  0  0  0  0  0
   38.8350   23.2700   38.5760 C   0  0  0  0  0  0  0  0  0  0  0  0
   37.8830   24.3940   38.4570 C   0  0  0  0  0  0  0  0  0  0  0  0
   37.9880   25.2820   37.2750 C   0  0  0  0  0  0  0  0  0  0  0  0
   38.1750   24.5510   35.9690 C   0  0  1  0  0  0  0  0  0  0  0  0
   37.6860   22.5710   36.5100 H   0  0  0  0  0  0  0  0  0  0  0  0
   39.9390   21.9710   37.3000 H   0  0  0  0  0  0  0  0  0  0  0  0
   40.4120   23.7460   37.3100 H   0  0  0  0  0  0  0  0  0  0  0  0
   38.3560   22.3040   38.8680 H   0  0  0  0  0  0  0  0  0  0  0  0
   39.5850   23.4540   39.3830 H   0  0  0  0  0  0  0  0  0  0  0  0
   37.8520   25.0450   39.3630 H   0  0  0  0  0  0  0  0  0  0  0  0
   36.8480   23.9400   38.4290 H   0  0  0  0  0  0  0  0  0  0  0  0
   37.1050   25.9400   37.2660 H   0  0  0  0  0  0  0  0  0  0  0  0
   38.9370   25.8830   37.4060 H   0  0  0  0  0  0  0  0  0  0  0  0
   37.1010   24.4690   35.5770 H   0  0  0  0  0  0  0  0  0  0  0  0
   38.3070   21.4580   32.8830 C   0  0  0  0  0  0  0  0  0  0  0  0
   37.9400   22.0380   34.1260 C   0  0  0  0  0  0  0  0  0  0  0  0
   38.9820   22.5500   34.8980 C   0  0  0  0  0  0  0  0  0  0  0  0
   40.2850   22.4820   34.4550 N   0  0  0  0  0  0  0  0  0  0  0  0
   40.5830   21.9200   33.2660 C   0  0  0  0  0  0  0  0  0  0  0  0
   39.6010   21.4090   32.4790 N   0  0  0  0  0  0  0  0  0  0  0  0
   37.6180   21.0230   32.1780 H   0  0  0  0  0  0  0  0  0  0  0  0
   36.9060   21.9710   34.2940 H   0  0  0  0  0  0  0  0  0  0  0  0
   41.6420   21.9380   33.0540 H   0  0  0  0  0  0  0  0  0  0  0  0
   37.0640   25.1550   33.3810 F   0  0  0  0  0  0  0  0  0  0  0  0
   38.3030   25.6690   33.6930 C   0  0  0  0  0  0  0  0  0  0  0  0
   38.8250   25.3810   34.9670 C   0  0  0  0  0  0  0  0  0  0  0  0
   40.0510   25.9950   35.0970 C   0  0  0  0  0  0  0  0  0  0  0  0
   40.6280   25.9060   36.0000 H   0  0  0  0  0  0  0  0  0  0  0  0
   40.6970   26.7730   34.1610 C   0  0  0  0  0  0  0  0  0  0  0  0
   41.6560   27.2360   34.3030 H   0  0  0  0  0  0  0  0  0  0  0  0
   40.0920   26.9890   32.9430 C   0  0  0  0  0  3  0  0  0  0  0  0
   38.8770   26.4310   32.7010 C   0  0  0  0  0  3  0  0  0  0  0  0
  1  7  1  1  0  0  0
  1  2  1  0  0  0  0
  2  8  1  0  0  0  0
  2  9  1  0  0  0  0
  2  3  1  0  0  0  0
  3 10  1  0  0  0  0
  3 11  1  0  0  0  0
  4  3  1  0  0  0  0
  4 12  1  0  0  0  0
  5 15  1  0  0  0  0
  5  4  1  0  0  0  0
  6 16  1  6  0  0  0
  6  1  1  0  0  0  0
  6  5  1  0  0  0  0
 13  4  1  0  0  0  0
 14  5  1  0  0  0  0
 17 18  1  0  0  0  0
 18 24  1  0  0  0  0
 18 19  2  0  0  0  0
 19  1  1  0  0  0  0
 20 19  1  0  0  0  0
 21 20  2  0  0  0  0
 22 17  2  0  0  0  0
 22 21  1  0  0  0  0
 23 17  1  0  0  0  0
 25 21  1  0  0  0  0
 26 27  1  0  0  0  0
 27 28  1  0  0  0  0
 28 29  2  0  0  0  0
 28  6  1  0  0  0  0
 29 30  1  0  0  0  0
 31 32  1  0  0  0  0
 31 29  1  0  0  0  0
 33 31  2  0  0  0  0
 34 33  1  0  0  0  0
 34 27  2  0  0  0  0
M  END
>  <minimizedAffinity>
-4.92129755

$$$$

 OpenBabel03262523553D

 34 36  0  0  1  0  0  0  0  0999 V2000
   34.9240   29.5800   32.5100 C   0  0  1  0  0  0  0  0  0  0  0  0
   36.2400   29.8460   31.9220 C   0  0  0  0  0  0  0  0  0  0  0  0
   36.9980   28.5430   31.8380 C   0  0  0  0  0  0  0  0  0  0  0  0
   36.8310   27.7570   33.0780 C   0  0  0  0  0  0  0  0  0  0  0  0
   36.2470   28.4290   34.2640 C   0  0  0  0  0  0  0  0  0  0  0  0
   35.0390   29.2790   33.9580 C   0  0  1  0  0  0  0  0  0  0  0  0
   34.5400   28.6350   32.0110 H   0  0  0  0  0  0  0  0  0  0  0  0
   36.0630   30.1790   30.8470 H   0  0  0  0  0  0  0  0  0  0  0  0
   36.9220   30.5330   32.4310 H   0  0  0  0  0  0  0  0  0  0  0  0
   36.6600   28.0070   30.9180 H   0  0  0  0  0  0  0  0  0  0  0  0
   38.0740   28.7680   31.6400 H   0  0  0  0  0  0  0  0  0  0  0  0
   37.7670   27.2490   33.4100 H   0  0  0  0  0  0  0  0  0  0  0  0
   36.1440   26.8950   32.8260 H   0  0  0  0  0  0  0  0  0  0  0  0
   36.0390   27.6600   35.0220 H   0  0  0  0  0  0  0  0  0  0  0  0
   37.0260   29.1610   34.6360 H   0  0  0  0  0  0  0  0  0  0  0  0
   34.1720   28.5600   34.1730 H   0  0  0  0  0  0  0  0  0  0  0  0
   33.2880   32.8420   31.8320 C   0  0  0  0  0  0  0  0  0  0  0  0
   34.3070   31.8770   32.0440 C   0  0  0  0  0  0  0  0  0  0  0  0
   33.8770   30.5740   32.2920 C   0  0  0  0  0  0  0  0  0  0  0  0
   32.5340   30.2700   32.3240 N   0  0  0  0  0  0  0  0  0  0  0  0
   31.6040   31.2240   32.1170 C   0  0  0  0  0  0  0  0  0  0  0  0
   31.9740   32.5070   31.8710 N   0  0  0  0  0  0  0  0  0  0  0  0
   33.4600   33.8870   31.6290 H   0  0  0  0  0  0  0  0  0  0  0  0
   35.2630   32.3080   32.0040 H   0  0  0  0  0  0  0  0  0  0  0  0
   30.5960   30.8380   32.1740 H   0  0  0  0  0  0  0  0  0  0  0  0
   32.6030   29.6960   35.4380 F   0  0  0  0  0  0  0  0  0  0  0  0
   33.6550   30.5550   35.6620 C   0  0  0  0  0  0  0  0  0  0  0  0
   34.8450   30.3290   34.9460 C   0  0  0  0  0  0  0  0  0  0  0  0
   35.7780   31.2700   35.3200 C   0  0  0  0  0  0  0  0  0  0  0  0
   36.7650   31.2790   34.8920 H   0  0  0  0  0  0  0  0  0  0  0  0
   35.6180   32.2840   36.2400 C   0  0  0  0  0  0  0  0  0  0  0  0
   36.3750   32.9990   36.5040 H   0  0  0  0  0  0  0  0  0  0  0  0
   34.4070   32.4130   36.8830 C   0  0  0  0  0  3  0  0  0  0  0  0
   33.4090   31.5380   36.5930 C   0  0  0  0  0  3  0  0  0  0  0  0
  1  7  1  6  0  0  0
  1  6  1  0  0  0  0
  2  9  1  0  0  0  0
  2  1  1  0  0  0  0
  3  2  1  0  0  0  0
  3  4  1  0  0  0  0
  4 12  1  0  0  0  0
  4  5  1  0  0  0  0
  5 15  1  0  0  0  0
  5 14  1  0  0  0  0
  6 16  1  1  0  0  0
  6  5  1  0  0  0  0
  6 28  1  0  0  0  0
  8  2  1  0  0  0  0
 10  3  1  0  0  0  0
 11  3  1  0  0  0  0
 13  4  1  0  0  0  0
 17 22  2  0  0  0  0
 17 18  1  0  0  0  0
 18 19  2  0  0  0  0
 19 20  1  0  0  0  0
 19  1  1  0  0  0  0
 21 25  1  0  0  0  0
 21 20  2  0  0  0  0
 22 21  1  0  0  0  0
 23 17  1  0  0  0  0
 24 18  1  0  0  0  0
 26 27  1  0  0  0  0
 27 34  1  0  0  0  0
 28 29  1  0  0  0  0
 28 27  2  0  0  0  0
 29 31  2  0  0  0  0
 30 29  1  0  0  0  0
 31 32  1  0  0  0  0
 31 33  1  0  0  0  0
 34 33  2  0  0  0  0
M  END
>  <minimizedAffinity>
-4.84240246

$$$$

 OpenBabel03262523553D

 34 36  0  0  1  0  0  0  0  0999 V2000
   37.9770   23.9800   33.4280 C   0  0  1  0  0  0  0  0  0  0  0  0
   38.7670   23.5830   32.2580 C   0  0  0  0  0  0  0  0  0  0  0  0
   37.9290   22.6590   31.4070 C   0  0  0  0  0  0  0  0  0  0  0  0
   37.2130   21.6770   32.2470 C   0  0  0  0  0  0  0  0  0  0  0  0
   37.6170   21.5380   33.6670 C   0  0  0  0  0  0  0  0  0  0  0  0
   37.8300   22.8500   34.3780 C   0  0  1  0  0  0  0  0  0  0  0  0
   36.9360   24.2160   33.0400 H   0  0  0  0  0  0  0  0  0  0  0  0
   38.9340   24.5230   31.6350 H   0  0  0  0  0  0  0  0  0  0  0  0
   39.7080   23.0480   32.4070 H   0  0  0  0  0  0  0  0  0  0  0  0
   37.2550   23.2890   30.7770 H   0  0  0  0  0  0  0  0  0  0  0  0
   38.5960   22.1540   30.6670 H   0  0  0  0  0  0  0  0  0  0  0  0
   37.1870   20.6520   31.8050 H   0  0  0  0  0  0  0  0  0  0  0  0
   36.1250   21.9850   32.2500 H   0  0  0  0  0  0  0  0  0  0  0  0
   36.8730   20.9020   34.1700 H   0  0  0  0  0  0  0  0  0  0  0  0
   38.6340   21.0430   33.6660 H   0  0  0  0  0  0  0  0  0  0  0  0
   36.8140   23.0260   34.8800 H   0  0  0  0  0  0  0  0  0  0  0  0
   37.7850   27.1070   35.4190 C   0  0  0  0  0  0  0  0  0  0  0  0
   37.3770   25.9400   34.7210 C   0  0  0  0  0  0  0  0  0  0  0  0
   38.3950   25.1800   34.1450 C   0  0  0  0  0  0  0  0  0  0  0  0
   39.7120   25.5660   34.2600 N   0  0  0  0  0  0  0  0  0  0  0  0
   40.0490   26.6860   34.9330 C   0  0  0  0  0  0  0  0  0  0  0  0
   39.0930   27.4570   35.5120 N   0  0  0  0  0  0  0  0  0  0  0  0
   37.1190   27.7920   35.9160 H   0  0  0  0  0  0  0  0  0  0  0  0
   36.3330   25.8320   34.7240 H   0  0  0  0  0  0  0  0  0  0  0  0
   41.1150   26.8600   34.9380 H   0  0  0  0  0  0  0  0  0  0  0  0
   37.1920   23.6340   37.0760 F   0  0  0  0  0  0  0  0  0  0  0  0
   38.4420   23.1130   36.8280 C   0  0  0  0  0  0  0  0  0  0  0  0
   38.7340   22.7180   35.5100 C   0  0  0  0  0  0  0  0  0  0  0  0
   40.0120   22.2070   35.4680 C   0  0  0  0  0  0  0  0  0  0  0  0
   40.4390   21.8440   34.5500 H   0  0  0  0  0  0  0  0  0  0  0  0
   40.8960   22.0840   36.5190 C   0  0  0  0  0  0  0  0  0  0  0  0
   41.8870   21.6780   36.4430 H   0  0  0  0  0  0  0  0  0  0  0  0
   40.5040   22.5050   37.7700 C   0  0  0  0  0  3  0  0  0  0  0  0
   39.2600   23.0270   37.9320 C   0  0  0  0  0  3  0  0  0  0  0  0
  1  7  1  6  0  0  0
  1 19  1  0  0  0  0
  1  6  1  0  0  0  0
  2  9  1  0  0  0  0
  2  1  1  0  0  0  0
  3  4  1  0  0  0  0
  3  2  1  0  0  0  0
  4 13  1  0  0  0  0
  4  5  1  0  0  0  0
  5 14  1  0  0  0  0
  5  6  1  0  0  0  0
  6 16  1  1  0  0  0
  6 28  1  0  0  0  0
  8  2  1  0  0  0  0
 10  3  1  0  0  0  0
 11  3  1  0  0  0  0
 12  4  1  0  0  0  0
 15  5  1  0  0  0  0
 17 22  1  0  0  0  0
 17 23  1  0  0  0  0
 18 24  1  0  0  0  0
 18 17  2  0  0  0  0
 19 20  2  0  0  0  0
 19 18  1  0  0  0  0
 20 21  1  0  0  0  0
 21 25  1  0  0  0  0
 21 22  2  0  0  0  0
 27 26  1  0  0  0  0
 27 34  1  0  0  0  0
 28 27  2  0  0  0  0
 29 28  1  0  0  0  0
 29 31  2  0  0  0  0
 30 29  1  0  0  0  0
 31 33  1  0  0  0  0
 32 31  1  0  0  0  0
 33 34  2  0  0  0  0
M  END
>  <minimizedAffinity>
-4.81158781

$$$$

 OpenBabel03262523553D

 34 36  0  0  1  0  0  0  0  0999 V2000
   33.7480   31.7010   35.2860 C   0  0  1  0  0  0  0  0  0  0  0  0
   34.0340   31.6740   36.7230 C   0  0  0  0  0  0  0  0  0  0  0  0
   34.6370   33.0010   37.1160 C   0  0  0  0  0  0  0  0  0  0  0  0
   35.6370   33.4390   36.1200 C   0  0  0  0  0  0  0  0  0  0  0  0
   36.1040   32.4560   35.1130 C   0  0  0  0  0  0  0  0  0  0  0  0
   35.0000   31.6360   34.4930 C   0  0  1  0  0  0  0  0  0  0  0  0
   33.2830   32.7160   35.0750 H   0  0  0  0  0  0  0  0  0  0  0  0
   33.0310   31.6110   37.2610 H   0  0  0  0  0  0  0  0  0  0  0  0
   34.7280   30.9260   37.1140 H   0  0  0  0  0  0  0  0  0  0  0  0
   33.8010   33.7280   37.2640 H   0  0  0  0  0  0  0  0  0  0  0  0
   35.0900   32.9010   38.1320 H   0  0  0  0  0  0  0  0  0  0  0  0
   36.5420   33.9050   36.5760 H   0  0  0  0  0  0  0  0  0  0  0  0
   35.1690   34.2920   35.5440 H   0  0  0  0  0  0  0  0  0  0  0  0
   36.6990   32.9970   34.3620 H   0  0  0  0  0  0  0  0  0  0  0  0
   36.7420   31.7050   35.6680 H   0  0  0  0  0  0  0  0  0  0  0  0
   34.7670   32.2230   33.5360 H   0  0  0  0  0  0  0  0  0  0  0  0
   31.5650   28.7040   35.1040 C   0  0  0  0  0  0  0  0  0  0  0  0
   32.5020   29.6470   35.6030 C   0  0  0  0  0  0  0  0  0  0  0  0
   32.7860   30.7310   34.7730 C   0  0  0  0  0  0  0  0  0  0  0  0
   32.1790   30.8520   33.5420 N   0  0  0  0  0  0  0  0  0  0  0  0
   31.2970   29.9280   33.1120 C   0  0  0  0  0  0  0  0  0  0  0  0
   30.9870   28.8560   33.8860 N   0  0  0  0  0  0  0  0  0  0  0  0
   31.2430   27.8180   35.6270 H   0  0  0  0  0  0  0  0  0  0  0  0
   32.8690   29.3660   36.5460 H   0  0  0  0  0  0  0  0  0  0  0  0
   30.9050   30.1550   32.1310 H   0  0  0  0  0  0  0  0  0  0  0  0
   34.9290   30.8520   31.7220 F   0  0  0  0  0  0  0  0  0  0  0  0
   35.4390   29.9590   32.6380 C   0  0  0  0  0  0  0  0  0  0  0  0
   35.4850   30.3630   33.9850 C   0  0  0  0  0  0  0  0  0  0  0  0
   36.0420   29.3520   34.7360 C   0  0  0  0  0  0  0  0  0  0  0  0
   36.1720   29.4520   35.7990 H   0  0  0  0  0  0  0  0  0  0  0  0
   36.4950   28.1310   34.2850 C   0  0  0  0  0  0  0  0  0  0  0  0
   36.9250   27.3670   34.9070 H   0  0  0  0  0  0  0  0  0  0  0  0
   36.4010   27.8410   32.9420 C   0  0  0  0  0  3  0  0  0  0  0  0
   35.8660   28.7660   32.1030 C   0  0  0  0  0  3  0  0  0  0  0  0
  1  7  1  6  0  0  0
  1  2  1  0  0  0  0
  2  9  1  0  0  0  0
  2  3  1  0  0  0  0
  2  8  1  0  0  0  0
  3 10  1  0  0  0  0
  3 11  1  0  0  0  0
  4 12  1  0  0  0  0
  4  3  1  0  0  0  0
  5 15  1  0  0  0  0
  5  4  1  0  0  0  0
  6 16  1  6  0  0  0
  6  5  1  0  0  0  0
  6  1  1  0  0  0  0
 13  4  1  0  0  0  0
 14  5  1  0  0  0  0
 17 18  1  0  0  0  0
 17 23  1  0  0  0  0
 18 24  1  0  0  0  0
 19  1  1  0  0  0  0
 19 18  2  0  0  0  0
 20 19  1  0  0  0  0
 21 20  2  0  0  0  0
 21 22  1  0  0  0  0
 22 17  2  0  0  0  0
 25 21  1  0  0  0  0
 26 27  1  0  0  0  0
 27 28  1  0  0  0  0
 28  6  1  0  0  0  0
 28 29  2  0  0  0  0
 29 30  1  0  0  0  0
 31 29  1  0  0  0  0
 31 32  1  0  0  0  0
 33 31  2  0  0  0  0
 34 27  2  0  0  0  0
 34 33  1  0  0  0  0
M  END
>  <minimizedAffinity>
-4.80129576

$$$$

 OpenBabel03262523553D

 34 36  0  0  1  0  0  0  0  0999 V2000
   38.8800   24.7910   36.1610 C   0  0  1  0  0  0  0  0  0  0  0  0
   37.6400   24.4740   36.8760 C   0  0  0  0  0  0  0  0  0  0  0  0
   37.9870   24.1220   38.3030 C   0  0  0  0  0  0  0  0  0  0  0  0
   39.1750   23.2440   38.3530 C   0  0  0  0  0  0  0  0  0  0  0  0
   39.6440   22.6220   37.0920 C   0  0  0  0  0  0  0  0  0  0  0  0
   39.6800   23.5660   35.9160 C   0  0  1  0  0  0  0  0  0  0  0  0
   39.4920   25.4420   36.8630 H   0  0  0  0  0  0  0  0  0  0  0  0
   37.0310   25.4360   36.9270 H   0  0  0  0  0  0  0  0  0  0  0  0
   37.0210   23.6440   36.5270 H   0  0  0  0  0  0  0  0  0  0  0  0
   38.1090   25.0760   38.8720 H   0  0  0  0  0  0  0  0  0  0  0  0
   37.1000   23.6370   38.7770 H   0  0  0  0  0  0  0  0  0  0  0  0
   39.0930   22.4330   39.1150 H   0  0  0  0  0  0  0  0  0  0  0  0
   40.0290   23.8760   38.7380 H   0  0  0  0  0  0  0  0  0  0  0  0
   40.6210   22.1550   37.2870 H   0  0  0  0  0  0  0  0  0  0  0  0
   38.8740   21.8430   36.8110 H   0  0  0  0  0  0  0  0  0  0  0  0
   40.7690   23.9260   35.9230 H   0  0  0  0  0  0  0  0  0  0  0  0
   39.7570   27.1020   33.3920 C   0  0  0  0  0  0  0  0  0  0  0  0
   39.8680   26.3500   34.5910 C   0  0  0  0  0  0  0  0  0  0  0  0
   38.7670   25.5650   34.9290 C   0  0  0  0  0  0  0  0  0  0  0  0
   37.6470   25.5410   34.1280 N   0  0  0  0  0  0  0  0  0  0  0  0
   37.5900   26.2750   32.9980 C   0  0  0  0  0  0  0  0  0  0  0  0
   38.6380   27.0540   32.6270 N   0  0  0  0  0  0  0  0  0  0  0  0
   40.5210   27.7520   32.9990 H   0  0  0  0  0  0  0  0  0  0  0  0
   40.7860   26.5210   35.0720 H   0  0  0  0  0  0  0  0  0  0  0  0
   36.6510   26.1560   32.4750 H   0  0  0  0  0  0  0  0  0  0  0  0
   37.4400   21.9320   35.1340 F   0  0  0  0  0  0  0  0  0  0  0  0
   38.4980   22.0460   34.2600 C   0  0  0  0  0  0  0  0  0  0  0  0
   39.5780   22.8620   34.6470 C   0  0  0  0  0  0  0  0  0  0  0  0
   40.5180   22.8670   33.6410 C   0  0  0  0  0  0  0  0  0  0  0  0
   41.4290   23.4320   33.7310 H   0  0  0  0  0  0  0  0  0  0  0  0
   40.4550   22.1990   32.4370 C   0  0  0  0  0  0  0  0  0  0  0  0
   41.2130   22.2300   31.6770 H   0  0  0  0  0  0  0  0  0  0  0  0
   39.3490   21.4260   32.1630 C   0  0  0  0  0  3  0  0  0  0  0  0
   38.3540   21.3460   33.0850 C   0  0  0  0  0  3  0  0  0  0  0  0
  1  7  1  1  0  0  0
  1  2  1  0  0  0  0
  2  8  1  0  0  0  0
  2  3  1  0  0  0  0
  3  4  1  0  0  0  0
  3 11  1  0  0  0  0
  3 10  1  0  0  0  0
  4 13  1  0  0  0  0
  4 12  1  0  0  0  0
  5 14  1  0  0  0  0
  5  4  1  0  0  0  0
  6 16  1  1  0  0  0
  6  1  1  0  0  0  0
  6  5  1  0  0  0  0
  9  2  1  0  0  0  0
 15  5  1  0  0  0  0
 17 18  1  0  0  0  0
 18 19  2  0  0  0  0
 18 24  1  0  0  0  0
 19  1  1  0  0  0  0
 20 19  1  0  0  0  0
 21 20  2  0  0  0  0
 22 21  1  0  0  0  0
 22 17  2  0  0  0  0
 23 17  1  0  0  0  0
 25 21  1  0  0  0  0
 27 28  1  0  0  0  0
 27 26  1  0  0  0  0
 28  6  1  0  0  0  0
 29 30  1  0  0  0  0
 29 28  2  0  0  0  0
 31 29  1  0  0  0  0
 32 31  1  0  0  0  0
 33 31  2  0  0  0  0
 33 34  1  0  0  0  0
 34 27  2  0  0  0  0
M  END
>  <minimizedAffinity>
-4.71358109

$$$$

 OpenBabel03262523553D

 34 36  0  0  1  0  0  0  0  0999 V2000
   40.0770   22.0650   34.9810 C   0  0  1  0  0  0  0  0  0  0  0  0
   41.5180   21.9120   34.7560 C   0  0  0  0  0  0  0  0  0  0  0  0
   42.1000   21.1260   35.9070 C   0  0  0  0  0  0  0  0  0  0  0  0
   41.5470   21.5930   37.1950 C   0  0  0  0  0  0  0  0  0  0  0  0
   40.7930   22.8700   37.2150 C   0  0  0  0  0  0  0  0  0  0  0  0
   39.8100   23.0240   36.0810 C   0  0  1  0  0  0  0  0  0  0  0  0
   39.7030   21.0530   35.3340 H   0  0  0  0  0  0  0  0  0  0  0  0
   41.6420   21.2580   33.8310 H   0  0  0  0  0  0  0  0  0  0  0  0
   42.1440   22.8050   34.6840 H   0  0  0  0  0  0  0  0  0  0  0  0
   41.9210   20.0420   35.7070 H   0  0  0  0  0  0  0  0  0  0  0  0
   43.2120   21.2250   35.8800 H   0  0  0  0  0  0  0  0  0  0  0  0
   42.3060   21.6410   38.0120 H   0  0  0  0  0  0  0  0  0  0  0  0
   40.8330   20.7920   37.5510 H   0  0  0  0  0  0  0  0  0  0  0  0
   40.3150   22.9660   38.2020 H   0  0  0  0  0  0  0  0  0  0  0  0
   41.5500   23.6940   37.0530 H   0  0  0  0  0  0  0  0  0  0  0  0
   38.8320   22.6560   36.5530 H   0  0  0  0  0  0  0  0  0  0  0  0
   37.0900   22.3910   32.8020 C   0  0  0  0  0  0  0  0  0  0  0  0
   37.8960   22.0710   33.9260 C   0  0  0  0  0  0  0  0  0  0  0  0
   39.2480   22.3940   33.8250 C   0  0  0  0  0  0  0  0  0  0  0  0
   39.7470   22.9860   32.6870 N   0  0  0  0  0  0  0  0  0  0  0  0
   38.9410   23.2690   31.6440 C   0  0  0  0  0  0  0  0  0  0  0  0
   37.6160   22.9750   31.6960 N   0  0  0  0  0  0  0  0  0  0  0  0
   36.0310   22.2050   32.7290 H   0  0  0  0  0  0  0  0  0  0  0  0
   37.3370   21.6030   34.6820 H   0  0  0  0  0  0  0  0  0  0  0  0
   39.4720   23.7310   30.8240 H   0  0  0  0  0  0  0  0  0  0  0  0
   37.3250   24.3460   36.6930 F   0  0  0  0  0  0  0  0  0  0  0  0
   38.3120   25.0740   36.0660 C   0  0  0  0  0  0  0  0  0  0  0  0
   39.5270   24.4200   35.7890 C   0  0  0  0  0  0  0  0  0  0  0  0
   40.3870   25.3100   35.1860 C   0  0  0  0  0  0  0  0  0  0  0  0
   41.3780   25.0160   34.8890 H   0  0  0  0  0  0  0  0  0  0  0  0
   40.1410   26.6320   34.8830 C   0  0  0  0  0  0  0  0  0  0  0  0
   40.8420   27.2950   34.4110 H   0  0  0  0  0  0  0  0  0  0  0  0
   38.9130   27.1700   35.1990 C   0  0  0  0  0  3  0  0  0  0  0  0
   37.9820   26.3820   35.7990 C   0  0  0  0  0  3  0  0  0  0  0  0
  1  7  1  1  0  0  0
  1  6  1  0  0  0  0
  2  1  1  0  0  0  0
  2  3  1  0  0  0  0
  3  4  1  0  0  0  0
  4  5  1  0  0  0  0
  4 13  1  0  0  0  0
  4 12  1  0  0  0  0
  5 14  1  0  0  0  0
  6 16  1  1  0  0  0
  6  5  1  0  0  0  0
  8  2  1  0  0  0  0
  9  2  1  0  0  0  0
 10  3  1  0  0  0  0
 11  3  1  0  0  0  0
 15  5  1  0  0  0  0
 17 18  1  0  0  0  0
 18 24  1  0  0  0  0
 19 18  2  0  0  0  0
 19  1  1  0  0  0  0
 20 19  1  0  0  0  0
 21 22  1  0  0  0  0
 21 20  2  0  0  0  0
 22 17  2  0  0  0  0
 23 17  1  0  0  0  0
 25 21  1  0  0  0  0
 27 26  1  0  0  0  0
 28 27  2  0  0  0  0
 28  6  1  0  0  0  0
 29 28  1  0  0  0  0
 30 29  1  0  0  0  0
 31 29  2  0  0  0  0
 31 33  1  0  0  0  0
 32 31  1  0  0  0  0
 33 34  2  0  0  0  0
 34 27  1  0  0  0  0
M  END
>  <minimizedAffinity>
-4.66434956

$$$$

 OpenBabel03262523553D

 34 36  0  0  1  0  0  0  0  0999 V2000
   39.6680   24.8760   33.0800 C   0  0  1  0  0  0  0  0  0  0  0  0
   38.8190   26.0130   32.7130 C   0  0  0  0  0  0  0  0  0  0  0  0
   39.7090   27.1880   32.3850 C   0  0  0  0  0  0  0  0  0  0  0  0
   40.8050   27.3060   33.3690 C   0  0  0  0  0  0  0  0  0  0  0  0
   40.7170   26.5140   34.6190 C   0  0  0  0  0  0  0  0  0  0  0  0
   40.2860   25.0830   34.4130 C   0  0  1  0  0  0  0  0  0  0  0  0
   40.5180   24.8590   32.3270 H   0  0  0  0  0  0  0  0  0  0  0  0
   38.2930   25.7340   31.7410 H   0  0  0  0  0  0  0  0  0  0  0  0
   38.1020   26.4000   33.4410 H   0  0  0  0  0  0  0  0  0  0  0  0
   40.0610   27.0690   31.3310 H   0  0  0  0  0  0  0  0  0  0  0  0
   39.0830   28.1120   32.3580 H   0  0  0  0  0  0  0  0  0  0  0  0
   41.0290   28.3610   33.6570 H   0  0  0  0  0  0  0  0  0  0  0  0
   41.7490   26.9760   32.8430 H   0  0  0  0  0  0  0  0  0  0  0  0
   41.6850   26.5910   35.1380 H   0  0  0  0  0  0  0  0  0  0  0  0
   39.8910   26.9770   35.2370 H   0  0  0  0  0  0  0  0  0  0  0  0
   41.2890   24.5300   34.3550 H   0  0  0  0  0  0  0  0  0  0  0  0
   37.1070   22.1920   32.9480 C   0  0  0  0  0  0  0  0  0  0  0  0
   37.6820   23.4880   33.0170 C   0  0  0  0  0  0  0  0  0  0  0  0
   39.0750   23.5440   33.0110 C   0  0  0  0  0  0  0  0  0  0  0  0
   39.8250   22.3900   32.9440 N   0  0  0  0  0  0  0  0  0  0  0  0
   39.2310   21.1810   32.8820 C   0  0  0  0  0  0  0  0  0  0  0  0
   37.8770   21.0770   32.8840 N   0  0  0  0  0  0  0  0  0  0  0  0
   36.0490   21.9860   32.9430 H   0  0  0  0  0  0  0  0  0  0  0  0
   36.9470   24.2340   33.0860 H   0  0  0  0  0  0  0  0  0  0  0  0
   39.9450   20.3720   32.8360 H   0  0  0  0  0  0  0  0  0  0  0  0
   41.3310   22.8330   35.8780 F   0  0  0  0  0  0  0  0  0  0  0  0
   40.1610   23.4110   36.3200 C   0  0  0  0  0  0  0  0  0  0  0  0
   39.6720   24.5210   35.6050 C   0  0  0  0  0  0  0  0  0  0  0  0
   38.5180   24.9670   36.2070 C   0  0  0  0  0  0  0  0  0  0  0  0
   37.9770   25.8120   35.8210 H   0  0  0  0  0  0  0  0  0  0  0  0
   37.9050   24.4450   37.3270 C   0  0  0  0  0  0  0  0  0  0  0  0
   37.0020   24.8260   37.7660 H   0  0  0  0  0  0  0  0  0  0  0  0
   38.4720   23.3550   37.9470 C   0  0  0  0  0  3  0  0  0  0  0  0
   39.6170   22.8270   37.4400 C   0  0  0  0  0  3  0  0  0  0  0  0
  1  7  1  6  0  0  0
  1  6  1  0  0  0  0
  2  1  1  0  0  0  0
  2  9  1  0  0  0  0
  3  2  1  0  0  0  0
  3  4  1  0  0  0  0
  4 12  1  0  0  0  0
  4  5  1  0  0  0  0
  5 14  1  0  0  0  0
  5 15  1  0  0  0  0
  6 16  1  6  0  0  0
  6  5  1  0  0  0  0
  6 28  1  0  0  0  0
  8  2  1  0  0  0  0
 10  3  1  0  0  0  0
 11  3  1  0  0  0  0
 13  4  1  0  0  0  0
 17 18  1  0  0  0  0
 18 24  1  0  0  0  0
 19 18  2  0  0  0  0
 19  1  1  0  0  0  0
 20 19  1  0  0  0  0
 21 22  1  0  0  0  0
 21 20  2  0  0  0  0
 22 17  2  0  0  0  0
 23 17  1  0  0  0  0
 25 21  1  0  0  0  0
 26 27  1  0  0  0  0
 27 34  1  0  0  0  0
 28 29  1  0  0  0  0
 28 27  2  0  0  0  0
 29 31  2  0  0  0  0
 30 29  1  0  0  0  0
 31 32  1  0  0  0  0
 31 33  1  0  0  0  0
 34 33  2  0  0  0  0
M  END
>  <minimizedAffinity>
-4.65054703

$$$$
