
 OpenBabel03272501233D

 40 43  0  0  0  0  0  0  0  0999 V2000
   36.3760   28.6910   33.3920 C   0  0  0  0  0  0  0  0  0  0  0  0
   35.2940   29.5500   33.2340 C   0  0  0  0  0  0  0  0  0  0  0  0
   35.0740   29.9540   31.9240 C   0  0  0  0  0  0  0  0  0  0  0  0
   35.8850   29.5170   30.8760 C   0  0  0  0  0  0  0  0  0  0  0  0
   36.9420   28.6620   31.1180 C   0  0  0  0  0  0  0  0  0  0  0  0
   37.1910   28.2420   32.4010 C   0  0  0  0  0  0  0  0  0  0  0  0
   34.2580   30.6250   31.6740 H   0  0  0  0  0  0  0  0  0  0  0  0
   35.7110   29.8350   29.8530 H   0  0  0  0  0  0  0  0  0  0  0  0
   37.5950   28.3010   30.3330 H   0  0  0  0  0  0  0  0  0  0  0  0
   34.8900   31.0150   35.1630 C   0  0  0  0  0  0  0  0  0  0  0  0
   34.4740   29.9880   34.3100 C   0  0  0  0  0  0  0  0  0  0  0  0
   33.2090   29.4000   34.5540 C   0  0  0  0  0  0  0  0  0  0  0  0
   32.4820   29.8800   35.6110 N   0  0  0  0  0  0  0  0  0  0  0  0
   32.9280   30.8730   36.4040 C   0  0  0  0  0  0  0  0  0  0  0  0
   34.1240   31.4390   36.1840 N   0  0  0  0  0  0  0  0  0  0  0  0
   35.8410   31.4480   34.9700 H   0  0  0  0  0  0  0  0  0  0  0  0
   32.8690   28.6070   33.9100 H   0  0  0  0  0  0  0  0  0  0  0  0
   32.3680   31.2550   37.2320 H   0  0  0  0  0  0  0  0  0  0  0  0
   36.6810   28.2250   34.6890 O   0  0  0  0  0  0  0  0  0  0  0  0
   36.0660   28.3840   35.4630 H   0  0  0  0  0  0  0  0  0  0  0  0
   38.2630   27.3760   32.6340 O   0  0  0  0  0  0  0  0  0  0  0  0
   39.6170   26.5010   35.1840 Cl  0  0  0  0  0  0  0  0  0  0  0  0
   38.6920   25.4510   34.1490 C   0  0  0  0  0  0  0  0  0  0  0  0
   38.1480   26.0700   33.0090 C   0  0  0  0  0  0  0  0  0  0  0  0
   37.4110   25.2700   32.1690 C   0  0  0  0  0  0  0  0  0  0  0  0
   37.1880   23.9270   32.3860 C   0  0  0  0  0  0  0  0  0  0  0  0
   37.7240   23.3290   33.5030 C   0  0  0  0  0  0  0  0  0  0  0  0
   38.4650   24.1010   34.3630 C   0  0  0  0  0  0  0  0  0  0  0  0
   36.9430   25.6400   31.2570 H   0  0  0  0  0  0  0  0  0  0  0  0
   36.6160   23.2760   31.7460 H   0  0  0  0  0  0  0  0  0  0  0  0
   37.6320   22.2820   33.8050 H   0  0  0  0  0  0  0  0  0  0  0  0
   37.3060   24.1880   36.9080 F   0  0  0  0  0  0  0  0  0  0  0  0
   38.5350   23.6180   36.8460 C   0  0  0  0  0  0  0  0  0  0  0  0
   39.0850   23.5880   35.5790 C   0  0  0  0  0  0  0  0  0  0  0  0
   40.3340   23.0350   35.3830 C   0  0  0  0  0  0  0  0  0  0  0  0
   40.8230   22.9820   34.3980 H   0  0  0  0  0  0  0  0  0  0  0  0
   41.0450   22.5070   36.4410 C   0  0  0  0  0  0  0  0  0  0  0  0
   42.0240   22.0550   36.3920 H   0  0  0  0  0  0  0  0  0  0  0  0
   40.4860   22.5440   37.7010 C   0  0  0  0  0  3  0  0  0  0  0  0
   39.2220   23.0990   37.9310 C   0  0  0  0  0  3  0  0  0  0  0  0
  1 19  1  0  0  0  0
  2  1  1  0  0  0  0
  2 11  1  0  0  0  0
  3  2  2  0  0  0  0
  4  5  2  0  0  0  0
  4  3  1  0  0  0  0
  5  6  1  0  0  0  0
  6 21  1  0  0  0  0
  6  1  2  0  0  0  0
  7  3  1  0  0  0  0
  8  4  1  0  0  0  0
  9  5  1  0  0  0  0
 10 15  1  0  0  0  0
 11 12  1  0  0  0  0
 11 10  2  0  0  0  0
 12 13  2  0  0  0  0
 13 14  1  0  0  0  0
 14 18  1  0  0  0  0
 15 14  2  0  0  0  0
 16 10  1  0  0  0  0
 17 12  1  0  0  0  0
 19 20  1  0  0  0  0
 21 24  1  0  0  0  0
 23 28  1  0  0  0  0
 23 22  1  0  0  0  0
 24 23  2  0  0  0  0
 25 26  2  0  0  0  0
 25 24  1  0  0  0  0
 26 27  1  0  0  0  0
 27 31  1  0  0  0  0
 27 28  2  0  0  0  0
 28 34  1  0  0  0  0
 29 25  1  0  0  0  0
 30 26  1  0  0  0  0
 33 32  1  0  0  0  0
 33 40  1  0  0  0  0
 34 33  2  0  0  0  0
 35 34  1  0  0  0  0
 35 37  2  0  0  0  0
 36 35  1  0  0  0  0
 37 39  1  0  0  0  0
 38 37  1  0  0  0  0
 39 40  2  0  0  0  0
M  END
>  <minimizedAffinity>
-6.34675741

$$$$

 OpenBabel03272501233D

 40 43  0  0  0  0  0  0  0  0999 V2000
   36.4610   28.1720   33.6170 C   0  0  0  0  0  0  0  0  0  0  0  0
   35.8450   29.4080   33.4540 C   0  0  0  0  0  0  0  0  0  0  0  0
   35.9040   29.9060   32.1600 C   0  0  0  0  0  0  0  0  0  0  0  0
   36.5350   29.2050   31.1310 C   0  0  0  0  0  0  0  0  0  0  0  0
   37.1240   27.9800   31.3770 C   0  0  0  0  0  0  0  0  0  0  0  0
   37.0860   27.4550   32.6450 C   0  0  0  0  0  0  0  0  0  0  0  0
   35.4590   30.8640   31.9070 H   0  0  0  0  0  0  0  0  0  0  0  0
   36.5800   29.5980   30.1200 H   0  0  0  0  0  0  0  0  0  0  0  0
   37.6220   27.4060   30.6070 H   0  0  0  0  0  0  0  0  0  0  0  0
   35.9280   30.9670   35.3490 C   0  0  0  0  0  0  0  0  0  0  0  0
   35.2050   30.1130   34.5100 C   0  0  0  0  0  0  0  0  0  0  0  0
   33.8160   29.9760   34.7470 C   0  0  0  0  0  0  0  0  0  0  0  0
   33.2780   30.6910   35.7840 N   0  0  0  0  0  0  0  0  0  0  0  0
   34.0180   31.5010   36.5650 C   0  0  0  0  0  0  0  0  0  0  0  0
   35.3350   31.6400   36.3510 N   0  0  0  0  0  0  0  0  0  0  0  0
   36.9690   31.0610   35.1620 H   0  0  0  0  0  0  0  0  0  0  0  0
   33.2400   29.3240   34.1120 H   0  0  0  0  0  0  0  0  0  0  0  0
   33.6080   32.0630   37.3770 H   0  0  0  0  0  0  0  0  0  0  0  0
   36.4540   27.5810   34.8990 O   0  0  0  0  0  0  0  0  0  0  0  0
   35.9070   27.9570   35.6490 H   0  0  0  0  0  0  0  0  0  0  0  0
   37.6850   26.2150   32.8830 O   0  0  0  0  0  0  0  0  0  0  0  0
   38.1150   23.5960   34.3150 Cl  0  0  0  0  0  0  0  0  0  0  0  0
   39.2720   24.8950   34.2700 C   0  0  0  0  0  0  0  0  0  0  0  0
   38.8630   26.0290   33.5430 C   0  0  0  0  0  0  0  0  0  0  0  0
   39.7530   27.0750   33.4870 C   0  0  0  0  0  0  0  0  0  0  0  0
   40.9910   27.0650   34.0930 C   0  0  0  0  0  0  0  0  0  0  0  0
   41.3830   25.9530   34.8020 C   0  0  0  0  0  0  0  0  0  0  0  0
   40.5170   24.8900   34.8780 C   0  0  0  0  0  0  0  0  0  0  0  0
   39.5440   28.0010   32.9530 H   0  0  0  0  0  0  0  0  0  0  0  0
   41.7070   27.8690   34.0660 H   0  0  0  0  0  0  0  0  0  0  0  0
   42.3270   25.8010   35.3330 H   0  0  0  0  0  0  0  0  0  0  0  0
   39.2870   24.0940   37.2620 F   0  0  0  0  0  0  0  0  0  0  0  0
   40.2200   23.2410   36.7740 C   0  0  0  0  0  0  0  0  0  0  0  0
   40.8120   23.6560   35.5980 C   0  0  0  0  0  0  0  0  0  0  0  0
   41.7800   22.8760   34.9990 C   0  0  0  0  0  0  0  0  0  0  0  0
   42.2870   23.1550   34.0620 H   0  0  0  0  0  0  0  0  0  0  0  0
   42.1670   21.6770   35.5630 C   0  0  0  0  0  0  0  0  0  0  0  0
   42.9110   20.9990   35.1750 H   0  0  0  0  0  0  0  0  0  0  0  0
   41.5690   21.2730   36.7380 C   0  0  0  0  0  3  0  0  0  0  0  0
   40.5850   22.0430   37.3680 C   0  0  0  0  0  3  0  0  0  0  0  0
  1 19  1  0  0  0  0
  2  1  1  0  0  0  0
  2 11  1  0  0  0  0
  3  2  2  0  0  0  0
  4  5  2  0  0  0  0
  4  3  1  0  0  0  0
  5  6  1  0  0  0  0
  6 21  1  0  0  0  0
  6  1  2  0  0  0  0
  7  3  1  0  0  0  0
  8  4  1  0  0  0  0
  9  5  1  0  0  0  0
 10 15  1  0  0  0  0
 11 12  1  0  0  0  0
 11 10  2  0  0  0  0
 12 13  2  0  0  0  0
 13 14  1  0  0  0  0
 14 18  1  0  0  0  0
 15 14  2  0  0  0  0
 16 10  1  0  0  0  0
 17 12  1  0  0  0  0
 19 20  1  0  0  0  0
 21 24  1  0  0  0  0
 23 22  1  0  0  0  0
 23 28  1  0  0  0  0
 24 23  2  0  0  0  0
 25 24  1  0  0  0  0
 25 26  2  0  0  0  0
 26 27  1  0  0  0  0
 27 28  2  0  0  0  0
 27 31  1  0  0  0  0
 28 34  1  0  0  0  0
 29 25  1  0  0  0  0
 30 26  1  0  0  0  0
 33 32  1  0  0  0  0
 33 40  1  0  0  0  0
 34 33  2  0  0  0  0
 35 37  2  0  0  0  0
 35 34  1  0  0  0  0
 36 35  1  0  0  0  0
 37 39  1  0  0  0  0
 38 37  1  0  0  0  0
 39 40  2  0  0  0  0
M  END
>  <minimizedAffinity>
-6.33614826

$$$$

 OpenBabel03272501233D

 40 43  0  0  0  0  0  0  0  0999 V2000
   40.0610   23.7830   35.3840 C   0  0  0  0  0  0  0  0  0  0  0  0
   40.5080   23.0600   36.4850 C   0  0  0  0  0  0  0  0  0  0  0  0
   39.6250   23.0520   37.5560 C   0  0  0  0  0  0  0  0  0  0  0  0
   38.4010   23.7200   37.5030 C   0  0  0  0  0  0  0  0  0  0  0  0
   38.0310   24.4160   36.3690 C   0  0  0  0  0  0  0  0  0  0  0  0
   38.8790   24.4480   35.2900 C   0  0  0  0  0  0  0  0  0  0  0  0
   39.8610   22.5210   38.4740 H   0  0  0  0  0  0  0  0  0  0  0  0
   37.7130   23.7110   38.3430 H   0  0  0  0  0  0  0  0  0  0  0  0
   37.0920   24.9470   36.2890 H   0  0  0  0  0  0  0  0  0  0  0  0
   41.8350   21.0340   36.8920 C   0  0  0  0  0  0  0  0  0  0  0  0
   41.7570   22.3820   36.5270 C   0  0  0  0  0  0  0  0  0  0  0  0
   42.9640   23.0480   36.2010 C   0  0  0  0  0  0  0  0  0  0  0  0
   44.1230   22.3220   36.2660 N   0  0  0  0  0  0  0  0  0  0  0  0
   44.1450   21.0240   36.6240 C   0  0  0  0  0  0  0  0  0  0  0  0
   43.0100   20.3810   36.9350 N   0  0  0  0  0  0  0  0  0  0  0  0
   40.9230   20.5460   37.1350 H   0  0  0  0  0  0  0  0  0  0  0  0
   42.9260   24.0860   35.9180 H   0  0  0  0  0  0  0  0  0  0  0  0
   45.0460   20.4480   36.6780 H   0  0  0  0  0  0  0  0  0  0  0  0
   40.8900   23.8510   34.2440 O   0  0  0  0  0  0  0  0  0  0  0  0
   41.7140   23.2880   34.1570 H   0  0  0  0  0  0  0  0  0  0  0  0
   38.4960   25.1560   34.1480 O   0  0  0  0  0  0  0  0  0  0  0  0
   38.1830   22.1800   33.7630 Cl  0  0  0  0  0  0  0  0  0  0  0  0
   37.2930   23.3870   32.8790 C   0  0  0  0  0  0  0  0  0  0  0  0
   37.5980   24.7170   33.2190 C   0  0  0  0  0  0  0  0  0  0  0  0
   36.9140   25.6970   32.5400 C   0  0  0  0  0  0  0  0  0  0  0  0
   35.9700   25.4430   31.5680 C   0  0  0  0  0  0  0  0  0  0  0  0
   35.6780   24.1380   31.2410 C   0  0  0  0  0  0  0  0  0  0  0  0
   36.3440   23.1360   31.9010 C   0  0  0  0  0  0  0  0  0  0  0  0
   37.0680   26.7600   32.7200 H   0  0  0  0  0  0  0  0  0  0  0  0
   35.4190   26.1890   31.0200 H   0  0  0  0  0  0  0  0  0  0  0  0
   34.9590   23.7850   30.4970 H   0  0  0  0  0  0  0  0  0  0  0  0
   37.9050   21.5560   30.1990 F   0  0  0  0  0  0  0  0  0  0  0  0
   36.8810   20.9150   30.8130 C   0  0  0  0  0  0  0  0  0  0  0  0
   36.1260   21.7160   31.6470 C   0  0  0  0  0  0  0  0  0  0  0  0
   35.0520   21.1830   32.3310 C   0  0  0  0  0  0  0  0  0  0  0  0
   34.4150   21.7710   33.0090 H   0  0  0  0  0  0  0  0  0  0  0  0
   34.7210   19.8500   32.1920 C   0  0  0  0  0  0  0  0  0  0  0  0
   33.9050   19.3410   32.6800 H   0  0  0  0  0  0  0  0  0  0  0  0
   35.4820   19.0600   31.3560 C   0  0  0  0  0  3  0  0  0  0  0  0
   36.5750   19.5730   30.6500 C   0  0  0  0  0  3  0  0  0  0  0  0
  1  2  1  0  0  0  0
  2 11  1  0  0  0  0
  2  3  2  0  0  0  0
  3  7  1  0  0  0  0
  4  3  1  0  0  0  0
  4  8  1  0  0  0  0
  5  4  2  0  0  0  0
  6  1  2  0  0  0  0
  6  5  1  0  0  0  0
  9  5  1  0  0  0  0
 10 15  1  0  0  0  0
 10 16  1  0  0  0  0
 11 10  2  0  0  0  0
 12 13  2  0  0  0  0
 12 11  1  0  0  0  0
 13 14  1  0  0  0  0
 14 18  1  0  0  0  0
 14 15  2  0  0  0  0
 17 12  1  0  0  0  0
 19  1  1  0  0  0  0
 20 19  1  0  0  0  0
 21  6  1  0  0  0  0
 23 24  1  0  0  0  0
 23 22  1  0  0  0  0
 24 21  1  0  0  0  0
 25 29  1  0  0  0  0
 25 24  2  0  0  0  0
 26 25  1  0  0  0  0
 27 26  2  0  0  0  0
 27 28  1  0  0  0  0
 28 23  2  0  0  0  0
 30 26  1  0  0  0  0
 31 27  1  0  0  0  0
 32 33  1  0  0  0  0
 33 34  1  0  0  0  0
 34 28  1  0  0  0  0
 34 35  2  0  0  0  0
 35 36  1  0  0  0  0
 37 35  1  0  0  0  0
 37 38  1  0  0  0  0
 39 37  2  0  0  0  0
 40 33  2  0  0  0  0
 40 39  1  0  0  0  0
M  END
>  <minimizedAffinity>
-6.27194214

$$$$

 OpenBabel03272501233D

 40 43  0  0  0  0  0  0  0  0999 V2000
   37.4290   25.1150   31.6170 C   0  0  0  0  0  0  0  0  0  0  0  0
   36.8850   23.8520   31.4100 C   0  0  0  0  0  0  0  0  0  0  0  0
   35.5410   23.8610   31.0640 C   0  0  0  0  0  0  0  0  0  0  0  0
   34.8220   25.0510   30.9420 C   0  0  0  0  0  0  0  0  0  0  0  0
   35.4390   26.2670   31.1650 C   0  0  0  0  0  0  0  0  0  0  0  0
   36.7670   26.2980   31.5100 C   0  0  0  0  0  0  0  0  0  0  0  0
   35.0040   22.9360   30.8760 H   0  0  0  0  0  0  0  0  0  0  0  0
   33.7710   25.0550   30.6720 H   0  0  0  0  0  0  0  0  0  0  0  0
   34.9170   27.2120   31.0820 H   0  0  0  0  0  0  0  0  0  0  0  0
   38.3420   22.1210   30.4540 C   0  0  0  0  0  0  0  0  0  0  0  0
   37.6280   22.6460   31.5360 C   0  0  0  0  0  0  0  0  0  0  0  0
   37.6700   21.9360   32.7600 C   0  0  0  0  0  0  0  0  0  0  0  0
   38.4090   20.7830   32.7970 N   0  0  0  0  0  0  0  0  0  0  0  0
   39.0800   20.3190   31.7260 C   0  0  0  0  0  0  0  0  0  0  0  0
   39.0480   20.9820   30.5600 N   0  0  0  0  0  0  0  0  0  0  0  0
   38.3020   22.6630   29.5410 H   0  0  0  0  0  0  0  0  0  0  0  0
   37.1270   22.3220   33.6060 H   0  0  0  0  0  0  0  0  0  0  0  0
   39.6600   19.4200   31.7440 H   0  0  0  0  0  0  0  0  0  0  0  0
   38.7910   25.2110   31.9740 O   0  0  0  0  0  0  0  0  0  0  0  0
   39.4000   24.4150   31.9460 H   0  0  0  0  0  0  0  0  0  0  0  0
   37.3800   27.5340   31.7340 O   0  0  0  0  0  0  0  0  0  0  0  0
   36.3140   28.1940   34.4770 Cl  0  0  0  0  0  0  0  0  0  0  0  0
   36.1490   29.2220   33.0820 C   0  0  0  0  0  0  0  0  0  0  0  0
   36.7220   28.7160   31.9010 C   0  0  0  0  0  0  0  0  0  0  0  0
   36.6100   29.5020   30.7790 C   0  0  0  0  0  0  0  0  0  0  0  0
   35.9790   30.7280   30.7590 C   0  0  0  0  0  0  0  0  0  0  0  0
   35.4210   31.2150   31.9180 C   0  0  0  0  0  0  0  0  0  0  0  0
   35.5150   30.4540   33.0570 C   0  0  0  0  0  0  0  0  0  0  0  0
   37.0150   29.2120   29.8100 H   0  0  0  0  0  0  0  0  0  0  0  0
   35.8750   31.3640   29.8960 H   0  0  0  0  0  0  0  0  0  0  0  0
   34.8920   32.1630   32.0540 H   0  0  0  0  0  0  0  0  0  0  0  0
   32.9550   29.8040   33.9800 F   0  0  0  0  0  0  0  0  0  0  0  0
   33.7080   30.5490   34.8250 C   0  0  0  0  0  0  0  0  0  0  0  0
   34.9660   30.8570   34.3470 C   0  0  0  0  0  0  0  0  0  0  0  0
   35.8300   31.6130   35.1130 C   0  0  0  0  0  0  0  0  0  0  0  0
   36.8450   31.8890   34.7850 H   0  0  0  0  0  0  0  0  0  0  0  0
   35.4520   32.0680   36.3590 C   0  0  0  0  0  0  0  0  0  0  0  0
   36.0510   32.6630   37.0310 H   0  0  0  0  0  0  0  0  0  0  0  0
   34.1930   31.7560   36.8270 C   0  0  0  0  0  3  0  0  0  0  0  0
   33.2950   30.9920   36.0730 C   0  0  0  0  0  3  0  0  0  0  0  0
  1 19  1  0  0  0  0
  2 11  1  0  0  0  0
  2  1  2  0  0  0  0
  3  2  1  0  0  0  0
  4  3  2  0  0  0  0
  4  5  1  0  0  0  0
  5  6  2  0  0  0  0
  6  1  1  0  0  0  0
  6 21  1  0  0  0  0
  7  3  1  0  0  0  0
  8  4  1  0  0  0  0
  9  5  1  0  0  0  0
 10 15  2  0  0  0  0
 10 11  1  0  0  0  0
 11 12  2  0  0  0  0
 12 13  1  0  0  0  0
 12 17  1  0  0  0  0
 14 18  1  0  0  0  0
 14 13  2  0  0  0  0
 15 14  1  0  0  0  0
 16 10  1  0  0  0  0
 20 19  1  0  0  0  0
 21 24  1  0  0  0  0
 23 22  1  0  0  0  0
 24 23  2  0  0  0  0
 25 24  1  0  0  0  0
 26 25  2  0  0  0  0
 26 27  1  0  0  0  0
 27 31  1  0  0  0  0
 27 28  2  0  0  0  0
 28 23  1  0  0  0  0
 28 34  1  0  0  0  0
 29 25  1  0  0  0  0
 30 26  1  0  0  0  0
 32 33  1  0  0  0  0
 33 40  1  0  0  0  0
 34 33  2  0  0  0  0
 34 35  1  0  0  0  0
 35 37  2  0  0  0  0
 36 35  1  0  0  0  0
 37 39  1  0  0  0  0
 37 38  1  0  0  0  0
 40 39  2  0  0  0  0
M  END
>  <minimizedAffinity>
-6.21933937

$$$$

 OpenBabel03272501233D

 40 43  0  0  0  0  0  0  0  0999 V2000
   36.3090   25.9430   31.7570 C   0  0  0  0  0  0  0  0  0  0  0  0
   37.0030   24.8400   32.2430 C   0  0  0  0  0  0  0  0  0  0  0  0
   37.8670   25.1280   33.2900 C   0  0  0  0  0  0  0  0  0  0  0  0
   38.0070   26.4220   33.7920 C   0  0  0  0  0  0  0  0  0  0  0  0
   37.2790   27.4650   33.2520 C   0  0  0  0  0  0  0  0  0  0  0  0
   36.4140   27.2190   32.2150 C   0  0  0  0  0  0  0  0  0  0  0  0
   38.4650   24.3490   33.7540 H   0  0  0  0  0  0  0  0  0  0  0  0
   38.6840   26.6440   34.6110 H   0  0  0  0  0  0  0  0  0  0  0  0
   37.3590   28.4820   33.6130 H   0  0  0  0  0  0  0  0  0  0  0  0
   35.6480   22.8260   31.8660 C   0  0  0  0  0  0  0  0  0  0  0  0
   36.8520   23.5250   31.7240 C   0  0  0  0  0  0  0  0  0  0  0  0
   37.9130   22.8780   31.0440 C   0  0  0  0  0  0  0  0  0  0  0  0
   37.6840   21.6120   30.5750 N   0  0  0  0  0  0  0  0  0  0  0  0
   36.5060   20.9820   30.7390 C   0  0  0  0  0  0  0  0  0  0  0  0
   35.4920   21.5830   31.3800 N   0  0  0  0  0  0  0  0  0  0  0  0
   34.8600   23.3220   32.3780 H   0  0  0  0  0  0  0  0  0  0  0  0
   38.8490   23.3980   30.9240 H   0  0  0  0  0  0  0  0  0  0  0  0
   36.3170   19.9930   30.3760 H   0  0  0  0  0  0  0  0  0  0  0  0
   35.4050   25.7520   30.6900 O   0  0  0  0  0  0  0  0  0  0  0  0
   35.1520   24.8370   30.3720 H   0  0  0  0  0  0  0  0  0  0  0  0
   35.6830   28.2810   31.6760 O   0  0  0  0  0  0  0  0  0  0  0  0
   34.3570   29.1060   34.2570 Cl  0  0  0  0  0  0  0  0  0  0  0  0
   35.2550   30.1810   33.2230 C   0  0  0  0  0  0  0  0  0  0  0  0
   35.7890   29.5830   32.0670 C   0  0  0  0  0  0  0  0  0  0  0  0
   36.5060   30.4030   31.2280 C   0  0  0  0  0  0  0  0  0  0  0  0
   36.7180   31.7450   31.4600 C   0  0  0  0  0  0  0  0  0  0  0  0
   36.1920   32.3220   32.5940 C   0  0  0  0  0  0  0  0  0  0  0  0
   35.4710   31.5300   33.4530 C   0  0  0  0  0  0  0  0  0  0  0  0
   36.9650   30.0500   30.3050 H   0  0  0  0  0  0  0  0  0  0  0  0
   37.2740   32.4110   30.8210 H   0  0  0  0  0  0  0  0  0  0  0  0
   36.2760   33.3650   32.9090 H   0  0  0  0  0  0  0  0  0  0  0  0
   36.6240   31.3320   35.9940 F   0  0  0  0  0  0  0  0  0  0  0  0
   35.4110   31.9340   35.9500 C   0  0  0  0  0  0  0  0  0  0  0  0
   34.8630   32.0190   34.6850 C   0  0  0  0  0  0  0  0  0  0  0  0
   33.6290   32.6100   34.5060 C   0  0  0  0  0  0  0  0  0  0  0  0
   33.1420   32.7080   33.5230 H   0  0  0  0  0  0  0  0  0  0  0  0
   32.9300   33.1220   35.5800 C   0  0  0  0  0  0  0  0  0  0  0  0
   31.9640   33.6000   35.5450 H   0  0  0  0  0  0  0  0  0  0  0  0
   33.4870   33.0310   36.8390 C   0  0  0  0  0  3  0  0  0  0  0  0
   34.7360   32.4370   37.0510 C   0  0  0  0  0  3  0  0  0  0  0  0
  1  6  2  0  0  0  0
  1  2  1  0  0  0  0
  2  3  2  0  0  0  0
  3  7  1  0  0  0  0
  3  4  1  0  0  0  0
  4  8  1  0  0  0  0
  5  9  1  0  0  0  0
  5  4  2  0  0  0  0
  6  5  1  0  0  0  0
 10 16  1  0  0  0  0
 11 10  1  0  0  0  0
 11  2  1  0  0  0  0
 12 11  2  0  0  0  0
 13 14  2  0  0  0  0
 13 12  1  0  0  0  0
 14 15  1  0  0  0  0
 15 10  2  0  0  0  0
 17 12  1  0  0  0  0
 18 14  1  0  0  0  0
 19  1  1  0  0  0  0
 20 19  1  0  0  0  0
 21 24  1  0  0  0  0
 21  6  1  0  0  0  0
 23 28  1  0  0  0  0
 23 22  1  0  0  0  0
 24 23  2  0  0  0  0
 25 26  2  0  0  0  0
 25 24  1  0  0  0  0
 26 27  1  0  0  0  0
 27 31  1  0  0  0  0
 27 28  2  0  0  0  0
 28 34  1  0  0  0  0
 29 25  1  0  0  0  0
 30 26  1  0  0  0  0
 33 32  1  0  0  0  0
 33 40  1  0  0  0  0
 34 33  2  0  0  0  0
 35 34  1  0  0  0  0
 35 37  2  0  0  0  0
 36 35  1  0  0  0  0
 37 39  1  0  0  0  0
 38 37  1  0  0  0  0
 39 40  2  0  0  0  0
M  END
>  <minimizedAffinity>
-6.18889475

$$$$

 OpenBabel03272501233D

 40 43  0  0  0  0  0  0  0  0999 V2000
   38.8460   25.0990   33.7030 C   0  0  0  0  0  0  0  0  0  0  0  0
   38.6420   23.8040   34.1670 C   0  0  0  0  0  0  0  0  0  0  0  0
   37.7120   23.0770   33.4360 C   0  0  0  0  0  0  0  0  0  0  0  0
   37.0550   23.6250   32.3340 C   0  0  0  0  0  0  0  0  0  0  0  0
   37.3160   24.9220   31.9370 C   0  0  0  0  0  0  0  0  0  0  0  0
   38.2280   25.6720   32.6360 C   0  0  0  0  0  0  0  0  0  0  0  0
   37.4670   22.0530   33.7010 H   0  0  0  0  0  0  0  0  0  0  0  0
   36.3290   23.0540   31.7640 H   0  0  0  0  0  0  0  0  0  0  0  0
   36.8270   25.3830   31.0880 H   0  0  0  0  0  0  0  0  0  0  0  0
   38.8500   23.4740   36.5920 C   0  0  0  0  0  0  0  0  0  0  0  0
   39.3180   23.2560   35.2920 C   0  0  0  0  0  0  0  0  0  0  0  0
   40.4870   22.4720   35.1340 C   0  0  0  0  0  0  0  0  0  0  0  0
   41.0760   21.9820   36.2690 N   0  0  0  0  0  0  0  0  0  0  0  0
   40.5860   22.2210   37.5000 C   0  0  0  0  0  0  0  0  0  0  0  0
   39.4800   22.9620   37.6640 N   0  0  0  0  0  0  0  0  0  0  0  0
   37.9730   24.0640   36.6970 H   0  0  0  0  0  0  0  0  0  0  0  0
   40.8640   22.2920   34.1420 H   0  0  0  0  0  0  0  0  0  0  0  0
   41.0390   21.8430   38.3930 H   0  0  0  0  0  0  0  0  0  0  0  0
   39.7730   25.9190   34.3820 O   0  0  0  0  0  0  0  0  0  0  0  0
   40.3780   25.5530   35.0910 H   0  0  0  0  0  0  0  0  0  0  0  0
   38.4830   26.9830   32.2260 O   0  0  0  0  0  0  0  0  0  0  0  0
   36.8280   27.8350   34.5990 Cl  0  0  0  0  0  0  0  0  0  0  0  0
   36.6580   28.4870   32.9940 C   0  0  0  0  0  0  0  0  0  0  0  0
   37.5340   27.9440   32.0370 C   0  0  0  0  0  0  0  0  0  0  0  0
   37.4280   28.4370   30.7580 C   0  0  0  0  0  0  0  0  0  0  0  0
   36.5270   29.4100   30.3820 C   0  0  0  0  0  0  0  0  0  0  0  0
   35.6730   29.9360   31.3240 C   0  0  0  0  0  0  0  0  0  0  0  0
   35.7540   29.4650   32.6110 C   0  0  0  0  0  0  0  0  0  0  0  0
   38.0540   28.0910   29.9360 H   0  0  0  0  0  0  0  0  0  0  0  0
   36.4210   29.8140   29.3890 H   0  0  0  0  0  0  0  0  0  0  0  0
   34.9110   30.7060   31.1750 H   0  0  0  0  0  0  0  0  0  0  0  0
   33.0890   28.7100   33.0120 F   0  0  0  0  0  0  0  0  0  0  0  0
   33.5910   29.5820   33.9200 C   0  0  0  0  0  0  0  0  0  0  0  0
   34.9070   29.9390   33.7000 C   0  0  0  0  0  0  0  0  0  0  0  0
   35.5340   30.8230   34.5540 C   0  0  0  0  0  0  0  0  0  0  0  0
   36.5800   31.1440   34.4310 H   0  0  0  0  0  0  0  0  0  0  0  0
   34.8610   31.3580   35.6330 C   0  0  0  0  0  0  0  0  0  0  0  0
   35.2600   32.0530   36.3550 H   0  0  0  0  0  0  0  0  0  0  0  0
   33.5470   30.9950   35.8420 C   0  0  0  0  0  3  0  0  0  0  0  0
   32.8840   30.1020   34.9930 C   0  0  0  0  0  3  0  0  0  0  0  0
  1  2  1  0  0  0  0
  1 19  1  0  0  0  0
  2 11  1  0  0  0  0
  3  7  1  0  0  0  0
  3  2  2  0  0  0  0
  4  3  1  0  0  0  0
  5  4  2  0  0  0  0
  5  6  1  0  0  0  0
  6  1  2  0  0  0  0
  8  4  1  0  0  0  0
  9  5  1  0  0  0  0
 10 16  1  0  0  0  0
 10 15  1  0  0  0  0
 11 10  2  0  0  0  0
 12 11  1  0  0  0  0
 12 13  2  0  0  0  0
 13 14  1  0  0  0  0
 14 15  2  0  0  0  0
 14 18  1  0  0  0  0
 17 12  1  0  0  0  0
 19 20  1  0  0  0  0
 21  6  1  0  0  0  0
 23 22  1  0  0  0  0
 24 21  1  0  0  0  0
 24 23  2  0  0  0  0
 25 24  1  0  0  0  0
 26 25  2  0  0  0  0
 26 27  1  0  0  0  0
 27 28  2  0  0  0  0
 28 23  1  0  0  0  0
 28 34  1  0  0  0  0
 29 25  1  0  0  0  0
 30 26  1  0  0  0  0
 31 27  1  0  0  0  0
 32 33  1  0  0  0  0
 33 40  1  0  0  0  0
 34 33  2  0  0  0  0
 34 35  1  0  0  0  0
 35 37  2  0  0  0  0
 36 35  1  0  0  0  0
 37 39  1  0  0  0  0
 37 38  1  0  0  0  0
 40 39  2  0  0  0  0
M  END
>  <minimizedAffinity>
-6.15305233

$$$$

 OpenBabel03272501233D

 40 43  0  0  0  0  0  0  0  0999 V2000
   36.2860   27.8220   32.0270 C   0  0  0  0  0  0  0  0  0  0  0  0
   35.6060   28.6990   32.8650 C   0  0  0  0  0  0  0  0  0  0  0  0
   36.0130   28.6490   34.1920 C   0  0  0  0  0  0  0  0  0  0  0  0
   37.0220   27.7840   34.6180 C   0  0  0  0  0  0  0  0  0  0  0  0
   37.6500   26.9440   33.7190 C   0  0  0  0  0  0  0  0  0  0  0  0
   37.2730   26.9640   32.3990 C   0  0  0  0  0  0  0  0  0  0  0  0
   35.5560   29.2860   34.9430 H   0  0  0  0  0  0  0  0  0  0  0  0
   37.3380   27.7480   35.6550 H   0  0  0  0  0  0  0  0  0  0  0  0
   38.4360   26.2590   34.0090 H   0  0  0  0  0  0  0  0  0  0  0  0
   33.2490   29.3870   32.8080 C   0  0  0  0  0  0  0  0  0  0  0  0
   34.5790   29.5760   32.4200 C   0  0  0  0  0  0  0  0  0  0  0  0
   34.8680   30.6700   31.5690 C   0  0  0  0  0  0  0  0  0  0  0  0
   33.8220   31.4670   31.1860 N   0  0  0  0  0  0  0  0  0  0  0  0
   32.5570   31.2410   31.5880 C   0  0  0  0  0  0  0  0  0  0  0  0
   32.2690   30.2090   32.3940 N   0  0  0  0  0  0  0  0  0  0  0  0
   33.0450   28.5620   33.4460 H   0  0  0  0  0  0  0  0  0  0  0  0
   35.8860   30.8340   31.2570 H   0  0  0  0  0  0  0  0  0  0  0  0
   31.7320   31.8580   31.2950 H   0  0  0  0  0  0  0  0  0  0  0  0
   35.9430   27.7980   30.6580 O   0  0  0  0  0  0  0  0  0  0  0  0
   35.3300   28.4810   30.2570 H   0  0  0  0  0  0  0  0  0  0  0  0
   37.9150   26.1100   31.4990 O   0  0  0  0  0  0  0  0  0  0  0  0
   35.7630   23.9990   31.6190 Cl  0  0  0  0  0  0  0  0  0  0  0  0
   37.4580   23.6930   31.8680 C   0  0  0  0  0  0  0  0  0  0  0  0
   38.2870   24.8250   31.7670 C   0  0  0  0  0  0  0  0  0  0  0  0
   39.6320   24.6200   31.9580 C   0  0  0  0  0  0  0  0  0  0  0  0
   40.1900   23.3910   32.2370 C   0  0  0  0  0  0  0  0  0  0  0  0
   39.3730   22.2880   32.3350 C   0  0  0  0  0  0  0  0  0  0  0  0
   38.0230   22.4600   32.1500 C   0  0  0  0  0  0  0  0  0  0  0  0
   40.3680   25.4220   31.9030 H   0  0  0  0  0  0  0  0  0  0  0  0
   41.2390   23.2000   32.3920 H   0  0  0  0  0  0  0  0  0  0  0  0
   39.6690   21.2580   32.5500 H   0  0  0  0  0  0  0  0  0  0  0  0
   36.7080   21.6530   34.4830 F   0  0  0  0  0  0  0  0  0  0  0  0
   36.3900   20.9570   33.3640 C   0  0  0  0  0  0  0  0  0  0  0  0
   37.0520   21.3740   32.2270 C   0  0  0  0  0  0  0  0  0  0  0  0
   36.8170   20.7450   31.0210 C   0  0  0  0  0  0  0  0  0  0  0  0
   37.3140   21.0330   30.0820 H   0  0  0  0  0  0  0  0  0  0  0  0
   35.9220   19.6980   30.9360 C   0  0  0  0  0  0  0  0  0  0  0  0
   35.6700   19.1430   30.0460 H   0  0  0  0  0  0  0  0  0  0  0  0
   35.2670   19.2890   32.0790 C   0  0  0  0  0  3  0  0  0  0  0  0
   35.4850   19.9080   33.3150 C   0  0  0  0  0  3  0  0  0  0  0  0
  1  6  2  0  0  0  0
  1  2  1  0  0  0  0
  2  3  2  0  0  0  0
  3  4  1  0  0  0  0
  3  7  1  0  0  0  0
  4  8  1  0  0  0  0
  5  9  1  0  0  0  0
  5  4  2  0  0  0  0
  6  5  1  0  0  0  0
 10 16  1  0  0  0  0
 11 10  1  0  0  0  0
 11  2  1  0  0  0  0
 12 11  2  0  0  0  0
 13 12  1  0  0  0  0
 13 14  2  0  0  0  0
 14 15  1  0  0  0  0
 15 10  2  0  0  0  0
 17 12  1  0  0  0  0
 18 14  1  0  0  0  0
 19  1  1  0  0  0  0
 20 19  1  0  0  0  0
 21 24  1  0  0  0  0
 21  6  1  0  0  0  0
 22 23  1  0  0  0  0
 23 28  1  0  0  0  0
 24 23  2  0  0  0  0
 24 25  1  0  0  0  0
 25 26  2  0  0  0  0
 26 27  1  0  0  0  0
 26 30  1  0  0  0  0
 27 31  1  0  0  0  0
 28 34  1  0  0  0  0
 28 27  2  0  0  0  0
 29 25  1  0  0  0  0
 33 32  1  0  0  0  0
 34 33  2  0  0  0  0
 35 34  1  0  0  0  0
 36 35  1  0  0  0  0
 37 35  2  0  0  0  0
 37 39  1  0  0  0  0
 38 37  1  0  0  0  0
 39 40  2  0  0  0  0
 40 33  1  0  0  0  0
M  END
>  <minimizedAffinity>
-6.05519915

$$$$

 OpenBabel03272501233D

 40 43  0  0  0  0  0  0  0  0999 V2000
   36.8200   27.8440   33.7430 C   0  0  0  0  0  0  0  0  0  0  0  0
   35.8590   28.7850   33.3910 C   0  0  0  0  0  0  0  0  0  0  0  0
   35.5900   28.8410   32.0300 C   0  0  0  0  0  0  0  0  0  0  0  0
   36.2430   28.0110   31.1180 C   0  0  0  0  0  0  0  0  0  0  0  0
   37.1870   27.1010   31.5510 C   0  0  0  0  0  0  0  0  0  0  0  0
   37.4810   27.0170   32.8890 C   0  0  0  0  0  0  0  0  0  0  0  0
   34.8570   29.5370   31.6320 H   0  0  0  0  0  0  0  0  0  0  0  0
   36.0300   28.0580   30.0550 H   0  0  0  0  0  0  0  0  0  0  0  0
   37.7160   26.4410   30.8750 H   0  0  0  0  0  0  0  0  0  0  0  0
   33.8360   29.4710   34.6020 C   0  0  0  0  0  0  0  0  0  0  0  0
   35.1990   29.6240   34.3300 C   0  0  0  0  0  0  0  0  0  0  0  0
   35.8990   30.6430   35.0220 C   0  0  0  0  0  0  0  0  0  0  0  0
   35.1890   31.4060   35.9090 N   0  0  0  0  0  0  0  0  0  0  0  0
   33.8750   31.2190   36.1360 C   0  0  0  0  0  0  0  0  0  0  0  0
   33.2000   30.2580   35.4880 N   0  0  0  0  0  0  0  0  0  0  0  0
   33.3210   28.7040   34.0760 H   0  0  0  0  0  0  0  0  0  0  0  0
   36.9500   30.7780   34.8270 H   0  0  0  0  0  0  0  0  0  0  0  0
   33.3110   31.8100   36.8270 H   0  0  0  0  0  0  0  0  0  0  0  0
   37.1640   27.7110   35.1060 O   0  0  0  0  0  0  0  0  0  0  0  0
   36.6430   28.1710   35.8270 H   0  0  0  0  0  0  0  0  0  0  0  0
   38.4370   26.0920   33.3160 O   0  0  0  0  0  0  0  0  0  0  0  0
   37.5320   23.9920   31.3490 Cl  0  0  0  0  0  0  0  0  0  0  0  0
   37.7320   23.7220   33.0570 C   0  0  0  0  0  0  0  0  0  0  0  0
   38.1630   24.8430   33.7890 C   0  0  0  0  0  0  0  0  0  0  0  0
   38.3320   24.6660   35.1410 C   0  0  0  0  0  0  0  0  0  0  0  0
   38.1040   23.4740   35.7950 C   0  0  0  0  0  0  0  0  0  0  0  0
   37.6810   22.3820   35.0720 C   0  0  0  0  0  0  0  0  0  0  0  0
   37.5030   22.5260   33.7180 C   0  0  0  0  0  0  0  0  0  0  0  0
   38.6630   25.4630   35.8060 H   0  0  0  0  0  0  0  0  0  0  0  0
   38.2270   23.3060   36.8520 H   0  0  0  0  0  0  0  0  0  0  0  0
   37.4610   21.3790   35.4490 H   0  0  0  0  0  0  0  0  0  0  0  0
   39.1970   20.6880   32.4610 F   0  0  0  0  0  0  0  0  0  0  0  0
   37.8750   20.5280   32.2110 C   0  0  0  0  0  0  0  0  0  0  0  0
   37.0600   21.4470   32.8420 C   0  0  0  0  0  0  0  0  0  0  0  0
   35.6920   21.3920   32.6670 C   0  0  0  0  0  0  0  0  0  0  0  0
   34.9930   22.0960   33.1440 H   0  0  0  0  0  0  0  0  0  0  0  0
   35.1230   20.4240   31.8650 C   0  0  0  0  0  0  0  0  0  0  0  0
   34.0710   20.2980   31.6640 H   0  0  0  0  0  0  0  0  0  0  0  0
   35.9470   19.5120   31.2380 C   0  0  0  0  0  3  0  0  0  0  0  0
   37.3370   19.5430   31.3970 C   0  0  0  0  0  3  0  0  0  0  0  0
  1 19  1  0  0  0  0
  2  1  1  0  0  0  0
  2 11  1  0  0  0  0
  3  2  2  0  0  0  0
  4  5  2  0  0  0  0
  4  3  1  0  0  0  0
  5  6  1  0  0  0  0
  6 21  1  0  0  0  0
  6  1  2  0  0  0  0
  7  3  1  0  0  0  0
  8  4  1  0  0  0  0
  9  5  1  0  0  0  0
 10 15  1  0  0  0  0
 11 10  2  0  0  0  0
 11 12  1  0  0  0  0
 12 13  2  0  0  0  0
 13 14  1  0  0  0  0
 14 18  1  0  0  0  0
 15 14  2  0  0  0  0
 16 10  1  0  0  0  0
 17 12  1  0  0  0  0
 19 20  1  0  0  0  0
 21 24  1  0  0  0  0
 22 23  1  0  0  0  0
 23 28  2  0  0  0  0
 23 24  1  0  0  0  0
 24 25  2  0  0  0  0
 25 26  1  0  0  0  0
 25 29  1  0  0  0  0
 26 30  1  0  0  0  0
 27 31  1  0  0  0  0
 27 26  2  0  0  0  0
 28 27  1  0  0  0  0
 33 32  1  0  0  0  0
 33 34  1  0  0  0  0
 34 28  1  0  0  0  0
 35 34  2  0  0  0  0
 35 36  1  0  0  0  0
 37 35  1  0  0  0  0
 38 37  1  0  0  0  0
 39 40  1  0  0  0  0
 39 37  2  0  0  0  0
 40 33  2  0  0  0  0
M  END
>  <minimizedAffinity>
-5.97609663

$$$$

 OpenBabel03272501233D

 40 43  0  0  0  0  0  0  0  0999 V2000
   36.1600   29.0760   33.4130 C   0  0  0  0  0  0  0  0  0  0  0  0
   35.5250   30.3090   33.5250 C   0  0  0  0  0  0  0  0  0  0  0  0
   35.5070   31.0470   32.3500 C   0  0  0  0  0  0  0  0  0  0  0  0
   36.0840   30.5690   31.1730 C   0  0  0  0  0  0  0  0  0  0  0  0
   36.6970   29.3310   31.1470 C   0  0  0  0  0  0  0  0  0  0  0  0
   36.7350   28.5720   32.2890 C   0  0  0  0  0  0  0  0  0  0  0  0
   35.0390   32.0270   32.3100 H   0  0  0  0  0  0  0  0  0  0  0  0
   36.0690   31.1490   30.2560 H   0  0  0  0  0  0  0  0  0  0  0  0
   37.1570   28.9250   30.2550 H   0  0  0  0  0  0  0  0  0  0  0  0
   35.6860   31.5270   35.6510 C   0  0  0  0  0  0  0  0  0  0  0  0
   34.9390   30.7850   34.7290 C   0  0  0  0  0  0  0  0  0  0  0  0
   33.5810   30.5270   35.0370 C   0  0  0  0  0  0  0  0  0  0  0  0
   33.0960   31.0230   36.2180 N   0  0  0  0  0  0  0  0  0  0  0  0
   33.8570   31.7320   37.0730 C   0  0  0  0  0  0  0  0  0  0  0  0
   35.1450   31.9840   36.7930 N   0  0  0  0  0  0  0  0  0  0  0  0
   36.7040   31.7140   35.4080 H   0  0  0  0  0  0  0  0  0  0  0  0
   32.9880   29.9570   34.3420 H   0  0  0  0  0  0  0  0  0  0  0  0
   33.4880   32.1230   37.9970 H   0  0  0  0  0  0  0  0  0  0  0  0
   36.2300   28.2500   34.5560 O   0  0  0  0  0  0  0  0  0  0  0  0
   35.7230   28.4650   35.3920 H   0  0  0  0  0  0  0  0  0  0  0  0
   37.3580   27.3210   32.2510 O   0  0  0  0  0  0  0  0  0  0  0  0
   38.9230   24.7540   32.4870 Cl  0  0  0  0  0  0  0  0  0  0  0  0
   37.3190   24.8720   31.8220 C   0  0  0  0  0  0  0  0  0  0  0  0
   36.7760   26.1700   31.8090 C   0  0  0  0  0  0  0  0  0  0  0  0
   35.5100   26.3010   31.2900 C   0  0  0  0  0  0  0  0  0  0  0  0
   34.7690   25.2480   30.7970 C   0  0  0  0  0  0  0  0  0  0  0  0
   35.3070   23.9820   30.8140 C   0  0  0  0  0  0  0  0  0  0  0  0
   36.5700   23.8180   31.3250 C   0  0  0  0  0  0  0  0  0  0  0  0
   34.9910   27.2560   31.2290 H   0  0  0  0  0  0  0  0  0  0  0  0
   33.7760   25.3210   30.3850 H   0  0  0  0  0  0  0  0  0  0  0  0
   34.8420   23.0570   30.4590 H   0  0  0  0  0  0  0  0  0  0  0  0
   36.1300   21.8870   33.3020 F   0  0  0  0  0  0  0  0  0  0  0  0
   37.0510   21.5610   32.3630 C   0  0  0  0  0  0  0  0  0  0  0  0
   37.2510   22.5290   31.3990 C   0  0  0  0  0  0  0  0  0  0  0  0
   38.1650   22.3180   30.3880 C   0  0  0  0  0  0  0  0  0  0  0  0
   38.3660   23.0530   29.5920 H   0  0  0  0  0  0  0  0  0  0  0  0
   38.8870   21.1440   30.3240 C   0  0  0  0  0  0  0  0  0  0  0  0
   39.6220   20.8850   29.5780 H   0  0  0  0  0  0  0  0  0  0  0  0
   38.6810   20.1840   31.2930 C   0  0  0  0  0  3  0  0  0  0  0  0
   37.7610   20.3700   32.3310 C   0  0  0  0  0  3  0  0  0  0  0  0
  1  2  1  0  0  0  0
  1 19  1  0  0  0  0
  2 11  1  0  0  0  0
  3  2  2  0  0  0  0
  4  3  1  0  0  0  0
  5  4  2  0  0  0  0
  5  6  1  0  0  0  0
  6  1  2  0  0  0  0
  7  3  1  0  0  0  0
  8  4  1  0  0  0  0
  9  5  1  0  0  0  0
 10 15  1  0  0  0  0
 11 12  1  0  0  0  0
 11 10  2  0  0  0  0
 12 13  2  0  0  0  0
 13 14  1  0  0  0  0
 14 18  1  0  0  0  0
 15 14  2  0  0  0  0
 16 10  1  0  0  0  0
 17 12  1  0  0  0  0
 19 20  1  0  0  0  0
 21  6  1  0  0  0  0
 23 22  1  0  0  0  0
 24 23  1  0  0  0  0
 24 21  1  0  0  0  0
 25 24  2  0  0  0  0
 26 27  2  0  0  0  0
 26 25  1  0  0  0  0
 27 28  1  0  0  0  0
 28 34  1  0  0  0  0
 28 23  2  0  0  0  0
 29 25  1  0  0  0  0
 30 26  1  0  0  0  0
 31 27  1  0  0  0  0
 33 32  1  0  0  0  0
 34 33  2  0  0  0  0
 35 34  1  0  0  0  0
 36 35  1  0  0  0  0
 37 35  2  0  0  0  0
 37 39  1  0  0  0  0
 38 37  1  0  0  0  0
 39 40  2  0  0  0  0
 40 33  1  0  0  0  0
M  END
>  <minimizedAffinity>
-5.96032953

$$$$
