REMARK  Name = 
REMARK  5 active torsions:
REMARK  status: ('A' for Active; 'I' for Inactive)
REMARK    1  A    between atoms: C_1  and  C_8
REMARK    2  A    between atoms: N_4  and  C_12
REMARK    3  A    between atoms: C_12  and  C_13
REMARK    4  A    between atoms: C_13  and  N_14
REMARK    5  A    between atoms: C_19  and  C_38
REMARK                            x       y       z     vdW  Elec       q    Type
REMARK                         _______ _______ _______ _____ _____    ______ ____
ROOT
ATOM      1  C   UNL     1      40.625  32.025  44.839  0.00  0.00    +0.000 C 
ATOM      2  H   UNL     1      40.654  31.005  45.328  0.00  0.00    +0.000 HD
ATOM      3  H   UNL     1      41.691  32.359  44.920  0.00  0.00    +0.000 HD
ENDROOT
BRANCH   1   4
ATOM      4  N   UNL     1      40.372  31.797  43.474  0.00  0.00    +0.000 NA
ATOM      5  C   UNL     1      39.511  32.709  42.837  0.00  0.00    +0.000 C 
ATOM      6  C   UNL     1      38.258  32.147  42.284  0.00  0.00    +0.000 C 
ATOM      7  O   UNL     1      38.417  30.883  41.711  0.00  0.00    +0.000 OA
ATOM      8  C   UNL     1      38.996  30.014  42.575  0.00  0.00    +0.000 C 
ATOM      9  C   UNL     1      40.351  30.487  43.006  0.00  0.00    +0.000 C 
ATOM     10  H   UNL     1      39.353  33.700  43.276  0.00  0.00    +0.000 HD
ATOM     11  H   UNL     1      40.141  33.013  41.965  0.00  0.00    +0.000 HD
ATOM     12  H   UNL     1      37.306  32.378  42.733  0.00  0.00    +0.000 HD
ATOM     13  H   UNL     1      38.084  32.740  41.303  0.00  0.00    +0.000 HD
ATOM     14  H   UNL     1      38.366  29.561  43.342  0.00  0.00    +0.000 HD
ATOM     15  H   UNL     1      39.219  29.116  41.942  0.00  0.00    +0.000 HD
ATOM     16  H   UNL     1      40.511  29.854  43.975  0.00  0.00    +0.000 HD
BRANCH   9  19
ATOM     17  F   UNL     1      42.077  32.080  41.270  0.00  0.00    +0.000 F 
ATOM     18  C   UNL     1      42.256  30.747  41.357  0.00  0.00    +0.000 A 
ATOM     19  C   UNL     1      41.440  30.004  42.149  0.00  0.00    +0.000 A 
ATOM     20  C   UNL     1      41.793  28.648  42.063  0.00  0.00    +0.000 A 
ATOM     21  H   UNL     1      41.224  27.909  42.648  0.00  0.00    +0.000 HD
ATOM     22  C   UNL     1      42.801  28.088  41.312  0.00  0.00    +0.000 A 
ATOM     23  H   UNL     1      42.996  27.028  41.313  0.00  0.00    +0.000 HD
ATOM     24  C   UNL     1      43.562  28.945  40.549  0.00  0.00    +0.000 A 
ATOM     25  C   UNL     1      43.290  30.290  40.570  0.00  0.00    +0.000 A 
ENDBRANCH   9  19
ENDBRANCH   1   4
BRANCH   1  26
ATOM     26  C   UNL     1      39.718  32.855  45.604  0.00  0.00    +0.000 C 
ATOM     27  H   UNL     1      40.348  33.351  46.419  0.00  0.00    +0.000 HD
ATOM     28  H   UNL     1      39.152  33.678  45.215  0.00  0.00    +0.000 HD
BRANCH  26  32
ATOM     29  C   UNL     1      37.682  31.031  47.930  0.00  0.00    +0.000 A 
ATOM     30  C   UNL     1      37.002  30.786  46.752  0.00  0.00    +0.000 A 
ATOM     31  C   UNL     1      37.691  31.444  45.737  0.00  0.00    +0.000 A 
ATOM     32  N   UNL     1      38.729  32.043  46.315  0.00  0.00    +0.000 N 
ATOM     33  N   UNL     1      38.720  31.793  47.632  0.00  0.00    +0.000 NA
ATOM     34  H   UNL     1      36.081  30.178  46.654  0.00  0.00    +0.000 HD
ATOM     35  H   UNL     1      37.310  31.359  44.789  0.00  0.00    +0.000 HD
BRANCH  29  38
ATOM     36  C   UNL     1      37.413  30.148  51.572  0.00  0.00    +0.000 A 
ATOM     37  C   UNL     1      37.916  30.702  50.404  0.00  0.00    +0.000 A 
ATOM     38  C   UNL     1      37.256  30.504  49.201  0.00  0.00    +0.000 A 
ATOM     39  N   UNL     1      36.123  29.750  49.277  0.00  0.00    +0.000 NA
ATOM     40  C   UNL     1      35.642  29.215  50.416  0.00  0.00    +0.000 A 
ATOM     41  N   UNL     1      36.294  29.420  51.556  0.00  0.00    +0.000 NA
ATOM     42  H   UNL     1      38.014  30.372  52.446  0.00  0.00    +0.000 HD
ATOM     43  H   UNL     1      38.815  31.300  50.347  0.00  0.00    +0.000 HD
ATOM     44  H   UNL     1      34.730  28.630  50.366  0.00  0.00    +0.000 HD
ENDBRANCH  29  38
ENDBRANCH  26  32
ENDBRANCH   1  26
TORSDOF 5
