
     RDKit          3D

 46 49  0  0  0  0  0  0  0  0999 V2000
   37.6820   31.0309   47.9298 C   0  0  0  0  0  0  0  0  0  0  0  0
   37.0017   30.7864   46.7525 C   0  0  0  0  0  0  0  0  0  0  0  0
   37.6907   31.4440   45.7366 C   0  0  0  0  0  0  0  0  0  0  0  0
   38.7286   32.0432   46.3152 N   0  0  0  0  0  0  0  0  0  0  0  0
   38.7201   31.7930   47.6320 N   0  0  0  0  0  0  0  0  0  0  0  0
   37.4127   30.1481   51.5720 C   0  0  0  0  0  0  0  0  0  0  0  0
   37.9159   30.7024   50.4036 C   0  0  0  0  0  0  0  0  0  0  0  0
   37.2562   30.5041   49.2006 C   0  0  0  0  0  0  0  0  0  0  0  0
   36.1234   29.7497   49.2767 N   0  0  0  0  0  0  0  0  0  0  0  0
   35.6424   29.2155   50.4163 C   0  0  0  0  0  0  0  0  0  0  0  0
   36.2935   29.4204   51.5559 N   0  0  0  0  0  0  0  0  0  0  0  0
   39.7177   32.8550   45.6036 C   0  0  0  0  0  0  0  0  0  0  0  0
   40.6251   32.0253   44.8394 C   0  0  0  0  0  0  0  0  0  0  0  0
   40.3720   31.7969   43.4736 N   0  0  0  0  0  0  0  0  0  0  0  0
   39.5107   32.7090   42.8374 C   0  0  0  0  0  0  0  0  0  0  0  0
   38.2578   32.1468   42.2839 C   0  0  0  0  0  0  0  0  0  0  0  0
   38.4174   30.8828   41.7105 O   0  0  0  0  0  0  0  0  0  0  0  0
   38.9963   30.0142   42.5753 C   0  0  0  0  0  0  0  0  0  0  0  0
   40.3510   30.4872   43.0062 C   0  0  1  0  0  0  0  0  0  0  0  0
   36.0815   30.1783   46.6541 H   0  0  0  0  0  0  0  0  0  0  0  0
   37.3104   31.3588   44.7888 H   0  0  0  0  0  0  0  0  0  0  0  0
   38.0144   30.3720   52.4464 H   0  0  0  0  0  0  0  0  0  0  0  0
   38.8151   31.3004   50.3472 H   0  0  0  0  0  0  0  0  0  0  0  0
   34.7301   28.6296   50.3657 H   0  0  0  0  0  0  0  0  0  0  0  0
   40.3477   33.3509   46.4186 H   0  0  0  0  0  0  0  0  0  0  0  0
   39.1517   33.6775   45.2152 H   0  0  0  0  0  0  0  0  0  0  0  0
   40.6539   31.0046   45.3278 H   0  0  0  0  0  0  0  0  0  0  0  0
   41.6914   32.3591   44.9197 H   0  0  0  0  0  0  0  0  0  0  0  0
   39.3533   33.7004   43.2759 H   0  0  0  0  0  0  0  0  0  0  0  0
   40.1408   33.0129   41.9646 H   0  0  0  0  0  0  0  0  0  0  0  0
   37.3059   32.3780   42.7325 H   0  0  0  0  0  0  0  0  0  0  0  0
   38.0839   32.7398   41.3029 H   0  0  0  0  0  0  0  0  0  0  0  0
   38.3659   29.5611   43.3417 H   0  0  0  0  0  0  0  0  0  0  0  0
   39.2190   29.1165   41.9421 H   0  0  0  0  0  0  0  0  0  0  0  0
   40.5109   29.8544   43.9750 H   0  0  0  0  0  0  0  0  0  0  0  0
   40.5698   30.7499   40.1051 F   0  0  0  0  0  0  0  0  0  0  0  0
   41.5518   30.1441   40.8021 C   0  0  0  0  0  0  0  0  0  0  0  0
   41.4395   30.0041   42.1491 C   0  0  0  0  0  0  0  0  0  0  0  0
   42.5589   29.3248   42.6548 C   0  0  0  0  0  0  0  0  0  0  0  0
   42.6224   29.1288   43.7359 H   0  0  0  0  0  0  0  0  0  0  0  0
   43.6409   28.8465   41.9510 C   0  0  0  0  0  0  0  0  0  0  0  0
   44.4577   28.3340   42.4331 H   0  0  0  0  0  0  0  0  0  0  0  0
   43.6406   29.0502   40.5896 C   0  0  0  0  0  0  0  0  0  0  0  0
   42.5860   29.7060   40.0052 C   0  0  0  0  0  0  0  0  0  0  0  0
   44.4756   28.6860   40.0163 H   0  0  0  0  0  0  0  0  0  0  0  0
   42.6314   29.8415   38.9348 H   0  0  0  0  0  0  0  0  0  0  0  0
  1  8  1  0
  2  1  1  0
  3  4  1  0
  3  2  2  0
  4  5  1  0
  5  1  2  0
  7  6  2  0
  8  9  2  0
  8  7  1  0
  9 10  1  0
 10 11  2  0
 11  6  1  0
 12  4  1  0
 13 12  1  0
 14 13  1  0
 15 14  1  0
 16 15  1  0
 17 16  1  0
 17 18  1  0
 18 19  1  0
 19 14  1  0
  2 20  1  0
  3 21  1  0
  6 22  1  0
  7 23  1  0
 10 24  1  0
 12 25  1  0
 12 26  1  0
 13 27  1  0
 13 28  1  0
 15 29  1  0
 15 30  1  0
 16 31  1  0
 16 32  1  0
 18 33  1  0
 18 34  1  0
 19 35  1  1
 36 37  1  0
 37 38  2  0
 38 39  1  0
 39 40  1  0
 39 41  2  0
 41 42  1  0
 41 43  1  0
 43 44  2  0
 44 37  1  0
 43 45  1  0
 44 46  1  0
 19 38  1  0
M  ISO  8  20  14  21  14  22  14  23  14  24  14  25   8  26   8  27   8
M  ISO  8  28   8  29  13  30  13  31  13  32  13  33  13  34  13  35  13
M  ISO  2  40  15  42  16
M  END
>  <DihAtoms>  (1) 
17,18,37,36

>  <DihDeg>  (1) 
69.85732657681818

$$$$
