
 OpenBabel03272500493D

 39 43  0  0  1  0  0  0  0  0999 V2000
   37.9410   26.6970   33.2850 C   0  0  1  0  0  0  0  0  0  0  0  0
   38.3940   27.4220   31.9690 C   0  0  0  0  0  0  0  0  0  0  0  0
   36.9740   27.3770   32.4020 C   0  0  2  0  0  0  0  0  0  0  0  0
   38.2430   27.2350   34.2070 H   0  0  0  0  0  0  0  0  0  0  0  0
   38.7780   26.7480   31.2030 H   0  0  0  0  0  0  0  0  0  0  0  0
   39.0100   28.3330   32.1040 H   0  0  0  0  0  0  0  0  0  0  0  0
   36.3100   26.7550   31.7600 H   0  0  0  0  0  0  0  0  0  0  0  0
   37.4420   23.1510   32.8680 C   0  0  0  0  0  0  0  0  0  0  0  0
   38.6710   23.1550   33.5070 C   0  0  0  0  0  0  0  0  0  0  0  0
   39.0320   24.4920   33.7550 C   0  0  0  0  0  0  0  0  0  0  0  0
   38.0280   25.2460   33.2660 N   0  0  0  0  0  0  0  0  0  0  0  0
   37.1280   24.4300   32.7610 N   0  0  0  0  0  0  0  0  0  0  0  0
   39.2980   22.3060   33.7960 H   0  0  0  0  0  0  0  0  0  0  0  0
   39.9190   24.8650   34.2330 H   0  0  0  0  0  0  0  0  0  0  0  0
   36.0890   21.1030   33.3590 C   0  0  0  0  0  0  0  0  0  0  0  0
   36.7610   21.9520   32.4600 C   0  0  0  0  0  0  0  0  0  0  0  0
   36.7420   21.5840   31.1290 C   0  0  0  0  0  0  0  0  0  0  0  0
   36.0970   20.4510   30.7480 N   0  0  0  0  0  0  0  0  0  0  0  0
   35.4650   19.6660   31.6540 C   0  0  0  0  0  0  0  0  0  0  0  0
   35.4600   19.9950   32.9780 N   0  0  0  0  0  0  0  0  0  0  0  0
   36.0920   21.3750   34.4080 H   0  0  0  0  0  0  0  0  0  0  0  0
   37.2480   22.2150   30.4080 H   0  0  0  0  0  0  0  0  0  0  0  0
   35.0110   18.8130   31.1680 H   0  0  0  0  0  0  0  0  0  0  0  0
   36.2970   28.6250   32.8770 C   0  0  0  0  0  0  0  0  0  0  0  0
   36.0970   29.7600   32.0880 C   0  0  0  0  0  0  0  0  0  0  0  0
   35.4620   30.6860   32.8520 N   0  0  0  0  0  0  0  0  0  0  0  0
   35.2700   30.1440   34.0860 C   0  0  0  0  0  0  0  0  0  0  0  0
   35.7770   28.8880   34.1060 N   0  0  0  0  0  0  0  0  0  0  0  0
   36.3770   29.9260   31.0490 H   0  0  0  0  0  0  0  0  0  0  0  0
   35.1640   31.6450   32.5720 H   0  0  0  0  0  0  0  0  0  0  0  0
   36.6250   31.8350   35.7910 F   0  0  0  0  0  0  0  0  0  0  0  0
   35.3120   31.6440   36.0620 C   0  0  0  0  0  0  0  0  0  0  0  0
   34.6240   30.8000   35.2160 C   0  0  0  0  0  0  0  0  0  0  0  0
   33.2840   30.5790   35.4600 C   0  0  0  0  0  0  0  0  0  0  0  0
   32.6910   29.9260   34.8280 H   0  0  0  0  0  0  0  0  0  0  0  0
   32.6400   31.1840   36.5200 C   0  0  0  0  0  0  0  0  0  0  0  0
   31.5910   31.0140   36.7140 H   0  0  0  0  0  0  0  0  0  0  0  0
   33.4010   32.0090   37.3130 C   0  0  0  0  0  3  0  0  0  0  0  0
   34.7480   32.2830   37.1360 C   0  0  0  0  0  3  0  0  0  0  0  0
  1  4  1  1  0  0  0
  2  6  1  0  0  0  0
  2  3  1  0  0  0  0
  2  1  1  0  0  0  0
  3  7  1  6  0  0  0
  3 24  1  0  0  0  0
  3  1  1  0  0  0  0
  5  2  1  0  0  0  0
  8  9  1  0  0  0  0
  9 10  2  0  0  0  0
  9 13  1  0  0  0  0
 10 14  1  0  0  0  0
 11  1  1  0  0  0  0
 11 10  1  0  0  0  0
 12  8  2  0  0  0  0
 12 11  1  0  0  0  0
 15 21  1  0  0  0  0
 16  8  1  0  0  0  0
 16 15  2  0  0  0  0
 17 16  1  0  0  0  0
 18 17  2  0  0  0  0
 18 19  1  0  0  0  0
 19 20  2  0  0  0  0
 20 15  1  0  0  0  0
 22 17  1  0  0  0  0
 23 19  1  0  0  0  0
 24 28  1  0  0  0  0
 25 26  1  0  0  0  0
 25 24  2  0  0  0  0
 26 27  1  0  0  0  0
 27 28  2  0  0  0  0
 27 33  1  0  0  0  0
 29 25  1  0  0  0  0
 30 26  1  0  0  0  0
 31 32  1  0  0  0  0
 32 39  1  0  0  0  0
 33 34  1  0  0  0  0
 33 32  2  0  0  0  0
 34 36  2  0  0  0  0
 35 34  1  0  0  0  0
 36 37  1  0  0  0  0
 36 38  1  0  0  0  0
 39 38  2  0  0  0  0
M  END
>  <minimizedAffinity>
-6.01865911

$$$$

 OpenBabel03272500493D

 39 43  0  0  1  0  0  0  0  0999 V2000
   38.2190   26.8480   33.7720 C   0  0  1  0  0  0  0  0  0  0  0  0
   38.4520   27.3670   32.3100 C   0  0  0  0  0  0  0  0  0  0  0  0
   37.0940   27.2100   32.8900 C   0  0  2  0  0  0  0  0  0  0  0  0
   38.5060   27.5860   34.5500 H   0  0  0  0  0  0  0  0  0  0  0  0
   38.8740   26.6200   31.6370 H   0  0  0  0  0  0  0  0  0  0  0  0
   38.9290   28.3630   32.2180 H   0  0  0  0  0  0  0  0  0  0  0  0
   36.4850   26.3930   32.4400 H   0  0  0  0  0  0  0  0  0  0  0  0
   39.5440   23.6670   34.8320 C   0  0  0  0  0  0  0  0  0  0  0  0
   38.5580   23.2460   33.9540 C   0  0  0  0  0  0  0  0  0  0  0  0
   37.9210   24.3840   33.4300 C   0  0  0  0  0  0  0  0  0  0  0  0
   38.5280   25.4450   33.9980 N   0  0  0  0  0  0  0  0  0  0  0  0
   39.4610   24.9850   34.8030 N   0  0  0  0  0  0  0  0  0  0  0  0
   38.2780   22.2250   33.6740 H   0  0  0  0  0  0  0  0  0  0  0  0
   37.1130   24.4300   32.7240 H   0  0  0  0  0  0  0  0  0  0  0  0
   40.2630   22.5100   36.9330 C   0  0  0  0  0  0  0  0  0  0  0  0
   40.4020   22.7690   35.5560 C   0  0  0  0  0  0  0  0  0  0  0  0
   41.4230   22.1070   34.9020 C   0  0  0  0  0  0  0  0  0  0  0  0
   42.2310   21.2590   35.5890 N   0  0  0  0  0  0  0  0  0  0  0  0
   42.0560   21.0450   36.9160 C   0  0  0  0  0  0  0  0  0  0  0  0
   41.0590   21.6790   37.5980 N   0  0  0  0  0  0  0  0  0  0  0  0
   39.4680   23.0190   37.4630 H   0  0  0  0  0  0  0  0  0  0  0  0
   41.5590   22.2810   33.8410 H   0  0  0  0  0  0  0  0  0  0  0  0
   42.7890   20.3430   37.2890 H   0  0  0  0  0  0  0  0  0  0  0  0
   36.2720   28.4200   33.2070 C   0  0  0  0  0  0  0  0  0  0  0  0
   35.7700   29.3030   32.2500 C   0  0  0  0  0  0  0  0  0  0  0  0
   35.0840   30.2760   32.9040 N   0  0  0  0  0  0  0  0  0  0  0  0
   35.1560   30.0070   34.2370 C   0  0  0  0  0  0  0  0  0  0  0  0
   35.8790   28.8780   34.4270 N   0  0  0  0  0  0  0  0  0  0  0  0
   35.8760   29.2680   31.1660 H   0  0  0  0  0  0  0  0  0  0  0  0
   34.5850   31.0920   32.4890 H   0  0  0  0  0  0  0  0  0  0  0  0
   36.6440   31.6390   35.8880 F   0  0  0  0  0  0  0  0  0  0  0  0
   35.3110   31.6140   36.1210 C   0  0  0  0  0  0  0  0  0  0  0  0
   34.5560   30.8020   35.3020 C   0  0  0  0  0  0  0  0  0  0  0  0
   33.1930   30.7490   35.5090 C   0  0  0  0  0  0  0  0  0  0  0  0
   32.5480   30.1280   34.8960 H   0  0  0  0  0  0  0  0  0  0  0  0
   32.5920   31.4880   36.5080 C   0  0  0  0  0  0  0  0  0  0  0  0
   31.5240   31.4490   36.6730 H   0  0  0  0  0  0  0  0  0  0  0  0
   33.4180   32.2710   37.2780 C   0  0  0  0  0  3  0  0  0  0  0  0
   34.7920   32.3790   37.1340 C   0  0  0  0  0  3  0  0  0  0  0  0
  1 11  1  0  0  0  0
  1  4  1  1  0  0  0
  2  3  1  0  0  0  0
  2  1  1  0  0  0  0
  3  7  1  6  0  0  0
  3 24  1  0  0  0  0
  3  1  1  0  0  0  0
  5  2  1  0  0  0  0
  6  2  1  0  0  0  0
  8 16  1  0  0  0  0
  9  8  1  0  0  0  0
 10  9  2  0  0  0  0
 10 11  1  0  0  0  0
 11 12  1  0  0  0  0
 12  8  2  0  0  0  0
 13  9  1  0  0  0  0
 14 10  1  0  0  0  0
 15 21  1  0  0  0  0
 15 20  1  0  0  0  0
 16 15  2  0  0  0  0
 17 16  1  0  0  0  0
 17 18  2  0  0  0  0
 18 19  1  0  0  0  0
 19 23  1  0  0  0  0
 19 20  2  0  0  0  0
 22 17  1  0  0  0  0
 24 28  1  0  0  0  0
 25 26  1  0  0  0  0
 25 24  2  0  0  0  0
 26 27  1  0  0  0  0
 27 28  2  0  0  0  0
 27 33  1  0  0  0  0
 29 25  1  0  0  0  0
 30 26  1  0  0  0  0
 31 32  1  0  0  0  0
 32 39  1  0  0  0  0
 33 34  1  0  0  0  0
 33 32  2  0  0  0  0
 34 36  2  0  0  0  0
 35 34  1  0  0  0  0
 36 37  1  0  0  0  0
 36 38  1  0  0  0  0
 39 38  2  0  0  0  0
M  END
>  <minimizedAffinity>
-5.99352884

$$$$

 OpenBabel03272500493D

 39 43  0  0  1  0  0  0  0  0999 V2000
   37.0780   27.0520   32.2210 C   0  0  1  0  0  0  0  0  0  0  0  0
   38.6450   27.0740   32.1460 C   0  0  0  0  0  0  0  0  0  0  0  0
   37.9110   26.3420   33.2100 C   0  0  2  0  0  0  0  0  0  0  0  0
   36.6090   26.4380   31.4250 H   0  0  0  0  0  0  0  0  0  0  0  0
   39.0830   28.0550   32.3280 H   0  0  0  0  0  0  0  0  0  0  0  0
   39.0970   26.5420   31.2860 H   0  0  0  0  0  0  0  0  0  0  0  0
   38.0130   26.7750   34.2300 H   0  0  0  0  0  0  0  0  0  0  0  0
   35.4950   29.8400   33.8700 C   0  0  0  0  0  0  0  0  0  0  0  0
   35.5740   30.3300   32.5760 C   0  0  0  0  0  0  0  0  0  0  0  0
   36.1810   29.3480   31.7720 C   0  0  0  0  0  0  0  0  0  0  0  0
   36.4480   28.3110   32.5890 N   0  0  0  0  0  0  0  0  0  0  0  0
   36.0350   28.6370   33.7950 N   0  0  0  0  0  0  0  0  0  0  0  0
   35.2420   31.2960   32.1850 H   0  0  0  0  0  0  0  0  0  0  0  0
   36.4000   29.3900   30.7210 H   0  0  0  0  0  0  0  0  0  0  0  0
   33.5600   30.5420   35.2950 C   0  0  0  0  0  0  0  0  0  0  0  0
   34.9280   30.5780   34.9660 C   0  0  0  0  0  0  0  0  0  0  0  0
   35.7340   31.3710   35.7610 C   0  0  0  0  0  0  0  0  0  0  0  0
   35.1950   32.0640   36.7950 N   0  0  0  0  0  0  0  0  0  0  0  0
   33.8690   31.9960   37.0690 C   0  0  0  0  0  0  0  0  0  0  0  0
   33.0390   31.2250   36.3090 N   0  0  0  0  0  0  0  0  0  0  0  0
   32.9110   29.9250   34.6840 H   0  0  0  0  0  0  0  0  0  0  0  0
   36.7930   31.4210   35.5370 H   0  0  0  0  0  0  0  0  0  0  0  0
   33.6240   32.6120   37.9240 H   0  0  0  0  0  0  0  0  0  0  0  0
   37.9150   24.8450   33.2270 C   0  0  0  0  0  0  0  0  0  0  0  0
   38.9040   24.0680   33.8330 C   0  0  0  0  0  0  0  0  0  0  0  0
   38.5790   22.7630   33.6410 N   0  0  0  0  0  0  0  0  0  0  0  0
   37.4170   22.7260   32.9330 C   0  0  0  0  0  0  0  0  0  0  0  0
   37.0080   23.9920   32.6770 N   0  0  0  0  0  0  0  0  0  0  0  0
   39.7920   24.3930   34.3730 H   0  0  0  0  0  0  0  0  0  0  0  0
   39.1040   21.9230   33.9640 H   0  0  0  0  0  0  0  0  0  0  0  0
   36.0090   21.1340   34.6900 F   0  0  0  0  0  0  0  0  0  0  0  0
   36.0130   20.7340   33.3970 C   0  0  0  0  0  0  0  0  0  0  0  0
   36.7130   21.5220   32.5080 C   0  0  0  0  0  0  0  0  0  0  0  0
   36.7410   21.1460   31.1810 C   0  0  0  0  0  0  0  0  0  0  0  0
   37.2760   21.7260   30.4360 H   0  0  0  0  0  0  0  0  0  0  0  0
   36.0860   20.0120   30.7450 C   0  0  0  0  0  0  0  0  0  0  0  0
   36.1050   19.7140   29.7060 H   0  0  0  0  0  0  0  0  0  0  0  0
   35.4120   19.2850   31.6970 C   0  0  0  0  0  3  0  0  0  0  0  0
   35.3360   19.5940   33.0450 C   0  0  0  0  0  3  0  0  0  0  0  0
  1  4  1  6  0  0  0
  1 11  1  0  0  0  0
  1  3  1  0  0  0  0
  2  1  1  0  0  0  0
  2  5  1  0  0  0  0
  2  3  1  0  0  0  0
  3 24  1  0  0  0  0
  3  7  1  1  0  0  0
  6  2  1  0  0  0  0
  8 16  1  0  0  0  0
  9  8  1  0  0  0  0
 10  9  2  0  0  0  0
 10 11  1  0  0  0  0
 11 12  1  0  0  0  0
 12  8  2  0  0  0  0
 13  9  1  0  0  0  0
 14 10  1  0  0  0  0
 15 20  1  0  0  0  0
 16 15  2  0  0  0  0
 16 17  1  0  0  0  0
 17 18  2  0  0  0  0
 18 19  1  0  0  0  0
 19 23  1  0  0  0  0
 20 19  2  0  0  0  0
 21 15  1  0  0  0  0
 22 17  1  0  0  0  0
 24 25  2  0  0  0  0
 25 29  1  0  0  0  0
 26 25  1  0  0  0  0
 26 30  1  0  0  0  0
 27 26  1  0  0  0  0
 28 27  2  0  0  0  0
 28 24  1  0  0  0  0
 32 31  1  0  0  0  0
 33 27  1  0  0  0  0
 33 32  2  0  0  0  0
 34 33  1  0  0  0  0
 35 34  1  0  0  0  0
 36 34  2  0  0  0  0
 36 38  1  0  0  0  0
 37 36  1  0  0  0  0
 38 39  2  0  0  0  0
 39 32  1  0  0  0  0
M  END
>  <minimizedAffinity>
-5.99249697

$$$$

 OpenBabel03272500493D

 39 43  0  0  1  0  0  0  0  0999 V2000
   38.2730   26.7130   34.4670 C   0  0  1  0  0  0  0  0  0  0  0  0
   38.7530   27.2490   35.8620 C   0  0  0  0  0  0  0  0  0  0  0  0
   37.8780   26.0570   35.7280 C   0  0  2  0  0  0  0  0  0  0  0  0
   39.0810   26.2300   33.8810 H   0  0  0  0  0  0  0  0  0  0  0  0
   38.3480   28.2270   36.1230 H   0  0  0  0  0  0  0  0  0  0  0  0
   39.8370   27.1500   36.0720 H   0  0  0  0  0  0  0  0  0  0  0  0
   36.8380   26.1970   36.0990 H   0  0  0  0  0  0  0  0  0  0  0  0
   35.5540   28.8570   33.4630 C   0  0  0  0  0  0  0  0  0  0  0  0
   36.2010   28.6920   32.2490 C   0  0  0  0  0  0  0  0  0  0  0  0
   37.3170   27.8610   32.4560 C   0  0  0  0  0  0  0  0  0  0  0  0
   37.3130   27.5520   33.7680 N   0  0  0  0  0  0  0  0  0  0  0  0
   36.2760   28.1500   34.3140 N   0  0  0  0  0  0  0  0  0  0  0  0
   35.9420   29.1060   31.2700 H   0  0  0  0  0  0  0  0  0  0  0  0
   38.0400   27.5250   31.7360 H   0  0  0  0  0  0  0  0  0  0  0  0
   33.2250   29.5100   32.8190 C   0  0  0  0  0  0  0  0  0  0  0  0
   34.3660   29.6500   33.6300 C   0  0  0  0  0  0  0  0  0  0  0  0
   34.3030   30.6050   34.6270 C   0  0  0  0  0  0  0  0  0  0  0  0
   33.1800   31.3500   34.7820 N   0  0  0  0  0  0  0  0  0  0  0  0
   32.1070   31.1770   33.9720 C   0  0  0  0  0  0  0  0  0  0  0  0
   32.1280   30.2450   32.9760 N   0  0  0  0  0  0  0  0  0  0  0  0
   33.2540   28.7660   32.0310 H   0  0  0  0  0  0  0  0  0  0  0  0
   35.1640   30.7390   35.2710 H   0  0  0  0  0  0  0  0  0  0  0  0
   31.3100   31.8560   34.2440 H   0  0  0  0  0  0  0  0  0  0  0  0
   38.4150   24.6960   36.0470 C   0  0  0  0  0  0  0  0  0  0  0  0
   37.6800   23.6880   36.6740 C   0  0  0  0  0  0  0  0  0  0  0  0
   38.4900   22.6050   36.8020 N   0  0  0  0  0  0  0  0  0  0  0  0
   39.7000   22.9290   36.2700 C   0  0  0  0  0  0  0  0  0  0  0  0
   39.6600   24.2020   35.8080 N   0  0  0  0  0  0  0  0  0  0  0  0
   36.6460   23.7100   37.0170 H   0  0  0  0  0  0  0  0  0  0  0  0
   38.2560   21.6830   37.2280 H   0  0  0  0  0  0  0  0  0  0  0  0
   40.8990   22.2410   33.8840 F   0  0  0  0  0  0  0  0  0  0  0  0
   41.4550   21.7180   35.0020 C   0  0  0  0  0  0  0  0  0  0  0  0
   40.8650   22.0550   36.2020 C   0  0  0  0  0  0  0  0  0  0  0  0
   41.4030   21.5410   37.3640 C   0  0  0  0  0  0  0  0  0  0  0  0
   40.9810   21.7710   38.3370 H   0  0  0  0  0  0  0  0  0  0  0  0
   42.5040   20.7100   37.3350 C   0  0  0  0  0  0  0  0  0  0  0  0
   42.9290   20.3050   38.2440 H   0  0  0  0  0  0  0  0  0  0  0  0
   43.0300   20.4260   36.0980 C   0  0  0  0  0  3  0  0  0  0  0  0
   42.5510   20.9000   34.8880 C   0  0  0  0  0  3  0  0  0  0  0  0
  1  4  1  6  0  0  0
  1  3  1  0  0  0  0
  1  2  1  0  0  0  0
  2  6  1  0  0  0  0
  2  5  1  0  0  0  0
  3  2  1  0  0  0  0
  3 24  1  0  0  0  0
  3  7  1  1  0  0  0
  8 16  1  0  0  0  0
  8 12  2  0  0  0  0
  9 10  2  0  0  0  0
  9  8  1  0  0  0  0
 10 11  1  0  0  0  0
 11 12  1  0  0  0  0
 11  1  1  0  0  0  0
 13  9  1  0  0  0  0
 14 10  1  0  0  0  0
 15 20  2  0  0  0  0
 15 16  1  0  0  0  0
 16 17  2  0  0  0  0
 17 18  1  0  0  0  0
 17 22  1  0  0  0  0
 19 23  1  0  0  0  0
 19 18  2  0  0  0  0
 20 19  1  0  0  0  0
 21 15  1  0  0  0  0
 24 25  2  0  0  0  0
 25 26  1  0  0  0  0
 25 29  1  0  0  0  0
 26 30  1  0  0  0  0
 27 26  1  0  0  0  0
 28 24  1  0  0  0  0
 28 27  2  0  0  0  0
 31 32  1  0  0  0  0
 32 33  1  0  0  0  0
 33 27  1  0  0  0  0
 33 34  2  0  0  0  0
 34 35  1  0  0  0  0
 36 34  1  0  0  0  0
 36 37  1  0  0  0  0
 38 36  2  0  0  0  0
 39 32  2  0  0  0  0
 39 38  1  0  0  0  0
M  END
>  <minimizedAffinity>
-5.96968126

$$$$

 OpenBabel03272500493D

 39 43  0  0  1  0  0  0  0  0999 V2000
   36.8470   26.4910   32.6210 C   0  0  1  0  0  0  0  0  0  0  0  0
   37.9390   27.3010   31.8370 C   0  0  0  0  0  0  0  0  0  0  0  0
   36.5020   27.6740   31.8100 C   0  0  2  0  0  0  0  0  0  0  0  0
   36.9010   26.6330   33.7200 H   0  0  0  0  0  0  0  0  0  0  0  0
   38.3990   26.7460   31.0190 H   0  0  0  0  0  0  0  0  0  0  0  0
   38.6690   27.8580   32.4580 H   0  0  0  0  0  0  0  0  0  0  0  0
   35.9970   27.5190   30.8300 H   0  0  0  0  0  0  0  0  0  0  0  0
   36.8380   23.0090   31.6850 C   0  0  0  0  0  0  0  0  0  0  0  0
   35.6380   23.4190   31.1280 C   0  0  0  0  0  0  0  0  0  0  0  0
   35.4720   24.7890   31.4020 C   0  0  0  0  0  0  0  0  0  0  0  0
   36.5580   25.1620   32.1050 N   0  0  0  0  0  0  0  0  0  0  0  0
   37.3240   24.1020   32.2470 N   0  0  0  0  0  0  0  0  0  0  0  0
   34.9060   22.8320   30.5640 H   0  0  0  0  0  0  0  0  0  0  0  0
   34.6570   25.4300   31.1220 H   0  0  0  0  0  0  0  0  0  0  0  0
   36.7060   20.6530   30.8500 C   0  0  0  0  0  0  0  0  0  0  0  0
   37.3360   21.6630   31.6000 C   0  0  0  0  0  0  0  0  0  0  0  0
   38.4890   21.3060   32.2740 C   0  0  0  0  0  0  0  0  0  0  0  0
   38.9560   20.0340   32.1920 N   0  0  0  0  0  0  0  0  0  0  0  0
   38.3100   19.0970   31.4550 C   0  0  0  0  0  0  0  0  0  0  0  0
   37.1700   19.4090   30.7750 N   0  0  0  0  0  0  0  0  0  0  0  0
   35.8020   20.9130   30.3140 H   0  0  0  0  0  0  0  0  0  0  0  0
   39.0010   22.0590   32.8610 H   0  0  0  0  0  0  0  0  0  0  0  0
   38.8270   18.1480   31.5080 H   0  0  0  0  0  0  0  0  0  0  0  0
   36.0410   28.9240   32.4940 C   0  0  0  0  0  0  0  0  0  0  0  0
   36.1810   30.2080   31.9630 C   0  0  0  0  0  0  0  0  0  0  0  0
   35.6570   31.0840   32.8600 N   0  0  0  0  0  0  0  0  0  0  0  0
   35.2020   30.3650   33.9230 C   0  0  0  0  0  0  0  0  0  0  0  0
   35.4340   29.0480   33.7050 N   0  0  0  0  0  0  0  0  0  0  0  0
   36.6190   30.5090   31.0130 H   0  0  0  0  0  0  0  0  0  0  0  0
   35.6020   32.1210   32.7760 H   0  0  0  0  0  0  0  0  0  0  0  0
   36.5780   31.8690   35.7800 F   0  0  0  0  0  0  0  0  0  0  0  0
   35.2650   31.6640   36.0360 C   0  0  0  0  0  0  0  0  0  0  0  0
   34.5660   30.9140   35.1140 C   0  0  0  0  0  0  0  0  0  0  0  0
   33.2240   30.6820   35.3410 C   0  0  0  0  0  0  0  0  0  0  0  0
   32.6230   30.0990   34.6500 H   0  0  0  0  0  0  0  0  0  0  0  0
   32.5900   31.1860   36.4580 C   0  0  0  0  0  0  0  0  0  0  0  0
   31.5390   31.0070   36.6380 H   0  0  0  0  0  0  0  0  0  0  0  0
   33.3610   31.9230   37.3250 C   0  0  0  0  0  3  0  0  0  0  0  0
   34.7100   32.2000   37.1700 C   0  0  0  0  0  3  0  0  0  0  0  0
  1  4  1  1  0  0  0
  2  6  1  0  0  0  0
  2  1  1  0  0  0  0
  3  7  1  6  0  0  0
  3  2  1  0  0  0  0
  3 24  1  0  0  0  0
  3  1  1  0  0  0  0
  5  2  1  0  0  0  0
  8 12  2  0  0  0  0
  9 10  2  0  0  0  0
  9  8  1  0  0  0  0
 10 11  1  0  0  0  0
 11 12  1  0  0  0  0
 11  1  1  0  0  0  0
 13  9  1  0  0  0  0
 14 10  1  0  0  0  0
 15 16  1  0  0  0  0
 16  8  1  0  0  0  0
 16 17  2  0  0  0  0
 17 22  1  0  0  0  0
 18 17  1  0  0  0  0
 19 23  1  0  0  0  0
 19 18  2  0  0  0  0
 20 15  2  0  0  0  0
 20 19  1  0  0  0  0
 21 15  1  0  0  0  0
 24 28  1  0  0  0  0
 25 24  2  0  0  0  0
 25 26  1  0  0  0  0
 26 27  1  0  0  0  0
 27 33  1  0  0  0  0
 28 27  2  0  0  0  0
 29 25  1  0  0  0  0
 30 26  1  0  0  0  0
 31 32  1  0  0  0  0
 32 39  1  0  0  0  0
 33 34  1  0  0  0  0
 33 32  2  0  0  0  0
 34 36  2  0  0  0  0
 35 34  1  0  0  0  0
 36 37  1  0  0  0  0
 36 38  1  0  0  0  0
 39 38  2  0  0  0  0
M  END
>  <minimizedAffinity>
-5.95986938

$$$$

 OpenBabel03272500493D

 39 43  0  0  1  0  0  0  0  0999 V2000
   37.6510   25.8480   35.9280 C   0  0  1  0  0  0  0  0  0  0  0  0
   38.3950   27.2290   35.9740 C   0  0  0  0  0  0  0  0  0  0  0  0
   38.1740   26.4890   34.7070 C   0  0  2  0  0  0  0  0  0  0  0  0
   36.5600   25.9320   36.1120 H   0  0  0  0  0  0  0  0  0  0  0  0
   39.3540   27.1980   36.4920 H   0  0  0  0  0  0  0  0  0  0  0  0
   37.7750   28.1060   36.2470 H   0  0  0  0  0  0  0  0  0  0  0  0
   39.0960   26.0740   34.2400 H   0  0  0  0  0  0  0  0  0  0  0  0
   39.8500   23.0930   36.6810 C   0  0  0  0  0  0  0  0  0  0  0  0
   39.0850   23.1220   37.8350 C   0  0  0  0  0  0  0  0  0  0  0  0
   38.1480   24.1640   37.7150 C   0  0  0  0  0  0  0  0  0  0  0  0
   38.3700   24.7270   36.5110 N   0  0  0  0  0  0  0  0  0  0  0  0
   39.3640   24.0760   35.9450 N   0  0  0  0  0  0  0  0  0  0  0  0
   39.1480   22.4780   38.7180 H   0  0  0  0  0  0  0  0  0  0  0  0
   37.3990   24.4720   38.4210 H   0  0  0  0  0  0  0  0  0  0  0  0
   41.5500   21.4420   37.4880 C   0  0  0  0  0  0  0  0  0  0  0  0
   40.9110   22.1500   36.4530 C   0  0  0  0  0  0  0  0  0  0  0  0
   41.3520   21.8980   35.1680 C   0  0  0  0  0  0  0  0  0  0  0  0
   42.3540   21.0060   34.9570 N   0  0  0  0  0  0  0  0  0  0  0  0
   42.9380   20.3510   35.9900 C   0  0  0  0  0  0  0  0  0  0  0  0
   42.5310   20.5700   37.2730 N   0  0  0  0  0  0  0  0  0  0  0  0
   41.2180   21.6250   38.5030 H   0  0  0  0  0  0  0  0  0  0  0  0
   40.8820   22.4250   34.3460 H   0  0  0  0  0  0  0  0  0  0  0  0
   43.7110   19.6860   35.6310 H   0  0  0  0  0  0  0  0  0  0  0  0
   37.2140   27.0200   33.6880 C   0  0  0  0  0  0  0  0  0  0  0  0
   36.9520   26.4100   32.4600 C   0  0  0  0  0  0  0  0  0  0  0  0
   36.0410   27.1750   31.8040 N   0  0  0  0  0  0  0  0  0  0  0  0
   35.7420   28.2360   32.6020 C   0  0  0  0  0  0  0  0  0  0  0  0
   36.4540   28.1470   33.7510 N   0  0  0  0  0  0  0  0  0  0  0  0
   37.3710   25.4910   32.0520 H   0  0  0  0  0  0  0  0  0  0  0  0
   35.6290   27.0060   30.8620 H   0  0  0  0  0  0  0  0  0  0  0  0
   36.4040   30.3410   30.9490 F   0  0  0  0  0  0  0  0  0  0  0  0
   35.1490   30.3550   31.4550 C   0  0  0  0  0  0  0  0  0  0  0  0
   34.8050   29.3080   32.2840 C   0  0  0  0  0  0  0  0  0  0  0  0
   33.5340   29.2870   32.8200 C   0  0  0  0  0  0  0  0  0  0  0  0
   33.2070   28.4880   33.4780 H   0  0  0  0  0  0  0  0  0  0  0  0
   32.6230   30.2840   32.5390 C   0  0  0  0  0  0  0  0  0  0  0  0
   31.6260   30.2710   32.9570 H   0  0  0  0  0  0  0  0  0  0  0  0
   33.0480   31.2900   31.7050 C   0  0  0  0  0  3  0  0  0  0  0  0
   34.3040   31.3840   31.1260 C   0  0  0  0  0  3  0  0  0  0  0  0
  1  2  1  0  0  0  0
  1  4  1  1  0  0  0
  1 11  1  0  0  0  0
  2  6  1  0  0  0  0
  2  5  1  0  0  0  0
  3  7  1  6  0  0  0
  3  1  1  0  0  0  0
  3  2  1  0  0  0  0
  8  9  1  0  0  0  0
  9 13  1  0  0  0  0
 10  9  2  0  0  0  0
 10 14  1  0  0  0  0
 11 10  1  0  0  0  0
 12 11  1  0  0  0  0
 12  8  2  0  0  0  0
 15 21  1  0  0  0  0
 16  8  1  0  0  0  0
 16 15  2  0  0  0  0
 17 16  1  0  0  0  0
 18 17  2  0  0  0  0
 18 19  1  0  0  0  0
 19 20  2  0  0  0  0
 20 15  1  0  0  0  0
 22 17  1  0  0  0  0
 23 19  1  0  0  0  0
 24 28  1  0  0  0  0
 24  3  1  0  0  0  0
 25 24  2  0  0  0  0
 26 25  1  0  0  0  0
 26 27  1  0  0  0  0
 27 28  2  0  0  0  0
 29 25  1  0  0  0  0
 30 26  1  0  0  0  0
 31 32  1  0  0  0  0
 32 33  1  0  0  0  0
 33 27  1  0  0  0  0
 33 34  2  0  0  0  0
 34 35  1  0  0  0  0
 36 34  1  0  0  0  0
 36 37  1  0  0  0  0
 38 36  2  0  0  0  0
 39 32  2  0  0  0  0
 39 38  1  0  0  0  0
M  END
>  <minimizedAffinity>
-5.91974211

$$$$

 OpenBabel03272500493D

 39 43  0  0  1  0  0  0  0  0999 V2000
   37.1000   27.0450   32.2820 C   0  0  1  0  0  0  0  0  0  0  0  0
   38.6660   27.0590   32.1850 C   0  0  0  0  0  0  0  0  0  0  0  0
   37.9450   26.3440   33.2680 C   0  0  2  0  0  0  0  0  0  0  0  0
   36.6190   26.4220   31.5000 H   0  0  0  0  0  0  0  0  0  0  0  0
   39.1110   28.0410   32.3480 H   0  0  0  0  0  0  0  0  0  0  0  0
   39.1040   26.5140   31.3250 H   0  0  0  0  0  0  0  0  0  0  0  0
   38.0620   26.7890   34.2810 H   0  0  0  0  0  0  0  0  0  0  0  0
   35.5230   29.8470   33.9100 C   0  0  0  0  0  0  0  0  0  0  0  0
   35.6350   30.3410   32.6210 C   0  0  0  0  0  0  0  0  0  0  0  0
   36.2450   29.3540   31.8250 C   0  0  0  0  0  0  0  0  0  0  0  0
   36.4810   28.3100   32.6430 N   0  0  0  0  0  0  0  0  0  0  0  0
   36.0470   28.6370   33.8410 N   0  0  0  0  0  0  0  0  0  0  0  0
   35.3240   31.3140   32.2280 H   0  0  0  0  0  0  0  0  0  0  0  0
   36.4870   29.3970   30.7790 H   0  0  0  0  0  0  0  0  0  0  0  0
   33.5730   30.5410   35.3200 C   0  0  0  0  0  0  0  0  0  0  0  0
   34.9430   30.5880   34.9980 C   0  0  0  0  0  0  0  0  0  0  0  0
   35.7370   31.3950   35.7900 C   0  0  0  0  0  0  0  0  0  0  0  0
   35.1860   32.0910   36.8160 N   0  0  0  0  0  0  0  0  0  0  0  0
   33.8590   32.0120   37.0840 C   0  0  0  0  0  0  0  0  0  0  0  0
   33.0410   31.2270   36.3270 N   0  0  0  0  0  0  0  0  0  0  0  0
   32.9340   29.9130   34.7120 H   0  0  0  0  0  0  0  0  0  0  0  0
   36.7970   31.4540   35.5710 H   0  0  0  0  0  0  0  0  0  0  0  0
   33.6050   32.6330   37.9330 H   0  0  0  0  0  0  0  0  0  0  0  0
   37.9430   24.8470   33.3040 C   0  0  0  0  0  0  0  0  0  0  0  0
   38.8950   24.0760   33.9730 C   0  0  0  0  0  0  0  0  0  0  0  0
   38.5770   22.7690   33.7810 N   0  0  0  0  0  0  0  0  0  0  0  0
   37.4560   22.7260   33.0100 C   0  0  0  0  0  0  0  0  0  0  0  0
   37.0660   23.9890   32.7160 N   0  0  0  0  0  0  0  0  0  0  0  0
   39.7530   24.4060   34.5580 H   0  0  0  0  0  0  0  0  0  0  0  0
   39.0820   21.9320   34.1430 H   0  0  0  0  0  0  0  0  0  0  0  0
   37.6190   21.8050   30.4150 F   0  0  0  0  0  0  0  0  0  0  0  0
   36.8630   21.0670   31.2620 C   0  0  0  0  0  0  0  0  0  0  0  0
   36.7740   21.5170   32.5620 C   0  0  0  0  0  0  0  0  0  0  0  0
   36.0110   20.7930   33.4550 C   0  0  0  0  0  0  0  0  0  0  0  0
   35.9040   21.0980   34.4910 H   0  0  0  0  0  0  0  0  0  0  0  0
   35.3520   19.6450   33.0660 C   0  0  0  0  0  0  0  0  0  0  0  0
   34.7530   19.0740   33.7620 H   0  0  0  0  0  0  0  0  0  0  0  0
   35.4940   19.2680   31.7520 C   0  0  0  0  0  3  0  0  0  0  0  0
   36.2400   19.9380   30.7950 C   0  0  0  0  0  3  0  0  0  0  0  0
  1  4  1  6  0  0  0
  1 11  1  0  0  0  0
  1  3  1  0  0  0  0
  2  1  1  0  0  0  0
  2  5  1  0  0  0  0
  2  3  1  0  0  0  0
  3 24  1  0  0  0  0
  3  7  1  1  0  0  0
  6  2  1  0  0  0  0
  8 16  1  0  0  0  0
  9  8  1  0  0  0  0
 10  9  2  0  0  0  0
 10 11  1  0  0  0  0
 11 12  1  0  0  0  0
 12  8  2  0  0  0  0
 13  9  1  0  0  0  0
 14 10  1  0  0  0  0
 15 20  1  0  0  0  0
 16 15  2  0  0  0  0
 16 17  1  0  0  0  0
 17 18  2  0  0  0  0
 18 19  1  0  0  0  0
 19 23  1  0  0  0  0
 20 19  2  0  0  0  0
 21 15  1  0  0  0  0
 22 17  1  0  0  0  0
 24 25  2  0  0  0  0
 25 29  1  0  0  0  0
 26 25  1  0  0  0  0
 26 30  1  0  0  0  0
 27 26  1  0  0  0  0
 28 27  2  0  0  0  0
 28 24  1  0  0  0  0
 31 32  1  0  0  0  0
 32 33  1  0  0  0  0
 33 27  1  0  0  0  0
 33 34  2  0  0  0  0
 34 35  1  0  0  0  0
 36 34  1  0  0  0  0
 36 37  1  0  0  0  0
 38 36  2  0  0  0  0
 39 32  2  0  0  0  0
 39 38  1  0  0  0  0
M  END
>  <minimizedAffinity>
-5.91322803

$$$$

 OpenBabel03272500493D

 39 43  0  0  1  0  0  0  0  0999 V2000
   37.9770   26.5210   32.7320 C   0  0  1  0  0  0  0  0  0  0  0  0
   38.0330   27.1120   31.2800 C   0  0  0  0  0  0  0  0  0  0  0  0
   36.7970   27.1420   32.1010 C   0  0  2  0  0  0  0  0  0  0  0  0
   38.5290   27.1310   33.4760 H   0  0  0  0  0  0  0  0  0  0  0  0
   38.1830   26.3620   30.5030 H   0  0  0  0  0  0  0  0  0  0  0  0
   38.6620   28.0150   31.1480 H   0  0  0  0  0  0  0  0  0  0  0  0
   35.9770   26.4830   31.7370 H   0  0  0  0  0  0  0  0  0  0  0  0
   37.4060   22.9610   32.7190 C   0  0  0  0  0  0  0  0  0  0  0  0
   38.7270   22.9990   33.1340 C   0  0  0  0  0  0  0  0  0  0  0  0
   39.1290   24.3450   33.1980 C   0  0  0  0  0  0  0  0  0  0  0  0
   38.0570   25.0710   32.8250 N   0  0  0  0  0  0  0  0  0  0  0  0
   37.0810   24.2310   32.5560 N   0  0  0  0  0  0  0  0  0  0  0  0
   39.3930   22.1670   33.3830 H   0  0  0  0  0  0  0  0  0  0  0  0
   40.0860   24.7420   33.4810 H   0  0  0  0  0  0  0  0  0  0  0  0
   36.3700   21.1950   31.2780 C   0  0  0  0  0  0  0  0  0  0  0  0
   36.6620   21.7430   32.5410 C   0  0  0  0  0  0  0  0  0  0  0  0
   36.1960   21.0480   33.6400 C   0  0  0  0  0  0  0  0  0  0  0  0
   35.4940   19.8990   33.4690 N   0  0  0  0  0  0  0  0  0  0  0  0
   35.2390   19.4130   32.2290 C   0  0  0  0  0  0  0  0  0  0  0  0
   35.6810   20.0680   31.1180 N   0  0  0  0  0  0  0  0  0  0  0  0
   36.7270   21.7250   30.4030 H   0  0  0  0  0  0  0  0  0  0  0  0
   36.4030   21.4420   34.6290 H   0  0  0  0  0  0  0  0  0  0  0  0
   34.6710   18.4940   32.2900 H   0  0  0  0  0  0  0  0  0  0  0  0
   36.2830   28.4450   32.6300 C   0  0  0  0  0  0  0  0  0  0  0  0
   36.2960   29.6450   31.9150 C   0  0  0  0  0  0  0  0  0  0  0  0
   35.7600   30.6060   32.7110 N   0  0  0  0  0  0  0  0  0  0  0  0
   35.4200   30.0220   33.8930 C   0  0  0  0  0  0  0  0  0  0  0  0
   35.7360   28.7050   33.8490 N   0  0  0  0  0  0  0  0  0  0  0  0
   36.6570   29.8330   30.9050 H   0  0  0  0  0  0  0  0  0  0  0  0
   35.6220   31.6140   32.4860 H   0  0  0  0  0  0  0  0  0  0  0  0
   32.7690   29.6830   34.5740 F   0  0  0  0  0  0  0  0  0  0  0  0
   33.4850   30.5170   35.3650 C   0  0  0  0  0  0  0  0  0  0  0  0
   34.8110   30.6940   35.0340 C   0  0  0  0  0  0  0  0  0  0  0  0
   35.5730   31.5380   35.8170 C   0  0  0  0  0  0  0  0  0  0  0  0
   36.6230   31.7160   35.6050 H   0  0  0  0  0  0  0  0  0  0  0  0
   35.0300   32.1910   36.9040 C   0  0  0  0  0  0  0  0  0  0  0  0
   35.6240   32.8520   37.5200 H   0  0  0  0  0  0  0  0  0  0  0  0
   33.7000   31.9570   37.1620 C   0  0  0  0  0  3  0  0  0  0  0  0
   32.8690   31.1270   36.4280 C   0  0  0  0  0  3  0  0  0  0  0  0
  1 11  1  0  0  0  0
  1  4  1  1  0  0  0
  2  3  1  0  0  0  0
  2  1  1  0  0  0  0
  3  7  1  6  0  0  0
  3 24  1  0  0  0  0
  3  1  1  0  0  0  0
  5  2  1  0  0  0  0
  6  2  1  0  0  0  0
  8  9  1  0  0  0  0
  9 10  2  0  0  0  0
  9 13  1  0  0  0  0
 10 14  1  0  0  0  0
 11 10  1  0  0  0  0
 12  8  2  0  0  0  0
 12 11  1  0  0  0  0
 15 16  1  0  0  0  0
 16  8  1  0  0  0  0
 16 17  2  0  0  0  0
 17 22  1  0  0  0  0
 18 17  1  0  0  0  0
 19 23  1  0  0  0  0
 19 18  2  0  0  0  0
 20 15  2  0  0  0  0
 20 19  1  0  0  0  0
 21 15  1  0  0  0  0
 24 28  1  0  0  0  0
 25 24  2  0  0  0  0
 25 26  1  0  0  0  0
 26 27  1  0  0  0  0
 27 33  1  0  0  0  0
 28 27  2  0  0  0  0
 29 25  1  0  0  0  0
 30 26  1  0  0  0  0
 31 32  1  0  0  0  0
 32 39  1  0  0  0  0
 33 32  2  0  0  0  0
 33 34  1  0  0  0  0
 34 36  2  0  0  0  0
 35 34  1  0  0  0  0
 36 38  1  0  0  0  0
 36 37  1  0  0  0  0
 39 38  2  0  0  0  0
M  END
>  <minimizedAffinity>
-5.87983131

$$$$

 OpenBabel03272500493D

 39 43  0  0  1  0  0  0  0  0999 V2000
   38.4640   26.6800   33.9590 C   0  0  1  0  0  0  0  0  0  0  0  0
   38.7430   27.1520   32.4890 C   0  0  0  0  0  0  0  0  0  0  0  0
   37.3690   27.0430   33.0400 C   0  0  2  0  0  0  0  0  0  0  0  0
   38.7500   27.4320   34.7220 H   0  0  0  0  0  0  0  0  0  0  0  0
   39.1630   26.3770   31.8470 H   0  0  0  0  0  0  0  0  0  0  0  0
   39.2470   28.1340   32.3820 H   0  0  0  0  0  0  0  0  0  0  0  0
   36.7510   26.2290   32.5980 H   0  0  0  0  0  0  0  0  0  0  0  0
   39.7680   23.4940   35.0310 C   0  0  0  0  0  0  0  0  0  0  0  0
   38.6510   23.0800   34.3230 C   0  0  0  0  0  0  0  0  0  0  0  0
   38.0020   24.2210   33.8190 C   0  0  0  0  0  0  0  0  0  0  0  0
   38.7330   25.2760   34.2300 N   0  0  0  0  0  0  0  0  0  0  0  0
   39.7460   24.8110   34.9290 N   0  0  0  0  0  0  0  0  0  0  0  0
   38.2860   22.0630   34.1500 H   0  0  0  0  0  0  0  0  0  0  0  0
   37.1080   24.2720   33.2270 H   0  0  0  0  0  0  0  0  0  0  0  0
   40.5840   22.2660   37.0540 C   0  0  0  0  0  0  0  0  0  0  0  0
   40.6740   22.5920   35.6880 C   0  0  0  0  0  0  0  0  0  0  0  0
   41.6960   21.9940   34.9760 C   0  0  0  0  0  0  0  0  0  0  0  0
   42.5490   21.1410   35.5990 N   0  0  0  0  0  0  0  0  0  0  0  0
   42.4190   20.8610   36.9190 C   0  0  0  0  0  0  0  0  0  0  0  0
   41.4240   21.4300   37.6580 N   0  0  0  0  0  0  0  0  0  0  0  0
   39.7890   22.7240   37.6300 H   0  0  0  0  0  0  0  0  0  0  0  0
   41.7950   22.2210   33.9210 H   0  0  0  0  0  0  0  0  0  0  0  0
   43.1840   20.1660   37.2380 H   0  0  0  0  0  0  0  0  0  0  0  0
   36.5690   28.2810   33.3040 C   0  0  0  0  0  0  0  0  0  0  0  0
   36.1900   29.1980   32.3210 C   0  0  0  0  0  0  0  0  0  0  0  0
   35.4860   30.1880   32.9290 N   0  0  0  0  0  0  0  0  0  0  0  0
   35.4270   29.8970   34.2580 C   0  0  0  0  0  0  0  0  0  0  0  0
   36.0850   28.7360   34.4920 N   0  0  0  0  0  0  0  0  0  0  0  0
   36.3930   29.1740   31.2510 H   0  0  0  0  0  0  0  0  0  0  0  0
   35.0590   31.0290   32.4860 H   0  0  0  0  0  0  0  0  0  0  0  0
   32.7430   29.6370   34.8370 F   0  0  0  0  0  0  0  0  0  0  0  0
   33.4210   30.5600   35.5590 C   0  0  0  0  0  0  0  0  0  0  0  0
   34.7640   30.6990   35.2790 C   0  0  0  0  0  0  0  0  0  0  0  0
   35.4890   31.6300   35.9940 C   0  0  0  0  0  0  0  0  0  0  0  0
   36.5490   31.7840   35.8170 H   0  0  0  0  0  0  0  0  0  0  0  0
   34.8940   32.4060   36.9670 C   0  0  0  0  0  0  0  0  0  0  0  0
   35.4590   33.1370   37.5300 H   0  0  0  0  0  0  0  0  0  0  0  0
   33.5520   32.2030   37.1830 C   0  0  0  0  0  3  0  0  0  0  0  0
   32.7550   31.2910   36.5100 C   0  0  0  0  0  3  0  0  0  0  0  0
  1 11  1  0  0  0  0
  1  4  1  1  0  0  0
  2  3  1  0  0  0  0
  2  1  1  0  0  0  0
  3  7  1  6  0  0  0
  3 24  1  0  0  0  0
  3  1  1  0  0  0  0
  5  2  1  0  0  0  0
  6  2  1  0  0  0  0
  8 16  1  0  0  0  0
  9  8  1  0  0  0  0
 10 11  1  0  0  0  0
 10  9  2  0  0  0  0
 11 12  1  0  0  0  0
 12  8  2  0  0  0  0
 13  9  1  0  0  0  0
 14 10  1  0  0  0  0
 15 21  1  0  0  0  0
 15 20  1  0  0  0  0
 16 15  2  0  0  0  0
 17 18  2  0  0  0  0
 17 16  1  0  0  0  0
 18 19  1  0  0  0  0
 19 23  1  0  0  0  0
 19 20  2  0  0  0  0
 22 17  1  0  0  0  0
 24 28  1  0  0  0  0
 25 26  1  0  0  0  0
 25 24  2  0  0  0  0
 26 27  1  0  0  0  0
 27 28  2  0  0  0  0
 27 33  1  0  0  0  0
 29 25  1  0  0  0  0
 30 26  1  0  0  0  0
 31 32  1  0  0  0  0
 32 39  1  0  0  0  0
 33 32  2  0  0  0  0
 33 34  1  0  0  0  0
 34 36  2  0  0  0  0
 35 34  1  0  0  0  0
 36 38  1  0  0  0  0
 36 37  1  0  0  0  0
 39 38  2  0  0  0  0
M  END
>  <minimizedAffinity>
-5.85241032

$$$$
