
 OpenBabel03272508373D

 44 47  0  0  1  0  0  0  0  0999 V2000
   39.2190   32.1060   43.1120 C   0  0  0  0  0  0  0  0  0  0  0  0
   39.3390   31.0300   43.4420 H   0  0  0  0  0  0  0  0  0  0  0  0
   40.2710   32.3970   42.8600 H   0  0  0  0  0  0  0  0  0  0  0  0
   38.5060   32.0660   41.9010 N   0  0  0  0  0  0  0  0  0  0  0  0
   39.1790   31.5110   40.7970 C   0  0  0  0  0  0  0  0  0  0  0  0
   39.4010   32.4150   39.6460 C   0  0  0  0  0  0  0  0  0  0  0  0
   38.3310   33.2780   39.3970 O   0  0  0  0  0  0  0  0  0  0  0  0
   37.9910   33.9810   40.5050 C   0  0  0  0  0  0  0  0  0  0  0  0
   37.5880   33.0760   41.6290 C   0  0  1  0  0  0  0  0  0  0  0  0
   40.0340   30.8470   40.9640 H   0  0  0  0  0  0  0  0  0  0  0  0
   38.4350   30.7440   40.4670 H   0  0  0  0  0  0  0  0  0  0  0  0
   40.3920   32.7610   39.4010 H   0  0  0  0  0  0  0  0  0  0  0  0
   39.2700   31.7350   38.7160 H   0  0  0  0  0  0  0  0  0  0  0  0
   38.6000   34.8490   40.7650 H   0  0  0  0  0  0  0  0  0  0  0  0
   37.0330   34.4870   40.2170 H   0  0  0  0  0  0  0  0  0  0  0  0
   37.7020   33.7930   42.5450 H   0  0  0  0  0  0  0  0  0  0  0  0
   36.1390   31.1830   39.9430 F   0  0  0  0  0  0  0  0  0  0  0  0
   35.4810   31.8840   40.8860 C   0  0  0  0  0  0  0  0  0  0  0  0
   36.1510   32.7800   41.6560 C   0  0  0  0  0  0  0  0  0  0  0  0
   35.2650   33.4070   42.5450 C   0  0  0  0  0  0  0  0  0  0  0  0
   35.6520   34.1660   43.2420 H   0  0  0  0  0  0  0  0  0  0  0  0
   33.9100   33.1950   42.6700 C   0  0  0  0  0  0  0  0  0  0  0  0
   33.3100   33.7310   43.3880 H   0  0  0  0  0  0  0  0  0  0  0  0
   33.3440   32.2610   41.8330 C   0  0  0  0  0  3  0  0  0  0  0  0
   34.1340   31.5960   40.9290 C   0  0  0  0  0  3  0  0  0  0  0  0
   38.6840   32.8530   44.2310 C   0  0  0  0  0  0  0  0  0  0  0  0
   39.5850   33.2760   44.7950 H   0  0  0  0  0  0  0  0  0  0  0  0
   38.0370   33.7040   44.1570 H   0  0  0  0  0  0  0  0  0  0  0  0
   37.4520   31.0060   47.0510 C   0  0  0  0  0  0  0  0  0  0  0  0
   36.6730   30.4740   46.0400 C   0  0  0  0  0  0  0  0  0  0  0  0
   37.0480   31.1070   44.8580 C   0  0  0  0  0  0  0  0  0  0  0  0
   38.0080   31.9700   45.1830 N   0  0  0  0  0  0  0  0  0  0  0  0
   38.2470   31.9060   46.5000 N   0  0  0  0  0  0  0  0  0  0  0  0
   35.9000   29.6910   46.1660 H   0  0  0  0  0  0  0  0  0  0  0  0
   36.5580   30.8210   44.0050 H   0  0  0  0  0  0  0  0  0  0  0  0
   37.8930   30.6210   50.7620 C   0  0  0  0  0  0  0  0  0  0  0  0
   38.0850   31.1000   49.4740 C   0  0  0  0  0  0  0  0  0  0  0  0
   37.3410   30.5850   48.4240 C   0  0  0  0  0  0  0  0  0  0  0  0
   36.4480   29.6130   48.7660 N   0  0  0  0  0  0  0  0  0  0  0  0
   36.2690   29.1540   50.0190 C   0  0  0  0  0  0  0  0  0  0  0  0
   36.9960   29.6640   51.0090 N   0  0  0  0  0  0  0  0  0  0  0  0
   38.5310   31.1000   51.4970 H   0  0  0  0  0  0  0  0  0  0  0  0
   38.7940   31.8710   49.2070 H   0  0  0  0  0  0  0  0  0  0  0  0
   35.5300   28.3770   50.1830 H   0  0  0  0  0  0  0  0  0  0  0  0
  1  2  1  0  0  0  0
  1 26  1  0  0  0  0
  3  1  1  0  0  0  0
  4  1  1  0  0  0  0
  5 10  1  0  0  0  0
  5  4  1  0  0  0  0
  6  5  1  0  0  0  0
  7  6  1  0  0  0  0
  7  8  1  0  0  0  0
  8 14  1  0  0  0  0
  8  9  1  0  0  0  0
  9 19  1  0  0  0  0
  9  4  1  0  0  0  0
  9 16  1  1  0  0  0
 11  5  1  0  0  0  0
 12  6  1  0  0  0  0
 13  6  1  0  0  0  0
 15  8  1  0  0  0  0
 17 18  1  0  0  0  0
 18 25  2  0  0  0  0
 18 19  1  0  0  0  0
 19 20  2  0  0  0  0
 20 22  1  0  0  0  0
 20 21  1  0  0  0  0
 22 23  1  0  0  0  0
 24 22  2  0  0  0  0
 25 24  1  0  0  0  0
 26 27  1  0  0  0  0
 26 32  1  0  0  0  0
 28 26  1  0  0  0  0
 29 38  1  0  0  0  0
 30 34  1  0  0  0  0
 30 29  1  0  0  0  0
 31 32  1  0  0  0  0
 31 30  2  0  0  0  0
 32 33  1  0  0  0  0
 33 29  2  0  0  0  0
 35 31  1  0  0  0  0
 36 41  1  0  0  0  0
 36 42  1  0  0  0  0
 37 36  2  0  0  0  0
 38 39  2  0  0  0  0
 38 37  1  0  0  0  0
 39 40  1  0  0  0  0
 40 44  1  0  0  0  0
 40 41  2  0  0  0  0
 43 37  1  0  0  0  0
M  END
>  <minimizedAffinity>
-4.7552042

>  <minimizedRMSD>
4.7628355

$$$$
