
 OpenBabel03272507213D

 30 32  0  0  1  0  0  0  0  0999 V2000
   39.2190   24.4150   34.6210 C   0  0  0  0  0  0  0  0  0  0  0  0
   40.3920   25.0440   35.0050 C   0  0  0  0  0  0  0  0  0  0  0  0
   40.3740   26.4490   34.8400 C   0  0  0  0  0  0  0  0  0  0  0  0
   39.2760   27.0900   34.3440 N   0  0  0  0  0  0  0  0  0  0  0  0
   38.1640   26.4110   33.9910 C   0  0  0  0  0  0  0  0  0  0  0  0
   38.1270   25.0570   34.1270 N   0  0  0  0  0  0  0  0  0  0  0  0
   41.2350   24.5190   35.3890 H   0  0  0  0  0  0  0  0  0  0  0  0
   41.2490   26.9890   35.1180 H   0  0  0  0  0  0  0  0  0  0  0  0
   37.1020   26.5000   31.3480 F   0  0  0  0  0  0  0  0  0  0  0  0
   36.5770   27.3550   32.2300 C   0  0  0  0  0  0  0  0  0  0  0  0
   37.1190   27.2780   33.4910 C   0  0  0  0  0  0  0  0  0  0  0  0
   36.6490   28.1180   34.4850 C   0  0  0  0  0  0  0  0  0  0  0  0
   36.9770   28.1750   35.5240 H   0  0  0  0  0  0  0  0  0  0  0  0
   35.6330   29.0410   34.2130 C   0  0  0  0  0  0  0  0  0  0  0  0
   35.2080   29.7320   34.9250 H   0  0  0  0  0  0  0  0  0  0  0  0
   35.0890   29.1150   32.9370 C   0  0  0  0  0  3  0  0  0  0  0  0
   35.5750   28.2660   31.9680 C   0  0  0  0  0  3  0  0  0  0  0  0
   39.1920   22.9320   34.8020 C   0  0  1  0  0  0  0  0  0  0  0  0
   38.4400   22.2960   35.8820 C   0  0  2  0  0  0  0  0  0  0  0  0
   37.8060   22.3260   34.5270 C   0  0  0  0  0  0  0  0  0  0  0  0
   40.0170   22.4260   34.2250 H   0  0  0  0  0  0  0  0  0  0  0  0
   38.9570   21.3920   36.2910 H   0  0  0  0  0  0  0  0  0  0  0  0
   36.9510   22.9960   34.3440 H   0  0  0  0  0  0  0  0  0  0  0  0
   37.8210   21.3400   34.0200 H   0  0  0  0  0  0  0  0  0  0  0  0
   37.9360   23.1260   36.8790 O   0  0  0  0  0  0  0  0  0  0  0  0
   38.4960   23.4700   38.0680 C   0  0  0  0  0  0  0  0  0  0  0  0
   38.0970   24.4520   38.7300 O   0  0  0  0  0  0  0  0  0  0  0  0
   39.5240   22.5670   38.3550 N   0  0  0  0  0  0  0  0  0  0  0  0
   40.4340   22.7400   37.8390 H   0  0  0  0  0  0  0  0  0  0  0  0
   39.0030   21.9730   39.0430 H   0  0  0  0  0  0  0  0  0  0  0  0
  1 18  1  0  0  0  0
  1  2  1  0  0  0  0
  2  7  1  0  0  0  0
  3  2  2  0  0  0  0
  3  8  1  0  0  0  0
  4  3  1  0  0  0  0
  5  6  1  0  0  0  0
  5  4  2  0  0  0  0
  6  1  2  0  0  0  0
  9 10  1  0  0  0  0
 10 11  1  0  0  0  0
 11  5  1  0  0  0  0
 11 12  2  0  0  0  0
 12 13  1  0  0  0  0
 14 12  1  0  0  0  0
 14 15  1  0  0  0  0
 16 14  2  0  0  0  0
 17 10  2  0  0  0  0
 17 16  1  0  0  0  0
 18 21  1  6  0  0  0
 18 19  1  0  0  0  0
 19 22  1  1  0  0  0
 19 25  1  0  0  0  0
 20 18  1  0  0  0  0
 20 19  1  0  0  0  0
 23 20  1  0  0  0  0
 24 20  1  0  0  0  0
 25 26  1  0  0  0  0
 26 28  1  0  0  0  0
 26 27  2  0  0  0  0
 28 30  1  0  0  0  0
 29 28  1  0  0  0  0
M  END
>  <minimizedAffinity>
-5.37127829

$$$$

 OpenBabel03272507213D

 30 32  0  0  1  0  0  0  0  0999 V2000
   39.5010   24.3630   34.5430 C   0  0  0  0  0  0  0  0  0  0  0  0
   40.6990   24.8990   34.9870 C   0  0  0  0  0  0  0  0  0  0  0  0
   40.8280   26.2890   34.7580 C   0  0  0  0  0  0  0  0  0  0  0  0
   39.8350   27.0020   34.1510 N   0  0  0  0  0  0  0  0  0  0  0  0
   38.6910   26.4120   33.7450 C   0  0  0  0  0  0  0  0  0  0  0  0
   38.5140   25.0760   33.9400 N   0  0  0  0  0  0  0  0  0  0  0  0
   41.4570   24.3190   35.4570 H   0  0  0  0  0  0  0  0  0  0  0  0
   41.7290   26.7590   35.0760 H   0  0  0  0  0  0  0  0  0  0  0  0
   36.3500   27.5590   34.8970 F   0  0  0  0  0  0  0  0  0  0  0  0
   36.6360   27.9210   33.6450 C   0  0  0  0  0  0  0  0  0  0  0  0
   37.7730   27.3450   33.1290 C   0  0  0  0  0  0  0  0  0  0  0  0
   38.1640   27.6500   31.8370 C   0  0  0  0  0  0  0  0  0  0  0  0
   39.0330   27.2760   31.2940 H   0  0  0  0  0  0  0  0  0  0  0  0
   37.4120   28.5370   31.0590 C   0  0  0  0  0  0  0  0  0  0  0  0
   37.6420   28.8310   30.0450 H   0  0  0  0  0  0  0  0  0  0  0  0
   36.2640   29.1170   31.5840 C   0  0  0  0  0  3  0  0  0  0  0  0
   35.9000   28.7960   32.8730 C   0  0  0  0  0  3  0  0  0  0  0  0
   39.3180   22.9000   34.7890 C   0  0  1  0  0  0  0  0  0  0  0  0
   38.4650   22.3940   35.8630 C   0  0  2  0  0  0  0  0  0  0  0  0
   37.8900   22.4200   34.4810 C   0  0  0  0  0  0  0  0  0  0  0  0
   40.1100   22.2880   34.2720 H   0  0  0  0  0  0  0  0  0  0  0  0
   38.8720   21.4650   36.3330 H   0  0  0  0  0  0  0  0  0  0  0  0
   37.1150   23.1620   34.2310 H   0  0  0  0  0  0  0  0  0  0  0  0
   37.8260   21.4140   34.0190 H   0  0  0  0  0  0  0  0  0  0  0  0
   38.0080   23.3170   36.7990 O   0  0  0  0  0  0  0  0  0  0  0  0
   38.4750   23.5660   38.0500 C   0  0  0  0  0  0  0  0  0  0  0  0
   38.0510   24.5190   38.7380 O   0  0  0  0  0  0  0  0  0  0  0  0
   39.4460   22.6110   38.3630 N   0  0  0  0  0  0  0  0  0  0  0  0
   40.4020   22.7820   37.9360 H   0  0  0  0  0  0  0  0  0  0  0  0
   38.8500   21.9950   38.9640 H   0  0  0  0  0  0  0  0  0  0  0  0
  1 18  1  0  0  0  0
  1  2  1  0  0  0  0
  2  7  1  0  0  0  0
  3  2  2  0  0  0  0
  3  8  1  0  0  0  0
  4  3  1  0  0  0  0
  5  6  1  0  0  0  0
  5  4  2  0  0  0  0
  6  1  2  0  0  0  0
 10  9  1  0  0  0  0
 11 10  1  0  0  0  0
 11  5  1  0  0  0  0
 12 11  2  0  0  0  0
 13 12  1  0  0  0  0
 14 16  2  0  0  0  0
 14 12  1  0  0  0  0
 15 14  1  0  0  0  0
 16 17  1  0  0  0  0
 17 10  2  0  0  0  0
 18 21  1  6  0  0  0
 18 19  1  0  0  0  0
 19 22  1  1  0  0  0
 19 25  1  0  0  0  0
 20 18  1  0  0  0  0
 20 19  1  0  0  0  0
 23 20  1  0  0  0  0
 24 20  1  0  0  0  0
 25 26  1  0  0  0  0
 26 28  1  0  0  0  0
 26 27  2  0  0  0  0
 28 30  1  0  0  0  0
 29 28  1  0  0  0  0
M  END
>  <minimizedAffinity>
-5.31192923

$$$$

 OpenBabel03272507213D

 30 32  0  0  1  0  0  0  0  0999 V2000
   37.1460   25.1120   32.5980 C   0  0  0  0  0  0  0  0  0  0  0  0
   36.8660   26.4480   32.8370 C   0  0  0  0  0  0  0  0  0  0  0  0
   37.2860   26.9060   34.1080 C   0  0  0  0  0  0  0  0  0  0  0  0
   37.9110   26.0720   34.9910 N   0  0  0  0  0  0  0  0  0  0  0  0
   38.1520   24.7790   34.6880 C   0  0  0  0  0  0  0  0  0  0  0  0
   37.7680   24.2850   33.4790 N   0  0  0  0  0  0  0  0  0  0  0  0
   36.3780   27.0760   32.1310 H   0  0  0  0  0  0  0  0  0  0  0  0
   37.0980   27.9250   34.3520 H   0  0  0  0  0  0  0  0  0  0  0  0
   37.1170   24.1570   37.2700 F   0  0  0  0  0  0  0  0  0  0  0  0
   38.3630   23.7520   37.0140 C   0  0  0  0  0  0  0  0  0  0  0  0
   38.8220   24.0730   35.7590 C   0  0  0  0  0  0  0  0  0  0  0  0
   40.1020   23.7020   35.3870 C   0  0  0  0  0  0  0  0  0  0  0  0
   40.6020   23.8830   34.4350 H   0  0  0  0  0  0  0  0  0  0  0  0
   40.9260   23.0060   36.2790 C   0  0  0  0  0  0  0  0  0  0  0  0
   41.9350   22.6780   36.0730 H   0  0  0  0  0  0  0  0  0  0  0  0
   40.4590   22.6840   37.5460 C   0  0  0  0  0  3  0  0  0  0  0  0
   39.1800   23.0660   37.8880 C   0  0  0  0  0  3  0  0  0  0  0  0
   36.7370   24.5980   31.2550 C   0  0  1  0  0  0  0  0  0  0  0  0
   35.7730   23.5100   31.1010 C   0  0  2  0  0  0  0  0  0  0  0  0
   35.2690   24.9080   30.9230 C   0  0  0  0  0  0  0  0  0  0  0  0
   37.4510   24.9270   30.4480 H   0  0  0  0  0  0  0  0  0  0  0  0
   36.0170   22.8380   30.2410 H   0  0  0  0  0  0  0  0  0  0  0  0
   34.6230   25.3530   31.6960 H   0  0  0  0  0  0  0  0  0  0  0  0
   35.0750   25.1670   29.8620 H   0  0  0  0  0  0  0  0  0  0  0  0
   35.4180   22.8080   32.2490 O   0  0  0  0  0  0  0  0  0  0  0  0
   35.5470   21.4820   32.5130 C   0  0  0  0  0  0  0  0  0  0  0  0
   34.7220   20.6400   32.0990 O   0  0  0  0  0  0  0  0  0  0  0  0
   36.6980   21.2890   33.2830 N   0  0  0  0  0  0  0  0  0  0  0  0
   36.5960   21.5180   34.3140 H   0  0  0  0  0  0  0  0  0  0  0  0
   37.3280   20.9560   32.5160 H   0  0  0  0  0  0  0  0  0  0  0  0
  1  2  2  0  0  0  0
  1  6  1  0  0  0  0
  2  3  1  0  0  0  0
  3  8  1  0  0  0  0
  3  4  2  0  0  0  0
  5  4  1  0  0  0  0
  5 11  1  0  0  0  0
  6  5  2  0  0  0  0
  7  2  1  0  0  0  0
 10  9  1  0  0  0  0
 10 17  1  0  0  0  0
 11 10  2  0  0  0  0
 12 11  1  0  0  0  0
 12 14  2  0  0  0  0
 13 12  1  0  0  0  0
 14 16  1  0  0  0  0
 15 14  1  0  0  0  0
 16 17  2  0  0  0  0
 18 21  1  6  0  0  0
 18  1  1  0  0  0  0
 19 22  1  6  0  0  0
 19 18  1  0  0  0  0
 19 25  1  0  0  0  0
 20 19  1  0  0  0  0
 20 18  1  0  0  0  0
 20 23  1  0  0  0  0
 24 20  1  0  0  0  0
 25 26  1  0  0  0  0
 26 28  1  0  0  0  0
 27 26  2  0  0  0  0
 28 29  1  0  0  0  0
 30 28  1  0  0  0  0
M  END
>  <minimizedAffinity>
-5.24554729

$$$$

 OpenBabel03272507213D

 30 32  0  0  1  0  0  0  0  0999 V2000
   37.0400   25.7960   32.7180 C   0  0  0  0  0  0  0  0  0  0  0  0
   36.7070   27.0870   33.0960 C   0  0  0  0  0  0  0  0  0  0  0  0
   37.0410   27.4000   34.4350 C   0  0  0  0  0  0  0  0  0  0  0  0
   37.6410   26.4810   35.2480 N   0  0  0  0  0  0  0  0  0  0  0  0
   37.9380   25.2400   34.8100 C   0  0  0  0  0  0  0  0  0  0  0  0
   37.6370   24.8850   33.5300 N   0  0  0  0  0  0  0  0  0  0  0  0
   36.2390   27.7830   32.4410 H   0  0  0  0  0  0  0  0  0  0  0  0
   36.8090   28.3780   34.7850 H   0  0  0  0  0  0  0  0  0  0  0  0
   40.3530   23.7440   34.5840 F   0  0  0  0  0  0  0  0  0  0  0  0
   39.7280   23.6920   35.7630 C   0  0  0  0  0  0  0  0  0  0  0  0
   38.5690   24.4280   35.8270 C   0  0  0  0  0  0  0  0  0  0  0  0
   37.8400   24.4450   37.0030 C   0  0  0  0  0  0  0  0  0  0  0  0
   36.9090   24.9760   37.2060 H   0  0  0  0  0  0  0  0  0  0  0  0
   38.2750   23.7220   38.1200 C   0  0  0  0  0  0  0  0  0  0  0  0
   37.7710   23.6790   39.0740 H   0  0  0  0  0  0  0  0  0  0  0  0
   39.4470   22.9800   38.0490 C   0  0  0  0  0  3  0  0  0  0  0  0
   40.1530   22.9820   36.8660 C   0  0  0  0  0  3  0  0  0  0  0  0
   36.7220   25.4370   31.3020 C   0  0  1  0  0  0  0  0  0  0  0  0
   35.9010   24.2770   30.9620 C   0  0  2  0  0  0  0  0  0  0  0  0
   35.2340   25.6160   30.9640 C   0  0  0  0  0  0  0  0  0  0  0  0
   37.4060   25.9600   30.5760 H   0  0  0  0  0  0  0  0  0  0  0  0
   36.2410   23.7690   30.0250 H   0  0  0  0  0  0  0  0  0  0  0  0
   34.5240   25.8660   31.7690 H   0  0  0  0  0  0  0  0  0  0  0  0
   35.0300   26.0010   29.9440 H   0  0  0  0  0  0  0  0  0  0  0  0
   35.6120   23.3800   31.9860 O   0  0  0  0  0  0  0  0  0  0  0  0
   35.9150   22.0580   32.0750 C   0  0  0  0  0  0  0  0  0  0  0  0
   35.3620   21.2020   31.3530 O   0  0  0  0  0  0  0  0  0  0  0  0
   36.8890   21.8890   33.0630 N   0  0  0  0  0  0  0  0  0  0  0  0
   36.5290   21.9070   34.0600 H   0  0  0  0  0  0  0  0  0  0  0  0
   37.7190   21.7940   32.4300 H   0  0  0  0  0  0  0  0  0  0  0  0
  1  2  2  0  0  0  0
  1  6  1  0  0  0  0
  2  3  1  0  0  0  0
  3  8  1  0  0  0  0
  3  4  2  0  0  0  0
  5  4  1  0  0  0  0
  5 11  1  0  0  0  0
  6  5  2  0  0  0  0
  7  2  1  0  0  0  0
  9 10  1  0  0  0  0
 10 11  2  0  0  0  0
 10 17  1  0  0  0  0
 11 12  1  0  0  0  0
 12 13  1  0  0  0  0
 12 14  2  0  0  0  0
 14 15  1  0  0  0  0
 16 14  1  0  0  0  0
 17 16  2  0  0  0  0
 18 21  1  6  0  0  0
 18  1  1  0  0  0  0
 19 22  1  6  0  0  0
 19 20  1  0  0  0  0
 19 18  1  0  0  0  0
 19 25  1  0  0  0  0
 20 18  1  0  0  0  0
 20 23  1  0  0  0  0
 24 20  1  0  0  0  0
 25 26  1  0  0  0  0
 26 28  1  0  0  0  0
 27 26  2  0  0  0  0
 28 29  1  0  0  0  0
 30 28  1  0  0  0  0
M  END
>  <minimizedAffinity>
-5.20508766

$$$$

 OpenBabel03272507213D

 30 32  0  0  1  0  0  0  0  0999 V2000
   34.6660   29.9510   33.0870 C   0  0  0  0  0  0  0  0  0  0  0  0
   35.1160   30.2780   31.8170 C   0  0  0  0  0  0  0  0  0  0  0  0
   36.2540   29.5470   31.4030 C   0  0  0  0  0  0  0  0  0  0  0  0
   36.8280   28.6100   32.2140 N   0  0  0  0  0  0  0  0  0  0  0  0
   36.3350   28.3440   33.4410 C   0  0  0  0  0  0  0  0  0  0  0  0
   35.2410   29.0180   33.8910 N   0  0  0  0  0  0  0  0  0  0  0  0
   34.6490   31.0130   31.2050 H   0  0  0  0  0  0  0  0  0  0  0  0
   36.6480   29.7540   30.4360 H   0  0  0  0  0  0  0  0  0  0  0  0
   36.6170   25.6040   32.7100 F   0  0  0  0  0  0  0  0  0  0  0  0
   37.2510   25.9930   33.8180 C   0  0  0  0  0  0  0  0  0  0  0  0
   37.0880   27.3210   34.1340 C   0  0  0  0  0  0  0  0  0  0  0  0
   37.7030   27.8320   35.2630 C   0  0  0  0  0  0  0  0  0  0  0  0
   37.6670   28.8550   35.6400 H   0  0  0  0  0  0  0  0  0  0  0  0
   38.4840   27.0070   36.0810 C   0  0  0  0  0  0  0  0  0  0  0  0
   38.9980   27.3200   36.9770 H   0  0  0  0  0  0  0  0  0  0  0  0
   38.6460   25.6660   35.7580 C   0  0  0  0  0  3  0  0  0  0  0  0
   38.0230   25.1850   34.6280 C   0  0  0  0  0  3  0  0  0  0  0  0
   33.4500   30.6860   33.5490 C   0  0  1  0  0  0  0  0  0  0  0  0
   33.3610   31.2760   34.8840 C   0  0  2  0  0  0  0  0  0  0  0  0
   33.7050   32.1890   33.7490 C   0  0  0  0  0  0  0  0  0  0  0  0
   32.5600   30.4740   32.8930 H   0  0  0  0  0  0  0  0  0  0  0  0
   32.3320   31.2070   35.3160 H   0  0  0  0  0  0  0  0  0  0  0  0
   34.7320   32.5780   33.6600 H   0  0  0  0  0  0  0  0  0  0  0  0
   32.8640   32.8490   33.4520 H   0  0  0  0  0  0  0  0  0  0  0  0
   34.3530   30.9340   35.7970 O   0  0  0  0  0  0  0  0  0  0  0  0
   35.3100   31.7220   36.3540 C   0  0  0  0  0  0  0  0  0  0  0  0
   36.4460   31.8430   35.8480 O   0  0  0  0  0  0  0  0  0  0  0  0
   34.7880   32.3080   37.5110 N   0  0  0  0  0  0  0  0  0  0  0  0
   34.7630   31.6780   38.3640 H   0  0  0  0  0  0  0  0  0  0  0  0
   34.5790   33.2530   37.1100 H   0  0  0  0  0  0  0  0  0  0  0  0
  1 18  1  0  0  0  0
  1  6  1  0  0  0  0
  2  1  2  0  0  0  0
  3  2  1  0  0  0  0
  3  4  2  0  0  0  0
  4  5  1  0  0  0  0
  5  6  2  0  0  0  0
  5 11  1  0  0  0  0
  7  2  1  0  0  0  0
  8  3  1  0  0  0  0
  9 10  1  0  0  0  0
 10 11  2  0  0  0  0
 10 17  1  0  0  0  0
 11 12  1  0  0  0  0
 12 13  1  0  0  0  0
 12 14  2  0  0  0  0
 14 15  1  0  0  0  0
 16 14  1  0  0  0  0
 17 16  2  0  0  0  0
 18 21  1  6  0  0  0
 18 20  1  0  0  0  0
 18 19  1  0  0  0  0
 19 22  1  1  0  0  0
 19 25  1  0  0  0  0
 20 19  1  0  0  0  0
 23 20  1  0  0  0  0
 24 20  1  0  0  0  0
 25 26  1  0  0  0  0
 26 28  1  0  0  0  0
 27 26  2  0  0  0  0
 28 29  1  0  0  0  0
 30 28  1  0  0  0  0
M  END
>  <minimizedAffinity>
-5.19753647

$$$$

 OpenBabel03272507213D

 30 32  0  0  1  0  0  0  0  0999 V2000
   40.5230   24.1160   34.9670 C   0  0  0  0  0  0  0  0  0  0  0  0
   41.7780   24.7030   34.9710 C   0  0  0  0  0  0  0  0  0  0  0  0
   41.7680   26.0850   34.6690 C   0  0  0  0  0  0  0  0  0  0  0  0
   40.6030   26.7440   34.4040 N   0  0  0  0  0  0  0  0  0  0  0  0
   39.4140   26.1070   34.4180 C   0  0  0  0  0  0  0  0  0  0  0  0
   39.3650   24.7760   34.7030 N   0  0  0  0  0  0  0  0  0  0  0  0
   42.6720   24.1650   35.1820 H   0  0  0  0  0  0  0  0  0  0  0  0
   42.7040   26.5930   34.6560 H   0  0  0  0  0  0  0  0  0  0  0  0
   37.7100   27.4570   36.2620 F   0  0  0  0  0  0  0  0  0  0  0  0
   37.4620   27.6570   34.9650 C   0  0  0  0  0  0  0  0  0  0  0  0
   38.3070   26.9870   34.1120 C   0  0  0  0  0  0  0  0  0  0  0  0
   38.1400   27.1220   32.7450 C   0  0  0  0  0  0  0  0  0  0  0  0
   38.7250   26.6580   31.9500 H   0  0  0  0  0  0  0  0  0  0  0  0
   37.1210   27.9320   32.2310 C   0  0  0  0  0  0  0  0  0  0  0  0
   36.9190   28.0940   31.1830 H   0  0  0  0  0  0  0  0  0  0  0  0
   36.2700   28.6060   33.0970 C   0  0  0  0  0  3  0  0  0  0  0  0
   36.4600   28.4540   34.4520 C   0  0  0  0  0  3  0  0  0  0  0  0
   40.4900   22.6610   35.3050 C   0  0  1  0  0  0  0  0  0  0  0  0
   40.0070   22.1750   36.5960 C   0  0  2  0  0  0  0  0  0  0  0  0
   39.0590   22.1150   35.4400 C   0  0  0  0  0  0  0  0  0  0  0  0
   41.1290   22.0550   34.6030 H   0  0  0  0  0  0  0  0  0  0  0  0
   40.5770   21.2840   36.9610 H   0  0  0  0  0  0  0  0  0  0  0  0
   38.2090   22.8140   35.3990 H   0  0  0  0  0  0  0  0  0  0  0  0
   38.9140   21.0860   35.0510 H   0  0  0  0  0  0  0  0  0  0  0  0
   39.7930   23.1230   37.5920 O   0  0  0  0  0  0  0  0  0  0  0  0
   38.6260   23.4980   38.1780 C   0  0  0  0  0  0  0  0  0  0  0  0
   38.0030   24.5210   37.8210 O   0  0  0  0  0  0  0  0  0  0  0  0
   38.3110   22.5730   39.1780 N   0  0  0  0  0  0  0  0  0  0  0  0
   38.8440   22.6910   40.0870 H   0  0  0  0  0  0  0  0  0  0  0  0
   37.5930   22.0270   38.6450 H   0  0  0  0  0  0  0  0  0  0  0  0
  1  2  1  0  0  0  0
  1 18  1  0  0  0  0
  2  7  1  0  0  0  0
  3  2  2  0  0  0  0
  4  5  2  0  0  0  0
  4  3  1  0  0  0  0
  5  6  1  0  0  0  0
  6  1  2  0  0  0  0
  8  3  1  0  0  0  0
 10  9  1  0  0  0  0
 11  5  1  0  0  0  0
 11 10  2  0  0  0  0
 12 11  1  0  0  0  0
 13 12  1  0  0  0  0
 14 12  2  0  0  0  0
 14 16  1  0  0  0  0
 15 14  1  0  0  0  0
 16 17  2  0  0  0  0
 17 10  1  0  0  0  0
 18 21  1  6  0  0  0
 18 20  1  0  0  0  0
 18 19  1  0  0  0  0
 19 22  1  1  0  0  0
 19 25  1  0  0  0  0
 20 19  1  0  0  0  0
 23 20  1  0  0  0  0
 24 20  1  0  0  0  0
 25 26  1  0  0  0  0
 26 28  1  0  0  0  0
 27 26  2  0  0  0  0
 28 29  1  0  0  0  0
 30 28  1  0  0  0  0
M  END
>  <minimizedAffinity>
-5.19141483

$$$$

 OpenBabel03272507213D

 30 32  0  0  1  0  0  0  0  0999 V2000
   37.5930   24.3470   32.9300 C   0  0  0  0  0  0  0  0  0  0  0  0
   36.7310   25.1690   32.2230 C   0  0  0  0  0  0  0  0  0  0  0  0
   35.7000   24.4770   31.5450 C   0  0  0  0  0  0  0  0  0  0  0  0
   35.5990   23.1170   31.6100 N   0  0  0  0  0  0  0  0  0  0  0  0
   36.4760   22.3780   32.3210 C   0  0  0  0  0  0  0  0  0  0  0  0
   37.4890   22.9930   32.9920 N   0  0  0  0  0  0  0  0  0  0  0  0
   36.8320   26.2280   32.1900 H   0  0  0  0  0  0  0  0  0  0  0  0
   35.0040   25.0550   30.9830 H   0  0  0  0  0  0  0  0  0  0  0  0
   35.2720   20.7610   34.3350 F   0  0  0  0  0  0  0  0  0  0  0  0
   35.6130   20.1450   33.2010 C   0  0  0  0  0  0  0  0  0  0  0  0
   36.1900   20.9610   32.2580 C   0  0  0  0  0  0  0  0  0  0  0  0
   36.5820   20.4260   31.0430 C   0  0  0  0  0  0  0  0  0  0  0  0
   37.0500   20.9430   30.2040 H   0  0  0  0  0  0  0  0  0  0  0  0
   36.3960   19.0660   30.7740 C   0  0  0  0  0  0  0  0  0  0  0  0
   36.6710   18.5660   29.8570 H   0  0  0  0  0  0  0  0  0  0  0  0
   35.8120   18.2440   31.7300 C   0  0  0  0  0  3  0  0  0  0  0  0
   35.4310   18.8040   32.9290 C   0  0  0  0  0  3  0  0  0  0  0  0
   38.6820   25.0450   33.6780 C   0  0  1  0  0  0  0  0  0  0  0  0
   38.9100   24.8210   35.1040 C   0  0  2  0  0  0  0  0  0  0  0  0
   39.7910   24.0870   34.1430 C   0  0  0  0  0  0  0  0  0  0  0  0
   39.0770   25.9330   33.1090 H   0  0  0  0  0  0  0  0  0  0  0  0
   39.2350   25.7480   35.6390 H   0  0  0  0  0  0  0  0  0  0  0  0
   39.6590   23.0020   34.0060 H   0  0  0  0  0  0  0  0  0  0  0  0
   40.8180   24.5030   34.0910 H   0  0  0  0  0  0  0  0  0  0  0  0
   37.9360   24.1110   35.8000 O   0  0  0  0  0  0  0  0  0  0  0  0
   38.0900   23.0900   36.6820 C   0  0  0  0  0  0  0  0  0  0  0  0
   38.5290   23.2720   37.8380 O   0  0  0  0  0  0  0  0  0  0  0  0
   37.6890   21.9020   36.0650 N   0  0  0  0  0  0  0  0  0  0  0  0
   38.3980   21.4770   35.3990 H   0  0  0  0  0  0  0  0  0  0  0  0
   36.7420   21.8250   36.5050 H   0  0  0  0  0  0  0  0  0  0  0  0
  1  6  1  0  0  0  0
  1 18  1  0  0  0  0
  2  1  2  0  0  0  0
  3  4  2  0  0  0  0
  3  2  1  0  0  0  0
  4  5  1  0  0  0  0
  5  6  2  0  0  0  0
  7  2  1  0  0  0  0
  8  3  1  0  0  0  0
 10  9  1  0  0  0  0
 11  5  1  0  0  0  0
 11 10  2  0  0  0  0
 12 11  1  0  0  0  0
 13 12  1  0  0  0  0
 14 12  2  0  0  0  0
 14 16  1  0  0  0  0
 15 14  1  0  0  0  0
 16 17  2  0  0  0  0
 17 10  1  0  0  0  0
 18 21  1  6  0  0  0
 18 20  1  0  0  0  0
 18 19  1  0  0  0  0
 19 22  1  1  0  0  0
 19 25  1  0  0  0  0
 20 19  1  0  0  0  0
 23 20  1  0  0  0  0
 24 20  1  0  0  0  0
 25 26  1  0  0  0  0
 26 27  2  0  0  0  0
 28 30  1  0  0  0  0
 28 26  1  0  0  0  0
 29 28  1  0  0  0  0
M  END
>  <minimizedAffinity>
-5.17672682

$$$$

 OpenBabel03272507213D

 30 32  0  0  1  0  0  0  0  0999 V2000
   37.5760   25.6730   31.6920 C   0  0  0  0  0  0  0  0  0  0  0  0
   36.4630   26.4280   31.3560 C   0  0  0  0  0  0  0  0  0  0  0  0
   35.3170   25.6580   31.0450 C   0  0  0  0  0  0  0  0  0  0  0  0
   35.3480   24.2940   31.0870 N   0  0  0  0  0  0  0  0  0  0  0  0
   36.4700   23.6240   31.4240 C   0  0  0  0  0  0  0  0  0  0  0  0
   37.6020   24.3150   31.7310 N   0  0  0  0  0  0  0  0  0  0  0  0
   36.4670   27.4910   31.3320 H   0  0  0  0  0  0  0  0  0  0  0  0
   34.4290   26.1820   30.7780 H   0  0  0  0  0  0  0  0  0  0  0  0
   38.1210   21.6820   30.1500 F   0  0  0  0  0  0  0  0  0  0  0  0
   37.0550   21.2180   30.8080 C   0  0  0  0  0  0  0  0  0  0  0  0
   36.2870   22.1890   31.4070 C   0  0  0  0  0  0  0  0  0  0  0  0
   35.1580   21.8210   32.1160 C   0  0  0  0  0  0  0  0  0  0  0  0
   34.4550   22.4700   32.6410 H   0  0  0  0  0  0  0  0  0  0  0  0
   34.7960   20.4730   32.2250 C   0  0  0  0  0  0  0  0  0  0  0  0
   33.9340   20.0970   32.7570 H   0  0  0  0  0  0  0  0  0  0  0  0
   35.5750   19.4960   31.6180 C   0  0  0  0  0  3  0  0  0  0  0  0
   36.6940   19.8920   30.9200 C   0  0  0  0  0  3  0  0  0  0  0  0
   38.8000   26.4520   32.0490 C   0  0  1  0  0  0  0  0  0  0  0  0
   39.1100   26.8210   33.4290 C   0  0  2  0  0  0  0  0  0  0  0  0
   39.8120   25.6280   32.8610 C   0  0  0  0  0  0  0  0  0  0  0  0
   39.2580   26.9470   31.1460 H   0  0  0  0  0  0  0  0  0  0  0  0
   39.5900   27.8280   33.5080 H   0  0  0  0  0  0  0  0  0  0  0  0
   39.5330   24.6200   33.2060 H   0  0  0  0  0  0  0  0  0  0  0  0
   40.8760   25.8260   32.6180 H   0  0  0  0  0  0  0  0  0  0  0  0
   38.1110   26.6250   34.3780 O   0  0  0  0  0  0  0  0  0  0  0  0
   38.2290   26.4800   35.7240 C   0  0  0  0  0  0  0  0  0  0  0  0
   38.0430   25.3820   36.2920 O   0  0  0  0  0  0  0  0  0  0  0  0
   38.5680   27.7170   36.2780 N   0  0  0  0  0  0  0  0  0  0  0  0
   37.7630   28.3990   36.3890 H   0  0  0  0  0  0  0  0  0  0  0  0
   39.5920   27.5390   36.4080 H   0  0  0  0  0  0  0  0  0  0  0  0
  1  6  1  0  0  0  0
  1 18  1  0  0  0  0
  2  1  2  0  0  0  0
  3  4  2  0  0  0  0
  3  2  1  0  0  0  0
  4  5  1  0  0  0  0
  5  6  2  0  0  0  0
  7  2  1  0  0  0  0
  8  3  1  0  0  0  0
  9 10  1  0  0  0  0
 10 17  2  0  0  0  0
 10 11  1  0  0  0  0
 11  5  1  0  0  0  0
 11 12  2  0  0  0  0
 12 14  1  0  0  0  0
 12 13  1  0  0  0  0
 14 15  1  0  0  0  0
 16 14  2  0  0  0  0
 17 16  1  0  0  0  0
 18 21  1  6  0  0  0
 18 20  1  0  0  0  0
 18 19  1  0  0  0  0
 19 22  1  1  0  0  0
 19 25  1  0  0  0  0
 20 23  1  0  0  0  0
 20 19  1  0  0  0  0
 24 20  1  0  0  0  0
 25 26  1  0  0  0  0
 26 28  1  0  0  0  0
 26 27  2  0  0  0  0
 28 29  1  0  0  0  0
 28 30  1  0  0  0  0
M  END
>  <minimizedAffinity>
-5.08892012

$$$$

 OpenBabel03272507213D

 30 32  0  0  1  0  0  0  0  0999 V2000
   37.1130   27.3160   33.8470 C   0  0  0  0  0  0  0  0  0  0  0  0
   37.2450   27.5530   32.4880 C   0  0  0  0  0  0  0  0  0  0  0  0
   36.6050   28.7350   32.0450 C   0  0  0  0  0  0  0  0  0  0  0  0
   35.9290   29.5430   32.9140 N   0  0  0  0  0  0  0  0  0  0  0  0
   35.8430   29.2480   34.2280 C   0  0  0  0  0  0  0  0  0  0  0  0
   36.4390   28.1230   34.7080 N   0  0  0  0  0  0  0  0  0  0  0  0
   37.7780   26.9060   31.8330 H   0  0  0  0  0  0  0  0  0  0  0  0
   36.6700   28.9720   31.0090 H   0  0  0  0  0  0  0  0  0  0  0  0
   33.0090   29.4370   34.4630 F   0  0  0  0  0  0  0  0  0  0  0  0
   33.7230   30.3610   35.1110 C   0  0  0  0  0  0  0  0  0  0  0  0
   35.0850   30.2320   34.9700 C   0  0  0  0  0  0  0  0  0  0  0  0
   35.9220   31.1370   35.5990 C   0  0  0  0  0  0  0  0  0  0  0  0
   37.0120   31.1640   35.5810 H   0  0  0  0  0  0  0  0  0  0  0  0
   35.3910   32.1750   36.3720 C   0  0  0  0  0  0  0  0  0  0  0  0
   35.9680   32.9230   36.8970 H   0  0  0  0  0  0  0  0  0  0  0  0
   34.0150   32.3010   36.5120 C   0  0  0  0  0  3  0  0  0  0  0  0
   33.2060   31.3860   35.8750 C   0  0  0  0  0  3  0  0  0  0  0  0
   37.7960   26.0880   34.3560 C   0  0  1  0  0  0  0  0  0  0  0  0
   39.2310   26.0570   34.6340 C   0  0  2  0  0  0  0  0  0  0  0  0
   38.3090   26.2490   35.7970 C   0  0  0  0  0  0  0  0  0  0  0  0
   37.1620   25.1680   34.2140 H   0  0  0  0  0  0  0  0  0  0  0  0
   39.6960   25.0710   34.3840 H   0  0  0  0  0  0  0  0  0  0  0  0
   38.2490   27.2350   36.2840 H   0  0  0  0  0  0  0  0  0  0  0  0
   38.2140   25.3430   36.4290 H   0  0  0  0  0  0  0  0  0  0  0  0
   39.9870   27.1380   34.1900 O   0  0  0  0  0  0  0  0  0  0  0  0
   41.3140   27.1900   33.9020 C   0  0  0  0  0  0  0  0  0  0  0  0
   41.7550   27.8280   32.9220 O   0  0  0  0  0  0  0  0  0  0  0  0
   42.0080   26.4390   34.8550 N   0  0  0  0  0  0  0  0  0  0  0  0
   41.9840   25.3890   34.7070 H   0  0  0  0  0  0  0  0  0  0  0  0
   42.3470   27.2350   35.4450 H   0  0  0  0  0  0  0  0  0  0  0  0
  1 18  1  0  0  0  0
  1  6  1  0  0  0  0
  2  1  2  0  0  0  0
  3  2  1  0  0  0  0
  3  4  2  0  0  0  0
  4  5  1  0  0  0  0
  5  6  2  0  0  0  0
  5 11  1  0  0  0  0
  7  2  1  0  0  0  0
  8  3  1  0  0  0  0
  9 10  1  0  0  0  0
 10 17  1  0  0  0  0
 11 10  2  0  0  0  0
 11 12  1  0  0  0  0
 12 14  2  0  0  0  0
 13 12  1  0  0  0  0
 14 16  1  0  0  0  0
 14 15  1  0  0  0  0
 17 16  2  0  0  0  0
 18 21  1  6  0  0  0
 18 19  1  0  0  0  0
 18 20  1  0  0  0  0
 19 22  1  6  0  0  0
 19 20  1  0  0  0  0
 20 23  1  0  0  0  0
 20 24  1  0  0  0  0
 25 19  1  0  0  0  0
 26 25  1  0  0  0  0
 26 28  1  0  0  0  0
 27 26  2  0  0  0  0
 28 30  1  0  0  0  0
 29 28  1  0  0  0  0
M  END
>  <minimizedAffinity>
-5.08082533

$$$$
