
 OpenBabel03272505123D

 39 42  0  0  0  0  0  0  0  0999 V2000
   34.0950   29.9890   47.5560 S   0  0  0  0  0  0  0  0  0  0  0  0
   36.4390   30.9310   45.7110 Cl  0  0  0  0  0  0  0  0  0  0  0  0
   36.7200   30.8150   47.4310 C   0  0  0  0  0  0  0  0  0  0  0  0
   37.9850   31.1520   47.8910 C   0  0  0  0  0  0  0  0  0  0  0  0
   38.2270   31.0650   49.2510 C   0  0  0  0  0  0  0  0  0  0  0  0
   37.2240   30.6560   50.0980 C   0  0  0  0  0  0  0  0  0  0  0  0
   35.9750   30.3320   49.5690 C   0  0  0  0  0  0  0  0  0  0  0  0
   35.6720   30.3950   48.2420 C   0  0  0  0  0  0  0  0  0  0  0  0
   39.2060   31.3240   49.6260 H   0  0  0  0  0  0  0  0  0  0  0  0
   37.3780   30.5780   51.1600 H   0  0  0  0  0  0  0  0  0  0  0  0
   35.2150   30.0150   50.2720 H   0  0  0  0  0  0  0  0  0  0  0  0
   40.2510   33.3450   46.0550 C   0  0  0  0  0  0  0  0  0  0  0  0
   40.9610   32.4810   45.2100 C   0  0  0  0  0  0  0  0  0  0  0  0
   40.6420   31.1150   45.2840 C   0  0  0  0  0  0  0  0  0  0  0  0
   39.6790   30.7110   46.1570 N   0  0  0  0  0  0  0  0  0  0  0  0
   39.0240   31.5830   46.9490 C   0  0  0  0  0  0  0  0  0  0  0  0
   39.3180   32.8800   46.8870 N   0  0  0  0  0  0  0  0  0  0  0  0
   40.4120   34.4320   46.0880 H   0  0  0  0  0  0  0  0  0  0  0  0
   41.7070   32.9070   44.5550 H   0  0  0  0  0  0  0  0  0  0  0  0
   41.1800   30.4450   44.6400 H   0  0  0  0  0  0  0  0  0  0  0  0
   33.9670   29.1680   44.5110 Cl  0  0  0  0  0  0  0  0  0  0  0  0
   33.9190   27.9690   45.7950 C   0  0  0  0  0  0  0  0  0  0  0  0
   33.9700   28.2470   47.1620 C   0  0  0  0  0  0  0  0  0  0  0  0
   33.9240   27.2100   48.0640 C   0  0  0  0  0  0  0  0  0  0  0  0
   33.8280   25.9240   47.6350 C   0  0  0  0  0  0  0  0  0  0  0  0
   33.7730   25.5820   46.2810 C   0  0  0  0  0  0  0  0  0  0  0  0
   33.8210   26.6250   45.3980 C   0  0  0  0  0  0  0  0  0  0  0  0
   33.9680   27.4950   49.1040 H   0  0  0  0  0  0  0  0  0  0  0  0
   33.7920   25.0980   48.3540 H   0  0  0  0  0  0  0  0  0  0  0  0
   33.6980   24.5590   45.9430 H   0  0  0  0  0  0  0  0  0  0  0  0
   31.4680   26.5470   43.8390 F   0  0  0  0  0  0  0  0  0  0  0  0
   32.6460   26.2310   43.2050 C   0  0  0  0  0  0  0  0  0  0  0  0
   33.7630   26.2780   43.9810 C   0  0  0  0  0  0  0  0  0  0  0  0
   35.0250   25.9800   43.4570 C   0  0  0  0  0  0  0  0  0  0  0  0
   35.9610   26.0010   44.0350 H   0  0  0  0  0  0  0  0  0  0  0  0
   35.1570   25.6280   42.1200 C   0  0  0  0  0  0  0  0  0  0  0  0
   36.1330   25.3870   41.6770 H   0  0  0  0  0  0  0  0  0  0  0  0
   33.9910   25.5960   41.3770 C   0  0  0  0  0  0  0  0  0  0  0  0
   32.7470   25.8860   41.8780 C   0  0  0  0  0  0  0  0  0  0  0  0
  1  8  1  0  0  0  0
  2  3  1  0  0  0  0
  3  4  2  0  0  0  0
  3  8  1  0  0  0  0
  4  5  1  0  0  0  0
  5  9  1  0  0  0  0
  5  6  2  0  0  0  0
  6 10  1  0  0  0  0
  7  6  1  0  0  0  0
  7 11  1  0  0  0  0
  8  7  2  0  0  0  0
 12 18  1  0  0  0  0
 12 17  1  0  0  0  0
 13 14  1  0  0  0  0
 13 12  2  0  0  0  0
 14 15  2  0  0  0  0
 15 16  1  0  0  0  0
 16  4  1  0  0  0  0
 17 16  2  0  0  0  0
 19 13  1  0  0  0  0
 20 14  1  0  0  0  0
 21 22  1  0  0  0  0
 22 23  1  0  0  0  0
 23  1  1  0  0  0  0
 23 24  2  0  0  0  0
 24 28  1  0  0  0  0
 25 24  1  0  0  0  0
 25 29  1  0  0  0  0
 26 25  2  0  0  0  0
 27 22  2  0  0  0  0
 27 26  1  0  0  0  0
 30 26  1  0  0  0  0
 32 31  1  0  0  0  0
 32 33  1  0  0  0  0
 33 27  1  0  0  0  0
 34 33  2  0  0  0  0
 34 35  1  0  0  0  0
 36 34  1  0  0  0  0
 37 36  1  0  0  0  0
 38 39  1  0  0  0  0
 38 36  2  0  0  0  0
 39 32  2  0  0  0  0
M  END
>  <minimizedAffinity>
-5.77919388

>  <minimizedRMSD>
0.327122122

$$$$
