
 OpenBabel03272508373D

 44 47  0  0  1  0  0  0  0  0999 V2000
   40.4520   31.8000   44.5150 C   0  0  0  0  0  0  0  0  0  0  0  0
   40.2930   30.7220   44.8200 H   0  0  0  0  0  0  0  0  0  0  0  0
   41.5690   31.8840   44.5080 H   0  0  0  0  0  0  0  0  0  0  0  0
   40.0290   31.8930   43.1760 N   0  0  0  0  0  0  0  0  0  0  0  0
   39.3580   33.0750   42.8130 C   0  0  0  0  0  0  0  0  0  0  0  0
   37.9620   32.9160   42.3470 C   0  0  0  0  0  0  0  0  0  0  0  0
   37.7600   31.7790   41.5630 O   0  0  0  0  0  0  0  0  0  0  0  0
   38.1890   30.6570   42.1910 C   0  0  0  0  0  0  0  0  0  0  0  0
   39.6520   30.7310   42.5100 C   0  0  1  0  0  0  0  0  0  0  0  0
   39.4830   33.9760   43.4230 H   0  0  0  0  0  0  0  0  0  0  0  0
   39.9610   33.3900   41.9260 H   0  0  0  0  0  0  0  0  0  0  0  0
   37.1380   33.2630   42.9490 H   0  0  0  0  0  0  0  0  0  0  0  0
   37.8470   33.7060   41.5060 H   0  0  0  0  0  0  0  0  0  0  0  0
   37.5410   30.2190   42.9520 H   0  0  0  0  0  0  0  0  0  0  0  0
   38.1320   29.8670   41.3980 H   0  0  0  0  0  0  0  0  0  0  0  0
   39.7420   29.9080   43.3350 H   0  0  0  0  0  0  0  0  0  0  0  0
   40.8180   28.0570   42.3720 F   0  0  0  0  0  0  0  0  0  0  0  0
   41.0360   28.9390   41.3760 C   0  0  0  0  0  0  0  0  0  0  0  0
   40.5100   30.1890   41.4510 C   0  0  0  0  0  0  0  0  0  0  0  0
   40.8870   30.9350   40.3230 C   0  0  0  0  0  0  0  0  0  0  0  0
   40.5400   31.9760   40.2310 H   0  0  0  0  0  0  0  0  0  0  0  0
   41.6670   30.5260   39.2660 C   0  0  0  0  0  0  0  0  0  0  0  0
   41.9030   31.1780   38.4400 H   0  0  0  0  0  0  0  0  0  0  0  0
   42.1420   29.2350   39.3040 C   0  0  0  0  0  3  0  0  0  0  0  0
   41.8250   28.4290   40.3680 C   0  0  0  0  0  3  0  0  0  0  0  0
   39.8330   32.6390   45.5190 C   0  0  0  0  0  0  0  0  0  0  0  0
   40.6470   32.8730   46.2870 H   0  0  0  0  0  0  0  0  0  0  0  0
   39.3980   33.6030   45.3410 H   0  0  0  0  0  0  0  0  0  0  0  0
   37.7180   30.9790   47.8960 C   0  0  0  0  0  0  0  0  0  0  0  0
   36.9850   30.8000   46.7380 C   0  0  0  0  0  0  0  0  0  0  0  0
   37.6980   31.4040   45.7060 C   0  0  0  0  0  0  0  0  0  0  0  0
   38.7990   31.9090   46.2550 N   0  0  0  0  0  0  0  0  0  0  0  0
   38.8080   31.6520   47.5710 N   0  0  0  0  0  0  0  0  0  0  0  0
   36.0140   30.2730   46.6640 H   0  0  0  0  0  0  0  0  0  0  0  0
   37.2840   31.3580   44.7690 H   0  0  0  0  0  0  0  0  0  0  0  0
   37.4390   30.1670   51.5540 C   0  0  0  0  0  0  0  0  0  0  0  0
   37.9490   30.6920   50.3760 C   0  0  0  0  0  0  0  0  0  0  0  0
   37.2850   30.4810   49.1770 C   0  0  0  0  0  0  0  0  0  0  0  0
   36.1430   29.7440   49.2670 N   0  0  0  0  0  0  0  0  0  0  0  0
   35.6550   29.2360   50.4160 C   0  0  0  0  0  0  0  0  0  0  0  0
   36.3110   29.4540   51.5520 N   0  0  0  0  0  0  0  0  0  0  0  0
   38.0440   30.3990   52.4230 H   0  0  0  0  0  0  0  0  0  0  0  0
   38.8560   31.2770   50.3070 H   0  0  0  0  0  0  0  0  0  0  0  0
   34.7360   28.6620   50.3770 H   0  0  0  0  0  0  0  0  0  0  0  0
  1  2  1  0  0  0  0
  1 26  1  0  0  0  0
  3  1  1  0  0  0  0
  4  1  1  0  0  0  0
  5  4  1  0  0  0  0
  5 10  1  0  0  0  0
  6  5  1  0  0  0  0
  6 12  1  0  0  0  0
  7  8  1  0  0  0  0
  7  6  1  0  0  0  0
  8  9  1  0  0  0  0
  8 14  1  0  0  0  0
  9  4  1  0  0  0  0
  9 16  1  1  0  0  0
 11  5  1  0  0  0  0
 13  6  1  0  0  0  0
 15  8  1  0  0  0  0
 18 19  1  0  0  0  0
 18 17  1  0  0  0  0
 19  9  1  0  0  0  0
 20 19  2  0  0  0  0
 21 20  1  0  0  0  0
 22 24  2  0  0  0  0
 22 20  1  0  0  0  0
 23 22  1  0  0  0  0
 24 25  1  0  0  0  0
 25 18  2  0  0  0  0
 26 32  1  0  0  0  0
 26 27  1  0  0  0  0
 28 26  1  0  0  0  0
 29 38  1  0  0  0  0
 30 29  1  0  0  0  0
 31 32  1  0  0  0  0
 31 30  2  0  0  0  0
 32 33  1  0  0  0  0
 33 29  2  0  0  0  0
 34 30  1  0  0  0  0
 35 31  1  0  0  0  0
 36 42  1  0  0  0  0
 37 36  2  0  0  0  0
 38 39  2  0  0  0  0
 38 37  1  0  0  0  0
 39 40  1  0  0  0  0
 40 41  2  0  0  0  0
 41 36  1  0  0  0  0
 43 37  1  0  0  0  0
 44 40  1  0  0  0  0
M  END
>  <minimizedAffinity>
-5.93089151

>  <minimizedRMSD>
0.943084955

$$$$
