
 OpenBabel03272507193D

 30 32  0  0  1  0  0  0  0  0999 V2000
   38.0970   31.1700   49.6350 C   0  0  0  0  0  0  0  0  0  0  0  0
   38.5500   32.4760   49.7340 C   0  0  0  0  0  0  0  0  0  0  0  0
   38.8080   33.0930   48.4870 C   0  0  0  0  0  0  0  0  0  0  0  0
   38.6120   32.4250   47.3130 N   0  0  0  0  0  0  0  0  0  0  0  0
   38.1660   31.1520   47.2920 C   0  0  0  0  0  0  0  0  0  0  0  0
   37.9030   30.5090   48.4630 N   0  0  0  0  0  0  0  0  0  0  0  0
   38.6940   32.9730   50.6640 H   0  0  0  0  0  0  0  0  0  0  0  0
   39.1600   34.0980   48.4980 H   0  0  0  0  0  0  0  0  0  0  0  0
   35.7490   30.5520   45.9070 F   0  0  0  0  0  0  0  0  0  0  0  0
   36.8870   30.3300   45.2430 C   0  0  0  0  0  0  0  0  0  0  0  0
   38.0270   30.6330   45.9480 C   0  0  0  0  0  0  0  0  0  0  0  0
   39.2640   30.4430   45.3570 C   0  0  0  0  0  0  0  0  0  0  0  0
   40.2480   30.6360   45.7840 H   0  0  0  0  0  0  0  0  0  0  0  0
   39.3560   29.9450   44.0520 C   0  0  0  0  0  0  0  0  0  0  0  0
   40.2760   29.7660   43.5140 H   0  0  0  0  0  0  0  0  0  0  0  0
   38.2010   29.6410   43.3430 C   0  0  0  0  0  3  0  0  0  0  0  0
   36.9850   29.8400   43.9580 C   0  0  0  0  0  3  0  0  0  0  0  0
   37.7910   30.4920   50.9310 C   0  0  1  0  0  0  0  0  0  0  0  0
   36.5270   29.7960   51.1640 C   0  0  2  0  0  0  0  0  0  0  0  0
   37.7150   28.9630   50.7980 C   0  0  0  0  0  0  0  0  0  0  0  0
   38.4850   30.8290   51.7520 H   0  0  0  0  0  0  0  0  0  0  0  0
   36.1630   29.9060   52.2160 H   0  0  0  0  0  0  0  0  0  0  0  0
   37.7680   28.5060   49.7970 H   0  0  0  0  0  0  0  0  0  0  0  0
   38.1300   28.3980   51.6570 H   0  0  0  0  0  0  0  0  0  0  0  0
   35.5180   29.9800   50.2230 O   0  0  0  0  0  0  0  0  0  0  0  0
   34.4730   29.1660   49.9220 C   0  0  0  0  0  0  0  0  0  0  0  0
   34.6110   28.1380   49.2250 O   0  0  0  0  0  0  0  0  0  0  0  0
   33.3170   29.6880   50.5090 N   0  0  0  0  0  0  0  0  0  0  0  0
   32.8750   30.5020   49.9900 H   0  0  0  0  0  0  0  0  0  0  0  0
   33.2730   29.0460   51.3340 H   0  0  0  0  0  0  0  0  0  0  0  0
  1  2  1  0  0  0  0
  1 18  1  0  0  0  0
  2  7  1  0  0  0  0
  3  8  1  0  0  0  0
  3  2  2  0  0  0  0
  4  3  1  0  0  0  0
  5  4  2  0  0  0  0
  5  6  1  0  0  0  0
  6  1  2  0  0  0  0
 10  9  1  0  0  0  0
 10 11  1  0  0  0  0
 11  5  1  0  0  0  0
 12 13  1  0  0  0  0
 12 11  2  0  0  0  0
 14 12  1  0  0  0  0
 15 14  1  0  0  0  0
 16 17  1  0  0  0  0
 16 14  2  0  0  0  0
 17 10  2  0  0  0  0
 18 19  1  0  0  0  0
 18 21  1  1  0  0  0
 19 22  1  1  0  0  0
 20 18  1  0  0  0  0
 20 19  1  0  0  0  0
 20 24  1  0  0  0  0
 23 20  1  0  0  0  0
 25 19  1  0  0  0  0
 26 25  1  0  0  0  0
 26 28  1  0  0  0  0
 27 26  2  0  0  0  0
 28 30  1  0  0  0  0
 29 28  1  0  0  0  0
M  END
>  <minimizedAffinity>
-5.94905615

>  <minimizedRMSD>
1.17613423

$$$$
