REMARK  Name = 
REMARK  6 active torsions:
REMARK  status: ('A' for Active; 'I' for Inactive)
REMARK    1  A    between atoms: C_1  and  C_2
REMARK    2  A    between atoms: C_1  and  C_9
REMARK    3  A    between atoms: C_1  and  S_16
REMARK    4  A    between atoms: C_8  and  C_12
REMARK    5  A    between atoms: C_14  and  C_32
REMARK    6  A    between atoms: S_16  and  C_17
REMARK                            x       y       z     vdW  Elec       q    Type
REMARK                         _______ _______ _______ _____ _____    ______ ____
ROOT
ATOM      1  C   UNL     1      35.565  29.985  47.884  0.00  0.00    +0.000 C 
ATOM      2  C   UNL     1      36.709  30.486  47.546  0.00  0.00    +0.000 C 
ENDROOT
BRANCH   1   5
ATOM      3  C   UNL     1      33.763  29.788  44.629  0.00  0.00    +0.000 A 
ATOM      4  C   UNL     1      34.735  30.001  45.594  0.00  0.00    +0.000 A 
ATOM      5  C   UNL     1      34.513  29.739  46.924  0.00  0.00    +0.000 A 
ATOM      6  N   UNL     1      33.303  29.265  47.251  0.00  0.00    +0.000 NA
ATOM      7  C   UNL     1      32.357  29.055  46.337  0.00  0.00    +0.000 A 
ATOM      8  N   UNL     1      32.567  29.308  45.034  0.00  0.00    +0.000 NA
ATOM      9  H   UNL     1      33.899  29.981  43.575  0.00  0.00    +0.000 HD
ATOM     10  H   UNL     1      35.647  30.383  45.161  0.00  0.00    +0.000 HD
BRANCH   7  13
ATOM     11  F   UNL     1      31.621  26.427  45.856  0.00  0.00    +0.000 F 
ATOM     12  C   UNL     1      30.708  27.212  46.473  0.00  0.00    +0.000 A 
ATOM     13  C   UNL     1      31.048  28.536  46.729  0.00  0.00    +0.000 A 
ATOM     14  C   UNL     1      30.107  29.330  47.361  0.00  0.00    +0.000 A 
ATOM     15  H   UNL     1      30.366  30.362  47.563  0.00  0.00    +0.000 HD
ATOM     16  C   UNL     1      28.894  28.770  47.701  0.00  0.00    +0.000 A 
ATOM     17  H   UNL     1      28.138  29.377  48.199  0.00  0.00    +0.000 HD
ATOM     18  C   UNL     1      28.543  27.465  47.456  0.00  0.00    +0.000 A 
ATOM     19  C   UNL     1      29.481  26.648  46.818  0.00  0.00    +0.000 A 
ENDBRANCH   7  13
ENDBRANCH   1   5
BRANCH   2  20
ATOM     20  C   UNL     1      37.721  30.706  48.632  0.00  0.00    +0.000 C 
ATOM     21  H   UNL     1      38.337  29.784  48.769  0.00  0.00    +0.000 HD
BRANCH  20  22
ATOM     22  C   UNL     1      38.517  31.903  48.326  0.00  0.00    +0.000 A 
ATOM     23  C   UNL     1      38.572  32.824  49.407  0.00  0.00    +0.000 A 
ATOM     24  C   UNL     1      39.257  34.015  49.359  0.00  0.00    +0.000 A 
ATOM     25  C   UNL     1      39.958  34.388  48.200  0.00  0.00    +0.000 A 
ATOM     26  C   UNL     1      39.854  33.436  47.195  0.00  0.00    +0.000 A 
ATOM     27  N   UNL     1      39.192  32.268  47.217  0.00  0.00    +0.000 NA
ATOM     28  H   UNL     1      38.114  32.763  50.408  0.00  0.00    +0.000 HD
ATOM     29  H   UNL     1      39.338  34.755  50.140  0.00  0.00    +0.000 HD
ATOM     30  H   UNL     1      40.532  35.246  47.977  0.00  0.00    +0.000 HD
ATOM     31  H   UNL     1      40.345  33.582  46.230  0.00  0.00    +0.000 HD
ENDBRANCH  20  22
BRANCH  20  32
ATOM     32  S   UNL     1      36.799  31.081  50.162  0.00  0.00    +0.000 S 
BRANCH  32  33
ATOM     33  C   UNL     1      36.875  29.716  51.307  0.00  0.00    +0.000 C 
ATOM     34  F   UNL     1      37.577  30.010  52.465  0.00  0.00    +0.000 F 
ATOM     35  F   UNL     1      35.618  29.211  51.584  0.00  0.00    +0.000 F 
ATOM     36  F   UNL     1      37.556  28.676  50.644  0.00  0.00    +0.000 F 
ENDBRANCH  32  33
ENDBRANCH  20  32
ENDBRANCH   2  20
TORSDOF 6
