
 OpenBabel03272502343D

 36 38  0  0  1  0  0  0  0  0999 V2000
   35.5430   29.9510   47.8970 C   0  0  0  0  0  3  0  0  0  0  0  0
   36.6890   30.4450   47.5540 C   0  0  0  0  0  3  0  0  0  0  0  0
   33.7550   29.6890   44.6390 C   0  0  0  0  0  0  0  0  0  0  0  0
   34.7240   29.9160   45.6030 C   0  0  0  0  0  0  0  0  0  0  0  0
   34.4930   29.6920   46.9380 C   0  0  0  0  0  0  0  0  0  0  0  0
   33.2760   29.2410   47.2710 N   0  0  0  0  0  0  0  0  0  0  0  0
   32.3320   29.0180   46.3580 C   0  0  0  0  0  0  0  0  0  0  0  0
   32.5510   29.2330   45.0500 N   0  0  0  0  0  0  0  0  0  0  0  0
   33.8980   29.8520   43.5810 H   0  0  0  0  0  0  0  0  0  0  0  0
   35.6430   30.2760   45.1650 H   0  0  0  0  0  0  0  0  0  0  0  0
   31.9740   26.4710   47.3900 F   0  0  0  0  0  0  0  0  0  0  0  0
   30.8680   27.2410   47.2720 C   0  0  0  0  0  0  0  0  0  0  0  0
   31.0150   28.5240   46.7570 C   0  0  0  0  0  0  0  0  0  0  0  0
   29.8770   29.3030   46.6400 C   0  0  0  0  0  0  0  0  0  0  0  0
   29.9850   30.3040   46.2390 H   0  0  0  0  0  0  0  0  0  0  0  0
   28.6690   28.7690   47.0360 C   0  0  0  0  0  0  0  0  0  0  0  0
   27.7610   29.3650   46.9530 H   0  0  0  0  0  0  0  0  0  0  0  0
   28.5070   27.5040   47.5460 C   0  0  0  0  0  3  0  0  0  0  0  0
   29.6460   26.7030   47.6720 C   0  0  0  0  0  3  0  0  0  0  0  0
   37.6980   30.6810   48.6390 C   0  0  1  0  0  0  0  0  0  0  0  0
   38.3150   29.7610   48.7900 H   0  0  0  0  0  0  0  0  0  0  0  0
   38.4940   31.8740   48.3180 C   0  0  0  0  0  0  0  0  0  0  0  0
   38.5700   32.7960   49.3970 C   0  0  0  0  0  0  0  0  0  0  0  0
   39.2590   33.9840   49.3360 C   0  0  0  0  0  0  0  0  0  0  0  0
   39.9430   34.3530   48.1650 C   0  0  0  0  0  0  0  0  0  0  0  0
   39.8190   33.4000   47.1640 C   0  0  0  0  0  0  0  0  0  0  0  0
   39.1530   32.2340   47.1980 N   0  0  0  0  0  0  0  0  0  0  0  0
   38.1280   32.7390   50.4050 H   0  0  0  0  0  0  0  0  0  0  0  0
   39.3550   34.7250   50.1140 H   0  0  0  0  0  0  0  0  0  0  0  0
   40.5170   35.2080   47.9320 H   0  0  0  0  0  0  0  0  0  0  0  0
   40.2950   33.5420   46.1910 H   0  0  0  0  0  0  0  0  0  0  0  0
   36.7730   31.0760   50.1620 S   0  0  0  0  0  0  0  0  0  0  0  0
   36.8440   29.7250   51.3240 C   0  0  0  0  0  0  0  0  0  0  0  0
   37.5240   30.0400   52.4900 F   0  0  0  0  0  0  0  0  0  0  0  0
   35.5880   29.2100   51.5860 F   0  0  0  0  0  0  0  0  0  0  0  0
   37.5470   28.6840   50.6840 F   0  0  0  0  0  0  0  0  0  0  0  0
  2  1  2  0  0  0  0
  2 20  1  0  0  0  0
  3  8  2  0  0  0  0
  3  4  1  0  0  0  0
  4  5  2  0  0  0  0
  5  6  1  0  0  0  0
  5  1  1  0  0  0  0
  7 13  1  0  0  0  0
  7  6  2  0  0  0  0
  8  7  1  0  0  0  0
  9  3  1  0  0  0  0
 10  4  1  0  0  0  0
 12 11  1  0  0  0  0
 12 19  1  0  0  0  0
 13 12  2  0  0  0  0
 14 13  1  0  0  0  0
 14 16  2  0  0  0  0
 15 14  1  0  0  0  0
 16 18  1  0  0  0  0
 17 16  1  0  0  0  0
 18 19  2  0  0  0  0
 20 21  1  1  0  0  0
 20 32  1  0  0  0  0
 22 20  1  0  0  0  0
 22 23  1  0  0  0  0
 23 28  1  0  0  0  0
 24 23  2  0  0  0  0
 24 29  1  0  0  0  0
 25 24  1  0  0  0  0
 26 27  1  0  0  0  0
 26 25  2  0  0  0  0
 27 22  2  0  0  0  0
 30 25  1  0  0  0  0
 31 26  1  0  0  0  0
 32 33  1  0  0  0  0
 33 35  1  0  0  0  0
 33 34  1  0  0  0  0
 36 33  1  0  0  0  0
M  END
>  <minimizedAffinity>
-6.61279154

>  <minimizedRMSD>
0.586020589

$$$$
