
 OpenBabel03272502343D

 36 38  0  0  1  0  0  0  0  0999 V2000
   35.5840   29.9560   47.9600 C   0  0  0  0  0  3  0  0  0  0  0  0
   36.7290   30.4320   47.5930 C   0  0  0  0  0  3  0  0  0  0  0  0
   33.7450   29.6630   44.7330 C   0  0  0  0  0  0  0  0  0  0  0  0
   34.7270   29.9070   45.6810 C   0  0  0  0  0  0  0  0  0  0  0  0
   34.5220   29.6790   47.0200 C   0  0  0  0  0  0  0  0  0  0  0  0
   33.3180   29.2080   47.3740 N   0  0  0  0  0  0  0  0  0  0  0  0
   32.3630   28.9690   46.4770 C   0  0  0  0  0  0  0  0  0  0  0  0
   32.5560   29.1880   45.1650 N   0  0  0  0  0  0  0  0  0  0  0  0
   33.8680   29.8290   43.6730 H   0  0  0  0  0  0  0  0  0  0  0  0
   35.6320   30.2820   45.2270 H   0  0  0  0  0  0  0  0  0  0  0  0
   30.0110   30.3350   45.9530 F   0  0  0  0  0  0  0  0  0  0  0  0
   29.8990   29.1650   46.6200 C   0  0  0  0  0  0  0  0  0  0  0  0
   31.0610   28.4540   46.8980 C   0  0  0  0  0  0  0  0  0  0  0  0
   30.9350   27.2570   47.5810 C   0  0  0  0  0  0  0  0  0  0  0  0
   31.8380   26.6990   47.8010 H   0  0  0  0  0  0  0  0  0  0  0  0
   29.6730   26.8370   47.9450 C   0  0  0  0  0  0  0  0  0  0  0  0
   29.5510   25.8970   48.4840 H   0  0  0  0  0  0  0  0  0  0  0  0
   28.5160   27.5260   47.6780 C   0  0  0  0  0  3  0  0  0  0  0  0
   28.6240   28.7370   46.9900 C   0  0  0  0  0  3  0  0  0  0  0  0
   37.7520   30.6890   48.6610 C   0  0  1  0  0  0  0  0  0  0  0  0
   38.3800   29.7770   48.8120 H   0  0  0  0  0  0  0  0  0  0  0  0
   38.5310   31.8860   48.3160 C   0  0  0  0  0  0  0  0  0  0  0  0
   38.6100   32.8230   49.3830 C   0  0  0  0  0  0  0  0  0  0  0  0
   39.2850   34.0170   49.3000 C   0  0  0  0  0  0  0  0  0  0  0  0
   39.9520   34.3790   48.1170 C   0  0  0  0  0  0  0  0  0  0  0  0
   39.8260   33.4120   47.1280 C   0  0  0  0  0  0  0  0  0  0  0  0
   39.1730   32.2400   47.1840 N   0  0  0  0  0  0  0  0  0  0  0  0
   38.1800   32.7730   50.3970 H   0  0  0  0  0  0  0  0  0  0  0  0
   39.3830   34.7680   50.0680 H   0  0  0  0  0  0  0  0  0  0  0  0
   40.5130   35.2370   47.8660 H   0  0  0  0  0  0  0  0  0  0  0  0
   40.2890   33.5480   46.1480 H   0  0  0  0  0  0  0  0  0  0  0  0
   36.8450   31.0900   50.1930 S   0  0  0  0  0  0  0  0  0  0  0  0
   36.8920   29.7270   51.3410 C   0  0  0  0  0  0  0  0  0  0  0  0
   37.5660   30.0230   52.5150 F   0  0  0  0  0  0  0  0  0  0  0  0
   35.6280   29.2240   51.5890 F   0  0  0  0  0  0  0  0  0  0  0  0
   37.5870   28.6850   50.6970 F   0  0  0  0  0  0  0  0  0  0  0  0
  2  1  2  0  0  0  0
  2 20  1  0  0  0  0
  3  8  2  0  0  0  0
  3  4  1  0  0  0  0
  4  5  2  0  0  0  0
  5  6  1  0  0  0  0
  5  1  1  0  0  0  0
  7 13  1  0  0  0  0
  7  6  2  0  0  0  0
  8  7  1  0  0  0  0
  9  3  1  0  0  0  0
 10  4  1  0  0  0  0
 11 12  1  0  0  0  0
 12 13  2  0  0  0  0
 12 19  1  0  0  0  0
 13 14  1  0  0  0  0
 14 15  1  0  0  0  0
 14 16  2  0  0  0  0
 16 17  1  0  0  0  0
 18 16  1  0  0  0  0
 19 18  2  0  0  0  0
 20 21  1  1  0  0  0
 20 32  1  0  0  0  0
 22 20  1  0  0  0  0
 22 23  1  0  0  0  0
 23 28  1  0  0  0  0
 24 23  2  0  0  0  0
 24 29  1  0  0  0  0
 25 24  1  0  0  0  0
 26 27  1  0  0  0  0
 26 25  2  0  0  0  0
 27 22  2  0  0  0  0
 30 25  1  0  0  0  0
 31 26  1  0  0  0  0
 32 33  1  0  0  0  0
 33 35  1  0  0  0  0
 33 34  1  0  0  0  0
 36 33  1  0  0  0  0
M  END
>  <minimizedAffinity>
-6.68956995

>  <minimizedRMSD>
0.345606506

$$$$
