
 OpenBabel03272502343D

 36 38  0  0  1  0  0  0  0  0999 V2000
   35.5690   29.9410   47.9560 C   0  0  0  0  0  3  0  0  0  0  0  0
   36.6980   30.4560   47.5900 C   0  0  0  0  0  3  0  0  0  0  0  0
   33.7190   29.6390   44.7350 C   0  0  0  0  0  0  0  0  0  0  0  0
   34.7090   29.8710   45.6770 C   0  0  0  0  0  0  0  0  0  0  0  0
   34.4980   29.6780   47.0210 C   0  0  0  0  0  0  0  0  0  0  0  0
   33.2810   29.2520   47.3840 N   0  0  0  0  0  0  0  0  0  0  0  0
   32.3180   29.0240   46.4930 C   0  0  0  0  0  0  0  0  0  0  0  0
   32.5170   29.2100   45.1770 N   0  0  0  0  0  0  0  0  0  0  0  0
   33.8460   29.7790   43.6720 H   0  0  0  0  0  0  0  0  0  0  0  0
   35.6250   30.2090   45.2160 H   0  0  0  0  0  0  0  0  0  0  0  0
   32.0040   26.7370   48.0260 F   0  0  0  0  0  0  0  0  0  0  0  0
   30.8770   27.4060   47.6930 C   0  0  0  0  0  0  0  0  0  0  0  0
   31.0010   28.5590   46.9250 C   0  0  0  0  0  0  0  0  0  0  0  0
   29.8410   29.2350   46.5900 C   0  0  0  0  0  0  0  0  0  0  0  0
   29.9310   30.1340   45.9910 H   0  0  0  0  0  0  0  0  0  0  0  0
   28.6350   28.7350   47.0340 C   0  0  0  0  0  0  0  0  0  0  0  0
   27.7090   29.2520   46.7830 H   0  0  0  0  0  0  0  0  0  0  0  0
   28.4950   27.5990   47.7930 C   0  0  0  0  0  3  0  0  0  0  0  0
   29.6570   26.9030   48.1410 C   0  0  0  0  0  3  0  0  0  0  0  0
   37.7320   30.6930   48.6510 C   0  0  1  0  0  0  0  0  0  0  0  0
   38.3510   29.7730   48.7900 H   0  0  0  0  0  0  0  0  0  0  0  0
   38.5200   31.8850   48.3110 C   0  0  0  0  0  0  0  0  0  0  0  0
   38.6010   32.8200   49.3780 C   0  0  0  0  0  0  0  0  0  0  0  0
   39.2850   34.0100   49.2980 C   0  0  0  0  0  0  0  0  0  0  0  0
   39.9590   34.3680   48.1180 C   0  0  0  0  0  0  0  0  0  0  0  0
   39.8310   33.4030   47.1280 C   0  0  0  0  0  0  0  0  0  0  0  0
   39.1690   32.2350   47.1810 N   0  0  0  0  0  0  0  0  0  0  0  0
   38.1670   32.7730   50.3900 H   0  0  0  0  0  0  0  0  0  0  0  0
   39.3850   34.7600   50.0670 H   0  0  0  0  0  0  0  0  0  0  0  0
   40.5280   35.2220   47.8700 H   0  0  0  0  0  0  0  0  0  0  0  0
   40.2990   33.5360   46.1500 H   0  0  0  0  0  0  0  0  0  0  0  0
   36.8410   31.0910   50.1940 S   0  0  0  0  0  0  0  0  0  0  0  0
   36.8930   29.7220   51.3350 C   0  0  0  0  0  0  0  0  0  0  0  0
   37.5730   30.0110   52.5070 F   0  0  0  0  0  0  0  0  0  0  0  0
   35.6300   29.2190   51.5870 F   0  0  0  0  0  0  0  0  0  0  0  0
   37.5840   28.6830   50.6820 F   0  0  0  0  0  0  0  0  0  0  0  0
  2  1  2  0  0  0  0
  2 20  1  0  0  0  0
  3  8  2  0  0  0  0
  3  4  1  0  0  0  0
  4  5  2  0  0  0  0
  5  6  1  0  0  0  0
  5  1  1  0  0  0  0
  7 13  1  0  0  0  0
  7  6  2  0  0  0  0
  8  7  1  0  0  0  0
  9  3  1  0  0  0  0
 10  4  1  0  0  0  0
 12 11  1  0  0  0  0
 12 19  1  0  0  0  0
 13 12  2  0  0  0  0
 14 13  1  0  0  0  0
 14 16  2  0  0  0  0
 15 14  1  0  0  0  0
 16 18  1  0  0  0  0
 17 16  1  0  0  0  0
 18 19  2  0  0  0  0
 20 21  1  1  0  0  0
 20 32  1  0  0  0  0
 22 20  1  0  0  0  0
 22 23  1  0  0  0  0
 23 28  1  0  0  0  0
 24 23  2  0  0  0  0
 24 29  1  0  0  0  0
 25 24  1  0  0  0  0
 26 27  1  0  0  0  0
 26 25  2  0  0  0  0
 27 22  2  0  0  0  0
 30 25  1  0  0  0  0
 31 26  1  0  0  0  0
 32 33  1  0  0  0  0
 33 35  1  0  0  0  0
 33 34  1  0  0  0  0
 36 33  1  0  0  0  0
M  END
>  <minimizedAffinity>
-6.73520231

>  <minimizedRMSD>
0.878659308

$$$$
