REMARK  Name = 
REMARK  6 active torsions:
REMARK  status: ('A' for Active; 'I' for Inactive)
REMARK    1  A    between atoms: C_1  and  O_6
REMARK    2  A    between atoms: C_2  and  S_7
REMARK    3  A    between atoms: C_5  and  O_14
REMARK    4  A    between atoms: S_7  and  C_12
REMARK    5  A    between atoms: O_14  and  C_17
REMARK    6  A    between atoms: C_21  and  C_36
REMARK                            x       y       z     vdW  Elec       q    Type
REMARK                         _______ _______ _______ _____ _____    ______ ____
ROOT
ATOM      1  C   UNL     1      32.166  28.522  47.427  0.00  0.00    +0.000 C 
ATOM      2  C   UNL     1      33.407  28.363  48.254  0.00  0.00    +0.000 C 
ATOM      3  O   UNL     1      33.805  27.064  48.169  0.00  0.00    +0.000 OA
ATOM      4  C   UNL     1      33.108  26.436  47.141  0.00  0.00    +0.000 C 
ATOM      5  C   UNL     1      32.509  27.521  46.277  0.00  0.00    +0.000 C 
ATOM      6  H   UNL     1      31.248  28.180  47.894  0.00  0.00    +0.000 HD
ATOM      7  H   UNL     1      33.256  28.728  49.289  0.00  0.00    +0.000 HD
ATOM      8  H   UNL     1      32.402  25.765  47.615  0.00  0.00    +0.000 HD
ATOM      9  H   UNL     1      33.870  25.853  46.535  0.00  0.00    +0.000 HD
ATOM     10  H   UNL     1      33.239  28.026  45.650  0.00  0.00    +0.000 HD
ENDROOT
BRANCH   1  11
ATOM     11  O   UNL     1      32.092  29.825  46.891  0.00  0.00    +0.000 OA
ATOM     12  H   UNL     1      32.704  29.815  46.106  0.00  0.00    +0.000 HD
ENDBRANCH   1  11
BRANCH   2  13
ATOM     13  S   UNL     1      34.714  29.413  47.501  0.00  0.00    +0.000 S 
BRANCH  13  18
ATOM     14  C   UNL     1      37.140  29.289  50.631  0.00  0.00    +0.000 A 
ATOM     15  C   UNL     1      37.637  30.587  50.752  0.00  0.00    +0.000 A 
ATOM     16  C   UNL     1      37.205  31.545  49.826  0.00  0.00    +0.000 A 
ATOM     17  N   UNL     1      36.326  31.161  48.861  0.00  0.00    +0.000 NA
ATOM     18  C   UNL     1      35.870  29.890  48.782  0.00  0.00    +0.000 A 
ATOM     19  N   UNL     1      36.266  28.941  49.659  0.00  0.00    +0.000 NA
ATOM     20  H   UNL     1      37.490  28.572  51.358  0.00  0.00    +0.000 HD
ATOM     21  H   UNL     1      38.337  30.883  51.524  0.00  0.00    +0.000 HD
ATOM     22  H   UNL     1      37.543  32.566  49.854  0.00  0.00    +0.000 HD
ENDBRANCH  13  18
ENDBRANCH   2  13
BRANCH   5  23
ATOM     23  O   UNL     1      31.366  27.040  45.689  0.00  0.00    +0.000 OA
BRANCH  23  26
ATOM     24 CL   UNL     1      29.886  29.116  44.212  0.00  0.00    +0.000 Cl
ATOM     25  C   UNL     1      29.339  28.125  45.543  0.00  0.00    +0.000 A 
ATOM     26  C   UNL     1      30.125  27.172  46.149  0.00  0.00    +0.000 A 
ATOM     27  C   UNL     1      29.565  26.424  47.188  0.00  0.00    +0.000 A 
ATOM     28  C   UNL     1      28.265  26.640  47.588  0.00  0.00    +0.000 A 
ATOM     29  C   UNL     1      27.465  27.596  46.985  0.00  0.00    +0.000 A 
ATOM     30  C   UNL     1      28.016  28.337  45.957  0.00  0.00    +0.000 A 
ATOM     31  H   UNL     1      30.093  25.654  47.722  0.00  0.00    +0.000 HD
ATOM     32  H   UNL     1      27.779  26.095  48.382  0.00  0.00    +0.000 HD
ATOM     33  H   UNL     1      26.454  27.771  47.288  0.00  0.00    +0.000 HD
BRANCH  30  36
ATOM     34  F   UNL     1      28.229  31.132  46.334  0.00  0.00    +0.000 F 
ATOM     35  C   UNL     1      27.267  30.715  45.478  0.00  0.00    +0.000 A 
ATOM     36  C   UNL     1      27.186  29.347  45.314  0.00  0.00    +0.000 A 
ATOM     37  C   UNL     1      26.231  28.825  44.458  0.00  0.00    +0.000 A 
ATOM     38  H   UNL     1      26.097  27.769  44.269  0.00  0.00    +0.000 HD
ATOM     39  C   UNL     1      25.346  29.640  43.754  0.00  0.00    +0.000 A 
ATOM     40  H   UNL     1      24.589  29.250  43.076  0.00  0.00    +0.000 HD
ATOM     41  C   UNL     1      25.459  31.004  43.946  0.00  0.00    +0.000 A 
ATOM     42  C   UNL     1      26.407  31.556  44.798  0.00  0.00    +0.000 A 
ENDBRANCH  30  36
ENDBRANCH  23  26
ENDBRANCH   5  23
TORSDOF 6
