
 OpenBabel03272506473D

 42 45  0  0  1  0  0  0  0  0999 V2000
   31.9920   28.3650   47.4950 C   0  0  2  0  0  0  0  0  0  0  0  0
   33.2510   28.1580   48.2830 C   0  0  1  0  0  0  0  0  0  0  0  0
   33.6010   26.8470   48.1780 O   0  0  0  0  0  0  0  0  0  0  0  0
   32.8530   26.2500   47.1670 C   0  0  0  0  0  0  0  0  0  0  0  0
   32.2660   27.3610   46.3290 C   0  0  1  0  0  0  0  0  0  0  0  0
   31.0770   28.0510   47.9870 H   0  0  0  0  0  0  0  0  0  0  0  0
   33.1430   28.5200   49.3240 H   0  0  0  0  0  0  0  0  0  0  0  0
   32.1390   25.6000   47.6580 H   0  0  0  0  0  0  0  0  0  0  0  0
   33.5760   25.6460   46.5350 H   0  0  0  0  0  0  0  0  0  0  0  0
   32.9940   27.8460   45.6830 H   0  0  0  0  0  0  0  0  0  0  0  0
   31.9460   29.6730   46.9690 O   0  0  0  0  0  0  0  0  0  0  0  0
   32.5340   29.6480   46.1660 H   0  0  0  0  0  0  0  0  0  0  0  0
   34.5700   29.1680   47.4970 S   0  0  0  0  0  0  0  0  0  0  0  0
   36.9890   29.2480   50.6340 C   0  0  0  0  0  0  0  0  0  0  0  0
   37.3980   30.5770   50.7390 C   0  0  0  0  0  0  0  0  0  0  0  0
   36.9060   31.4920   49.7990 C   0  0  0  0  0  0  0  0  0  0  0  0
   36.0580   31.0380   48.8370 N   0  0  0  0  0  0  0  0  0  0  0  0
   35.6870   29.7380   48.7740 C   0  0  0  0  0  0  0  0  0  0  0  0
   36.1430   28.8290   49.6650 N   0  0  0  0  0  0  0  0  0  0  0  0
   37.3840   28.5650   51.3710 H   0  0  0  0  0  0  0  0  0  0  0  0
   38.0750   30.9290   51.5080 H   0  0  0  0  0  0  0  0  0  0  0  0
   37.1750   32.5340   49.8140 H   0  0  0  0  0  0  0  0  0  0  0  0
   31.0900   26.9230   45.7720 O   0  0  0  0  0  0  0  0  0  0  0  0
   29.9320   29.1850   44.2810 Cl  0  0  0  0  0  0  0  0  0  0  0  0
   29.2220   28.2580   45.5810 C   0  0  0  0  0  0  0  0  0  0  0  0
   29.8620   27.2060   46.1960 C   0  0  0  0  0  0  0  0  0  0  0  0
   29.1790   26.5240   47.2070 C   0  0  0  0  0  0  0  0  0  0  0  0
   27.9040   26.8990   47.5700 C   0  0  0  0  0  0  0  0  0  0  0  0
   27.2510   27.9550   46.9570 C   0  0  0  0  0  0  0  0  0  0  0  0
   27.9240   28.6310   45.9570 C   0  0  0  0  0  0  0  0  0  0  0  0
   29.5880   25.6880   47.7450 H   0  0  0  0  0  0  0  0  0  0  0  0
   27.3280   26.4120   48.3410 H   0  0  0  0  0  0  0  0  0  0  0  0
   26.2610   28.2530   47.2320 H   0  0  0  0  0  0  0  0  0  0  0  0
   26.6270   28.5290   43.4460 F   0  0  0  0  0  0  0  0  0  0  0  0
   26.6090   29.7240   44.0820 C   0  0  0  0  0  0  0  0  0  0  0  0
   27.2490   29.7450   45.3040 C   0  0  0  0  0  0  0  0  0  0  0  0
   27.2830   30.9230   46.0290 C   0  0  0  0  0  0  0  0  0  0  0  0
   27.7600   31.0310   46.9920 H   0  0  0  0  0  0  0  0  0  0  0  0
   26.6880   32.0940   45.5610 C   0  0  0  0  0  0  0  0  0  0  0  0
   26.7030   33.0320   46.1160 H   0  0  0  0  0  0  0  0  0  0  0  0
   26.0570   32.0320   44.3330 C   0  0  0  0  0  3  0  0  0  0  0  0
   26.0080   30.8650   43.5840 C   0  0  0  0  0  3  0  0  0  0  0  0
  1  6  1  1  0  0  0
  1  2  1  0  0  0  0
  2  7  1  1  0  0  0
  3  2  1  0  0  0  0
  4  8  1  0  0  0  0
  4  3  1  0  0  0  0
  5 10  1  6  0  0  0
  5  4  1  0  0  0  0
  5  1  1  0  0  0  0
  9  4  1  0  0  0  0
 11  1  1  0  0  0  0
 12 11  1  0  0  0  0
 13  2  1  0  0  0  0
 13 18  1  0  0  0  0
 14 15  1  0  0  0  0
 14 20  1  0  0  0  0
 15 21  1  0  0  0  0
 16 22  1  0  0  0  0
 16 15  2  0  0  0  0
 17 16  1  0  0  0  0
 18 17  2  0  0  0  0
 18 19  1  0  0  0  0
 19 14  2  0  0  0  0
 23 26  1  0  0  0  0
 23  5  1  0  0  0  0
 24 25  1  0  0  0  0
 25 30  2  0  0  0  0
 25 26  1  0  0  0  0
 26 27  2  0  0  0  0
 27 28  1  0  0  0  0
 27 31  1  0  0  0  0
 28 32  1  0  0  0  0
 29 33  1  0  0  0  0
 29 28  2  0  0  0  0
 30 29  1  0  0  0  0
 34 35  1  0  0  0  0
 35 36  1  0  0  0  0
 36 30  1  0  0  0  0
 36 37  2  0  0  0  0
 37 38  1  0  0  0  0
 39 37  1  0  0  0  0
 39 40  1  0  0  0  0
 41 39  2  0  0  0  0
 42 35  2  0  0  0  0
 42 41  1  0  0  0  0
M  END
>  <minimizedAffinity>
-5.52125645

>  <minimizedRMSD>
0.374007642

$$$$
