
 OpenBabel03272506493D

 42 45  0  0  1  0  0  0  0  0999 V2000
   36.9640   25.4360   30.7860 C   0  0  2  0  0  0  0  0  0  0  0  0
   37.1110   23.9530   30.9560 C   0  0  1  0  0  0  0  0  0  0  0  0
   38.0470   23.7310   31.9190 O   0  0  0  0  0  0  0  0  0  0  0  0
   38.3100   24.9230   32.5870 C   0  0  0  0  0  0  0  0  0  0  0  0
   37.1800   25.8740   32.2700 C   0  0  1  0  0  0  0  0  0  0  0  0
   37.7330   25.9150   30.1890 H   0  0  0  0  0  0  0  0  0  0  0  0
   37.3210   23.4510   29.9900 H   0  0  0  0  0  0  0  0  0  0  0  0
   39.2970   25.2390   32.2730 H   0  0  0  0  0  0  0  0  0  0  0  0
   38.3000   24.6870   33.6970 H   0  0  0  0  0  0  0  0  0  0  0  0
   36.2560   25.6340   32.7890 H   0  0  0  0  0  0  0  0  0  0  0  0
   35.6460   25.7610   30.4010 O   0  0  0  0  0  0  0  0  0  0  0  0
   35.1170   25.7300   31.2430 H   0  0  0  0  0  0  0  0  0  0  0  0
   35.5020   23.3010   31.5590 S   0  0  0  0  0  0  0  0  0  0  0  0
   35.4690   19.7100   33.2340 C   0  0  0  0  0  0  0  0  0  0  0  0
   35.8940   18.8410   32.2280 C   0  0  0  0  0  0  0  0  0  0  0  0
   36.2040   19.3860   30.9760 C   0  0  0  0  0  0  0  0  0  0  0  0
   36.0760   20.7300   30.8070 N   0  0  0  0  0  0  0  0  0  0  0  0
   35.6610   21.5360   31.8110 C   0  0  0  0  0  0  0  0  0  0  0  0
   35.3540   21.0430   33.0310 N   0  0  0  0  0  0  0  0  0  0  0  0
   35.2370   19.2620   34.1880 H   0  0  0  0  0  0  0  0  0  0  0  0
   35.9920   17.7720   32.3730 H   0  0  0  0  0  0  0  0  0  0  0  0
   36.5370   18.7810   30.1510 H   0  0  0  0  0  0  0  0  0  0  0  0
   37.6510   27.1610   32.3380 O   0  0  0  0  0  0  0  0  0  0  0  0
   36.5310   28.0760   34.9050 Cl  0  0  0  0  0  0  0  0  0  0  0  0
   36.3500   28.7890   33.3200 C   0  0  0  0  0  0  0  0  0  0  0  0
   36.9360   28.2730   32.1870 C   0  0  0  0  0  0  0  0  0  0  0  0
   36.7390   28.9490   30.9800 C   0  0  0  0  0  0  0  0  0  0  0  0
   35.9790   30.0970   30.9340 C   0  0  0  0  0  0  0  0  0  0  0  0
   35.3850   30.6250   32.0670 C   0  0  0  0  0  0  0  0  0  0  0  0
   35.5790   29.9590   33.2630 C   0  0  0  0  0  0  0  0  0  0  0  0
   37.1560   28.6310   30.0420 H   0  0  0  0  0  0  0  0  0  0  0  0
   35.7920   30.6610   30.0340 H   0  0  0  0  0  0  0  0  0  0  0  0
   34.7940   31.5170   32.0420 H   0  0  0  0  0  0  0  0  0  0  0  0
   32.9610   29.3920   34.1690 F   0  0  0  0  0  0  0  0  0  0  0  0
   33.6860   30.2460   34.9300 C   0  0  0  0  0  0  0  0  0  0  0  0
   34.9590   30.5040   34.4630 C   0  0  0  0  0  0  0  0  0  0  0  0
   35.7770   31.3660   35.1730 C   0  0  0  0  0  0  0  0  0  0  0  0
   36.7850   31.6240   34.8830 H   0  0  0  0  0  0  0  0  0  0  0  0
   35.3530   31.9830   36.3490 C   0  0  0  0  0  0  0  0  0  0  0  0
   35.9810   32.6640   36.9240 H   0  0  0  0  0  0  0  0  0  0  0  0
   34.0720   31.6990   36.7830 C   0  0  0  0  0  3  0  0  0  0  0  0
   33.2290   30.8380   36.0910 C   0  0  0  0  0  3  0  0  0  0  0  0
  1  6  1  6  0  0  0
  1  2  1  0  0  0  0
  1  5  1  0  0  0  0
  2  7  1  6  0  0  0
  2 13  1  0  0  0  0
  2  3  1  0  0  0  0
  3  4  1  0  0  0  0
  4  9  1  0  0  0  0
  5 23  1  0  0  0  0
  5  4  1  0  0  0  0
  5 10  1  1  0  0  0
  8  4  1  0  0  0  0
 11  1  1  0  0  0  0
 11 12  1  0  0  0  0
 13 18  1  0  0  0  0
 14 20  1  0  0  0  0
 15 21  1  0  0  0  0
 15 14  2  0  0  0  0
 16 15  1  0  0  0  0
 17 16  2  0  0  0  0
 17 18  1  0  0  0  0
 18 19  2  0  0  0  0
 19 14  1  0  0  0  0
 22 16  1  0  0  0  0
 25 24  1  0  0  0  0
 26 23  1  0  0  0  0
 26 25  2  0  0  0  0
 27 26  1  0  0  0  0
 28 27  2  0  0  0  0
 28 29  1  0  0  0  0
 29 30  2  0  0  0  0
 30 25  1  0  0  0  0
 30 36  1  0  0  0  0
 31 27  1  0  0  0  0
 32 28  1  0  0  0  0
 33 29  1  0  0  0  0
 34 35  1  0  0  0  0
 35 42  1  0  0  0  0
 36 35  2  0  0  0  0
 36 37  1  0  0  0  0
 37 39  2  0  0  0  0
 38 37  1  0  0  0  0
 39 41  1  0  0  0  0
 39 40  1  0  0  0  0
 42 41  2  0  0  0  0
M  END
>  <minimizedAffinity>
-6.40786886

$$$$

 OpenBabel03272506493D

 42 45  0  0  1  0  0  0  0  0999 V2000
   37.3650   25.3780   31.3020 C   0  0  2  0  0  0  0  0  0  0  0  0
   37.4040   23.9650   31.8030 C   0  0  1  0  0  0  0  0  0  0  0  0
   37.8230   23.9900   33.0980 O   0  0  0  0  0  0  0  0  0  0  0  0
   37.7830   25.2990   33.5690 C   0  0  0  0  0  0  0  0  0  0  0  0
   36.9170   26.0920   32.6180 C   0  0  1  0  0  0  0  0  0  0  0  0
   38.3230   25.7970   31.0140 H   0  0  0  0  0  0  0  0  0  0  0  0
   38.0070   23.3150   31.1400 H   0  0  0  0  0  0  0  0  0  0  0  0
   38.8130   25.6250   33.6550 H   0  0  0  0  0  0  0  0  0  0  0  0
   37.2870   25.2670   34.5890 H   0  0  0  0  0  0  0  0  0  0  0  0
   35.8560   25.8830   32.7250 H   0  0  0  0  0  0  0  0  0  0  0  0
   36.3510   25.5320   30.3330 O   0  0  0  0  0  0  0  0  0  0  0  0
   35.5070   25.6140   30.8540 H   0  0  0  0  0  0  0  0  0  0  0  0
   35.6840   23.3170   31.7700 S   0  0  0  0  0  0  0  0  0  0  0  0
   36.2140   19.4800   30.9370 C   0  0  0  0  0  0  0  0  0  0  0  0
   35.8500   18.8050   32.1030 C   0  0  0  0  0  0  0  0  0  0  0  0
   35.4210   19.5680   33.1970 C   0  0  0  0  0  0  0  0  0  0  0  0
   35.3830   20.9220   33.0650 N   0  0  0  0  0  0  0  0  0  0  0  0
   35.7450   21.5330   31.9140 C   0  0  0  0  0  0  0  0  0  0  0  0
   36.1630   20.8280   30.8400 N   0  0  0  0  0  0  0  0  0  0  0  0
   36.5400   18.8670   30.1110 H   0  0  0  0  0  0  0  0  0  0  0  0
   35.8840   17.7270   32.1980 H   0  0  0  0  0  0  0  0  0  0  0  0
   35.1240   19.1210   34.1290 H   0  0  0  0  0  0  0  0  0  0  0  0
   37.3280   27.4010   32.6300 O   0  0  0  0  0  0  0  0  0  0  0  0
   36.4720   28.4070   35.2640 Cl  0  0  0  0  0  0  0  0  0  0  0  0
   36.0770   29.0270   33.6790 C   0  0  0  0  0  0  0  0  0  0  0  0
   36.5510   28.4740   32.5110 C   0  0  0  0  0  0  0  0  0  0  0  0
   36.1860   29.0770   31.3050 C   0  0  0  0  0  0  0  0  0  0  0  0
   35.3750   30.1900   31.2920 C   0  0  0  0  0  0  0  0  0  0  0  0
   34.8920   30.7550   32.4610 C   0  0  0  0  0  0  0  0  0  0  0  0
   35.2530   30.1610   33.6560 C   0  0  0  0  0  0  0  0  0  0  0  0
   36.5060   28.7250   30.3400 H   0  0  0  0  0  0  0  0  0  0  0  0
   35.0590   30.6980   30.3940 H   0  0  0  0  0  0  0  0  0  0  0  0
   34.2620   31.6190   32.4620 H   0  0  0  0  0  0  0  0  0  0  0  0
   36.6700   31.9470   35.3290 F   0  0  0  0  0  0  0  0  0  0  0  0
   35.4190   31.6160   35.7290 C   0  0  0  0  0  0  0  0  0  0  0  0
   34.7520   30.7440   34.8930 C   0  0  0  0  0  0  0  0  0  0  0  0
   33.4660   30.3470   35.2190 C   0  0  0  0  0  0  0  0  0  0  0  0
   32.8710   29.6690   34.6240 H   0  0  0  0  0  0  0  0  0  0  0  0
   32.8230   30.8030   36.3680 C   0  0  0  0  0  0  0  0  0  0  0  0
   31.8110   30.5040   36.6420 H   0  0  0  0  0  0  0  0  0  0  0  0
   33.5240   31.6750   37.1790 C   0  0  0  0  0  3  0  0  0  0  0  0
   34.8150   32.0910   36.8770 C   0  0  0  0  0  3  0  0  0  0  0  0
  1  6  1  6  0  0  0
  1  2  1  0  0  0  0
  1  5  1  0  0  0  0
  2  7  1  6  0  0  0
  2  3  1  0  0  0  0
  3  4  1  0  0  0  0
  4  8  1  0  0  0  0
  4  9  1  0  0  0  0
  5 23  1  0  0  0  0
  5 10  1  1  0  0  0
  5  4  1  0  0  0  0
 11 12  1  0  0  0  0
 11  1  1  0  0  0  0
 13  2  1  0  0  0  0
 13 18  1  0  0  0  0
 14 15  1  0  0  0  0
 15 21  1  0  0  0  0
 15 16  2  0  0  0  0
 16 22  1  0  0  0  0
 17 16  1  0  0  0  0
 18 17  2  0  0  0  0
 19 14  2  0  0  0  0
 19 18  1  0  0  0  0
 20 14  1  0  0  0  0
 25 24  1  0  0  0  0
 26 23  1  0  0  0  0
 26 25  2  0  0  0  0
 27 26  1  0  0  0  0
 28 27  2  0  0  0  0
 28 29  1  0  0  0  0
 29 33  1  0  0  0  0
 29 30  2  0  0  0  0
 30 25  1  0  0  0  0
 30 36  1  0  0  0  0
 31 27  1  0  0  0  0
 32 28  1  0  0  0  0
 34 35  1  0  0  0  0
 35 42  1  0  0  0  0
 36 37  1  0  0  0  0
 36 35  2  0  0  0  0
 37 39  2  0  0  0  0
 38 37  1  0  0  0  0
 39 40  1  0  0  0  0
 39 41  1  0  0  0  0
 42 41  2  0  0  0  0
M  END
>  <minimizedAffinity>
-6.23673582

$$$$

 OpenBabel03272506493D

 42 45  0  0  1  0  0  0  0  0999 V2000
   37.0610   28.0860   32.9070 C   0  0  2  0  0  0  0  0  0  0  0  0
   36.1790   29.1430   32.3100 C   0  0  1  0  0  0  0  0  0  0  0  0
   35.9830   28.8350   30.9980 O   0  0  0  0  0  0  0  0  0  0  0  0
   36.4160   27.5330   30.7620 C   0  0  0  0  0  0  0  0  0  0  0  0
   36.5390   26.8510   32.1040 C   0  0  1  0  0  0  0  0  0  0  0  0
   38.1200   28.1890   32.6940 H   0  0  0  0  0  0  0  0  0  0  0  0
   36.5850   30.1590   32.4850 H   0  0  0  0  0  0  0  0  0  0  0  0
   37.3300   27.6140   30.1870 H   0  0  0  0  0  0  0  0  0  0  0  0
   35.6040   27.0220   30.1550 H   0  0  0  0  0  0  0  0  0  0  0  0
   35.5810   26.5920   32.5470 H   0  0  0  0  0  0  0  0  0  0  0  0
   36.7600   27.9040   34.2730 O   0  0  0  0  0  0  0  0  0  0  0  0
   35.9440   27.3340   34.2820 H   0  0  0  0  0  0  0  0  0  0  0  0
   34.5560   29.0600   33.1670 S   0  0  0  0  0  0  0  0  0  0  0  0
   33.4240   31.3350   36.2060 C   0  0  0  0  0  0  0  0  0  0  0  0
   34.6040   31.8990   36.6920 C   0  0  0  0  0  0  0  0  0  0  0  0
   35.8050   31.5620   36.0540 C   0  0  0  0  0  0  0  0  0  0  0  0
   35.7570   30.7060   34.9970 N   0  0  0  0  0  0  0  0  0  0  0  0
   34.5880   30.1840   34.5600 C   0  0  0  0  0  0  0  0  0  0  0  0
   33.4120   30.4880   35.1520 N   0  0  0  0  0  0  0  0  0  0  0  0
   32.5150   31.6130   36.7170 H   0  0  0  0  0  0  0  0  0  0  0  0
   34.6320   32.5790   37.5350 H   0  0  0  0  0  0  0  0  0  0  0  0
   36.7550   31.9550   36.3700 H   0  0  0  0  0  0  0  0  0  0  0  0
   37.5030   25.8780   32.0210 O   0  0  0  0  0  0  0  0  0  0  0  0
   39.1420   25.6420   34.4580 Cl  0  0  0  0  0  0  0  0  0  0  0  0
   38.1740   24.4180   33.6720 C   0  0  0  0  0  0  0  0  0  0  0  0
   37.4360   24.6530   32.5350 C   0  0  0  0  0  0  0  0  0  0  0  0
   36.6800   23.5990   32.0140 C   0  0  0  0  0  0  0  0  0  0  0  0
   36.6800   22.3650   32.6260 C   0  0  0  0  0  0  0  0  0  0  0  0
   37.4190   22.1180   33.7710 C   0  0  0  0  0  0  0  0  0  0  0  0
   38.1660   23.1580   34.2880 C   0  0  0  0  0  0  0  0  0  0  0  0
   36.0670   23.6810   31.1340 H   0  0  0  0  0  0  0  0  0  0  0  0
   36.1180   21.5160   32.2720 H   0  0  0  0  0  0  0  0  0  0  0  0
   37.4240   21.1630   34.2540 H   0  0  0  0  0  0  0  0  0  0  0  0
   37.4040   23.8520   36.9220 F   0  0  0  0  0  0  0  0  0  0  0  0
   38.6040   23.2390   36.7880 C   0  0  0  0  0  0  0  0  0  0  0  0
   38.9490   22.9120   35.4920 C   0  0  0  0  0  0  0  0  0  0  0  0
   40.1590   22.2820   35.2540 C   0  0  0  0  0  0  0  0  0  0  0  0
   40.5090   21.9900   34.2750 H   0  0  0  0  0  0  0  0  0  0  0  0
   41.0410   21.9670   36.2860 C   0  0  0  0  0  0  0  0  0  0  0  0
   41.9970   21.4700   36.1200 H   0  0  0  0  0  0  0  0  0  0  0  0
   40.6590   22.3100   37.5690 C   0  0  0  0  0  3  0  0  0  0  0  0
   39.4520   22.9430   37.8370 C   0  0  0  0  0  3  0  0  0  0  0  0
  1  6  1  6  0  0  0
  1 11  1  0  0  0  0
  2  7  1  1  0  0  0
  2  1  1  0  0  0  0
  2 13  1  0  0  0  0
  3  2  1  0  0  0  0
  4  3  1  0  0  0  0
  4  5  1  0  0  0  0
  5 10  1  1  0  0  0
  5  1  1  0  0  0  0
  8  4  1  0  0  0  0
  9  4  1  0  0  0  0
 11 12  1  0  0  0  0
 13 18  1  0  0  0  0
 14 15  1  0  0  0  0
 14 20  1  0  0  0  0
 15 21  1  0  0  0  0
 16 22  1  0  0  0  0
 16 15  2  0  0  0  0
 17 16  1  0  0  0  0
 18 17  2  0  0  0  0
 18 19  1  0  0  0  0
 19 14  2  0  0  0  0
 23  5  1  0  0  0  0
 23 26  1  0  0  0  0
 25 30  1  0  0  0  0
 25 24  1  0  0  0  0
 26 25  2  0  0  0  0
 27 26  1  0  0  0  0
 27 28  2  0  0  0  0
 28 29  1  0  0  0  0
 29 33  1  0  0  0  0
 29 30  2  0  0  0  0
 30 36  1  0  0  0  0
 31 27  1  0  0  0  0
 32 28  1  0  0  0  0
 35 34  1  0  0  0  0
 35 42  1  0  0  0  0
 36 35  2  0  0  0  0
 37 36  1  0  0  0  0
 37 39  2  0  0  0  0
 38 37  1  0  0  0  0
 39 41  1  0  0  0  0
 40 39  1  0  0  0  0
 41 42  2  0  0  0  0
M  END
>  <minimizedAffinity>
-6.11895466

$$$$

 OpenBabel03272506493D

 42 45  0  0  1  0  0  0  0  0999 V2000
   37.0720   28.0440   32.8620 C   0  0  2  0  0  0  0  0  0  0  0  0
   36.2110   29.1380   32.3050 C   0  0  1  0  0  0  0  0  0  0  0  0
   36.0070   28.8810   30.9840 O   0  0  0  0  0  0  0  0  0  0  0  0
   36.4140   27.5810   30.7010 C   0  0  0  0  0  0  0  0  0  0  0  0
   36.5250   26.8480   32.0170 C   0  0  1  0  0  0  0  0  0  0  0  0
   38.1330   28.1330   32.6520 H   0  0  0  0  0  0  0  0  0  0  0  0
   36.6370   30.1380   32.5170 H   0  0  0  0  0  0  0  0  0  0  0  0
   37.3290   27.6640   30.1270 H   0  0  0  0  0  0  0  0  0  0  0  0
   35.5920   27.1080   30.0770 H   0  0  0  0  0  0  0  0  0  0  0  0
   35.5620   26.5920   32.4510 H   0  0  0  0  0  0  0  0  0  0  0  0
   36.7690   27.8180   34.2220 O   0  0  0  0  0  0  0  0  0  0  0  0
   35.9410   27.2640   34.2120 H   0  0  0  0  0  0  0  0  0  0  0  0
   34.5860   29.0550   33.1620 S   0  0  0  0  0  0  0  0  0  0  0  0
   35.8570   31.5330   35.9810 C   0  0  0  0  0  0  0  0  0  0  0  0
   34.7100   31.8860   36.6920 C   0  0  0  0  0  0  0  0  0  0  0  0
   33.4880   31.3360   36.2840 C   0  0  0  0  0  0  0  0  0  0  0  0
   33.4840   30.4880   35.2200 N   0  0  0  0  0  0  0  0  0  0  0  0
   34.6220   30.1730   34.5590 C   0  0  0  0  0  0  0  0  0  0  0  0
   35.8170   30.6860   34.9260 N   0  0  0  0  0  0  0  0  0  0  0  0
   36.7840   31.9720   36.3170 H   0  0  0  0  0  0  0  0  0  0  0  0
   34.7230   32.5620   37.5380 H   0  0  0  0  0  0  0  0  0  0  0  0
   32.5610   31.5600   36.7820 H   0  0  0  0  0  0  0  0  0  0  0  0
   37.4700   25.8600   31.8970 O   0  0  0  0  0  0  0  0  0  0  0  0
   39.2810   25.5890   34.2050 Cl  0  0  0  0  0  0  0  0  0  0  0  0
   38.2230   24.3890   33.5020 C   0  0  0  0  0  0  0  0  0  0  0  0
   37.4080   24.6400   32.4230 C   0  0  0  0  0  0  0  0  0  0  0  0
   36.5870   23.6050   31.9670 C   0  0  0  0  0  0  0  0  0  0  0  0
   36.5990   22.3740   32.5850 C   0  0  0  0  0  0  0  0  0  0  0  0
   37.4140   22.1120   33.6730 C   0  0  0  0  0  0  0  0  0  0  0  0
   38.2280   23.1330   34.1260 C   0  0  0  0  0  0  0  0  0  0  0  0
   35.9120   23.7000   31.1350 H   0  0  0  0  0  0  0  0  0  0  0  0
   35.9880   21.5390   32.2800 H   0  0  0  0  0  0  0  0  0  0  0  0
   37.4300   21.1600   34.1600 H   0  0  0  0  0  0  0  0  0  0  0  0
   40.8170   22.0030   34.0100 F   0  0  0  0  0  0  0  0  0  0  0  0
   40.3580   22.3210   35.2430 C   0  0  0  0  0  0  0  0  0  0  0  0
   39.0920   22.8700   35.2690 C   0  0  0  0  0  0  0  0  0  0  0  0
   38.5360   23.2280   36.4850 C   0  0  0  0  0  0  0  0  0  0  0  0
   37.5530   23.6630   36.5990 H   0  0  0  0  0  0  0  0  0  0  0  0
   39.2170   23.0490   37.6880 C   0  0  0  0  0  0  0  0  0  0  0  0
   38.7980   23.3240   38.6550 H   0  0  0  0  0  0  0  0  0  0  0  0
   40.4810   22.4960   37.6200 C   0  0  0  0  0  3  0  0  0  0  0  0
   41.0650   22.1280   36.4140 C   0  0  0  0  0  3  0  0  0  0  0  0
  1  6  1  6  0  0  0
  1 11  1  0  0  0  0
  2  7  1  1  0  0  0
  2  1  1  0  0  0  0
  2 13  1  0  0  0  0
  3  2  1  0  0  0  0
  4  3  1  0  0  0  0
  4  5  1  0  0  0  0
  5 10  1  1  0  0  0
  5  1  1  0  0  0  0
  8  4  1  0  0  0  0
  9  4  1  0  0  0  0
 12 11  1  0  0  0  0
 13 18  1  0  0  0  0
 14 20  1  0  0  0  0
 14 15  1  0  0  0  0
 15 21  1  0  0  0  0
 16 15  2  0  0  0  0
 16 22  1  0  0  0  0
 17 16  1  0  0  0  0
 18 19  1  0  0  0  0
 18 17  2  0  0  0  0
 19 14  2  0  0  0  0
 23  5  1  0  0  0  0
 23 26  1  0  0  0  0
 25 30  1  0  0  0  0
 25 24  1  0  0  0  0
 26 25  2  0  0  0  0
 27 26  1  0  0  0  0
 27 28  2  0  0  0  0
 28 29  1  0  0  0  0
 29 30  2  0  0  0  0
 29 33  1  0  0  0  0
 30 36  1  0  0  0  0
 31 27  1  0  0  0  0
 32 28  1  0  0  0  0
 34 35  1  0  0  0  0
 35 36  2  0  0  0  0
 35 42  1  0  0  0  0
 36 37  1  0  0  0  0
 37 38  1  0  0  0  0
 37 39  2  0  0  0  0
 39 40  1  0  0  0  0
 41 39  1  0  0  0  0
 42 41  2  0  0  0  0
M  END
>  <minimizedAffinity>
-5.92551327

$$$$

 OpenBabel03272506493D

 42 45  0  0  1  0  0  0  0  0999 V2000
   38.4100   25.2920   32.9090 C   0  0  2  0  0  0  0  0  0  0  0  0
   39.8880   25.0370   32.8840 C   0  0  1  0  0  0  0  0  0  0  0  0
   40.4330   25.8180   31.9110 O   0  0  0  0  0  0  0  0  0  0  0  0
   39.4950   26.7610   31.5000 C   0  0  0  0  0  0  0  0  0  0  0  0
   38.4190   26.8150   32.5590 C   0  0  1  0  0  0  0  0  0  0  0  0
   37.8370   24.7840   32.1400 H   0  0  0  0  0  0  0  0  0  0  0  0
   40.1130   23.9570   32.7830 H   0  0  0  0  0  0  0  0  0  0  0  0
   39.1720   26.4600   30.5110 H   0  0  0  0  0  0  0  0  0  0  0  0
   40.0300   27.7610   31.4590 H   0  0  0  0  0  0  0  0  0  0  0  0
   38.7300   27.3270   33.4650 H   0  0  0  0  0  0  0  0  0  0  0  0
   37.9010   25.1270   34.2140 O   0  0  0  0  0  0  0  0  0  0  0  0
   38.1300   25.9710   34.6880 H   0  0  0  0  0  0  0  0  0  0  0  0
   40.5710   25.5780   34.5020 S   0  0  0  0  0  0  0  0  0  0  0  0
   42.2230   22.6410   36.5860 C   0  0  0  0  0  0  0  0  0  0  0  0
   41.1480   21.9340   37.1250 C   0  0  0  0  0  0  0  0  0  0  0  0
   39.8540   22.3830   36.8340 C   0  0  0  0  0  0  0  0  0  0  0  0
   39.7140   23.4810   36.0420 N   0  0  0  0  0  0  0  0  0  0  0  0
   40.7860   24.1360   35.5410 C   0  0  0  0  0  0  0  0  0  0  0  0
   42.0480   23.7290   35.8020 N   0  0  0  0  0  0  0  0  0  0  0  0
   43.2090   22.2720   36.8270 H   0  0  0  0  0  0  0  0  0  0  0  0
   41.2700   21.0610   37.7550 H   0  0  0  0  0  0  0  0  0  0  0  0
   38.9750   21.8910   37.2120 H   0  0  0  0  0  0  0  0  0  0  0  0
   37.2360   27.1900   31.9710 O   0  0  0  0  0  0  0  0  0  0  0  0
   36.1490   27.9840   34.5920 Cl  0  0  0  0  0  0  0  0  0  0  0  0
   36.1760   28.8940   33.1010 C   0  0  0  0  0  0  0  0  0  0  0  0
   36.7270   28.4180   31.9340 C   0  0  0  0  0  0  0  0  0  0  0  0
   36.7110   29.2510   30.8120 C   0  0  0  0  0  0  0  0  0  0  0  0
   36.1570   30.5110   30.8810 C   0  0  0  0  0  0  0  0  0  0  0  0
   35.6000   31.0010   32.0500 C   0  0  0  0  0  0  0  0  0  0  0  0
   35.6150   30.1790   33.1600 C   0  0  0  0  0  0  0  0  0  0  0  0
   37.1190   28.9750   29.8560 H   0  0  0  0  0  0  0  0  0  0  0  0
   36.1160   31.1980   30.0500 H   0  0  0  0  0  0  0  0  0  0  0  0
   35.1690   31.9770   32.1130 H   0  0  0  0  0  0  0  0  0  0  0  0
   32.9730   29.7020   34.0500 F   0  0  0  0  0  0  0  0  0  0  0  0
   33.7480   30.4660   34.8560 C   0  0  0  0  0  0  0  0  0  0  0  0
   35.0320   30.6810   34.3970 C   0  0  0  0  0  0  0  0  0  0  0  0
   35.8990   31.4500   35.1530 C   0  0  0  0  0  0  0  0  0  0  0  0
   36.9190   31.6700   34.8720 H   0  0  0  0  0  0  0  0  0  0  0  0
   35.5150   32.0150   36.3680 C   0  0  0  0  0  0  0  0  0  0  0  0
   36.1820   32.6230   36.9790 H   0  0  0  0  0  0  0  0  0  0  0  0
   34.2220   31.7770   36.7930 C   0  0  0  0  0  3  0  0  0  0  0  0
   33.3300   31.0090   36.0550 C   0  0  0  0  0  3  0  0  0  0  0  0
  1  6  1  6  0  0  0
  1 11  1  0  0  0  0
  2  7  1  6  0  0  0
  2  1  1  0  0  0  0
  2 13  1  0  0  0  0
  3  2  1  0  0  0  0
  4  3  1  0  0  0  0
  4  5  1  0  0  0  0
  5  1  1  0  0  0  0
  5 10  1  1  0  0  0
  8  4  1  0  0  0  0
  9  4  1  0  0  0  0
 11 12  1  0  0  0  0
 13 18  1  0  0  0  0
 14 20  1  0  0  0  0
 14 15  1  0  0  0  0
 15 21  1  0  0  0  0
 16 15  2  0  0  0  0
 16 22  1  0  0  0  0
 17 16  1  0  0  0  0
 18 19  1  0  0  0  0
 18 17  2  0  0  0  0
 19 14  2  0  0  0  0
 23  5  1  0  0  0  0
 25 30  1  0  0  0  0
 25 24  1  0  0  0  0
 26 23  1  0  0  0  0
 26 25  2  0  0  0  0
 27 28  2  0  0  0  0
 27 26  1  0  0  0  0
 28 29  1  0  0  0  0
 29 33  1  0  0  0  0
 29 30  2  0  0  0  0
 30 36  1  0  0  0  0
 31 27  1  0  0  0  0
 32 28  1  0  0  0  0
 34 35  1  0  0  0  0
 35 42  1  0  0  0  0
 36 35  2  0  0  0  0
 36 37  1  0  0  0  0
 37 39  2  0  0  0  0
 38 37  1  0  0  0  0
 39 41  1  0  0  0  0
 39 40  1  0  0  0  0
 42 41  2  0  0  0  0
M  END
>  <minimizedAffinity>
-5.82505941

$$$$

 OpenBabel03272506493D

 42 45  0  0  1  0  0  0  0  0999 V2000
   37.0780   25.9830   33.2700 C   0  0  2  0  0  0  0  0  0  0  0  0
   38.2130   25.0820   32.8850 C   0  0  1  0  0  0  0  0  0  0  0  0
   38.5030   25.3070   31.5740 O   0  0  0  0  0  0  0  0  0  0  0  0
   37.8580   26.4660   31.1530 C   0  0  0  0  0  0  0  0  0  0  0  0
   37.4430   27.2240   32.3930 C   0  0  1  0  0  0  0  0  0  0  0  0
   36.0920   25.6470   32.9640 H   0  0  0  0  0  0  0  0  0  0  0  0
   37.9940   24.0240   33.1290 H   0  0  0  0  0  0  0  0  0  0  0  0
   37.0530   26.1500   30.5010 H   0  0  0  0  0  0  0  0  0  0  0  0
   38.6220   27.0780   30.5790 H   0  0  0  0  0  0  0  0  0  0  0  0
   38.2730   27.7120   32.8980 H   0  0  0  0  0  0  0  0  0  0  0  0
   37.1710   26.3430   34.6310 O   0  0  0  0  0  0  0  0  0  0  0  0
   37.8540   27.0660   34.6590 H   0  0  0  0  0  0  0  0  0  0  0  0
   39.6740   25.5710   33.8860 S   0  0  0  0  0  0  0  0  0  0  0  0
   38.9130   23.3120   37.0510 C   0  0  0  0  0  0  0  0  0  0  0  0
   40.1040   22.6320   37.3020 C   0  0  0  0  0  0  0  0  0  0  0  0
   41.1930   22.8800   36.4560 C   0  0  0  0  0  0  0  0  0  0  0  0
   41.0320   23.7690   35.4390 N   0  0  0  0  0  0  0  0  0  0  0  0
   39.8570   24.4060   35.2340 C   0  0  0  0  0  0  0  0  0  0  0  0
   38.7870   24.1910   36.0300 N   0  0  0  0  0  0  0  0  0  0  0  0
   38.0910   23.1020   37.7180 H   0  0  0  0  0  0  0  0  0  0  0  0
   40.2220   21.9250   38.1150 H   0  0  0  0  0  0  0  0  0  0  0  0
   42.1440   22.3940   36.5860 H   0  0  0  0  0  0  0  0  0  0  0  0
   36.3260   27.9680   32.1060 O   0  0  0  0  0  0  0  0  0  0  0  0
   35.0610   28.7680   34.6440 Cl  0  0  0  0  0  0  0  0  0  0  0  0
   35.6210   29.7830   33.3370 C   0  0  0  0  0  0  0  0  0  0  0  0
   36.2120   29.2900   32.1960 C   0  0  0  0  0  0  0  0  0  0  0  0
   36.6430   30.2050   31.2330 C   0  0  0  0  0  0  0  0  0  0  0  0
   36.4780   31.5590   31.4250 C   0  0  0  0  0  0  0  0  0  0  0  0
   35.8850   32.0660   32.5690 C   0  0  0  0  0  0  0  0  0  0  0  0
   35.4580   31.1630   33.5240 C   0  0  0  0  0  0  0  0  0  0  0  0
   37.1200   29.9220   30.3110 H   0  0  0  0  0  0  0  0  0  0  0  0
   36.7900   32.3120   30.7190 H   0  0  0  0  0  0  0  0  0  0  0  0
   35.7530   33.1160   32.7290 H   0  0  0  0  0  0  0  0  0  0  0  0
   36.7130   31.4410   36.0430 F   0  0  0  0  0  0  0  0  0  0  0  0
   35.4180   31.8290   35.9740 C   0  0  0  0  0  0  0  0  0  0  0  0
   34.8320   31.6830   34.7330 C   0  0  0  0  0  0  0  0  0  0  0  0
   33.5090   32.0530   34.5630 C   0  0  0  0  0  0  0  0  0  0  0  0
   32.9710   31.9730   33.6290 H   0  0  0  0  0  0  0  0  0  0  0  0
   32.7480   32.5710   35.6090 C   0  0  0  0  0  0  0  0  0  0  0  0
   31.7060   32.8690   35.4970 H   0  0  0  0  0  0  0  0  0  0  0  0
   33.3710   32.7030   36.8360 C   0  0  0  0  0  3  0  0  0  0  0  0
   34.6970   32.3400   37.0360 C   0  0  0  0  0  3  0  0  0  0  0  0
  1  6  1  6  0  0  0
  1 11  1  0  0  0  0
  2  7  1  1  0  0  0
  2  1  1  0  0  0  0
  2 13  1  0  0  0  0
  3  2  1  0  0  0  0
  4  3  1  0  0  0  0
  4  5  1  0  0  0  0
  5 10  1  1  0  0  0
  5  1  1  0  0  0  0
  8  4  1  0  0  0  0
  9  4  1  0  0  0  0
 11 12  1  0  0  0  0
 13 18  1  0  0  0  0
 14 15  1  0  0  0  0
 14 20  1  0  0  0  0
 15 21  1  0  0  0  0
 16 22  1  0  0  0  0
 16 15  2  0  0  0  0
 17 16  1  0  0  0  0
 18 17  2  0  0  0  0
 18 19  1  0  0  0  0
 19 14  2  0  0  0  0
 23 26  1  0  0  0  0
 23  5  1  0  0  0  0
 25 30  1  0  0  0  0
 25 24  1  0  0  0  0
 26 25  2  0  0  0  0
 27 28  2  0  0  0  0
 27 26  1  0  0  0  0
 28 29  1  0  0  0  0
 29 33  1  0  0  0  0
 29 30  2  0  0  0  0
 30 36  1  0  0  0  0
 31 27  1  0  0  0  0
 32 28  1  0  0  0  0
 35 34  1  0  0  0  0
 35 42  1  0  0  0  0
 36 35  2  0  0  0  0
 37 36  1  0  0  0  0
 37 39  2  0  0  0  0
 38 37  1  0  0  0  0
 39 41  1  0  0  0  0
 40 39  1  0  0  0  0
 41 42  2  0  0  0  0
M  END
>  <minimizedAffinity>
-5.7841363

$$$$

 OpenBabel03272506493D

 42 45  0  0  1  0  0  0  0  0999 V2000
   36.2970   27.4590   31.2400 C   0  0  2  0  0  0  0  0  0  0  0  0
   35.3520   28.4430   31.8630 C   0  0  1  0  0  0  0  0  0  0  0  0
   35.6590   28.5410   33.1850 O   0  0  0  0  0  0  0  0  0  0  0  0
   36.8900   27.9340   33.4180 C   0  0  0  0  0  0  0  0  0  0  0  0
   37.5740   27.7820   32.0790 C   0  0  1  0  0  0  0  0  0  0  0  0
   36.0550   26.4130   31.4030 H   0  0  0  0  0  0  0  0  0  0  0  0
   34.2950   28.1790   31.6570 H   0  0  0  0  0  0  0  0  0  0  0  0
   36.6820   27.0140   33.9500 H   0  0  0  0  0  0  0  0  0  0  0  0
   37.4900   28.6460   34.0660 H   0  0  0  0  0  0  0  0  0  0  0  0
   37.9620   28.7170   31.6840 H   0  0  0  0  0  0  0  0  0  0  0  0
   36.5400   27.7930   29.8910 O   0  0  0  0  0  0  0  0  0  0  0  0
   37.2100   28.5280   29.9250 H   0  0  0  0  0  0  0  0  0  0  0  0
   35.6580   30.0780   31.0810 S   0  0  0  0  0  0  0  0  0  0  0  0
   33.7210   32.4150   33.6280 C   0  0  0  0  0  0  0  0  0  0  0  0
   34.6850   33.3060   34.1020 C   0  0  0  0  0  0  0  0  0  0  0  0
   35.9920   33.1810   33.6140 C   0  0  0  0  0  0  0  0  0  0  0  0
   36.2520   32.2010   32.7070 N   0  0  0  0  0  0  0  0  0  0  0  0
   35.2860   31.3590   32.2750 C   0  0  0  0  0  0  0  0  0  0  0  0
   34.0140   31.4520   32.7250 N   0  0  0  0  0  0  0  0  0  0  0  0
   32.7230   32.5350   34.0210 H   0  0  0  0  0  0  0  0  0  0  0  0
   34.4670   34.0830   34.8240 H   0  0  0  0  0  0  0  0  0  0  0  0
   36.7890   33.8300   33.9310 H   0  0  0  0  0  0  0  0  0  0  0  0
   38.4140   26.6980   32.1310 O   0  0  0  0  0  0  0  0  0  0  0  0
   39.3860   26.3160   34.8860 Cl  0  0  0  0  0  0  0  0  0  0  0  0
   38.5290   25.1860   33.8650 C   0  0  0  0  0  0  0  0  0  0  0  0
   38.1130   25.4860   32.5890 C   0  0  0  0  0  0  0  0  0  0  0  0
   37.4120   24.5060   31.8800 C   0  0  0  0  0  0  0  0  0  0  0  0
   37.1510   23.2800   32.4490 C   0  0  0  0  0  0  0  0  0  0  0  0
   37.5640   22.9670   33.7330 C   0  0  0  0  0  0  0  0  0  0  0  0
   38.2570   23.9340   34.4360 C   0  0  0  0  0  0  0  0  0  0  0  0
   37.0410   24.6430   30.8800 H   0  0  0  0  0  0  0  0  0  0  0  0
   36.6150   22.4860   31.9520 H   0  0  0  0  0  0  0  0  0  0  0  0
   37.3650   22.0180   34.1840 H   0  0  0  0  0  0  0  0  0  0  0  0
   40.7060   22.7010   35.1240 F   0  0  0  0  0  0  0  0  0  0  0  0
   39.8860   23.0180   36.1540 C   0  0  0  0  0  0  0  0  0  0  0  0
   38.6990   23.6190   35.7880 C   0  0  0  0  0  0  0  0  0  0  0  0
   37.7940   23.9800   36.7710 C   0  0  0  0  0  0  0  0  0  0  0  0
   36.8430   24.4540   36.5770 H   0  0  0  0  0  0  0  0  0  0  0  0
   38.0470   23.7560   38.1240 C   0  0  0  0  0  0  0  0  0  0  0  0
   37.3480   24.0330   38.9130 H   0  0  0  0  0  0  0  0  0  0  0  0
   39.2460   23.1520   38.4490 C   0  0  0  0  0  3  0  0  0  0  0  0
   40.1730   22.7790   37.4840 C   0  0  0  0  0  3  0  0  0  0  0  0
  1  6  1  1  0  0  0
  1  2  1  0  0  0  0
  1  5  1  0  0  0  0
  2  7  1  6  0  0  0
  2  3  1  0  0  0  0
  3  4  1  0  0  0  0
  4  8  1  0  0  0  0
  4  9  1  0  0  0  0
  5 10  1  6  0  0  0
  5 23  1  0  0  0  0
  5  4  1  0  0  0  0
 11 12  1  0  0  0  0
 11  1  1  0  0  0  0
 13  2  1  0  0  0  0
 13 18  1  0  0  0  0
 14 20  1  0  0  0  0
 14 15  1  0  0  0  0
 15 21  1  0  0  0  0
 16 22  1  0  0  0  0
 16 15  2  0  0  0  0
 17 16  1  0  0  0  0
 18 17  2  0  0  0  0
 18 19  1  0  0  0  0
 19 14  2  0  0  0  0
 23 26  1  0  0  0  0
 25 30  1  0  0  0  0
 25 24  1  0  0  0  0
 26 25  2  0  0  0  0
 27 28  2  0  0  0  0
 27 26  1  0  0  0  0
 28 29  1  0  0  0  0
 29 33  1  0  0  0  0
 29 30  2  0  0  0  0
 30 36  1  0  0  0  0
 31 27  1  0  0  0  0
 32 28  1  0  0  0  0
 34 35  1  0  0  0  0
 35 42  1  0  0  0  0
 36 35  2  0  0  0  0
 36 37  1  0  0  0  0
 37 39  2  0  0  0  0
 38 37  1  0  0  0  0
 39 41  1  0  0  0  0
 39 40  1  0  0  0  0
 42 41  2  0  0  0  0
M  END
>  <minimizedAffinity>
-5.71038771

$$$$

 OpenBabel03272506493D

 42 45  0  0  1  0  0  0  0  0999 V2000
   37.1050   28.0410   33.0550 C   0  0  2  0  0  0  0  0  0  0  0  0
   36.2010   29.0820   32.4660 C   0  0  1  0  0  0  0  0  0  0  0  0
   35.9650   28.7480   31.1670 O   0  0  0  0  0  0  0  0  0  0  0  0
   36.3960   27.4440   30.9420 C   0  0  0  0  0  0  0  0  0  0  0  0
   36.5640   26.7880   32.2930 C   0  0  1  0  0  0  0  0  0  0  0  0
   38.1570   28.1430   32.8070 H   0  0  0  0  0  0  0  0  0  0  0  0
   36.6080   30.1030   32.6090 H   0  0  0  0  0  0  0  0  0  0  0  0
   37.2910   27.5170   30.3370 H   0  0  0  0  0  0  0  0  0  0  0  0
   35.5680   26.9180   30.3710 H   0  0  0  0  0  0  0  0  0  0  0  0
   35.6210   26.5340   32.7700 H   0  0  0  0  0  0  0  0  0  0  0  0
   36.8480   27.8830   34.4330 O   0  0  0  0  0  0  0  0  0  0  0  0
   36.0350   27.3110   34.4790 H   0  0  0  0  0  0  0  0  0  0  0  0
   34.6050   29.0090   33.3740 S   0  0  0  0  0  0  0  0  0  0  0  0
   35.9010   31.6330   36.0450 C   0  0  0  0  0  0  0  0  0  0  0  0
   34.7580   32.0380   36.7350 C   0  0  0  0  0  0  0  0  0  0  0  0
   33.5300   31.4770   36.3600 C   0  0  0  0  0  0  0  0  0  0  0  0
   33.5180   30.5690   35.3460 N   0  0  0  0  0  0  0  0  0  0  0  0
   34.6520   30.2060   34.7050 C   0  0  0  0  0  0  0  0  0  0  0  0
   35.8520   30.7270   35.0420 N   0  0  0  0  0  0  0  0  0  0  0  0
   36.8320   32.0820   36.3560 H   0  0  0  0  0  0  0  0  0  0  0  0
   34.7780   32.7620   37.5410 H   0  0  0  0  0  0  0  0  0  0  0  0
   32.6060   31.7380   36.8440 H   0  0  0  0  0  0  0  0  0  0  0  0
   37.5290   25.8170   32.1980 O   0  0  0  0  0  0  0  0  0  0  0  0
   36.5270   23.4220   30.8060 Cl  0  0  0  0  0  0  0  0  0  0  0  0
   37.1860   23.5500   32.4190 C   0  0  0  0  0  0  0  0  0  0  0  0
   37.6370   24.7320   32.9600 C   0  0  0  0  0  0  0  0  0  0  0  0
   38.1670   24.7020   34.2520 C   0  0  0  0  0  0  0  0  0  0  0  0
   38.2330   23.5210   34.9570 C   0  0  0  0  0  0  0  0  0  0  0  0
   37.7830   22.3250   34.4220 C   0  0  0  0  0  0  0  0  0  0  0  0
   37.2590   22.3520   33.1440 C   0  0  0  0  0  0  0  0  0  0  0  0
   38.5490   25.5690   34.7620 H   0  0  0  0  0  0  0  0  0  0  0  0
   38.6310   23.4350   35.9560 H   0  0  0  0  0  0  0  0  0  0  0  0
   37.8310   21.4020   34.9620 H   0  0  0  0  0  0  0  0  0  0  0  0
   34.5610   21.5100   33.0390 F   0  0  0  0  0  0  0  0  0  0  0  0
   35.4730   20.6650   32.5040 C   0  0  0  0  0  0  0  0  0  0  0  0
   36.7810   21.1020   32.5690 C   0  0  0  0  0  0  0  0  0  0  0  0
   37.7860   20.3050   32.0480 C   0  0  0  0  0  0  0  0  0  0  0  0
   38.8340   20.5670   32.0560 H   0  0  0  0  0  0  0  0  0  0  0  0
   37.5170   19.0720   31.4580 C   0  0  0  0  0  0  0  0  0  0  0  0
   38.2930   18.4300   31.0410 H   0  0  0  0  0  0  0  0  0  0  0  0
   36.1960   18.6690   31.4110 C   0  0  0  0  0  3  0  0  0  0  0  0
   35.1670   19.4480   31.9260 C   0  0  0  0  0  3  0  0  0  0  0  0
  1  6  1  6  0  0  0
  1 11  1  0  0  0  0
  2  7  1  1  0  0  0
  2  1  1  0  0  0  0
  2 13  1  0  0  0  0
  3  2  1  0  0  0  0
  4  3  1  0  0  0  0
  4  5  1  0  0  0  0
  5 10  1  1  0  0  0
  5  1  1  0  0  0  0
  8  4  1  0  0  0  0
  9  4  1  0  0  0  0
 11 12  1  0  0  0  0
 13 18  1  0  0  0  0
 14 20  1  0  0  0  0
 14 15  1  0  0  0  0
 15 21  1  0  0  0  0
 16 15  2  0  0  0  0
 16 22  1  0  0  0  0
 17 16  1  0  0  0  0
 18 19  1  0  0  0  0
 18 17  2  0  0  0  0
 19 14  2  0  0  0  0
 23  5  1  0  0  0  0
 23 26  1  0  0  0  0
 24 25  1  0  0  0  0
 25 26  2  0  0  0  0
 25 30  1  0  0  0  0
 26 27  1  0  0  0  0
 27 31  1  0  0  0  0
 27 28  2  0  0  0  0
 28 32  1  0  0  0  0
 29 28  1  0  0  0  0
 29 33  1  0  0  0  0
 30 29  2  0  0  0  0
 35 36  1  0  0  0  0
 35 34  1  0  0  0  0
 36 30  1  0  0  0  0
 37 38  1  0  0  0  0
 37 36  2  0  0  0  0
 39 37  1  0  0  0  0
 40 39  1  0  0  0  0
 41 39  2  0  0  0  0
 41 42  1  0  0  0  0
 42 35  2  0  0  0  0
M  END
>  <minimizedAffinity>
-5.66484547

$$$$

 OpenBabel03272506493D

 42 45  0  0  1  0  0  0  0  0999 V2000
   37.0940   27.0460   31.1400 C   0  0  2  0  0  0  0  0  0  0  0  0
   37.2750   25.6200   31.5680 C   0  0  1  0  0  0  0  0  0  0  0  0
   37.4960   25.6090   32.9110 O   0  0  0  0  0  0  0  0  0  0  0  0
   37.1910   26.8600   33.4370 C   0  0  0  0  0  0  0  0  0  0  0  0
   36.3590   27.5900   32.4080 C   0  0  1  0  0  0  0  0  0  0  0  0
   38.0090   27.6170   31.0240 H   0  0  0  0  0  0  0  0  0  0  0  0
   38.0590   25.1130   30.9720 H   0  0  0  0  0  0  0  0  0  0  0  0
   38.1360   27.3220   33.6960 H   0  0  0  0  0  0  0  0  0  0  0  0
   36.5640   26.6830   34.3670 H   0  0  0  0  0  0  0  0  0  0  0  0
   35.3380   27.2240   32.3400 H   0  0  0  0  0  0  0  0  0  0  0  0
   36.2190   27.1250   30.0370 O   0  0  0  0  0  0  0  0  0  0  0  0
   35.3060   27.0470   30.4270 H   0  0  0  0  0  0  0  0  0  0  0  0
   35.6970   24.7380   31.2390 S   0  0  0  0  0  0  0  0  0  0  0  0
   37.3210   21.1260   31.1010 C   0  0  0  0  0  0  0  0  0  0  0  0
   36.4170   20.3000   31.7700 C   0  0  0  0  0  0  0  0  0  0  0  0
   35.2540   20.8830   32.2880 C   0  0  0  0  0  0  0  0  0  0  0  0
   35.0660   22.2190   32.1120 N   0  0  0  0  0  0  0  0  0  0  0  0
   35.9700   22.9820   31.4560 C   0  0  0  0  0  0  0  0  0  0  0  0
   37.1030   22.4520   30.9440 N   0  0  0  0  0  0  0  0  0  0  0  0
   38.2090   20.6510   30.7130 H   0  0  0  0  0  0  0  0  0  0  0  0
   36.5760   19.2370   31.9060 H   0  0  0  0  0  0  0  0  0  0  0  0
   34.5100   20.3120   32.8160 H   0  0  0  0  0  0  0  0  0  0  0  0
   36.5610   28.9400   32.5500 O   0  0  0  0  0  0  0  0  0  0  0  0
   36.1640   30.0370   35.2560 Cl  0  0  0  0  0  0  0  0  0  0  0  0
   35.3390   30.4610   33.7750 C   0  0  0  0  0  0  0  0  0  0  0  0
   35.6230   29.8820   32.5590 C   0  0  0  0  0  0  0  0  0  0  0  0
   34.9120   30.3250   31.4400 C   0  0  0  0  0  0  0  0  0  0  0  0
   33.9580   31.3110   31.5590 C   0  0  0  0  0  0  0  0  0  0  0  0
   33.6650   31.9010   32.7770 C   0  0  0  0  0  0  0  0  0  0  0  0
   34.3660   31.4650   33.8850 C   0  0  0  0  0  0  0  0  0  0  0  0
   35.0620   29.9410   30.4470 H   0  0  0  0  0  0  0  0  0  0  0  0
   33.3790   31.6930   30.7330 H   0  0  0  0  0  0  0  0  0  0  0  0
   32.9260   32.6680   32.8790 H   0  0  0  0  0  0  0  0  0  0  0  0
   32.6900   30.3690   35.8810 F   0  0  0  0  0  0  0  0  0  0  0  0
   33.2550   31.5660   36.1650 C   0  0  0  0  0  0  0  0  0  0  0  0
   34.0680   32.0760   35.1730 C   0  0  0  0  0  0  0  0  0  0  0  0
   34.6900   33.2960   35.3720 C   0  0  0  0  0  0  0  0  0  0  0  0
   35.3420   33.7700   34.6520 H   0  0  0  0  0  0  0  0  0  0  0  0
   34.5210   34.0280   36.5460 C   0  0  0  0  0  0  0  0  0  0  0  0
   35.0020   34.9900   36.7230 H   0  0  0  0  0  0  0  0  0  0  0  0
   33.7000   33.4830   37.5150 C   0  0  0  0  0  3  0  0  0  0  0  0
   33.0620   32.2610   37.3430 C   0  0  0  0  0  3  0  0  0  0  0  0
  1  6  1  6  0  0  0
  1  2  1  0  0  0  0
  1  5  1  0  0  0  0
  2  7  1  6  0  0  0
  2  3  1  0  0  0  0
  3  4  1  0  0  0  0
  4  8  1  0  0  0  0
  4  9  1  0  0  0  0
  5 10  1  1  0  0  0
  5 23  1  0  0  0  0
  5  4  1  0  0  0  0
 11 12  1  0  0  0  0
 11  1  1  0  0  0  0
 13 18  1  0  0  0  0
 13  2  1  0  0  0  0
 14 15  1  0  0  0  0
 15 21  1  0  0  0  0
 15 16  2  0  0  0  0
 16 22  1  0  0  0  0
 17 16  1  0  0  0  0
 18 17  2  0  0  0  0
 19 14  2  0  0  0  0
 19 18  1  0  0  0  0
 20 14  1  0  0  0  0
 23 26  1  0  0  0  0
 25 30  1  0  0  0  0
 25 24  1  0  0  0  0
 26 25  2  0  0  0  0
 27 28  2  0  0  0  0
 27 26  1  0  0  0  0
 28 29  1  0  0  0  0
 29 33  1  0  0  0  0
 29 30  2  0  0  0  0
 30 36  1  0  0  0  0
 31 27  1  0  0  0  0
 32 28  1  0  0  0  0
 34 35  1  0  0  0  0
 35 42  1  0  0  0  0
 36 37  1  0  0  0  0
 36 35  2  0  0  0  0
 37 39  2  0  0  0  0
 38 37  1  0  0  0  0
 39 40  1  0  0  0  0
 39 41  1  0  0  0  0
 42 41  2  0  0  0  0
M  END
>  <minimizedAffinity>
-5.63876915

$$$$
