
     RDKit          3D

 37 39  0  0  0  0  0  0  0  0999 V2000
   38.1134   31.8838   47.4153 C   0  0  0  0  0  0  0  0  0  0  0  0
   38.5832   32.7899   48.3247 C   0  0  0  0  0  0  0  0  0  0  0  0
   38.0821   32.8701   49.6278 C   0  0  0  0  0  0  0  0  0  0  0  0
   37.0294   31.9421   49.9874 C   0  0  0  0  0  0  0  0  0  0  0  0
   36.6064   31.0676   49.0429 C   0  0  0  0  0  0  0  0  0  0  0  0
   37.0951   31.0011   47.7905 C   0  0  0  0  0  0  0  0  0  0  0  0
   40.0027   31.2591   45.9879 C   0  0  0  0  0  0  0  0  0  0  0  0
   38.7456   31.9110   46.1159 C   0  0  0  0  0  0  0  0  0  0  0  0
   38.2820   32.4929   44.9611 C   0  0  0  0  0  0  0  0  0  0  0  0
   38.9972   32.4246   43.8230 N   0  0  0  0  0  0  0  0  0  0  0  0
   40.1565   31.8179   43.7235 C   0  0  0  0  0  0  0  0  0  0  0  0
   40.6500   31.2400   44.8069 N   0  0  0  0  0  0  0  0  0  0  0  0
   35.1601   29.9690   46.9431 C   0  0  0  0  0  0  0  0  0  0  0  0
   34.5207   30.6332   47.8540 O   0  0  0  0  0  0  0  0  0  0  0  0
   36.5997   30.1052   46.8750 N   0  0  0  0  0  0  0  0  0  0  0  0
   34.4540   29.1639   46.0829 O   0  0  0  0  0  0  0  0  0  0  0  0
   33.3588   29.5831   45.3358 C   0  0  0  0  0  0  0  0  0  0  0  0
   33.3721   30.7166   44.6703 O   0  0  0  0  0  0  0  0  0  0  0  0
   39.3817   33.5027   48.0739 H   0  0  0  0  0  0  0  0  0  0  0  0
   38.4984   33.6122   50.2991 H   0  0  0  0  0  0  0  0  0  0  0  0
   36.7470   32.1175   51.0047 H   0  0  0  0  0  0  0  0  0  0  0  0
   35.8553   30.4720   49.5362 H   0  0  0  0  0  0  0  0  0  0  0  0
   40.4193   30.7859   46.8515 H   0  0  0  0  0  0  0  0  0  0  0  0
   37.3254   32.9916   45.0498 H   0  0  0  0  0  0  0  0  0  0  0  0
   40.7685   31.7349   42.8352 H   0  0  0  0  0  0  0  0  0  0  0  0
   37.1747   29.5831   46.2125 H   0  0  0  0  0  0  0  0  0  0  0  0
   31.7036   29.6085   43.0553 F   0  0  0  0  0  0  0  0  0  0  0  0
   31.3224   28.8128   44.0915 C   0  0  0  0  0  0  0  0  0  0  0  0
   32.1162   28.7839   45.2175 C   0  0  0  0  0  0  0  0  0  0  0  0
   31.6948   27.9719   46.2311 C   0  0  0  0  0  0  0  0  0  0  0  0
   32.2880   27.9207   47.1301 H   0  0  0  0  0  0  0  0  0  0  0  0
   30.5344   27.2364   46.1001 C   0  0  0  0  0  0  0  0  0  0  0  0
   30.2788   26.6142   46.9673 H   0  0  0  0  0  0  0  0  0  0  0  0
   29.7615   27.2876   44.9587 C   0  0  0  0  0  0  0  0  0  0  0  0
   30.1710   28.0926   43.9427 C   0  0  0  0  0  0  0  0  0  0  0  0
   28.8737   26.6736   44.9583 H   0  0  0  0  0  0  0  0  0  0  0  0
   29.5904   28.1512   43.0462 H   0  0  0  0  0  0  0  0  0  0  0  0
  1  6  1  0
  1  2  2  0
  2  3  1  0
  3  4  2  0
  5  4  1  0
  6  5  2  0
  7  8  2  0
  8  1  1  0
  9  8  1  0
 10  9  2  0
 11 10  1  0
 11 12  2  0
 12  7  1  0
 13 14  2  0
 15 13  1  0
 15  6  1  0
 16 13  1  0
 17 16  1  0
 18 17  2  0
  2 19  1  0
  3 20  1  0
  4 21  1  0
  5 22  1  0
  7 23  1  0
  9 24  1  0
 11 25  1  0
 15 26  1  0
 27 28  1  0
 28 29  2  0
 29 30  1  0
 30 31  1  0
 30 32  2  0
 32 33  1  0
 32 34  1  0
 34 35  2  0
 35 28  1  0
 34 36  1  0
 35 37  1  0
 17 29  1  0
M  ISO  8  19  14  20  14  21  14  22  14  23  14  24  14  25  14  31  15
M  ISO  1  33  16
M  END
>  <DihAtoms>  (1) 
15,16,28,27

>  <DihDeg>  (1) 
0.9210676023400132

$$$$
