
 OpenBabel03272500563D

 35 37  0  0  0  0  0  0  0  0999 V2000
   38.1220   31.9470   47.4600 C   0  0  0  0  0  0  0  0  0  0  0  0
   38.5190   32.9330   48.3210 C   0  0  0  0  0  0  0  0  0  0  0  0
   38.0090   33.0420   49.6180 C   0  0  0  0  0  0  0  0  0  0  0  0
   37.0290   32.0560   50.0270 C   0  0  0  0  0  0  0  0  0  0  0  0
   36.6770   31.1040   49.1300 C   0  0  0  0  0  0  0  0  0  0  0  0
   37.1730   31.0100   47.8830 C   0  0  0  0  0  0  0  0  0  0  0  0
   39.2610   33.6900   48.0320 H   0  0  0  0  0  0  0  0  0  0  0  0
   38.3660   33.8480   50.2490 H   0  0  0  0  0  0  0  0  0  0  0  0
   36.7320   32.2620   51.0350 H   0  0  0  0  0  0  0  0  0  0  0  0
   35.9720   30.4790   49.6550 H   0  0  0  0  0  0  0  0  0  0  0  0
   40.0250   31.3270   46.0490 C   0  0  0  0  0  0  0  0  0  0  0  0
   38.7540   31.9540   46.1610 C   0  0  0  0  0  0  0  0  0  0  0  0
   38.2780   32.4960   44.9910 C   0  0  0  0  0  0  0  0  0  0  0  0
   38.9940   32.4140   43.8550 N   0  0  0  0  0  0  0  0  0  0  0  0
   40.1680   31.8300   43.7710 C   0  0  0  0  0  0  0  0  0  0  0  0
   40.6730   31.2920   44.8690 N   0  0  0  0  0  0  0  0  0  0  0  0
   40.4510   30.8860   46.9250 H   0  0  0  0  0  0  0  0  0  0  0  0
   37.3100   32.9760   45.0670 H   0  0  0  0  0  0  0  0  0  0  0  0
   40.7810   31.7380   42.8850 H   0  0  0  0  0  0  0  0  0  0  0  0
   35.3080   29.9160   46.9580 C   0  0  0  0  0  0  0  0  0  0  0  0
   34.5980   30.6730   47.7340 O   0  0  0  0  0  0  0  0  0  0  0  0
   36.7500   30.0320   47.0160 N   0  0  0  0  0  0  0  0  0  0  0  0
   37.3760   29.4410   46.4650 H   0  0  0  0  0  0  0  0  0  0  0  0
   34.6720   29.0360   46.1170 O   0  0  0  0  0  0  0  0  0  0  0  0
   33.7430   29.4060   45.1510 C   0  0  0  0  0  0  0  0  0  0  0  0
   34.1070   30.0060   44.0390 O   0  0  0  0  0  0  0  0  0  0  0  0
   31.8930   31.3050   46.1060 F   0  0  0  0  0  0  0  0  0  0  0  0
   31.4070   30.0820   45.7600 C   0  0  0  0  0  0  0  0  0  0  0  0
   32.2920   29.1370   45.2900 C   0  0  0  0  0  0  0  0  0  0  0  0
   31.7590   27.9250   44.9530 C   0  0  0  0  0  0  0  0  0  0  0  0
   32.4190   27.1580   44.5820 H   0  0  0  0  0  0  0  0  0  0  0  0
   30.4050   27.6970   45.0900 C   0  0  0  0  0  0  0  0  0  0  0  0
   30.0720   26.6930   44.7950 H   0  0  0  0  0  0  0  0  0  0  0  0
   29.5440   28.6640   45.5650 C   0  0  0  0  0  3  0  0  0  0  0  0
   30.0630   29.8750   45.9020 C   0  0  0  0  0  3  0  0  0  0  0  0
  1  6  2  0  0  0  0
  1  2  1  0  0  0  0
  2  3  2  0  0  0  0
  3  4  1  0  0  0  0
  3  8  1  0  0  0  0
  4  9  1  0  0  0  0
  5 10  1  0  0  0  0
  5  4  2  0  0  0  0
  6  5  1  0  0  0  0
  7  2  1  0  0  0  0
 11 12  1  0  0  0  0
 11 17  1  0  0  0  0
 12  1  1  0  0  0  0
 13 18  1  0  0  0  0
 13 12  2  0  0  0  0
 14 13  1  0  0  0  0
 15 14  2  0  0  0  0
 15 16  1  0  0  0  0
 16 11  2  0  0  0  0
 19 15  1  0  0  0  0
 20 22  1  0  0  0  0
 20 21  2  0  0  0  0
 22  6  1  0  0  0  0
 23 22  1  0  0  0  0
 24 20  1  0  0  0  0
 25 29  1  0  0  0  0
 25 24  1  0  0  0  0
 26 25  2  0  0  0  0
 28 35  1  0  0  0  0
 28 27  1  0  0  0  0
 29 28  2  0  0  0  0
 30 32  2  0  0  0  0
 30 29  1  0  0  0  0
 31 30  1  0  0  0  0
 32 34  1  0  0  0  0
 33 32  1  0  0  0  0
 34 35  2  0  0  0  0
M  END
>  <minimizedAffinity>
-5.34379768

>  <minimizedRMSD>
0.655881405

$$$$
