REMARK  Name = 
REMARK  5 active torsions:
REMARK  status: ('A' for Active; 'I' for Inactive)
REMARK    1  A    between atoms: C_1  and  C_8
REMARK    2  A    between atoms: C_6  and  N_15
REMARK    3  A    between atoms: C_13  and  O_16
REMARK    4  A    between atoms: O_16  and  C_17
REMARK    5  A    between atoms: C_17  and  C_29
REMARK                            x       y       z     vdW  Elec       q    Type
REMARK                         _______ _______ _______ _____ _____    ______ ____
ROOT
ATOM      1  C   UNL     1      38.113  31.884  47.415  0.00  0.00    +0.000 A 
ATOM      2  C   UNL     1      38.583  32.790  48.325  0.00  0.00    +0.000 A 
ATOM      3  C   UNL     1      38.082  32.870  49.628  0.00  0.00    +0.000 A 
ATOM      4  C   UNL     1      37.029  31.942  49.987  0.00  0.00    +0.000 A 
ATOM      5  C   UNL     1      36.606  31.068  49.043  0.00  0.00    +0.000 A 
ATOM      6  C   UNL     1      37.095  31.001  47.791  0.00  0.00    +0.000 A 
ATOM      7  H   UNL     1      39.382  33.503  48.074  0.00  0.00    +0.000 HD
ATOM      8  H   UNL     1      38.498  33.612  50.299  0.00  0.00    +0.000 HD
ATOM      9  H   UNL     1      36.747  32.117  51.005  0.00  0.00    +0.000 HD
ATOM     10  H   UNL     1      35.855  30.472  49.536  0.00  0.00    +0.000 HD
ENDROOT
BRANCH   1  12
ATOM     11  C   UNL     1      40.003  31.259  45.988  0.00  0.00    +0.000 A 
ATOM     12  C   UNL     1      38.746  31.911  46.116  0.00  0.00    +0.000 A 
ATOM     13  C   UNL     1      38.282  32.493  44.961  0.00  0.00    +0.000 A 
ATOM     14  N   UNL     1      38.997  32.425  43.823  0.00  0.00    +0.000 NA
ATOM     15  C   UNL     1      40.157  31.818  43.724  0.00  0.00    +0.000 A 
ATOM     16  N   UNL     1      40.650  31.240  44.807  0.00  0.00    +0.000 NA
ATOM     17  H   UNL     1      40.419  30.786  46.852  0.00  0.00    +0.000 HD
ATOM     18  H   UNL     1      37.325  32.992  45.050  0.00  0.00    +0.000 HD
ATOM     19  H   UNL     1      40.769  31.735  42.835  0.00  0.00    +0.000 HD
ENDBRANCH   1  12
BRANCH   6  22
ATOM     20  C   UNL     1      35.160  29.969  46.943  0.00  0.00    +0.000 C 
ATOM     21  O   UNL     1      34.521  30.633  47.854  0.00  0.00    +0.000 OA
ATOM     22  N   UNL     1      36.600  30.105  46.875  0.00  0.00    +0.000 N 
ATOM     23  H   UNL     1      37.175  29.583  46.212  0.00  0.00    +0.000 HD
BRANCH  20  24
ATOM     24  O   UNL     1      34.454  29.164  46.083  0.00  0.00    +0.000 OA
BRANCH  24  25
ATOM     25  C   UNL     1      33.359  29.583  45.336  0.00  0.00    +0.000 C 
ATOM     26  O   UNL     1      33.372  30.717  44.670  0.00  0.00    +0.000 OA
BRANCH  25  29
ATOM     27  F   UNL     1      30.955  30.239  46.652  0.00  0.00    +0.000 F 
ATOM     28  C   UNL     1      30.952  29.125  45.871  0.00  0.00    +0.000 A 
ATOM     29  C   UNL     1      32.116  28.784  45.218  0.00  0.00    +0.000 A 
ATOM     30  C   UNL     1      32.066  27.659  44.446  0.00  0.00    +0.000 A 
ATOM     31  H   UNL     1      32.956  27.357  43.917  0.00  0.00    +0.000 HD
ATOM     32  C   UNL     1      30.899  26.929  44.350  0.00  0.00    +0.000 A 
ATOM     33  H   UNL     1      30.957  26.042  43.706  0.00  0.00    +0.000 HD
ATOM     34  C   UNL     1      29.750  27.297  45.018  0.00  0.00    +0.000 A 
ATOM     35  C   UNL     1      29.787  28.416  45.789  0.00  0.00    +0.000 A 
ENDBRANCH  25  29
ENDBRANCH  24  25
ENDBRANCH  20  24
ENDBRANCH   6  22
TORSDOF 5
