
 OpenBabel03272500563D

 35 37  0  0  0  0  0  0  0  0999 V2000
   38.2410   31.9140   47.3990 C   0  0  0  0  0  0  0  0  0  0  0  0
   38.8600   32.7330   48.3030 C   0  0  0  0  0  0  0  0  0  0  0  0
   38.4510   32.8200   49.6370 C   0  0  0  0  0  0  0  0  0  0  0  0
   37.3280   31.9960   50.0360 C   0  0  0  0  0  0  0  0  0  0  0  0
   36.7570   31.2050   49.0970 C   0  0  0  0  0  0  0  0  0  0  0  0
   37.1590   31.1300   47.8150 C   0  0  0  0  0  0  0  0  0  0  0  0
   39.7140   33.3660   48.0210 H   0  0  0  0  0  0  0  0  0  0  0  0
   38.9840   33.4900   50.3010 H   0  0  0  0  0  0  0  0  0  0  0  0
   37.1290   32.1630   51.0750 H   0  0  0  0  0  0  0  0  0  0  0  0
   35.9780   30.6740   49.6200 H   0  0  0  0  0  0  0  0  0  0  0  0
   40.0270   31.2440   45.8640 C   0  0  0  0  0  0  0  0  0  0  0  0
   38.7930   31.9200   46.0640 C   0  0  0  0  0  0  0  0  0  0  0  0
   38.2680   32.5020   44.9350 C   0  0  0  0  0  0  0  0  0  0  0  0
   38.9100   32.4120   43.7550 N   0  0  0  0  0  0  0  0  0  0  0  0
   40.0510   31.7830   43.5900 C   0  0  0  0  0  0  0  0  0  0  0  0
   40.6000   31.2040   44.6450 N   0  0  0  0  0  0  0  0  0  0  0  0
   40.4870   30.7700   46.7050 H   0  0  0  0  0  0  0  0  0  0  0  0
   37.3280   33.0190   45.0780 H   0  0  0  0  0  0  0  0  0  0  0  0
   40.6050   31.6820   42.6660 H   0  0  0  0  0  0  0  0  0  0  0  0
   35.1210   30.1120   47.2340 C   0  0  0  0  0  0  0  0  0  0  0  0
   34.6570   30.6340   48.3260 O   0  0  0  0  0  0  0  0  0  0  0  0
   36.5150   30.3240   46.9080 N   0  0  0  0  0  0  0  0  0  0  0  0
   36.9620   29.9110   46.0870 H   0  0  0  0  0  0  0  0  0  0  0  0
   34.2790   29.3790   46.4330 O   0  0  0  0  0  0  0  0  0  0  0  0
   32.8980   29.5300   46.4000 C   0  0  0  0  0  0  0  0  0  0  0  0
   32.3350   30.6370   45.9680 O   0  0  0  0  0  0  0  0  0  0  0  0
   30.9260   28.4250   44.7160 F   0  0  0  0  0  0  0  0  0  0  0  0
   31.0080   27.9350   45.9840 C   0  0  0  0  0  0  0  0  0  0  0  0
   31.9650   28.4590   46.8250 C   0  0  0  0  0  0  0  0  0  0  0  0
   32.0100   27.9360   48.0850 C   0  0  0  0  0  0  0  0  0  0  0  0
   32.7450   28.3200   48.7750 H   0  0  0  0  0  0  0  0  0  0  0  0
   31.1320   26.9390   48.4600 C   0  0  0  0  0  0  0  0  0  0  0  0
   31.2460   26.5840   49.4920 H   0  0  0  0  0  0  0  0  0  0  0  0
   30.1850   26.4370   47.5930 C   0  0  0  0  0  3  0  0  0  0  0  0
   30.1300   26.9490   46.3350 C   0  0  0  0  0  3  0  0  0  0  0  0
  1  6  2  0  0  0  0
  1  2  1  0  0  0  0
  2  3  2  0  0  0  0
  3  4  1  0  0  0  0
  3  8  1  0  0  0  0
  4  9  1  0  0  0  0
  5 10  1  0  0  0  0
  5  4  2  0  0  0  0
  6  5  1  0  0  0  0
  7  2  1  0  0  0  0
 11 12  1  0  0  0  0
 11 17  1  0  0  0  0
 12  1  1  0  0  0  0
 13 18  1  0  0  0  0
 13 12  2  0  0  0  0
 14 13  1  0  0  0  0
 15 14  2  0  0  0  0
 15 16  1  0  0  0  0
 16 11  2  0  0  0  0
 19 15  1  0  0  0  0
 20 21  2  0  0  0  0
 22 20  1  0  0  0  0
 22  6  1  0  0  0  0
 23 22  1  0  0  0  0
 24 20  1  0  0  0  0
 25 24  1  0  0  0  0
 25 29  1  0  0  0  0
 26 25  2  0  0  0  0
 27 28  1  0  0  0  0
 28 35  2  0  0  0  0
 28 29  1  0  0  0  0
 29 30  2  0  0  0  0
 30 32  1  0  0  0  0
 30 31  1  0  0  0  0
 32 33  1  0  0  0  0
 34 32  2  0  0  0  0
 35 34  1  0  0  0  0
M  END
>  <minimizedAffinity>
-6.00710106

>  <minimizedRMSD>
1.28935897

$$$$
