
 OpenBabel03272500563D

 35 37  0  0  0  0  0  0  0  0999 V2000
   38.1030   31.9150   47.4370 C   0  0  0  0  0  0  0  0  0  0  0  0
   38.5460   32.8530   48.3280 C   0  0  0  0  0  0  0  0  0  0  0  0
   38.0420   32.9470   49.6290 C   0  0  0  0  0  0  0  0  0  0  0  0
   37.0160   31.9980   50.0070 C   0  0  0  0  0  0  0  0  0  0  0  0
   36.6180   31.0920   49.0820 C   0  0  0  0  0  0  0  0  0  0  0  0
   37.1100   31.0120   47.8320 C   0  0  0  0  0  0  0  0  0  0  0  0
   39.3250   33.5830   48.0620 H   0  0  0  0  0  0  0  0  0  0  0  0
   38.4370   33.7150   50.2840 H   0  0  0  0  0  0  0  0  0  0  0  0
   36.7280   32.1870   51.0210 H   0  0  0  0  0  0  0  0  0  0  0  0
   35.8840   30.4860   49.5880 H   0  0  0  0  0  0  0  0  0  0  0  0
   40.0020   31.2960   46.0200 C   0  0  0  0  0  0  0  0  0  0  0  0
   38.7360   31.9320   46.1380 C   0  0  0  0  0  0  0  0  0  0  0  0
   38.2640   32.4900   44.9750 C   0  0  0  0  0  0  0  0  0  0  0  0
   38.9800   32.4160   43.8380 N   0  0  0  0  0  0  0  0  0  0  0  0
   40.1490   31.8240   43.7480 C   0  0  0  0  0  0  0  0  0  0  0  0
   40.6500   31.2690   44.8400 N   0  0  0  0  0  0  0  0  0  0  0  0
   40.4250   30.8420   46.8910 H   0  0  0  0  0  0  0  0  0  0  0  0
   37.3000   32.9770   45.0560 H   0  0  0  0  0  0  0  0  0  0  0  0
   40.7620   31.7360   42.8610 H   0  0  0  0  0  0  0  0  0  0  0  0
   35.1980   29.9630   46.9540 C   0  0  0  0  0  0  0  0  0  0  0  0
   34.5320   30.6690   47.8110 O   0  0  0  0  0  0  0  0  0  0  0  0
   36.6410   30.0830   46.9350 N   0  0  0  0  0  0  0  0  0  0  0  0
   37.2350   29.5290   46.3170 H   0  0  0  0  0  0  0  0  0  0  0  0
   34.5170   29.1290   46.1010 O   0  0  0  0  0  0  0  0  0  0  0  0
   33.3170   29.4520   45.4790 C   0  0  0  0  0  0  0  0  0  0  0  0
   33.2800   30.2000   44.3970 O   0  0  0  0  0  0  0  0  0  0  0  0
   32.8500   26.8030   46.3180 F   0  0  0  0  0  0  0  0  0  0  0  0
   31.8000   27.6670   46.3730 C   0  0  0  0  0  0  0  0  0  0  0  0
   32.0040   28.9680   45.9680 C   0  0  0  0  0  0  0  0  0  0  0  0
   30.9220   29.7980   46.0410 C   0  0  0  0  0  0  0  0  0  0  0  0
   31.0400   30.8250   45.7330 H   0  0  0  0  0  0  0  0  0  0  0  0
   29.7100   29.3260   46.4990 C   0  0  0  0  0  0  0  0  0  0  0  0
   28.9010   30.0680   46.5210 H   0  0  0  0  0  0  0  0  0  0  0  0
   29.5370   28.0170   46.8980 C   0  0  0  0  0  3  0  0  0  0  0  0
   30.6080   27.1800   46.8300 C   0  0  0  0  0  3  0  0  0  0  0  0
  1  6  2  0  0  0  0
  1  2  1  0  0  0  0
  2  3  2  0  0  0  0
  3  4  1  0  0  0  0
  3  8  1  0  0  0  0
  4  9  1  0  0  0  0
  5 10  1  0  0  0  0
  5  4  2  0  0  0  0
  6  5  1  0  0  0  0
  7  2  1  0  0  0  0
 11 12  1  0  0  0  0
 11 17  1  0  0  0  0
 12  1  1  0  0  0  0
 13 18  1  0  0  0  0
 13 12  2  0  0  0  0
 14 13  1  0  0  0  0
 15 14  2  0  0  0  0
 15 16  1  0  0  0  0
 16 11  2  0  0  0  0
 19 15  1  0  0  0  0
 20 21  2  0  0  0  0
 22 20  1  0  0  0  0
 22  6  1  0  0  0  0
 23 22  1  0  0  0  0
 24 20  1  0  0  0  0
 25 29  1  0  0  0  0
 25 24  1  0  0  0  0
 26 25  2  0  0  0  0
 27 28  1  0  0  0  0
 28 35  1  0  0  0  0
 29 30  1  0  0  0  0
 29 28  2  0  0  0  0
 30 32  2  0  0  0  0
 31 30  1  0  0  0  0
 32 33  1  0  0  0  0
 32 34  1  0  0  0  0
 35 34  2  0  0  0  0
M  END
>  <minimizedAffinity>
-5.59186029

>  <minimizedRMSD>
0.820383072

$$$$
