
 OpenBabel03272500563D

 35 37  0  0  0  0  0  0  0  0999 V2000
   38.2950   32.0260   47.4190 C   0  0  0  0  0  0  0  0  0  0  0  0
   38.8990   32.9350   48.2420 C   0  0  0  0  0  0  0  0  0  0  0  0
   38.5230   33.1000   49.5790 C   0  0  0  0  0  0  0  0  0  0  0  0
   37.4530   32.2570   50.0700 C   0  0  0  0  0  0  0  0  0  0  0  0
   36.8940   31.3750   49.2080 C   0  0  0  0  0  0  0  0  0  0  0  0
   37.2630   31.2260   47.9220 C   0  0  0  0  0  0  0  0  0  0  0  0
   39.7140   33.5850   47.8900 H   0  0  0  0  0  0  0  0  0  0  0  0
   39.0430   33.8400   50.1760 H   0  0  0  0  0  0  0  0  0  0  0  0
   37.2750   32.4910   51.1000 H   0  0  0  0  0  0  0  0  0  0  0  0
   36.1560   30.8490   49.7920 H   0  0  0  0  0  0  0  0  0  0  0  0
   40.0260   31.2540   45.8680 C   0  0  0  0  0  0  0  0  0  0  0  0
   38.8090   31.9600   46.0700 C   0  0  0  0  0  0  0  0  0  0  0  0
   38.2620   32.4970   44.9290 C   0  0  0  0  0  0  0  0  0  0  0  0
   38.8690   32.3420   43.7380 N   0  0  0  0  0  0  0  0  0  0  0  0
   39.9940   31.6860   43.5710 C   0  0  0  0  0  0  0  0  0  0  0  0
   40.5630   31.1470   44.6370 N   0  0  0  0  0  0  0  0  0  0  0  0
   40.5020   30.8110   46.7170 H   0  0  0  0  0  0  0  0  0  0  0  0
   37.3350   33.0370   45.0740 H   0  0  0  0  0  0  0  0  0  0  0  0
   40.5200   31.5320   42.6380 H   0  0  0  0  0  0  0  0  0  0  0  0
   35.2540   30.0940   47.4650 C   0  0  0  0  0  0  0  0  0  0  0  0
   34.7910   30.6850   48.5210 O   0  0  0  0  0  0  0  0  0  0  0  0
   36.6340   30.3280   47.0950 N   0  0  0  0  0  0  0  0  0  0  0  0
   37.0800   29.8670   46.3010 H   0  0  0  0  0  0  0  0  0  0  0  0
   34.4260   29.2710   46.7420 O   0  0  0  0  0  0  0  0  0  0  0  0
   33.0590   29.4720   46.5870 C   0  0  0  0  0  0  0  0  0  0  0  0
   32.5770   30.6040   46.1220 O   0  0  0  0  0  0  0  0  0  0  0  0
   32.8580   28.2330   49.1100 F   0  0  0  0  0  0  0  0  0  0  0  0
   31.9750   27.8400   48.1520 C   0  0  0  0  0  0  0  0  0  0  0  0
   32.0540   28.4310   46.9110 C   0  0  0  0  0  0  0  0  0  0  0  0
   31.1490   28.0060   45.9810 C   0  0  0  0  0  0  0  0  0  0  0  0
   31.1770   28.4440   44.9960 H   0  0  0  0  0  0  0  0  0  0  0  0
   30.2220   27.0350   46.3030 C   0  0  0  0  0  0  0  0  0  0  0  0
   29.5370   26.7590   45.4910 H   0  0  0  0  0  0  0  0  0  0  0  0
   30.1680   26.4620   47.5570 C   0  0  0  0  0  3  0  0  0  0  0  0
   31.0650   26.8780   48.4910 C   0  0  0  0  0  3  0  0  0  0  0  0
  1  6  2  0  0  0  0
  1  2  1  0  0  0  0
  2  3  2  0  0  0  0
  3  4  1  0  0  0  0
  3  8  1  0  0  0  0
  4  9  1  0  0  0  0
  5 10  1  0  0  0  0
  5  4  2  0  0  0  0
  6  5  1  0  0  0  0
  7  2  1  0  0  0  0
 11 12  1  0  0  0  0
 11 17  1  0  0  0  0
 12  1  1  0  0  0  0
 13 18  1  0  0  0  0
 13 12  2  0  0  0  0
 14 13  1  0  0  0  0
 15 14  2  0  0  0  0
 15 16  1  0  0  0  0
 16 11  2  0  0  0  0
 19 15  1  0  0  0  0
 20 21  2  0  0  0  0
 22 20  1  0  0  0  0
 22  6  1  0  0  0  0
 23 22  1  0  0  0  0
 24 20  1  0  0  0  0
 25 24  1  0  0  0  0
 25 29  1  0  0  0  0
 26 25  2  0  0  0  0
 28 35  1  0  0  0  0
 28 27  1  0  0  0  0
 29 28  2  0  0  0  0
 30 32  2  0  0  0  0
 30 29  1  0  0  0  0
 31 30  1  0  0  0  0
 32 34  1  0  0  0  0
 33 32  1  0  0  0  0
 34 35  2  0  0  0  0
M  END
>  <minimizedAffinity>
-6.1607089

>  <minimizedRMSD>
1.30185032

$$$$
