
 OpenBabel03272500573D

 35 37  0  0  0  0  0  0  0  0999 V2000
   38.2590   31.9390   47.3940 C   0  0  0  0  0  0  0  0  0  0  0  0
   38.8690   32.7740   48.2890 C   0  0  0  0  0  0  0  0  0  0  0  0
   38.4570   32.8720   49.6210 C   0  0  0  0  0  0  0  0  0  0  0  0
   37.3410   32.0420   50.0280 C   0  0  0  0  0  0  0  0  0  0  0  0
   36.7780   31.2360   49.0970 C   0  0  0  0  0  0  0  0  0  0  0  0
   37.1830   31.1510   47.8170 C   0  0  0  0  0  0  0  0  0  0  0  0
   39.7180   33.4110   48.0020 H   0  0  0  0  0  0  0  0  0  0  0  0
   38.9830   33.5540   50.2780 H   0  0  0  0  0  0  0  0  0  0  0  0
   37.1380   32.2200   51.0650 H   0  0  0  0  0  0  0  0  0  0  0  0
   36.0030   30.7040   49.6250 H   0  0  0  0  0  0  0  0  0  0  0  0
   40.0450   31.2520   45.8650 C   0  0  0  0  0  0  0  0  0  0  0  0
   38.8130   31.9340   46.0590 C   0  0  0  0  0  0  0  0  0  0  0  0
   38.2930   32.5120   44.9260 C   0  0  0  0  0  0  0  0  0  0  0  0
   38.9370   32.4130   43.7480 N   0  0  0  0  0  0  0  0  0  0  0  0
   40.0750   31.7780   43.5890 C   0  0  0  0  0  0  0  0  0  0  0  0
   40.6190   31.2030   44.6480 N   0  0  0  0  0  0  0  0  0  0  0  0
   40.5010   30.7810   46.7100 H   0  0  0  0  0  0  0  0  0  0  0  0
   37.3550   33.0340   45.0650 H   0  0  0  0  0  0  0  0  0  0  0  0
   40.6300   31.6690   42.6660 H   0  0  0  0  0  0  0  0  0  0  0  0
   35.1560   30.1050   47.2450 C   0  0  0  0  0  0  0  0  0  0  0  0
   34.6860   30.6330   48.3310 O   0  0  0  0  0  0  0  0  0  0  0  0
   36.5480   30.3280   46.9170 N   0  0  0  0  0  0  0  0  0  0  0  0
   36.9990   29.9120   46.1010 H   0  0  0  0  0  0  0  0  0  0  0  0
   34.3230   29.3560   46.4510 O   0  0  0  0  0  0  0  0  0  0  0  0
   32.9380   29.4780   46.4310 C   0  0  0  0  0  0  0  0  0  0  0  0
   32.3490   30.5820   46.0260 O   0  0  0  0  0  0  0  0  0  0  0  0
   31.1280   28.2190   44.6740 F   0  0  0  0  0  0  0  0  0  0  0  0
   31.1530   27.7790   45.9620 C   0  0  0  0  0  0  0  0  0  0  0  0
   32.0300   28.3800   46.8400 C   0  0  0  0  0  0  0  0  0  0  0  0
   32.0210   27.9060   48.1200 C   0  0  0  0  0  0  0  0  0  0  0  0
   32.6910   28.3480   48.8380 H   0  0  0  0  0  0  0  0  0  0  0  0
   31.1660   26.8820   48.4790 C   0  0  0  0  0  0  0  0  0  0  0  0
   31.2320   26.5710   49.5290 H   0  0  0  0  0  0  0  0  0  0  0  0
   30.3000   26.3030   47.5760 C   0  0  0  0  0  3  0  0  0  0  0  0
   30.3020   26.7660   46.2980 C   0  0  0  0  0  3  0  0  0  0  0  0
  1  6  2  0  0  0  0
  1  2  1  0  0  0  0
  2  3  2  0  0  0  0
  3  4  1  0  0  0  0
  3  8  1  0  0  0  0
  4  9  1  0  0  0  0
  5 10  1  0  0  0  0
  5  4  2  0  0  0  0
  6  5  1  0  0  0  0
  7  2  1  0  0  0  0
 11 12  1  0  0  0  0
 11 17  1  0  0  0  0
 12  1  1  0  0  0  0
 13 18  1  0  0  0  0
 13 12  2  0  0  0  0
 14 13  1  0  0  0  0
 15 14  2  0  0  0  0
 15 16  1  0  0  0  0
 16 11  2  0  0  0  0
 19 15  1  0  0  0  0
 20 21  2  0  0  0  0
 22 20  1  0  0  0  0
 22  6  1  0  0  0  0
 23 22  1  0  0  0  0
 24 20  1  0  0  0  0
 25 24  1  0  0  0  0
 25 29  1  0  0  0  0
 26 25  2  0  0  0  0
 27 28  1  0  0  0  0
 28 35  2  0  0  0  0
 28 29  1  0  0  0  0
 29 30  2  0  0  0  0
 30 32  1  0  0  0  0
 30 31  1  0  0  0  0
 32 33  1  0  0  0  0
 34 32  2  0  0  0  0
 35 34  1  0  0  0  0
M  END
>  <minimizedAffinity>
-5.97814751

>  <minimizedRMSD>
1.30649865

$$$$
