
 OpenBabel03272500563D

 35 37  0  0  0  0  0  0  0  0999 V2000
   38.1100   31.9250   47.4440 C   0  0  0  0  0  0  0  0  0  0  0  0
   38.5400   32.8770   48.3280 C   0  0  0  0  0  0  0  0  0  0  0  0
   38.0330   32.9740   49.6270 C   0  0  0  0  0  0  0  0  0  0  0  0
   37.0190   32.0130   50.0120 C   0  0  0  0  0  0  0  0  0  0  0  0
   36.6350   31.0950   49.0940 C   0  0  0  0  0  0  0  0  0  0  0  0
   37.1290   31.0120   47.8450 C   0  0  0  0  0  0  0  0  0  0  0  0
   39.3090   33.6150   48.0570 H   0  0  0  0  0  0  0  0  0  0  0  0
   38.4160   33.7520   50.2770 H   0  0  0  0  0  0  0  0  0  0  0  0
   36.7270   32.2060   51.0240 H   0  0  0  0  0  0  0  0  0  0  0  0
   35.9080   30.4830   49.6030 H   0  0  0  0  0  0  0  0  0  0  0  0
   40.0100   31.3020   46.0290 C   0  0  0  0  0  0  0  0  0  0  0  0
   38.7450   31.9410   46.1460 C   0  0  0  0  0  0  0  0  0  0  0  0
   38.2750   32.5000   44.9820 C   0  0  0  0  0  0  0  0  0  0  0  0
   38.9930   32.4230   43.8460 N   0  0  0  0  0  0  0  0  0  0  0  0
   40.1600   31.8290   43.7570 C   0  0  0  0  0  0  0  0  0  0  0  0
   40.6590   31.2740   44.8490 N   0  0  0  0  0  0  0  0  0  0  0  0
   40.4300   30.8470   46.9010 H   0  0  0  0  0  0  0  0  0  0  0  0
   37.3120   32.9880   45.0620 H   0  0  0  0  0  0  0  0  0  0  0  0
   40.7740   31.7400   42.8700 H   0  0  0  0  0  0  0  0  0  0  0  0
   35.2310   29.9490   46.9520 C   0  0  0  0  0  0  0  0  0  0  0  0
   34.5520   30.6690   47.7880 O   0  0  0  0  0  0  0  0  0  0  0  0
   36.6740   30.0690   46.9550 N   0  0  0  0  0  0  0  0  0  0  0  0
   37.2790   29.5060   46.3550 H   0  0  0  0  0  0  0  0  0  0  0  0
   34.5640   29.1020   46.1010 O   0  0  0  0  0  0  0  0  0  0  0  0
   33.4680   29.4690   45.3290 C   0  0  0  0  0  0  0  0  0  0  0  0
   33.6010   30.2100   44.2500 O   0  0  0  0  0  0  0  0  0  0  0  0
   32.6430   26.7750   45.3690 F   0  0  0  0  0  0  0  0  0  0  0  0
   31.7050   27.7170   45.6590 C   0  0  0  0  0  0  0  0  0  0  0  0
   32.0840   29.0420   45.6460 C   0  0  0  0  0  0  0  0  0  0  0  0
   31.1100   29.9510   45.9440 C   0  0  0  0  0  0  0  0  0  0  0  0
   31.3670   30.9980   45.9440 H   0  0  0  0  0  0  0  0  0  0  0  0
   29.8290   29.5310   46.2360 C   0  0  0  0  0  0  0  0  0  0  0  0
   29.1170   30.3350   46.4610 H   0  0  0  0  0  0  0  0  0  0  0  0
   29.4800   28.1960   46.2410 C   0  0  0  0  0  3  0  0  0  0  0  0
   30.4420   27.2810   45.9460 C   0  0  0  0  0  3  0  0  0  0  0  0
  1  6  2  0  0  0  0
  1  2  1  0  0  0  0
  2  3  2  0  0  0  0
  3  4  1  0  0  0  0
  3  8  1  0  0  0  0
  4  9  1  0  0  0  0
  5 10  1  0  0  0  0
  5  4  2  0  0  0  0
  6  5  1  0  0  0  0
  7  2  1  0  0  0  0
 11 12  1  0  0  0  0
 11 17  1  0  0  0  0
 12  1  1  0  0  0  0
 13 18  1  0  0  0  0
 13 12  2  0  0  0  0
 14 13  1  0  0  0  0
 15 14  2  0  0  0  0
 15 16  1  0  0  0  0
 16 11  2  0  0  0  0
 19 15  1  0  0  0  0
 20 22  1  0  0  0  0
 20 21  2  0  0  0  0
 22  6  1  0  0  0  0
 23 22  1  0  0  0  0
 24 20  1  0  0  0  0
 25 29  1  0  0  0  0
 25 24  1  0  0  0  0
 26 25  2  0  0  0  0
 27 28  1  0  0  0  0
 28 35  1  0  0  0  0
 29 28  2  0  0  0  0
 29 30  1  0  0  0  0
 30 32  2  0  0  0  0
 31 30  1  0  0  0  0
 32 34  1  0  0  0  0
 32 33  1  0  0  0  0
 35 34  2  0  0  0  0
M  END
>  <minimizedAffinity>
-5.42178631

>  <minimizedRMSD>
0.731324553

$$$$
