
 OpenBabel03272500543D

 32 34  0  0  0  0  0  0  0  0999 V2000
   36.2340   30.1660   43.7780 C   0  0  0  0  0  0  0  0  0  0  0  0
   36.2280   29.1950   42.7740 C   0  0  0  0  0  0  0  0  0  0  0  0
   37.3080   28.9970   41.9310 C   0  0  0  0  0  0  0  0  0  0  0  0
   38.4650   29.8070   42.0860 C   0  0  0  0  0  0  0  0  0  0  0  0
   38.4290   30.7440   43.0800 C   0  0  0  0  0  0  0  0  0  0  0  0
   37.3750   30.9430   43.9150 C   0  0  0  0  0  0  0  0  0  0  0  0
   35.3390   28.5650   42.6420 H   0  0  0  0  0  0  0  0  0  0  0  0
   37.1890   28.2070   41.1830 H   0  0  0  0  0  0  0  0  0  0  0  0
   39.1910   29.5200   41.3580 H   0  0  0  0  0  0  0  0  0  0  0  0
   39.3660   31.2500   42.9720 H   0  0  0  0  0  0  0  0  0  0  0  0
   35.0480   29.7920   45.8560 C   0  0  0  0  0  0  0  0  0  0  0  0
   35.0070   30.2900   44.5400 C   0  0  0  0  0  0  0  0  0  0  0  0
   33.7970   30.8480   44.1010 C   0  0  0  0  0  0  0  0  0  0  0  0
   32.7410   30.8880   44.9320 N   0  0  0  0  0  0  0  0  0  0  0  0
   32.7960   30.4110   46.1810 C   0  0  0  0  0  0  0  0  0  0  0  0
   33.9420   29.8690   46.6330 N   0  0  0  0  0  0  0  0  0  0  0  0
   35.9550   29.3510   46.2480 H   0  0  0  0  0  0  0  0  0  0  0  0
   33.8180   31.2190   43.0730 H   0  0  0  0  0  0  0  0  0  0  0  0
   31.8930   30.4900   46.7700 H   0  0  0  0  0  0  0  0  0  0  0  0
   38.2550   31.4910   46.0260 C   0  0  0  0  0  0  0  0  0  0  0  0
   38.8110   30.3350   45.9630 O   0  0  0  0  0  0  0  0  0  0  0  0
   37.3810   31.8750   44.9520 N   0  0  0  0  0  0  0  0  0  0  0  0
   36.8460   32.7270   44.9720 H   0  0  0  0  0  0  0  0  0  0  0  0
   36.9010   31.5350   48.5940 F   0  0  0  0  0  0  0  0  0  0  0  0
   37.9340   32.3780   48.3890 C   0  0  0  0  0  0  0  0  0  0  0  0
   38.5440   32.3380   47.1800 C   0  0  0  0  0  0  0  0  0  0  0  0
   39.5840   33.2360   47.0630 C   0  0  0  0  0  0  0  0  0  0  0  0
   40.1690   33.3210   46.1530 H   0  0  0  0  0  0  0  0  0  0  0  0
   39.9710   34.0930   48.0690 C   0  0  0  0  0  0  0  0  0  0  0  0
   40.7800   34.7790   47.9520 H   0  0  0  0  0  0  0  0  0  0  0  0
   39.3140   34.0920   49.2800 C   0  0  0  0  0  3  0  0  0  0  0  0
   38.2700   33.2050   49.4280 C   0  0  0  0  0  3  0  0  0  0  0  0
  1  6  1  0  0  0  0
  1 12  1  0  0  0  0
  2  1  2  0  0  0  0
  3  4  2  0  0  0  0
  3  2  1  0  0  0  0
  4  5  1  0  0  0  0
  5  6  2  0  0  0  0
  6 22  1  0  0  0  0
  7  2  1  0  0  0  0
  8  3  1  0  0  0  0
  9  4  1  0  0  0  0
 10  5  1  0  0  0  0
 11 17  1  0  0  0  0
 11 16  1  0  0  0  0
 12 11  2  0  0  0  0
 13 12  1  0  0  0  0
 13 14  2  0  0  0  0
 14 15  1  0  0  0  0
 15 16  2  0  0  0  0
 15 19  1  0  0  0  0
 18 13  1  0  0  0  0
 20 26  1  0  0  0  0
 21 20  2  0  0  0  0
 22 23  1  0  0  0  0
 22 20  1  0  0  0  0
 25 24  1  0  0  0  0
 25 32  1  0  0  0  0
 26 25  2  0  0  0  0
 27 26  1  0  0  0  0
 27 29  2  0  0  0  0
 28 27  1  0  0  0  0
 29 31  1  0  0  0  0
 30 29  1  0  0  0  0
 31 32  2  0  0  0  0
M  END
>  <minimizedAffinity>
-5.16619492

>  <minimizedRMSD>
4.70418262

$$$$
