REMARK  Name = 
REMARK  3 active torsions:
REMARK  status: ('A' for Active; 'I' for Inactive)
REMARK    1  A    between atoms: C_1  and  C_8
REMARK    2  A    between atoms: C_6  and  N_15
REMARK    3  A    between atoms: C_13  and  C_26
REMARK                            x       y       z     vdW  Elec       q    Type
REMARK                         _______ _______ _______ _____ _____    ______ ____
ROOT
ATOM      1  C   UNL     1      38.110  31.186  47.894  0.00  0.00    +0.000 A 
ATOM      2  C   UNL     1      38.404  30.377  46.794  0.00  0.00    +0.000 A 
ATOM      3  C   UNL     1      39.191  30.815  45.743  0.00  0.00    +0.000 A 
ATOM      4  C   UNL     1      39.720  32.134  45.778  0.00  0.00    +0.000 A 
ATOM      5  C   UNL     1      39.409  32.891  46.872  0.00  0.00    +0.000 A 
ATOM      6  C   UNL     1      38.640  32.467  47.910  0.00  0.00    +0.000 A 
ATOM      7  H   UNL     1      37.999  29.357  46.754  0.00  0.00    +0.000 HD
ATOM      8  H   UNL     1      39.354  30.093  44.937  0.00  0.00    +0.000 HD
ATOM      9  H   UNL     1      40.296  32.301  44.895  0.00  0.00    +0.000 HD
ATOM     10  H   UNL     1      39.865  33.834  46.654  0.00  0.00    +0.000 HD
ENDROOT
BRANCH   1  12
ATOM     11  C   UNL     1      37.855  29.966  49.971  0.00  0.00    +0.000 A 
ATOM     12  C   UNL     1      37.226  30.603  48.884  0.00  0.00    +0.000 A 
ATOM     13  C   UNL     1      35.823  30.609  48.867  0.00  0.00    +0.000 A 
ATOM     14  N   UNL     1      35.142  30.020  49.865  0.00  0.00    +0.000 NA
ATOM     15  C   UNL     1      35.754  29.419  50.892  0.00  0.00    +0.000 A 
ATOM     16  N   UNL     1      37.099  29.395  50.938  0.00  0.00    +0.000 NA
ATOM     17  H   UNL     1      38.934  29.931  50.036  0.00  0.00    +0.000 HD
ATOM     18  H   UNL     1      35.385  31.115  48.003  0.00  0.00    +0.000 HD
ATOM     19  H   UNL     1      35.117  28.975  51.644  0.00  0.00    +0.000 HD
ENDBRANCH   1  12
BRANCH   6  22
ATOM     20  C   UNL     1      39.351  34.281  49.227  0.00  0.00    +0.000 C 
ATOM     21  O   UNL     1      40.369  34.298  48.444  0.00  0.00    +0.000 OA
ATOM     22  N   UNL     1      38.375  33.244  49.037  0.00  0.00    +0.000 N 
ATOM     23  H   UNL     1      37.597  33.116  49.663  0.00  0.00    +0.000 HD
BRANCH  20  26
ATOM     24  F   UNL     1      39.131  33.921  52.100  0.00  0.00    +0.000 F 
ATOM     25  C   UNL     1      39.151  35.175  51.600  0.00  0.00    +0.000 A 
ATOM     26  C   UNL     1      39.251  35.312  50.257  0.00  0.00    +0.000 A 
ATOM     27  C   UNL     1      39.261  36.627  49.842  0.00  0.00    +0.000 A 
ATOM     28  H   UNL     1      39.336  36.896  48.794  0.00  0.00    +0.000 HD
ATOM     29  C   UNL     1      39.178  37.700  50.700  0.00  0.00    +0.000 A 
ATOM     30  H   UNL     1      39.188  38.709  50.352  0.00  0.00    +0.000 HD
ATOM     31  C   UNL     1      39.078  37.502  52.059  0.00  0.00    +0.000 A 
ATOM     32  C   UNL     1      39.065  36.199  52.506  0.00  0.00    +0.000 A 
ENDBRANCH  20  26
ENDBRANCH   6  22
TORSDOF 3
