
 OpenBabel03272500543D

 32 34  0  0  0  0  0  0  0  0999 V2000
   36.4360   26.9450   43.4580 C   0  0  0  0  0  0  0  0  0  0  0  0
   37.2970   26.8280   42.3640 C   0  0  0  0  0  0  0  0  0  0  0  0
   38.6600   26.6390   42.5140 C   0  0  0  0  0  0  0  0  0  0  0  0
   39.2090   26.5620   43.8230 C   0  0  0  0  0  0  0  0  0  0  0  0
   38.3310   26.6800   44.8630 C   0  0  0  0  0  0  0  0  0  0  0  0
   36.9910   26.8620   44.7250 C   0  0  0  0  0  0  0  0  0  0  0  0
   36.8860   26.8890   41.3480 H   0  0  0  0  0  0  0  0  0  0  0  0
   39.2350   26.5600   41.5850 H   0  0  0  0  0  0  0  0  0  0  0  0
   40.2640   26.4170   43.7500 H   0  0  0  0  0  0  0  0  0  0  0  0
   38.9660   26.6420   45.7240 H   0  0  0  0  0  0  0  0  0  0  0  0
   34.2280   26.0580   43.0050 C   0  0  0  0  0  0  0  0  0  0  0  0
   35.0450   27.1970   43.1370 C   0  0  0  0  0  0  0  0  0  0  0  0
   34.4390   28.4480   42.9470 C   0  0  0  0  0  0  0  0  0  0  0  0
   33.1290   28.5160   42.6510 N   0  0  0  0  0  0  0  0  0  0  0  0
   32.3650   27.4240   42.5290 C   0  0  0  0  0  0  0  0  0  0  0  0
   32.9160   26.2090   42.7050 N   0  0  0  0  0  0  0  0  0  0  0  0
   34.6420   25.0680   43.1410 H   0  0  0  0  0  0  0  0  0  0  0  0
   35.1150   29.2990   43.0600 H   0  0  0  0  0  0  0  0  0  0  0  0
   31.3240   27.5850   42.2890 H   0  0  0  0  0  0  0  0  0  0  0  0
   36.2910   28.1320   46.5770 C   0  0  0  0  0  0  0  0  0  0  0  0
   37.2710   28.9020   46.2700 O   0  0  0  0  0  0  0  0  0  0  0  0
   36.1110   26.9340   45.8040 N   0  0  0  0  0  0  0  0  0  0  0  0
   35.4190   26.2410   46.0380 H   0  0  0  0  0  0  0  0  0  0  0  0
   34.8490   30.6260   46.9300 F   0  0  0  0  0  0  0  0  0  0  0  0
   34.7380   29.6710   47.8780 C   0  0  0  0  0  0  0  0  0  0  0  0
   35.4250   28.5190   47.6880 C   0  0  0  0  0  0  0  0  0  0  0  0
   35.2530   27.6060   48.7070 C   0  0  0  0  0  0  0  0  0  0  0  0
   35.7390   26.6380   48.6970 H   0  0  0  0  0  0  0  0  0  0  0  0
   34.4640   27.8350   49.8130 C   0  0  0  0  0  0  0  0  0  0  0  0
   34.3480   27.1120   50.5870 H   0  0  0  0  0  0  0  0  0  0  0  0
   33.7870   29.0270   49.9550 C   0  0  0  0  0  3  0  0  0  0  0  0
   33.9380   29.9600   48.9510 C   0  0  0  0  0  3  0  0  0  0  0  0
  1  6  1  0  0  0  0
  2  3  1  0  0  0  0
  2  1  2  0  0  0  0
  3  4  2  0  0  0  0
  4  5  1  0  0  0  0
  5 10  1  0  0  0  0
  6  5  2  0  0  0  0
  6 22  1  0  0  0  0
  7  2  1  0  0  0  0
  8  3  1  0  0  0  0
  9  4  1  0  0  0  0
 11 12  1  0  0  0  0
 11 17  1  0  0  0  0
 12  1  1  0  0  0  0
 13 18  1  0  0  0  0
 13 12  2  0  0  0  0
 14 13  1  0  0  0  0
 15 14  2  0  0  0  0
 15 16  1  0  0  0  0
 16 11  2  0  0  0  0
 19 15  1  0  0  0  0
 20 26  1  0  0  0  0
 21 20  2  0  0  0  0
 22 23  1  0  0  0  0
 22 20  1  0  0  0  0
 24 25  1  0  0  0  0
 25 32  1  0  0  0  0
 26 25  2  0  0  0  0
 26 27  1  0  0  0  0
 27 29  2  0  0  0  0
 28 27  1  0  0  0  0
 29 31  1  0  0  0  0
 29 30  1  0  0  0  0
 32 31  2  0  0  0  0
M  END
>  <minimizedAffinity>
12.4070091

>  <minimizedRMSD>
7.86171627

$$$$
