
 OpenBabel03272508433D

 20 21  0  0  0  0  0  0  0  0999 V2000
   39.0090   22.6720   35.9200 C   0  0  0  0  0  0  0  0  0  0  0  0
   39.9040   22.0560   36.5390 O   0  0  0  0  0  0  0  0  0  0  0  0
   35.8260   20.9760   35.5110 C   0  0  0  0  0  0  0  0  0  0  0  0
   35.7100   20.8260   34.1210 C   0  0  0  0  0  0  0  0  0  0  0  0
   36.7470   21.3200   33.3120 C   0  0  0  0  0  0  0  0  0  0  0  0
   37.8160   21.9180   33.9190 N   0  0  0  0  0  0  0  0  0  0  0  0
   37.8880   22.0390   35.2450 C   0  0  0  0  0  0  0  0  0  0  0  0
   36.9190   21.5810   36.0290 N   0  0  0  0  0  0  0  0  0  0  0  0
   34.9930   20.5750   36.0740 H   0  0  0  0  0  0  0  0  0  0  0  0
   34.8830   20.3610   33.6030 H   0  0  0  0  0  0  0  0  0  0  0  0
   36.7690   21.2620   32.2330 H   0  0  0  0  0  0  0  0  0  0  0  0
   37.4150   24.3780   37.5340 F   0  0  0  0  0  0  0  0  0  0  0  0
   38.1830   24.9530   36.5890 C   0  0  0  0  0  0  0  0  0  0  0  0
   38.9710   24.1300   35.7900 C   0  0  0  0  0  0  0  0  0  0  0  0
   39.7530   24.7650   34.8210 C   0  0  0  0  0  0  0  0  0  0  0  0
   40.3590   24.1080   34.2090 H   0  0  0  0  0  0  0  0  0  0  0  0
   39.7900   26.1330   34.6160 C   0  0  0  0  0  0  0  0  0  0  0  0
   40.4500   26.4810   33.8210 H   0  0  0  0  0  0  0  0  0  0  0  0
   38.9970   26.9240   35.4270 C   0  0  0  0  0  3  0  0  0  0  0  0
   38.2180   26.3100   36.3870 C   0  0  0  0  0  3  0  0  0  0  0  0
  1  2  2  0  0  0  0
  3  8  1  0  0  0  0
  3  9  1  0  0  0  0
  4  3  2  0  0  0  0
  5  6  2  0  0  0  0
  5  4  1  0  0  0  0
  6  7  1  0  0  0  0
  7  1  1  0  0  0  0
  7  8  2  0  0  0  0
 10  4  1  0  0  0  0
 11  5  1  0  0  0  0
 13 12  1  0  0  0  0
 14  1  1  0  0  0  0
 14 13  2  0  0  0  0
 15 14  1  0  0  0  0
 16 15  1  0  0  0  0
 17 15  2  0  0  0  0
 17 19  1  0  0  0  0
 18 17  1  0  0  0  0
 19 20  2  0  0  0  0
 20 13  1  0  0  0  0
M  END
>  <minimizedAffinity>
-4.5365777

$$$$

 OpenBabel03272508433D

 20 21  0  0  0  0  0  0  0  0999 V2000
   37.1220   27.4480   32.5940 C   0  0  0  0  0  0  0  0  0  0  0  0
   36.6040   28.5770   32.4490 O   0  0  0  0  0  0  0  0  0  0  0  0
   34.8800   25.2390   30.7860 C   0  0  0  0  0  0  0  0  0  0  0  0
   35.3470   23.9580   31.1130 C   0  0  0  0  0  0  0  0  0  0  0  0
   36.4540   23.8550   31.9730 C   0  0  0  0  0  0  0  0  0  0  0  0
   37.0180   25.0070   32.4460 N   0  0  0  0  0  0  0  0  0  0  0  0
   36.5440   26.2070   32.1100 C   0  0  0  0  0  0  0  0  0  0  0  0
   35.4990   26.3280   31.2990 N   0  0  0  0  0  0  0  0  0  0  0  0
   34.0270   25.2470   30.1210 H   0  0  0  0  0  0  0  0  0  0  0  0
   34.9290   23.0250   30.7610 H   0  0  0  0  0  0  0  0  0  0  0  0
   36.9010   22.9260   32.2950 H   0  0  0  0  0  0  0  0  0  0  0  0
   37.3890   27.1190   35.4010 F   0  0  0  0  0  0  0  0  0  0  0  0
   38.5110   27.0660   34.6580 C   0  0  0  0  0  0  0  0  0  0  0  0
   38.3970   27.2240   33.2810 C   0  0  0  0  0  0  0  0  0  0  0  0
   39.5840   27.1640   32.5450 C   0  0  0  0  0  0  0  0  0  0  0  0
   39.4750   27.2900   31.4750 H   0  0  0  0  0  0  0  0  0  0  0  0
   40.8370   26.9570   33.0950 C   0  0  0  0  0  0  0  0  0  0  0  0
   41.6700   26.9340   32.3930 H   0  0  0  0  0  0  0  0  0  0  0  0
   40.9170   26.8020   34.4660 C   0  0  0  0  0  3  0  0  0  0  0  0
   39.7530   26.8610   35.2050 C   0  0  0  0  0  3  0  0  0  0  0  0
  1 14  1  0  0  0  0
  2  1  2  0  0  0  0
  3  4  2  0  0  0  0
  3  8  1  0  0  0  0
  4  5  1  0  0  0  0
  5 11  1  0  0  0  0
  5  6  2  0  0  0  0
  7  6  1  0  0  0  0
  7  1  1  0  0  0  0
  8  7  2  0  0  0  0
  9  3  1  0  0  0  0
 10  4  1  0  0  0  0
 13 20  1  0  0  0  0
 13 12  1  0  0  0  0
 14 13  2  0  0  0  0
 15 17  2  0  0  0  0
 15 14  1  0  0  0  0
 16 15  1  0  0  0  0
 17 19  1  0  0  0  0
 18 17  1  0  0  0  0
 19 20  2  0  0  0  0
M  END
>  <minimizedAffinity>
-4.42229652

$$$$

 OpenBabel03272508433D

 20 21  0  0  0  0  0  0  0  0999 V2000
   38.9630   22.9870   36.4200 C   0  0  0  0  0  0  0  0  0  0  0  0
   39.6960   22.4900   37.3020 O   0  0  0  0  0  0  0  0  0  0  0  0
   37.1300   21.5000   33.6610 C   0  0  0  0  0  0  0  0  0  0  0  0
   36.0020   20.9440   34.2790 C   0  0  0  0  0  0  0  0  0  0  0  0
   35.8700   21.0830   35.6720 C   0  0  0  0  0  0  0  0  0  0  0  0
   36.8480   21.7550   36.3510 N   0  0  0  0  0  0  0  0  0  0  0  0
   37.9060   22.2700   35.7260 C   0  0  0  0  0  0  0  0  0  0  0  0
   38.0510   22.1500   34.4110 N   0  0  0  0  0  0  0  0  0  0  0  0
   37.1700   21.3570   32.5900 H   0  0  0  0  0  0  0  0  0  0  0  0
   35.2080   20.4060   33.7780 H   0  0  0  0  0  0  0  0  0  0  0  0
   35.0470   20.6980   36.2550 H   0  0  0  0  0  0  0  0  0  0  0  0
   41.0610   23.9660   34.7790 F   0  0  0  0  0  0  0  0  0  0  0  0
   40.1080   24.8390   35.1590 C   0  0  0  0  0  0  0  0  0  0  0  0
   39.0720   24.3740   35.9620 C   0  0  0  0  0  0  0  0  0  0  0  0
   38.1040   25.3100   36.3350 C   0  0  0  0  0  0  0  0  0  0  0  0
   37.3060   24.9300   36.9610 H   0  0  0  0  0  0  0  0  0  0  0  0
   38.1140   26.6410   35.9580 C   0  0  0  0  0  0  0  0  0  0  0  0
   37.2890   27.2500   36.3280 H   0  0  0  0  0  0  0  0  0  0  0  0
   39.1560   27.0720   35.1590 C   0  0  0  0  0  3  0  0  0  0  0  0
   40.1210   26.1590   34.7840 C   0  0  0  0  0  3  0  0  0  0  0  0
  1  2  2  0  0  0  0
  3  4  2  0  0  0  0
  3  8  1  0  0  0  0
  4  5  1  0  0  0  0
  5 11  1  0  0  0  0
  5  6  2  0  0  0  0
  7  6  1  0  0  0  0
  7  1  1  0  0  0  0
  8  7  2  0  0  0  0
  9  3  1  0  0  0  0
 10  4  1  0  0  0  0
 12 13  1  0  0  0  0
 13 14  1  0  0  0  0
 14 15  2  0  0  0  0
 14  1  1  0  0  0  0
 15 16  1  0  0  0  0
 17 18  1  0  0  0  0
 17 15  1  0  0  0  0
 19 17  2  0  0  0  0
 20 19  1  0  0  0  0
 20 13  2  0  0  0  0
M  END
>  <minimizedAffinity>
-4.37973785

$$$$

 OpenBabel03272508433D

 20 21  0  0  0  0  0  0  0  0999 V2000
   37.8830   27.1350   31.7250 C   0  0  0  0  0  0  0  0  0  0  0  0
   38.2650   27.9710   30.8780 O   0  0  0  0  0  0  0  0  0  0  0  0
   36.6930   23.7260   31.3570 C   0  0  0  0  0  0  0  0  0  0  0  0
   35.3540   23.8850   30.9720 C   0  0  0  0  0  0  0  0  0  0  0  0
   34.8530   25.1910   30.8380 C   0  0  0  0  0  0  0  0  0  0  0  0
   35.6960   26.2380   31.0870 N   0  0  0  0  0  0  0  0  0  0  0  0
   36.9640   26.0440   31.4510 C   0  0  0  0  0  0  0  0  0  0  0  0
   37.4580   24.8180   31.5850 N   0  0  0  0  0  0  0  0  0  0  0  0
   37.0130   22.6960   31.4420 H   0  0  0  0  0  0  0  0  0  0  0  0
   34.6560   23.0850   30.7670 H   0  0  0  0  0  0  0  0  0  0  0  0
   33.8420   25.4380   30.5480 H   0  0  0  0  0  0  0  0  0  0  0  0
   40.5300   26.5760   32.5840 F   0  0  0  0  0  0  0  0  0  0  0  0
   39.6160   26.8680   33.5300 C   0  0  0  0  0  0  0  0  0  0  0  0
   38.3150   27.1450   33.1250 C   0  0  0  0  0  0  0  0  0  0  0  0
   37.3970   27.4420   34.1360 C   0  0  0  0  0  0  0  0  0  0  0  0
   36.3890   27.6550   33.8020 H   0  0  0  0  0  0  0  0  0  0  0  0
   37.7020   27.4790   35.4850 C   0  0  0  0  0  0  0  0  0  0  0  0
   36.8790   27.7270   36.1560 H   0  0  0  0  0  0  0  0  0  0  0  0
   39.0040   27.2000   35.8560 C   0  0  0  0  0  3  0  0  0  0  0  0
   39.9210   26.9030   34.8670 C   0  0  0  0  0  3  0  0  0  0  0  0
  1 14  1  0  0  0  0
  2  1  2  0  0  0  0
  3  9  1  0  0  0  0
  3  8  1  0  0  0  0
  4  3  2  0  0  0  0
  5  4  1  0  0  0  0
  5  6  2  0  0  0  0
  6  7  1  0  0  0  0
  7  8  2  0  0  0  0
  7  1  1  0  0  0  0
 10  4  1  0  0  0  0
 11  5  1  0  0  0  0
 12 13  1  0  0  0  0
 13 20  1  0  0  0  0
 14 13  2  0  0  0  0
 14 15  1  0  0  0  0
 15 17  2  0  0  0  0
 16 15  1  0  0  0  0
 17 19  1  0  0  0  0
 17 18  1  0  0  0  0
 20 19  2  0  0  0  0
M  END
>  <minimizedAffinity>
-4.37459183

$$$$

 OpenBabel03272508433D

 20 21  0  0  0  0  0  0  0  0999 V2000
   39.1820   24.1660   34.3470 C   0  0  0  0  0  0  0  0  0  0  0  0
   40.1280   24.8170   33.8520 O   0  0  0  0  0  0  0  0  0  0  0  0
   36.5130   23.8090   31.9120 C   0  0  0  0  0  0  0  0  0  0  0  0
   36.1230   22.4690   32.0470 C   0  0  0  0  0  0  0  0  0  0  0  0
   36.7930   21.6750   32.9940 C   0  0  0  0  0  0  0  0  0  0  0  0
   37.7880   22.2490   33.7350 N   0  0  0  0  0  0  0  0  0  0  0  0
   38.1280   23.5280   33.5760 C   0  0  0  0  0  0  0  0  0  0  0  0
   37.5100   24.2970   32.6870 N   0  0  0  0  0  0  0  0  0  0  0  0
   35.9590   24.3630   31.1670 H   0  0  0  0  0  0  0  0  0  0  0  0
   35.3430   21.9790   31.4810 H   0  0  0  0  0  0  0  0  0  0  0  0
   36.5800   20.6330   33.1860 H   0  0  0  0  0  0  0  0  0  0  0  0
   37.2450   25.5050   35.9310 F   0  0  0  0  0  0  0  0  0  0  0  0
   38.0540   24.6220   36.5490 C   0  0  0  0  0  0  0  0  0  0  0  0
   39.0080   23.9570   35.7860 C   0  0  0  0  0  0  0  0  0  0  0  0
   39.8280   23.0510   36.4640 C   0  0  0  0  0  0  0  0  0  0  0  0
   40.5650   22.5430   35.8530 H   0  0  0  0  0  0  0  0  0  0  0  0
   39.7460   22.7810   37.8190 C   0  0  0  0  0  0  0  0  0  0  0  0
   40.4550   22.0480   38.2050 H   0  0  0  0  0  0  0  0  0  0  0  0
   38.7870   23.4570   38.5490 C   0  0  0  0  0  3  0  0  0  0  0  0
   37.9710   24.3560   37.8930 C   0  0  0  0  0  3  0  0  0  0  0  0
  1 14  1  0  0  0  0
  2  1  2  0  0  0  0
  3  4  2  0  0  0  0
  3  8  1  0  0  0  0
  4  5  1  0  0  0  0
  5 11  1  0  0  0  0
  5  6  2  0  0  0  0
  7  6  1  0  0  0  0
  7  1  1  0  0  0  0
  8  7  2  0  0  0  0
  9  3  1  0  0  0  0
 10  4  1  0  0  0  0
 12 13  1  0  0  0  0
 13 20  1  0  0  0  0
 14 15  1  0  0  0  0
 14 13  2  0  0  0  0
 15 17  2  0  0  0  0
 16 15  1  0  0  0  0
 17 18  1  0  0  0  0
 17 19  1  0  0  0  0
 20 19  2  0  0  0  0
M  END
>  <minimizedAffinity>
-4.3389945

$$$$

 OpenBabel03272508433D

 20 21  0  0  0  0  0  0  0  0999 V2000
   38.9020   22.9110   35.2080 C   0  0  0  0  0  0  0  0  0  0  0  0
   37.9410   22.2800   34.7180 O   0  0  0  0  0  0  0  0  0  0  0  0
   41.3440   21.6440   37.5760 C   0  0  0  0  0  0  0  0  0  0  0  0
   42.3790   21.1700   36.7580 C   0  0  0  0  0  0  0  0  0  0  0  0
   42.2320   21.2890   35.3650 C   0  0  0  0  0  0  0  0  0  0  0  0
   41.0900   21.8620   34.8800 N   0  0  0  0  0  0  0  0  0  0  0  0
   40.1280   22.3010   35.6930 C   0  0  0  0  0  0  0  0  0  0  0  0
   40.2460   22.1980   37.0120 N   0  0  0  0  0  0  0  0  0  0  0  0
   41.5200   21.5210   38.6360 H   0  0  0  0  0  0  0  0  0  0  0  0
   43.2960   20.7120   37.1020 H   0  0  0  0  0  0  0  0  0  0  0  0
   42.9600   20.9610   34.6380 H   0  0  0  0  0  0  0  0  0  0  0  0
   37.2660   24.3450   37.0300 F   0  0  0  0  0  0  0  0  0  0  0  0
   38.1110   25.0560   36.2590 C   0  0  0  0  0  0  0  0  0  0  0  0
   38.9210   24.3680   35.3620 C   0  0  0  0  0  0  0  0  0  0  0  0
   39.7830   25.1410   34.5800 C   0  0  0  0  0  0  0  0  0  0  0  0
   40.4050   24.5870   33.8870 H   0  0  0  0  0  0  0  0  0  0  0  0
   39.8780   26.5200   34.6470 C   0  0  0  0  0  0  0  0  0  0  0  0
   40.5990   26.9840   33.9730 H   0  0  0  0  0  0  0  0  0  0  0  0
   39.0620   27.1750   35.5490 C   0  0  0  0  0  3  0  0  0  0  0  0
   38.2040   26.4240   36.3270 C   0  0  0  0  0  3  0  0  0  0  0  0
  1 14  1  0  0  0  0
  1  7  1  0  0  0  0
  2  1  2  0  0  0  0
  3  9  1  0  0  0  0
  4 10  1  0  0  0  0
  4  3  2  0  0  0  0
  5  4  1  0  0  0  0
  6  5  2  0  0  0  0
  6  7  1  0  0  0  0
  7  8  2  0  0  0  0
  8  3  1  0  0  0  0
 11  5  1  0  0  0  0
 13 20  1  0  0  0  0
 13 12  1  0  0  0  0
 14 13  2  0  0  0  0
 15 17  2  0  0  0  0
 15 14  1  0  0  0  0
 16 15  1  0  0  0  0
 17 19  1  0  0  0  0
 18 17  1  0  0  0  0
 19 20  2  0  0  0  0
M  END
>  <minimizedAffinity>
-4.28870201

$$$$

 OpenBabel03272508433D

 20 21  0  0  0  0  0  0  0  0999 V2000
   39.0950   24.2300   34.4240 C   0  0  0  0  0  0  0  0  0  0  0  0
   39.9160   25.0320   33.9300 O   0  0  0  0  0  0  0  0  0  0  0  0
   36.5030   23.6150   31.9580 C   0  0  0  0  0  0  0  0  0  0  0  0
   36.1840   22.2630   32.1480 C   0  0  0  0  0  0  0  0  0  0  0  0
   36.8750   21.5510   33.1430 C   0  0  0  0  0  0  0  0  0  0  0  0
   37.8210   22.2130   33.8760 N   0  0  0  0  0  0  0  0  0  0  0  0
   38.0940   23.5000   33.6640 C   0  0  0  0  0  0  0  0  0  0  0  0
   37.4540   24.1920   32.7290 N   0  0  0  0  0  0  0  0  0  0  0  0
   35.9350   24.1030   31.1770 H   0  0  0  0  0  0  0  0  0  0  0  0
   35.4450   21.7050   31.5900 H   0  0  0  0  0  0  0  0  0  0  0  0
   36.7170   20.5090   33.3790 H   0  0  0  0  0  0  0  0  0  0  0  0
   40.8980   22.4950   35.7630 F   0  0  0  0  0  0  0  0  0  0  0  0
   39.9210   23.0630   36.4950 C   0  0  0  0  0  0  0  0  0  0  0  0
   39.0290   23.9170   35.8540 C   0  0  0  0  0  0  0  0  0  0  0  0
   38.0300   24.4860   36.6470 C   0  0  0  0  0  0  0  0  0  0  0  0
   37.3450   25.1470   36.1310 H   0  0  0  0  0  0  0  0  0  0  0  0
   37.8800   24.2560   38.0040 C   0  0  0  0  0  0  0  0  0  0  0  0
   37.0510   24.7720   38.4890 H   0  0  0  0  0  0  0  0  0  0  0  0
   38.7820   23.4040   38.6130 C   0  0  0  0  0  3  0  0  0  0  0  0
   39.7740   22.8340   37.8400 C   0  0  0  0  0  3  0  0  0  0  0  0
  1 14  1  0  0  0  0
  2  1  2  0  0  0  0
  3  4  2  0  0  0  0
  3  8  1  0  0  0  0
  4  5  1  0  0  0  0
  5 11  1  0  0  0  0
  5  6  2  0  0  0  0
  7  6  1  0  0  0  0
  7  1  1  0  0  0  0
  8  7  2  0  0  0  0
  9  3  1  0  0  0  0
 10  4  1  0  0  0  0
 12 13  1  0  0  0  0
 13 20  1  0  0  0  0
 14 13  2  0  0  0  0
 14 15  1  0  0  0  0
 15 17  2  0  0  0  0
 16 15  1  0  0  0  0
 17 18  1  0  0  0  0
 17 19  1  0  0  0  0
 20 19  2  0  0  0  0
M  END
>  <minimizedAffinity>
-4.24992657

$$$$

 OpenBabel03272508433D

 20 21  0  0  0  0  0  0  0  0999 V2000
   38.1590   23.4530   34.5020 C   0  0  0  0  0  0  0  0  0  0  0  0
   37.7610   22.4490   33.8720 O   0  0  0  0  0  0  0  0  0  0  0  0
   37.3840   26.5020   32.6920 C   0  0  0  0  0  0  0  0  0  0  0  0
   38.5730   27.2410   32.7700 C   0  0  0  0  0  0  0  0  0  0  0  0
   39.6610   26.6780   33.4590 C   0  0  0  0  0  0  0  0  0  0  0  0
   39.5050   25.4390   34.0170 N   0  0  0  0  0  0  0  0  0  0  0  0
   38.3570   24.7690   33.9190 C   0  0  0  0  0  0  0  0  0  0  0  0
   37.3160   25.2820   33.2730 N   0  0  0  0  0  0  0  0  0  0  0  0
   36.5880   26.9930   32.1490 H   0  0  0  0  0  0  0  0  0  0  0  0
   38.7370   28.2210   32.3440 H   0  0  0  0  0  0  0  0  0  0  0  0
   40.6240   27.1510   33.5850 H   0  0  0  0  0  0  0  0  0  0  0  0
   40.3840   22.0880   35.6170 F   0  0  0  0  0  0  0  0  0  0  0  0
   39.5780   22.7600   36.4620 C   0  0  0  0  0  0  0  0  0  0  0  0
   38.4840   23.4350   35.9310 C   0  0  0  0  0  0  0  0  0  0  0  0
   37.6720   24.1190   36.8390 C   0  0  0  0  0  0  0  0  0  0  0  0
   36.8250   24.6380   36.4070 H   0  0  0  0  0  0  0  0  0  0  0  0
   37.8900   24.1660   38.2050 C   0  0  0  0  0  0  0  0  0  0  0  0
   37.1700   24.7420   38.7860 H   0  0  0  0  0  0  0  0  0  0  0  0
   38.9860   23.4860   38.7020 C   0  0  0  0  0  3  0  0  0  0  0  0
   39.7960   22.8050   37.8160 C   0  0  0  0  0  3  0  0  0  0  0  0
  1 14  1  0  0  0  0
  2  1  2  0  0  0  0
  3  4  2  0  0  0  0
  3  8  1  0  0  0  0
  4  5  1  0  0  0  0
  5 11  1  0  0  0  0
  5  6  2  0  0  0  0
  7  6  1  0  0  0  0
  7  1  1  0  0  0  0
  8  7  2  0  0  0  0
  9  3  1  0  0  0  0
 10  4  1  0  0  0  0
 12 13  1  0  0  0  0
 13 20  1  0  0  0  0
 14 13  2  0  0  0  0
 14 15  1  0  0  0  0
 15 17  2  0  0  0  0
 16 15  1  0  0  0  0
 17 19  1  0  0  0  0
 17 18  1  0  0  0  0
 20 19  2  0  0  0  0
M  END
>  <minimizedAffinity>
-4.21841574

$$$$

 OpenBabel03272508433D

 20 21  0  0  0  0  0  0  0  0999 V2000
   39.1680   26.3690   35.0250 C   0  0  0  0  0  0  0  0  0  0  0  0
   40.3360   26.7710   35.2140 O   0  0  0  0  0  0  0  0  0  0  0  0
   38.1650   22.8800   35.0320 C   0  0  0  0  0  0  0  0  0  0  0  0
   37.6690   22.6840   36.3290 C   0  0  0  0  0  0  0  0  0  0  0  0
   37.6820   23.7740   37.2160 C   0  0  0  0  0  0  0  0  0  0  0  0
   38.1740   24.9680   36.7700 N   0  0  0  0  0  0  0  0  0  0  0  0
   38.6360   25.1130   35.5280 C   0  0  0  0  0  0  0  0  0  0  0  0
   38.6340   24.0970   34.6730 N   0  0  0  0  0  0  0  0  0  0  0  0
   38.1260   22.0020   34.4020 H   0  0  0  0  0  0  0  0  0  0  0  0
   37.2720   21.7570   36.7200 H   0  0  0  0  0  0  0  0  0  0  0  0
   37.3280   23.7430   38.2360 H   0  0  0  0  0  0  0  0  0  0  0  0
   39.1360   26.5580   32.1930 F   0  0  0  0  0  0  0  0  0  0  0  0
   38.1660   27.2010   32.8720 C   0  0  0  0  0  0  0  0  0  0  0  0
   38.1670   27.1170   34.2600 C   0  0  0  0  0  0  0  0  0  0  0  0
   37.1450   27.7980   34.9270 C   0  0  0  0  0  0  0  0  0  0  0  0
   37.1630   27.7210   36.0080 H   0  0  0  0  0  0  0  0  0  0  0  0
   36.1530   28.5320   34.3010 C   0  0  0  0  0  0  0  0  0  0  0  0
   35.4230   29.0080   34.9560 H   0  0  0  0  0  0  0  0  0  0  0  0
   36.1780   28.5950   32.9210 C   0  0  0  0  0  3  0  0  0  0  0  0
   37.1830   27.9290   32.2480 C   0  0  0  0  0  3  0  0  0  0  0  0
  1  2  2  0  0  0  0
  1  7  1  0  0  0  0
  3  4  1  0  0  0  0
  4 10  1  0  0  0  0
  4  5  2  0  0  0  0
  5 11  1  0  0  0  0
  6  5  1  0  0  0  0
  7  6  2  0  0  0  0
  8  3  2  0  0  0  0
  8  7  1  0  0  0  0
  9  3  1  0  0  0  0
 12 13  1  0  0  0  0
 13 14  1  0  0  0  0
 14 15  2  0  0  0  0
 14  1  1  0  0  0  0
 15 16  1  0  0  0  0
 17 15  1  0  0  0  0
 17 18  1  0  0  0  0
 19 17  2  0  0  0  0
 20 13  2  0  0  0  0
 20 19  1  0  0  0  0
M  END
>  <minimizedAffinity>
-4.21358728

$$$$
