
 OpenBabel03272503243D

 32 34  0  0  1  0  0  0  0  0999 V2000
   36.4950   30.0290   49.0320 N   0  0  0  0  0  0  0  0  0  0  0  0
   36.9960   31.3330   48.7920 C   0  0  1  0  0  0  0  0  0  0  0  0
   37.7170   31.7300   50.0490 C   0  0  0  0  0  0  0  0  0  0  0  0
   37.5590   30.4880   50.9710 C   0  0  0  0  0  0  0  0  0  0  0  0
   37.4230   29.4120   49.9360 C   0  0  0  0  0  0  0  0  0  0  0  0
   36.0600   32.0300   48.7440 H   0  0  0  0  0  0  0  0  0  0  0  0
   37.1930   32.5490   50.5770 H   0  0  0  0  0  0  0  0  0  0  0  0
   38.7870   31.9520   49.9010 H   0  0  0  0  0  0  0  0  0  0  0  0
   38.5260   30.3810   51.5090 H   0  0  0  0  0  0  0  0  0  0  0  0
   36.6880   30.6160   51.6270 H   0  0  0  0  0  0  0  0  0  0  0  0
   38.4140   29.2580   49.4760 H   0  0  0  0  0  0  0  0  0  0  0  0
   37.0420   28.4560   50.3400 H   0  0  0  0  0  0  0  0  0  0  0  0
   35.3000   29.4830   48.4800 C   0  0  0  0  0  0  0  0  0  0  0  0
   34.5080   30.2650   47.6630 C   0  0  0  0  0  0  0  0  0  0  0  0
   33.3470   29.7390   47.1060 C   0  0  0  0  0  0  0  0  0  0  0  0
   33.0610   28.4250   47.4220 N   0  0  0  0  0  0  0  0  0  0  0  0
   33.8500   27.6790   48.2230 C   0  0  0  0  0  0  0  0  0  0  0  0
   34.9850   28.2080   48.7620 N   0  0  0  0  0  0  0  0  0  0  0  0
   34.7090   31.2750   47.4090 H   0  0  0  0  0  0  0  0  0  0  0  0
   32.7110   30.3290   46.4640 H   0  0  0  0  0  0  0  0  0  0  0  0
   33.6150   26.6630   48.4580 H   0  0  0  0  0  0  0  0  0  0  0  0
   37.6810   31.6030   47.5520 C   0  0  0  0  0  0  0  0  0  0  0  0
   38.3320   32.6160   47.4160 O   0  0  0  0  0  0  0  0  0  0  0  0
   40.2020   30.7770   46.3540 F   0  0  0  0  0  0  0  0  0  0  0  0
   39.0440   30.5400   45.7330 C   0  0  0  0  0  0  0  0  0  0  0  0
   37.8360   30.9680   46.2430 C   0  0  0  0  0  0  0  0  0  0  0  0
   36.7710   30.6530   45.3960 C   0  0  0  0  0  0  0  0  0  0  0  0
   35.7760   30.9610   45.7310 H   0  0  0  0  0  0  0  0  0  0  0  0
   36.8520   30.0060   44.2070 C   0  0  0  0  0  0  0  0  0  0  0  0
   35.9580   29.8120   43.6280 H   0  0  0  0  0  0  0  0  0  0  0  0
   38.0840   29.6210   43.7870 C   0  0  0  0  0  0  0  0  0  0  0  0
   39.2030   29.8790   44.5360 C   0  0  0  0  0  0  0  0  0  0  0  0
  1  5  1  0  0  0  0
  2  6  1  6  0  0  0
  2  1  1  0  0  0  0
  2  3  1  0  0  0  0
  3  7  1  0  0  0  0
  3  4  1  0  0  0  0
  4  9  1  0  0  0  0
  4 10  1  0  0  0  0
  5 12  1  0  0  0  0
  5  4  1  0  0  0  0
  8  3  1  0  0  0  0
 11  5  1  0  0  0  0
 13 18  1  0  0  0  0
 13  1  1  0  0  0  0
 14 13  2  0  0  0  0
 15 16  2  0  0  0  0
 15 14  1  0  0  0  0
 16 17  1  0  0  0  0
 17 21  1  0  0  0  0
 17 18  2  0  0  0  0
 19 14  1  0  0  0  0
 20 15  1  0  0  0  0
 22  2  1  0  0  0  0
 23 22  2  0  0  0  0
 25 26  1  0  0  0  0
 25 24  1  0  0  0  0
 26 22  1  0  0  0  0
 27 28  1  0  0  0  0
 27 26  2  0  0  0  0
 29 27  1  0  0  0  0
 30 29  1  0  0  0  0
 31 29  2  0  0  0  0
 31 32  1  0  0  0  0
 32 25  2  0  0  0  0
M  END
>  <minimizedAffinity>
-5.65365696

>  <minimizedRMSD>
0.867314517

$$$$
