
 OpenBabel03262522083D

 20 21  0  0  0  0  0  0  0  0999 V2000
   37.1110   30.9400   47.6890 C   0  0  0  0  0  0  0  0  0  0  0  0
   36.9790   30.6310   46.5070 O   0  0  0  0  0  0  0  0  0  0  0  0
   37.8370   32.7820   49.1420 C   0  0  0  0  0  0  0  0  0  0  0  0
   38.0290   32.0480   47.9550 C   0  0  0  0  0  0  0  0  0  0  0  0
   39.0730   32.4240   47.1270 C   0  0  0  0  0  0  0  0  0  0  0  0
   39.8620   33.4780   47.4920 N   0  0  0  0  0  0  0  0  0  0  0  0
   39.6560   34.1660   48.6380 C   0  0  0  0  0  0  0  0  0  0  0  0
   38.6500   33.8300   49.4700 N   0  0  0  0  0  0  0  0  0  0  0  0
   37.0400   32.5570   49.8560 H   0  0  0  0  0  0  0  0  0  0  0  0
   39.1880   31.8490   46.2410 H   0  0  0  0  0  0  0  0  0  0  0  0
   40.3730   34.9630   48.7620 H   0  0  0  0  0  0  0  0  0  0  0  0
   38.5230   29.7100   49.8320 F   0  0  0  0  0  0  0  0  0  0  0  0
   37.1790   29.7590   49.9030 C   0  0  0  0  0  0  0  0  0  0  0  0
   36.4750   30.3510   48.8740 C   0  0  0  0  0  0  0  0  0  0  0  0
   35.0880   30.4180   48.9170 C   0  0  0  0  0  0  0  0  0  0  0  0
   34.5310   30.8900   48.0970 H   0  0  0  0  0  0  0  0  0  0  0  0
   34.3500   29.9040   49.9730 C   0  0  0  0  0  0  0  0  0  0  0  0
   33.2880   29.9890   49.9430 H   0  0  0  0  0  0  0  0  0  0  0  0
   35.0760   29.3170   50.9910 C   0  0  0  0  0  0  0  0  0  0  0  0
   36.4620   29.2420   50.9630 C   0  0  0  0  0  0  0  0  0  0  0  0
  1  4  1  0  0  0  0
  1 14  1  0  0  0  0
  2  1  2  0  0  0  0
  3  8  1  0  0  0  0
  3  9  1  0  0  0  0
  4  3  2  0  0  0  0
  5  6  2  0  0  0  0
  5  4  1  0  0  0  0
  6  7  1  0  0  0  0
  7 11  1  0  0  0  0
  7  8  2  0  0  0  0
 10  5  1  0  0  0  0
 12 13  1  0  0  0  0
 13 20  1  0  0  0  0
 14 15  1  0  0  0  0
 14 13  2  0  0  0  0
 15 17  2  0  0  0  0
 16 15  1  0  0  0  0
 17 19  1  0  0  0  0
 18 17  1  0  0  0  0
 20 19  2  0  0  0  0
M  END
>  <minimizedAffinity>
-5.19272709

>  <minimizedRMSD>
4.6479969

$$$$
