REMARK  Name = 
REMARK  3 active torsions:
REMARK  status: ('A' for Active; 'I' for Inactive)
REMARK    1  A    between atoms: C_1  and  C_7
REMARK    2  A    between atoms: C_6  and  N_15
REMARK    3  A    between atoms: C_13  and  C_32
REMARK                            x       y       z     vdW  Elec       q    Type
REMARK                         _______ _______ _______ _____ _____    ______ ____
ROOT
ATOM      1  C   UNL     1      36.077  30.688  49.066  0.00  0.00    +0.000 C 
ATOM      2  C   UNL     1      37.014  31.643  49.743  0.00  0.00    +0.000 C 
ATOM      3  C   UNL     1      38.041  30.945  50.605  0.00  0.00    +0.000 C 
ATOM      4  C   UNL     1      37.375  30.050  51.640  0.00  0.00    +0.000 C 
ATOM      5  C   UNL     1      36.112  29.385  51.152  0.00  0.00    +0.000 C 
ATOM      6  C   UNL     1      36.192  29.302  49.614  0.00  0.00    +0.000 C 
ATOM      7  H   UNL     1      34.984  30.993  49.152  0.00  0.00    +0.000 HD
ATOM      8  H   UNL     1      37.447  32.421  49.149  0.00  0.00    +0.000 HD
ATOM      9  H   UNL     1      36.352  32.187  50.498  0.00  0.00    +0.000 HD
ATOM     10  H   UNL     1      38.816  30.408  50.058  0.00  0.00    +0.000 HD
ATOM     11  H   UNL     1      38.555  31.749  51.170  0.00  0.00    +0.000 HD
ATOM     12  H   UNL     1      37.239  30.596  52.601  0.00  0.00    +0.000 HD
ATOM     13  H   UNL     1      38.099  29.228  51.847  0.00  0.00    +0.000 HD
ATOM     14  H   UNL     1      36.019  28.378  51.591  0.00  0.00    +0.000 HD
ATOM     15  H   UNL     1      35.243  30.001  51.417  0.00  0.00    +0.000 HD
ATOM     16  H   UNL     1      37.178  28.923  49.507  0.00  0.00    +0.000 HD
ENDROOT
BRANCH   1  17
ATOM     17  C   UNL     1      36.316  30.646  47.603  0.00  0.00    +0.000 A 
ATOM     18  C   UNL     1      37.570  31.124  47.178  0.00  0.00    +0.000 A 
ATOM     19  C   UNL     1      37.824  31.093  45.802  0.00  0.00    +0.000 A 
ATOM     20  N   UNL     1      36.856  30.606  44.958  0.00  0.00    +0.000 NA
ATOM     21  C   UNL     1      35.647  30.149  45.426  0.00  0.00    +0.000 A 
ATOM     22  N   UNL     1      35.402  30.180  46.746  0.00  0.00    +0.000 NA
ATOM     23  H   UNL     1      38.410  31.517  47.713  0.00  0.00    +0.000 HD
ATOM     24  H   UNL     1      38.740  31.428  45.336  0.00  0.00    +0.000 HD
ATOM     25  H   UNL     1      34.924  29.777  44.720  0.00  0.00    +0.000 HD
ENDBRANCH   1  17
BRANCH   6  28
ATOM     26  C   UNL     1      33.947  28.173  49.246  0.00  0.00    +0.000 C 
ATOM     27  O   UNL     1      33.113  28.893  49.931  0.00  0.00    +0.000 OA
ATOM     28  N   UNL     1      35.322  28.359  49.019  0.00  0.00    +0.000 N 
ATOM     29  H   UNL     1      35.734  27.722  48.302  0.00  0.00    +0.000 HD
BRANCH  26  32
ATOM     30  F   UNL     1      33.173  27.810  46.435  0.00  0.00    +0.000 F 
ATOM     31  C   UNL     1      32.817  26.904  47.370  0.00  0.00    +0.000 A 
ATOM     32  C   UNL     1      33.183  27.033  48.690  0.00  0.00    +0.000 A 
ATOM     33  C   UNL     1      32.723  25.981  49.441  0.00  0.00    +0.000 A 
ATOM     34  H   UNL     1      32.940  25.949  50.520  0.00  0.00    +0.000 HD
ATOM     35  C   UNL     1      31.988  24.907  49.001  0.00  0.00    +0.000 A 
ATOM     36  H   UNL     1      31.661  24.116  49.652  0.00  0.00    +0.000 HD
ATOM     37  C   UNL     1      31.669  24.864  47.662  0.00  0.00    +0.000 A 
ATOM     38  C   UNL     1      32.093  25.877  46.853  0.00  0.00    +0.000 A 
ENDBRANCH  26  32
ENDBRANCH   6  28
TORSDOF 3
