
 OpenBabel03272503043D

 32 34  0  0  0  0  0  0  0  0999 V2000
   38.4780   30.4460   47.3560 F   0  0  0  0  0  0  0  0  0  0  0  0
   38.7440   31.6720   47.8410 C   0  0  0  0  0  0  0  0  0  0  0  0
   38.1730   32.0770   49.0160 C   0  0  0  0  0  0  0  0  0  0  0  0
   38.4820   33.3380   49.4620 C   0  0  0  0  0  0  0  0  0  0  0  0
   39.3290   34.1850   48.7770 C   0  0  0  0  0  0  0  0  0  0  0  0
   39.9020   33.7670   47.5900 C   0  0  0  0  0  0  0  0  0  0  0  0
   39.5950   32.5020   47.1360 C   0  0  0  0  0  0  0  0  0  0  0  0
   38.0250   33.6640   50.4060 H   0  0  0  0  0  0  0  0  0  0  0  0
   39.5760   35.1780   49.1230 H   0  0  0  0  0  0  0  0  0  0  0  0
   40.5770   34.3380   46.9670 H   0  0  0  0  0  0  0  0  0  0  0  0
   36.7820   29.5770   51.4870 C   0  0  0  0  0  0  0  0  0  0  0  0
   37.6560   30.4650   50.8440 C   0  0  0  0  0  0  0  0  0  0  0  0
   37.2840   31.1500   49.7040 C   0  0  0  0  0  0  0  0  0  0  0  0
   36.0160   30.9250   49.2260 N   0  0  0  0  0  0  0  0  0  0  0  0
   35.1820   30.0670   49.8570 C   0  0  0  0  0  0  0  0  0  0  0  0
   35.5590   29.4090   50.9600 N   0  0  0  0  0  0  0  0  0  0  0  0
   37.1390   29.0730   52.3750 H   0  0  0  0  0  0  0  0  0  0  0  0
   38.6700   30.6620   51.2010 H   0  0  0  0  0  0  0  0  0  0  0  0
   34.1760   29.8660   49.5060 H   0  0  0  0  0  0  0  0  0  0  0  0
   39.3160   32.1240   44.7560 C   0  0  0  0  0  0  0  0  0  0  0  0
   38.1770   32.6430   45.0280 O   0  0  0  0  0  0  0  0  0  0  0  0
   40.1570   32.0200   45.8990 N   0  0  0  0  0  0  0  0  0  0  0  0
   41.1040   31.6120   45.7840 H   0  0  0  0  0  0  0  0  0  0  0  0
   38.5450   33.4000   42.2750 F   0  0  0  0  0  0  0  0  0  0  0  0
   39.2870   32.2970   42.2100 C   0  0  0  0  0  0  0  0  0  0  0  0
   39.6340   31.7190   43.4080 C   0  0  0  0  0  0  0  0  0  0  0  0
   40.4110   30.5640   43.2730 C   0  0  0  0  0  0  0  0  0  0  0  0
   40.7560   30.0050   44.1540 H   0  0  0  0  0  0  0  0  0  0  0  0
   40.7870   30.0650   42.0460 C   0  0  0  0  0  0  0  0  0  0  0  0
   41.3890   29.1690   41.9970 H   0  0  0  0  0  0  0  0  0  0  0  0
   40.4100   30.6880   40.8750 C   0  0  0  0  0  0  0  0  0  0  0  0
   39.6430   31.8260   40.9670 C   0  0  0  0  0  0  0  0  0  0  0  0
  1  2  1  0  0  0  0
  2  3  1  0  0  0  0
  3  4  2  0  0  0  0
  3 13  1  0  0  0  0
  4  8  1  0  0  0  0
  5  9  1  0  0  0  0
  5  4  1  0  0  0  0
  6  5  2  0  0  0  0
  7  6  1  0  0  0  0
  7  2  2  0  0  0  0
 10  6  1  0  0  0  0
 11 17  1  0  0  0  0
 12 18  1  0  0  0  0
 12 11  2  0  0  0  0
 13 12  1  0  0  0  0
 14 13  2  0  0  0  0
 14 15  1  0  0  0  0
 15 16  2  0  0  0  0
 16 11  1  0  0  0  0
 19 15  1  0  0  0  0
 20 21  2  0  0  0  0
 20 22  1  0  0  0  0
 22  7  1  0  0  0  0
 23 22  1  0  0  0  0
 25 24  1  0  0  0  0
 25 26  1  0  0  0  0
 26 20  1  0  0  0  0
 27 26  2  0  0  0  0
 27 28  1  0  0  0  0
 29 27  1  0  0  0  0
 30 29  1  0  0  0  0
 31 32  1  0  0  0  0
 31 29  2  0  0  0  0
 32 25  2  0  0  0  0
M  END
>  <minimizedAffinity>
-6.92750549

>  <minimizedRMSD>
0.489446282

$$$$
