
     RDKit          3D

 22 23  0  0  0  0  0  0  0  0999 V2000
   37.2643   30.1843   51.4357 C   0  0  0  0  0  0  0  0  0  0  0  0
   38.0959   30.7515   50.4607 C   0  0  0  0  0  0  0  0  0  0  0  0
   37.8100   30.4903   49.1096 C   0  0  0  0  0  0  0  0  0  0  0  0
   36.7360   29.6966   48.8159 N   0  0  0  0  0  0  0  0  0  0  0  0
   35.9690   29.1757   49.7743 C   0  0  0  0  0  0  0  0  0  0  0  0
   36.2208   29.4096   51.0574 N   0  0  0  0  0  0  0  0  0  0  0  0
   34.8233   28.3281   49.4940 C   0  0  0  0  0  0  0  0  0  0  0  0
   33.6306   28.6968   49.5713 O   0  0  0  0  0  0  0  0  0  0  0  0
   37.5401   30.4251   52.4538 H   0  0  0  0  0  0  0  0  0  0  0  0
   38.9531   31.3832   50.6522 H   0  0  0  0  0  0  0  0  0  0  0  0
   38.3778   30.8709   48.2738 H   0  0  0  0  0  0  0  0  0  0  0  0
   35.9052   27.6508   46.9589 F   0  0  0  0  0  0  0  0  0  0  0  0
   35.7568   26.6591   47.8580 C   0  0  0  0  0  0  0  0  0  0  0  0
   35.2278   26.9749   49.1055 C   0  0  0  0  0  0  0  0  0  0  0  0
   35.0898   25.9192   50.0094 C   0  0  0  0  0  0  0  0  0  0  0  0
   34.6761   26.1842   50.9758 H   0  0  0  0  0  0  0  0  0  0  0  0
   35.4406   24.6072   49.7425 C   0  0  0  0  0  0  0  0  0  0  0  0
   35.2739   23.8926   50.5499 H   0  0  0  0  0  0  0  0  0  0  0  0
   35.9634   24.3248   48.4949 C   0  0  0  0  0  0  0  0  0  0  0  0
   36.1054   25.3586   47.5914 C   0  0  0  0  0  0  0  0  0  0  0  0
   36.2202   23.2956   48.3346 H   0  0  0  0  0  0  0  0  0  0  0  0
   36.5157   25.1179   46.6216 H   0  0  0  0  0  0  0  0  0  0  0  0
  2  1  2  0
  3  2  1  0
  4  3  2  0
  4  5  1  0
  5  6  2  0
  6  1  1  0
  7  8  2  0
  7  5  1  0
  1  9  1  0
  2 10  1  0
  3 11  1  0
 12 13  1  0
 13 14  2  0
 14 15  1  0
 15 16  1  0
 15 17  2  0
 17 18  1  0
 17 19  1  0
 19 20  2  0
 20 13  1  0
 19 21  1  0
 20 22  1  0
  7 14  1  0
M  ISO  5   9  14  10  14  11  14  16  15  18  16
M  END
>  <DihAtoms>  (1) 
7,6,13,12

>  <DihDeg>  (1) 
45.00126427750544

$$$$
