
     RDKit          3D

 43 46  0  0  0  0  0  0  0  0999 V2000
   38.2664   32.2938   47.3956 C   0  0  0  0  0  0  0  0  0  0  0  0
   37.9091   32.7353   48.6552 C   0  0  0  0  0  0  0  0  0  0  0  0
   38.6721   33.6889   49.3105 C   0  0  0  0  0  0  0  0  0  0  0  0
   39.8081   34.2013   48.6855 C   0  0  0  0  0  0  0  0  0  0  0  0
   40.1599   33.7552   47.4252 C   0  0  0  0  0  0  0  0  0  0  0  0
   39.3746   32.8110   46.8166 C   0  0  0  0  0  0  0  0  0  0  0  0
   39.7641   32.3379   45.4575 C   0  0  0  0  0  0  0  0  0  0  0  0
   40.6178   31.3246   45.0928 C   0  0  0  0  0  0  0  0  0  0  0  0
   40.6428   31.2821   43.7015 C   0  0  0  0  0  0  0  0  0  0  0  0
   39.7901   32.2871   43.3048 C   0  0  0  0  0  0  0  0  0  0  0  0
   39.2754   32.9058   44.3548 O   0  0  0  0  0  0  0  0  0  0  0  0
   36.7501   30.5215   46.2904 N   0  0  0  0  0  0  0  0  0  0  0  0
   37.4239   31.3077   46.7910 C   0  0  0  0  0  0  0  0  0  0  0  0
   36.8134   32.3188   49.3953 O   0  0  0  0  0  0  0  0  0  0  0  0
   36.7857   31.2114   50.1651 C   0  0  0  0  0  0  0  0  0  0  0  0
   35.6512   30.4170   49.9596 C   0  0  0  0  0  0  0  0  0  0  0  0
   35.4360   29.2533   50.6433 C   0  0  0  0  0  0  0  0  0  0  0  0
   36.3811   28.8826   51.5498 N   0  0  0  0  0  0  0  0  0  0  0  0
   37.4900   29.6524   51.7545 C   0  0  0  0  0  0  0  0  0  0  0  0
   37.6698   30.7781   51.0746 N   0  0  0  0  0  0  0  0  0  0  0  0
   34.1332   29.7302   48.1406 C   0  0  0  0  0  0  0  0  0  0  0  0
   34.5629   28.5188   47.8810 O   0  0  0  0  0  0  0  0  0  0  0  0
   34.6253   30.6991   49.0370 N   0  0  0  0  0  0  0  0  0  0  0  0
   38.4611   34.0763   50.2775 H   0  0  0  0  0  0  0  0  0  0  0  0
   40.4219   34.9462   49.1736 H   0  0  0  0  0  0  0  0  0  0  0  0
   41.0488   34.1763   46.9719 H   0  0  0  0  0  0  0  0  0  0  0  0
   41.1459   30.7066   45.8119 H   0  0  0  0  0  0  0  0  0  0  0  0
   41.2378   30.5731   43.1573 H   0  0  0  0  0  0  0  0  0  0  0  0
   39.6065   32.4947   42.2565 H   0  0  0  0  0  0  0  0  0  0  0  0
   34.6071   28.6026   50.5442 H   0  0  0  0  0  0  0  0  0  0  0  0
   38.1996   29.2969   52.4898 H   0  0  0  0  0  0  0  0  0  0  0  0
   34.3407   31.6794   49.1375 H   0  0  0  0  0  0  0  0  0  0  0  0
   34.1131   30.8137   45.4284 F   0  0  0  0  0  0  0  0  0  0  0  0
   32.9460   30.5292   46.0404 C   0  0  0  0  0  0  0  0  0  0  0  0
   32.9591   30.0331   47.3248 C   0  0  0  0  0  0  0  0  0  0  0  0
   31.6594   29.8241   47.7717 C   0  0  0  0  0  0  0  0  0  0  0  0
   31.4858   29.4288   48.7816 H   0  0  0  0  0  0  0  0  0  0  0  0
   30.5008   30.0628   47.0698 C   0  0  0  0  0  0  0  0  0  0  0  0
   29.5255   29.8737   47.4881 H   0  0  0  0  0  0  0  0  0  0  0  0
   30.5968   30.5575   45.7959 C   0  0  0  0  0  0  0  0  0  0  0  0
   31.8532   30.7917   45.2811 C   0  0  0  0  0  0  0  0  0  0  0  0
   29.7065   30.7448   45.2455 H   0  0  0  0  0  0  0  0  0  0  0  0
   31.8865   31.1801   44.2776 H   0  0  0  0  0  0  0  0  0  0  0  0
  1  2  2  0
  2  3  1  0
  2 14  1  0
  4  3  2  0
  5  4  1  0
  6  1  1  0
  6  5  2  0
  7  6  1  0
  8  7  2  0
  9  8  1  0
 10  9  2  0
 10 11  1  0
 11  7  1  0
 12 13  3  0
 13  1  1  0
 14 15  1  0
 15 20  2  0
 16 15  1  0
 16 17  2  0
 17 18  1  0
 18 19  2  0
 20 19  1  0
 21 23  1  0
 22 21  2  0
 23 16  1  0
  3 24  1  0
  4 25  1  0
  5 26  1  0
  8 27  1  0
  9 28  1  0
 10 29  1  0
 17 30  1  0
 19 31  1  0
 23 32  1  0
 33 34  1  0
 34 35  2  0
 35 36  1  0
 36 37  1  0
 36 38  2  0
 38 39  1  0
 38 40  1  0
 40 41  2  0
 41 34  1  0
 40 42  1  0
 41 43  1  0
 21 35  1  0
M  ISO  8  24  14  25  14  26  14  27  14  28  14  29  14  30  14  31  14
M  ISO  2  37  15  39  16
M  END
>  <DihAtoms>  (1) 
22,20,34,33

>  <DihDeg>  (1) 
-10.735603620797454

$$$$
