
 OpenBabel03262522233D

 32 34  0  0  0  0  0  0  0  0999 V2000
   37.6710   30.0120   49.3290 C   0  0  0  0  0  0  0  0  0  0  0  0
   37.6520   30.8030   48.1650 C   0  0  0  0  0  0  0  0  0  0  0  0
   36.4930   30.8100   47.4180 C   0  0  0  0  0  0  0  0  0  0  0  0
   35.4720   30.0540   47.8680 N   0  0  0  0  0  0  0  0  0  0  0  0
   35.5050   29.3230   48.9530 C   0  0  0  0  0  0  0  0  0  0  0  0
   36.6300   29.2790   49.7320 N   0  0  0  0  0  0  0  0  0  0  0  0
   38.5480   29.9530   49.9750 H   0  0  0  0  0  0  0  0  0  0  0  0
   36.5040   31.4200   46.5370 H   0  0  0  0  0  0  0  0  0  0  0  0
   38.8070   31.4850   47.9090 O   0  0  0  0  0  0  0  0  0  0  0  0
   39.2690   31.5000   46.5860 C   0  0  0  0  0  0  0  0  0  0  0  0
   39.4890   30.4380   45.7620 C   0  0  0  0  0  0  0  0  0  0  0  0
   39.9420   30.6420   44.4990 C   0  0  0  0  0  0  0  0  0  0  0  0
   40.1700   31.9510   44.0800 C   0  0  0  0  0  0  0  0  0  0  0  0
   39.9420   33.0090   44.9260 C   0  0  0  0  0  0  0  0  0  0  0  0
   39.4920   32.7490   46.1730 N   0  0  0  0  0  0  0  0  0  0  0  0
   39.2780   29.4680   46.1940 H   0  0  0  0  0  0  0  0  0  0  0  0
   40.1190   29.8090   43.8420 H   0  0  0  0  0  0  0  0  0  0  0  0
   40.5320   32.1330   43.0750 H   0  0  0  0  0  0  0  0  0  0  0  0
   40.1990   34.4190   44.4470 C   0  0  0  0  0  0  0  0  0  0  0  0
   40.9440   34.3500   43.6460 H   0  0  0  0  0  0  0  0  0  0  0  0
   40.6520   34.9600   45.2950 H   0  0  0  0  0  0  0  0  0  0  0  0
   39.2710   34.8750   44.0470 H   0  0  0  0  0  0  0  0  0  0  0  0
   33.9510   28.4540   49.2270 S   0  0  0  0  0  0  0  0  0  0  0  0
   32.4550   29.4540   46.9360 F   0  0  0  0  0  0  0  0  0  0  0  0
   32.8540   28.1630   46.8270 C   0  0  0  0  0  0  0  0  0  0  0  0
   33.5800   27.4650   47.7910 C   0  0  0  0  0  0  0  0  0  0  0  0
   33.9210   26.1510   47.5500 C   0  0  0  0  0  0  0  0  0  0  0  0
   34.4800   25.6990   48.3490 H   0  0  0  0  0  0  0  0  0  0  0  0
   33.5300   25.5770   46.3630 C   0  0  0  0  0  0  0  0  0  0  0  0
   33.8070   24.5600   46.2040 H   0  0  0  0  0  0  0  0  0  0  0  0
   32.8130   26.2540   45.4050 C   0  0  0  0  0  3  0  0  0  0  0  0
   32.4650   27.5700   45.6330 C   0  0  0  0  0  3  0  0  0  0  0  0
  1  6  1  0  0  0  0
  1  7  1  0  0  0  0
  2  1  2  0  0  0  0
  3  4  2  0  0  0  0
  3  2  1  0  0  0  0
  4  5  1  0  0  0  0
  5 23  1  0  0  0  0
  5  6  2  0  0  0  0
  8  3  1  0  0  0  0
  9  2  1  0  0  0  0
 10  9  1  0  0  0  0
 11 16  1  0  0  0  0
 11 10  2  0  0  0  0
 12 11  1  0  0  0  0
 13 12  2  0  0  0  0
 13 14  1  0  0  0  0
 14 15  2  0  0  0  0
 15 10  1  0  0  0  0
 17 12  1  0  0  0  0
 18 13  1  0  0  0  0
 19 14  1  0  0  0  0
 19 21  1  0  0  0  0
 20 19  1  0  0  0  0
 22 19  1  0  0  0  0
 25 24  1  0  0  0  0
 25 26  1  0  0  0  0
 26 23  1  0  0  0  0
 27 26  2  0  0  0  0
 27 28  1  0  0  0  0
 29 27  1  0  0  0  0
 30 29  1  0  0  0  0
 31 32  1  0  0  0  0
 31 29  2  0  0  0  0
 32 25  2  0  0  0  0
M  END
>  <minimizedAffinity>
-4.92542744

>  <minimizedRMSD>
2.15207076

$$$$
