
 OpenBabel03262521463D

 30 31  0  0  0  0  0  0  0  0999 V2000
   36.9350   29.2300   50.5030 C   0  0  0  0  0  0  0  0  0  0  0  0
   36.7800   29.0910   49.4160 H   0  0  0  0  0  0  0  0  0  0  0  0
   37.4200   28.3120   50.9160 H   0  0  0  0  0  0  0  0  0  0  0  0
   37.7210   30.4740   50.7610 C   0  0  0  0  0  0  0  0  0  0  0  0
   38.6670   30.1560   51.2760 H   0  0  0  0  0  0  0  0  0  0  0  0
   37.2230   31.1700   51.4820 H   0  0  0  0  0  0  0  0  0  0  0  0
   38.1200   31.2060   49.5570 C   0  0  0  0  0  0  0  0  0  0  0  0
   38.5450   32.5140   49.5820 C   0  0  0  0  0  0  0  0  0  0  0  0
   38.9070   33.1340   48.3770 C   0  0  0  0  0  0  0  0  0  0  0  0
   38.8160   32.3970   47.2300 N   0  0  0  0  0  0  0  0  0  0  0  0
   38.3870   31.0920   47.2430 C   0  0  0  0  0  0  0  0  0  0  0  0
   38.0400   30.5070   48.4240 N   0  0  0  0  0  0  0  0  0  0  0  0
   38.5910   33.0370   50.5330 H   0  0  0  0  0  0  0  0  0  0  0  0
   39.2400   34.1460   48.3660 H   0  0  0  0  0  0  0  0  0  0  0  0
   38.3280   30.5410   46.3150 H   0  0  0  0  0  0  0  0  0  0  0  0
   35.7230   29.3340   51.1780 O   0  0  0  0  0  0  0  0  0  0  0  0
   34.6870   30.5120   49.1040 O   0  0  0  0  0  0  0  0  0  0  0  0
   34.4070   29.4020   50.1040 P   0  0  2  0  0  0  0  0  0  0  0  0
   33.0010   29.8380   50.9220 O   0  0  0  0  0  0  0  0  0  0  0  0
   33.0350   30.7100   51.3520 H   0  0  0  0  0  0  0  0  0  0  0  0
   34.1820   27.9340   49.3400 O   0  0  0  0  0  0  0  0  0  0  0  0
   31.3590   27.7890   49.4550 F   0  0  0  0  0  0  0  0  0  0  0  0
   31.9160   27.7190   48.2350 C   0  0  0  0  0  0  0  0  0  0  0  0
   33.2930   27.7980   48.2860 C   0  0  0  0  0  0  0  0  0  0  0  0
   34.0180   27.7390   47.0890 C   0  0  0  0  0  0  0  0  0  0  0  0
   35.0960   27.7860   46.9480 H   0  0  0  0  0  0  0  0  0  0  0  0
   33.3640   27.6020   45.8590 C   0  0  0  0  0  0  0  0  0  0  0  0
   33.8560   27.5500   44.9080 H   0  0  0  0  0  0  0  0  0  0  0  0
   31.9870   27.5230   45.8270 C   0  0  0  0  0  3  0  0  0  0  0  0
   31.2860   27.5830   47.0140 C   0  0  0  0  0  3  0  0  0  0  0  0
  1  4  1  0  0  0  0
  1  3  1  0  0  0  0
  1 16  1  0  0  0  0
  2  1  1  0  0  0  0
  4  5  1  0  0  0  0
  4  6  1  0  0  0  0
  7  8  1  0  0  0  0
  7  4  1  0  0  0  0
  8 13  1  0  0  0  0
  9  8  2  0  0  0  0
 10 11  2  0  0  0  0
 10  9  1  0  0  0  0
 11 12  1  0  0  0  0
 12  7  2  0  0  0  0
 14  9  1  0  0  0  0
 15 11  1  0  0  0  0
 18 17  2  6  0  0  0
 18 19  1  0  0  0  0
 18 16  1  0  0  0  0
 19 20  1  0  0  0  0
 21 18  1  0  0  0  0
 23 24  1  0  0  0  0
 23 22  1  0  0  0  0
 24 21  1  0  0  0  0
 25 24  2  0  0  0  0
 26 25  1  0  0  0  0
 27 25  1  0  0  0  0
 28 27  1  0  0  0  0
 29 27  2  0  0  0  0
 29 30  1  0  0  0  0
 30 23  2  0  0  0  0
M  END
>  <minimizedAffinity>
-5.37346601

>  <minimizedRMSD>
0.683141053

$$$$
