
 OpenBabel03262521463D

 30 31  0  0  0  0  0  0  0  0999 V2000
   36.9750   29.2220   50.7160 C   0  0  0  0  0  0  0  0  0  0  0  0
   36.8690   28.9640   49.6450 H   0  0  0  0  0  0  0  0  0  0  0  0
   37.4310   28.3540   51.2500 H   0  0  0  0  0  0  0  0  0  0  0  0
   37.7610   30.4830   50.8710 C   0  0  0  0  0  0  0  0  0  0  0  0
   38.7290   30.2000   51.3650 H   0  0  0  0  0  0  0  0  0  0  0  0
   37.2870   31.2160   51.5720 H   0  0  0  0  0  0  0  0  0  0  0  0
   38.1050   31.1480   49.6130 C   0  0  0  0  0  0  0  0  0  0  0  0
   38.5530   32.4470   49.5490 C   0  0  0  0  0  0  0  0  0  0  0  0
   38.8580   33.0010   48.2970 C   0  0  0  0  0  0  0  0  0  0  0  0
   38.6920   32.2110   47.1950 N   0  0  0  0  0  0  0  0  0  0  0  0
   38.2430   30.9170   47.2960 C   0  0  0  0  0  0  0  0  0  0  0  0
   37.9510   30.3970   48.5220 N   0  0  0  0  0  0  0  0  0  0  0  0
   38.6600   33.0150   50.4700 H   0  0  0  0  0  0  0  0  0  0  0  0
   39.2070   34.0050   48.2180 H   0  0  0  0  0  0  0  0  0  0  0  0
   38.1230   30.3220   46.4010 H   0  0  0  0  0  0  0  0  0  0  0  0
   35.7340   29.4070   51.3180 O   0  0  0  0  0  0  0  0  0  0  0  0
   34.7000   30.7780   49.3650 O   0  0  0  0  0  0  0  0  0  0  0  0
   34.4850   29.5060   50.1690 P   0  0  2  0  0  0  0  0  0  0  0  0
   32.9930   29.6690   50.9340 O   0  0  0  0  0  0  0  0  0  0  0  0
   32.9060   30.4640   51.4870 H   0  0  0  0  0  0  0  0  0  0  0  0
   34.4700   28.1560   49.1850 O   0  0  0  0  0  0  0  0  0  0  0  0
   35.0450   29.2590   46.6440 F   0  0  0  0  0  0  0  0  0  0  0  0
   33.8780   28.6070   46.7670 C   0  0  0  0  0  0  0  0  0  0  0  0
   33.6930   28.1080   48.0390 C   0  0  0  0  0  0  0  0  0  0  0  0
   32.5170   27.4010   48.3220 C   0  0  0  0  0  0  0  0  0  0  0  0
   32.2100   26.9440   49.2630 H   0  0  0  0  0  0  0  0  0  0  0  0
   31.5430   27.2000   47.3370 C   0  0  0  0  0  0  0  0  0  0  0  0
   30.6240   26.6690   47.4860 H   0  0  0  0  0  0  0  0  0  0  0  0
   31.7460   27.7050   46.0690 C   0  0  0  0  0  3  0  0  0  0  0  0
   32.9090   28.4010   45.8050 C   0  0  0  0  0  3  0  0  0  0  0  0
  1  4  1  0  0  0  0
  1  3  1  0  0  0  0
  1 16  1  0  0  0  0
  2  1  1  0  0  0  0
  4  5  1  0  0  0  0
  4  6  1  0  0  0  0
  7  4  1  0  0  0  0
  8  7  1  0  0  0  0
  8 13  1  0  0  0  0
  9  8  2  0  0  0  0
 10 11  2  0  0  0  0
 10  9  1  0  0  0  0
 11 12  1  0  0  0  0
 12  7  2  0  0  0  0
 14  9  1  0  0  0  0
 15 11  1  0  0  0  0
 18 17  2  6  0  0  0
 18 19  1  0  0  0  0
 18 16  1  0  0  0  0
 19 20  1  0  0  0  0
 21 18  1  0  0  0  0
 22 23  1  0  0  0  0
 23 24  1  0  0  0  0
 24 25  2  0  0  0  0
 24 21  1  0  0  0  0
 25 26  1  0  0  0  0
 27 28  1  0  0  0  0
 27 25  1  0  0  0  0
 29 27  2  0  0  0  0
 30 29  1  0  0  0  0
 30 23  2  0  0  0  0
M  END
>  <minimizedAffinity>
-5.26325369

>  <minimizedRMSD>
0.811921358

$$$$
