REMARK  Name = 
REMARK  7 active torsions:
REMARK  status: ('A' for Active; 'I' for Inactive)
REMARK    1  A    between atoms: C_1  and  C_2
REMARK    2  A    between atoms: C_1  and  C_8
REMARK    3  A    between atoms: C_8  and  O_9
REMARK    4  A    between atoms: O_9  and  P_11
REMARK    5  A    between atoms: P_11  and  O_12
REMARK    6  A    between atoms: P_11  and  O_13
REMARK    7  A    between atoms: O_13  and  C_24
REMARK                            x       y       z     vdW  Elec       q    Type
REMARK                         _______ _______ _______ _____ _____    ______ ____
ROOT
ATOM      1  C   UNL     1      36.956  29.250  50.623  0.00  0.00    +0.000 C 
ATOM      2  H   UNL     1      36.858  29.040  49.541  0.00  0.00    +0.000 HD
ATOM      3  H   UNL     1      37.425  28.366  51.119  0.00  0.00    +0.000 HD
ENDROOT
BRANCH   1   4
ATOM      4  C   UNL     1      37.720  30.516  50.840  0.00  0.00    +0.000 C 
ATOM      5  H   UNL     1      38.670  30.232  51.367  0.00  0.00    +0.000 HD
ATOM      6  H   UNL     1      37.208  31.227  51.536  0.00  0.00    +0.000 HD
BRANCH   4   7
ATOM      7  C   UNL     1      38.108  31.213  49.612  0.00  0.00    +0.000 A 
ATOM      8  C   UNL     1      38.535  32.521  49.596  0.00  0.00    +0.000 A 
ATOM      9  C   UNL     1      38.886  33.107  48.371  0.00  0.00    +0.000 A 
ATOM     10  N   UNL     1      38.784  32.338  47.246  0.00  0.00    +0.000 NA
ATOM     11  C   UNL     1      38.354  31.034  47.300  0.00  0.00    +0.000 A 
ATOM     12  N   UNL     1      38.017  30.483  48.500  0.00  0.00    +0.000 NA
ATOM     13  H   UNL     1      38.590  33.071  50.532  0.00  0.00    +0.000 HD
ATOM     14  H   UNL     1      39.220  34.118  48.328  0.00  0.00    +0.000 HD
ATOM     15  H   UNL     1      38.286  30.457  46.388  0.00  0.00    +0.000 HD
ENDBRANCH   4   7
ENDBRANCH   1   4
BRANCH   1  16
ATOM     16  O   UNL     1      35.710  29.386  51.228  0.00  0.00    +0.000 OA
BRANCH  16  18
ATOM     17  O   UNL     1      34.690  30.548  49.137  0.00  0.00    +0.000 OA
ATOM     18  P   UNL     1      34.452  29.384  50.085  0.00  0.00    +0.000 P 
BRANCH  18  19
ATOM     19  O   UNL     1      32.973  29.673  50.837  0.00  0.00    +0.000 OA
ATOM     20  H   UNL     1      32.911  30.529  51.295  0.00  0.00    +0.000 HD
ENDBRANCH  18  19
BRANCH  18  21
ATOM     21  O   UNL     1      34.392  27.930  49.264  0.00  0.00    +0.000 OA
BRANCH  21  24
ATOM     22  F   UNL     1      34.641  28.444  46.493  0.00  0.00    +0.000 F 
ATOM     23  C   UNL     1      33.477  27.914  46.905  0.00  0.00    +0.000 A 
ATOM     24  C   UNL     1      33.457  27.703  48.267  0.00  0.00    +0.000 A 
ATOM     25  C   UNL     1      32.306  27.153  48.848  0.00  0.00    +0.000 A 
ATOM     26  H   UNL     1      32.120  26.922  49.896  0.00  0.00    +0.000 HD
ATOM     27  C   UNL     1      31.193  26.823  48.065  0.00  0.00    +0.000 A 
ATOM     28  H   UNL     1      30.284  26.400  48.444  0.00  0.00    +0.000 HD
ATOM     29  C   UNL     1      31.233  27.042  46.703  0.00  0.00    +0.000 A 
ATOM     30  C   UNL     1      32.373  27.584  46.146  0.00  0.00    +0.000 A 
ENDBRANCH  21  24
ENDBRANCH  18  21
ENDBRANCH  16  18
ENDBRANCH   1  16
TORSDOF 7
