
 OpenBabel03262521463D

 30 31  0  0  0  0  0  0  0  0999 V2000
   36.9360   29.2350   50.5010 C   0  0  0  0  0  0  0  0  0  0  0  0
   36.7820   29.0970   49.4140 H   0  0  0  0  0  0  0  0  0  0  0  0
   37.4250   28.3200   50.9130 H   0  0  0  0  0  0  0  0  0  0  0  0
   37.7150   30.4830   50.7610 C   0  0  0  0  0  0  0  0  0  0  0  0
   38.6590   30.1700   51.2830 H   0  0  0  0  0  0  0  0  0  0  0  0
   37.2090   31.1790   51.4770 H   0  0  0  0  0  0  0  0  0  0  0  0
   38.1190   31.2130   49.5580 C   0  0  0  0  0  0  0  0  0  0  0  0
   38.5480   32.5200   49.5830 C   0  0  0  0  0  0  0  0  0  0  0  0
   38.9140   33.1390   48.3780 C   0  0  0  0  0  0  0  0  0  0  0  0
   38.8250   32.4010   47.2320 N   0  0  0  0  0  0  0  0  0  0  0  0
   38.3920   31.0970   47.2450 C   0  0  0  0  0  0  0  0  0  0  0  0
   38.0400   30.5140   48.4250 N   0  0  0  0  0  0  0  0  0  0  0  0
   38.5920   33.0440   50.5340 H   0  0  0  0  0  0  0  0  0  0  0  0
   39.2500   34.1500   48.3670 H   0  0  0  0  0  0  0  0  0  0  0  0
   38.3340   30.5460   46.3160 H   0  0  0  0  0  0  0  0  0  0  0  0
   35.7230   29.3320   51.1760 O   0  0  0  0  0  0  0  0  0  0  0  0
   34.6870   30.5270   49.1120 O   0  0  0  0  0  0  0  0  0  0  0  0
   34.4080   29.4080   50.1010 P   0  0  2  0  0  0  0  0  0  0  0  0
   33.0000   29.8330   50.9220 O   0  0  0  0  0  0  0  0  0  0  0  0
   33.0320   30.7010   51.3600 H   0  0  0  0  0  0  0  0  0  0  0  0
   34.1870   27.9460   49.3230 O   0  0  0  0  0  0  0  0  0  0  0  0
   31.3660   27.7760   49.4440 F   0  0  0  0  0  0  0  0  0  0  0  0
   31.9200   27.7270   48.2220 C   0  0  0  0  0  0  0  0  0  0  0  0
   33.2950   27.8170   48.2710 C   0  0  0  0  0  0  0  0  0  0  0  0
   34.0180   27.7810   47.0710 C   0  0  0  0  0  0  0  0  0  0  0  0
   35.0950   27.8380   46.9270 H   0  0  0  0  0  0  0  0  0  0  0  0
   33.3620   27.6540   45.8410 C   0  0  0  0  0  0  0  0  0  0  0  0
   33.8520   27.6200   44.8870 H   0  0  0  0  0  0  0  0  0  0  0  0
   31.9850   27.5660   45.8110 C   0  0  0  0  0  0  0  0  0  0  0  0
   31.2880   27.6030   47.0010 C   0  0  0  0  0  0  0  0  0  0  0  0
  1  4  1  0  0  0  0
  1  3  1  0  0  0  0
  1 16  1  0  0  0  0
  2  1  1  0  0  0  0
  4  5  1  0  0  0  0
  4  6  1  0  0  0  0
  7  8  1  0  0  0  0
  7  4  1  0  0  0  0
  8 13  1  0  0  0  0
  9  8  2  0  0  0  0
 10 11  2  0  0  0  0
 10  9  1  0  0  0  0
 11 12  1  0  0  0  0
 12  7  2  0  0  0  0
 14  9  1  0  0  0  0
 15 11  1  0  0  0  0
 18 17  2  6  0  0  0
 18 19  1  0  0  0  0
 18 16  1  0  0  0  0
 19 20  1  0  0  0  0
 21 18  1  0  0  0  0
 23 24  1  0  0  0  0
 23 22  1  0  0  0  0
 24 21  1  0  0  0  0
 25 24  2  0  0  0  0
 26 25  1  0  0  0  0
 27 25  1  0  0  0  0
 28 27  1  0  0  0  0
 29 27  2  0  0  0  0
 29 30  1  0  0  0  0
 30 23  2  0  0  0  0
M  END
>  <minimizedAffinity>
-5.3778553

>  <minimizedRMSD>
0.842642903

$$$$
