
     RDKit          3D

 32 33  0  0  0  0  0  0  0  0999 V2000
   37.7204   30.5157   50.8401 C   0  0  0  0  0  0  0  0  0  0  0  0
   38.1082   31.2131   49.6116 C   0  0  0  0  0  0  0  0  0  0  0  0
   38.5351   32.5214   49.5958 C   0  0  0  0  0  0  0  0  0  0  0  0
   38.8863   33.1073   48.3707 C   0  0  0  0  0  0  0  0  0  0  0  0
   38.7842   32.3377   47.2460 N   0  0  0  0  0  0  0  0  0  0  0  0
   38.3538   31.0343   47.3004 C   0  0  0  0  0  0  0  0  0  0  0  0
   38.0171   30.4829   48.5001 N   0  0  0  0  0  0  0  0  0  0  0  0
   36.9562   29.2504   50.6232 C   0  0  0  0  0  0  0  0  0  0  0  0
   35.7102   29.3863   51.2285 O   0  0  0  0  0  0  0  0  0  0  0  0
   34.6904   30.5480   49.1372 O   0  0  0  0  0  0  0  0  0  0  0  0
   34.4519   29.3841   50.0847 P   0  0  2  0  0  0  0  0  0  0  0  0
   32.9732   29.6727   50.8370 O   0  0  0  0  0  0  0  0  0  0  0  0
   34.3920   27.9302   49.2638 O   0  0  0  0  0  0  0  0  0  0  0  0
   38.6705   30.2318   51.3673 H   0  0  0  0  0  0  0  0  0  0  0  0
   37.2079   31.2274   51.5364 H   0  0  0  0  0  0  0  0  0  0  0  0
   38.5905   33.0708   50.5323 H   0  0  0  0  0  0  0  0  0  0  0  0
   39.2202   34.1185   48.3283 H   0  0  0  0  0  0  0  0  0  0  0  0
   38.2863   30.4574   46.3880 H   0  0  0  0  0  0  0  0  0  0  0  0
   36.8584   29.0403   49.5415 H   0  0  0  0  0  0  0  0  0  0  0  0
   37.4252   28.3662   51.1191 H   0  0  0  0  0  0  0  0  0  0  0  0
   32.9107   30.5291   51.2950 H   0  0  0  0  0  0  0  0  0  0  0  0
   34.8055   27.8860   46.4656 F   0  0  0  0  0  0  0  0  0  0  0  0
   33.5524   27.6600   46.8925 C   0  0  0  0  0  0  0  0  0  0  0  0
   33.4567   27.7028   48.2675 C   0  0  0  0  0  0  0  0  0  0  0  0
   32.2075   27.4851   48.8644 C   0  0  0  0  0  0  0  0  0  0  0  0
   31.9543   27.4830   49.9236 H   0  0  0  0  0  0  0  0  0  0  0  0
   31.0730   27.2285   48.0850 C   0  0  0  0  0  0  0  0  0  0  0  0
   30.0904   27.0538   48.4760 H   0  0  0  0  0  0  0  0  0  0  0  0
   31.1890   27.1896   46.7102 C   0  0  0  0  0  0  0  0  0  0  0  0
   32.4255   27.4059   46.1376 C   0  0  0  0  0  0  0  0  0  0  0  0
   30.3290   26.9934   46.0839 H   0  0  0  0  0  0  0  0  0  0  0  0
   32.6007   27.3925   45.0723 H   0  0  0  0  0  0  0  0  0  0  0  0
  2  1  1  0
  3  2  2  0
  4  3  1  0
  5  6  1  0
  5  4  2  0
  6  7  2  0
  7  2  1  0
  8  1  1  0
  8  9  1  0
 10 11  2  0
 11 12  1  1
 11  9  1  0
 13 11  1  0
  1 14  1  0
  1 15  1  0
  3 16  1  0
  4 17  1  0
  6 18  1  0
  8 19  1  0
  8 20  1  0
 12 21  1  0
 22 23  1  0
 23 24  2  0
 24 25  1  0
 25 26  1  0
 25 27  2  0
 27 28  1  0
 27 29  1  0
 29 30  2  0
 30 23  1  0
 29 31  1  0
 30 32  1  0
 13 24  1  0
M  ISO  8  14   8  15   8  16  14  17  14  18  14  19   8  20   8  21   3
M  ISO  2  26  15  28  16
M  END
>  <DihAtoms>  (1) 
10,12,23,22

>  <DihDeg>  (1) 
-0.0006626367453336569

$$$$
