
 OpenBabel03272509423D

 38 40  0  0  1  0  0  0  0  0999 V2000
   37.0180   30.9120   49.0940 C   0  0  0  0  0  0  0  0  0  0  0  0
   36.7170   31.8060   50.1250 C   0  0  0  0  0  0  0  0  0  0  0  0
   37.2920   33.0630   50.1940 C   0  0  0  0  0  0  0  0  0  0  0  0
   38.2030   33.4580   49.2070 C   0  0  0  0  0  0  0  0  0  0  0  0
   38.4900   32.5750   48.2050 C   0  0  0  0  0  0  0  0  0  0  0  0
   37.8930   31.3230   48.1690 C   0  0  0  0  0  0  0  0  0  0  0  0
   36.0070   31.4940   50.8900 H   0  0  0  0  0  0  0  0  0  0  0  0
   37.0010   33.6760   51.0170 H   0  0  0  0  0  0  0  0  0  0  0  0
   38.5890   34.4380   49.3470 H   0  0  0  0  0  0  0  0  0  0  0  0
   39.2090   33.0210   47.5210 H   0  0  0  0  0  0  0  0  0  0  0  0
   36.4420   29.5860   49.0400 C   0  0  2  0  0  0  0  0  0  0  0  0
   36.9470   29.0720   48.1350 H   0  0  0  0  0  0  0  0  0  0  0  0
   33.5900   29.9560   46.8180 C   0  0  0  0  0  0  0  0  0  0  0  0
   32.8450   28.8100   47.0370 C   0  0  0  0  0  0  0  0  0  0  0  0
   33.2840   27.9230   48.0010 C   0  0  0  0  0  0  0  0  0  0  0  0
   34.4360   28.2030   48.7020 N   0  0  0  0  0  0  0  0  0  0  0  0
   35.1030   29.3090   48.4470 C   0  0  0  0  0  0  0  0  0  0  0  0
   34.6880   30.1910   47.5080 N   0  0  0  0  0  0  0  0  0  0  0  0
   33.2130   30.6260   46.0550 H   0  0  0  0  0  0  0  0  0  0  0  0
   31.9390   28.5070   46.5420 H   0  0  0  0  0  0  0  0  0  0  0  0
   32.8270   26.9770   48.3070 H   0  0  0  0  0  0  0  0  0  0  0  0
   36.9180   28.8050   49.9440 O   0  0  0  0  0  0  0  0  0  0  0  0
   36.6940   28.8970   50.8990 H   0  0  0  0  0  0  0  0  0  0  0  0
   38.3090   30.4790   47.0730 C   0  0  0  0  0  3  0  0  0  0  0  0
   38.8410   30.9410   45.9360 C   0  0  0  0  0  3  0  0  0  0  0  0
   39.3410   30.1690   44.7750 C   0  0  0  0  0  0  0  0  0  0  0  0
   38.7970   29.2240   44.6100 H   0  0  0  0  0  0  0  0  0  0  0  0
   40.4090   29.8610   44.9730 H   0  0  0  0  0  0  0  0  0  0  0  0
   39.3640   31.2190   43.3190 S   0  0  0  0  0  0  0  0  0  0  0  0
   39.5310   32.2470   40.5960 F   0  0  0  0  0  0  0  0  0  0  0  0
   40.2720   31.1500   40.8290 C   0  0  0  0  0  0  0  0  0  0  0  0
   40.3640   30.4690   42.0460 C   0  0  0  0  0  0  0  0  0  0  0  0
   41.1660   29.3520   42.1470 C   0  0  0  0  0  0  0  0  0  0  0  0
   41.1650   28.9070   43.1190 H   0  0  0  0  0  0  0  0  0  0  0  0
   41.8720   28.9150   41.0450 C   0  0  0  0  0  0  0  0  0  0  0  0
   42.4830   28.0510   41.1480 H   0  0  0  0  0  0  0  0  0  0  0  0
   41.7970   29.5790   39.8160 C   0  0  0  0  0  3  0  0  0  0  0  0
   40.9950   30.6890   39.7320 C   0  0  0  0  0  3  0  0  0  0  0  0
  1  2  1  0  0  0  0
  2  3  2  0  0  0  0
  2  7  1  0  0  0  0
  3  8  1  0  0  0  0
  4  9  1  0  0  0  0
  4  3  1  0  0  0  0
  5  4  2  0  0  0  0
  6  5  1  0  0  0  0
  6  1  2  0  0  0  0
 10  5  1  0  0  0  0
 11 12  1  6  0  0  0
 11  1  1  0  0  0  0
 11 22  1  0  0  0  0
 13 14  2  0  0  0  0
 13 18  1  0  0  0  0
 14 15  1  0  0  0  0
 15 21  1  0  0  0  0
 15 16  2  0  0  0  0
 17 16  1  0  0  0  0
 17 11  1  0  0  0  0
 18 17  2  0  0  0  0
 19 13  1  0  0  0  0
 20 14  1  0  0  0  0
 22 23  1  0  0  0  0
 24  6  1  0  0  0  0
 25 24  2  0  0  0  0
 26 28  1  0  0  0  0
 26 25  1  0  0  0  0
 27 26  1  0  0  0  0
 29 26  1  0  0  0  0
 30 31  1  0  0  0  0
 31 32  1  0  0  0  0
 32 33  2  0  0  0  0
 32 29  1  0  0  0  0
 33 34  1  0  0  0  0
 35 36  1  0  0  0  0
 35 33  1  0  0  0  0
 37 35  2  0  0  0  0
 38 37  1  0  0  0  0
 38 31  2  0  0  0  0
M  END
>  <minimizedAffinity>
-6.01954508

>  <minimizedRMSD>
0.770573616

$$$$
