
 OpenBabel03262521533D

 23 24  0  0  0  0  0  0  0  0999 V2000
   41.2230   24.7560   33.9010 C   0  0  0  0  0  0  0  0  0  0  0  0
   41.5430   24.8900   32.8290 H   0  0  0  0  0  0  0  0  0  0  0  0
   42.1540   24.3630   34.3960 H   0  0  0  0  0  0  0  0  0  0  0  0
   39.8520   23.6150   34.0190 S   0  0  0  0  0  0  0  0  0  0  0  0
   39.3220   23.5160   35.7240 C   0  0  0  0  0  0  0  0  0  0  0  0
   40.2460   22.9450   36.5800 C   0  0  0  0  0  0  0  0  0  0  0  0
   39.8800   22.8450   37.9230 C   0  0  0  0  0  0  0  0  0  0  0  0
   38.6510   23.3000   38.3400 N   0  0  0  0  0  0  0  0  0  0  0  0
   37.8060   23.8460   37.4300 C   0  0  0  0  0  0  0  0  0  0  0  0
   38.1290   23.9520   36.1590 N   0  0  0  0  0  0  0  0  0  0  0  0
   41.2240   22.5750   36.2910 H   0  0  0  0  0  0  0  0  0  0  0  0
   40.5450   22.4110   38.6600 H   0  0  0  0  0  0  0  0  0  0  0  0
   36.8190   24.2280   37.6850 H   0  0  0  0  0  0  0  0  0  0  0  0
   40.8450   26.3920   34.5820 S   0  0  0  0  0  0  0  0  0  0  0  0
   38.7080   27.1870   36.4640 F   0  0  0  0  0  0  0  0  0  0  0  0
   38.3980   27.2950   35.1320 C   0  0  0  0  0  0  0  0  0  0  0  0
   39.2510   26.9760   34.0830 C   0  0  0  0  0  0  0  0  0  0  0  0
   38.7870   27.1400   32.7930 C   0  0  0  0  0  0  0  0  0  0  0  0
   39.5230   26.8670   32.0220 H   0  0  0  0  0  0  0  0  0  0  0  0
   37.5190   27.6060   32.5280 C   0  0  0  0  0  0  0  0  0  0  0  0
   37.2100   27.7140   31.4980 H   0  0  0  0  0  0  0  0  0  0  0  0
   36.6950   27.9140   33.5920 C   0  0  0  0  0  3  0  0  0  0  0  0
   37.1190   27.7640   34.9170 C   0  0  0  0  0  3  0  0  0  0  0  0
  1  4  1  0  0  0  0
  1  3  1  0  0  0  0
  1 14  1  0  0  0  0
  2  1  1  0  0  0  0
  4  5  1  0  0  0  0
  5 10  2  0  0  0  0
  5  6  1  0  0  0  0
  6  7  2  0  0  0  0
  7  8  1  0  0  0  0
  7 12  1  0  0  0  0
  9 13  1  0  0  0  0
  9  8  2  0  0  0  0
 10  9  1  0  0  0  0
 11  6  1  0  0  0  0
 16 15  1  0  0  0  0
 17 14  1  0  0  0  0
 17 16  2  0  0  0  0
 18 17  1  0  0  0  0
 19 18  1  0  0  0  0
 20 18  2  0  0  0  0
 20 22  1  0  0  0  0
 21 20  1  0  0  0  0
 22 23  2  0  0  0  0
 23 16  1  0  0  0  0
M  END
>  <minimizedAffinity>
-4.37658787

$$$$

 OpenBabel03262521533D

 23 24  0  0  0  0  0  0  0  0999 V2000
   37.9200   23.8530   33.3790 C   0  0  0  0  0  0  0  0  0  0  0  0
   38.9000   24.2480   32.9870 H   0  0  0  0  0  0  0  0  0  0  0  0
   37.5500   24.6920   34.0300 H   0  0  0  0  0  0  0  0  0  0  0  0
   38.1640   22.3350   34.2900 S   0  0  0  0  0  0  0  0  0  0  0  0
   38.4720   22.7300   36.0070 C   0  0  0  0  0  0  0  0  0  0  0  0
   39.7510   22.4360   36.4430 C   0  0  0  0  0  0  0  0  0  0  0  0
   40.0420   22.7260   37.7760 C   0  0  0  0  0  0  0  0  0  0  0  0
   39.0790   23.2760   38.5900 N   0  0  0  0  0  0  0  0  0  0  0  0
   37.8500   23.5310   38.0780 C   0  0  0  0  0  0  0  0  0  0  0  0
   37.5520   23.2670   36.8230 N   0  0  0  0  0  0  0  0  0  0  0  0
   40.5380   22.0030   35.8330 H   0  0  0  0  0  0  0  0  0  0  0  0
   41.0200   22.5280   38.1980 H   0  0  0  0  0  0  0  0  0  0  0  0
   37.0380   23.9650   38.6590 H   0  0  0  0  0  0  0  0  0  0  0  0
   36.7910   23.6630   31.9730 S   0  0  0  0  0  0  0  0  0  0  0  0
   38.2010   21.6500   30.3290 F   0  0  0  0  0  0  0  0  0  0  0  0
   37.0600   21.2150   30.9530 C   0  0  0  0  0  0  0  0  0  0  0  0
   36.2470   21.9910   31.7690 C   0  0  0  0  0  0  0  0  0  0  0  0
   35.1280   21.4030   32.3250 C   0  0  0  0  0  0  0  0  0  0  0  0
   34.5400   22.0850   32.9570 H   0  0  0  0  0  0  0  0  0  0  0  0
   34.8060   20.0850   32.0920 C   0  0  0  0  0  0  0  0  0  0  0  0
   33.9180   19.6790   32.5540 H   0  0  0  0  0  0  0  0  0  0  0  0
   35.6340   19.3400   31.2770 C   0  0  0  0  0  3  0  0  0  0  0  0
   36.7780   19.8910   30.6900 C   0  0  0  0  0  3  0  0  0  0  0  0
  1  3  1  0  0  0  0
  1  4  1  0  0  0  0
  2  1  1  0  0  0  0
  4  5  1  0  0  0  0
  5  6  2  0  0  0  0
  5 10  1  0  0  0  0
  6  7  1  0  0  0  0
  7 12  1  0  0  0  0
  7  8  2  0  0  0  0
  9  8  1  0  0  0  0
  9 13  1  0  0  0  0
 10  9  2  0  0  0  0
 11  6  1  0  0  0  0
 14  1  1  0  0  0  0
 15 16  1  0  0  0  0
 16 17  1  0  0  0  0
 17 14  1  0  0  0  0
 17 18  2  0  0  0  0
 18 19  1  0  0  0  0
 20 18  1  0  0  0  0
 20 21  1  0  0  0  0
 22 20  2  0  0  0  0
 23 16  2  0  0  0  0
 23 22  1  0  0  0  0
M  END
>  <minimizedAffinity>
-4.36091805

$$$$

 OpenBabel03262521533D

 23 24  0  0  0  0  0  0  0  0999 V2000
   39.3960   22.7870   33.0700 C   0  0  0  0  0  0  0  0  0  0  0  0
   39.4320   22.0850   32.1890 H   0  0  0  0  0  0  0  0  0  0  0  0
   40.4170   22.6720   33.5270 H   0  0  0  0  0  0  0  0  0  0  0  0
   38.0840   22.3310   34.1950 S   0  0  0  0  0  0  0  0  0  0  0  0
   38.6040   22.6870   35.8690 C   0  0  0  0  0  0  0  0  0  0  0  0
   37.6960   23.4220   36.6090 C   0  0  0  0  0  0  0  0  0  0  0  0
   38.0550   23.7260   37.9220 C   0  0  0  0  0  0  0  0  0  0  0  0
   39.2630   23.3000   38.4240 N   0  0  0  0  0  0  0  0  0  0  0  0
   40.0930   22.5830   37.6270 C   0  0  0  0  0  0  0  0  0  0  0  0
   39.7760   22.2840   36.3850 N   0  0  0  0  0  0  0  0  0  0  0  0
   36.7350   23.7760   36.2490 H   0  0  0  0  0  0  0  0  0  0  0  0
   37.4020   24.2970   38.5700 H   0  0  0  0  0  0  0  0  0  0  0  0
   41.0630   22.2120   37.9540 H   0  0  0  0  0  0  0  0  0  0  0  0
   39.2280   24.4760   32.4320 S   0  0  0  0  0  0  0  0  0  0  0  0
   36.5240   25.5920   32.8610 F   0  0  0  0  0  0  0  0  0  0  0  0
   37.4930   26.0310   33.7270 C   0  0  0  0  0  0  0  0  0  0  0  0
   38.8250   25.6380   33.7050 C   0  0  0  0  0  0  0  0  0  0  0  0
   39.6790   26.1740   34.6490 C   0  0  0  0  0  0  0  0  0  0  0  0
   40.7140   25.8110   34.5630 H   0  0  0  0  0  0  0  0  0  0  0  0
   39.2470   27.0750   35.5950 C   0  0  0  0  0  0  0  0  0  0  0  0
   39.9600   27.4610   36.3080 H   0  0  0  0  0  0  0  0  0  0  0  0
   37.9170   27.4460   35.5910 C   0  0  0  0  0  3  0  0  0  0  0  0
   37.0130   26.9310   34.6550 C   0  0  0  0  0  3  0  0  0  0  0  0
  1  3  1  0  0  0  0
  1  4  1  0  0  0  0
  2  1  1  0  0  0  0
  4  5  1  0  0  0  0
  5 10  2  0  0  0  0
  5  6  1  0  0  0  0
  6  7  2  0  0  0  0
  7  8  1  0  0  0  0
  7 12  1  0  0  0  0
  9 13  1  0  0  0  0
  9  8  2  0  0  0  0
 10  9  1  0  0  0  0
 11  6  1  0  0  0  0
 14  1  1  0  0  0  0
 14 17  1  0  0  0  0
 15 16  1  0  0  0  0
 16 23  1  0  0  0  0
 17 16  2  0  0  0  0
 17 18  1  0  0  0  0
 18 20  2  0  0  0  0
 19 18  1  0  0  0  0
 20 21  1  0  0  0  0
 22 20  1  0  0  0  0
 23 22  2  0  0  0  0
M  END
>  <minimizedAffinity>
-4.33591127

$$$$

 OpenBabel03262521533D

 23 24  0  0  0  0  0  0  0  0999 V2000
   37.8240   24.1950   33.1600 C   0  0  0  0  0  0  0  0  0  0  0  0
   37.0270   23.8940   33.8970 H   0  0  0  0  0  0  0  0  0  0  0  0
   37.4330   25.1650   32.7460 H   0  0  0  0  0  0  0  0  0  0  0  0
   38.0330   22.9450   31.9010 S   0  0  0  0  0  0  0  0  0  0  0  0
   36.9120   21.5920   32.2320 C   0  0  0  0  0  0  0  0  0  0  0  0
   36.6040   20.8170   31.1290 C   0  0  0  0  0  0  0  0  0  0  0  0
   35.7320   19.7480   31.3360 C   0  0  0  0  0  0  0  0  0  0  0  0
   35.2220   19.5050   32.5900 N   0  0  0  0  0  0  0  0  0  0  0  0
   35.5790   20.3160   33.6160 C   0  0  0  0  0  0  0  0  0  0  0  0
   36.4000   21.3310   33.4460 N   0  0  0  0  0  0  0  0  0  0  0  0
   36.9850   20.9760   30.1250 H   0  0  0  0  0  0  0  0  0  0  0  0
   35.4390   19.0920   30.5250 H   0  0  0  0  0  0  0  0  0  0  0  0
   35.2180   20.1860   34.6350 H   0  0  0  0  0  0  0  0  0  0  0  0
   39.3460   24.5290   34.0880 S   0  0  0  0  0  0  0  0  0  0  0  0
   37.3290   25.5410   35.9980 F   0  0  0  0  0  0  0  0  0  0  0  0
   38.2090   24.6140   36.4970 C   0  0  0  0  0  0  0  0  0  0  0  0
   39.2310   24.0110   35.7760 C   0  0  0  0  0  0  0  0  0  0  0  0
   40.0340   23.0940   36.4250 C   0  0  0  0  0  0  0  0  0  0  0  0
   40.8180   22.6630   35.7840 H   0  0  0  0  0  0  0  0  0  0  0  0
   39.8460   22.7700   37.7500 C   0  0  0  0  0  0  0  0  0  0  0  0
   40.5060   22.0460   38.2050 H   0  0  0  0  0  0  0  0  0  0  0  0
   38.8210   23.3860   38.4390 C   0  0  0  0  0  3  0  0  0  0  0  0
   37.9810   24.3220   37.8260 C   0  0  0  0  0  3  0  0  0  0  0  0
  1  2  1  0  0  0  0
  1 14  1  0  0  0  0
  3  1  1  0  0  0  0
  4  5  1  0  0  0  0
  4  1  1  0  0  0  0
  5 10  1  0  0  0  0
  6  7  1  0  0  0  0
  6  5  2  0  0  0  0
  7  8  2  0  0  0  0
  8  9  1  0  0  0  0
  9 13  1  0  0  0  0
 10  9  2  0  0  0  0
 11  6  1  0  0  0  0
 12  7  1  0  0  0  0
 14 17  1  0  0  0  0
 15 16  1  0  0  0  0
 16 23  1  0  0  0  0
 17 18  1  0  0  0  0
 17 16  2  0  0  0  0
 18 20  2  0  0  0  0
 19 18  1  0  0  0  0
 20 21  1  0  0  0  0
 20 22  1  0  0  0  0
 23 22  2  0  0  0  0
M  END
>  <minimizedAffinity>
-4.2756772

$$$$

 OpenBabel03262521533D

 23 24  0  0  0  0  0  0  0  0999 V2000
   35.8570   29.3280   32.2220 C   0  0  0  0  0  0  0  0  0  0  0  0
   36.6290   29.9440   32.7650 H   0  0  0  0  0  0  0  0  0  0  0  0
   35.8650   29.7670   31.1860 H   0  0  0  0  0  0  0  0  0  0  0  0
   34.2600   29.4680   33.0130 S   0  0  0  0  0  0  0  0  0  0  0  0
   34.4400   30.4070   34.5250 C   0  0  0  0  0  0  0  0  0  0  0  0
   35.7330   30.8130   34.7990 C   0  0  0  0  0  0  0  0  0  0  0  0
   35.9250   31.5490   35.9680 C   0  0  0  0  0  0  0  0  0  0  0  0
   34.8580   31.8390   36.7860 N   0  0  0  0  0  0  0  0  0  0  0  0
   33.6230   31.4010   36.4390 C   0  0  0  0  0  0  0  0  0  0  0  0
   33.4160   30.7050   35.3410 N   0  0  0  0  0  0  0  0  0  0  0  0
   36.6000   30.6050   34.1800 H   0  0  0  0  0  0  0  0  0  0  0  0
   36.9060   31.9060   36.2570 H   0  0  0  0  0  0  0  0  0  0  0  0
   32.7320   31.5910   37.0350 H   0  0  0  0  0  0  0  0  0  0  0  0
   36.4600   27.6210   32.1380 S   0  0  0  0  0  0  0  0  0  0  0  0
   36.2720   27.5460   35.0870 F   0  0  0  0  0  0  0  0  0  0  0  0
   37.5240   27.3460   34.5660 C   0  0  0  0  0  0  0  0  0  0  0  0
   37.8370   27.3410   33.2130 C   0  0  0  0  0  0  0  0  0  0  0  0
   39.1510   27.1240   32.8480 C   0  0  0  0  0  0  0  0  0  0  0  0
   39.3140   27.1340   31.7600 H   0  0  0  0  0  0  0  0  0  0  0  0
   40.1420   26.9160   33.7810 C   0  0  0  0  0  0  0  0  0  0  0  0
   41.1530   26.7520   33.4370 H   0  0  0  0  0  0  0  0  0  0  0  0
   39.7990   26.9270   35.1180 C   0  0  0  0  0  3  0  0  0  0  0  0
   38.4820   27.1430   35.5380 C   0  0  0  0  0  3  0  0  0  0  0  0
  1  2  1  0  0  0  0
  1  4  1  0  0  0  0
  3  1  1  0  0  0  0
  4  5  1  0  0  0  0
  5  6  2  0  0  0  0
  5 10  1  0  0  0  0
  6  7  1  0  0  0  0
  7 12  1  0  0  0  0
  7  8  2  0  0  0  0
  9  8  1  0  0  0  0
  9 13  1  0  0  0  0
 10  9  2  0  0  0  0
 11  6  1  0  0  0  0
 14  1  1  0  0  0  0
 14 17  1  0  0  0  0
 16 15  1  0  0  0  0
 16 23  1  0  0  0  0
 17 16  2  0  0  0  0
 18 17  1  0  0  0  0
 18 20  2  0  0  0  0
 19 18  1  0  0  0  0
 20 22  1  0  0  0  0
 21 20  1  0  0  0  0
 22 23  2  0  0  0  0
M  END
>  <minimizedAffinity>
-4.26272631

$$$$

 OpenBabel03262521533D

 23 24  0  0  0  0  0  0  0  0999 V2000
   39.5980   22.8830   33.2700 C   0  0  0  0  0  0  0  0  0  0  0  0
   39.8180   22.1430   32.4490 H   0  0  0  0  0  0  0  0  0  0  0  0
   40.5790   22.9570   33.8160 H   0  0  0  0  0  0  0  0  0  0  0  0
   38.2730   22.2970   34.3170 S   0  0  0  0  0  0  0  0  0  0  0  0
   38.6440   22.7180   36.0160 C   0  0  0  0  0  0  0  0  0  0  0  0
   37.6680   23.4670   36.6480 C   0  0  0  0  0  0  0  0  0  0  0  0
   37.9110   23.8220   37.9750 C   0  0  0  0  0  0  0  0  0  0  0  0
   39.0750   23.4290   38.5940 N   0  0  0  0  0  0  0  0  0  0  0  0
   39.9780   22.6960   37.8970 C   0  0  0  0  0  0  0  0  0  0  0  0
   39.7710   22.3490   36.6440 N   0  0  0  0  0  0  0  0  0  0  0  0
   36.7380   23.7950   36.1950 H   0  0  0  0  0  0  0  0  0  0  0  0
   37.1980   24.4070   38.5440 H   0  0  0  0  0  0  0  0  0  0  0  0
   40.9200   22.3490   38.3190 H   0  0  0  0  0  0  0  0  0  0  0  0
   39.2380   24.4830   32.4990 S   0  0  0  0  0  0  0  0  0  0  0  0
   40.8360   25.5890   34.7270 F   0  0  0  0  0  0  0  0  0  0  0  0
   39.5490   26.0530   34.6310 C   0  0  0  0  0  0  0  0  0  0  0  0
   38.6290   25.6690   33.6640 C   0  0  0  0  0  0  0  0  0  0  0  0
   37.3680   26.2310   33.7040 C   0  0  0  0  0  0  0  0  0  0  0  0
   36.7020   25.8740   32.9040 H   0  0  0  0  0  0  0  0  0  0  0  0
   37.0090   27.1490   34.6640 C   0  0  0  0  0  0  0  0  0  0  0  0
   36.0080   27.5540   34.6460 H   0  0  0  0  0  0  0  0  0  0  0  0
   37.9460   27.5110   35.6110 C   0  0  0  0  0  3  0  0  0  0  0  0
   39.2360   26.9690   35.6140 C   0  0  0  0  0  3  0  0  0  0  0  0
  1  3  1  0  0  0  0
  1  4  1  0  0  0  0
  2  1  1  0  0  0  0
  4  5  1  0  0  0  0
  5 10  2  0  0  0  0
  5  6  1  0  0  0  0
  6  7  2  0  0  0  0
  7 12  1  0  0  0  0
  7  8  1  0  0  0  0
  9 13  1  0  0  0  0
  9  8  2  0  0  0  0
 10  9  1  0  0  0  0
 11  6  1  0  0  0  0
 14  1  1  0  0  0  0
 14 17  1  0  0  0  0
 16 15  1  0  0  0  0
 16 23  1  0  0  0  0
 17 18  1  0  0  0  0
 17 16  2  0  0  0  0
 18 20  2  0  0  0  0
 19 18  1  0  0  0  0
 20 22  1  0  0  0  0
 21 20  1  0  0  0  0
 22 23  2  0  0  0  0
M  END
>  <minimizedAffinity>
-4.25010443

$$$$

 OpenBabel03262521533D

 23 24  0  0  0  0  0  0  0  0999 V2000
   37.2730   27.4890   34.6760 C   0  0  0  0  0  0  0  0  0  0  0  0
   37.0470   28.5920   34.7210 H   0  0  0  0  0  0  0  0  0  0  0  0
   36.2670   27.0170   34.8520 H   0  0  0  0  0  0  0  0  0  0  0  0
   38.4720   27.0340   35.9210 S   0  0  0  0  0  0  0  0  0  0  0  0
   38.5230   25.2510   36.0550 C   0  0  0  0  0  0  0  0  0  0  0  0
   39.5940   24.6570   35.4120 C   0  0  0  0  0  0  0  0  0  0  0  0
   39.6790   23.2670   35.4870 C   0  0  0  0  0  0  0  0  0  0  0  0
   38.7260   22.5530   36.1760 N   0  0  0  0  0  0  0  0  0  0  0  0
   37.7090   23.2180   36.7760 C   0  0  0  0  0  0  0  0  0  0  0  0
   37.6070   24.5290   36.7200 N   0  0  0  0  0  0  0  0  0  0  0  0
   40.3650   25.1850   34.8610 H   0  0  0  0  0  0  0  0  0  0  0  0
   40.4860   22.7230   35.0130 H   0  0  0  0  0  0  0  0  0  0  0  0
   36.9190   22.7220   37.3380 H   0  0  0  0  0  0  0  0  0  0  0  0
   37.8160   27.0970   32.9920 S   0  0  0  0  0  0  0  0  0  0  0  0
   35.4350   27.1790   31.2410 F   0  0  0  0  0  0  0  0  0  0  0  0
   35.9090   25.9280   31.5420 C   0  0  0  0  0  0  0  0  0  0  0  0
   37.0110   25.6600   32.3440 C   0  0  0  0  0  0  0  0  0  0  0  0
   37.3620   24.3410   32.5520 C   0  0  0  0  0  0  0  0  0  0  0  0
   38.2440   24.2160   33.1970 H   0  0  0  0  0  0  0  0  0  0  0  0
   36.6540   23.3020   31.9910 C   0  0  0  0  0  0  0  0  0  0  0  0
   36.9750   22.2890   32.1880 H   0  0  0  0  0  0  0  0  0  0  0  0
   35.5640   23.6000   31.1980 C   0  0  0  0  0  3  0  0  0  0  0  0
   35.1690   24.9210   30.9580 C   0  0  0  0  0  3  0  0  0  0  0  0
  1  2  1  0  0  0  0
  1  3  1  0  0  0  0
  1  4  1  0  0  0  0
  4  5  1  0  0  0  0
  5 10  1  0  0  0  0
  6  7  1  0  0  0  0
  6  5  2  0  0  0  0
  7  8  2  0  0  0  0
  8  9  1  0  0  0  0
  9 13  1  0  0  0  0
 10  9  2  0  0  0  0
 11  6  1  0  0  0  0
 12  7  1  0  0  0  0
 14  1  1  0  0  0  0
 15 16  1  0  0  0  0
 16 17  1  0  0  0  0
 17 18  2  0  0  0  0
 17 14  1  0  0  0  0
 18 19  1  0  0  0  0
 20 21  1  0  0  0  0
 20 18  1  0  0  0  0
 22 20  2  0  0  0  0
 23 22  1  0  0  0  0
 23 16  2  0  0  0  0
M  END
>  <minimizedAffinity>
-4.22848988

$$$$

 OpenBabel03262521533D

 23 24  0  0  0  0  0  0  0  0999 V2000
   37.6590   23.5890   33.2420 C   0  0  0  0  0  0  0  0  0  0  0  0
   37.7990   23.3120   32.1590 H   0  0  0  0  0  0  0  0  0  0  0  0
   36.5410   23.6700   33.3400 H   0  0  0  0  0  0  0  0  0  0  0  0
   38.4930   25.1240   33.6200 S   0  0  0  0  0  0  0  0  0  0  0  0
   37.3630   26.4830   33.3480 C   0  0  0  0  0  0  0  0  0  0  0  0
   37.1640   27.2940   34.4500 C   0  0  0  0  0  0  0  0  0  0  0  0
   36.2900   28.3690   34.2890 C   0  0  0  0  0  0  0  0  0  0  0  0
   35.6730   28.5830   33.0780 N   0  0  0  0  0  0  0  0  0  0  0  0
   35.9270   27.7370   32.0500 C   0  0  0  0  0  0  0  0  0  0  0  0
   36.7480   26.7150   32.1770 N   0  0  0  0  0  0  0  0  0  0  0  0
   37.6310   27.1590   35.4200 H   0  0  0  0  0  0  0  0  0  0  0  0
   36.0780   29.0530   35.1020 H   0  0  0  0  0  0  0  0  0  0  0  0
   35.4770   27.8420   31.0640 H   0  0  0  0  0  0  0  0  0  0  0  0
   38.2350   22.2010   34.2540 S   0  0  0  0  0  0  0  0  0  0  0  0
   40.7760   21.8190   35.7160 F   0  0  0  0  0  0  0  0  0  0  0  0
   39.7570   22.3910   36.4340 C   0  0  0  0  0  0  0  0  0  0  0  0
   38.4850   22.6600   35.9450 C   0  0  0  0  0  0  0  0  0  0  0  0
   37.5680   23.2410   36.7980 C   0  0  0  0  0  0  0  0  0  0  0  0
   36.5870   23.4210   36.3330 H   0  0  0  0  0  0  0  0  0  0  0  0
   37.8810   23.5550   38.1010 C   0  0  0  0  0  0  0  0  0  0  0  0
   37.1220   24.0080   38.7220 H   0  0  0  0  0  0  0  0  0  0  0  0
   39.1530   23.2760   38.5570 C   0  0  0  0  0  3  0  0  0  0  0  0
   40.1180   22.6870   37.7320 C   0  0  0  0  0  3  0  0  0  0  0  0
  1  3  1  0  0  0  0
  1  4  1  0  0  0  0
  1 14  1  0  0  0  0
  2  1  1  0  0  0  0
  5  4  1  0  0  0  0
  5  6  1  0  0  0  0
  6 11  1  0  0  0  0
  7  6  2  0  0  0  0
  7 12  1  0  0  0  0
  8  7  1  0  0  0  0
  9 10  1  0  0  0  0
  9  8  2  0  0  0  0
 10  5  2  0  0  0  0
 13  9  1  0  0  0  0
 14 17  1  0  0  0  0
 15 16  1  0  0  0  0
 16 23  1  0  0  0  0
 17 16  2  0  0  0  0
 17 18  1  0  0  0  0
 18 20  2  0  0  0  0
 19 18  1  0  0  0  0
 20 22  1  0  0  0  0
 20 21  1  0  0  0  0
 23 22  2  0  0  0  0
M  END
>  <minimizedAffinity>
-4.19870758

$$$$

 OpenBabel03262521533D

 23 24  0  0  0  0  0  0  0  0999 V2000
   37.6000   26.1290   33.9950 C   0  0  0  0  0  0  0  0  0  0  0  0
   36.5220   25.8250   33.8770 H   0  0  0  0  0  0  0  0  0  0  0  0
   37.5880   26.7480   34.9350 H   0  0  0  0  0  0  0  0  0  0  0  0
   38.1630   27.0530   32.5730 S   0  0  0  0  0  0  0  0  0  0  0  0
   36.9090   28.2460   32.1210 C   0  0  0  0  0  0  0  0  0  0  0  0
   37.2290   29.0300   31.0280 C   0  0  0  0  0  0  0  0  0  0  0  0
   36.2830   29.9770   30.6360 C   0  0  0  0  0  0  0  0  0  0  0  0
   35.0990   30.0980   31.3250 N   0  0  0  0  0  0  0  0  0  0  0  0
   34.8680   29.2860   32.3870 C   0  0  0  0  0  0  0  0  0  0  0  0
   35.7450   28.3850   32.7760 N   0  0  0  0  0  0  0  0  0  0  0  0
   38.1510   28.9650   30.4580 H   0  0  0  0  0  0  0  0  0  0  0  0
   36.4540   30.6310   29.7900 H   0  0  0  0  0  0  0  0  0  0  0  0
   33.9560   29.3230   32.9800 H   0  0  0  0  0  0  0  0  0  0  0  0
   38.5740   24.6300   34.2970 S   0  0  0  0  0  0  0  0  0  0  0  0
   40.5600   22.7880   35.4810 F   0  0  0  0  0  0  0  0  0  0  0  0
   39.6410   23.3130   36.3540 C   0  0  0  0  0  0  0  0  0  0  0  0
   38.6240   24.1950   36.0120 C   0  0  0  0  0  0  0  0  0  0  0  0
   37.7770   24.6330   37.0110 C   0  0  0  0  0  0  0  0  0  0  0  0
   37.0010   25.3290   36.6570 H   0  0  0  0  0  0  0  0  0  0  0  0
   37.9170   24.2220   38.3170 C   0  0  0  0  0  0  0  0  0  0  0  0
   37.2240   24.5980   39.0560 H   0  0  0  0  0  0  0  0  0  0  0  0
   38.9370   23.3460   38.6260 C   0  0  0  0  0  3  0  0  0  0  0  0
   39.8200   22.8720   37.6490 C   0  0  0  0  0  3  0  0  0  0  0  0
  1 14  1  0  0  0  0
  1  3  1  0  0  0  0
  2  1  1  0  0  0  0
  4  1  1  0  0  0  0
  5  4  1  0  0  0  0
  5 10  1  0  0  0  0
  6  5  2  0  0  0  0
  7  6  1  0  0  0  0
  7  8  2  0  0  0  0
  8  9  1  0  0  0  0
  9 10  2  0  0  0  0
  9 13  1  0  0  0  0
 11  6  1  0  0  0  0
 12  7  1  0  0  0  0
 14 17  1  0  0  0  0
 15 16  1  0  0  0  0
 16 23  1  0  0  0  0
 17 16  2  0  0  0  0
 17 18  1  0  0  0  0
 18 20  2  0  0  0  0
 19 18  1  0  0  0  0
 20 22  1  0  0  0  0
 20 21  1  0  0  0  0
 23 22  2  0  0  0  0
M  END
>  <minimizedAffinity>
-4.19743156

$$$$
