
 OpenBabel03272509423D

 38 40  0  0  1  0  0  0  0  0999 V2000
   37.0250   30.9280   49.0500 C   0  0  0  0  0  0  0  0  0  0  0  0
   36.6950   31.8220   50.0710 C   0  0  0  0  0  0  0  0  0  0  0  0
   37.2710   33.0780   50.1580 C   0  0  0  0  0  0  0  0  0  0  0  0
   38.2110   33.4700   49.1980 C   0  0  0  0  0  0  0  0  0  0  0  0
   38.5260   32.5870   48.2040 C   0  0  0  0  0  0  0  0  0  0  0  0
   37.9280   31.3370   48.1510 C   0  0  0  0  0  0  0  0  0  0  0  0
   35.9620   31.5110   50.8140 H   0  0  0  0  0  0  0  0  0  0  0  0
   36.9570   33.6910   50.9720 H   0  0  0  0  0  0  0  0  0  0  0  0
   38.5960   34.4500   49.3500 H   0  0  0  0  0  0  0  0  0  0  0  0
   39.2670   33.0320   47.5420 H   0  0  0  0  0  0  0  0  0  0  0  0
   36.4490   29.6020   48.9780 C   0  0  2  0  0  0  0  0  0  0  0  0
   36.9790   29.0880   48.0890 H   0  0  0  0  0  0  0  0  0  0  0  0
   33.6090   30.0560   46.7550 C   0  0  0  0  0  0  0  0  0  0  0  0
   32.9050   28.8690   46.8660 C   0  0  0  0  0  0  0  0  0  0  0  0
   33.3660   27.9200   47.7580 C   0  0  0  0  0  0  0  0  0  0  0  0
   34.4990   28.1810   48.4960 N   0  0  0  0  0  0  0  0  0  0  0  0
   35.1270   29.3280   48.3440 C   0  0  0  0  0  0  0  0  0  0  0  0
   34.6900   30.2720   47.4780 N   0  0  0  0  0  0  0  0  0  0  0  0
   33.2160   30.7740   46.0460 H   0  0  0  0  0  0  0  0  0  0  0  0
   32.0170   28.5770   46.3350 H   0  0  0  0  0  0  0  0  0  0  0  0
   32.9420   26.9360   47.9770 H   0  0  0  0  0  0  0  0  0  0  0  0
   36.8950   28.8210   49.8950 O   0  0  0  0  0  0  0  0  0  0  0  0
   36.6430   28.9130   50.8430 H   0  0  0  0  0  0  0  0  0  0  0  0
   38.3750   30.4920   47.0670 C   0  0  0  0  0  3  0  0  0  0  0  0
   38.4520   30.8920   45.7940 C   0  0  0  0  0  3  0  0  0  0  0  0
   38.9350   30.1290   44.6190 C   0  0  0  0  0  0  0  0  0  0  0  0
   38.1700   30.0000   43.8350 H   0  0  0  0  0  0  0  0  0  0  0  0
   39.1980   29.0810   44.9470 H   0  0  0  0  0  0  0  0  0  0  0  0
   40.4460   30.8740   43.9970 S   0  0  0  0  0  0  0  0  0  0  0  0
   39.6250   32.2160   41.5460 F   0  0  0  0  0  0  0  0  0  0  0  0
   40.3040   31.0730   41.3580 C   0  0  0  0  0  0  0  0  0  0  0  0
   40.8060   30.2460   42.3670 C   0  0  0  0  0  0  0  0  0  0  0  0
   41.4880   29.0940   42.0320 C   0  0  0  0  0  0  0  0  0  0  0  0
   41.8290   28.5350   42.8770 H   0  0  0  0  0  0  0  0  0  0  0  0
   41.6700   28.7690   40.7040 C   0  0  0  0  0  0  0  0  0  0  0  0
   42.2000   27.8760   40.4720 H   0  0  0  0  0  0  0  0  0  0  0  0
   41.1780   29.5790   39.6770 C   0  0  0  0  0  3  0  0  0  0  0  0
   40.5000   30.7210   40.0250 C   0  0  0  0  0  3  0  0  0  0  0  0
  1  2  1  0  0  0  0
  2  3  2  0  0  0  0
  2  7  1  0  0  0  0
  3  8  1  0  0  0  0
  4  9  1  0  0  0  0
  4  3  1  0  0  0  0
  5  4  2  0  0  0  0
  6  5  1  0  0  0  0
  6  1  2  0  0  0  0
 10  5  1  0  0  0  0
 11 12  1  6  0  0  0
 11  1  1  0  0  0  0
 11 22  1  0  0  0  0
 13 14  2  0  0  0  0
 13 18  1  0  0  0  0
 14 15  1  0  0  0  0
 15 21  1  0  0  0  0
 15 16  2  0  0  0  0
 17 16  1  0  0  0  0
 17 11  1  0  0  0  0
 18 17  2  0  0  0  0
 19 13  1  0  0  0  0
 20 14  1  0  0  0  0
 22 23  1  0  0  0  0
 24  6  1  0  0  0  0
 25 24  2  0  0  0  0
 26 28  1  0  0  0  0
 26 25  1  0  0  0  0
 27 26  1  0  0  0  0
 29 26  1  0  0  0  0
 31 30  1  0  0  0  0
 31 32  1  0  0  0  0
 32 29  1  0  0  0  0
 33 32  2  0  0  0  0
 33 34  1  0  0  0  0
 35 33  1  0  0  0  0
 36 35  1  0  0  0  0
 37 38  1  0  0  0  0
 37 35  2  0  0  0  0
 38 31  2  0  0  0  0
M  END
>  <minimizedAffinity>
-6.14795113

>  <minimizedRMSD>
1.08705759

$$$$
