
 OpenBabel03272509423D

 38 40  0  0  1  0  0  0  0  0999 V2000
   37.0230   30.9170   49.0520 C   0  0  0  0  0  0  0  0  0  0  0  0
   36.7070   31.8210   50.0690 C   0  0  0  0  0  0  0  0  0  0  0  0
   37.2900   33.0740   50.1400 C   0  0  0  0  0  0  0  0  0  0  0  0
   38.2220   33.4550   49.1680 C   0  0  0  0  0  0  0  0  0  0  0  0
   38.5230   32.5630   48.1790 C   0  0  0  0  0  0  0  0  0  0  0  0
   37.9180   31.3150   48.1410 C   0  0  0  0  0  0  0  0  0  0  0  0
   35.9800   31.5190   50.8220 H   0  0  0  0  0  0  0  0  0  0  0  0
   36.9860   33.6950   50.9530 H   0  0  0  0  0  0  0  0  0  0  0  0
   38.6130   34.4340   49.3090 H   0  0  0  0  0  0  0  0  0  0  0  0
   39.2590   32.9990   47.5060 H   0  0  0  0  0  0  0  0  0  0  0  0
   36.4390   29.5940   48.9960 C   0  0  2  0  0  0  0  0  0  0  0  0
   36.9650   29.0670   48.1110 H   0  0  0  0  0  0  0  0  0  0  0  0
   33.5890   30.0470   46.7870 C   0  0  0  0  0  0  0  0  0  0  0  0
   32.8860   28.8600   46.9000 C   0  0  0  0  0  0  0  0  0  0  0  0
   33.3530   27.9100   47.7890 C   0  0  0  0  0  0  0  0  0  0  0  0
   34.4880   28.1720   48.5220 N   0  0  0  0  0  0  0  0  0  0  0  0
   35.1150   29.3200   48.3690 C   0  0  0  0  0  0  0  0  0  0  0  0
   34.6730   30.2630   47.5050 N   0  0  0  0  0  0  0  0  0  0  0  0
   33.1920   30.7660   46.0800 H   0  0  0  0  0  0  0  0  0  0  0  0
   31.9960   28.5680   46.3730 H   0  0  0  0  0  0  0  0  0  0  0  0
   32.9300   26.9260   48.0090 H   0  0  0  0  0  0  0  0  0  0  0  0
   36.8840   28.8210   49.9210 O   0  0  0  0  0  0  0  0  0  0  0  0
   36.6340   28.9240   50.8690 H   0  0  0  0  0  0  0  0  0  0  0  0
   38.3510   30.4590   47.0600 C   0  0  0  0  0  3  0  0  0  0  0  0
   38.5430   30.8820   45.8060 C   0  0  0  0  0  3  0  0  0  0  0  0
   39.0250   30.1070   44.6380 C   0  0  0  0  0  0  0  0  0  0  0  0
   38.2380   29.9030   43.8930 H   0  0  0  0  0  0  0  0  0  0  0  0
   39.3660   29.0910   44.9910 H   0  0  0  0  0  0  0  0  0  0  0  0
   40.4590   30.9200   43.9270 S   0  0  0  0  0  0  0  0  0  0  0  0
   41.9670   28.9890   42.3470 F   0  0  0  0  0  0  0  0  0  0  0  0
   41.1980   29.8240   41.6280 C   0  0  0  0  0  0  0  0  0  0  0  0
   40.3830   30.8350   42.1460 C   0  0  0  0  0  0  0  0  0  0  0  0
   39.6430   31.6230   41.2910 C   0  0  0  0  0  0  0  0  0  0  0  0
   39.0550   32.3650   41.7890 H   0  0  0  0  0  0  0  0  0  0  0  0
   39.7120   31.4080   39.9300 C   0  0  0  0  0  0  0  0  0  0  0  0
   39.1320   32.0290   39.2910 H   0  0  0  0  0  0  0  0  0  0  0  0
   40.5190   30.4040   39.3870 C   0  0  0  0  0  3  0  0  0  0  0  0
   41.2510   29.6270   40.2510 C   0  0  0  0  0  3  0  0  0  0  0  0
  1  2  1  0  0  0  0
  2  3  2  0  0  0  0
  2  7  1  0  0  0  0
  3  8  1  0  0  0  0
  4  9  1  0  0  0  0
  4  3  1  0  0  0  0
  5  4  2  0  0  0  0
  6  5  1  0  0  0  0
  6  1  2  0  0  0  0
 10  5  1  0  0  0  0
 11 12  1  6  0  0  0
 11  1  1  0  0  0  0
 11 22  1  0  0  0  0
 13 14  2  0  0  0  0
 13 18  1  0  0  0  0
 14 15  1  0  0  0  0
 15 21  1  0  0  0  0
 15 16  2  0  0  0  0
 17 16  1  0  0  0  0
 17 11  1  0  0  0  0
 18 17  2  0  0  0  0
 19 13  1  0  0  0  0
 20 14  1  0  0  0  0
 22 23  1  0  0  0  0
 24  6  1  0  0  0  0
 25 24  2  0  0  0  0
 26 28  1  0  0  0  0
 26 25  1  0  0  0  0
 27 26  1  0  0  0  0
 29 26  1  0  0  0  0
 31 32  1  0  0  0  0
 31 30  1  0  0  0  0
 32 29  1  0  0  0  0
 33 34  1  0  0  0  0
 33 32  2  0  0  0  0
 35 33  1  0  0  0  0
 36 35  1  0  0  0  0
 37 35  2  0  0  0  0
 37 38  1  0  0  0  0
 38 31  2  0  0  0  0
M  END
>  <minimizedAffinity>
-6.07466602

>  <minimizedRMSD>
0.987087965

$$$$
