
 OpenBabel03272509423D

 38 40  0  0  1  0  0  0  0  0999 V2000
   37.0440   30.9190   49.0780 C   0  0  0  0  0  0  0  0  0  0  0  0
   36.7560   31.8370   50.0910 C   0  0  0  0  0  0  0  0  0  0  0  0
   37.3400   33.0910   50.1290 C   0  0  0  0  0  0  0  0  0  0  0  0
   38.2460   33.4580   49.1270 C   0  0  0  0  0  0  0  0  0  0  0  0
   38.5200   32.5520   48.1420 C   0  0  0  0  0  0  0  0  0  0  0  0
   37.9140   31.3040   48.1380 C   0  0  0  0  0  0  0  0  0  0  0  0
   36.0490   31.5460   50.8670 H   0  0  0  0  0  0  0  0  0  0  0  0
   37.0590   33.7230   50.9410 H   0  0  0  0  0  0  0  0  0  0  0  0
   38.6400   34.4390   49.2430 H   0  0  0  0  0  0  0  0  0  0  0  0
   39.2370   32.9790   47.4440 H   0  0  0  0  0  0  0  0  0  0  0  0
   36.4580   29.5960   49.0560 C   0  0  2  0  0  0  0  0  0  0  0  0
   36.9600   29.0560   48.1650 H   0  0  0  0  0  0  0  0  0  0  0  0
   33.6060   29.9380   46.8300 C   0  0  0  0  0  0  0  0  0  0  0  0
   32.8570   28.7990   47.0680 C   0  0  0  0  0  0  0  0  0  0  0  0
   33.2940   27.9260   48.0460 C   0  0  0  0  0  0  0  0  0  0  0  0
   34.4470   28.2140   48.7420 N   0  0  0  0  0  0  0  0  0  0  0  0
   35.1170   29.3140   48.4680 C   0  0  0  0  0  0  0  0  0  0  0  0
   34.7050   30.1820   47.5160 N   0  0  0  0  0  0  0  0  0  0  0  0
   33.2310   30.5970   46.0560 H   0  0  0  0  0  0  0  0  0  0  0  0
   31.9500   28.4910   46.5790 H   0  0  0  0  0  0  0  0  0  0  0  0
   32.8340   26.9870   48.3680 H   0  0  0  0  0  0  0  0  0  0  0  0
   36.9270   28.8350   49.9800 O   0  0  0  0  0  0  0  0  0  0  0  0
   36.7030   28.9520   50.9320 H   0  0  0  0  0  0  0  0  0  0  0  0
   38.3170   30.4330   47.0570 C   0  0  0  0  0  3  0  0  0  0  0  0
   38.8460   30.8670   45.9080 C   0  0  0  0  0  3  0  0  0  0  0  0
   39.3320   30.0670   44.7600 C   0  0  0  0  0  0  0  0  0  0  0  0
   39.5080   29.0070   45.0080 H   0  0  0  0  0  0  0  0  0  0  0  0
   40.3390   30.4640   44.4390 H   0  0  0  0  0  0  0  0  0  0  0  0
   38.2210   30.2780   43.3650 S   0  0  0  0  0  0  0  0  0  0  0  0
   40.3130   31.9790   42.2560 F   0  0  0  0  0  0  0  0  0  0  0  0
   40.0360   30.8830   41.5290 C   0  0  0  0  0  0  0  0  0  0  0  0
   39.0800   29.9140   41.8450 C   0  0  0  0  0  0  0  0  0  0  0  0
   38.8990   28.8340   41.0070 C   0  0  0  0  0  0  0  0  0  0  0  0
   38.1440   28.1520   41.3400 H   0  0  0  0  0  0  0  0  0  0  0  0
   39.6630   28.7180   39.8640 C   0  0  0  0  0  0  0  0  0  0  0  0
   39.5040   27.8770   39.2340 H   0  0  0  0  0  0  0  0  0  0  0  0
   40.6250   29.6740   39.5270 C   0  0  0  0  0  3  0  0  0  0  0  0
   40.7950   30.7440   40.3710 C   0  0  0  0  0  3  0  0  0  0  0  0
  1  2  1  0  0  0  0
  2  3  2  0  0  0  0
  2  7  1  0  0  0  0
  3  8  1  0  0  0  0
  4  9  1  0  0  0  0
  4  3  1  0  0  0  0
  5  4  2  0  0  0  0
  6  5  1  0  0  0  0
  6  1  2  0  0  0  0
 10  5  1  0  0  0  0
 11 12  1  6  0  0  0
 11  1  1  0  0  0  0
 11 22  1  0  0  0  0
 13 14  2  0  0  0  0
 13 18  1  0  0  0  0
 14 15  1  0  0  0  0
 15 21  1  0  0  0  0
 15 16  2  0  0  0  0
 17 16  1  0  0  0  0
 17 11  1  0  0  0  0
 18 17  2  0  0  0  0
 19 13  1  0  0  0  0
 20 14  1  0  0  0  0
 22 23  1  0  0  0  0
 24  6  1  0  0  0  0
 25 24  2  0  0  0  0
 26 27  1  0  0  0  0
 26 25  1  0  0  0  0
 28 26  1  0  0  0  0
 29 26  1  0  0  0  0
 31 32  1  0  0  0  0
 31 30  1  0  0  0  0
 32 29  1  0  0  0  0
 33 34  1  0  0  0  0
 33 32  2  0  0  0  0
 35 33  1  0  0  0  0
 36 35  1  0  0  0  0
 37 35  2  0  0  0  0
 37 38  1  0  0  0  0
 38 31  2  0  0  0  0
M  END
>  <minimizedAffinity>
-5.7287693

>  <minimizedRMSD>
0.562066138

$$$$
