REMARK  Name = 
REMARK  4 active torsions:
REMARK  status: ('A' for Active; 'I' for Inactive)
REMARK    1  A    between atoms: C_1  and  C_8
REMARK    2  A    between atoms: C_4  and  O_13
REMARK    3  A    between atoms: O_13  and  C_14
REMARK    4  A    between atoms: N_17  and  C_29
REMARK                            x       y       z     vdW  Elec       q    Type
REMARK                         _______ _______ _______ _____ _____    ______ ____
ROOT
ATOM      1  C   UNL     1      33.839  28.779  48.283  0.00  0.00    +0.000 A 
ATOM      2  C   UNL     1      34.448  28.412  49.430  0.00  0.00    +0.000 A 
ATOM      3  C   UNL     1      35.713  28.781  49.800  0.00  0.00    +0.000 A 
ATOM      4  C   UNL     1      36.461  29.575  48.995  0.00  0.00    +0.000 A 
ATOM      5  C   UNL     1      35.846  29.969  47.796  0.00  0.00    +0.000 A 
ATOM      6  N   UNL     1      34.597  29.578  47.477  0.00  0.00    +0.000 NA
ATOM      7  H   UNL     1      33.925  27.777  50.133  0.00  0.00    +0.000 HD
ATOM      8  H   UNL     1      36.190  28.476  50.731  0.00  0.00    +0.000 HD
ATOM      9  H   UNL     1      36.325  30.600  47.063  0.00  0.00    +0.000 HD
ENDROOT
BRANCH   1  11
ATOM     10  C   UNL     1      31.641  27.659  48.698  0.00  0.00    +0.000 A 
ATOM     11  C   UNL     1      32.513  28.398  47.882  0.00  0.00    +0.000 A 
ATOM     12  C   UNL     1      32.031  28.757  46.641  0.00  0.00    +0.000 A 
ATOM     13  N   UNL     1      30.771  28.394  46.264  0.00  0.00    +0.000 NA
ATOM     14  C   UNL     1      29.984  27.684  47.094  0.00  0.00    +0.000 A 
ATOM     15  N   UNL     1      30.406  27.305  48.325  0.00  0.00    +0.000 NA
ATOM     16  H   UNL     1      31.980  27.355  49.685  0.00  0.00    +0.000 HD
ATOM     17  H   UNL     1      32.679  29.325  45.993  0.00  0.00    +0.000 HD
ATOM     18  H   UNL     1      29.022  27.478  46.649  0.00  0.00    +0.000 HD
ENDBRANCH   1  11
BRANCH   4  19
ATOM     19  O   UNL     1      37.760  30.044  49.216  0.00  0.00    +0.000 OA
BRANCH  19  20
ATOM     20  C   UNL     1      38.160  31.301  48.787  0.00  0.00    +0.000 A 
ATOM     21  C   UNL     1      37.867  32.345  49.669  0.00  0.00    +0.000 A 
ATOM     22  C   UNL     1      38.328  33.526  49.100  0.00  0.00    +0.000 A 
ATOM     23  N   UNL     1      38.867  33.168  47.928  0.00  0.00    +0.000 N 
ATOM     24  N   UNL     1      38.775  31.875  47.737  0.00  0.00    +0.000 NA
ATOM     25  H   UNL     1      37.383  32.403  50.644  0.00  0.00    +0.000 HD
ATOM     26  H   UNL     1      38.313  34.558  49.427  0.00  0.00    +0.000 HD
BRANCH  23  29
ATOM     27  F   UNL     1      38.970  35.938  48.119  0.00  0.00    +0.000 F 
ATOM     28  C   UNL     1      39.538  35.359  47.032  0.00  0.00    +0.000 A 
ATOM     29  C   UNL     1      39.494  33.989  46.925  0.00  0.00    +0.000 A 
ATOM     30  C   UNL     1      40.067  33.382  45.825  0.00  0.00    +0.000 A 
ATOM     31  H   UNL     1      40.078  32.312  45.662  0.00  0.00    +0.000 HD
ATOM     32  C   UNL     1      40.667  34.171  44.865  0.00  0.00    +0.000 A 
ATOM     33  H   UNL     1      41.125  33.703  43.988  0.00  0.00    +0.000 HD
ATOM     34  C   UNL     1      40.730  35.542  44.937  0.00  0.00    +0.000 A 
ATOM     35  C   UNL     1      40.151  36.120  46.044  0.00  0.00    +0.000 A 
ENDBRANCH  23  29
ENDBRANCH  19  20
ENDBRANCH   4  19
TORSDOF 4
