
 OpenBabel03272501023D

 34 36  0  0  0  0  0  0  0  0999 V2000
   37.9260   23.3700   33.2030 F   0  0  0  0  0  0  0  0  0  0  0  0
   37.0660   24.1280   32.4700 C   0  0  0  0  0  0  0  0  0  0  0  0
   36.0870   23.5790   31.6540 C   0  0  0  0  0  0  0  0  0  0  0  0
   35.2710   24.4270   30.9570 C   0  0  0  0  0  0  0  0  0  0  0  0
   35.3510   25.8000   31.0080 C   0  0  0  0  0  0  0  0  0  0  0  0
   36.3330   26.3340   31.8280 C   0  0  0  0  0  0  0  0  0  0  0  0
   37.1910   25.5160   32.5590 C   0  0  0  0  0  0  0  0  0  0  0  0
   34.4930   24.0290   30.3080 H   0  0  0  0  0  0  0  0  0  0  0  0
   34.6980   26.4580   30.4510 H   0  0  0  0  0  0  0  0  0  0  0  0
   36.4420   27.4060   31.9070 H   0  0  0  0  0  0  0  0  0  0  0  0
   34.8400   20.2060   32.2890 C   0  0  0  0  0  0  0  0  0  0  0  0
   35.6590   19.3910   31.5160 C   0  0  0  0  0  0  0  0  0  0  0  0
   36.6530   20.0090   30.7680 C   0  0  0  0  0  0  0  0  0  0  0  0
   36.8020   21.3750   30.8060 N   0  0  0  0  0  0  0  0  0  0  0  0
   35.9740   22.1200   31.5760 C   0  0  0  0  0  0  0  0  0  0  0  0
   34.9880   21.5440   32.3230 N   0  0  0  0  0  0  0  0  0  0  0  0
   34.0470   19.7790   32.8930 H   0  0  0  0  0  0  0  0  0  0  0  0
   35.4790   18.3420   31.5410 H   0  0  0  0  0  0  0  0  0  0  0  0
   37.2740   19.3750   30.1810 H   0  0  0  0  0  0  0  0  0  0  0  0
   38.1510   26.0520   33.3600 O   0  0  0  0  0  0  0  0  0  0  0  0
   36.7860   27.4220   35.0640 O   0  0  0  0  0  0  0  0  0  0  0  0
   38.0390   26.5330   34.9660 P   0  0  2  0  0  0  0  0  0  0  0  0
   39.3270   27.4300   35.5470 O   0  0  0  0  0  0  0  0  0  0  0  0
   39.9380   26.8240   36.0520 H   0  0  0  0  0  0  0  0  0  0  0  0
   37.7460   25.1970   35.9710 O   0  0  0  0  0  0  0  0  0  0  0  0
   37.4120   24.3570   38.5130 F   0  0  0  0  0  0  0  0  0  0  0  0
   38.4690   23.9060   37.7600 C   0  0  0  0  0  0  0  0  0  0  0  0
   38.6870   24.3100   36.4380 C   0  0  0  0  0  0  0  0  0  0  0  0
   39.7690   23.8180   35.7380 C   0  0  0  0  0  0  0  0  0  0  0  0
   39.8890   24.1640   34.7210 H   0  0  0  0  0  0  0  0  0  0  0  0
   40.6470   22.9300   36.3150 C   0  0  0  0  0  0  0  0  0  0  0  0
   41.5000   22.5390   35.7750 H   0  0  0  0  0  0  0  0  0  0  0  0
   40.4350   22.5250   37.6320 C   0  0  0  0  0  3  0  0  0  0  0  0
   39.3590   23.0080   38.3420 C   0  0  0  0  0  3  0  0  0  0  0  0
  2  7  1  0  0  0  0
  2  1  1  0  0  0  0
  3  2  2  0  0  0  0
  4  5  2  0  0  0  0
  4  3  1  0  0  0  0
  5  6  1  0  0  0  0
  6 10  1  0  0  0  0
  6  7  2  0  0  0  0
  7 20  1  0  0  0  0
  8  4  1  0  0  0  0
  9  5  1  0  0  0  0
 11 16  1  0  0  0  0
 11 17  1  0  0  0  0
 12 18  1  0  0  0  0
 12 11  2  0  0  0  0
 13 14  2  0  0  0  0
 13 12  1  0  0  0  0
 14 15  1  0  0  0  0
 15  3  1  0  0  0  0
 15 16  2  0  0  0  0
 19 13  1  0  0  0  0
 20 22  1  0  0  0  0
 22 21  2  1  0  0  0
 22 23  1  0  0  0  0
 22 25  1  0  0  0  0
 23 24  1  0  0  0  0
 25 28  1  0  0  0  0
 27 34  1  0  0  0  0
 27 26  1  0  0  0  0
 28 27  2  0  0  0  0
 29 31  2  0  0  0  0
 29 28  1  0  0  0  0
 30 29  1  0  0  0  0
 31 33  1  0  0  0  0
 32 31  1  0  0  0  0
 33 34  2  0  0  0  0
M  END
>  <minimizedAffinity>
-6.42263985

$$$$

 OpenBabel03272501023D

 34 36  0  0  0  0  0  0  0  0999 V2000
   36.4880   27.6340   35.1820 F   0  0  0  0  0  0  0  0  0  0  0  0
   36.5230   28.1250   33.9130 C   0  0  0  0  0  0  0  0  0  0  0  0
   35.9500   29.3390   33.5620 C   0  0  0  0  0  0  0  0  0  0  0  0
   36.0380   29.7460   32.2590 C   0  0  0  0  0  0  0  0  0  0  0  0
   36.6610   29.0310   31.2610 C   0  0  0  0  0  0  0  0  0  0  0  0
   37.2290   27.8210   31.6280 C   0  0  0  0  0  0  0  0  0  0  0  0
   37.1680   27.3590   32.9400 C   0  0  0  0  0  0  0  0  0  0  0  0
   35.5990   30.6920   31.9490 H   0  0  0  0  0  0  0  0  0  0  0  0
   36.7240   29.3650   30.2350 H   0  0  0  0  0  0  0  0  0  0  0  0
   37.7320   27.2170   30.8860 H   0  0  0  0  0  0  0  0  0  0  0  0
   33.2570   30.6640   35.6410 C   0  0  0  0  0  0  0  0  0  0  0  0
   33.8980   31.5470   36.5040 C   0  0  0  0  0  0  0  0  0  0  0  0
   35.2730   31.6870   36.3680 C   0  0  0  0  0  0  0  0  0  0  0  0
   35.9530   30.9720   35.4120 N   0  0  0  0  0  0  0  0  0  0  0  0
   35.2770   30.1260   34.5990 C   0  0  0  0  0  0  0  0  0  0  0  0
   33.9260   29.9650   34.7050 N   0  0  0  0  0  0  0  0  0  0  0  0
   32.1850   30.5140   35.7010 H   0  0  0  0  0  0  0  0  0  0  0  0
   33.3000   32.0630   37.2170 H   0  0  0  0  0  0  0  0  0  0  0  0
   35.7530   32.3660   37.0340 H   0  0  0  0  0  0  0  0  0  0  0  0
   37.7290   26.1690   33.2880 O   0  0  0  0  0  0  0  0  0  0  0  0
   39.7090   26.8920   34.7720 O   0  0  0  0  0  0  0  0  0  0  0  0
   39.3180   25.8370   33.7200 P   0  0  2  0  0  0  0  0  0  0  0  0
   40.4420   25.9340   32.4840 O   0  0  0  0  0  0  0  0  0  0  0  0
   40.6260   25.0130   32.1450 H   0  0  0  0  0  0  0  0  0  0  0  0
   39.4240   24.3340   34.5020 O   0  0  0  0  0  0  0  0  0  0  0  0
   41.1160   22.6990   35.8230 F   0  0  0  0  0  0  0  0  0  0  0  0
   40.0150   23.2260   36.4550 C   0  0  0  0  0  0  0  0  0  0  0  0
   39.1080   24.0790   35.8150 C   0  0  0  0  0  0  0  0  0  0  0  0
   38.0230   24.5740   36.5090 C   0  0  0  0  0  0  0  0  0  0  0  0
   37.3550   25.2270   35.9660 H   0  0  0  0  0  0  0  0  0  0  0  0
   37.8100   24.2440   37.8280 C   0  0  0  0  0  0  0  0  0  0  0  0
   36.9620   24.6260   38.3820 H   0  0  0  0  0  0  0  0  0  0  0  0
   38.7110   23.3940   38.4700 C   0  0  0  0  0  3  0  0  0  0  0  0
   39.7970   22.8940   37.7890 C   0  0  0  0  0  3  0  0  0  0  0  0
  2  1  1  0  0  0  0
  3  2  1  0  0  0  0
  3 15  1  0  0  0  0
  4  3  2  0  0  0  0
  5  6  2  0  0  0  0
  5  4  1  0  0  0  0
  6  7  1  0  0  0  0
  7 20  1  0  0  0  0
  7  2  2  0  0  0  0
  8  4  1  0  0  0  0
  9  5  1  0  0  0  0
 10  6  1  0  0  0  0
 11 17  1  0  0  0  0
 11 12  1  0  0  0  0
 12 18  1  0  0  0  0
 13 12  2  0  0  0  0
 13 19  1  0  0  0  0
 14 13  1  0  0  0  0
 15 16  1  0  0  0  0
 15 14  2  0  0  0  0
 16 11  2  0  0  0  0
 20 22  1  0  0  0  0
 22 25  1  0  0  0  0
 22 21  2  1  0  0  0
 23 22  1  0  0  0  0
 24 23  1  0  0  0  0
 25 28  1  0  0  0  0
 26 27  1  0  0  0  0
 27 34  1  0  0  0  0
 28 27  2  0  0  0  0
 28 29  1  0  0  0  0
 29 31  2  0  0  0  0
 30 29  1  0  0  0  0
 31 32  1  0  0  0  0
 31 33  1  0  0  0  0
 34 33  2  0  0  0  0
M  END
>  <minimizedAffinity>
-5.94776392

$$$$

 OpenBabel03272501023D

 34 36  0  0  0  0  0  0  0  0999 V2000
   37.7830   23.9470   33.8910 F   0  0  0  0  0  0  0  0  0  0  0  0
   37.8680   25.1880   34.4440 C   0  0  0  0  0  0  0  0  0  0  0  0
   38.6260   25.4550   35.5750 C   0  0  0  0  0  0  0  0  0  0  0  0
   38.6470   26.7350   36.0560 C   0  0  0  0  0  0  0  0  0  0  0  0
   37.9630   27.7890   35.4920 C   0  0  0  0  0  0  0  0  0  0  0  0
   37.2110   27.5060   34.3620 C   0  0  0  0  0  0  0  0  0  0  0  0
   37.1540   26.2200   33.8320 C   0  0  0  0  0  0  0  0  0  0  0  0
   39.2310   26.9800   36.9410 H   0  0  0  0  0  0  0  0  0  0  0  0
   37.9900   28.7960   35.8820 H   0  0  0  0  0  0  0  0  0  0  0  0
   36.6540   28.2950   33.8770 H   0  0  0  0  0  0  0  0  0  0  0  0
   39.4730   22.8270   37.9650 C   0  0  0  0  0  0  0  0  0  0  0  0
   40.6600   22.2940   37.4750 C   0  0  0  0  0  0  0  0  0  0  0  0
   41.1750   22.8440   36.3090 C   0  0  0  0  0  0  0  0  0  0  0  0
   40.5200   23.8760   35.6800 N   0  0  0  0  0  0  0  0  0  0  0  0
   39.3670   24.3570   36.2020 C   0  0  0  0  0  0  0  0  0  0  0  0
   38.8340   23.8390   37.3470 N   0  0  0  0  0  0  0  0  0  0  0  0
   39.0250   22.4380   38.8720 H   0  0  0  0  0  0  0  0  0  0  0  0
   41.1050   21.4950   38.0200 H   0  0  0  0  0  0  0  0  0  0  0  0
   42.0840   22.4270   35.9430 H   0  0  0  0  0  0  0  0  0  0  0  0
   36.4120   25.9550   32.7230 O   0  0  0  0  0  0  0  0  0  0  0  0
   38.4120   26.1500   31.1090 O   0  0  0  0  0  0  0  0  0  0  0  0
   36.8830   25.9600   31.1110 P   0  0  2  0  0  0  0  0  0  0  0  0
   36.2330   27.1800   30.1680 O   0  0  0  0  0  0  0  0  0  0  0  0
   35.4570   26.8130   29.6590 H   0  0  0  0  0  0  0  0  0  0  0  0
   36.5990   24.4450   30.3990 O   0  0  0  0  0  0  0  0  0  0  0  0
   38.8810   23.0100   30.2840 F   0  0  0  0  0  0  0  0  0  0  0  0
   37.7850   22.5300   30.9600 C   0  0  0  0  0  0  0  0  0  0  0  0
   36.5790   23.2340   31.0500 C   0  0  0  0  0  0  0  0  0  0  0  0
   35.5170   22.6930   31.7450 C   0  0  0  0  0  0  0  0  0  0  0  0
   34.6100   23.2800   31.7820 H   0  0  0  0  0  0  0  0  0  0  0  0
   35.6180   21.4650   32.3570 C   0  0  0  0  0  0  0  0  0  0  0  0
   34.7910   21.0310   32.9040 H   0  0  0  0  0  0  0  0  0  0  0  0
   36.8170   20.7590   32.2700 C   0  0  0  0  0  3  0  0  0  0  0  0
   37.8840   21.2870   31.5800 C   0  0  0  0  0  3  0  0  0  0  0  0
  1  2  1  0  0  0  0
  2  3  1  0  0  0  0
  3  4  2  0  0  0  0
  3 15  1  0  0  0  0
  4  8  1  0  0  0  0
  5  9  1  0  0  0  0
  5  4  1  0  0  0  0
  6  5  2  0  0  0  0
  7  6  1  0  0  0  0
  7  2  2  0  0  0  0
 10  6  1  0  0  0  0
 11 17  1  0  0  0  0
 12 11  1  0  0  0  0
 12 18  1  0  0  0  0
 13 12  2  0  0  0  0
 14 15  2  0  0  0  0
 14 13  1  0  0  0  0
 15 16  1  0  0  0  0
 16 11  2  0  0  0  0
 19 13  1  0  0  0  0
 20  7  1  0  0  0  0
 22 21  2  6  0  0  0
 22 20  1  0  0  0  0
 23 22  1  0  0  0  0
 24 23  1  0  0  0  0
 25 28  1  0  0  0  0
 25 22  1  0  0  0  0
 26 27  1  0  0  0  0
 27 28  2  0  0  0  0
 27 34  1  0  0  0  0
 28 29  1  0  0  0  0
 29 30  1  0  0  0  0
 29 31  2  0  0  0  0
 31 32  1  0  0  0  0
 33 31  1  0  0  0  0
 34 33  2  0  0  0  0
M  END
>  <minimizedAffinity>
-5.74159813

$$$$

 OpenBabel03272501023D

 34 36  0  0  0  0  0  0  0  0999 V2000
   38.4890   26.1900   32.3550 F   0  0  0  0  0  0  0  0  0  0  0  0
   37.4360   25.4400   31.9290 C   0  0  0  0  0  0  0  0  0  0  0  0
   36.2810   25.9970   31.3990 C   0  0  0  0  0  0  0  0  0  0  0  0
   35.2780   25.1580   31.0000 C   0  0  0  0  0  0  0  0  0  0  0  0
   35.3320   23.7850   31.0860 C   0  0  0  0  0  0  0  0  0  0  0  0
   36.4930   23.2430   31.6160 C   0  0  0  0  0  0  0  0  0  0  0  0
   37.5440   24.0520   32.0400 C   0  0  0  0  0  0  0  0  0  0  0  0
   34.3590   25.5620   30.5800 H   0  0  0  0  0  0  0  0  0  0  0  0
   34.5320   23.1340   30.7650 H   0  0  0  0  0  0  0  0  0  0  0  0
   36.5910   22.1700   31.7080 H   0  0  0  0  0  0  0  0  0  0  0  0
   35.3990   29.4390   32.2440 C   0  0  0  0  0  0  0  0  0  0  0  0
   35.9450   30.1920   31.2110 C   0  0  0  0  0  0  0  0  0  0  0  0
   36.6250   29.5070   30.2110 C   0  0  0  0  0  0  0  0  0  0  0  0
   36.7410   28.1390   30.2630 N   0  0  0  0  0  0  0  0  0  0  0  0
   36.1890   27.4560   31.2930 C   0  0  0  0  0  0  0  0  0  0  0  0
   35.5140   28.0980   32.2920 N   0  0  0  0  0  0  0  0  0  0  0  0
   34.8570   29.9180   33.0520 H   0  0  0  0  0  0  0  0  0  0  0  0
   35.8110   31.2470   31.2450 H   0  0  0  0  0  0  0  0  0  0  0  0
   37.0380   30.0950   29.4260 H   0  0  0  0  0  0  0  0  0  0  0  0
   38.6770   23.5080   32.5590 O   0  0  0  0  0  0  0  0  0  0  0  0
   39.7320   21.2130   33.0760 O   0  0  0  0  0  0  0  0  0  0  0  0
   38.8340   22.2930   33.7090 P   0  0  2  0  0  0  0  0  0  0  0  0
   37.4120   21.5430   34.1720 O   0  0  0  0  0  0  0  0  0  0  0  0
   37.1030   21.9440   35.0320 H   0  0  0  0  0  0  0  0  0  0  0  0
   39.6750   22.8610   35.0700 O   0  0  0  0  0  0  0  0  0  0  0  0
   40.3890   21.7720   37.4330 F   0  0  0  0  0  0  0  0  0  0  0  0
   39.5180   22.8340   37.3860 C   0  0  0  0  0  0  0  0  0  0  0  0
   39.1170   23.4350   36.1870 C   0  0  0  0  0  0  0  0  0  0  0  0
   38.2390   24.5000   36.2120 C   0  0  0  0  0  0  0  0  0  0  0  0
   37.9630   24.9240   35.2570 H   0  0  0  0  0  0  0  0  0  0  0  0
   37.7450   24.9880   37.3990 C   0  0  0  0  0  0  0  0  0  0  0  0
   37.0560   25.8220   37.4300 H   0  0  0  0  0  0  0  0  0  0  0  0
   38.1410   24.3930   38.5960 C   0  0  0  0  0  3  0  0  0  0  0  0
   39.0160   23.3310   38.5860 C   0  0  0  0  0  3  0  0  0  0  0  0
  2  7  1  0  0  0  0
  2  1  1  0  0  0  0
  3  2  2  0  0  0  0
  4  5  2  0  0  0  0
  4  3  1  0  0  0  0
  5  6  1  0  0  0  0
  6 10  1  0  0  0  0
  6  7  2  0  0  0  0
  7 20  1  0  0  0  0
  8  4  1  0  0  0  0
  9  5  1  0  0  0  0
 11 16  1  0  0  0  0
 11 17  1  0  0  0  0
 12 18  1  0  0  0  0
 12 11  2  0  0  0  0
 13 14  2  0  0  0  0
 13 12  1  0  0  0  0
 14 15  1  0  0  0  0
 15  3  1  0  0  0  0
 15 16  2  0  0  0  0
 19 13  1  0  0  0  0
 20 22  1  0  0  0  0
 22 21  2  6  0  0  0
 22 23  1  0  0  0  0
 22 25  1  0  0  0  0
 23 24  1  0  0  0  0
 25 28  1  0  0  0  0
 27 26  1  0  0  0  0
 27 34  1  0  0  0  0
 28 29  1  0  0  0  0
 28 27  2  0  0  0  0
 29 31  2  0  0  0  0
 30 29  1  0  0  0  0
 31 32  1  0  0  0  0
 31 33  1  0  0  0  0
 34 33  2  0  0  0  0
M  END
>  <minimizedAffinity>
-5.73943853

$$$$

 OpenBabel03272501023D

 34 36  0  0  0  0  0  0  0  0999 V2000
   37.4460   24.9570   33.4850 F   0  0  0  0  0  0  0  0  0  0  0  0
   38.5870   25.6980   33.5240 C   0  0  0  0  0  0  0  0  0  0  0  0
   39.4320   25.7170   34.6250 C   0  0  0  0  0  0  0  0  0  0  0  0
   40.5560   26.4940   34.5670 C   0  0  0  0  0  0  0  0  0  0  0  0
   40.9140   27.2660   33.4850 C   0  0  0  0  0  0  0  0  0  0  0  0
   40.0600   27.2350   32.3930 C   0  0  0  0  0  0  0  0  0  0  0  0
   38.9020   26.4620   32.3990 C   0  0  0  0  0  0  0  0  0  0  0  0
   41.2410   26.5330   35.4130 H   0  0  0  0  0  0  0  0  0  0  0  0
   41.8060   27.8750   33.4530 H   0  0  0  0  0  0  0  0  0  0  0  0
   40.2910   27.8220   31.5150 H   0  0  0  0  0  0  0  0  0  0  0  0
   39.4600   22.9380   36.9940 C   0  0  0  0  0  0  0  0  0  0  0  0
   38.5150   23.2980   37.9480 C   0  0  0  0  0  0  0  0  0  0  0  0
   37.8610   24.5100   37.7750 C   0  0  0  0  0  0  0  0  0  0  0  0
   38.1520   25.3080   36.6940 N   0  0  0  0  0  0  0  0  0  0  0  0
   39.0820   24.9080   35.7950 C   0  0  0  0  0  0  0  0  0  0  0  0
   39.7430   23.7220   35.9360 N   0  0  0  0  0  0  0  0  0  0  0  0
   40.0020   22.0030   37.0770 H   0  0  0  0  0  0  0  0  0  0  0  0
   38.3480   22.6250   38.7560 H   0  0  0  0  0  0  0  0  0  0  0  0
   37.1390   24.7740   38.5120 H   0  0  0  0  0  0  0  0  0  0  0  0
   38.0720   26.4410   31.3220 O   0  0  0  0  0  0  0  0  0  0  0  0
   35.5130   26.7530   31.3480 O   0  0  0  0  0  0  0  0  0  0  0  0
   36.8080   27.4810   30.9420 P   0  0  2  0  0  0  0  0  0  0  0  0
   36.6610   27.8850   29.3250 O   0  0  0  0  0  0  0  0  0  0  0  0
   37.0820   28.7770   29.1770 H   0  0  0  0  0  0  0  0  0  0  0  0
   36.8770   28.8820   31.8980 O   0  0  0  0  0  0  0  0  0  0  0  0
   36.6530   28.4250   34.5480 F   0  0  0  0  0  0  0  0  0  0  0  0
   35.7440   29.2230   33.8960 C   0  0  0  0  0  0  0  0  0  0  0  0
   35.8150   29.4910   32.5240 C   0  0  0  0  0  0  0  0  0  0  0  0
   34.8680   30.3010   31.9310 C   0  0  0  0  0  0  0  0  0  0  0  0
   34.9720   30.4730   30.8690 H   0  0  0  0  0  0  0  0  0  0  0  0
   33.8450   30.8560   32.6650 C   0  0  0  0  0  0  0  0  0  0  0  0
   33.0970   31.4920   32.2100 H   0  0  0  0  0  0  0  0  0  0  0  0
   33.7690   30.5910   34.0320 C   0  0  0  0  0  3  0  0  0  0  0  0
   34.7080   29.7850   34.6360 C   0  0  0  0  0  3  0  0  0  0  0  0
  1  2  1  0  0  0  0
  2  3  1  0  0  0  0
  3 15  1  0  0  0  0
  4  3  2  0  0  0  0
  4  8  1  0  0  0  0
  5  4  1  0  0  0  0
  6  7  1  0  0  0  0
  6  5  2  0  0  0  0
  7  2  2  0  0  0  0
  9  5  1  0  0  0  0
 10  6  1  0  0  0  0
 11 17  1  0  0  0  0
 11 12  1  0  0  0  0
 12 18  1  0  0  0  0
 13 12  2  0  0  0  0
 13 19  1  0  0  0  0
 14 13  1  0  0  0  0
 15 16  1  0  0  0  0
 15 14  2  0  0  0  0
 16 11  2  0  0  0  0
 20  7  1  0  0  0  0
 22 20  1  0  0  0  0
 22 21  2  1  0  0  0
 22 25  1  0  0  0  0
 23 22  1  0  0  0  0
 24 23  1  0  0  0  0
 25 28  1  0  0  0  0
 27 26  1  0  0  0  0
 27 34  1  0  0  0  0
 28 27  2  0  0  0  0
 29 28  1  0  0  0  0
 29 31  2  0  0  0  0
 30 29  1  0  0  0  0
 31 33  1  0  0  0  0
 32 31  1  0  0  0  0
 33 34  2  0  0  0  0
M  END
>  <minimizedAffinity>
-5.7101469

$$$$

 OpenBabel03272501023D

 34 36  0  0  0  0  0  0  0  0999 V2000
   37.0580   25.6690   35.5530 F   0  0  0  0  0  0  0  0  0  0  0  0
   38.2180   25.9760   34.9110 C   0  0  0  0  0  0  0  0  0  0  0  0
   38.2990   26.9570   33.9330 C   0  0  0  0  0  0  0  0  0  0  0  0
   39.5120   27.1920   33.3470 C   0  0  0  0  0  0  0  0  0  0  0  0
   40.6710   26.5190   33.6610 C   0  0  0  0  0  0  0  0  0  0  0  0
   40.5750   25.5440   34.6410 C   0  0  0  0  0  0  0  0  0  0  0  0
   39.3640   25.2630   35.2700 C   0  0  0  0  0  0  0  0  0  0  0  0
   39.6100   27.9530   32.5750 H   0  0  0  0  0  0  0  0  0  0  0  0
   41.6240   26.7160   33.1900 H   0  0  0  0  0  0  0  0  0  0  0  0
   41.4540   24.9840   34.9290 H   0  0  0  0  0  0  0  0  0  0  0  0
   35.5160   28.1810   31.9100 C   0  0  0  0  0  0  0  0  0  0  0  0
   34.8140   29.0170   32.7710 C   0  0  0  0  0  0  0  0  0  0  0  0
   35.3040   29.1620   34.0620 C   0  0  0  0  0  0  0  0  0  0  0  0
   36.4400   28.4940   34.4520 N   0  0  0  0  0  0  0  0  0  0  0  0
   37.0840   27.6920   33.5720 C   0  0  0  0  0  0  0  0  0  0  0  0
   36.6290   27.5280   32.2950 N   0  0  0  0  0  0  0  0  0  0  0  0
   35.1810   28.0300   30.8900 H   0  0  0  0  0  0  0  0  0  0  0  0
   33.9430   29.4980   32.3920 H   0  0  0  0  0  0  0  0  0  0  0  0
   34.7580   29.8050   34.7120 H   0  0  0  0  0  0  0  0  0  0  0  0
   39.2830   24.3030   36.2300 O   0  0  0  0  0  0  0  0  0  0  0  0
   37.3490   22.6410   36.6110 O   0  0  0  0  0  0  0  0  0  0  0  0
   38.7950   22.7020   36.0830 P   0  0  2  0  0  0  0  0  0  0  0  0
   39.6870   21.5880   36.9580 O   0  0  0  0  0  0  0  0  0  0  0  0
   40.3510   21.1600   36.3490 H   0  0  0  0  0  0  0  0  0  0  0  0
   38.7170   22.2480   34.4500 O   0  0  0  0  0  0  0  0  0  0  0  0
   38.3420   23.9480   32.3890 F   0  0  0  0  0  0  0  0  0  0  0  0
   37.4230   22.9630   32.6590 C   0  0  0  0  0  0  0  0  0  0  0  0
   37.5710   22.0560   33.7150 C   0  0  0  0  0  0  0  0  0  0  0  0
   36.6100   21.0890   33.9310 C   0  0  0  0  0  0  0  0  0  0  0  0
   36.7740   20.4160   34.7600 H   0  0  0  0  0  0  0  0  0  0  0  0
   35.4990   20.9960   33.1240 C   0  0  0  0  0  0  0  0  0  0  0  0
   34.7390   20.2420   33.2850 H   0  0  0  0  0  0  0  0  0  0  0  0
   35.3470   21.8970   32.0710 C   0  0  0  0  0  3  0  0  0  0  0  0
   36.2980   22.8660   31.8450 C   0  0  0  0  0  3  0  0  0  0  0  0
  2  7  1  0  0  0  0
  2  1  1  0  0  0  0
  3  2  2  0  0  0  0
  4  5  2  0  0  0  0
  4  3  1  0  0  0  0
  5  6  1  0  0  0  0
  6 10  1  0  0  0  0
  6  7  2  0  0  0  0
  7 20  1  0  0  0  0
  8  4  1  0  0  0  0
  9  5  1  0  0  0  0
 11 16  2  0  0  0  0
 11 12  1  0  0  0  0
 12 13  2  0  0  0  0
 13 14  1  0  0  0  0
 13 19  1  0  0  0  0
 15  3  1  0  0  0  0
 15 14  2  0  0  0  0
 16 15  1  0  0  0  0
 17 11  1  0  0  0  0
 18 12  1  0  0  0  0
 22 20  1  0  0  0  0
 22 21  2  1  0  0  0
 22 23  1  0  0  0  0
 24 23  1  0  0  0  0
 25 22  1  0  0  0  0
 26 27  1  0  0  0  0
 27 28  1  0  0  0  0
 28 29  2  0  0  0  0
 28 25  1  0  0  0  0
 29 30  1  0  0  0  0
 31 32  1  0  0  0  0
 31 29  1  0  0  0  0
 33 31  2  0  0  0  0
 34 33  1  0  0  0  0
 34 27  2  0  0  0  0
M  END
>  <minimizedAffinity>
-5.6011734

$$$$

 OpenBabel03272501023D

 34 36  0  0  0  0  0  0  0  0999 V2000
   36.0590   28.0630   34.7200 F   0  0  0  0  0  0  0  0  0  0  0  0
   35.9490   28.8850   33.6400 C   0  0  0  0  0  0  0  0  0  0  0  0
   35.9590   28.4160   32.3350 C   0  0  0  0  0  0  0  0  0  0  0  0
   35.8420   29.3220   31.3170 C   0  0  0  0  0  0  0  0  0  0  0  0
   35.7120   30.6810   31.4970 C   0  0  0  0  0  0  0  0  0  0  0  0
   35.7020   31.1340   32.8070 C   0  0  0  0  0  0  0  0  0  0  0  0
   35.8190   30.2540   33.8800 C   0  0  0  0  0  0  0  0  0  0  0  0
   35.8460   28.9880   30.2810 H   0  0  0  0  0  0  0  0  0  0  0  0
   35.6190   31.3850   30.6830 H   0  0  0  0  0  0  0  0  0  0  0  0
   35.6020   32.1910   33.0080 H   0  0  0  0  0  0  0  0  0  0  0  0
   35.2620   25.0780   31.0250 C   0  0  0  0  0  0  0  0  0  0  0  0
   36.2460   24.2790   31.5960 C   0  0  0  0  0  0  0  0  0  0  0  0
   37.1590   24.8950   32.4420 C   0  0  0  0  0  0  0  0  0  0  0  0
   37.0750   26.2430   32.6900 N   0  0  0  0  0  0  0  0  0  0  0  0
   36.0960   26.9740   32.1060 C   0  0  0  0  0  0  0  0  0  0  0  0
   35.1820   26.4000   31.2700 N   0  0  0  0  0  0  0  0  0  0  0  0
   34.5220   24.6530   30.3570 H   0  0  0  0  0  0  0  0  0  0  0  0
   36.2420   23.2420   31.3530 H   0  0  0  0  0  0  0  0  0  0  0  0
   37.9070   24.2710   32.8730 H   0  0  0  0  0  0  0  0  0  0  0  0
   35.8090   30.7120   35.1610 O   0  0  0  0  0  0  0  0  0  0  0  0
   35.2130   33.2190   35.2160 O   0  0  0  0  0  0  0  0  0  0  0  0
   34.8190   31.8760   35.8590 P   0  0  2  0  0  0  0  0  0  0  0  0
   34.9690   32.0590   37.5150 O   0  0  0  0  0  0  0  0  0  0  0  0
   34.2340   31.5540   37.9620 H   0  0  0  0  0  0  0  0  0  0  0  0
   33.1960   31.6130   35.4360 O   0  0  0  0  0  0  0  0  0  0  0  0
   32.5540   30.0720   33.3170 F   0  0  0  0  0  0  0  0  0  0  0  0
   32.1510   29.7240   34.5830 C   0  0  0  0  0  0  0  0  0  0  0  0
   32.4570   30.4880   35.7150 C   0  0  0  0  0  0  0  0  0  0  0  0
   32.0200   30.0800   36.9590 C   0  0  0  0  0  0  0  0  0  0  0  0
   32.2850   30.7080   37.7980 H   0  0  0  0  0  0  0  0  0  0  0  0
   31.2830   28.9290   37.1130 C   0  0  0  0  0  0  0  0  0  0  0  0
   30.9350   28.6010   38.0840 H   0  0  0  0  0  0  0  0  0  0  0  0
   30.9740   28.1650   35.9890 C   0  0  0  0  0  3  0  0  0  0  0  0
   31.4040   28.5600   34.7420 C   0  0  0  0  0  3  0  0  0  0  0  0
  2  7  1  0  0  0  0
  2  1  1  0  0  0  0
  3  2  2  0  0  0  0
  4  5  2  0  0  0  0
  4  3  1  0  0  0  0
  5  6  1  0  0  0  0
  6 10  1  0  0  0  0
  6  7  2  0  0  0  0
  7 20  1  0  0  0  0
  8  4  1  0  0  0  0
  9  5  1  0  0  0  0
 11 16  2  0  0  0  0
 11 12  1  0  0  0  0
 12 13  2  0  0  0  0
 13 14  1  0  0  0  0
 13 19  1  0  0  0  0
 15  3  1  0  0  0  0
 15 14  2  0  0  0  0
 16 15  1  0  0  0  0
 17 11  1  0  0  0  0
 18 12  1  0  0  0  0
 20 22  1  0  0  0  0
 22 21  2  6  0  0  0
 22 23  1  0  0  0  0
 23 24  1  0  0  0  0
 25 28  1  0  0  0  0
 25 22  1  0  0  0  0
 26 27  1  0  0  0  0
 27 34  2  0  0  0  0
 27 28  1  0  0  0  0
 28 29  2  0  0  0  0
 29 31  1  0  0  0  0
 29 30  1  0  0  0  0
 31 32  1  0  0  0  0
 33 31  2  0  0  0  0
 34 33  1  0  0  0  0
M  END
>  <minimizedAffinity>
-5.58963442

$$$$

 OpenBabel03272501023D

 34 36  0  0  0  0  0  0  0  0999 V2000
   36.3940   27.8760   34.9400 F   0  0  0  0  0  0  0  0  0  0  0  0
   36.2410   28.4170   33.7000 C   0  0  0  0  0  0  0  0  0  0  0  0
   35.6210   29.6390   33.4850 C   0  0  0  0  0  0  0  0  0  0  0  0
   35.5150   30.0970   32.2010 C   0  0  0  0  0  0  0  0  0  0  0  0
   35.9860   29.4270   31.0940 C   0  0  0  0  0  0  0  0  0  0  0  0
   36.6040   28.2080   31.3260 C   0  0  0  0  0  0  0  0  0  0  0  0
   36.7370   27.6940   32.6130 C   0  0  0  0  0  0  0  0  0  0  0  0
   35.0340   31.0520   31.9970 H   0  0  0  0  0  0  0  0  0  0  0  0
   35.8960   29.8020   30.0850 H   0  0  0  0  0  0  0  0  0  0  0  0
   36.9930   27.6370   30.4940 H   0  0  0  0  0  0  0  0  0  0  0  0
   33.2520   30.8940   35.9650 C   0  0  0  0  0  0  0  0  0  0  0  0
   34.0210   31.7180   36.7810 C   0  0  0  0  0  0  0  0  0  0  0  0
   35.3690   31.8430   36.4730 C   0  0  0  0  0  0  0  0  0  0  0  0
   35.9020   31.1700   35.4000 N   0  0  0  0  0  0  0  0  0  0  0  0
   35.1070   30.3800   34.6400 C   0  0  0  0  0  0  0  0  0  0  0  0
   33.7770   30.2350   34.9150 N   0  0  0  0  0  0  0  0  0  0  0  0
   32.1940   30.7580   36.1570 H   0  0  0  0  0  0  0  0  0  0  0  0
   33.5320   32.2040   37.5920 H   0  0  0  0  0  0  0  0  0  0  0  0
   35.9460   32.4770   37.1040 H   0  0  0  0  0  0  0  0  0  0  0  0
   37.3450   26.4960   32.8270 O   0  0  0  0  0  0  0  0  0  0  0  0
   39.7170   27.3430   32.2790 O   0  0  0  0  0  0  0  0  0  0  0  0
   38.9250   26.0380   32.4860 P   0  0  2  0  0  0  0  0  0  0  0  0
   39.1320   25.1110   31.1080 O   0  0  0  0  0  0  0  0  0  0  0  0
   39.1970   24.1520   31.3740 H   0  0  0  0  0  0  0  0  0  0  0  0
   39.6290   25.2720   33.8270 O   0  0  0  0  0  0  0  0  0  0  0  0
   38.9650   26.7690   35.9710 F   0  0  0  0  0  0  0  0  0  0  0  0
   38.6360   25.4360   35.9200 C   0  0  0  0  0  0  0  0  0  0  0  0
   38.9570   24.6160   34.8320 C   0  0  0  0  0  0  0  0  0  0  0  0
   38.5960   23.2840   34.8440 C   0  0  0  0  0  0  0  0  0  0  0  0
   38.8700   22.6980   33.9790 H   0  0  0  0  0  0  0  0  0  0  0  0
   37.9230   22.7380   35.9130 C   0  0  0  0  0  0  0  0  0  0  0  0
   37.6360   21.6950   35.9330 H   0  0  0  0  0  0  0  0  0  0  0  0
   37.6020   23.5510   37.0000 C   0  0  0  0  0  3  0  0  0  0  0  0
   37.9550   24.8810   37.0000 C   0  0  0  0  0  3  0  0  0  0  0  0
  2  1  1  0  0  0  0
  3  2  1  0  0  0  0
  3 15  1  0  0  0  0
  4  3  2  0  0  0  0
  5  6  2  0  0  0  0
  5  4  1  0  0  0  0
  6  7  1  0  0  0  0
  7 20  1  0  0  0  0
  7  2  2  0  0  0  0
  8  4  1  0  0  0  0
  9  5  1  0  0  0  0
 10  6  1  0  0  0  0
 11 17  1  0  0  0  0
 11 12  1  0  0  0  0
 12 18  1  0  0  0  0
 13 12  2  0  0  0  0
 13 19  1  0  0  0  0
 14 13  1  0  0  0  0
 15 16  1  0  0  0  0
 15 14  2  0  0  0  0
 16 11  2  0  0  0  0
 22 21  2  6  0  0  0
 22 20  1  0  0  0  0
 22 25  1  0  0  0  0
 23 24  1  0  0  0  0
 23 22  1  0  0  0  0
 25 28  1  0  0  0  0
 27 26  1  0  0  0  0
 27 34  1  0  0  0  0
 28 29  1  0  0  0  0
 28 27  2  0  0  0  0
 29 31  2  0  0  0  0
 30 29  1  0  0  0  0
 31 32  1  0  0  0  0
 31 33  1  0  0  0  0
 33 34  2  0  0  0  0
M  END
>  <minimizedAffinity>
-5.57435131

$$$$

 OpenBabel03272501023D

 34 36  0  0  0  0  0  0  0  0999 V2000
   39.4560   24.1540   32.3960 F   0  0  0  0  0  0  0  0  0  0  0  0
   39.2650   25.0770   33.3780 C   0  0  0  0  0  0  0  0  0  0  0  0
   38.0850   25.7940   33.5160 C   0  0  0  0  0  0  0  0  0  0  0  0
   37.9900   26.7000   34.5360 C   0  0  0  0  0  0  0  0  0  0  0  0
   38.9910   26.9530   35.4470 C   0  0  0  0  0  0  0  0  0  0  0  0
   40.1630   26.2280   35.2970 C   0  0  0  0  0  0  0  0  0  0  0  0
   40.3130   25.2940   34.2750 C   0  0  0  0  0  0  0  0  0  0  0  0
   37.0790   27.2800   34.6720 H   0  0  0  0  0  0  0  0  0  0  0  0
   38.9020   27.6720   36.2490 H   0  0  0  0  0  0  0  0  0  0  0  0
   40.9830   26.3850   35.9840 H   0  0  0  0  0  0  0  0  0  0  0  0
   35.4650   26.4840   31.0670 C   0  0  0  0  0  0  0  0  0  0  0  0
   34.9550   25.2290   30.7540 C   0  0  0  0  0  0  0  0  0  0  0  0
   35.5190   24.1330   31.3940 C   0  0  0  0  0  0  0  0  0  0  0  0
   36.5400   24.3050   32.2970 N   0  0  0  0  0  0  0  0  0  0  0  0
   36.9990   25.5510   32.5620 C   0  0  0  0  0  0  0  0  0  0  0  0
   36.4670   26.6500   31.9520 N   0  0  0  0  0  0  0  0  0  0  0  0
   35.0650   27.3760   30.5980 H   0  0  0  0  0  0  0  0  0  0  0  0
   34.1640   25.1800   30.0440 H   0  0  0  0  0  0  0  0  0  0  0  0
   35.1190   23.1770   31.1470 H   0  0  0  0  0  0  0  0  0  0  0  0
   41.4680   24.5890   34.1390 O   0  0  0  0  0  0  0  0  0  0  0  0
   42.7110   23.4720   36.1020 O   0  0  0  0  0  0  0  0  0  0  0  0
   41.9010   23.1240   34.8390 P   0  0  2  0  0  0  0  0  0  0  0  0
   42.8580   22.1240   33.8990 O   0  0  0  0  0  0  0  0  0  0  0  0
   42.2770   21.4370   33.4670 H   0  0  0  0  0  0  0  0  0  0  0  0
   40.5240   22.2910   35.3810 O   0  0  0  0  0  0  0  0  0  0  0  0
   37.9230   22.6050   34.7370 F   0  0  0  0  0  0  0  0  0  0  0  0
   38.3580   22.8240   36.0230 C   0  0  0  0  0  0  0  0  0  0  0  0
   39.6950   22.6750   36.4080 C   0  0  0  0  0  0  0  0  0  0  0  0
   40.0640   22.9100   37.7160 C   0  0  0  0  0  0  0  0  0  0  0  0
   41.1100   22.7810   37.9580 H   0  0  0  0  0  0  0  0  0  0  0  0
   39.1390   23.2930   38.6600 C   0  0  0  0  0  0  0  0  0  0  0  0
   39.4180   23.4810   39.6880 H   0  0  0  0  0  0  0  0  0  0  0  0
   37.8050   23.4440   38.2810 C   0  0  0  0  0  3  0  0  0  0  0  0
   37.4240   23.2110   36.9790 C   0  0  0  0  0  3  0  0  0  0  0  0
  1  2  1  0  0  0  0
  2  3  2  0  0  0  0
  2  7  1  0  0  0  0
  3  4  1  0  0  0  0
  4  8  1  0  0  0  0
  4  5  2  0  0  0  0
  5  9  1  0  0  0  0
  6  5  1  0  0  0  0
  6 10  1  0  0  0  0
  7  6  2  0  0  0  0
 11 16  1  0  0  0  0
 12 11  2  0  0  0  0
 12 13  1  0  0  0  0
 13 14  2  0  0  0  0
 14 15  1  0  0  0  0
 15  3  1  0  0  0  0
 16 15  2  0  0  0  0
 17 11  1  0  0  0  0
 18 12  1  0  0  0  0
 19 13  1  0  0  0  0
 20  7  1  0  0  0  0
 20 22  1  0  0  0  0
 22 25  1  0  0  0  0
 22 21  2  1  0  0  0
 23 22  1  0  0  0  0
 24 23  1  0  0  0  0
 25 28  1  0  0  0  0
 26 27  1  0  0  0  0
 27 28  2  0  0  0  0
 27 34  1  0  0  0  0
 28 29  1  0  0  0  0
 29 30  1  0  0  0  0
 29 31  2  0  0  0  0
 31 32  1  0  0  0  0
 33 31  1  0  0  0  0
 34 33  2  0  0  0  0
M  END
>  <minimizedAffinity>
-5.56678391

$$$$
