
 OpenBabel03272510113D

 35 38  0  0  0  0  0  0  0  0999 V2000
   33.1460   28.3200   49.0520 C   0  0  0  0  0  0  0  0  0  0  0  0
   33.4730   28.9360   50.2070 C   0  0  0  0  0  0  0  0  0  0  0  0
   34.7180   29.4120   50.5190 C   0  0  0  0  0  0  0  0  0  0  0  0
   35.7420   29.2850   49.6400 C   0  0  0  0  0  0  0  0  0  0  0  0
   35.4240   28.6470   48.4300 C   0  0  0  0  0  0  0  0  0  0  0  0
   34.1820   28.1950   48.1720 N   0  0  0  0  0  0  0  0  0  0  0  0
   32.7170   29.0800   50.9680 H   0  0  0  0  0  0  0  0  0  0  0  0
   34.9650   29.9080   51.4570 H   0  0  0  0  0  0  0  0  0  0  0  0
   36.1420   28.4790   47.6420 H   0  0  0  0  0  0  0  0  0  0  0  0
   30.7400   27.8820   49.5780 C   0  0  0  0  0  0  0  0  0  0  0  0
   31.8450   27.8150   48.7130 C   0  0  0  0  0  0  0  0  0  0  0  0
   31.6240   27.2280   47.4850 C   0  0  0  0  0  0  0  0  0  0  0  0
   30.3860   26.7500   47.1670 N   0  0  0  0  0  0  0  0  0  0  0  0
   29.3680   26.8450   48.0420 C   0  0  0  0  0  0  0  0  0  0  0  0
   29.5280   27.4120   49.2620 N   0  0  0  0  0  0  0  0  0  0  0  0
   30.8690   28.3370   50.5570 H   0  0  0  0  0  0  0  0  0  0  0  0
   32.4540   27.1630   46.8000 H   0  0  0  0  0  0  0  0  0  0  0  0
   28.4590   26.4220   47.6410 H   0  0  0  0  0  0  0  0  0  0  0  0
   37.0660   29.7110   49.7940 O   0  0  0  0  0  0  0  0  0  0  0  0
   37.6250   30.6590   48.9510 C   0  0  0  0  0  0  0  0  0  0  0  0
   38.0650   31.8240   49.5850 C   0  0  0  0  0  0  0  0  0  0  0  0
   38.5960   32.6640   48.6130 C   0  0  0  0  0  0  0  0  0  0  0  0
   38.4620   32.0000   47.4590 N   0  0  0  0  0  0  0  0  0  0  0  0
   37.8990   30.8310   47.6450 N   0  0  0  0  0  0  0  0  0  0  0  0
   38.0710   32.1710   50.6180 H   0  0  0  0  0  0  0  0  0  0  0  0
   39.0410   33.6500   48.6530 H   0  0  0  0  0  0  0  0  0  0  0  0
   36.8570   31.5200   45.2410 F   0  0  0  0  0  0  0  0  0  0  0  0
   38.0390   32.1550   45.0400 C   0  0  0  0  0  0  0  0  0  0  0  0
   38.8420   32.3980   46.1280 C   0  0  0  0  0  0  0  0  0  0  0  0
   40.0490   33.0430   45.9420 C   0  0  0  0  0  0  0  0  0  0  0  0
   40.7410   33.2740   46.7420 H   0  0  0  0  0  0  0  0  0  0  0  0
   40.4120   33.4250   44.6660 C   0  0  0  0  0  0  0  0  0  0  0  0
   41.3650   33.9370   44.5040 H   0  0  0  0  0  0  0  0  0  0  0  0
   39.6350   33.1990   43.5560 C   0  0  0  0  0  3  0  0  0  0  0  0
   38.4390   32.5550   43.7700 C   0  0  0  0  0  3  0  0  0  0  0  0
  1  2  1  0  0  0  0
  2  3  2  0  0  0  0
  2  7  1  0  0  0  0
  3  8  1  0  0  0  0
  4 19  1  0  0  0  0
  4  3  1  0  0  0  0
  5  4  2  0  0  0  0
  6  5  1  0  0  0  0
  6  1  2  0  0  0  0
  9  5  1  0  0  0  0
 10 16  1  0  0  0  0
 11  1  1  0  0  0  0
 11 10  2  0  0  0  0
 12 11  1  0  0  0  0
 13 12  2  0  0  0  0
 13 14  1  0  0  0  0
 14 15  2  0  0  0  0
 15 10  1  0  0  0  0
 17 12  1  0  0  0  0
 18 14  1  0  0  0  0
 20 21  1  0  0  0  0
 20 19  1  0  0  0  0
 21 25  1  0  0  0  0
 22 26  1  0  0  0  0
 22 21  2  0  0  0  0
 23 24  1  0  0  0  0
 23 22  1  0  0  0  0
 24 20  2  0  0  0  0
 28 27  1  0  0  0  0
 28 29  1  0  0  0  0
 29 23  1  0  0  0  0
 30 29  2  0  0  0  0
 30 31  1  0  0  0  0
 32 30  1  0  0  0  0
 33 32  1  0  0  0  0
 34 35  1  0  0  0  0
 34 32  2  0  0  0  0
 35 28  2  0  0  0  0
M  END
>  <minimizedAffinity>
-6.14838409

>  <minimizedRMSD>
1.7242769

$$$$
