
     RDKit          3D

 34 36  0  0  0  0  0  0  0  0999 V2000
   35.6512   29.3269   49.8378 C   0  0  0  0  0  0  0  0  0  0  0  0
   35.7437   30.2794   48.8064 C   0  0  0  0  0  0  0  0  0  0  0  0
   34.9024   30.1622   47.6895 C   0  0  0  0  0  0  0  0  0  0  0  0
   34.0366   29.1269   47.6635 N   0  0  0  0  0  0  0  0  0  0  0  0
   33.9487   28.2304   48.6318 C   0  0  0  0  0  0  0  0  0  0  0  0
   34.7487   28.3310   49.7066 N   0  0  0  0  0  0  0  0  0  0  0  0
   37.6390   30.0637   51.3539 C   0  0  0  0  0  0  0  0  0  0  0  0
   38.2064   30.8287   50.5453 O   0  0  0  0  0  0  0  0  0  0  0  0
   36.4364   29.3569   51.0109 N   0  0  0  0  0  0  0  0  0  0  0  0
   36.7118   31.3288   48.9641 N   0  0  0  0  0  0  0  0  0  0  0  0
   36.5578   32.3341   49.8173 C   0  0  0  0  0  0  0  0  0  0  0  0
   37.5345   33.3218   49.9272 C   0  0  0  0  0  0  0  0  0  0  0  0
   38.6069   33.1486   49.1047 C   0  0  0  0  0  0  0  0  0  0  0  0
   39.4967   34.0498   49.2058 O   0  0  0  0  0  0  0  0  0  0  0  0
   38.8029   32.1611   48.2376 N   0  0  0  0  0  0  0  0  0  0  0  0
   37.8210   31.2362   48.1783 C   0  0  0  0  0  0  0  0  0  0  0  0
   37.9953   30.2864   47.3534 O   0  0  0  0  0  0  0  0  0  0  0  0
   35.0766   30.9435   46.9913 H   0  0  0  0  0  0  0  0  0  0  0  0
   33.2330   27.4194   48.5549 H   0  0  0  0  0  0  0  0  0  0  0  0
   38.1117   29.9731   52.3171 H   0  0  0  0  0  0  0  0  0  0  0  0
   36.1205   28.7599   51.8334 H   0  0  0  0  0  0  0  0  0  0  0  0
   35.6643   32.3895   50.4358 H   0  0  0  0  0  0  0  0  0  0  0  0
   37.4323   34.1540   50.6172 H   0  0  0  0  0  0  0  0  0  0  0  0
   41.4123   32.9193   49.0086 F   0  0  0  0  0  0  0  0  0  0  0  0
   41.2418   32.4176   47.7678 C   0  0  0  0  0  0  0  0  0  0  0  0
   39.9607   32.0527   47.4085 C   0  0  0  0  0  0  0  0  0  0  0  0
   39.6561   31.5325   46.1818 C   0  0  0  0  0  0  0  0  0  0  0  0
   38.6827   31.2236   45.8254 H   0  0  0  0  0  0  0  0  0  0  0  0
   40.6533   31.3463   45.2231 C   0  0  0  0  0  0  0  0  0  0  0  0
   40.4735   30.9381   44.2328 H   0  0  0  0  0  0  0  0  0  0  0  0
   41.9533   31.7115   45.5742 C   0  0  0  0  0  0  0  0  0  0  0  0
   42.2433   32.2337   46.8131 C   0  0  0  0  0  0  0  0  0  0  0  0
   42.7360   31.5717   44.8385 H   0  0  0  0  0  0  0  0  0  0  0  0
   43.2478   32.5266   47.1126 H   0  0  0  0  0  0  0  0  0  0  0  0
  1  9  1  0
  2 10  1  0
  2  1  2  0
  3  2  1  0
  4  3  2  0
  4  5  1  0
  5  6  2  0
  6  1  1  0
  8  7  2  0
  9  7  1  0
 10 11  1  0
 11 12  2  0
 13 14  2  0
 13 12  1  0
 15 13  1  0
 16 15  1  0
 16 10  1  0
 17 16  2  0
  3 18  1  0
  5 19  1  0
  7 20  1  0
  9 21  1  0
 11 22  1  0
 12 23  1  0
 24 25  1  0
 25 26  2  0
 26 27  1  0
 27 28  1  0
 27 29  2  0
 29 30  1  0
 29 31  1  0
 31 32  2  0
 32 25  1  0
 31 33  1  0
 32 34  1  0
 15 26  1  0
M  ISO  7  18  14  19  14  20   6  22  14  23  14  28  15  30  16
M  END
>  <DihAtoms>  (1) 
12,14,25,24

>  <DihDeg>  (1) 
-84.67500567443764

$$$$
