
 OpenBabel03272507523D

 32 34  0  0  0  0  0  0  0  0999 V2000
   36.4970   31.2920   48.8320 N   0  0  0  0  0  0  0  0  0  0  0  0
   36.6950   32.1570   49.8190 C   0  0  0  0  0  0  0  0  0  0  0  0
   37.7720   33.0400   49.7780 C   0  0  0  0  0  0  0  0  0  0  0  0
   38.5570   32.9220   48.6710 C   0  0  0  0  0  0  0  0  0  0  0  0
   39.5390   33.7270   48.6350 O   0  0  0  0  0  0  0  0  0  0  0  0
   38.3980   32.0730   47.6610 N   0  0  0  0  0  0  0  0  0  0  0  0
   37.3360   31.2440   47.7590 C   0  0  0  0  0  0  0  0  0  0  0  0
   37.1710   30.4280   46.8000 O   0  0  0  0  0  0  0  0  0  0  0  0
   36.0130   32.1780   50.6670 H   0  0  0  0  0  0  0  0  0  0  0  0
   37.9550   33.7570   50.5730 H   0  0  0  0  0  0  0  0  0  0  0  0
   39.6370   34.3120   46.4630 F   0  0  0  0  0  0  0  0  0  0  0  0
   39.8820   33.0950   45.9340 C   0  0  0  0  0  0  0  0  0  0  0  0
   39.2690   32.0140   46.5310 C   0  0  0  0  0  0  0  0  0  0  0  0
   39.4380   30.7310   46.0900 C   0  0  0  0  0  0  0  0  0  0  0  0
   38.9940   29.8340   46.5010 H   0  0  0  0  0  0  0  0  0  0  0  0
   40.2550   30.4600   44.9930 C   0  0  0  0  0  0  0  0  0  0  0  0
   40.4280   29.4630   44.5960 H   0  0  0  0  0  0  0  0  0  0  0  0
   40.8820   31.5460   44.3790 C   0  0  0  0  0  3  0  0  0  0  0  0
   40.7030   32.8310   44.8350 C   0  0  0  0  0  3  0  0  0  0  0  0
   35.2140   29.5730   49.9700 C   0  0  0  0  0  0  0  0  0  0  0  0
   35.4080   30.3550   48.8160 C   0  0  0  0  0  0  0  0  0  0  0  0
   34.5450   30.1870   47.7230 C   0  0  0  0  0  0  0  0  0  0  0  0
   33.5620   29.2700   47.8360 N   0  0  0  0  0  0  0  0  0  0  0  0
   33.3780   28.5330   48.9190 C   0  0  0  0  0  0  0  0  0  0  0  0
   34.1970   28.6840   49.9740 N   0  0  0  0  0  0  0  0  0  0  0  0
   34.8040   30.8380   46.9230 H   0  0  0  0  0  0  0  0  0  0  0  0
   32.5690   27.8120   48.9520 H   0  0  0  0  0  0  0  0  0  0  0  0
   37.3420   29.2210   51.4330 C   0  0  0  0  0  0  0  0  0  0  0  0
   38.0360   28.6080   50.5940 O   0  0  0  0  0  0  0  0  0  0  0  0
   36.0110   29.6700   51.1310 N   0  0  0  0  0  0  0  0  0  0  0  0
   37.8090   29.3870   52.3890 H   0  0  0  0  0  0  0  0  0  0  0  0
   35.5950   30.1630   51.9770 H   0  0  0  0  0  0  0  0  0  0  0  0
  1  2  1  0  0  0  0
  2  9  1  0  0  0  0
  3  2  2  0  0  0  0
  3 10  1  0  0  0  0
  4  3  1  0  0  0  0
  5  4  2  0  0  0  0
  6  7  1  0  0  0  0
  6  4  1  0  0  0  0
  7  1  1  0  0  0  0
  8  7  2  0  0  0  0
 12 11  1  0  0  0  0
 12 13  1  0  0  0  0
 13  6  1  0  0  0  0
 14 15  1  0  0  0  0
 14 13  2  0  0  0  0
 16 14  1  0  0  0  0
 17 16  1  0  0  0  0
 18 19  1  0  0  0  0
 18 16  2  0  0  0  0
 19 12  2  0  0  0  0
 20 25  1  0  0  0  0
 20 30  1  0  0  0  0
 21  1  1  0  0  0  0
 21 20  2  0  0  0  0
 22 23  2  0  0  0  0
 22 21  1  0  0  0  0
 23 24  1  0  0  0  0
 24 27  1  0  0  0  0
 24 25  2  0  0  0  0
 26 22  1  0  0  0  0
 28 31  1  0  0  0  0
 29 28  2  0  0  0  0
 30 28  1  0  0  0  0
 30 32  1  0  0  0  0
M  END
>  <minimizedAffinity>
-6.07280111

>  <minimizedRMSD>
1.07742143

$$$$
