
 OpenBabel03272510113D

 35 38  0  0  0  0  0  0  0  0999 V2000
   33.5830   28.4370   48.4600 C   0  0  0  0  0  0  0  0  0  0  0  0
   34.4940   28.1310   49.4080 C   0  0  0  0  0  0  0  0  0  0  0  0
   35.5610   28.9150   49.7530 C   0  0  0  0  0  0  0  0  0  0  0  0
   35.7730   30.1010   49.1310 C   0  0  0  0  0  0  0  0  0  0  0  0
   34.8370   30.4390   48.1410 C   0  0  0  0  0  0  0  0  0  0  0  0
   33.8020   29.6320   47.8380 N   0  0  0  0  0  0  0  0  0  0  0  0
   34.4040   27.2020   49.9560 H   0  0  0  0  0  0  0  0  0  0  0  0
   36.2880   28.6540   50.5220 H   0  0  0  0  0  0  0  0  0  0  0  0
   34.8830   31.3520   47.5670 H   0  0  0  0  0  0  0  0  0  0  0  0
   31.2430   27.6160   48.7900 C   0  0  0  0  0  0  0  0  0  0  0  0
   32.4600   27.6230   48.0880 C   0  0  0  0  0  0  0  0  0  0  0  0
   32.5350   26.7920   46.9900 C   0  0  0  0  0  0  0  0  0  0  0  0
   31.4660   26.0210   46.6390 N   0  0  0  0  0  0  0  0  0  0  0  0
   30.3270   26.0600   47.3550 C   0  0  0  0  0  0  0  0  0  0  0  0
   30.1970   26.8580   48.4430 N   0  0  0  0  0  0  0  0  0  0  0  0
   31.1400   28.2560   49.6630 H   0  0  0  0  0  0  0  0  0  0  0  0
   33.4570   26.7770   46.4310 H   0  0  0  0  0  0  0  0  0  0  0  0
   29.5800   25.3950   46.9490 H   0  0  0  0  0  0  0  0  0  0  0  0
   36.8040   31.0190   49.3570 O   0  0  0  0  0  0  0  0  0  0  0  0
   37.6140   31.4690   48.3240 C   0  0  0  0  0  0  0  0  0  0  0  0
   38.5340   32.4580   48.6860 C   0  0  0  0  0  0  0  0  0  0  0  0
   39.2620   32.7970   47.5520 C   0  0  0  0  0  0  0  0  0  0  0  0
   38.7730   32.0270   46.5720 N   0  0  0  0  0  0  0  0  0  0  0  0
   37.8130   31.2500   47.0120 N   0  0  0  0  0  0  0  0  0  0  0  0
   38.7700   32.9720   49.6170 H   0  0  0  0  0  0  0  0  0  0  0  0
   40.0620   33.5040   47.3730 H   0  0  0  0  0  0  0  0  0  0  0  0
   39.3970   29.6310   45.3090 F   0  0  0  0  0  0  0  0  0  0  0  0
   39.4640   30.7690   44.5730 C   0  0  0  0  0  0  0  0  0  0  0  0
   39.1570   31.9610   45.1870 C   0  0  0  0  0  0  0  0  0  0  0  0
   39.2200   33.1300   44.4530 C   0  0  0  0  0  0  0  0  0  0  0  0
   38.9960   34.1090   44.8570 H   0  0  0  0  0  0  0  0  0  0  0  0
   39.5900   33.0650   43.1250 C   0  0  0  0  0  0  0  0  0  0  0  0
   39.6430   33.9830   42.5330 H   0  0  0  0  0  0  0  0  0  0  0  0
   39.9020   31.8930   42.4790 C   0  0  0  0  0  3  0  0  0  0  0  0
   39.8320   30.7440   43.2330 C   0  0  0  0  0  3  0  0  0  0  0  0
  1  2  1  0  0  0  0
  2  3  2  0  0  0  0
  2  7  1  0  0  0  0
  3  8  1  0  0  0  0
  4 19  1  0  0  0  0
  4  3  1  0  0  0  0
  5  4  2  0  0  0  0
  6  5  1  0  0  0  0
  6  1  2  0  0  0  0
  9  5  1  0  0  0  0
 10 16  1  0  0  0  0
 11  1  1  0  0  0  0
 11 10  2  0  0  0  0
 12 11  1  0  0  0  0
 13 12  2  0  0  0  0
 13 14  1  0  0  0  0
 14 15  2  0  0  0  0
 15 10  1  0  0  0  0
 17 12  1  0  0  0  0
 18 14  1  0  0  0  0
 20 21  1  0  0  0  0
 20 19  1  0  0  0  0
 21 25  1  0  0  0  0
 22 21  2  0  0  0  0
 23 24  1  0  0  0  0
 23 22  1  0  0  0  0
 24 20  2  0  0  0  0
 26 22  1  0  0  0  0
 28 29  1  0  0  0  0
 28 27  1  0  0  0  0
 29 23  1  0  0  0  0
 30 31  1  0  0  0  0
 30 29  2  0  0  0  0
 32 30  1  0  0  0  0
 33 32  1  0  0  0  0
 34 32  2  0  0  0  0
 34 35  1  0  0  0  0
 35 28  2  0  0  0  0
M  END
>  <minimizedAffinity>
-6.12617588

>  <minimizedRMSD>
2.2080617

$$$$
