
     RDKit          3D

 30 32  0  0  0  0  0  0  0  0999 V2000
   37.9263   30.8752   46.7326 C   0  0  0  0  0  0  0  0  0  0  0  0
   38.0531   31.0366   48.1310 C   0  0  0  0  0  0  0  0  0  0  0  0
   36.9288   30.8181   48.9388 C   0  0  0  0  0  0  0  0  0  0  0  0
   35.7758   30.4603   48.3109 N   0  0  0  0  0  0  0  0  0  0  0  0
   35.6691   30.3101   46.9780 C   0  0  0  0  0  0  0  0  0  0  0  0
   36.7531   30.5221   46.2133 N   0  0  0  0  0  0  0  0  0  0  0  0
   39.0968   31.1040   45.9070 C   0  0  0  0  0  0  0  0  0  0  0  0
   39.9174   32.2097   45.9056 C   0  0  0  0  0  0  0  0  0  0  0  0
   40.9371   32.0287   44.9539 C   0  0  0  0  0  0  0  0  0  0  0  0
   40.6781   30.8012   44.4179 N   0  0  0  0  0  0  0  0  0  0  0  0
   39.6121   30.2748   44.9756 N   0  0  0  0  0  0  0  0  0  0  0  0
   37.0542   30.9857   50.4082 C   0  0  0  0  0  0  0  0  0  0  0  0
   36.5437   32.2303   50.6835 F   0  0  0  0  0  0  0  0  0  0  0  0
   36.3077   30.0445   51.1060 F   0  0  0  0  0  0  0  0  0  0  0  0
   38.3707   30.9527   50.8268 F   0  0  0  0  0  0  0  0  0  0  0  0
   38.9985   31.3227   48.5666 H   0  0  0  0  0  0  0  0  0  0  0  0
   34.7007   30.0222   46.5873 H   0  0  0  0  0  0  0  0  0  0  0  0
   39.7527   33.0575   46.5591 H   0  0  0  0  0  0  0  0  0  0  0  0
   41.7074   32.7645   44.7681 H   0  0  0  0  0  0  0  0  0  0  0  0
   43.0001   29.2415   44.8356 F   0  0  0  0  0  0  0  0  0  0  0  0
   42.6919   29.5635   43.5703 C   0  0  0  0  0  0  0  0  0  0  0  0
   41.5537   30.3243   43.4045 C   0  0  0  0  0  0  0  0  0  0  0  0
   41.1532   30.7083   42.1224 C   0  0  0  0  0  0  0  0  0  0  0  0
   40.3015   31.2897   41.8709 H   0  0  0  0  0  0  0  0  0  0  0  0
   41.9347   30.2988   41.0481 C   0  0  0  0  0  0  0  0  0  0  0  0
   41.6723   30.5673   40.0297 H   0  0  0  0  0  0  0  0  0  0  0  0
   43.0920   29.5279   41.1874 C   0  0  0  0  0  0  0  0  0  0  0  0
   43.4427   29.1759   42.4764 C   0  0  0  0  0  0  0  0  0  0  0  0
   43.6701   29.2318   40.3212 H   0  0  0  0  0  0  0  0  0  0  0  0
   44.3269   28.5798   42.6586 H   0  0  0  0  0  0  0  0  0  0  0  0
  1  2  2  0
  2  3  1  0
  3 12  1  0
  4  3  2  0
  5  4  1  0
  6  1  1  0
  6  5  2  0
  7  1  1  0
  8  7  1  0
  9  8  2  0
 10  9  1  0
 10 11  1  0
 11  7  2  0
 12 13  1  0
 12 15  1  0
 12 14  1  0
  2 16  1  0
  5 17  1  0
  8 18  1  0
  9 19  1  0
 20 21  1  0
 21 22  2  0
 22 23  1  0
 23 24  1  0
 23 25  2  0
 25 26  1  0
 25 27  1  0
 27 28  2  0
 28 21  1  0
 27 29  1  0
 28 30  1  0
 10 22  1  0
M  ISO  6  16  14  17  14  18  14  19  14  24  15  26  16
M  END
>  <DihAtoms>  (1) 
8,9,21,20

>  <DihDeg>  (1) 
90.80521133281742

$$$$
