
 OpenBabel03272508023D

 28 30  0  0  0  0  0  0  0  0999 V2000
   37.3910   31.0360   45.2960 C   0  0  0  0  0  0  0  0  0  0  0  0
   36.1320   30.4890   45.3950 C   0  0  0  0  0  0  0  0  0  0  0  0
   35.8740   30.1620   46.7390 C   0  0  0  0  0  0  0  0  0  0  0  0
   37.0110   30.5350   47.3960 N   0  0  0  0  0  0  0  0  0  0  0  0
   37.8810   31.0390   46.5530 N   0  0  0  0  0  0  0  0  0  0  0  0
   35.4860   30.3550   44.5380 H   0  0  0  0  0  0  0  0  0  0  0  0
   34.9470   29.7160   47.0700 H   0  0  0  0  0  0  0  0  0  0  0  0
   38.8540   31.7230   49.1830 F   0  0  0  0  0  0  0  0  0  0  0  0
   37.9410   30.8880   49.7020 C   0  0  0  0  0  0  0  0  0  0  0  0
   37.0590   30.3270   48.8030 C   0  0  0  0  0  0  0  0  0  0  0  0
   36.0730   29.4450   49.2500 C   0  0  0  0  0  0  0  0  0  0  0  0
   35.3430   28.9540   48.6570 H   0  0  0  0  0  0  0  0  0  0  0  0
   36.0240   29.1640   50.6110 C   0  0  0  0  0  0  0  0  0  0  0  0
   35.2790   28.4870   51.0160 H   0  0  0  0  0  0  0  0  0  0  0  0
   36.9040   29.7180   51.5440 C   0  0  0  0  0  3  0  0  0  0  0  0
   37.8590   30.5850   51.0480 C   0  0  0  0  0  3  0  0  0  0  0  0
   38.0540   31.5110   44.0960 C   0  0  0  0  0  0  0  0  0  0  0  0
   37.3120   32.3070   43.1930 C   0  0  0  0  0  0  0  0  0  0  0  0
   37.9420   32.7710   42.0300 C   0  0  0  0  0  0  0  0  0  0  0  0
   39.2440   32.4180   41.8490 N   0  0  0  0  0  0  0  0  0  0  0  0
   39.9390   31.6610   42.7170 C   0  0  0  0  0  0  0  0  0  0  0  0
   39.3250   31.2210   43.8290 N   0  0  0  0  0  0  0  0  0  0  0  0
   36.2810   32.5500   43.3960 H   0  0  0  0  0  0  0  0  0  0  0  0
   40.9700   31.4430   42.4710 H   0  0  0  0  0  0  0  0  0  0  0  0
   37.1700   33.6060   41.0770 C   0  0  0  0  0  0  0  0  0  0  0  0
   38.0520   34.5480   40.6110 F   0  0  0  0  0  0  0  0  0  0  0  0
   36.7060   32.8690   39.9950 F   0  0  0  0  0  0  0  0  0  0  0  0
   36.1180   34.2610   41.6910 F   0  0  0  0  0  0  0  0  0  0  0  0
  1  2  1  0  0  0  0
  1  5  2  0  0  0  0
  2  3  2  0  0  0  0
  3  7  1  0  0  0  0
  3  4  1  0  0  0  0
  4 10  1  0  0  0  0
  5  4  1  0  0  0  0
  6  2  1  0  0  0  0
  8  9  1  0  0  0  0
  9 16  1  0  0  0  0
 10 11  1  0  0  0  0
 10  9  2  0  0  0  0
 11 13  2  0  0  0  0
 12 11  1  0  0  0  0
 13 14  1  0  0  0  0
 13 15  1  0  0  0  0
 16 15  2  0  0  0  0
 17  1  1  0  0  0  0
 18 23  1  0  0  0  0
 18 17  2  0  0  0  0
 19 18  1  0  0  0  0
 20 19  2  0  0  0  0
 20 21  1  0  0  0  0
 21 22  2  0  0  0  0
 22 17  1  0  0  0  0
 24 21  1  0  0  0  0
 25 28  1  0  0  0  0
 25 19  1  0  0  0  0
 26 25  1  0  0  0  0
 27 25  1  0  0  0  0
M  END
>  <minimizedAffinity>
-5.81560421

>  <minimizedRMSD>
7.75346422

$$$$
