
     RDKit          3D

 27 29  0  0  0  0  0  0  0  0999 V2000
   46.6680   34.7860   42.0630 C   0  0  0  0  0  0  0  0  0  0  0  0
   47.9430   35.2690   41.9940 C   0  0  0  0  0  0  0  0  0  0  0  0
   48.7110   35.1480   40.8290 C   0  0  0  0  0  0  0  0  0  0  0  0
   48.1810   34.5250   39.7080 C   0  0  0  0  0  0  0  0  0  0  0  0
   46.9010   34.0440   39.7880 C   0  0  0  0  0  0  0  0  0  0  0  0
   46.1350   34.1630   40.9440 C   0  0  0  0  0  0  0  0  0  0  0  0
   44.4490   36.1120   44.8030 C   0  0  0  0  0  0  0  0  0  0  0  0
   45.0980   36.0500   43.5640 C   0  0  0  0  0  0  0  0  0  0  0  0
   45.9420   34.9590   43.3110 C   0  0  0  0  0  0  0  0  0  0  0  0
   46.0980   34.0180   44.2600 N   0  0  0  0  0  0  0  0  0  0  0  0
   45.4520   34.1110   45.4550 C   0  0  0  0  0  0  0  0  0  0  0  0
   44.6370   35.1450   45.7230 N   0  0  0  0  0  0  0  0  0  0  0  0
   44.8060   33.6560   41.0090 N   0  0  0  0  0  0  0  0  0  0  0  0
   43.7780   34.3980   40.5990 N   0  0  0  0  0  0  0  0  0  0  0  0
   42.6290   33.7130   40.7550 C   0  0  0  0  0  0  0  0  0  0  0  0
   42.9310   32.4730   41.2880 C   0  0  0  0  0  0  0  0  0  0  0  0
   44.3140   32.4730   41.4360 C   0  0  0  0  0  0  0  0  0  0  0  0
   48.3776   35.7651   42.8744 H   0  0  0  0  0  0  0  0  0  0  0  0
   49.7356   35.5473   40.8026 H   0  0  0  0  0  0  0  0  0  0  0  0
   48.7699   34.4208   38.7848 H   0  0  0  0  0  0  0  0  0  0  0  0
   46.4639   33.5471   38.9094 H   0  0  0  0  0  0  0  0  0  0  0  0
   43.7806   36.9563   45.0274 H   0  0  0  0  0  0  0  0  0  0  0  0
   44.9498   36.8362   42.8090 H   0  0  0  0  0  0  0  0  0  0  0  0
   45.5997   33.3274   46.2128 H   0  0  0  0  0  0  0  0  0  0  0  0
   41.6225   34.0774   40.5018 H   0  0  0  0  0  0  0  0  0  0  0  0
   42.2303   31.6634   41.5399 H   0  0  0  0  0  0  0  0  0  0  0  0
   44.9120   31.6415   41.8371 H   0  0  0  0  0  0  0  0  0  0  0  0
  1  9  1  0
  2  1  2  0
  3  2  1  0
  4  5  1  0
  4  3  2  0
  5  6  2  0
  6 13  1  0
  6  1  1  0
  7 12  2  0
  8  7  1  0
  9  8  2  0
  9 10  1  0
 10 11  2  0
 11 12  1  0
 13 17  1  0
 14 15  2  0
 14 13  1  0
 15 16  1  0
 16 17  2  0
  2 18  1  0
  3 19  1  0
  4 20  1  0
  5 21  1  0
  7 22  1  0
  8 23  1  0
 11 24  1  0
 15 25  1  0
 16 26  1  0
 17 27  1  0
M  ISO  8  18  14  19  14  20  14  21  14  22  14  23  14  24  14  25  14
M  ISO  2  26  14  27  14
M  END
>  <minimizedAffinity>  (1) 
-5.41370964

>  <minimizedRMSD>  (1) 
0.627273738

$$$$
