
     RDKit          3D

 32 34  0  0  0  0  0  0  0  0999 V2000
   46.8690   34.8540   42.0270 C   0  0  0  0  0  0  0  0  0  0  0  0
   48.0760   35.4930   41.9850 C   0  0  0  0  0  0  0  0  0  0  0  0
   48.9020   35.4560   40.8610 C   0  0  0  0  0  0  0  0  0  0  0  0
   48.4910   34.7460   39.7340 C   0  0  0  0  0  0  0  0  0  0  0  0
   47.2640   34.0980   39.7750 C   0  0  0  0  0  0  0  0  0  0  0  0
   46.4800   34.1620   40.9100 C   0  0  0  0  0  0  0  0  0  0  0  0
   44.4740   35.9600   44.7090 C   0  0  0  0  0  0  0  0  0  0  0  0
   45.1650   35.9790   43.4960 C   0  0  0  0  0  0  0  0  0  0  0  0
   46.0840   34.9540   43.2450 C   0  0  0  0  0  0  0  0  0  0  0  0
   46.2560   34.0020   44.1810 N   0  0  0  0  0  0  0  0  0  0  0  0
   45.5650   34.0170   45.3490 C   0  0  0  0  0  0  0  0  0  0  0  0
   44.6800   34.9950   45.6030 N   0  0  0  0  0  0  0  0  0  0  0  0
   45.2220   33.4880   40.9330 N   0  0  0  0  0  0  0  0  0  0  0  0
   44.8430   32.2010   41.4870 C   0  0  0  0  0  0  0  0  0  0  0  0
   43.4600   32.3340   42.0570 C   0  0  0  0  0  0  0  0  0  0  0  0
   43.0560   33.7230   41.6080 C   0  0  0  0  0  0  0  0  0  0  0  0
   43.9380   33.9130   40.3930 C   0  0  0  0  0  0  0  0  0  0  0  0
   48.4085   36.0569   42.8690 H   0  0  0  0  0  0  0  0  0  0  0  0
   49.8681   35.9820   40.8642 H   0  0  0  0  0  0  0  0  0  0  0  0
   49.1230   34.7003   38.8348 H   0  0  0  0  0  0  0  0  0  0  0  0
   46.9147   33.5310   38.8995 H   0  0  0  0  0  0  0  0  0  0  0  0
   43.7472   36.7556   44.9298 H   0  0  0  0  0  0  0  0  0  0  0  0
   44.9920   36.7768   42.7587 H   0  0  0  0  0  0  0  0  0  0  0  0
   45.7307   33.2233   46.0923 H   0  0  0  0  0  0  0  0  0  0  0  0
   44.8494   31.4368   40.6958 H   0  0  0  0  0  0  0  0  0  0  0  0
   45.5529   31.8965   42.2701 H   0  0  0  0  0  0  0  0  0  0  0  0
   42.7844   31.5701   41.6447 H   0  0  0  0  0  0  0  0  0  0  0  0
   43.4185   32.1949   43.1474 H   0  0  0  0  0  0  0  0  0  0  0  0
   41.9896   33.7653   41.3415 H   0  0  0  0  0  0  0  0  0  0  0  0
   43.1794   34.4981   42.3787 H   0  0  0  0  0  0  0  0  0  0  0  0
   43.9612   34.9635   40.0675 H   0  0  0  0  0  0  0  0  0  0  0  0
   43.6114   33.3644   39.4973 H   0  0  0  0  0  0  0  0  0  0  0  0
  1  9  1  0
  2  1  2  0
  3  2  1  0
  4  5  1  0
  4  3  2  0
  5  6  2  0
  6 13  1  0
  6  1  1  0
  7 12  2  0
  8  7  1  0
  9  8  2  0
  9 10  1  0
 10 11  2  0
 11 12  1  0
 13 14  1  0
 14 15  1  0
 16 15  1  0
 17 13  1  0
 17 16  1  0
  2 18  1  0
  3 19  1  0
  4 20  1  0
  5 21  1  0
  7 22  1  0
  8 23  1  0
 11 24  1  0
 14 25  1  0
 14 26  1  0
 15 27  1  0
 15 28  1  0
 16 29  1  0
 16 30  1  0
 17 31  1  0
 17 32  1  0
M  ISO  8  18  14  19  14  20  14  21  14  22  14  23  14  24  14  25  13
M  ISO  7  26  13  27  13  28  13  29  13  30  13  31  13  32  13
M  END
>  <minimizedAffinity>  (1) 
-5.38570261

>  <minimizedRMSD>  (1) 
0.812795758

$$$$
