
     RDKit          3D

 42 45  0  0  1  0  0  0  0  0999 V2000
   45.7570   35.1490   42.0110 C   0  0  0  0  0  0  0  0  0  0  0  0
   44.7620   34.6520   41.0880 C   0  0  0  0  0  0  0  0  0  0  0  0
   43.4470   35.0550   41.1400 C   0  0  0  0  0  0  0  0  0  0  0  0
   42.7970   34.4240   40.1510 N   0  0  0  0  0  0  0  0  0  0  0  0
   43.6560   33.6490   39.4930 C   0  0  0  0  0  0  0  0  0  0  0  0
   44.8550   33.7930   40.0720 N   0  0  0  0  0  0  0  0  0  0  0  0
   47.1180   34.0320   39.2170 N   0  0  0  0  0  0  0  0  0  0  0  0
   48.2890   33.2050   39.1780 C   0  0  0  0  0  0  0  0  0  0  0  0
   48.0700   32.0390   40.0820 C   0  0  0  0  0  0  0  0  0  0  0  0
   46.6790   32.3420   40.6990 C   0  0  0  0  0  0  0  0  0  0  0  0
   46.0960   33.1500   39.7030 C   0  0  1  0  0  0  0  0  0  0  0  0
   45.1200   35.8670   43.1970 C   0  0  0  0  0  0  0  0  0  0  0  0
   46.1000   33.9330   44.2750 C   0  0  0  0  0  0  0  0  0  0  0  0
   45.2570   35.0370   44.3580 C   0  0  0  0  0  0  0  0  0  0  0  0
   44.5950   35.2470   45.5610 C   0  0  0  0  0  0  0  0  0  0  0  0
   44.8040   34.3750   46.5740 N   0  0  0  0  0  0  0  0  0  0  0  0
   45.6400   33.2950   46.4620 C   0  0  0  0  0  0  0  0  0  0  0  0
   46.2800   33.0870   45.3090 N   0  0  0  0  0  0  0  0  0  0  0  0
   45.8210   32.4060   47.5630 N   0  0  0  0  0  0  0  0  0  0  0  0
   47.0500   32.1950   48.0640 N   0  0  0  0  0  0  0  0  0  0  0  0
   46.9840   31.3350   49.0830 C   0  0  0  0  0  0  0  0  0  0  0  0
   45.6500   30.9610   49.2610 C   0  0  0  0  0  0  0  0  0  0  0  0
   44.9540   31.6660   48.2770 C   0  0  0  0  0  0  0  0  0  0  0  0
   46.4152   35.8526   41.4803 H   0  0  0  0  0  0  0  0  0  0  0  0
   46.3259   34.2900   42.3963 H   0  0  0  0  0  0  0  0  0  0  0  0
   43.0101   35.7633   41.8593 H   0  0  0  0  0  0  0  0  0  0  0  0
   43.4234   33.0070   38.6306 H   0  0  0  0  0  0  0  0  0  0  0  0
   46.8843   34.3827   38.2771 H   0  0  0  0  0  0  0  0  0  0  0  0
   48.4607   32.8518   38.1505 H   0  0  0  0  0  0  0  0  0  0  0  0
   49.1687   33.7784   39.5058 H   0  0  0  0  0  0  0  0  0  0  0  0
   48.0560   31.0957   39.5163 H   0  0  0  0  0  0  0  0  0  0  0  0
   48.8632   31.9147   40.8339 H   0  0  0  0  0  0  0  0  0  0  0  0
   46.1006   31.4197   40.8569 H   0  0  0  0  0  0  0  0  0  0  0  0
   46.7235   32.8166   41.6903 H   0  0  0  0  0  0  0  0  0  0  0  0
   45.7433   32.5095   38.8812 H   0  0  0  0  0  0  0  0  0  0  0  0
   45.6282   36.8279   43.3657 H   0  0  0  0  0  0  0  0  0  0  0  0
   44.0560   36.0590   42.9943 H   0  0  0  0  0  0  0  0  0  0  0  0
   46.6376   33.7443   43.3340 H   0  0  0  0  0  0  0  0  0  0  0  0
   43.9160   36.1032   45.6872 H   0  0  0  0  0  0  0  0  0  0  0  0
   47.8363   30.9807   49.6814 H   0  0  0  0  0  0  0  0  0  0  0  0
   45.2396   30.2666   50.0089 H   0  0  0  0  0  0  0  0  0  0  0  0
   43.8673   31.6230   48.1117 H   0  0  0  0  0  0  0  0  0  0  0  0
  1 12  1  0
  2  3  2  0
  2  1  1  0
  4  3  1  0
  5  6  1  0
  5  4  2  0
  6  2  1  0
  7 11  1  0
  8  7  1  0
  8  9  1  0
  9 10  1  0
 11  6  1  0
 11 10  1  0
 12 14  1  0
 13 14  2  0
 13 18  1  0
 14 15  1  0
 15 16  2  0
 17 16  1  0
 17 19  1  0
 18 17  2  0
 19 20  1  0
 19 23  1  0
 20 21  2  0
 21 22  1  0
 23 22  2  0
  1 24  1  0
  1 25  1  0
  3 26  1  0
  5 27  1  0
  7 28  1  0
  8 29  1  0
  8 30  1  0
  9 31  1  0
  9 32  1  0
 10 33  1  0
 10 34  1  0
 11 35  1  6
 12 36  1  0
 12 37  1  0
 13 38  1  0
 15 39  1  0
 21 40  1  0
 22 41  1  0
 23 42  1  0
M  ISO  8  24   8  25   8  26  14  27  14  28   5  29  13  30  13  31  13
M  ISO  8  32  13  33  13  34  13  35  13  36   8  37   8  38  14  39  14
M  ISO  3  40  14  41  14  42  14
M  END
>  <minimizedAffinity>  (1) 
-5.83834839

>  <minimizedRMSD>  (1) 
2.75411129

$$$$
