
     RDKit          3D

 41 44  0  0  1  0  0  0  0  0999 V2000
   45.4710   33.7400   40.2230 C   0  0  0  0  0  0  0  0  0  0  0  0
   44.1410   33.8060   40.5620 C   0  0  0  0  0  0  0  0  0  0  0  0
   43.4350   33.3510   39.5180 N   0  0  0  0  0  0  0  0  0  0  0  0
   44.2820   33.0060   38.5490 C   0  0  0  0  0  0  0  0  0  0  0  0
   45.5230   33.2450   38.9850 N   0  0  0  0  0  0  0  0  0  0  0  0
   47.4080   34.2270   37.8040 N   0  0  0  0  0  0  0  0  0  0  0  0
   48.6970   33.7600   37.3770 C   0  0  0  0  0  0  0  0  0  0  0  0
   48.9820   32.4710   38.0750 C   0  0  0  0  0  0  0  0  0  0  0  0
   47.7400   32.2970   38.9870 C   0  0  0  0  0  0  0  0  0  0  0  0
   46.7630   33.0260   38.2810 C   0  0  1  0  0  0  0  0  0  0  0  0
   46.5190   34.1690   41.1220 C   0  0  0  0  0  0  0  0  0  0  0  0
   46.0100   35.2130   42.1180 C   0  0  0  0  0  0  0  0  0  0  0  0
   46.9640   33.6300   43.6990 C   0  0  0  0  0  0  0  0  0  0  0  0
   46.0210   34.6110   43.4290 C   0  0  0  0  0  0  0  0  0  0  0  0
   45.1270   34.9460   44.4480 C   0  0  0  0  0  0  0  0  0  0  0  0
   45.2430   34.2850   45.6350 N   0  0  0  0  0  0  0  0  0  0  0  0
   46.1750   33.3350   45.8570 C   0  0  0  0  0  0  0  0  0  0  0  0
   47.0400   33.0040   44.8870 N   0  0  0  0  0  0  0  0  0  0  0  0
   46.2230   32.6960   47.1260 N   0  0  0  0  0  0  0  0  0  0  0  0
   47.3110   32.2160   47.7550 C   0  0  0  0  0  0  0  0  0  0  0  0
   46.9880   31.6670   48.9590 N   0  0  0  0  0  0  0  0  0  0  0  0
   45.6450   31.8280   49.0510 C   0  0  0  0  0  0  0  0  0  0  0  0
   45.2070   32.4530   47.9290 N   0  0  0  0  0  0  0  0  0  0  0  0
   43.7306   34.1667   41.5167 H   0  0  0  0  0  0  0  0  0  0  0  0
   44.0087   32.5972   37.5651 H   0  0  0  0  0  0  0  0  0  0  0  0
   46.8856   34.6395   37.0179 H   0  0  0  0  0  0  0  0  0  0  0  0
   48.6935   33.6010   36.2886 H   0  0  0  0  0  0  0  0  0  0  0  0
   49.4702   34.5032   37.6217 H   0  0  0  0  0  0  0  0  0  0  0  0
   49.0669   31.6415   37.3576 H   0  0  0  0  0  0  0  0  0  0  0  0
   49.9331   32.4742   38.6277 H   0  0  0  0  0  0  0  0  0  0  0  0
   47.4584   31.2380   39.0833 H   0  0  0  0  0  0  0  0  0  0  0  0
   47.8933   32.6406   40.0207 H   0  0  0  0  0  0  0  0  0  0  0  0
   46.4017   32.4262   37.4326 H   0  0  0  0  0  0  0  0  0  0  0  0
   46.8924   33.2965   41.6781 H   0  0  0  0  0  0  0  0  0  0  0  0
   47.3219   34.6248   40.5240 H   0  0  0  0  0  0  0  0  0  0  0  0
   46.6675   36.0948   42.1052 H   0  0  0  0  0  0  0  0  0  0  0  0
   44.9930   35.5361   41.8511 H   0  0  0  0  0  0  0  0  0  0  0  0
   47.6783   33.3530   42.9097 H   0  0  0  0  0  0  0  0  0  0  0  0
   44.3561   35.7162   44.2984 H   0  0  0  0  0  0  0  0  0  0  0  0
   48.3321   32.2612   47.3485 H   0  0  0  0  0  0  0  0  0  0  0  0
   45.0159   31.5060   49.8939 H   0  0  0  0  0  0  0  0  0  0  0  0
  1  2  2  0
  1 11  1  0
  3  2  1  0
  4  5  1  0
  4  3  2  0
  5  1  1  0
  6 10  1  0
  7  6  1  0
  7  8  1  0
  8  9  1  0
 10  5  1  0
 10  9  1  0
 11 12  1  0
 12 14  1  0
 13 18  2  0
 14 13  1  0
 14 15  2  0
 15 16  1  0
 16 17  2  0
 17 19  1  0
 18 17  1  0
 19 20  1  0
 19 23  1  0
 20 21  2  0
 21 22  1  0
 23 22  2  0
  2 24  1  0
  4 25  1  0
  6 26  1  0
  7 27  1  0
  7 28  1  0
  8 29  1  0
  8 30  1  0
  9 31  1  0
  9 32  1  0
 10 33  1  6
 11 34  1  0
 11 35  1  0
 12 36  1  0
 12 37  1  0
 13 38  1  0
 15 39  1  0
 20 40  1  0
 22 41  1  0
M  ISO  8  24  14  25  14  26   5  27  13  28  13  29  13  30  13  31  13
M  ISO  8  32  13  33  13  34   8  35   8  36   8  37   8  38  14  39  14
M  ISO  2  40  14  41  14
M  END
>  <minimizedAffinity>  (1) 
-5.68664885

>  <minimizedRMSD>  (1) 
2.14721656

$$$$
