
     RDKit          3D

 45 48  0  0  1  0  0  0  0  0999 V2000
   46.6160   34.2360   40.9900 C   0  0  0  0  0  0  0  0  0  0  0  0
   45.4850   33.7940   40.1750 C   0  0  0  0  0  0  0  0  0  0  0  0
   44.1920   33.8240   40.6220 C   0  0  0  0  0  0  0  0  0  0  0  0
   43.4120   33.3790   39.6320 N   0  0  0  0  0  0  0  0  0  0  0  0
   44.1790   33.0740   38.5870 C   0  0  0  0  0  0  0  0  0  0  0  0
   45.4440   33.3300   38.9290 N   0  0  0  0  0  0  0  0  0  0  0  0
   47.0950   34.2610   37.4130 N   0  0  0  0  0  0  0  0  0  0  0  0
   48.4280   33.8670   36.9910 C   0  0  0  0  0  0  0  0  0  0  0  0
   48.9490   32.8560   37.9970 C   0  0  0  0  0  0  0  0  0  0  0  0
   47.7430   32.6220   38.8780 C   0  0  0  0  0  0  0  0  0  0  0  0
   46.6250   33.1290   38.1070 C   0  0  1  0  0  0  0  0  0  0  0  0
   46.1650   35.1850   42.0790 C   0  0  0  0  0  0  0  0  0  0  0  0
   45.2840   34.7660   44.3420 C   0  0  0  0  0  0  0  0  0  0  0  0
   46.1980   34.4750   43.3340 C   0  0  0  0  0  0  0  0  0  0  0  0
   47.1670   33.4840   43.5780 C   0  0  0  0  0  0  0  0  0  0  0  0
   47.1440   32.8720   44.7940 N   0  0  0  0  0  0  0  0  0  0  0  0
   46.2370   33.1900   45.7450 C   0  0  0  0  0  0  0  0  0  0  0  0
   45.3040   34.1360   45.5240 N   0  0  0  0  0  0  0  0  0  0  0  0
   46.2650   32.4930   47.0420 C   0  0  0  0  0  0  0  0  0  0  0  0
   45.0860   32.2820   47.7230 C   0  0  0  0  0  0  0  0  0  0  0  0
   45.0590   31.6360   48.9380 C   0  0  0  0  0  0  0  0  0  0  0  0
   46.2800   31.2120   49.4400 C   0  0  0  0  0  0  0  0  0  0  0  0
   47.4700   31.4100   48.7810 C   0  0  0  0  0  0  0  0  0  0  0  0
   47.4700   32.0600   47.5640 C   0  0  0  0  0  0  0  0  0  0  0  0
   47.3445   34.7493   40.3452 H   0  0  0  0  0  0  0  0  0  0  0  0
   47.0721   33.3535   41.4625 H   0  0  0  0  0  0  0  0  0  0  0  0
   43.8556   34.1544   41.6158 H   0  0  0  0  0  0  0  0  0  0  0  0
   43.8335   32.6826   37.6188 H   0  0  0  0  0  0  0  0  0  0  0  0
   46.4976   34.4695   36.6003 H   0  0  0  0  0  0  0  0  0  0  0  0
   48.3854   33.4123   35.9903 H   0  0  0  0  0  0  0  0  0  0  0  0
   49.0925   34.7424   36.9441 H   0  0  0  0  0  0  0  0  0  0  0  0
   49.2649   31.9269   37.5001 H   0  0  0  0  0  0  0  0  0  0  0  0
   49.8353   33.2024   38.5488 H   0  0  0  0  0  0  0  0  0  0  0  0
   47.6165   31.5494   39.0868 H   0  0  0  0  0  0  0  0  0  0  0  0
   47.8365   33.1190   39.8549 H   0  0  0  0  0  0  0  0  0  0  0  0
   46.2663   32.4015   37.3640 H   0  0  0  0  0  0  0  0  0  0  0  0
   46.8418   36.0511   42.1227 H   0  0  0  0  0  0  0  0  0  0  0  0
   45.1468   35.5462   41.8721 H   0  0  0  0  0  0  0  0  0  0  0  0
   44.5209   35.5377   44.1626 H   0  0  0  0  0  0  0  0  0  0  0  0
   47.9135   33.2145   42.8164 H   0  0  0  0  0  0  0  0  0  0  0  0
   44.1424   32.6389   47.2845 H   0  0  0  0  0  0  0  0  0  0  0  0
   44.1184   31.4651   49.4821 H   0  0  0  0  0  0  0  0  0  0  0  0
   46.2972   30.6935   50.4100 H   0  0  0  0  0  0  0  0  0  0  0  0
   48.4136   31.0535   49.2199 H   0  0  0  0  0  0  0  0  0  0  0  0
   48.4104   32.2305   47.0195 H   0  0  0  0  0  0  0  0  0  0  0  0
  1 12  1  0
  2  3  2  0
  2  1  1  0
  4  3  1  0
  5  6  1  0
  5  4  2  0
  6  2  1  0
  7 11  1  0
  8  7  1  0
  8  9  1  0
  9 10  1  0
 11 10  1  0
 11  6  1  0
 12 14  1  0
 13 18  2  0
 14 15  2  0
 14 13  1  0
 15 16  1  0
 16 17  2  0
 17 19  1  0
 18 17  1  0
 19 24  1  0
 19 20  2  0
 20 21  1  0
 21 22  2  0
 23 22  1  0
 24 23  2  0
  1 25  1  0
  1 26  1  0
  3 27  1  0
  5 28  1  0
  7 29  1  0
  8 30  1  0
  8 31  1  0
  9 32  1  0
  9 33  1  0
 10 34  1  0
 10 35  1  0
 11 36  1  6
 12 37  1  0
 12 38  1  0
 13 39  1  0
 15 40  1  0
 20 41  1  0
 21 42  1  0
 22 43  1  0
 23 44  1  0
 24 45  1  0
M  ISO  8  25   8  26   8  27  14  28  14  29   5  30  13  31  13  32  13
M  ISO  8  33  13  34  13  35  13  36  13  37   8  38   8  39  14  40  14
M  ISO  5  41  14  42  14  43  14  44  14  45  14
M  END
>  <minimizedAffinity>  (1) 
-5.85578108

>  <minimizedRMSD>  (1) 
2.53543663

$$$$
