
     RDKit          3D

 48 51  0  0  1  0  0  0  0  0999 V2000
   45.0960   33.9660   40.4960 C   0  0  0  0  0  0  0  0  0  0  0  0
   43.7620   34.1180   40.7510 C   0  0  0  0  0  0  0  0  0  0  0  0
   43.0900   33.5500   39.7380 N   0  0  0  0  0  0  0  0  0  0  0  0
   43.9690   33.0540   38.8720 C   0  0  0  0  0  0  0  0  0  0  0  0
   45.1920   33.3110   39.3420 N   0  0  0  0  0  0  0  0  0  0  0  0
   47.2730   34.0010   38.3020 N   0  0  0  0  0  0  0  0  0  0  0  0
   48.5530   33.3530   38.0680 C   0  0  0  0  0  0  0  0  0  0  0  0
   48.6520   32.1740   39.0180 C   0  0  0  0  0  0  0  0  0  0  0  0
   47.2670   32.1240   39.6200 C   0  0  0  0  0  0  0  0  0  0  0  0
   46.4550   32.9360   38.7330 C   0  0  1  0  0  0  0  0  0  0  0  0
   46.1360   34.4870   41.3850 C   0  0  0  0  0  0  0  0  0  0  0  0
   45.5370   35.3200   42.4970 C   0  0  0  0  0  0  0  0  0  0  0  0
   46.8090   33.7250   43.8700 C   0  0  0  0  0  0  0  0  0  0  0  0
   45.7770   34.6410   43.7460 C   0  0  0  0  0  0  0  0  0  0  0  0
   44.9610   34.8880   44.8680 C   0  0  0  0  0  0  0  0  0  0  0  0
   45.2460   34.1970   46.0140 N   0  0  0  0  0  0  0  0  0  0  0  0
   46.2640   33.3120   46.0820 C   0  0  0  0  0  0  0  0  0  0  0  0
   47.0500   33.0710   45.0150 N   0  0  0  0  0  0  0  0  0  0  0  0
   46.4990   32.6070   47.3700 C   0  0  0  0  0  0  0  0  0  0  0  0
   45.1620   32.3440   48.0730 C   0  0  0  0  0  0  0  0  0  0  0  0
   45.6500   31.4640   49.2200 C   0  0  0  0  0  0  0  0  0  0  0  0
   46.7920   30.6420   48.6160 C   0  0  0  0  0  0  0  0  0  0  0  0
   47.0200   31.2130   47.2240 C   0  0  0  0  0  0  0  0  0  0  0  0
   43.3198   34.6153   41.6269 H   0  0  0  0  0  0  0  0  0  0  0  0
   43.7312   32.5267   37.9364 H   0  0  0  0  0  0  0  0  0  0  0  0
   46.9072   34.4224   37.4362 H   0  0  0  0  0  0  0  0  0  0  0  0
   48.6106   33.0017   37.0272 H   0  0  0  0  0  0  0  0  0  0  0  0
   49.3796   34.0580   38.2404 H   0  0  0  0  0  0  0  0  0  0  0  0
   48.8841   31.2451   38.4764 H   0  0  0  0  0  0  0  0  0  0  0  0
   49.4522   32.2783   39.7655 H   0  0  0  0  0  0  0  0  0  0  0  0
   46.8937   31.0897   39.6508 H   0  0  0  0  0  0  0  0  0  0  0  0
   47.2484   32.4910   40.6568 H   0  0  0  0  0  0  0  0  0  0  0  0
   46.1246   32.3794   37.8436 H   0  0  0  0  0  0  0  0  0  0  0  0
   46.6874   33.6433   41.8256 H   0  0  0  0  0  0  0  0  0  0  0  0
   46.8108   35.1253   40.7958 H   0  0  0  0  0  0  0  0  0  0  0  0
   46.0106   36.3127   42.5155 H   0  0  0  0  0  0  0  0  0  0  0  0
   44.4566   35.4496   42.3358 H   0  0  0  0  0  0  0  0  0  0  0  0
   47.4522   33.5278   42.9997 H   0  0  0  0  0  0  0  0  0  0  0  0
   44.1293   35.6066   44.8243 H   0  0  0  0  0  0  0  0  0  0  0  0
   47.2086   33.2625   47.8961 H   0  0  0  0  0  0  0  0  0  0  0  0
   44.6998   33.2735   48.4368 H   0  0  0  0  0  0  0  0  0  0  0  0
   44.3800   31.8983   47.4407 H   0  0  0  0  0  0  0  0  0  0  0  0
   46.0145   32.0806   50.0548 H   0  0  0  0  0  0  0  0  0  0  0  0
   44.8499   30.8296   49.6291 H   0  0  0  0  0  0  0  0  0  0  0  0
   47.7018   30.7437   49.2259 H   0  0  0  0  0  0  0  0  0  0  0  0
   46.5455   29.5706   48.5796 H   0  0  0  0  0  0  0  0  0  0  0  0
   46.4547   30.6526   46.4647 H   0  0  0  0  0  0  0  0  0  0  0  0
   48.0671   31.1638   46.8907 H   0  0  0  0  0  0  0  0  0  0  0  0
  1  2  2  0
  1 11  1  0
  3  2  1  0
  4  5  1  0
  4  3  2  0
  5  1  1  0
  6 10  1  0
  7  6  1  0
  7  8  1  0
  8  9  1  0
 10  5  1  0
 10  9  1  0
 11 12  1  0
 12 14  1  0
 13 18  2  0
 14 13  1  0
 14 15  2  0
 15 16  1  0
 16 17  2  0
 17 19  1  0
 18 17  1  0
 19 20  1  0
 20 21  1  0
 22 21  1  0
 23 19  1  0
 23 22  1  0
  2 24  1  0
  4 25  1  0
  6 26  1  0
  7 27  1  0
  7 28  1  0
  8 29  1  0
  8 30  1  0
  9 31  1  0
  9 32  1  0
 10 33  1  6
 11 34  1  0
 11 35  1  0
 12 36  1  0
 12 37  1  0
 13 38  1  0
 15 39  1  0
 19 40  1  0
 20 41  1  0
 20 42  1  0
 21 43  1  0
 21 44  1  0
 22 45  1  0
 22 46  1  0
 23 47  1  0
 23 48  1  0
M  ISO  8  24  14  25  14  26   5  27  13  28  13  29  13  30  13  31  13
M  ISO  8  32  13  33  13  34   8  35   8  36   8  37   8  38  14  39  14
M  ISO  8  40  13  41  13  42  13  43  13  44  13  45  13  46  13  47  13
M  ISO  1  48  13
M  END
>  <minimizedAffinity>  (1) 
-5.50996637

>  <minimizedRMSD>  (1) 
2.45801735

$$$$
