
     RDKit          3D

 42 45  0  0  1  0  0  0  0  0999 V2000
   45.3730   33.7240   40.2090 C   0  0  0  0  0  0  0  0  0  0  0  0
   44.0530   33.7330   40.5570 C   0  0  0  0  0  0  0  0  0  0  0  0
   43.3580   33.2560   39.5220 N   0  0  0  0  0  0  0  0  0  0  0  0
   44.2050   32.9470   38.5400 C   0  0  0  0  0  0  0  0  0  0  0  0
   45.4360   33.2370   38.9720 N   0  0  0  0  0  0  0  0  0  0  0  0
   47.3400   34.2290   37.8400 N   0  0  0  0  0  0  0  0  0  0  0  0
   48.6550   33.7450   37.4540 C   0  0  0  0  0  0  0  0  0  0  0  0
   48.9590   32.5210   38.3000 C   0  0  0  0  0  0  0  0  0  0  0  0
   47.6450   32.2810   39.0110 C   0  0  0  0  0  0  0  0  0  0  0  0
   46.6750   33.0430   38.2430 C   0  0  1  0  0  0  0  0  0  0  0  0
   46.4360   34.2050   41.0940 C   0  0  0  0  0  0  0  0  0  0  0  0
   45.8880   35.1630   42.1310 C   0  0  0  0  0  0  0  0  0  0  0  0
   46.9570   33.5580   43.6630 C   0  0  0  0  0  0  0  0  0  0  0  0
   46.0030   34.5330   43.4240 C   0  0  0  0  0  0  0  0  0  0  0  0
   45.1330   34.8850   44.4780 C   0  0  0  0  0  0  0  0  0  0  0  0
   45.2930   34.2340   45.6720 N   0  0  0  0  0  0  0  0  0  0  0  0
   46.2410   33.2880   45.8460 C   0  0  0  0  0  0  0  0  0  0  0  0
   47.0820   32.9390   44.8490 N   0  0  0  0  0  0  0  0  0  0  0  0
   46.3390   32.6560   47.1200 N   0  0  0  0  0  0  0  0  0  0  0  0
   45.2520   32.3660   47.8810 C   0  0  0  0  0  0  0  0  0  0  0  0
   45.6360   31.7520   49.0740 C   0  0  0  0  0  0  0  0  0  0  0  0
   46.9830   31.6880   48.9970 N   0  0  0  0  0  0  0  0  0  0  0  0
   47.4030   32.2290   47.8280 C   0  0  0  0  0  0  0  0  0  0  0  0
   43.6371   34.0722   41.5172 H   0  0  0  0  0  0  0  0  0  0  0  0
   43.9399   32.5307   37.5569 H   0  0  0  0  0  0  0  0  0  0  0  0
   46.8592   34.6718   37.0440 H   0  0  0  0  0  0  0  0  0  0  0  0
   48.6572   33.4743   36.3878 H   0  0  0  0  0  0  0  0  0  0  0  0
   49.4157   34.5236   37.6127 H   0  0  0  0  0  0  0  0  0  0  0  0
   49.2338   31.6613   37.6713 H   0  0  0  0  0  0  0  0  0  0  0  0
   49.8091   32.6604   38.9840 H   0  0  0  0  0  0  0  0  0  0  0  0
   47.3903   31.2109   39.0077 H   0  0  0  0  0  0  0  0  0  0  0  0
   47.6775   32.5866   40.0672 H   0  0  0  0  0  0  0  0  0  0  0  0
   46.3354   32.5070   37.3445 H   0  0  0  0  0  0  0  0  0  0  0  0
   46.8946   33.3457   41.6051 H   0  0  0  0  0  0  0  0  0  0  0  0
   47.1834   34.7365   40.4867 H   0  0  0  0  0  0  0  0  0  0  0  0
   46.4671   36.0981   42.1184 H   0  0  0  0  0  0  0  0  0  0  0  0
   44.8363   35.4010   41.9138 H   0  0  0  0  0  0  0  0  0  0  0  0
   47.6409   33.2787   42.8480 H   0  0  0  0  0  0  0  0  0  0  0  0
   44.3564   35.6527   44.3455 H   0  0  0  0  0  0  0  0  0  0  0  0
   44.2123   32.5849   47.5962 H   0  0  0  0  0  0  0  0  0  0  0  0
   44.9890   31.4002   49.8911 H   0  0  0  0  0  0  0  0  0  0  0  0
   48.4519   32.3076   47.5062 H   0  0  0  0  0  0  0  0  0  0  0  0
  1  2  2  0
  1 11  1  0
  3  2  1  0
  4  5  1  0
  4  3  2  0
  5  1  1  0
  6 10  1  0
  7  6  1  0
  7  8  1  0
  8  9  1  0
 10  5  1  0
 10  9  1  0
 11 12  1  0
 12 14  1  0
 13 18  2  0
 14 13  1  0
 14 15  2  0
 15 16  1  0
 16 17  2  0
 17 19  1  0
 18 17  1  0
 19 23  1  0
 19 20  1  0
 20 21  2  0
 22 21  1  0
 23 22  2  0
  2 24  1  0
  4 25  1  0
  6 26  1  0
  7 27  1  0
  7 28  1  0
  8 29  1  0
  8 30  1  0
  9 31  1  0
  9 32  1  0
 10 33  1  6
 11 34  1  0
 11 35  1  0
 12 36  1  0
 12 37  1  0
 13 38  1  0
 15 39  1  0
 20 40  1  0
 21 41  1  0
 23 42  1  0
M  ISO  8  24  14  25  14  26   5  27  13  28  13  29  13  30  13  31  13
M  ISO  8  32  13  33  13  34   8  35   8  36   8  37   8  38  14  39  14
M  ISO  3  40  14  41  14  42  14
M  END
>  <minimizedAffinity>  (1) 
-5.6193471

>  <minimizedRMSD>  (1) 
2.21798277

$$$$
