
     RDKit          3D

 47 49  0  0  1  0  0  0  0  0999 V2000
   44.4210   34.9830   41.3370 C   0  0  0  0  0  0  0  0  0  0  0  0
   43.1560   35.4910   41.4100 C   0  0  0  0  0  0  0  0  0  0  0  0
   42.4280   34.9000   40.4590 N   0  0  0  0  0  0  0  0  0  0  0  0
   43.2020   34.0410   39.7970 C   0  0  0  0  0  0  0  0  0  0  0  0
   44.4180   34.0980   40.3420 N   0  0  0  0  0  0  0  0  0  0  0  0
   46.7470   34.0660   39.6600 N   0  0  0  0  0  0  0  0  0  0  0  0
   47.7910   33.0540   39.6520 C   0  0  0  0  0  0  0  0  0  0  0  0
   47.3680   31.9480   40.6010 C   0  0  0  0  0  0  0  0  0  0  0  0
   45.9590   32.3540   40.9690 C   0  0  0  0  0  0  0  0  0  0  0  0
   45.5830   33.3210   39.9570 C   0  0  1  0  0  0  0  0  0  0  0  0
   45.5070   35.4170   42.2180 C   0  0  0  0  0  0  0  0  0  0  0  0
   44.9700   35.8980   43.5490 C   0  0  0  0  0  0  0  0  0  0  0  0
   46.2040   33.9140   44.2890 C   0  0  0  0  0  0  0  0  0  0  0  0
   45.2930   34.9130   44.5490 C   0  0  0  0  0  0  0  0  0  0  0  0
   44.6750   34.9390   45.8160 C   0  0  0  0  0  0  0  0  0  0  0  0
   45.0220   33.9650   46.7030 N   0  0  0  0  0  0  0  0  0  0  0  0
   45.9220   33.0050   46.3990 C   0  0  0  0  0  0  0  0  0  0  0  0
   46.5210   32.9700   45.1900 N   0  0  0  0  0  0  0  0  0  0  0  0
   46.2330   31.9870   47.4370 C   0  0  0  0  0  0  0  0  0  0  0  0
   45.0960   31.8690   48.4020 C   0  0  0  0  0  0  0  0  0  0  0  0
   47.5490   32.3380   48.1010 C   0  0  0  0  0  0  0  0  0  0  0  0
   46.4340   30.6120   46.8200 C   0  0  0  0  0  0  0  0  0  0  0  0
   42.8007   36.2496   42.1229 H   0  0  0  0  0  0  0  0  0  0  0  0
   42.8947   33.4023   38.9558 H   0  0  0  0  0  0  0  0  0  0  0  0
   46.6686   34.5241   38.7408 H   0  0  0  0  0  0  0  0  0  0  0  0
   47.9133   32.6498   38.6363 H   0  0  0  0  0  0  0  0  0  0  0  0
   48.7508   33.4878   39.9690 H   0  0  0  0  0  0  0  0  0  0  0  0
   47.3817   30.9683   40.1010 H   0  0  0  0  0  0  0  0  0  0  0  0
   48.0335   31.8371   41.4698 H   0  0  0  0  0  0  0  0  0  0  0  0
   45.2853   31.4847   40.9453 H   0  0  0  0  0  0  0  0  0  0  0  0
   45.8955   32.7676   41.9863 H   0  0  0  0  0  0  0  0  0  0  0  0
   45.2382   32.8360   39.0318 H   0  0  0  0  0  0  0  0  0  0  0  0
   46.1894   34.5716   42.3903 H   0  0  0  0  0  0  0  0  0  0  0  0
   46.0378   36.2500   41.7339 H   0  0  0  0  0  0  0  0  0  0  0  0
   45.4336   36.8604   43.8114 H   0  0  0  0  0  0  0  0  0  0  0  0
   43.8802   36.0360   43.4907 H   0  0  0  0  0  0  0  0  0  0  0  0
   46.6919   33.8880   43.3035 H   0  0  0  0  0  0  0  0  0  0  0  0
   43.9413   35.7155   46.0781 H   0  0  0  0  0  0  0  0  0  0  0  0
   45.4827   31.9091   49.4310 H   0  0  0  0  0  0  0  0  0  0  0  0
   44.3919   32.6989   48.2423 H   0  0  0  0  0  0  0  0  0  0  0  0
   44.5773   30.9122   48.2423 H   0  0  0  0  0  0  0  0  0  0  0  0
   47.4283   32.3058   49.1939 H   0  0  0  0  0  0  0  0  0  0  0  0
   48.3185   31.6137   47.7956 H   0  0  0  0  0  0  0  0  0  0  0  0
   47.8556   33.3493   47.7956 H   0  0  0  0  0  0  0  0  0  0  0  0
   46.5433   29.8640   47.6191 H   0  0  0  0  0  0  0  0  0  0  0  0
   45.5633   30.3587   46.1973 H   0  0  0  0  0  0  0  0  0  0  0  0
   47.3407   30.6185   46.1973 H   0  0  0  0  0  0  0  0  0  0  0  0
  1  2  2  0
  1 11  1  0
  3  2  1  0
  4  5  1  0
  4  3  2  0
  5  1  1  0
  6 10  1  0
  7  6  1  0
  7  8  1  0
  8  9  1  0
 10  5  1  0
 10  9  1  0
 11 12  1  0
 12 14  1  0
 13 14  2  0
 13 18  1  0
 14 15  1  0
 15 16  2  0
 17 16  1  0
 17 19  1  0
 18 17  2  0
 19 21  1  0
 19 20  1  0
 22 19  1  0
  2 23  1  0
  4 24  1  0
  6 25  1  0
  7 26  1  0
  7 27  1  0
  8 28  1  0
  8 29  1  0
  9 30  1  0
  9 31  1  0
 10 32  1  6
 11 33  1  0
 11 34  1  0
 12 35  1  0
 12 36  1  0
 13 37  1  0
 15 38  1  0
 20 39  1  0
 20 40  1  0
 20 41  1  0
 21 42  1  0
 21 43  1  0
 21 44  1  0
 22 45  1  0
 22 46  1  0
 22 47  1  0
M  ISO  8  23  14  24  14  25   5  26  13  27  13  28  13  29  13  30  13
M  ISO  8  31  13  32  13  33   8  34   8  35   8  36   8  37  14  38  14
M  ISO  8  39   8  40   8  41   8  42   8  43   8  44   8  45   8  46   8
M  ISO  1  47   8
M  END
>  <minimizedAffinity>  (1) 
-5.20306492

>  <minimizedRMSD>  (1) 
2.94702077

$$$$
