
     RDKit          3D

 42 45  0  0  1  0  0  0  0  0999 V2000
   45.1490   34.3610   40.8950 C   0  0  0  0  0  0  0  0  0  0  0  0
   43.8280   34.6860   41.0760 C   0  0  0  0  0  0  0  0  0  0  0  0
   43.1130   34.0650   40.1170 N   0  0  0  0  0  0  0  0  0  0  0  0
   43.9430   33.3650   39.3470 C   0  0  0  0  0  0  0  0  0  0  0  0
   45.1790   33.5550   39.8310 N   0  0  0  0  0  0  0  0  0  0  0  0
   47.2570   33.9820   38.6610 N   0  0  0  0  0  0  0  0  0  0  0  0
   48.5040   33.2870   38.4640 C   0  0  0  0  0  0  0  0  0  0  0  0
   48.4650   32.0800   39.3130 C   0  0  0  0  0  0  0  0  0  0  0  0
   47.2450   32.3220   40.2360 C   0  0  0  0  0  0  0  0  0  0  0  0
   46.4190   33.0130   39.3150 C   0  0  1  0  0  0  0  0  0  0  0  0
   46.1800   34.8670   41.7550 C   0  0  0  0  0  0  0  0  0  0  0  0
   45.6280   35.5440   43.0070 C   0  0  0  0  0  0  0  0  0  0  0  0
   46.8220   33.6830   44.0180 C   0  0  0  0  0  0  0  0  0  0  0  0
   45.8170   34.6600   44.1290 C   0  0  0  0  0  0  0  0  0  0  0  0
   45.0600   34.6850   45.2960 C   0  0  0  0  0  0  0  0  0  0  0  0
   45.3370   33.7550   46.2670 N   0  0  0  0  0  0  0  0  0  0  0  0
   46.3150   32.8370   46.1040 C   0  0  0  0  0  0  0  0  0  0  0  0
   47.0720   32.7800   44.9870 N   0  0  0  0  0  0  0  0  0  0  0  0
   46.5210   31.8780   47.2260 C   0  0  0  0  0  0  0  0  0  0  0  0
   47.6380   32.2860   48.2430 C   0  0  0  0  0  0  0  0  0  0  0  0
   46.1910   32.2290   48.6130 C   0  0  0  0  0  0  0  0  0  0  0  0
   43.4241   35.3381   41.8644 H   0  0  0  0  0  0  0  0  0  0  0  0
   43.6674   32.7481   38.4789 H   0  0  0  0  0  0  0  0  0  0  0  0
   46.8507   34.2681   37.7588 H   0  0  0  0  0  0  0  0  0  0  0  0
   48.6147   33.0020   37.4073 H   0  0  0  0  0  0  0  0  0  0  0  0
   49.3569   33.9278   38.7322 H   0  0  0  0  0  0  0  0  0  0  0  0
   48.3227   31.1756   38.7033 H   0  0  0  0  0  0  0  0  0  0  0  0
   49.3987   31.9210   39.8723 H   0  0  0  0  0  0  0  0  0  0  0  0
   46.7892   31.3804   40.5760 H   0  0  0  0  0  0  0  0  0  0  0  0
   47.4557   32.8495   41.1780 H   0  0  0  0  0  0  0  0  0  0  0  0
   46.0162   32.2835   38.5969 H   0  0  0  0  0  0  0  0  0  0  0  0
   46.8230   34.0293   42.0631 H   0  0  0  0  0  0  0  0  0  0  0  0
   46.7405   35.6254   41.1887 H   0  0  0  0  0  0  0  0  0  0  0  0
   46.1639   36.4880   43.1846 H   0  0  0  0  0  0  0  0  0  0  0  0
   44.5576   35.7611   42.8758 H   0  0  0  0  0  0  0  0  0  0  0  0
   47.4299   33.6543   43.1017 H   0  0  0  0  0  0  0  0  0  0  0  0
   44.2620   35.4290   45.4367 H   0  0  0  0  0  0  0  0  0  0  0  0
   46.2571   31.0180   46.5929 H   0  0  0  0  0  0  0  0  0  0  0  0
   48.3420   31.5340   48.6290 H   0  0  0  0  0  0  0  0  0  0  0  0
   48.4378   33.0401   48.2825 H   0  0  0  0  0  0  0  0  0  0  0  0
   45.6496   33.1642   48.8184 H   0  0  0  0  0  0  0  0  0  0  0  0
   45.6352   31.7140   49.4104 H   0  0  0  0  0  0  0  0  0  0  0  0
  1  2  2  0
  1 11  1  0
  3  2  1  0
  4  5  1  0
  4  3  2  0
  5  1  1  0
  6 10  1  0
  7  6  1  0
  7  8  1  0
  8  9  1  0
 10  5  1  0
 10  9  1  0
 11 12  1  0
 12 14  1  0
 13 14  2  0
 13 18  1  0
 14 15  1  0
 15 16  2  0
 17 16  1  0
 17 19  1  0
 18 17  2  0
 19 20  1  0
 19 21  1  0
 20 21  1  0
  2 22  1  0
  4 23  1  0
  6 24  1  0
  7 25  1  0
  7 26  1  0
  8 27  1  0
  8 28  1  0
  9 29  1  0
  9 30  1  0
 10 31  1  6
 11 32  1  0
 11 33  1  0
 12 34  1  0
 12 35  1  0
 13 36  1  0
 15 37  1  0
 19 38  1  0
 20 39  1  0
 20 40  1  0
 21 41  1  0
 21 42  1  0
M  ISO  8  22  14  23  14  24   5  25  13  26  13  27  13  28  13  29  13
M  ISO  8  30  13  31  13  32   8  33   8  34   8  35   8  36  14  37  14
M  ISO  5  38  13  39  13  40  13  41  13  42  13
M  END
>  <minimizedAffinity>  (1) 
-4.92627144

>  <minimizedRMSD>  (1) 
2.4353354

$$$$
