
     RDKit          3D

 38 40  0  0  1  0  0  0  0  0999 V2000
   45.6780   33.7030   40.1120 C   0  0  0  0  0  0  0  0  0  0  0  0
   44.3730   33.7640   40.5410 C   0  0  0  0  0  0  0  0  0  0  0  0
   43.5930   33.3850   39.5190 N   0  0  0  0  0  0  0  0  0  0  0  0
   44.3680   33.0920   38.4770 C   0  0  0  0  0  0  0  0  0  0  0  0
   45.6410   33.2880   38.8460 N   0  0  0  0  0  0  0  0  0  0  0  0
   47.3160   34.2600   37.3800 N   0  0  0  0  0  0  0  0  0  0  0  0
   48.6190   33.8680   36.9150 C   0  0  0  0  0  0  0  0  0  0  0  0
   49.0960   32.7260   37.7520 C   0  0  0  0  0  0  0  0  0  0  0  0
   47.9210   32.5200   38.7410 C   0  0  0  0  0  0  0  0  0  0  0  0
   46.8320   33.0930   38.0490 C   0  0  1  0  0  0  0  0  0  0  0  0
   46.7910   34.0630   40.9680 C   0  0  0  0  0  0  0  0  0  0  0  0
   46.4030   35.1670   41.9450 C   0  0  0  0  0  0  0  0  0  0  0  0
   47.1490   33.5730   43.6270 C   0  0  0  0  0  0  0  0  0  0  0  0
   46.2690   34.5720   43.2510 C   0  0  0  0  0  0  0  0  0  0  0  0
   45.2700   34.9510   44.1570 C   0  0  0  0  0  0  0  0  0  0  0  0
   45.2270   34.3090   45.3580 N   0  0  0  0  0  0  0  0  0  0  0  0
   46.1040   33.3390   45.6890 C   0  0  0  0  0  0  0  0  0  0  0  0
   47.0700   32.9650   44.8260 N   0  0  0  0  0  0  0  0  0  0  0  0
   45.9640   32.7080   47.0210 C   0  0  0  0  0  0  0  0  0  0  0  0
   44.8840   33.2850   47.6910 F   0  0  0  0  0  0  0  0  0  0  0  0
   45.5550   31.3910   46.7710 F   0  0  0  0  0  0  0  0  0  0  0  0
   47.1270   32.7600   47.7450 F   0  0  0  0  0  0  0  0  0  0  0  0
   44.0313   34.0685   41.5412 H   0  0  0  0  0  0  0  0  0  0  0  0
   44.0246   32.7501   37.4895 H   0  0  0  0  0  0  0  0  0  0  0  0
   46.7042   34.5115   36.5905 H   0  0  0  0  0  0  0  0  0  0  0  0
   48.5592   33.5567   35.8617 H   0  0  0  0  0  0  0  0  0  0  0  0
   49.3185   34.7131   36.9957 H   0  0  0  0  0  0  0  0  0  0  0  0
   49.2625   31.8272   37.1401 H   0  0  0  0  0  0  0  0  0  0  0  0
   50.0582   32.9189   38.2489 H   0  0  0  0  0  0  0  0  0  0  0  0
   47.7492   31.4512   38.9365 H   0  0  0  0  0  0  0  0  0  0  0  0
   48.0969   32.9699   39.7292 H   0  0  0  0  0  0  0  0  0  0  0  0
   46.4575   32.3802   37.2996 H   0  0  0  0  0  0  0  0  0  0  0  0
   47.1074   33.1761   41.5366 H   0  0  0  0  0  0  0  0  0  0  0  0
   47.6113   34.4319   40.3347 H   0  0  0  0  0  0  0  0  0  0  0  0
   47.1844   35.9410   41.9647 H   0  0  0  0  0  0  0  0  0  0  0  0
   45.4571   35.6371   41.6379 H   0  0  0  0  0  0  0  0  0  0  0  0
   47.9379   33.2657   42.9247 H   0  0  0  0  0  0  0  0  0  0  0  0
   44.5452   35.7398   43.9074 H   0  0  0  0  0  0  0  0  0  0  0  0
  1  2  2  0
  1 11  1  0
  3  2  1  0
  4  5  1  0
  4  3  2  0
  5  1  1  0
  6 10  1  0
  7  6  1  0
  7  8  1  0
  8  9  1  0
 10  9  1  0
 10  5  1  0
 11 12  1  0
 12 14  1  0
 13 18  2  0
 14 13  1  0
 14 15  2  0
 15 16  1  0
 16 17  2  0
 17 19  1  0
 18 17  1  0
 19 20  1  0
 19 22  1  0
 21 19  1  0
  2 23  1  0
  4 24  1  0
  6 25  1  0
  7 26  1  0
  7 27  1  0
  8 28  1  0
  8 29  1  0
  9 30  1  0
  9 31  1  0
 10 32  1  6
 11 33  1  0
 11 34  1  0
 12 35  1  0
 12 36  1  0
 13 37  1  0
 15 38  1  0
M  ISO  8  23  14  24  14  25   5  26  13  27  13  28  13  29  13  30  13
M  ISO  8  31  13  32  13  33   8  34   8  35   8  36   8  37  14  38  14
M  END
>  <minimizedAffinity>  (1) 
-5.23650026

>  <minimizedRMSD>  (1) 
1.71390235

$$$$
