
     RDKit          3D

 41 43  0  0  1  0  0  0  0  0999 V2000
   46.8890   34.0030   41.0550 C   0  0  0  0  0  0  0  0  0  0  0  0
   45.7100   33.7180   40.2350 C   0  0  0  0  0  0  0  0  0  0  0  0
   44.4360   33.8420   40.7080 C   0  0  0  0  0  0  0  0  0  0  0  0
   43.6090   33.5200   39.6990 N   0  0  0  0  0  0  0  0  0  0  0  0
   44.3290   33.2030   38.6330 C   0  0  0  0  0  0  0  0  0  0  0  0
   45.6270   33.3230   38.9600 N   0  0  0  0  0  0  0  0  0  0  0  0
   47.2330   34.2150   37.3840 N   0  0  0  0  0  0  0  0  0  0  0  0
   48.5030   33.7870   36.8730 C   0  0  0  0  0  0  0  0  0  0  0  0
   49.0000   32.6730   37.7340 C   0  0  0  0  0  0  0  0  0  0  0  0
   47.8740   32.4980   38.7950 C   0  0  0  0  0  0  0  0  0  0  0  0
   46.7980   33.0820   38.1450 C   0  0  1  0  0  0  0  0  0  0  0  0
   46.5560   35.0630   42.1080 C   0  0  0  0  0  0  0  0  0  0  0  0
   47.2610   33.3590   43.6510 C   0  0  0  0  0  0  0  0  0  0  0  0
   46.4400   34.4410   43.3850 C   0  0  0  0  0  0  0  0  0  0  0  0
   45.5510   34.8280   44.3750 C   0  0  0  0  0  0  0  0  0  0  0  0
   45.5270   34.1320   45.5420 N   0  0  0  0  0  0  0  0  0  0  0  0
   46.3270   33.0910   45.7750 C   0  0  0  0  0  0  0  0  0  0  0  0
   47.2080   32.6920   44.8230 N   0  0  0  0  0  0  0  0  0  0  0  0
   46.2070   32.4130   47.0830 C   0  0  0  0  0  0  0  0  0  0  0  0
   45.1000   32.8970   47.7610 F   0  0  0  0  0  0  0  0  0  0  0  0
   45.9110   31.0770   46.7820 F   0  0  0  0  0  0  0  0  0  0  0  0
   47.3770   32.5040   47.8110 F   0  0  0  0  0  0  0  0  0  0  0  0
   44.6590   35.9430   44.2370 C   0  0  0  0  0  0  0  0  0  0  0  0
   44.8250   37.1790   44.2760 O   0  0  0  0  0  0  0  0  0  0  0  0
   43.3160   35.7900   44.0080 O   0  0  0  0  0  0  0  0  0  0  0  0
   47.6994   34.3734   40.4100 H   0  0  0  0  0  0  0  0  0  0  0  0
   47.2055   33.0797   41.5623 H   0  0  0  0  0  0  0  0  0  0  0  0
   44.1418   34.1476   41.7229 H   0  0  0  0  0  0  0  0  0  0  0  0
   43.9341   32.8958   37.6533 H   0  0  0  0  0  0  0  0  0  0  0  0
   46.5758   34.4219   36.6184 H   0  0  0  0  0  0  0  0  0  0  0  0
   48.3882   33.4346   35.8373 H   0  0  0  0  0  0  0  0  0  0  0  0
   49.2180   34.6229   36.8824 H   0  0  0  0  0  0  0  0  0  0  0  0
   49.1326   31.7523   37.1469 H   0  0  0  0  0  0  0  0  0  0  0  0
   49.9809   32.8862   38.1838 H   0  0  0  0  0  0  0  0  0  0  0  0
   47.6859   31.4361   39.0117 H   0  0  0  0  0  0  0  0  0  0  0  0
   48.1043   32.9417   39.7749 H   0  0  0  0  0  0  0  0  0  0  0  0
   46.4174   32.3279   37.4404 H   0  0  0  0  0  0  0  0  0  0  0  0
   47.3578   35.8155   42.1377 H   0  0  0  0  0  0  0  0  0  0  0  0
   45.6051   35.5519   41.8495 H   0  0  0  0  0  0  0  0  0  0  0  0
   47.9786   33.0328   42.8838 H   0  0  0  0  0  0  0  0  0  0  0  0
   42.9267   34.8828   43.9340 H   0  0  0  0  0  0  0  0  0  0  0  0
  1 12  1  0
  2  3  2  0
  2  1  1  0
  4  3  1  0
  5  6  1  0
  5  4  2  0
  6  2  1  0
  7 11  1  0
  8  7  1  0
  8  9  1  0
  9 10  1  0
 11 10  1  0
 11  6  1  0
 12 14  1  0
 13 18  2  0
 14 13  1  0
 14 15  2  0
 15 16  1  0
 16 17  2  0
 17 19  1  0
 18 17  1  0
 19 20  1  0
 19 22  1  0
 21 19  1  0
 23 24  2  0
 23 15  1  0
 25 23  1  0
  1 26  1  0
  1 27  1  0
  3 28  1  0
  5 29  1  0
  7 30  1  0
  8 31  1  0
  8 32  1  0
  9 33  1  0
  9 34  1  0
 10 35  1  0
 10 36  1  0
 11 37  1  6
 12 38  1  0
 12 39  1  0
 13 40  1  0
 25 41  1  0
M  ISO  8  26   8  27   8  28  14  29  14  30   5  31  13  32  13  33  13
M  ISO  8  34  13  35  13  36  13  37  13  38   8  39   8  40  14  41   3
M  END
>  <minimizedAffinity>  (1) 
-6.173944

>  <minimizedRMSD>  (1) 
0.329842746

$$$$
