
     RDKit          3D

 40 42  0  0  1  0  0  0  0  0999 V2000
   45.8090   33.6020   40.1690 C   0  0  0  0  0  0  0  0  0  0  0  0
   44.5320   33.6840   40.6450 C   0  0  0  0  0  0  0  0  0  0  0  0
   43.7130   33.4080   39.6160 N   0  0  0  0  0  0  0  0  0  0  0  0
   44.4390   33.1600   38.5370 C   0  0  0  0  0  0  0  0  0  0  0  0
   45.7330   33.2770   38.8720 N   0  0  0  0  0  0  0  0  0  0  0  0
   47.3540   34.2660   37.3680 N   0  0  0  0  0  0  0  0  0  0  0  0
   48.6170   33.8450   36.8240 C   0  0  0  0  0  0  0  0  0  0  0  0
   49.1170   32.6990   37.6370 C   0  0  0  0  0  0  0  0  0  0  0  0
   47.9780   32.4610   38.6720 C   0  0  0  0  0  0  0  0  0  0  0  0
   46.9090   33.0910   38.0480 C   0  0  1  0  0  0  0  0  0  0  0  0
   46.9820   33.8610   41.0020 C   0  0  0  0  0  0  0  0  0  0  0  0
   46.6810   34.9800   42.0000 C   0  0  0  0  0  0  0  0  0  0  0  0
   47.2710   33.3140   43.6340 C   0  0  0  0  0  0  0  0  0  0  0  0
   46.5130   34.4110   43.3040 C   0  0  0  0  0  0  0  0  0  0  0  0
   45.6130   34.8740   44.2450 C   0  0  0  0  0  0  0  0  0  0  0  0
   45.5130   34.2360   45.4390 N   0  0  0  0  0  0  0  0  0  0  0  0
   46.2610   33.1680   45.7350 C   0  0  0  0  0  0  0  0  0  0  0  0
   47.1440   32.7040   44.8320 N   0  0  0  0  0  0  0  0  0  0  0  0
   46.0700   32.5430   47.0630 C   0  0  0  0  0  0  0  0  0  0  0  0
   44.9430   33.0700   47.6710 F   0  0  0  0  0  0  0  0  0  0  0  0
   45.7580   31.1980   46.8020 F   0  0  0  0  0  0  0  0  0  0  0  0
   47.2100   32.6360   47.8350 F   0  0  0  0  0  0  0  0  0  0  0  0
   44.7700   36.0190   44.0140 C   0  0  0  0  0  0  0  0  0  0  0  0
   44.8480   37.2610   44.0560 O   0  0  0  0  0  0  0  0  0  0  0  0
   44.2310   33.9292   41.6742 H   0  0  0  0  0  0  0  0  0  0  0  0
   44.0497   32.9031   37.5408 H   0  0  0  0  0  0  0  0  0  0  0  0
   46.6977   34.5362   36.6215 H   0  0  0  0  0  0  0  0  0  0  0  0
   48.4854   33.5301   35.7783 H   0  0  0  0  0  0  0  0  0  0  0  0
   49.3385   34.6748   36.8537 H   0  0  0  0  0  0  0  0  0  0  0  0
   49.2696   31.8088   37.0091 H   0  0  0  0  0  0  0  0  0  0  0  0
   50.0892   32.9019   38.1099 H   0  0  0  0  0  0  0  0  0  0  0  0
   47.7840   31.3881   38.8180 H   0  0  0  0  0  0  0  0  0  0  0  0
   48.1987   32.8403   39.6807 H   0  0  0  0  0  0  0  0  0  0  0  0
   46.5314   32.3928   37.2865 H   0  0  0  0  0  0  0  0  0  0  0  0
   47.2477   32.9456   41.5510 H   0  0  0  0  0  0  0  0  0  0  0  0
   47.8198   34.1680   40.3587 H   0  0  0  0  0  0  0  0  0  0  0  0
   47.5166   35.6952   42.0148 H   0  0  0  0  0  0  0  0  0  0  0  0
   45.7610   35.5047   41.7028 H   0  0  0  0  0  0  0  0  0  0  0  0
   47.9976   32.9238   42.9062 H   0  0  0  0  0  0  0  0  0  0  0  0
   43.7606   35.7033   43.7116 H   0  0  0  0  0  0  0  0  0  0  0  0
  1  2  2  0
  1 11  1  0
  3  2  1  0
  4  5  1  0
  4  3  2  0
  5  1  1  0
  6 10  1  0
  7  6  1  0
  7  8  1  0
  8  9  1  0
 10  9  1  0
 10  5  1  0
 11 12  1  0
 12 14  1  0
 13 18  2  0
 14 13  1  0
 14 15  2  0
 15 16  1  0
 16 17  2  0
 17 19  1  0
 18 17  1  0
 19 20  1  0
 19 22  1  0
 21 19  1  0
 23 24  2  0
 23 15  1  0
  2 25  1  0
  4 26  1  0
  6 27  1  0
  7 28  1  0
  7 29  1  0
  8 30  1  0
  8 31  1  0
  9 32  1  0
  9 33  1  0
 10 34  1  6
 11 35  1  0
 11 36  1  0
 12 37  1  0
 12 38  1  0
 13 39  1  0
 23 40  1  0
M  ISO  8  25  14  26  14  27   5  28  13  29  13  30  13  31  13  32  13
M  ISO  8  33  13  34  13  35   8  36   8  37   8  38   8  39  14  40   6
M  END
>  <minimizedAffinity>  (1) 
-5.42143869

>  <minimizedRMSD>  (1) 
0.290205151

$$$$
