
     RDKit          3D

 50 53  0  0  1  0  0  0  0  0999 V2000
   48.0250   34.3890   39.9160 C   0  0  0  0  0  0  0  0  0  0  0  0
   48.4520   33.7640   38.6640 C   0  0  0  0  0  0  0  0  0  0  0  0
   48.1750   34.2890   37.4380 C   0  0  0  0  0  0  0  0  0  0  0  0
   48.7260   33.4920   36.5210 N   0  0  0  0  0  0  0  0  0  0  0  0
   49.3390   32.4860   37.1410 C   0  0  0  0  0  0  0  0  0  0  0  0
   49.1690   32.6550   38.4620 N   0  0  0  0  0  0  0  0  0  0  0  0
   50.3880   32.4880   40.5510 N   0  0  0  0  0  0  0  0  0  0  0  0
   50.5070   31.4890   41.5820 C   0  0  0  0  0  0  0  0  0  0  0  0
   49.4000   30.5100   41.4060 C   0  0  0  0  0  0  0  0  0  0  0  0
   48.6540   31.0160   40.1400 C   0  0  0  0  0  0  0  0  0  0  0  0
   49.6300   31.8170   39.5510 C   0  0  1  0  0  0  0  0  0  0  0  0
   46.5470   34.1070   40.1720 C   0  0  0  0  0  0  0  0  0  0  0  0
   47.3950   33.6160   42.3900 C   0  0  0  0  0  0  0  0  0  0  0  0
   46.3410   33.9850   41.5950 C   0  0  0  0  0  0  0  0  0  0  0  0
   45.1150   34.1900   42.1980 C   0  0  0  0  0  0  0  0  0  0  0  0
   45.0090   34.0140   43.5410 N   0  0  0  0  0  0  0  0  0  0  0  0
   46.0550   33.6490   44.2970 C   0  0  0  0  0  0  0  0  0  0  0  0
   47.2400   33.4540   43.7110 N   0  0  0  0  0  0  0  0  0  0  0  0
   43.9420   34.6120   41.5160 N   0  0  0  0  0  0  0  0  0  0  0  0
   43.0430   35.6600   41.1400 C   0  0  0  0  0  0  0  0  0  0  0  0
   41.7050   35.1610   41.7140 C   0  0  0  0  0  0  0  0  0  0  0  0
   41.8110   33.6560   41.4270 C   0  0  0  0  0  0  0  0  0  0  0  0
   43.2000   33.5490   40.8130 C   0  0  0  0  0  0  0  0  0  0  0  0
   45.8330   33.4820   45.7510 C   0  0  0  0  0  0  0  0  0  0  0  0
   44.8880   34.4000   46.1810 F   0  0  0  0  0  0  0  0  0  0  0  0
   45.2390   32.2270   45.8920 F   0  0  0  0  0  0  0  0  0  0  0  0
   47.0210   33.5500   46.4530 F   0  0  0  0  0  0  0  0  0  0  0  0
   48.1810   35.4759   39.8506 H   0  0  0  0  0  0  0  0  0  0  0  0
   48.6173   33.9723   40.7440 H   0  0  0  0  0  0  0  0  0  0  0  0
   47.6001   35.2056   37.2397 H   0  0  0  0  0  0  0  0  0  0  0  0
   49.8867   31.6636   36.6576 H   0  0  0  0  0  0  0  0  0  0  0  0
   49.8912   33.3213   40.8969 H   0  0  0  0  0  0  0  0  0  0  0  0
   51.4761   30.9760   41.4942 H   0  0  0  0  0  0  0  0  0  0  0  0
   50.4477   31.9573   42.5756 H   0  0  0  0  0  0  0  0  0  0  0  0
   49.7955   29.4957   41.2484 H   0  0  0  0  0  0  0  0  0  0  0  0
   48.7454   30.4456   42.2877 H   0  0  0  0  0  0  0  0  0  0  0  0
   48.3658   30.1827   39.4822 H   0  0  0  0  0  0  0  0  0  0  0  0
   47.7095   31.5385   40.3519 H   0  0  0  0  0  0  0  0  0  0  0  0
   50.3191   31.1436   39.0203 H   0  0  0  0  0  0  0  0  0  0  0  0
   45.9384   34.9348   39.7791 H   0  0  0  0  0  0  0  0  0  0  0  0
   46.2495   33.1755   39.6682 H   0  0  0  0  0  0  0  0  0  0  0  0
   48.3833   33.4503   41.9364 H   0  0  0  0  0  0  0  0  0  0  0  0
   43.3376   36.6192   41.5908 H   0  0  0  0  0  0  0  0  0  0  0  0
   43.0154   35.8512   40.0571 H   0  0  0  0  0  0  0  0  0  0  0  0
   41.6270   35.3628   42.7925 H   0  0  0  0  0  0  0  0  0  0  0  0
   40.8162   35.6450   41.2830 H   0  0  0  0  0  0  0  0  0  0  0  0
   41.7364   33.0662   42.3525 H   0  0  0  0  0  0  0  0  0  0  0  0
   41.0090   33.2698   40.7807 H   0  0  0  0  0  0  0  0  0  0  0  0
   43.6442   32.5610   41.0041 H   0  0  0  0  0  0  0  0  0  0  0  0
   43.2056   33.6602   39.7187 H   0  0  0  0  0  0  0  0  0  0  0  0
  1 12  1  0
  2  1  1  0
  3  2  2  0
  4  5  2  0
  4  3  1  0
  5  6  1  0
  6  2  1  0
  6 11  1  0
  7  8  1  0
  9  8  1  0
 10  9  1  0
 11 10  1  0
 11  7  1  0
 12 14  1  0
 13 18  2  0
 14 15  2  0
 14 13  1  0
 15 16  1  0
 16 17  2  0
 17 24  1  0
 18 17  1  0
 19 15  1  0
 20 19  1  0
 20 21  1  0
 22 21  1  0
 23 22  1  0
 23 19  1  0
 24 26  1  0
 24 25  1  0
 24 27  1  0
  1 28  1  0
  1 29  1  0
  3 30  1  0
  5 31  1  0
  7 32  1  0
  8 33  1  0
  8 34  1  0
  9 35  1  0
  9 36  1  0
 10 37  1  0
 10 38  1  0
 11 39  1  6
 12 40  1  0
 12 41  1  0
 13 42  1  0
 20 43  1  0
 20 44  1  0
 21 45  1  0
 21 46  1  0
 22 47  1  0
 22 48  1  0
 23 49  1  0
 23 50  1  0
M  ISO  8  28   8  29   8  30  14  31  14  32   5  33  13  34  13  35  13
M  ISO  8  36  13  37  13  38  13  39  13  40   8  41   8  42  14  43  13
M  ISO  7  44  13  45  13  46  13  47  13  48  13  49  13  50  13
M  END
>  <minimizedAffinity>  (1) 
-5.25195026

>  <minimizedRMSD>  (1) 
3.19867849

$$$$
