
     RDKit          3D

 31 34  0  0  0  0  0  0  0  0999 V2000
   46.6330   34.6710   41.9220 C   0  0  0  0  0  0  0  0  0  0  0  0
   47.8720   35.1640   41.5870 C   0  0  0  0  0  0  0  0  0  0  0  0
   48.4200   34.9100   40.3730 C   0  0  0  0  0  0  0  0  0  0  0  0
   47.5810   34.0880   39.5010 C   0  0  0  0  0  0  0  0  0  0  0  0
   46.0840   33.7710   40.5370 S   0  0  0  0  0  0  0  0  0  0  0  0
   47.8360   33.6440   38.2030 N   0  0  0  0  0  0  0  0  0  0  0  0
   48.9580   33.6680   37.4550 C   0  0  0  0  0  0  0  0  0  0  0  0
   48.6490   33.1020   36.2580 N   0  0  0  0  0  0  0  0  0  0  0  0
   47.3580   32.7310   36.2530 C   0  0  0  0  0  0  0  0  0  0  0  0
   46.5970   32.1240   35.2750 C   0  0  0  0  0  0  0  0  0  0  0  0
   47.0330   31.8010   34.1500 O   0  0  0  0  0  0  0  0  0  0  0  0
   45.3000   31.8500   35.5190 N   0  0  0  0  0  0  0  0  0  0  0  0
   44.8130   32.1930   36.7300 C   0  0  0  0  0  0  0  0  0  0  0  0
   43.4390   31.9070   37.0000 N   0  0  0  0  0  0  0  0  0  0  0  0
   45.5240   32.7850   37.7060 N   0  0  0  0  0  0  0  0  0  0  0  0
   46.8370   33.0770   37.4980 C   0  0  0  0  0  0  0  0  0  0  0  0
   44.5230   35.9810   44.7400 C   0  0  0  0  0  0  0  0  0  0  0  0
   45.1180   35.9330   43.4650 C   0  0  0  0  0  0  0  0  0  0  0  0
   45.9490   34.8690   43.1670 C   0  0  0  0  0  0  0  0  0  0  0  0
   46.1460   33.9330   44.1140 N   0  0  0  0  0  0  0  0  0  0  0  0
   45.5730   33.9900   45.3250 C   0  0  0  0  0  0  0  0  0  0  0  0
   44.7580   35.0150   45.6430 N   0  0  0  0  0  0  0  0  0  0  0  0
   48.4272   35.7738   42.3150 H   0  0  0  0  0  0  0  0  0  0  0  0
   49.4076   35.2884   40.0707 H   0  0  0  0  0  0  0  0  0  0  0  0
   49.9370   34.0692   37.7561 H   0  0  0  0  0  0  0  0  0  0  0  0
   44.7051   31.3975   34.8104 H   0  0  0  0  0  0  0  0  0  0  0  0
   43.0313   32.1540   37.9131 H   0  0  0  0  0  0  0  0  0  0  0  0
   42.8565   31.4539   36.2815 H   0  0  0  0  0  0  0  0  0  0  0  0
   43.8587   36.8185   44.9994 H   0  0  0  0  0  0  0  0  0  0  0  0
   44.9264   36.7229   42.7238 H   0  0  0  0  0  0  0  0  0  0  0  0
   45.7690   33.1970   46.0617 H   0  0  0  0  0  0  0  0  0  0  0  0
  1 19  1  0
  2  1  2  0
  3  2  1  0
  4  3  2  0
  4  5  1  0
  5  1  1  0
  6  4  1  0
  7  6  1  0
  8  7  2  0
  9  8  1  0
  9 16  2  0
 10 12  1  0
 10  9  1  0
 11 10  2  0
 12 13  1  0
 13 14  1  0
 13 15  2  0
 16 15  1  0
 16  6  1  0
 17 22  2  0
 18 17  1  0
 19 18  2  0
 19 20  1  0
 20 21  2  0
 21 22  1  0
  2 23  1  0
  3 24  1  0
  7 25  1  0
 12 26  1  0
 14 27  1  0
 14 28  1  0
 17 29  1  0
 18 30  1  0
 21 31  1  0
M  ISO  7  23  14  24  14  25  14  26   9  29  14  30  14  31  14
M  END
>  <minimizedAffinity>  (1) 
-6.2370615

>  <minimizedRMSD>  (1) 
0.65651232

$$$$
