
     RDKit          3D

 30 33  0  0  0  0  0  0  0  0999 V2000
   46.8080   34.7700   42.1550 C   0  0  0  0  0  0  0  0  0  0  0  0
   47.9790   35.4310   41.8670 C   0  0  0  0  0  0  0  0  0  0  0  0
   48.6340   35.1830   40.7100 C   0  0  0  0  0  0  0  0  0  0  0  0
   47.9880   34.1820   39.8440 C   0  0  0  0  0  0  0  0  0  0  0  0
   46.4950   33.7100   40.8090 S   0  0  0  0  0  0  0  0  0  0  0  0
   44.4460   35.9840   44.8080 C   0  0  0  0  0  0  0  0  0  0  0  0
   45.1270   35.9710   43.5790 C   0  0  0  0  0  0  0  0  0  0  0  0
   46.0220   34.9410   43.3460 C   0  0  0  0  0  0  0  0  0  0  0  0
   46.1960   33.9990   44.3130 N   0  0  0  0  0  0  0  0  0  0  0  0
   45.5390   34.0260   45.4780 C   0  0  0  0  0  0  0  0  0  0  0  0
   44.6580   35.0230   45.7310 N   0  0  0  0  0  0  0  0  0  0  0  0
   48.3950   33.7000   38.5960 N   0  0  0  0  0  0  0  0  0  0  0  0
   48.0760   34.2990   37.4110 C   0  0  0  0  0  0  0  0  0  0  0  0
   48.6120   33.5990   36.3960 N   0  0  0  0  0  0  0  0  0  0  0  0
   49.2640   32.5680   36.9290 C   0  0  0  0  0  0  0  0  0  0  0  0
   50.0080   31.5010   36.4650 C   0  0  0  0  0  0  0  0  0  0  0  0
   50.5820   30.5610   37.2530 N   0  0  0  0  0  0  0  0  0  0  0  0
   50.4190   30.6670   38.6030 C   0  0  0  0  0  0  0  0  0  0  0  0
   49.7020   31.6890   39.1040 N   0  0  0  0  0  0  0  0  0  0  0  0
   49.1490   32.5990   38.3090 C   0  0  0  0  0  0  0  0  0  0  0  0
   50.1970   31.3630   35.0610 N   0  0  0  0  0  0  0  0  0  0  0  0
   48.3843   36.1639   42.5801 H   0  0  0  0  0  0  0  0  0  0  0  0
   49.5727   35.6878   40.4379 H   0  0  0  0  0  0  0  0  0  0  0  0
   43.7288   36.7904   45.0210 H   0  0  0  0  0  0  0  0  0  0  0  0
   44.9544   36.7542   42.8261 H   0  0  0  0  0  0  0  0  0  0  0  0
   45.7138   33.2408   46.2282 H   0  0  0  0  0  0  0  0  0  0  0  0
   47.4735   35.2131   37.3035 H   0  0  0  0  0  0  0  0  0  0  0  0
   50.8700   29.9232   39.2763 H   0  0  0  0  0  0  0  0  0  0  0  0
   50.7480   30.5756   34.6905 H   0  0  0  0  0  0  0  0  0  0  0  0
   49.7828   32.0505   34.4156 H   0  0  0  0  0  0  0  0  0  0  0  0
  1  8  1  0
  2  1  2  0
  3  2  1  0
  4  3  2  0
  4  5  1  0
  5  1  1  0
  6 11  2  0
  7  6  1  0
  8  7  2  0
  8  9  1  0
  9 10  2  0
 10 11  1  0
 12  4  1  0
 13 12  1  0
 14 15  1  0
 14 13  2  0
 15 20  2  0
 16 15  1  0
 16 17  2  0
 17 18  1  0
 18 19  2  0
 20 12  1  0
 20 19  1  0
 21 16  1  0
  2 22  1  0
  3 23  1  0
  6 24  1  0
  7 25  1  0
 10 26  1  0
 13 27  1  0
 18 28  1  0
 21 29  1  0
 21 30  1  0
M  ISO  7  22  14  23  14  24  14  25  14  26  14  27  14  28  14
M  END
>  <minimizedAffinity>  (1) 
-6.10266304

>  <minimizedRMSD>  (1) 
0.775835335

$$$$
