
     RDKit          3D

 51 54  0  0  1  0  0  0  0  0999 V2000
   47.8790   31.7170   40.6270 C   0  0  0  0  0  0  0  0  0  0  0  0
   46.5600   31.6180   40.0120 C   0  0  0  0  0  0  0  0  0  0  0  0
   45.5050   31.0170   40.6260 C   0  0  0  0  0  0  0  0  0  0  0  0
   44.4480   31.1150   39.8100 N   0  0  0  0  0  0  0  0  0  0  0  0
   44.8190   31.7580   38.7100 C   0  0  0  0  0  0  0  0  0  0  0  0
   46.1190   32.0680   38.8330 N   0  0  0  0  0  0  0  0  0  0  0  0
   47.2750   34.1090   38.2200 N   0  0  0  0  0  0  0  0  0  0  0  0
   48.2940   34.4510   37.2670 C   0  0  0  0  0  0  0  0  0  0  0  0
   48.9420   33.1890   36.8110 C   0  0  0  0  0  0  0  0  0  0  0  0
   48.1500   32.0750   37.5500 C   0  0  0  0  0  0  0  0  0  0  0  0
   46.9820   32.7540   37.8940 C   0  0  1  0  0  0  0  0  0  0  0  0
   48.0760   33.0800   41.2670 C   0  0  0  0  0  0  0  0  0  0  0  0
   48.0340   32.0560   43.4620 C   0  0  0  0  0  0  0  0  0  0  0  0
   47.5880   33.0400   42.6120 C   0  0  0  0  0  0  0  0  0  0  0  0
   46.6530   33.9440   43.0870 C   0  0  0  0  0  0  0  0  0  0  0  0
   46.2220   33.8090   44.3630 N   0  0  0  0  0  0  0  0  0  0  0  0
   46.6730   32.8330   45.1720 C   0  0  0  0  0  0  0  0  0  0  0  0
   47.5920   31.9410   44.7220 N   0  0  0  0  0  0  0  0  0  0  0  0
   46.0970   35.0700   42.3100 C   0  0  0  0  0  0  0  0  0  0  0  0
   45.1010   34.6640   41.2840 C   0  0  0  0  0  0  0  0  0  0  0  0
   43.8090   35.4080   41.5440 C   0  0  0  0  0  0  0  0  0  0  0  0
   43.8980   35.7860   43.0070 C   0  0  0  0  0  0  0  0  0  0  0  0
   45.3700   36.0560   43.2160 C   0  0  0  0  0  0  0  0  0  0  0  0
   46.1290   32.7690   46.5480 C   0  0  0  0  0  0  0  0  0  0  0  0
   45.0940   33.6790   46.6830 F   0  0  0  0  0  0  0  0  0  0  0  0
   45.5130   31.5090   46.6520 F   0  0  0  0  0  0  0  0  0  0  0  0
   47.1210   32.9130   47.4950 F   0  0  0  0  0  0  0  0  0  0  0  0
   48.6486   31.5664   39.8556 H   0  0  0  0  0  0  0  0  0  0  0  0
   47.9623   30.9463   41.4074 H   0  0  0  0  0  0  0  0  0  0  0  0
   45.5181   30.5367   41.6155 H   0  0  0  0  0  0  0  0  0  0  0  0
   44.1753   31.9949   37.8500 H   0  0  0  0  0  0  0  0  0  0  0  0
   47.6264   34.1911   39.1847 H   0  0  0  0  0  0  0  0  0  0  0  0
   47.8428   34.9700   36.4085 H   0  0  0  0  0  0  0  0  0  0  0  0
   49.0384   35.1176   37.7269 H   0  0  0  0  0  0  0  0  0  0  0  0
   48.8529   33.0750   35.7206 H   0  0  0  0  0  0  0  0  0  0  0  0
   50.0194   33.1613   37.0313 H   0  0  0  0  0  0  0  0  0  0  0  0
   47.9401   31.2226   36.8872 H   0  0  0  0  0  0  0  0  0  0  0  0
   48.6835   31.6339   38.4048 H   0  0  0  0  0  0  0  0  0  0  0  0
   46.3453   32.7672   36.9971 H   0  0  0  0  0  0  0  0  0  0  0  0
   49.1462   33.3341   41.2707 H   0  0  0  0  0  0  0  0  0  0  0  0
   47.5253   33.8414   40.6951 H   0  0  0  0  0  0  0  0  0  0  0  0
   48.7809   31.3368   43.0946 H   0  0  0  0  0  0  0  0  0  0  0  0
   46.9760   35.5131   41.8190 H   0  0  0  0  0  0  0  0  0  0  0  0
   44.9238   33.5802   41.3480 H   0  0  0  0  0  0  0  0  0  0  0  0
   45.4775   34.9048   40.2789 H   0  0  0  0  0  0  0  0  0  0  0  0
   43.7391   36.3050   40.9111 H   0  0  0  0  0  0  0  0  0  0  0  0
   42.9177   34.8059   41.3137 H   0  0  0  0  0  0  0  0  0  0  0  0
   43.3002   36.6851   43.2173 H   0  0  0  0  0  0  0  0  0  0  0  0
   43.5082   35.0036   43.6748 H   0  0  0  0  0  0  0  0  0  0  0  0
   45.6463   35.8878   44.2674 H   0  0  0  0  0  0  0  0  0  0  0  0
   45.6317   37.0978   42.9788 H   0  0  0  0  0  0  0  0  0  0  0  0
  1 12  1  0
  2  3  2  0
  2  1  1  0
  4  3  1  0
  5  6  1  0
  5  4  2  0
  6  2  1  0
  8  7  1  0
  9  8  1  0
  9 10  1  0
 10 11  1  0
 11  7  1  0
 11  6  1  0
 12 14  1  0
 13 18  2  0
 14 15  2  0
 14 13  1  0
 15 16  1  0
 16 17  2  0
 17 24  1  0
 18 17  1  0
 19 15  1  0
 19 23  1  0
 20 21  1  0
 20 19  1  0
 21 22  1  0
 22 23  1  0
 24 26  1  0
 24 25  1  0
 24 27  1  0
  1 28  1  0
  1 29  1  0
  3 30  1  0
  5 31  1  0
  7 32  1  0
  8 33  1  0
  8 34  1  0
  9 35  1  0
  9 36  1  0
 10 37  1  0
 10 38  1  0
 11 39  1  6
 12 40  1  0
 12 41  1  0
 13 42  1  0
 19 43  1  0
 20 44  1  0
 20 45  1  0
 21 46  1  0
 21 47  1  0
 22 48  1  0
 22 49  1  0
 23 50  1  0
 23 51  1  0
M  ISO  8  28   8  29   8  30  14  31  14  32   5  33  13  34  13  35  13
M  ISO  8  36  13  37  13  38  13  39  13  40   8  41   8  42  14  43  13
M  ISO  8  44  13  45  13  46  13  47  13  48  13  49  13  50  13  51  13
M  END
>  <minimizedAffinity>  (1) 
-5.14823008

>  <minimizedRMSD>  (1) 
1.89443982

$$$$
