
     RDKit          3D

 31 34  0  0  0  0  0  0  0  0999 V2000
   46.5620   34.6540   42.0400 C   0  0  0  0  0  0  0  0  0  0  0  0
   47.8150   35.0950   41.6960 C   0  0  0  0  0  0  0  0  0  0  0  0
   48.3280   34.8340   40.4660 C   0  0  0  0  0  0  0  0  0  0  0  0
   47.4620   34.0780   39.5960 C   0  0  0  0  0  0  0  0  0  0  0  0
   46.0100   33.8300   40.6380 S   0  0  0  0  0  0  0  0  0  0  0  0
   47.4800   33.6150   38.2630 C   0  0  0  0  0  0  0  0  0  0  0  0
   48.6330   33.7690   37.5450 N   0  0  0  0  0  0  0  0  0  0  0  0
   48.8390   33.2990   36.3280 C   0  0  0  0  0  0  0  0  0  0  0  0
   47.8900   32.6120   35.6900 N   0  0  0  0  0  0  0  0  0  0  0  0
   46.6840   32.3790   36.2790 C   0  0  0  0  0  0  0  0  0  0  0  0
   45.6680   31.7020   35.6430 C   0  0  0  0  0  0  0  0  0  0  0  0
   44.4460   31.5150   36.2510 C   0  0  0  0  0  0  0  0  0  0  0  0
   44.3080   32.0520   37.5370 C   0  0  0  0  0  0  0  0  0  0  0  0
   45.3500   32.7200   38.1340 C   0  0  0  0  0  0  0  0  0  0  0  0
   46.5720   32.9040   37.5280 C   0  0  0  0  0  0  0  0  0  0  0  0
   44.4800   35.9890   44.8550 C   0  0  0  0  0  0  0  0  0  0  0  0
   45.0550   35.9380   43.5690 C   0  0  0  0  0  0  0  0  0  0  0  0
   45.8950   34.8490   43.2810 C   0  0  0  0  0  0  0  0  0  0  0  0
   46.1030   33.9210   44.2400 N   0  0  0  0  0  0  0  0  0  0  0  0
   45.5470   33.9930   45.4500 C   0  0  0  0  0  0  0  0  0  0  0  0
   44.7350   35.0180   45.7710 N   0  0  0  0  0  0  0  0  0  0  0  0
   48.4101   35.6658   42.4240 H   0  0  0  0  0  0  0  0  0  0  0  0
   49.3277   35.1734   40.1572 H   0  0  0  0  0  0  0  0  0  0  0  0
   49.8057   33.4764   35.8340 H   0  0  0  0  0  0  0  0  0  0  0  0
   45.8348   31.3033   34.6315 H   0  0  0  0  0  0  0  0  0  0  0  0
   43.6260   30.9750   35.7550 H   0  0  0  0  0  0  0  0  0  0  0  0
   43.3553   31.9379   38.0750 H   0  0  0  0  0  0  0  0  0  0  0  0
   45.2003   33.1272   39.1448 H   0  0  0  0  0  0  0  0  0  0  0  0
   43.8165   36.8253   45.1205 H   0  0  0  0  0  0  0  0  0  0  0  0
   44.8542   36.7192   42.8211 H   0  0  0  0  0  0  0  0  0  0  0  0
   45.7536   33.2081   46.1924 H   0  0  0  0  0  0  0  0  0  0  0  0
  1 18  1  0
  2  1  2  0
  3  2  1  0
  4  3  2  0
  4  5  1  0
  5  1  1  0
  6  4  1  0
  7  6  2  0
  8  7  1  0
  9 10  1  0
  9  8  2  0
 10 15  2  0
 11 12  2  0
 11 10  1  0
 12 13  1  0
 13 14  2  0
 15 14  1  0
 15  6  1  0
 16 21  2  0
 17 16  1  0
 18 17  2  0
 18 19  1  0
 19 20  2  0
 20 21  1  0
  2 22  1  0
  3 23  1  0
  8 24  1  0
 11 25  1  0
 12 26  1  0
 13 27  1  0
 14 28  1  0
 16 29  1  0
 17 30  1  0
 20 31  1  0
M  ISO  8  22  14  23  14  24  14  25  14  26  14  27  14  28  14  29  14
M  ISO  2  30  14  31  14
M  END
>  <minimizedAffinity>  (1) 
-5.8088665

>  <minimizedRMSD>  (1) 
0.654284894

$$$$
