
     RDKit          3D

 23 25  0  0  0  0  0  0  0  0999 V2000
   46.7950   34.7490   42.1610 C   0  0  0  0  0  0  0  0  0  0  0  0
   47.9850   35.3720   41.8720 C   0  0  0  0  0  0  0  0  0  0  0  0
   48.6130   35.1530   40.6940 C   0  0  0  0  0  0  0  0  0  0  0  0
   47.9110   34.2210   39.8090 C   0  0  0  0  0  0  0  0  0  0  0  0
   46.4150   33.7680   40.7930 S   0  0  0  0  0  0  0  0  0  0  0  0
   44.4480   35.9750   44.8380 C   0  0  0  0  0  0  0  0  0  0  0  0
   45.1270   35.9480   43.6100 C   0  0  0  0  0  0  0  0  0  0  0  0
   46.0330   34.9030   43.3680 C   0  0  0  0  0  0  0  0  0  0  0  0
   46.2090   33.9790   44.3230 N   0  0  0  0  0  0  0  0  0  0  0  0
   45.5540   34.0170   45.4920 C   0  0  0  0  0  0  0  0  0  0  0  0
   44.6810   35.0000   45.7570 N   0  0  0  0  0  0  0  0  0  0  0  0
   48.3080   33.7860   38.5100 N   0  0  0  0  0  0  0  0  0  0  0  0
   48.1340   34.3310   37.2910 C   0  0  0  0  0  0  0  0  0  0  0  0
   48.6860   33.5560   36.3430 N   0  0  0  0  0  0  0  0  0  0  0  0
   49.2180   32.5020   36.9890 C   0  0  0  0  0  0  0  0  0  0  0  0
   48.9750   32.6660   38.3020 N   0  0  0  0  0  0  0  0  0  0  0  0
   48.4324   36.0570   42.6073 H   0  0  0  0  0  0  0  0  0  0  0  0
   49.5659   35.6322   40.4249 H   0  0  0  0  0  0  0  0  0  0  0  0
   43.7312   36.7804   45.0560 H   0  0  0  0  0  0  0  0  0  0  0  0
   44.9533   36.7280   42.8541 H   0  0  0  0  0  0  0  0  0  0  0  0
   45.7346   33.2331   46.2423 H   0  0  0  0  0  0  0  0  0  0  0  0
   47.6119   35.2798   37.0982 H   0  0  0  0  0  0  0  0  0  0  0  0
   49.7540   31.6596   36.5274 H   0  0  0  0  0  0  0  0  0  0  0  0
  1  8  1  0
  2  1  2  0
  3  2  1  0
  4  3  2  0
  4  5  1  0
  5  1  1  0
  6 11  2  0
  7  6  1  0
  8  7  2  0
  8  9  1  0
  9 10  2  0
 10 11  1  0
 12  4  1  0
 13 12  1  0
 14 15  1  0
 14 13  2  0
 15 16  2  0
 16 12  1  0
  2 17  1  0
  3 18  1  0
  6 19  1  0
  7 20  1  0
 10 21  1  0
 13 22  1  0
 15 23  1  0
M  ISO  7  17  14  18  14  19  14  20  14  21  14  22  14  23  14
M  END
>  <minimizedAffinity>  (1) 
-5.3647356

>  <minimizedRMSD>  (1) 
0.202032402

$$$$
