
     RDKit          3D

 24 26  0  0  0  0  0  0  0  0999 V2000
   46.7930   34.7280   42.1460 C   0  0  0  0  0  0  0  0  0  0  0  0
   47.9670   35.3700   41.8410 C   0  0  0  0  0  0  0  0  0  0  0  0
   48.6120   35.1280   40.6720 C   0  0  0  0  0  0  0  0  0  0  0  0
   47.9330   34.1460   39.8170 C   0  0  0  0  0  0  0  0  0  0  0  0
   46.4500   33.6950   40.8100 S   0  0  0  0  0  0  0  0  0  0  0  0
   44.4540   36.0150   44.8080 C   0  0  0  0  0  0  0  0  0  0  0  0
   45.1380   35.9740   43.5650 C   0  0  0  0  0  0  0  0  0  0  0  0
   46.0250   34.9080   43.3490 C   0  0  0  0  0  0  0  0  0  0  0  0
   46.1800   33.9900   44.3170 N   0  0  0  0  0  0  0  0  0  0  0  0
   45.5230   34.0480   45.4830 C   0  0  0  0  0  0  0  0  0  0  0  0
   44.6600   35.0600   45.7270 N   0  0  0  0  0  0  0  0  0  0  0  0
   48.3430   33.6860   38.5580 N   0  0  0  0  0  0  0  0  0  0  0  0
   49.0460   32.5700   38.4050 N   0  0  0  0  0  0  0  0  0  0  0  0
   49.2450   32.4670   37.0660 C   0  0  0  0  0  0  0  0  0  0  0  0
   48.6550   33.5290   36.4110 C   0  0  0  0  0  0  0  0  0  0  0  0
   48.0730   34.3120   37.4070 C   0  0  0  0  0  0  0  0  0  0  0  0
   48.3914   36.0914   42.5548 H   0  0  0  0  0  0  0  0  0  0  0  0
   49.5545   35.6209   40.3913 H   0  0  0  0  0  0  0  0  0  0  0  0
   43.7511   36.8345   45.0188 H   0  0  0  0  0  0  0  0  0  0  0  0
   44.9789   36.7483   42.8000 H   0  0  0  0  0  0  0  0  0  0  0  0
   45.6860   33.2705   46.2438 H   0  0  0  0  0  0  0  0  0  0  0  0
   49.7976   31.6533   36.5734 H   0  0  0  0  0  0  0  0  0  0  0  0
   48.6459   33.7184   35.3275 H   0  0  0  0  0  0  0  0  0  0  0  0
   47.5102   35.2477   37.2743 H   0  0  0  0  0  0  0  0  0  0  0  0
  1  8  1  0
  2  1  2  0
  3  2  1  0
  4  3  2  0
  4  5  1  0
  5  1  1  0
  6 11  2  0
  7  6  1  0
  8  7  2  0
  8  9  1  0
  9 10  2  0
 10 11  1  0
 12  4  1  0
 13 12  1  0
 14 13  2  0
 15 14  1  0
 15 16  2  0
 16 12  1  0
  2 17  1  0
  3 18  1  0
  6 19  1  0
  7 20  1  0
 10 21  1  0
 14 22  1  0
 15 23  1  0
 16 24  1  0
M  ISO  8  17  14  18  14  19  14  20  14  21  14  22  14  23  14  24  14
M  END
>  <minimizedAffinity>  (1) 
-5.28711081

>  <minimizedRMSD>  (1) 
0.346020371

$$$$
