
     RDKit          3D

 19 20  0  0  0  0  0  0  0  0999 V2000
   46.8430   34.7920   42.0250 C   0  0  0  0  0  0  0  0  0  0  0  0
   48.0570   35.3700   41.7480 C   0  0  0  0  0  0  0  0  0  0  0  0
   48.6770   35.1700   40.5550 C   0  0  0  0  0  0  0  0  0  0  0  0
   47.9390   34.3120   39.6470 C   0  0  0  0  0  0  0  0  0  0  0  0
   46.4420   33.8850   40.5940 S   0  0  0  0  0  0  0  0  0  0  0  0
   44.5010   35.9240   44.7260 C   0  0  0  0  0  0  0  0  0  0  0  0
   45.1680   35.9310   43.4910 C   0  0  0  0  0  0  0  0  0  0  0  0
   46.0830   34.9190   43.2310 C   0  0  0  0  0  0  0  0  0  0  0  0
   46.2830   33.9850   44.1740 N   0  0  0  0  0  0  0  0  0  0  0  0
   45.6470   33.9830   45.3460 C   0  0  0  0  0  0  0  0  0  0  0  0
   44.7500   34.9580   45.6240 N   0  0  0  0  0  0  0  0  0  0  0  0
   48.2570   33.8700   38.3130 C   0  0  0  0  0  0  0  0  0  0  0  0
   48.5270   34.7500   37.4860 O   0  0  0  0  0  0  0  0  0  0  0  0
   48.5370   36.0069   42.5056 H   0  0  0  0  0  0  0  0  0  0  0  0
   49.6492   35.6176   40.3012 H   0  0  0  0  0  0  0  0  0  0  0  0
   43.7712   36.7134   44.9589 H   0  0  0  0  0  0  0  0  0  0  0  0
   44.9711   36.7179   42.7480 H   0  0  0  0  0  0  0  0  0  0  0  0
   45.8503   33.1927   46.0836 H   0  0  0  0  0  0  0  0  0  0  0  0
   48.2596   32.8036   38.0432 H   0  0  0  0  0  0  0  0  0  0  0  0
  1  8  1  0
  2  1  2  0
  3  2  1  0
  4  3  2  0
  4  5  1  0
  5  1  1  0
  6 11  2  0
  7  6  1  0
  8  7  2  0
  8  9  1  0
  9 10  2  0
 10 11  1  0
 12  4  1  0
 13 12  2  0
  2 14  1  0
  3 15  1  0
  6 16  1  0
  7 17  1  0
 10 18  1  0
 12 19  1  0
M  ISO  6  14  14  15  14  16  14  17  14  18  14  19   6
M  END
>  <minimizedAffinity>  (1) 
-4.82347345

>  <minimizedRMSD>  (1) 
0.254326761

$$$$
