
     RDKit          3D

 32 34  0  0  0  0  0  0  0  0999 V2000
   46.8280   34.6100   42.2360 C   0  0  0  0  0  0  0  0  0  0  0  0
   47.9080   35.3620   41.8360 C   0  0  0  0  0  0  0  0  0  0  0  0
   48.5660   35.0650   40.6820 C   0  0  0  0  0  0  0  0  0  0  0  0
   48.0140   33.9070   39.9600 C   0  0  0  0  0  0  0  0  0  0  0  0
   46.6240   33.3920   41.0200 S   0  0  0  0  0  0  0  0  0  0  0  0
   44.4560   35.9610   44.8250 C   0  0  0  0  0  0  0  0  0  0  0  0
   45.1520   35.8870   43.5980 C   0  0  0  0  0  0  0  0  0  0  0  0
   46.0450   34.8220   43.4210 C   0  0  0  0  0  0  0  0  0  0  0  0
   46.1980   33.9300   44.4100 N   0  0  0  0  0  0  0  0  0  0  0  0
   45.5230   34.0240   45.5690 C   0  0  0  0  0  0  0  0  0  0  0  0
   44.6550   35.0330   45.7780 N   0  0  0  0  0  0  0  0  0  0  0  0
   48.5720   33.4680   38.7500 N   0  0  0  0  0  0  0  0  0  0  0  0
   48.3690   34.3770   37.6400 C   0  0  0  0  0  0  0  0  0  0  0  0
   47.8200   33.6640   36.4240 C   0  0  0  0  0  0  0  0  0  0  0  0
   48.7090   32.4840   36.1270 C   0  0  0  0  0  0  0  0  0  0  0  0
   48.6910   31.5330   37.3170 C   0  0  0  0  0  0  0  0  0  0  0  0
   49.3090   32.2450   38.4830 C   0  0  0  0  0  0  0  0  0  0  0  0
   48.2423   36.2092   42.4529 H   0  0  0  0  0  0  0  0  0  0  0  0
   49.4324   35.6388   40.3213 H   0  0  0  0  0  0  0  0  0  0  0  0
   43.7467   36.7829   45.0022 H   0  0  0  0  0  0  0  0  0  0  0  0
   44.9984   36.6386   42.8097 H   0  0  0  0  0  0  0  0  0  0  0  0
   45.6810   33.2699   46.3541 H   0  0  0  0  0  0  0  0  0  0  0  0
   47.6583   35.1590   37.9454 H   0  0  0  0  0  0  0  0  0  0  0  0
   49.3431   34.8116   37.3711 H   0  0  0  0  0  0  0  0  0  0  0  0
   46.7962   33.3168   36.6269 H   0  0  0  0  0  0  0  0  0  0  0  0
   47.7960   34.3473   35.5623 H   0  0  0  0  0  0  0  0  0  0  0  0
   48.3401   31.9611   35.2323 H   0  0  0  0  0  0  0  0  0  0  0  0
   49.7370   32.8313   35.9462 H   0  0  0  0  0  0  0  0  0  0  0  0
   47.6545   31.2529   37.5563 H   0  0  0  0  0  0  0  0  0  0  0  0
   49.2534   30.6166   37.0847 H   0  0  0  0  0  0  0  0  0  0  0  0
   49.2742   31.5950   39.3698 H   0  0  0  0  0  0  0  0  0  0  0  0
   50.3553   32.4912   38.2494 H   0  0  0  0  0  0  0  0  0  0  0  0
  1  8  1  0
  2  1  2  0
  3  2  1  0
  4  3  2  0
  4  5  1  0
  5  1  1  0
  6 11  2  0
  7  6  1  0
  8  7  2  0
  8  9  1  0
  9 10  2  0
 10 11  1  0
 12  4  1  0
 13 12  1  0
 14 13  1  0
 15 14  1  0
 15 16  1  0
 16 17  1  0
 17 12  1  0
  2 18  1  0
  3 19  1  0
  6 20  1  0
  7 21  1  0
 10 22  1  0
 13 23  1  0
 13 24  1  0
 14 25  1  0
 14 26  1  0
 15 27  1  0
 15 28  1  0
 16 29  1  0
 16 30  1  0
 17 31  1  0
 17 32  1  0
M  ISO  8  18  14  19  14  20  14  21  14  22  14  23  13  24  13  25  13
M  ISO  7  26  13  27  13  28  13  29  13  30  13  31  13  32  13
M  END
>  <minimizedAffinity>  (1) 
-5.10222054

>  <minimizedRMSD>  (1) 
1.17839444

$$$$
