
     RDKit          3D

 36 40  0  0  0  0  0  0  0  0999 V2000
   48.2340   33.8980   38.3630 C   0  0  0  0  0  0  0  0  0  0  0  0
   48.2710   34.6150   37.2720 N   0  0  0  0  0  0  0  0  0  0  0  0
   48.7020   33.8170   36.3330 O   0  0  0  0  0  0  0  0  0  0  0  0
   48.9420   32.6050   36.8020 C   0  0  0  0  0  0  0  0  0  0  0  0
   48.6370   32.6770   38.1000 N   0  0  0  0  0  0  0  0  0  0  0  0
   49.4310   31.5850   35.8820 C   0  0  0  0  0  0  0  0  0  0  0  0
   50.0050   30.4520   36.3110 N   0  0  0  0  0  0  0  0  0  0  0  0
   50.4400   29.5400   35.4310 C   0  0  0  0  0  0  0  0  0  0  0  0
   50.3650   29.6370   34.0920 N   0  0  0  0  0  0  0  0  0  0  0  0
   49.7910   30.7710   33.6120 C   0  0  0  0  0  0  0  0  0  0  0  0
   49.6900   30.9160   32.2490 C   0  0  0  0  0  0  0  0  0  0  0  0
   49.1260   32.0260   31.7020 C   0  0  0  0  0  0  0  0  0  0  0  0
   48.6530   33.0110   32.5780 C   0  0  0  0  0  0  0  0  0  0  0  0
   48.7790   32.8150   33.9370 C   0  0  0  0  0  0  0  0  0  0  0  0
   49.3360   31.7220   34.5160 C   0  0  0  0  0  0  0  0  0  0  0  0
   46.7880   34.7380   42.0920 C   0  0  0  0  0  0  0  0  0  0  0  0
   48.0030   35.3030   41.8270 C   0  0  0  0  0  0  0  0  0  0  0  0
   48.6040   35.1080   40.6260 C   0  0  0  0  0  0  0  0  0  0  0  0
   47.8340   34.2760   39.7250 C   0  0  0  0  0  0  0  0  0  0  0  0
   46.3260   33.8530   40.6790 S   0  0  0  0  0  0  0  0  0  0  0  0
   44.4780   35.9200   44.8300 C   0  0  0  0  0  0  0  0  0  0  0  0
   45.1310   35.9180   43.5760 C   0  0  0  0  0  0  0  0  0  0  0  0
   46.0440   34.8680   43.3170 C   0  0  0  0  0  0  0  0  0  0  0  0
   46.2280   33.9540   44.2680 N   0  0  0  0  0  0  0  0  0  0  0  0
   45.6010   33.9750   45.4450 C   0  0  0  0  0  0  0  0  0  0  0  0
   44.7230   34.9570   45.7340 N   0  0  0  0  0  0  0  0  0  0  0  0
   50.9003   28.6291   35.8413 H   0  0  0  0  0  0  0  0  0  0  0  0
   50.0713   30.1218   31.5903 H   0  0  0  0  0  0  0  0  0  0  0  0
   49.0443   32.1458   30.6116 H   0  0  0  0  0  0  0  0  0  0  0  0
   48.1876   33.9280   32.1874 H   0  0  0  0  0  0  0  0  0  0  0  0
   48.3991   33.6047   34.6019 H   0  0  0  0  0  0  0  0  0  0  0  0
   48.4974   35.9199   42.5918 H   0  0  0  0  0  0  0  0  0  0  0  0
   49.5808   35.5398   40.3626 H   0  0  0  0  0  0  0  0  0  0  0  0
   43.7610   36.7194   45.0682 H   0  0  0  0  0  0  0  0  0  0  0  0
   44.9368   36.7027   42.8300 H   0  0  0  0  0  0  0  0  0  0  0  0
   45.8014   33.1861   46.1849 H   0  0  0  0  0  0  0  0  0  0  0  0
  1 19  1  0
  2  1  2  0
  3  4  1  0
  3  2  1  0
  4  5  2  0
  5  1  1  0
  6  7  2  0
  6  4  1  0
  8  7  1  0
  9  8  2  0
 10  9  1  0
 10 15  2  0
 11 10  1  0
 12 11  2  0
 12 13  1  0
 13 14  2  0
 14 15  1  0
 15  6  1  0
 16 23  1  0
 17 16  2  0
 18 17  1  0
 19 18  2  0
 19 20  1  0
 20 16  1  0
 21 26  2  0
 22 21  1  0
 23 22  2  0
 23 24  1  0
 24 25  2  0
 25 26  1  0
  8 27  1  0
 11 28  1  0
 12 29  1  0
 13 30  1  0
 14 31  1  0
 17 32  1  0
 18 33  1  0
 21 34  1  0
 22 35  1  0
 25 36  1  0
M  ISO  8  27  14  28  14  29  14  30  14  31  14  32  14  33  14  34  14
M  ISO  2  35  14  36  14
M  END
>  <minimizedAffinity>  (1) 
-6.96208954

>  <minimizedRMSD>  (1) 
0.740550578

$$$$
