
     RDKit          3D

 22 24  0  0  0  0  0  0  0  0999 V2000
   46.7700   34.7700   42.1310 C   0  0  0  0  0  0  0  0  0  0  0  0
   47.9850   35.3460   41.8550 C   0  0  0  0  0  0  0  0  0  0  0  0
   48.6060   35.1290   40.6700 C   0  0  0  0  0  0  0  0  0  0  0  0
   47.8580   34.2530   39.7740 C   0  0  0  0  0  0  0  0  0  0  0  0
   46.3600   33.8470   40.7350 S   0  0  0  0  0  0  0  0  0  0  0  0
   44.4520   35.9700   44.8450 C   0  0  0  0  0  0  0  0  0  0  0  0
   45.1110   35.9710   43.5910 C   0  0  0  0  0  0  0  0  0  0  0  0
   46.0120   34.9240   43.3410 C   0  0  0  0  0  0  0  0  0  0  0  0
   46.1860   33.9990   44.2970 N   0  0  0  0  0  0  0  0  0  0  0  0
   45.5470   34.0240   45.4750 C   0  0  0  0  0  0  0  0  0  0  0  0
   44.6810   35.0070   45.7490 N   0  0  0  0  0  0  0  0  0  0  0  0
   48.2810   33.8440   38.4300 C   0  0  0  0  0  0  0  0  0  0  0  0
   48.1750   34.5250   37.3020 N   0  0  0  0  0  0  0  0  0  0  0  0
   48.6910   33.7440   36.3750 O   0  0  0  0  0  0  0  0  0  0  0  0
   49.1070   32.6130   36.9060 C   0  0  0  0  0  0  0  0  0  0  0  0
   48.8510   32.6550   38.2410 N   0  0  0  0  0  0  0  0  0  0  0  0
   48.4615   35.9929   42.6063 H   0  0  0  0  0  0  0  0  0  0  0  0
   49.5792   35.5703   40.4090 H   0  0  0  0  0  0  0  0  0  0  0  0
   43.7394   36.7740   45.0812 H   0  0  0  0  0  0  0  0  0  0  0  0
   44.9247   36.7581   42.8455 H   0  0  0  0  0  0  0  0  0  0  0  0
   45.7347   33.2350   46.2181 H   0  0  0  0  0  0  0  0  0  0  0  0
   49.5790   31.7800   36.3645 H   0  0  0  0  0  0  0  0  0  0  0  0
  1  8  1  0
  2  1  2  0
  3  2  1  0
  4  3  2  0
  4  5  1  0
  5  1  1  0
  6 11  2  0
  7  6  1  0
  8  7  2  0
  8  9  1  0
  9 10  2  0
 10 11  1  0
 12  4  1  0
 13 12  2  0
 14 15  1  0
 14 13  1  0
 15 16  2  0
 16 12  1  0
  2 17  1  0
  3 18  1  0
  6 19  1  0
  7 20  1  0
 10 21  1  0
 15 22  1  0
M  ISO  6  17  14  18  14  19  14  20  14  21  14  22  14
M  END
>  <minimizedAffinity>  (1) 
-5.40871525

>  <minimizedRMSD>  (1) 
0.250243336

$$$$
