
     RDKit          3D

 36 40  0  0  0  0  0  0  0  0999 V2000
   46.8010   34.7580   42.0800 C   0  0  0  0  0  0  0  0  0  0  0  0
   48.0190   35.3060   41.8110 C   0  0  0  0  0  0  0  0  0  0  0  0
   48.6080   35.0840   40.6090 C   0  0  0  0  0  0  0  0  0  0  0  0
   47.8420   34.2560   39.7130 C   0  0  0  0  0  0  0  0  0  0  0  0
   46.3400   33.8630   40.6700 S   0  0  0  0  0  0  0  0  0  0  0  0
   44.4840   35.9130   44.8220 C   0  0  0  0  0  0  0  0  0  0  0  0
   45.1400   35.9220   43.5690 C   0  0  0  0  0  0  0  0  0  0  0  0
   46.0450   34.8970   43.3050 C   0  0  0  0  0  0  0  0  0  0  0  0
   46.2360   33.9730   44.2490 N   0  0  0  0  0  0  0  0  0  0  0  0
   45.6020   33.9850   45.4310 C   0  0  0  0  0  0  0  0  0  0  0  0
   44.7280   34.9510   45.7180 N   0  0  0  0  0  0  0  0  0  0  0  0
   48.2410   33.8550   38.3470 C   0  0  0  0  0  0  0  0  0  0  0  0
   48.1280   34.5720   37.2380 N   0  0  0  0  0  0  0  0  0  0  0  0
   48.6150   33.8010   36.2820 O   0  0  0  0  0  0  0  0  0  0  0  0
   49.0140   32.6430   36.7940 C   0  0  0  0  0  0  0  0  0  0  0  0
   48.7770   32.6650   38.1350 N   0  0  0  0  0  0  0  0  0  0  0  0
   49.6090   31.5150   36.0840 C   0  0  0  0  0  0  0  0  0  0  0  0
   50.1290   30.3560   36.6360 C   0  0  0  0  0  0  0  0  0  0  0  0
   50.5680   29.5950   35.6160 N   0  0  0  0  0  0  0  0  0  0  0  0
   50.3540   30.2120   34.4190 C   0  0  0  0  0  0  0  0  0  0  0  0
   50.6650   29.7540   33.1550 C   0  0  0  0  0  0  0  0  0  0  0  0
   50.3420   30.5800   32.0880 C   0  0  0  0  0  0  0  0  0  0  0  0
   49.7390   31.7880   32.3660 C   0  0  0  0  0  0  0  0  0  0  0  0
   49.4360   32.2320   33.6330 C   0  0  0  0  0  0  0  0  0  0  0  0
   49.7510   31.4200   34.7140 C   0  0  0  0  0  0  0  0  0  0  0  0
   48.5235   35.9267   42.5662 H   0  0  0  0  0  0  0  0  0  0  0  0
   49.5896   35.5019   40.3408 H   0  0  0  0  0  0  0  0  0  0  0  0
   43.7632   36.7083   45.0627 H   0  0  0  0  0  0  0  0  0  0  0  0
   44.9422   36.7112   42.8287 H   0  0  0  0  0  0  0  0  0  0  0  0
   45.8040   33.1937   46.1679 H   0  0  0  0  0  0  0  0  0  0  0  0
   50.1747   30.1048   37.7060 H   0  0  0  0  0  0  0  0  0  0  0  0
   51.0071   28.6697   35.7252 H   0  0  0  0  0  0  0  0  0  0  0  0
   51.1475   28.7776   33.0002 H   0  0  0  0  0  0  0  0  0  0  0  0
   50.5603   30.2802   31.0524 H   0  0  0  0  0  0  0  0  0  0  0  0
   49.4828   32.4408   31.5185 H   0  0  0  0  0  0  0  0  0  0  0  0
   48.9546   33.2092   33.7858 H   0  0  0  0  0  0  0  0  0  0  0  0
  1  8  1  0
  2  1  2  0
  3  2  1  0
  4  3  2  0
  4  5  1  0
  5  1  1  0
  6 11  2  0
  7  6  1  0
  8  7  2  0
  8  9  1  0
  9 10  2  0
 10 11  1  0
 12  4  1  0
 13 12  2  0
 14 15  1  0
 14 13  1  0
 15 16  2  0
 16 12  1  0
 17 18  2  0
 17 15  1  0
 19 18  1  0
 20 25  2  0
 20 19  1  0
 21 20  1  0
 22 23  1  0
 22 21  2  0
 23 24  2  0
 24 25  1  0
 25 17  1  0
  2 26  1  0
  3 27  1  0
  6 28  1  0
  7 29  1  0
 10 30  1  0
 18 31  1  0
 19 32  1  0
 21 33  1  0
 22 34  1  0
 23 35  1  0
 24 36  1  0
M  ISO  8  26  14  27  14  28  14  29  14  30  14  31  14  32   9  33  14
M  ISO  3  34  14  35  14  36  14
M  END
>  <minimizedAffinity>  (1) 
-6.43618727

>  <minimizedRMSD>  (1) 
0.209161833

$$$$
