
     RDKit          3D

 34 37  0  0  0  0  0  0  0  0999 V2000
   46.7980   34.7750   42.1030 C   0  0  0  0  0  0  0  0  0  0  0  0
   48.0060   35.3390   41.8280 C   0  0  0  0  0  0  0  0  0  0  0  0
   48.6090   35.1180   40.6370 C   0  0  0  0  0  0  0  0  0  0  0  0
   47.8610   34.2640   39.7480 C   0  0  0  0  0  0  0  0  0  0  0  0
   46.3550   33.8540   40.7060 S   0  0  0  0  0  0  0  0  0  0  0  0
   48.2710   33.8520   38.3890 C   0  0  0  0  0  0  0  0  0  0  0  0
   48.2010   34.5450   37.2790 N   0  0  0  0  0  0  0  0  0  0  0  0
   48.6840   33.7570   36.3410 O   0  0  0  0  0  0  0  0  0  0  0  0
   49.0440   32.6050   36.8560 C   0  0  0  0  0  0  0  0  0  0  0  0
   48.7880   32.6310   38.1970 N   0  0  0  0  0  0  0  0  0  0  0  0
   49.6110   31.4680   36.2110 N   0  0  0  0  0  0  0  0  0  0  0  0
   50.5220   30.4710   36.7510 C   0  0  0  0  0  0  0  0  0  0  0  0
   51.5720   30.4810   35.6310 C   0  0  0  0  0  0  0  0  0  0  0  0
   50.8200   30.8640   34.3680 C   0  0  0  0  0  0  0  0  0  0  0  0
   49.3900   31.0550   34.8340 C   0  0  0  0  0  0  0  0  0  0  0  0
   44.4640   35.9620   44.8170 C   0  0  0  0  0  0  0  0  0  0  0  0
   45.1290   35.9650   43.5690 C   0  0  0  0  0  0  0  0  0  0  0  0
   46.0350   34.9180   43.3230 C   0  0  0  0  0  0  0  0  0  0  0  0
   46.2030   34.0020   44.2740 N   0  0  0  0  0  0  0  0  0  0  0  0
   45.5580   34.0260   45.4460 C   0  0  0  0  0  0  0  0  0  0  0  0
   44.6940   34.9970   45.7210 N   0  0  0  0  0  0  0  0  0  0  0  0
   48.4947   35.9780   42.5782 H   0  0  0  0  0  0  0  0  0  0  0  0
   49.5841   35.5517   40.3704 H   0  0  0  0  0  0  0  0  0  0  0  0
   50.9462   30.7794   37.7179 H   0  0  0  0  0  0  0  0  0  0  0  0
   50.0753   29.4910   36.9745 H   0  0  0  0  0  0  0  0  0  0  0  0
   52.3580   31.2192   35.8484 H   0  0  0  0  0  0  0  0  0  0  0  0
   52.0670   29.5040   35.5290 H   0  0  0  0  0  0  0  0  0  0  0  0
   50.8826   30.0621   33.6177 H   0  0  0  0  0  0  0  0  0  0  0  0
   51.2317   31.7638   33.8875 H   0  0  0  0  0  0  0  0  0  0  0  0
   48.8750   31.8350   34.2541 H   0  0  0  0  0  0  0  0  0  0  0  0
   48.7490   30.1685   34.7193 H   0  0  0  0  0  0  0  0  0  0  0  0
   43.7471   36.7630   45.0505 H   0  0  0  0  0  0  0  0  0  0  0  0
   44.9455   36.7522   42.8229 H   0  0  0  0  0  0  0  0  0  0  0  0
   45.7446   33.2354   46.1878 H   0  0  0  0  0  0  0  0  0  0  0  0
  1 18  1  0
  2  1  2  0
  3  2  1  0
  4  3  2  0
  4  5  1  0
  5  1  1  0
  6  4  1  0
  7  6  2  0
  8  9  1  0
  8  7  1  0
  9 10  2  0
 10  6  1  0
 11 12  1  0
 11  9  1  0
 13 12  1  0
 14 15  1  0
 14 13  1  0
 15 11  1  0
 16 21  2  0
 17 16  1  0
 18 17  2  0
 18 19  1  0
 19 20  2  0
 20 21  1  0
  2 22  1  0
  3 23  1  0
 12 24  1  0
 12 25  1  0
 13 26  1  0
 13 27  1  0
 14 28  1  0
 14 29  1  0
 15 30  1  0
 15 31  1  0
 16 32  1  0
 17 33  1  0
 20 34  1  0
M  ISO  8  22  14  23  14  24  13  25  13  26  13  27  13  28  13  29  13
M  ISO  5  30  13  31  13  32  14  33  14  34  14
M  END
>  <minimizedAffinity>  (1) 
-6.19101858

>  <minimizedRMSD>  (1) 
0.0939768031

$$$$
