
     RDKit          3D

 33 36  0  0  0  0  0  0  0  0999 V2000
   46.6450   34.7160   42.0620 C   0  0  0  0  0  0  0  0  0  0  0  0
   47.9020   35.1640   41.7850 C   0  0  0  0  0  0  0  0  0  0  0  0
   48.4360   34.9460   40.5570 C   0  0  0  0  0  0  0  0  0  0  0  0
   47.5710   34.2350   39.6480 C   0  0  0  0  0  0  0  0  0  0  0  0
   46.0630   33.9380   40.6340 S   0  0  0  0  0  0  0  0  0  0  0  0
   47.8940   33.8690   38.2620 C   0  0  0  0  0  0  0  0  0  0  0  0
   48.8560   34.3730   37.4920 N   0  0  0  0  0  0  0  0  0  0  0  0
   48.7660   33.7410   36.3490 O   0  0  0  0  0  0  0  0  0  0  0  0
   47.7710   32.8610   36.4000 C   0  0  0  0  0  0  0  0  0  0  0  0
   47.1890   32.9280   37.6380 N   0  0  0  0  0  0  0  0  0  0  0  0
   47.4230   32.0160   35.3030 N   0  0  0  0  0  0  0  0  0  0  0  0
   48.4260   31.4140   34.6390 C   0  0  0  0  0  0  0  0  0  0  0  0
   48.0620   30.6030   33.5820 C   0  0  0  0  0  0  0  0  0  0  0  0
   46.7120   30.4950   33.3190 C   0  0  0  0  0  0  0  0  0  0  0  0
   46.2490   29.6810   32.2500 N   0  0  0  0  0  0  0  0  0  0  0  0
   45.7490   31.1260   34.0240 N   0  0  0  0  0  0  0  0  0  0  0  0
   46.1000   31.9310   35.0720 C   0  0  0  0  0  0  0  0  0  0  0  0
   45.2510   32.5290   35.7450 O   0  0  0  0  0  0  0  0  0  0  0  0
   44.4750   35.9110   44.9040 C   0  0  0  0  0  0  0  0  0  0  0  0
   45.0720   35.9050   43.6350 C   0  0  0  0  0  0  0  0  0  0  0  0
   45.9450   34.8690   43.3200 C   0  0  0  0  0  0  0  0  0  0  0  0
   46.1700   33.9260   44.2570 N   0  0  0  0  0  0  0  0  0  0  0  0
   45.5870   33.9520   45.4700 C   0  0  0  0  0  0  0  0  0  0  0  0
   44.7480   34.9320   45.7950 N   0  0  0  0  0  0  0  0  0  0  0  0
   48.4802   35.6992   42.5526 H   0  0  0  0  0  0  0  0  0  0  0  0
   49.4450   35.2835   40.2778 H   0  0  0  0  0  0  0  0  0  0  0  0
   49.4788   31.5597   34.9224 H   0  0  0  0  0  0  0  0  0  0  0  0
   48.8117   30.0693   32.9794 H   0  0  0  0  0  0  0  0  0  0  0  0
   45.2395   29.6056   32.0600 H   0  0  0  0  0  0  0  0  0  0  0  0
   46.9230   29.1665   31.6652 H   0  0  0  0  0  0  0  0  0  0  0  0
   43.7794   36.7185   45.1762 H   0  0  0  0  0  0  0  0  0  0  0  0
   44.8551   36.7002   42.9066 H   0  0  0  0  0  0  0  0  0  0  0  0
   45.8059   33.1570   46.1980 H   0  0  0  0  0  0  0  0  0  0  0  0
  1 21  1  0
  2  1  2  0
  3  2  1  0
  4  3  2  0
  4  5  1  0
  5  1  1  0
  6  4  1  0
  7  6  2  0
  8  9  1  0
  8  7  1  0
  9 10  2  0
 10  6  1  0
 11  9  1  0
 12 11  1  0
 13 12  2  0
 14 13  1  0
 14 16  2  0
 15 14  1  0
 16 17  1  0
 17 11  1  0
 17 18  2  0
 19 24  2  0
 20 19  1  0
 21 20  2  0
 21 22  1  0
 22 23  2  0
 23 24  1  0
  2 25  1  0
  3 26  1  0
 12 27  1  0
 13 28  1  0
 15 29  1  0
 15 30  1  0
 19 31  1  0
 20 32  1  0
 23 33  1  0
M  ISO  7  25  14  26  14  27  14  28  14  31  14  32  14  33  14
M  END
>  <minimizedAffinity>  (1) 
-6.71426296

>  <minimizedRMSD>  (1) 
2.36384535

$$$$
