
     RDKit          3D

 35 38  0  0  0  0  0  0  0  0999 V2000
   46.7710   34.7660   42.1350 C   0  0  0  0  0  0  0  0  0  0  0  0
   47.9790   35.3390   41.8730 C   0  0  0  0  0  0  0  0  0  0  0  0
   48.5900   35.1190   40.6720 C   0  0  0  0  0  0  0  0  0  0  0  0
   47.8450   34.2640   39.7840 C   0  0  0  0  0  0  0  0  0  0  0  0
   46.3520   33.8580   40.7370 S   0  0  0  0  0  0  0  0  0  0  0  0
   48.2610   33.8580   38.4280 C   0  0  0  0  0  0  0  0  0  0  0  0
   48.2390   34.5820   37.3240 N   0  0  0  0  0  0  0  0  0  0  0  0
   48.7030   33.8060   36.3760 O   0  0  0  0  0  0  0  0  0  0  0  0
   49.0090   32.6220   36.8750 C   0  0  0  0  0  0  0  0  0  0  0  0
   48.7270   32.6400   38.2130 N   0  0  0  0  0  0  0  0  0  0  0  0
   49.5420   31.4670   36.2220 N   0  0  0  0  0  0  0  0  0  0  0  0
   50.6210   30.5850   36.6500 C   0  0  0  0  0  0  0  0  0  0  0  0
   51.6910   30.4700   35.5870 C   0  0  0  0  0  0  0  0  0  0  0  0
   51.2250   30.8620   34.3350 O   0  0  0  0  0  0  0  0  0  0  0  0
   49.9640   30.2600   34.1340 C   0  0  0  0  0  0  0  0  0  0  0  0
   48.9550   31.0720   34.9360 C   0  0  0  0  0  0  0  0  0  0  0  0
   44.4520   35.9540   44.8600 C   0  0  0  0  0  0  0  0  0  0  0  0
   45.1130   35.9440   43.6180 C   0  0  0  0  0  0  0  0  0  0  0  0
   46.0130   34.9110   43.3580 C   0  0  0  0  0  0  0  0  0  0  0  0
   46.1970   33.9830   44.3080 N   0  0  0  0  0  0  0  0  0  0  0  0
   45.5540   34.0140   45.4880 C   0  0  0  0  0  0  0  0  0  0  0  0
   44.6840   34.9980   45.7590 N   0  0  0  0  0  0  0  0  0  0  0  0
   48.4612   35.9777   42.6277 H   0  0  0  0  0  0  0  0  0  0  0  0
   49.5640   35.5556   40.4063 H   0  0  0  0  0  0  0  0  0  0  0  0
   51.0708   30.9889   37.5690 H   0  0  0  0  0  0  0  0  0  0  0  0
   50.2010   29.5843   36.8296 H   0  0  0  0  0  0  0  0  0  0  0  0
   52.5402   31.1108   35.8667 H   0  0  0  0  0  0  0  0  0  0  0  0
   51.9942   29.4146   35.5221 H   0  0  0  0  0  0  0  0  0  0  0  0
   49.7016   30.2786   33.0659 H   0  0  0  0  0  0  0  0  0  0  0  0
   49.9723   29.2092   34.4592 H   0  0  0  0  0  0  0  0  0  0  0  0
   48.6786   31.9731   34.3689 H   0  0  0  0  0  0  0  0  0  0  0  0
   48.0600   30.4592   35.1190 H   0  0  0  0  0  0  0  0  0  0  0  0
   43.7375   36.7579   45.0910 H   0  0  0  0  0  0  0  0  0  0  0  0
   44.9249   36.7301   42.8719 H   0  0  0  0  0  0  0  0  0  0  0  0
   45.7423   33.2286   46.2348 H   0  0  0  0  0  0  0  0  0  0  0  0
  1 19  1  0
  2  1  2  0
  3  2  1  0
  4  3  2  0
  4  5  1  0
  5  1  1  0
  6  4  1  0
  7  6  2  0
  8  9  1  0
  8  7  1  0
  9 10  2  0
 10  6  1  0
 11 12  1  0
 11  9  1  0
 13 12  1  0
 14 13  1  0
 15 14  1  0
 15 16  1  0
 16 11  1  0
 17 22  2  0
 18 17  1  0
 19 18  2  0
 19 20  1  0
 20 21  2  0
 21 22  1  0
  2 23  1  0
  3 24  1  0
 12 25  1  0
 12 26  1  0
 13 27  1  0
 13 28  1  0
 15 29  1  0
 15 30  1  0
 16 31  1  0
 16 32  1  0
 17 33  1  0
 18 34  1  0
 21 35  1  0
M  ISO  8  23  14  24  14  25  13  26  13  27  13  28  13  29  13  30  13
M  ISO  5  31  13  32  13  33  14  34  14  35  14
M  END
>  <minimizedAffinity>  (1) 
-6.2706604

>  <minimizedRMSD>  (1) 
0.154126972

$$$$
