
     RDKit          3D

 29 32  0  0  0  0  0  0  0  0999 V2000
   46.6220   34.6910   42.0610 C   0  0  0  0  0  0  0  0  0  0  0  0
   47.8760   35.1400   41.7720 C   0  0  0  0  0  0  0  0  0  0  0  0
   48.4100   34.9200   40.5360 C   0  0  0  0  0  0  0  0  0  0  0  0
   47.5370   34.2010   39.6420 C   0  0  0  0  0  0  0  0  0  0  0  0
   46.0410   33.9080   40.6440 S   0  0  0  0  0  0  0  0  0  0  0  0
   44.4750   35.9290   44.9040 C   0  0  0  0  0  0  0  0  0  0  0  0
   45.0610   35.9250   43.6130 C   0  0  0  0  0  0  0  0  0  0  0  0
   45.9340   34.8520   43.3210 C   0  0  0  0  0  0  0  0  0  0  0  0
   46.1450   33.9340   44.2600 N   0  0  0  0  0  0  0  0  0  0  0  0
   45.5750   33.9640   45.4770 C   0  0  0  0  0  0  0  0  0  0  0  0
   44.7350   34.9720   45.7930 N   0  0  0  0  0  0  0  0  0  0  0  0
   47.8470   33.8280   38.2490 C   0  0  0  0  0  0  0  0  0  0  0  0
   48.7040   34.4320   37.4280 N   0  0  0  0  0  0  0  0  0  0  0  0
   48.6280   33.7290   36.3050 O   0  0  0  0  0  0  0  0  0  0  0  0
   47.7760   32.7490   36.4300 C   0  0  0  0  0  0  0  0  0  0  0  0
   47.2530   32.7920   37.6850 N   0  0  0  0  0  0  0  0  0  0  0  0
   47.4480   31.7900   35.4060 C   0  0  0  0  0  0  0  0  0  0  0  0
   46.8770   30.5890   35.4770 C   0  0  0  0  0  0  0  0  0  0  0  0
   46.6660   29.8500   34.3450 C   0  0  0  0  0  0  0  0  0  0  0  0
   47.1110   30.4880   33.1100 C   0  0  0  0  0  0  0  0  0  0  0  0
   47.7830   32.0670   33.6700 S   0  0  0  0  0  0  0  0  0  0  0  0
   48.4570   35.6793   42.5346 H   0  0  0  0  0  0  0  0  0  0  0  0
   49.4155   35.2604   40.2477 H   0  0  0  0  0  0  0  0  0  0  0  0
   43.7881   36.7432   45.1784 H   0  0  0  0  0  0  0  0  0  0  0  0
   44.8477   36.7148   42.8776 H   0  0  0  0  0  0  0  0  0  0  0  0
   45.7916   33.1729   46.2099 H   0  0  0  0  0  0  0  0  0  0  0  0
   46.5722   30.1874   36.4547 H   0  0  0  0  0  0  0  0  0  0  0  0
   46.1983   28.8545   34.3642 H   0  0  0  0  0  0  0  0  0  0  0  0
   47.0511   30.0992   32.0827 H   0  0  0  0  0  0  0  0  0  0  0  0
  1  8  1  0
  2  1  2  0
  3  2  1  0
  4  3  2  0
  4  5  1  0
  5  1  1  0
  6 11  2  0
  7  6  1  0
  8  7  2  0
  8  9  1  0
  9 10  2  0
 10 11  1  0
 12  4  1  0
 13 12  2  0
 14 15  1  0
 14 13  1  0
 15 16  2  0
 16 12  1  0
 17 18  2  0
 17 15  1  0
 19 18  1  0
 20 21  1  0
 20 19  2  0
 21 17  1  0
  2 22  1  0
  3 23  1  0
  6 24  1  0
  7 25  1  0
 10 26  1  0
 18 27  1  0
 19 28  1  0
 20 29  1  0
M  ISO  8  22  14  23  14  24  14  25  14  26  14  27  14  28  14  29  14
M  END
>  <minimizedAffinity>  (1) 
-5.8199563

>  <minimizedRMSD>  (1) 
1.74800909

$$$$
