
     RDKit          3D

 32 35  0  0  0  0  0  0  0  0999 V2000
   46.6390   34.6920   42.0430 C   0  0  0  0  0  0  0  0  0  0  0  0
   47.8910   35.1410   41.7540 C   0  0  0  0  0  0  0  0  0  0  0  0
   48.4210   34.9240   40.5180 C   0  0  0  0  0  0  0  0  0  0  0  0
   47.5470   34.2100   39.6240 C   0  0  0  0  0  0  0  0  0  0  0  0
   46.0400   33.9080   40.6210 S   0  0  0  0  0  0  0  0  0  0  0  0
   44.4810   35.9190   44.8840 C   0  0  0  0  0  0  0  0  0  0  0  0
   45.0740   35.9090   43.6040 C   0  0  0  0  0  0  0  0  0  0  0  0
   45.9490   34.8470   43.3060 C   0  0  0  0  0  0  0  0  0  0  0  0
   46.1750   33.9040   44.2460 N   0  0  0  0  0  0  0  0  0  0  0  0
   45.5820   33.9620   45.4550 C   0  0  0  0  0  0  0  0  0  0  0  0
   44.7470   34.9510   45.7770 N   0  0  0  0  0  0  0  0  0  0  0  0
   47.8500   33.8340   38.2270 C   0  0  0  0  0  0  0  0  0  0  0  0
   48.7710   34.3390   37.4370 N   0  0  0  0  0  0  0  0  0  0  0  0
   48.6550   33.6820   36.2990 O   0  0  0  0  0  0  0  0  0  0  0  0
   47.6950   32.8000   36.3800 C   0  0  0  0  0  0  0  0  0  0  0  0
   47.1560   32.8810   37.6270 N   0  0  0  0  0  0  0  0  0  0  0  0
   47.2810   31.8890   35.3120 C   0  0  0  0  0  0  0  0  0  0  0  0
   48.0270   31.9460   34.1520 C   0  0  0  0  0  0  0  0  0  0  0  0
   47.6760   31.0970   33.0970 C   0  0  0  0  0  0  0  0  0  0  0  0
   46.5960   30.2570   33.3000 C   0  0  0  0  0  0  0  0  0  0  0  0
   45.8580   30.2110   34.4640 C   0  0  0  0  0  0  0  0  0  0  0  0
   46.2030   31.0490   35.5120 C   0  0  0  0  0  0  0  0  0  0  0  0
   48.4737   35.6780   42.5170 H   0  0  0  0  0  0  0  0  0  0  0  0
   49.4265   35.2638   40.2289 H   0  0  0  0  0  0  0  0  0  0  0  0
   43.7906   36.7314   45.1550 H   0  0  0  0  0  0  0  0  0  0  0  0
   44.8614   36.6989   42.8686 H   0  0  0  0  0  0  0  0  0  0  0  0
   45.7917   33.1747   46.1940 H   0  0  0  0  0  0  0  0  0  0  0  0
   48.8750   32.6406   34.0596 H   0  0  0  0  0  0  0  0  0  0  0  0
   48.2337   31.0974   32.1489 H   0  0  0  0  0  0  0  0  0  0  0  0
   46.3073   29.5825   32.4805 H   0  0  0  0  0  0  0  0  0  0  0  0
   45.0080   29.5193   34.5590 H   0  0  0  0  0  0  0  0  0  0  0  0
   45.6442   31.0455   36.4595 H   0  0  0  0  0  0  0  0  0  0  0  0
  1  8  1  0
  2  1  2  0
  3  2  1  0
  4  3  2  0
  4  5  1  0
  5  1  1  0
  6 11  2  0
  7  6  1  0
  8  7  2  0
  8  9  1  0
  9 10  2  0
 10 11  1  0
 12  4  1  0
 13 12  2  0
 14 15  1  0
 14 13  1  0
 15 16  2  0
 16 12  1  0
 17 22  1  0
 17 15  1  0
 18 17  2  0
 19 20  2  0
 19 18  1  0
 20 21  1  0
 21 22  2  0
  2 23  1  0
  3 24  1  0
  6 25  1  0
  7 26  1  0
 10 27  1  0
 18 28  1  0
 19 29  1  0
 20 30  1  0
 21 31  1  0
 22 32  1  0
M  ISO  8  23  14  24  14  25  14  26  14  27  14  28  14  29  14  30  14
M  ISO  2  31  14  32  14
M  END
>  <minimizedAffinity>  (1) 
-5.97240162

>  <minimizedRMSD>  (1) 
2.01001573

$$$$
