
     RDKit          3D

 39 43  0  0  0  0  0  0  0  0999 V2000
   48.2250   33.8730   38.3630 C   0  0  0  0  0  0  0  0  0  0  0  0
   48.1530   34.5670   37.2670 N   0  0  0  0  0  0  0  0  0  0  0  0
   48.6260   33.7650   36.3250 O   0  0  0  0  0  0  0  0  0  0  0  0
   48.9800   32.6060   36.8250 C   0  0  0  0  0  0  0  0  0  0  0  0
   48.7290   32.6500   38.1540 N   0  0  0  0  0  0  0  0  0  0  0  0
   46.8090   34.7450   42.1080 C   0  0  0  0  0  0  0  0  0  0  0  0
   48.0130   35.2980   41.8360 C   0  0  0  0  0  0  0  0  0  0  0  0
   48.5930   35.0870   40.6310 C   0  0  0  0  0  0  0  0  0  0  0  0
   47.8340   34.2680   39.7420 C   0  0  0  0  0  0  0  0  0  0  0  0
   46.3360   33.8540   40.6990 S   0  0  0  0  0  0  0  0  0  0  0  0
   44.4770   35.9220   44.8300 C   0  0  0  0  0  0  0  0  0  0  0  0
   45.1370   35.9230   43.5850 C   0  0  0  0  0  0  0  0  0  0  0  0
   46.0530   34.8720   43.3450 C   0  0  0  0  0  0  0  0  0  0  0  0
   46.2380   33.9610   44.2820 N   0  0  0  0  0  0  0  0  0  0  0  0
   45.5990   33.9790   45.4580 C   0  0  0  0  0  0  0  0  0  0  0  0
   44.7220   34.9550   45.7340 N   0  0  0  0  0  0  0  0  0  0  0  0
   49.5410   31.4510   36.1450 C   0  0  0  0  0  0  0  0  0  0  0  0
   49.2450   30.1280   36.2880 C   0  0  0  0  0  0  0  0  0  0  0  0
   50.0780   29.4600   35.3940 C   0  0  0  0  0  0  0  0  0  0  0  0
   50.8370   30.4050   34.7520 C   0  0  0  0  0  0  0  0  0  0  0  0
   50.4990   31.5680   35.2150 O   0  0  0  0  0  0  0  0  0  0  0  0
   51.8320   30.1550   33.7450 N   0  0  0  0  0  0  0  0  0  0  0  0
   53.0280   29.6840   34.1110 C   0  0  0  0  0  0  0  0  0  0  0  0
   54.0350   29.4230   33.1740 C   0  0  0  0  0  0  0  0  0  0  0  0
   53.7170   29.6790   31.8540 C   0  0  0  0  0  0  0  0  0  0  0  0
   54.6090   29.4510   30.9990 O   0  0  0  0  0  0  0  0  0  0  0  0
   52.5040   30.1530   31.5210 N   0  0  0  0  0  0  0  0  0  0  0  0
   51.5420   30.3990   32.4530 C   0  0  0  0  0  0  0  0  0  0  0  0
   50.4270   30.8410   32.0720 O   0  0  0  0  0  0  0  0  0  0  0  0
   48.5192   35.9171   42.5913 H   0  0  0  0  0  0  0  0  0  0  0  0
   49.5703   35.5124   40.3591 H   0  0  0  0  0  0  0  0  0  0  0  0
   43.7554   36.7182   45.0652 H   0  0  0  0  0  0  0  0  0  0  0  0
   44.9487   36.7048   42.8345 H   0  0  0  0  0  0  0  0  0  0  0  0
   45.7939   33.1908   46.2002 H   0  0  0  0  0  0  0  0  0  0  0  0
   48.5036   29.6817   36.9671 H   0  0  0  0  0  0  0  0  0  0  0  0
   50.1197   28.3728   35.2322 H   0  0  0  0  0  0  0  0  0  0  0  0
   53.2264   29.4965   35.1766 H   0  0  0  0  0  0  0  0  0  0  0  0
   55.0212   29.0369   33.4712 H   0  0  0  0  0  0  0  0  0  0  0  0
   52.2954   30.3360   30.5291 H   0  0  0  0  0  0  0  0  0  0  0  0
  1  9  1  0
  2  1  2  0
  3  4  1  0
  3  2  1  0
  4  5  2  0
  5  1  1  0
  6 13  1  0
  7  6  2  0
  8  7  1  0
  9  8  2  0
  9 10  1  0
 10  6  1  0
 11 16  2  0
 12 11  1  0
 13 12  2  0
 13 14  1  0
 14 15  2  0
 15 16  1  0
 17 18  2  0
 17  4  1  0
 19 18  1  0
 20 21  1  0
 20 19  2  0
 21 17  1  0
 22 23  1  0
 22 20  1  0
 24 23  2  0
 25 24  1  0
 26 25  2  0
 27 25  1  0
 27 28  1  0
 28 22  1  0
 29 28  2  0
  7 30  1  0
  8 31  1  0
 11 32  1  0
 12 33  1  0
 15 34  1  0
 18 35  1  0
 19 36  1  0
 23 37  1  0
 24 38  1  0
 27 39  1  0
M  ISO  8  30  14  31  14  32  14  33  14  34  14  35  14  36  14  37  14
M  ISO  2  38  14  39   9
M  END
>  <minimizedAffinity>  (1) 
-6.7016592

>  <minimizedRMSD>  (1) 
2.18114114

$$$$
