
     RDKit          3D

 38 42  0  0  0  0  0  0  0  0999 V2000
   48.2880   33.6940   38.5050 C   0  0  0  0  0  0  0  0  0  0  0  0
   47.9700   34.1610   37.3360 N   0  0  0  0  0  0  0  0  0  0  0  0
   48.6200   33.4030   36.4730 O   0  0  0  0  0  0  0  0  0  0  0  0
   49.3290   32.4820   37.0910 C   0  0  0  0  0  0  0  0  0  0  0  0
   49.1300   32.6510   38.4180 N   0  0  0  0  0  0  0  0  0  0  0  0
   46.7750   34.7410   42.1660 C   0  0  0  0  0  0  0  0  0  0  0  0
   47.9380   35.3580   41.8510 C   0  0  0  0  0  0  0  0  0  0  0  0
   48.5460   35.1030   40.6710 C   0  0  0  0  0  0  0  0  0  0  0  0
   47.8540   34.1610   39.8470 C   0  0  0  0  0  0  0  0  0  0  0  0
   46.3950   33.7210   40.8310 S   0  0  0  0  0  0  0  0  0  0  0  0
   44.4360   36.0360   44.8270 C   0  0  0  0  0  0  0  0  0  0  0  0
   45.1190   35.9880   43.5960 C   0  0  0  0  0  0  0  0  0  0  0  0
   46.0050   34.9090   43.3880 C   0  0  0  0  0  0  0  0  0  0  0  0
   46.1500   34.0070   44.3410 N   0  0  0  0  0  0  0  0  0  0  0  0
   45.4900   34.0700   45.5080 C   0  0  0  0  0  0  0  0  0  0  0  0
   44.6380   35.0820   45.7470 N   0  0  0  0  0  0  0  0  0  0  0  0
   50.1830   31.4540   36.5220 C   0  0  0  0  0  0  0  0  0  0  0  0
   49.8730   30.4550   35.6480 C   0  0  0  0  0  0  0  0  0  0  0  0
   51.0710   29.7640   35.4410 C   0  0  0  0  0  0  0  0  0  0  0  0
   52.0440   30.3810   36.2030 C   0  0  0  0  0  0  0  0  0  0  0  0
   51.4850   31.3730   36.8270 O   0  0  0  0  0  0  0  0  0  0  0  0
   53.4560   30.0450   36.3380 C   0  0  0  0  0  0  0  0  0  0  0  0
   54.1700   30.6360   37.3520 C   0  0  0  0  0  0  0  0  0  0  0  0
   55.5290   30.3590   37.5400 C   0  0  0  0  0  0  0  0  0  0  0  0
   56.1060   29.4600   36.6460 C   0  0  0  0  0  0  0  0  0  0  0  0
   55.3750   28.8740   35.6280 C   0  0  0  0  0  0  0  0  0  0  0  0
   54.0570   29.1820   35.4970 N   0  0  0  0  0  0  0  0  0  0  0  0
   48.3899   36.0694   42.5579 H   0  0  0  0  0  0  0  0  0  0  0  0
   49.4912   35.5788   40.3706 H   0  0  0  0  0  0  0  0  0  0  0  0
   43.7352   36.8582   45.0339 H   0  0  0  0  0  0  0  0  0  0  0  0
   44.9680   36.7604   42.8275 H   0  0  0  0  0  0  0  0  0  0  0  0
   45.6465   33.2923   46.2701 H   0  0  0  0  0  0  0  0  0  0  0  0
   48.8913   30.2388   35.2014 H   0  0  0  0  0  0  0  0  0  0  0  0
   51.2127   28.8887   34.7900 H   0  0  0  0  0  0  0  0  0  0  0  0
   53.6641   31.3402   38.0289 H   0  0  0  0  0  0  0  0  0  0  0  0
   56.1096   30.8257   38.3494 H   0  0  0  0  0  0  0  0  0  0  0  0
   57.1717   29.2092   36.7523 H   0  0  0  0  0  0  0  0  0  0  0  0
   55.8538   28.1680   34.9335 H   0  0  0  0  0  0  0  0  0  0  0  0
  1  9  1  0
  2  1  2  0
  3  4  1  0
  3  2  1  0
  4  5  2  0
  5  1  1  0
  6 13  1  0
  7  6  2  0
  8  7  1  0
  9  8  2  0
  9 10  1  0
 10  6  1  0
 11 16  2  0
 12 11  1  0
 13 12  2  0
 13 14  1  0
 14 15  2  0
 15 16  1  0
 17 21  1  0
 17  4  1  0
 18 17  2  0
 19 18  1  0
 19 20  2  0
 20 22  1  0
 20 21  1  0
 22 23  2  0
 23 24  1  0
 25 24  2  0
 26 25  1  0
 27 26  2  0
 27 22  1  0
  7 28  1  0
  8 29  1  0
 11 30  1  0
 12 31  1  0
 15 32  1  0
 18 33  1  0
 19 34  1  0
 23 35  1  0
 24 36  1  0
 25 37  1  0
 26 38  1  0
M  ISO  8  28  14  29  14  30  14  31  14  32  14  33  14  34  14  35  14
M  ISO  3  36  14  37  14  38  14
M  END
>  <minimizedAffinity>  (1) 
-6.21014643

>  <minimizedRMSD>  (1) 
0.976801515

$$$$
