
     RDKit          3D

 45 49  0  0  0  0  0  0  0  0999 V2000
   48.2740   33.7780   38.4420 C   0  0  0  0  0  0  0  0  0  0  0  0
   47.9380   34.2650   37.2850 N   0  0  0  0  0  0  0  0  0  0  0  0
   48.5830   33.5280   36.4000 O   0  0  0  0  0  0  0  0  0  0  0  0
   49.3040   32.6020   36.9960 C   0  0  0  0  0  0  0  0  0  0  0  0
   49.1220   32.7400   38.3310 N   0  0  0  0  0  0  0  0  0  0  0  0
   46.7860   34.7570   42.1280 C   0  0  0  0  0  0  0  0  0  0  0  0
   47.9700   35.3420   41.8420 C   0  0  0  0  0  0  0  0  0  0  0  0
   48.5710   35.1040   40.6570 C   0  0  0  0  0  0  0  0  0  0  0  0
   47.8500   34.2170   39.7990 C   0  0  0  0  0  0  0  0  0  0  0  0
   46.3540   33.7850   40.7590 S   0  0  0  0  0  0  0  0  0  0  0  0
   44.4440   36.0210   44.8090 C   0  0  0  0  0  0  0  0  0  0  0  0
   45.1210   35.9970   43.5660 C   0  0  0  0  0  0  0  0  0  0  0  0
   46.0170   34.9130   43.3510 C   0  0  0  0  0  0  0  0  0  0  0  0
   46.1660   34.0050   44.3020 N   0  0  0  0  0  0  0  0  0  0  0  0
   45.5100   34.0570   45.4660 C   0  0  0  0  0  0  0  0  0  0  0  0
   44.6590   35.0490   45.7230 N   0  0  0  0  0  0  0  0  0  0  0  0
   50.1580   31.5900   36.3970 C   0  0  0  0  0  0  0  0  0  0  0  0
   50.1420   31.0740   35.1360 C   0  0  0  0  0  0  0  0  0  0  0  0
   51.1780   30.1350   35.0950 C   0  0  0  0  0  0  0  0  0  0  0  0
   51.7660   30.1410   36.3570 C   0  0  0  0  0  0  0  0  0  0  0  0
   51.1440   31.0000   37.0860 O   0  0  0  0  0  0  0  0  0  0  0  0
   52.9110   29.3290   36.8520 C   0  0  0  0  0  0  0  0  0  0  0  0
   53.5540   30.0040   38.0390 C   0  0  0  0  0  0  0  0  0  0  0  0
   54.4810   31.1250   37.6260 C   0  0  0  0  0  0  0  0  0  0  0  0
   55.6250   30.4260   36.8820 C   0  0  0  0  0  0  0  0  0  0  0  0
   55.0110   29.9310   35.5880 C   0  0  0  0  0  0  0  0  0  0  0  0
   53.8810   28.9880   35.7650 C   0  0  0  0  0  0  0  0  0  0  0  0
   48.4439   36.0119   42.5746 H   0  0  0  0  0  0  0  0  0  0  0  0
   49.5342   35.5546   40.3755 H   0  0  0  0  0  0  0  0  0  0  0  0
   43.7390   36.8354   45.0322 H   0  0  0  0  0  0  0  0  0  0  0  0
   44.9625   36.7761   42.8058 H   0  0  0  0  0  0  0  0  0  0  0  0
   45.6748   33.2724   46.2192 H   0  0  0  0  0  0  0  0  0  0  0  0
   49.4558   31.3408   34.3187 H   0  0  0  0  0  0  0  0  0  0  0  0
   51.4704   29.5143   34.2352 H   0  0  0  0  0  0  0  0  0  0  0  0
   52.5242   28.3590   37.1977 H   0  0  0  0  0  0  0  0  0  0  0  0
   52.7634   30.4171   38.6827 H   0  0  0  0  0  0  0  0  0  0  0  0
   54.1521   29.2507   38.5727 H   0  0  0  0  0  0  0  0  0  0  0  0
   53.9625   31.8336   36.9634 H   0  0  0  0  0  0  0  0  0  0  0  0
   54.8385   31.7094   38.4866 H   0  0  0  0  0  0  0  0  0  0  0  0
   56.4411   31.1342   36.6760 H   0  0  0  0  0  0  0  0  0  0  0  0
   56.0595   29.6056   37.4720 H   0  0  0  0  0  0  0  0  0  0  0  0
   55.7953   29.4225   35.0081 H   0  0  0  0  0  0  0  0  0  0  0  0
   54.6032   30.8155   35.0768 H   0  0  0  0  0  0  0  0  0  0  0  0
   53.3245   28.9468   34.8171 H   0  0  0  0  0  0  0  0  0  0  0  0
   54.3350   28.0305   36.0600 H   0  0  0  0  0  0  0  0  0  0  0  0
  1  9  1  0
  2  1  2  0
  3  4  1  0
  3  2  1  0
  4  5  2  0
  5  1  1  0
  6 13  1  0
  7  6  2  0
  8  7  1  0
  9  8  2  0
  9 10  1  0
 10  6  1  0
 11 16  2  0
 12 11  1  0
 13 12  2  0
 13 14  1  0
 14 15  2  0
 15 16  1  0
 17  4  1  0
 17 21  1  0
 18 17  2  0
 19 18  1  0
 19 20  2  0
 20 22  1  0
 20 21  1  0
 22 23  1  0
 24 23  1  0
 25 24  1  0
 26 27  1  0
 26 25  1  0
 27 22  1  0
  7 28  1  0
  8 29  1  0
 11 30  1  0
 12 31  1  0
 15 32  1  0
 18 33  1  0
 19 34  1  0
 22 35  1  0
 23 36  1  0
 23 37  1  0
 24 38  1  0
 24 39  1  0
 25 40  1  0
 25 41  1  0
 26 42  1  0
 26 43  1  0
 27 44  1  0
 27 45  1  0
M  ISO  8  28  14  29  14  30  14  31  14  32  14  33  14  34  14  35  13
M  ISO  8  36  13  37  13  38  13  39  13  40  13  41  13  42  13  43  13
M  ISO  2  44  13  45  13
M  END
>  <minimizedAffinity>  (1) 
-6.32278395

>  <minimizedRMSD>  (1) 
0.601978302

$$$$
