
     RDKit          3D

 42 46  0  0  0  0  0  0  0  0999 V2000
   48.3220   33.5640   38.5520 C   0  0  0  0  0  0  0  0  0  0  0  0
   47.9640   33.9740   37.3570 N   0  0  0  0  0  0  0  0  0  0  0  0
   48.6360   33.1970   36.5250 O   0  0  0  0  0  0  0  0  0  0  0  0
   49.3820   32.3370   37.1780 C   0  0  0  0  0  0  0  0  0  0  0  0
   49.1940   32.5560   38.5080 N   0  0  0  0  0  0  0  0  0  0  0  0
   46.7700   34.7460   42.1520 C   0  0  0  0  0  0  0  0  0  0  0  0
   47.9220   35.3720   41.8270 C   0  0  0  0  0  0  0  0  0  0  0  0
   48.5460   35.0720   40.6560 C   0  0  0  0  0  0  0  0  0  0  0  0
   47.8760   34.0840   39.8700 C   0  0  0  0  0  0  0  0  0  0  0  0
   46.4040   33.6530   40.8620 S   0  0  0  0  0  0  0  0  0  0  0  0
   44.4300   36.0900   44.7910 C   0  0  0  0  0  0  0  0  0  0  0  0
   45.1190   36.0350   43.5580 C   0  0  0  0  0  0  0  0  0  0  0  0
   45.9850   34.9500   43.3600 C   0  0  0  0  0  0  0  0  0  0  0  0
   46.1060   34.0510   44.3320 N   0  0  0  0  0  0  0  0  0  0  0  0
   45.4380   34.1330   45.4920 C   0  0  0  0  0  0  0  0  0  0  0  0
   44.6040   35.1470   45.7220 N   0  0  0  0  0  0  0  0  0  0  0  0
   50.2670   31.3130   36.6530 C   0  0  0  0  0  0  0  0  0  0  0  0
   49.9810   30.1780   35.9570 C   0  0  0  0  0  0  0  0  0  0  0  0
   51.2170   29.5710   35.7090 C   0  0  0  0  0  0  0  0  0  0  0  0
   52.1840   30.3700   36.2650 C   0  0  0  0  0  0  0  0  0  0  0  0
   51.5950   31.3790   36.8090 O   0  0  0  0  0  0  0  0  0  0  0  0
   56.3510   29.5880   36.1570 C   0  0  0  0  0  0  0  0  0  0  0  0
   55.5240   29.0650   35.1880 C   0  0  0  0  0  0  0  0  0  0  0  0
   54.1720   29.3310   35.2430 C   0  0  0  0  0  0  0  0  0  0  0  0
   53.6290   30.1060   36.2380 C   0  0  0  0  0  0  0  0  0  0  0  0
   54.4360   30.6470   37.2290 C   0  0  0  0  0  0  0  0  0  0  0  0
   55.7980   30.3650   37.1540 C   0  0  0  0  0  0  0  0  0  0  0  0
   58.0640   29.3970   36.3010 S   0  0  0  0  0  0  0  0  0  0  0  0
   58.7370   29.5960   34.9660 O   0  0  0  0  0  0  0  0  0  0  0  0
   58.6320   30.4730   37.2010 O   0  0  0  0  0  0  0  0  0  0  0  0
   48.3539   36.1214   42.5066 H   0  0  0  0  0  0  0  0  0  0  0  0
   49.4858   35.5490   40.3410 H   0  0  0  0  0  0  0  0  0  0  0  0
   43.7390   36.9230   44.9876 H   0  0  0  0  0  0  0  0  0  0  0  0
   44.9820   36.8087   42.7882 H   0  0  0  0  0  0  0  0  0  0  0  0
   45.5794   33.3577   46.2594 H   0  0  0  0  0  0  0  0  0  0  0  0
   48.9879   29.8150   35.6538 H   0  0  0  0  0  0  0  0  0  0  0  0
   51.3828   28.6276   35.1682 H   0  0  0  0  0  0  0  0  0  0  0  0
   55.9367   28.4428   34.3802 H   0  0  0  0  0  0  0  0  0  0  0  0
   53.5115   28.9115   34.4698 H   0  0  0  0  0  0  0  0  0  0  0  0
   54.0199   31.2689   38.0353 H   0  0  0  0  0  0  0  0  0  0  0  0
   56.4632   30.7809   37.9251 H   0  0  0  0  0  0  0  0  0  0  0  0
   58.2869   28.1385   36.7943 H   0  0  0  0  0  0  0  0  0  0  0  0
  1  9  1  0
  2  1  2  0
  3  4  1  0
  3  2  1  0
  4  5  2  0
  5  1  1  0
  6 13  1  0
  7  6  2  0
  8  7  1  0
  9  8  2  0
  9 10  1  0
 10  6  1  0
 11 16  2  0
 12 11  1  0
 13 12  2  0
 13 14  1  0
 14 15  2  0
 15 16  1  0
 17 21  1  0
 17  4  1  0
 18 17  2  0
 19 18  1  0
 19 20  2  0
 20 21  1  0
 22 28  1  0
 22 27  2  0
 23 24  2  0
 23 22  1  0
 24 25  1  0
 25 20  1  0
 25 26  2  0
 27 26  1  0
 28 30  2  0
 29 28  2  0
  7 31  1  0
  8 32  1  0
 11 33  1  0
 12 34  1  0
 15 35  1  0
 18 36  1  0
 19 37  1  0
 23 38  1  0
 24 39  1  0
 26 40  1  0
 27 41  1  0
 28 42  1  0
M  ISO  8  31  14  32  14  33  14  34  14  35  14  36  14  37  14  38  14
M  ISO  4  39  14  40  14  41  14  42  11
M  END
>  <minimizedAffinity>  (1) 
-6.21955156

>  <minimizedRMSD>  (1) 
1.39599681

$$$$
