
     RDKit          3D

 36 40  0  0  0  0  0  0  0  0999 V2000
   48.2680   33.8560   38.4120 C   0  0  0  0  0  0  0  0  0  0  0  0
   48.1510   34.5090   37.2940 N   0  0  0  0  0  0  0  0  0  0  0  0
   48.6640   33.7170   36.3730 O   0  0  0  0  0  0  0  0  0  0  0  0
   49.0920   32.5910   36.9050 C   0  0  0  0  0  0  0  0  0  0  0  0
   48.8460   32.6530   38.2400 N   0  0  0  0  0  0  0  0  0  0  0  0
   46.8010   34.7640   42.1260 C   0  0  0  0  0  0  0  0  0  0  0  0
   47.9970   35.3310   41.8540 C   0  0  0  0  0  0  0  0  0  0  0  0
   48.5950   35.1140   40.6620 C   0  0  0  0  0  0  0  0  0  0  0  0
   47.8590   34.2680   39.7800 C   0  0  0  0  0  0  0  0  0  0  0  0
   46.3510   33.8430   40.7320 S   0  0  0  0  0  0  0  0  0  0  0  0
   44.4560   35.9660   44.8310 C   0  0  0  0  0  0  0  0  0  0  0  0
   45.1250   35.9690   43.5790 C   0  0  0  0  0  0  0  0  0  0  0  0
   46.0340   34.9030   43.3550 C   0  0  0  0  0  0  0  0  0  0  0  0
   46.2040   33.9900   44.2990 N   0  0  0  0  0  0  0  0  0  0  0  0
   45.5600   34.0150   45.4640 C   0  0  0  0  0  0  0  0  0  0  0  0
   44.6910   34.9910   45.7390 N   0  0  0  0  0  0  0  0  0  0  0  0
   49.7170   31.4560   36.2560 C   0  0  0  0  0  0  0  0  0  0  0  0
   49.1560   30.3730   35.6500 C   0  0  0  0  0  0  0  0  0  0  0  0
   50.2310   29.5960   35.1980 C   0  0  0  0  0  0  0  0  0  0  0  0
   51.3830   30.2500   35.5550 C   0  0  0  0  0  0  0  0  0  0  0  0
   51.0490   31.3370   36.1730 O   0  0  0  0  0  0  0  0  0  0  0  0
   52.7410   29.7970   35.2840 C   0  0  0  0  0  0  0  0  0  0  0  0
   53.7090   29.4990   36.2280 C   0  0  0  0  0  0  0  0  0  0  0  0
   54.8640   29.1050   35.6210 N   0  0  0  0  0  0  0  0  0  0  0  0
   54.5900   29.1660   34.3040 C   0  0  0  0  0  0  0  0  0  0  0  0
   53.3250   29.5770   34.0950 N   0  0  0  0  0  0  0  0  0  0  0  0
   48.4847   35.9705   42.6045 H   0  0  0  0  0  0  0  0  0  0  0  0
   49.5675   35.5527   40.3941 H   0  0  0  0  0  0  0  0  0  0  0  0
   43.7381   36.7658   45.0656 H   0  0  0  0  0  0  0  0  0  0  0  0
   44.9490   36.7519   42.8266 H   0  0  0  0  0  0  0  0  0  0  0  0
   45.7453   33.2248   46.2065 H   0  0  0  0  0  0  0  0  0  0  0  0
   48.0838   30.1541   35.5387 H   0  0  0  0  0  0  0  0  0  0  0  0
   50.1638   28.6401   34.6578 H   0  0  0  0  0  0  0  0  0  0  0  0
   53.5658   29.5703   37.3163 H   0  0  0  0  0  0  0  0  0  0  0  0
   55.3039   28.9139   33.5060 H   0  0  0  0  0  0  0  0  0  0  0  0
   52.8789   29.7020   33.1751 H   0  0  0  0  0  0  0  0  0  0  0  0
  1  9  1  0
  2  1  2  0
  3  4  1  0
  3  2  1  0
  4  5  2  0
  5  1  1  0
  6 13  1  0
  7  6  2  0
  8  7  1  0
  9  8  2  0
  9 10  1  0
 10  6  1  0
 11 16  2  0
 12 11  1  0
 13 12  2  0
 13 14  1  0
 14 15  2  0
 15 16  1  0
 17  4  1  0
 18 17  2  0
 19 20  2  0
 19 18  1  0
 20 21  1  0
 21 17  1  0
 22 20  1  0
 22 23  2  0
 24 23  1  0
 25 24  2  0
 26 25  1  0
 26 22  1  0
  7 27  1  0
  8 28  1  0
 11 29  1  0
 12 30  1  0
 15 31  1  0
 18 32  1  0
 19 33  1  0
 23 34  1  0
 25 35  1  0
 26 36  1  0
M  ISO  8  27  14  28  14  29  14  30  14  31  14  32  14  33  14  34  14
M  ISO  2  35  14  36   9
M  END
>  <minimizedAffinity>  (1) 
-5.98687267

>  <minimizedRMSD>  (1) 
0.567337453

$$$$
