
     RDKit          3D

 36 40  0  0  0  0  0  0  0  0999 V2000
   48.2570   33.8450   38.4310 C   0  0  0  0  0  0  0  0  0  0  0  0
   48.0950   34.4870   37.3020 N   0  0  0  0  0  0  0  0  0  0  0  0
   48.6100   33.7020   36.3790 O   0  0  0  0  0  0  0  0  0  0  0  0
   49.0810   32.6020   36.9160 C   0  0  0  0  0  0  0  0  0  0  0  0
   48.8630   32.6720   38.2550 N   0  0  0  0  0  0  0  0  0  0  0  0
   46.8140   34.7710   42.1480 C   0  0  0  0  0  0  0  0  0  0  0  0
   48.0040   35.3490   41.8730 C   0  0  0  0  0  0  0  0  0  0  0  0
   48.6000   35.1270   40.6690 C   0  0  0  0  0  0  0  0  0  0  0  0
   47.8620   34.2690   39.8010 C   0  0  0  0  0  0  0  0  0  0  0  0
   46.3660   33.8370   40.7610 S   0  0  0  0  0  0  0  0  0  0  0  0
   44.4480   35.9600   44.8450 C   0  0  0  0  0  0  0  0  0  0  0  0
   45.1280   35.9500   43.6130 C   0  0  0  0  0  0  0  0  0  0  0  0
   46.0430   34.9010   43.3760 C   0  0  0  0  0  0  0  0  0  0  0  0
   46.2140   33.9880   44.3160 N   0  0  0  0  0  0  0  0  0  0  0  0
   45.5530   34.0180   45.4870 C   0  0  0  0  0  0  0  0  0  0  0  0
   44.6770   34.9970   45.7490 N   0  0  0  0  0  0  0  0  0  0  0  0
   49.7290   31.4750   36.2660 C   0  0  0  0  0  0  0  0  0  0  0  0
   49.1790   30.4060   35.6240 C   0  0  0  0  0  0  0  0  0  0  0  0
   50.2520   29.6280   35.1900 C   0  0  0  0  0  0  0  0  0  0  0  0
   51.3990   30.2690   35.5930 C   0  0  0  0  0  0  0  0  0  0  0  0
   51.0630   31.3550   36.2250 O   0  0  0  0  0  0  0  0  0  0  0  0
   52.7610   29.8980   35.4050 N   0  0  0  0  0  0  0  0  0  0  0  0
   53.4770   29.5210   34.3740 N   0  0  0  0  0  0  0  0  0  0  0  0
   54.7510   29.2780   34.7340 C   0  0  0  0  0  0  0  0  0  0  0  0
   54.8490   29.5210   36.0970 C   0  0  0  0  0  0  0  0  0  0  0  0
   53.5730   29.9110   36.4920 C   0  0  0  0  0  0  0  0  0  0  0  0
   48.4892   35.9961   42.6186 H   0  0  0  0  0  0  0  0  0  0  0  0
   49.5670   35.5710   40.3900 H   0  0  0  0  0  0  0  0  0  0  0  0
   43.7266   36.7602   45.0668 H   0  0  0  0  0  0  0  0  0  0  0  0
   44.9527   36.7327   42.8603 H   0  0  0  0  0  0  0  0  0  0  0  0
   45.7332   33.2323   46.2355 H   0  0  0  0  0  0  0  0  0  0  0  0
   48.1085   30.1993   35.4781 H   0  0  0  0  0  0  0  0  0  0  0  0
   50.1918   28.6821   34.6318 H   0  0  0  0  0  0  0  0  0  0  0  0
   55.5641   28.9479   34.0707 H   0  0  0  0  0  0  0  0  0  0  0  0
   55.7438   29.4257   36.7296 H   0  0  0  0  0  0  0  0  0  0  0  0
   53.2728   30.1841   37.5144 H   0  0  0  0  0  0  0  0  0  0  0  0
  1  9  1  0
  2  1  2  0
  3  4  1  0
  3  2  1  0
  4  5  2  0
  5  1  1  0
  6 13  1  0
  7  6  2  0
  8  7  1  0
  9  8  2  0
  9 10  1  0
 10  6  1  0
 11 16  2  0
 12 11  1  0
 13 12  2  0
 13 14  1  0
 14 15  2  0
 15 16  1  0
 17  4  1  0
 18 17  2  0
 19 20  2  0
 19 18  1  0
 20 21  1  0
 21 17  1  0
 22 20  1  0
 22 26  1  0
 23 24  2  0
 23 22  1  0
 24 25  1  0
 25 26  2  0
  7 27  1  0
  8 28  1  0
 11 29  1  0
 12 30  1  0
 15 31  1  0
 18 32  1  0
 19 33  1  0
 24 34  1  0
 25 35  1  0
 26 36  1  0
M  ISO  8  27  14  28  14  29  14  30  14  31  14  32  14  33  14  34  14
M  ISO  2  35  14  36  14
M  END
>  <minimizedAffinity>  (1) 
-6.02216768

>  <minimizedRMSD>  (1) 
0.485712975

$$$$
