
     RDKit          3D

 36 40  0  0  0  0  0  0  0  0999 V2000
   48.2730   33.8400   38.4270 C   0  0  0  0  0  0  0  0  0  0  0  0
   48.1330   34.5060   37.2980 N   0  0  0  0  0  0  0  0  0  0  0  0
   48.6500   33.7090   36.3790 O   0  0  0  0  0  0  0  0  0  0  0  0
   49.0930   32.5980   36.9090 C   0  0  0  0  0  0  0  0  0  0  0  0
   48.8590   32.6550   38.2510 N   0  0  0  0  0  0  0  0  0  0  0  0
   46.7980   34.7670   42.1300 C   0  0  0  0  0  0  0  0  0  0  0  0
   47.9920   35.3420   41.8660 C   0  0  0  0  0  0  0  0  0  0  0  0
   48.5980   35.1190   40.6680 C   0  0  0  0  0  0  0  0  0  0  0  0
   47.8660   34.2620   39.7910 C   0  0  0  0  0  0  0  0  0  0  0  0
   46.3680   33.8400   40.7430 S   0  0  0  0  0  0  0  0  0  0  0  0
   44.4550   35.9560   44.8410 C   0  0  0  0  0  0  0  0  0  0  0  0
   45.1250   35.9510   43.5980 C   0  0  0  0  0  0  0  0  0  0  0  0
   46.0310   34.9070   43.3560 C   0  0  0  0  0  0  0  0  0  0  0  0
   46.2030   33.9910   44.3040 N   0  0  0  0  0  0  0  0  0  0  0  0
   45.5570   34.0130   45.4780 C   0  0  0  0  0  0  0  0  0  0  0  0
   44.6830   34.9990   45.7430 N   0  0  0  0  0  0  0  0  0  0  0  0
   49.7280   31.4640   36.2600 C   0  0  0  0  0  0  0  0  0  0  0  0
   49.1790   30.3820   35.6400 C   0  0  0  0  0  0  0  0  0  0  0  0
   50.2400   29.6110   35.2000 C   0  0  0  0  0  0  0  0  0  0  0  0
   51.3930   30.2550   35.5700 C   0  0  0  0  0  0  0  0  0  0  0  0
   51.0610   31.3420   36.1920 O   0  0  0  0  0  0  0  0  0  0  0  0
   52.7440   29.7740   35.2970 C   0  0  0  0  0  0  0  0  0  0  0  0
   53.3240   29.5330   34.0680 C   0  0  0  0  0  0  0  0  0  0  0  0
   54.6210   29.0860   34.2590 C   0  0  0  0  0  0  0  0  0  0  0  0
   54.8080   29.0640   35.6090 N   0  0  0  0  0  0  0  0  0  0  0  0
   53.6970   29.4710   36.1910 N   0  0  0  0  0  0  0  0  0  0  0  0
   48.4721   35.9876   42.6162 H   0  0  0  0  0  0  0  0  0  0  0  0
   49.5685   35.5610   40.3983 H   0  0  0  0  0  0  0  0  0  0  0  0
   43.7370   36.7577   45.0685 H   0  0  0  0  0  0  0  0  0  0  0  0
   44.9437   36.7352   42.8483 H   0  0  0  0  0  0  0  0  0  0  0  0
   45.7418   33.2254   46.2234 H   0  0  0  0  0  0  0  0  0  0  0  0
   48.1079   30.1652   35.5146 H   0  0  0  0  0  0  0  0  0  0  0  0
   50.1716   28.6582   34.6546 H   0  0  0  0  0  0  0  0  0  0  0  0
   52.8346   29.6734   33.0929 H   0  0  0  0  0  0  0  0  0  0  0  0
   55.3487   28.8069   33.4828 H   0  0  0  0  0  0  0  0  0  0  0  0
   55.6712   28.7778   36.0927 H   0  0  0  0  0  0  0  0  0  0  0  0
  1  9  1  0
  2  1  2  0
  3  4  1  0
  3  2  1  0
  4  5  2  0
  5  1  1  0
  6 13  1  0
  7  6  2  0
  8  7  1  0
  9  8  2  0
  9 10  1  0
 10  6  1  0
 11 16  2  0
 12 11  1  0
 13 12  2  0
 13 14  1  0
 14 15  2  0
 15 16  1  0
 17  4  1  0
 18 17  2  0
 19 20  2  0
 19 18  1  0
 20 21  1  0
 21 17  1  0
 22 20  1  0
 22 26  2  0
 23 24  2  0
 23 22  1  0
 24 25  1  0
 25 26  1  0
  7 27  1  0
  8 28  1  0
 11 29  1  0
 12 30  1  0
 15 31  1  0
 18 32  1  0
 19 33  1  0
 23 34  1  0
 24 35  1  0
 25 36  1  0
M  ISO  8  27  14  28  14  29  14  30  14  31  14  32  14  33  14  34  14
M  ISO  2  35  14  36   9
M  END
>  <minimizedAffinity>  (1) 
-5.97100592

>  <minimizedRMSD>  (1) 
0.582312882

$$$$
