
     RDKit          3D

 30 33  0  0  0  0  0  0  0  0999 V2000
   46.7920   34.7680   42.1320 C   0  0  0  0  0  0  0  0  0  0  0  0
   47.9910   35.3380   41.8740 C   0  0  0  0  0  0  0  0  0  0  0  0
   48.5990   35.1200   40.6750 C   0  0  0  0  0  0  0  0  0  0  0  0
   47.8610   34.2730   39.7920 C   0  0  0  0  0  0  0  0  0  0  0  0
   46.3600   33.8570   40.7400 S   0  0  0  0  0  0  0  0  0  0  0  0
   44.4560   35.9450   44.8530 C   0  0  0  0  0  0  0  0  0  0  0  0
   45.1180   35.9530   43.6030 C   0  0  0  0  0  0  0  0  0  0  0  0
   46.0240   34.9090   43.3610 C   0  0  0  0  0  0  0  0  0  0  0  0
   46.2110   33.9790   44.3060 N   0  0  0  0  0  0  0  0  0  0  0  0
   45.5590   34.0140   45.4770 C   0  0  0  0  0  0  0  0  0  0  0  0
   44.6880   34.9870   45.7510 N   0  0  0  0  0  0  0  0  0  0  0  0
   48.2720   33.8600   38.4250 C   0  0  0  0  0  0  0  0  0  0  0  0
   48.0710   34.5020   37.2950 N   0  0  0  0  0  0  0  0  0  0  0  0
   48.6230   33.7320   36.3740 O   0  0  0  0  0  0  0  0  0  0  0  0
   49.1440   32.6540   36.9120 C   0  0  0  0  0  0  0  0  0  0  0  0
   48.9290   32.7130   38.2560 N   0  0  0  0  0  0  0  0  0  0  0  0
   49.8430   31.5520   36.2670 C   0  0  0  0  0  0  0  0  0  0  0  0
   49.4160   30.7040   35.2900 C   0  0  0  0  0  0  0  0  0  0  0  0
   50.4810   29.8390   35.0430 C   0  0  0  0  0  0  0  0  0  0  0  0
   51.5020   30.2070   35.8870 C   0  0  0  0  0  0  0  0  0  0  0  0
   51.0990   31.2140   36.5930 O   0  0  0  0  0  0  0  0  0  0  0  0
   53.1340   29.4980   36.0660 S   0  0  0  0  0  0  0  0  0  0  0  0
   48.4733   35.9753   42.6298 H   0  0  0  0  0  0  0  0  0  0  0  0
   49.5727   35.5576   40.4096 H   0  0  0  0  0  0  0  0  0  0  0  0
   43.7369   36.7434   45.0885 H   0  0  0  0  0  0  0  0  0  0  0  0
   44.9317   36.7394   42.8568 H   0  0  0  0  0  0  0  0  0  0  0  0
   45.7451   33.2281   46.2238 H   0  0  0  0  0  0  0  0  0  0  0  0
   48.4326   30.7022   34.7971 H   0  0  0  0  0  0  0  0  0  0  0  0
   50.5007   29.0177   34.3115 H   0  0  0  0  0  0  0  0  0  0  0  0
   53.4322   29.3685   37.3969 H   0  0  0  0  0  0  0  0  0  0  0  0
  1  8  1  0
  2  1  2  0
  3  2  1  0
  4  3  2  0
  4  5  1  0
  5  1  1  0
  6 11  2  0
  7  6  1  0
  8  7  2  0
  8  9  1  0
  9 10  2  0
 10 11  1  0
 12  4  1  0
 13 12  2  0
 14 15  1  0
 14 13  1  0
 15 16  2  0
 16 12  1  0
 17 21  1  0
 17 15  1  0
 18 17  2  0
 19 18  1  0
 19 20  2  0
 20 22  1  0
 20 21  1  0
  2 23  1  0
  3 24  1  0
  6 25  1  0
  7 26  1  0
 10 27  1  0
 18 28  1  0
 19 29  1  0
 22 30  1  0
M  ISO  8  23  14  24  14  25  14  26  14  27  14  28  14  29  14  30  11
M  END
>  <minimizedAffinity>  (1) 
-5.84993553

>  <minimizedRMSD>  (1) 
0.0795931369

$$$$
