
     RDKit          3D

 35 38  0  0  0  0  0  0  0  0999 V2000
   46.7830   34.7660   42.1300 C   0  0  0  0  0  0  0  0  0  0  0  0
   47.9670   35.3540   41.8570 C   0  0  0  0  0  0  0  0  0  0  0  0
   48.5710   35.1060   40.6640 C   0  0  0  0  0  0  0  0  0  0  0  0
   47.8550   34.2170   39.8070 C   0  0  0  0  0  0  0  0  0  0  0  0
   46.3560   33.7910   40.7640 S   0  0  0  0  0  0  0  0  0  0  0  0
   44.4430   35.9980   44.8320 C   0  0  0  0  0  0  0  0  0  0  0  0
   45.1190   35.9810   43.5850 C   0  0  0  0  0  0  0  0  0  0  0  0
   46.0100   34.9240   43.3540 C   0  0  0  0  0  0  0  0  0  0  0  0
   46.1710   34.0070   44.3050 N   0  0  0  0  0  0  0  0  0  0  0  0
   45.5150   34.0490   45.4750 C   0  0  0  0  0  0  0  0  0  0  0  0
   44.6600   35.0350   45.7370 N   0  0  0  0  0  0  0  0  0  0  0  0
   48.2810   33.7760   38.4530 C   0  0  0  0  0  0  0  0  0  0  0  0
   47.9510   34.2900   37.2950 N   0  0  0  0  0  0  0  0  0  0  0  0
   48.5870   33.5480   36.4070 O   0  0  0  0  0  0  0  0  0  0  0  0
   49.2840   32.6110   36.9910 C   0  0  0  0  0  0  0  0  0  0  0  0
   49.1120   32.7220   38.3460 N   0  0  0  0  0  0  0  0  0  0  0  0
   50.1270   31.5800   36.3960 C   0  0  0  0  0  0  0  0  0  0  0  0
   49.8950   30.7730   35.3210 C   0  0  0  0  0  0  0  0  0  0  0  0
   51.0300   29.9790   35.1920 C   0  0  0  0  0  0  0  0  0  0  0  0
   51.8930   30.3440   36.1960 C   0  0  0  0  0  0  0  0  0  0  0  0
   51.3400   31.2850   36.8870 O   0  0  0  0  0  0  0  0  0  0  0  0
   53.2410   29.8100   36.5080 C   0  0  0  0  0  0  0  0  0  0  0  0
   53.9580   30.7600   37.4740 C   0  0  0  0  0  0  0  0  0  0  0  0
   48.4375   36.0254   42.5904 H   0  0  0  0  0  0  0  0  0  0  0  0
   49.5348   35.5549   40.3819 H   0  0  0  0  0  0  0  0  0  0  0  0
   43.7347   36.8089   45.0575 H   0  0  0  0  0  0  0  0  0  0  0  0
   44.9510   36.7643   42.8312 H   0  0  0  0  0  0  0  0  0  0  0  0
   45.6853   33.2617   46.2241 H   0  0  0  0  0  0  0  0  0  0  0  0
   48.9962   30.7540   34.6871 H   0  0  0  0  0  0  0  0  0  0  0  0
   51.2034   29.2050   34.4298 H   0  0  0  0  0  0  0  0  0  0  0  0
   53.1434   28.8185   36.9742 H   0  0  0  0  0  0  0  0  0  0  0  0
   53.8243   29.7237   35.5794 H   0  0  0  0  0  0  0  0  0  0  0  0
   53.7358   30.4656   38.5103 H   0  0  0  0  0  0  0  0  0  0  0  0
   55.0432   30.7070   37.3024 H   0  0  0  0  0  0  0  0  0  0  0  0
   53.6095   31.7891   37.3024 H   0  0  0  0  0  0  0  0  0  0  0  0
  1  8  1  0
  2  1  2  0
  3  2  1  0
  4  3  2  0
  4  5  1  0
  5  1  1  0
  6 11  2  0
  7  6  1  0
  8  7  2  0
  8  9  1  0
  9 10  2  0
 10 11  1  0
 12  4  1  0
 13 12  2  0
 14 15  1  0
 14 13  1  0
 15 16  2  0
 16 12  1  0
 17 21  1  0
 17 15  1  0
 18 17  2  0
 19 18  1  0
 19 20  2  0
 20 22  1  0
 20 21  1  0
 22 23  1  0
  2 24  1  0
  3 25  1  0
  6 26  1  0
  7 27  1  0
 10 28  1  0
 18 29  1  0
 19 30  1  0
 22 31  1  0
 22 32  1  0
 23 33  1  0
 23 34  1  0
 23 35  1  0
M  ISO  8  24  14  25  14  26  14  27  14  28  14  29  14  30  14  31   8
M  ISO  4  32   8  33   8  34   8  35   8
M  END
>  <minimizedAffinity>  (1) 
-5.71763134

>  <minimizedRMSD>  (1) 
0.46078828

$$$$
