
     RDKit          3D

 31 34  0  0  0  0  0  0  0  0999 V2000
   46.8120   34.7700   42.1260 C   0  0  0  0  0  0  0  0  0  0  0  0
   48.0100   35.3370   41.8550 C   0  0  0  0  0  0  0  0  0  0  0  0
   48.6000   35.1180   40.6570 C   0  0  0  0  0  0  0  0  0  0  0  0
   47.8570   34.2740   39.7730 C   0  0  0  0  0  0  0  0  0  0  0  0
   46.3640   33.8550   40.7230 S   0  0  0  0  0  0  0  0  0  0  0  0
   44.4630   35.9420   44.8340 C   0  0  0  0  0  0  0  0  0  0  0  0
   45.1310   35.9500   43.5910 C   0  0  0  0  0  0  0  0  0  0  0  0
   46.0450   34.9000   43.3530 C   0  0  0  0  0  0  0  0  0  0  0  0
   46.2130   33.9940   44.2950 N   0  0  0  0  0  0  0  0  0  0  0  0
   45.5670   34.0120   45.4590 C   0  0  0  0  0  0  0  0  0  0  0  0
   44.6920   34.9830   45.7340 N   0  0  0  0  0  0  0  0  0  0  0  0
   48.2670   33.8690   38.4020 C   0  0  0  0  0  0  0  0  0  0  0  0
   48.1370   34.5250   37.2890 N   0  0  0  0  0  0  0  0  0  0  0  0
   48.6590   33.7340   36.3640 O   0  0  0  0  0  0  0  0  0  0  0  0
   49.0990   32.6190   36.8920 C   0  0  0  0  0  0  0  0  0  0  0  0
   48.8570   32.6760   38.2250 N   0  0  0  0  0  0  0  0  0  0  0  0
   49.7370   31.4920   36.2380 C   0  0  0  0  0  0  0  0  0  0  0  0
   49.2180   30.5720   35.3770 C   0  0  0  0  0  0  0  0  0  0  0  0
   50.2740   29.7120   35.0580 C   0  0  0  0  0  0  0  0  0  0  0  0
   51.3760   30.1570   35.7420 C   0  0  0  0  0  0  0  0  0  0  0  0
   51.0310   31.2000   36.4250 O   0  0  0  0  0  0  0  0  0  0  0  0
   52.7030   29.5560   35.7060 C   0  0  0  0  0  0  0  0  0  0  0  0
   53.4210   29.6850   34.6670 O   0  0  0  0  0  0  0  0  0  0  0  0
   48.5024   35.9733   42.6052 H   0  0  0  0  0  0  0  0  0  0  0  0
   49.5726   35.5539   40.3850 H   0  0  0  0  0  0  0  0  0  0  0  0
   43.7414   36.7394   45.0652 H   0  0  0  0  0  0  0  0  0  0  0  0
   44.9486   36.7361   42.8435 H   0  0  0  0  0  0  0  0  0  0  0  0
   45.7553   33.2211   46.2000 H   0  0  0  0  0  0  0  0  0  0  0  0
   48.1828   30.5171   35.0090 H   0  0  0  0  0  0  0  0  0  0  0  0
   50.2289   28.8428   34.3854 H   0  0  0  0  0  0  0  0  0  0  0  0
   53.0801   28.9943   36.5733 H   0  0  0  0  0  0  0  0  0  0  0  0
  1  8  1  0
  2  1  2  0
  3  2  1  0
  4  3  2  0
  4  5  1  0
  5  1  1  0
  6 11  2  0
  7  6  1  0
  8  7  2  0
  8  9  1  0
  9 10  2  0
 10 11  1  0
 12  4  1  0
 13 12  2  0
 14 15  1  0
 14 13  1  0
 15 16  2  0
 16 12  1  0
 17 21  1  0
 17 15  1  0
 18 17  2  0
 19 18  1  0
 19 20  2  0
 20 21  1  0
 22 20  1  0
 23 22  2  0
  2 24  1  0
  3 25  1  0
  6 26  1  0
  7 27  1  0
 10 28  1  0
 18 29  1  0
 19 30  1  0
 22 31  1  0
M  ISO  8  24  14  25  14  26  14  27  14  28  14  29  14  30  14  31   6
M  END
>  <minimizedAffinity>  (1) 
-5.71225786

>  <minimizedRMSD>  (1) 
0.136419594

$$$$
