
     RDKit          3D

 38 42  0  0  0  0  0  0  0  0999 V2000
   48.3160   33.7930   38.3720 C   0  0  0  0  0  0  0  0  0  0  0  0
   47.9870   34.3340   37.2170 N   0  0  0  0  0  0  0  0  0  0  0  0
   48.6090   33.5830   36.3270 O   0  0  0  0  0  0  0  0  0  0  0  0
   49.2920   32.6190   36.9060 C   0  0  0  0  0  0  0  0  0  0  0  0
   49.1120   32.7430   38.2420 N   0  0  0  0  0  0  0  0  0  0  0  0
   46.8280   34.7710   42.0540 C   0  0  0  0  0  0  0  0  0  0  0  0
   48.0140   35.3450   41.8010 C   0  0  0  0  0  0  0  0  0  0  0  0
   48.6230   35.1000   40.6010 C   0  0  0  0  0  0  0  0  0  0  0  0
   47.8970   34.2360   39.7400 C   0  0  0  0  0  0  0  0  0  0  0  0
   46.3880   33.8190   40.6830 S   0  0  0  0  0  0  0  0  0  0  0  0
   44.4680   35.9980   44.7440 C   0  0  0  0  0  0  0  0  0  0  0  0
   45.1510   35.9730   43.5150 C   0  0  0  0  0  0  0  0  0  0  0  0
   46.0460   34.9270   43.2820 C   0  0  0  0  0  0  0  0  0  0  0  0
   46.2100   34.0080   44.2280 N   0  0  0  0  0  0  0  0  0  0  0  0
   45.5420   34.0580   45.3970 C   0  0  0  0  0  0  0  0  0  0  0  0
   44.6800   35.0440   45.6520 N   0  0  0  0  0  0  0  0  0  0  0  0
   50.1130   31.5790   36.2950 C   0  0  0  0  0  0  0  0  0  0  0  0
   49.9680   30.9590   35.0810 C   0  0  0  0  0  0  0  0  0  0  0  0
   51.0360   30.0480   35.0140 C   0  0  0  0  0  0  0  0  0  0  0  0
   51.7540   30.1800   36.1920 C   0  0  0  0  0  0  0  0  0  0  0  0
   51.1970   31.0760   36.9240 O   0  0  0  0  0  0  0  0  0  0  0  0
   53.2110   29.2830   36.6650 S   0  0  0  0  0  0  0  0  0  0  0  0
   54.5700   29.8390   35.6330 C   0  0  0  0  0  0  0  0  0  0  0  0
   55.6880   30.4260   36.1900 C   0  0  0  0  0  0  0  0  0  0  0  0
   56.7630   30.8750   35.4670 C   0  0  0  0  0  0  0  0  0  0  0  0
   56.7300   30.7350   34.1190 N   0  0  0  0  0  0  0  0  0  0  0  0
   55.6280   30.1570   33.5640 C   0  0  0  0  0  0  0  0  0  0  0  0
   54.5700   29.7160   34.2940 N   0  0  0  0  0  0  0  0  0  0  0  0
   48.4883   36.0012   42.5456 H   0  0  0  0  0  0  0  0  0  0  0  0
   49.5946   35.5363   40.3260 H   0  0  0  0  0  0  0  0  0  0  0  0
   43.7554   36.8083   44.9577 H   0  0  0  0  0  0  0  0  0  0  0  0
   44.9850   36.7548   42.7592 H   0  0  0  0  0  0  0  0  0  0  0  0
   45.7096   33.2753   46.1515 H   0  0  0  0  0  0  0  0  0  0  0  0
   49.1878   31.1356   34.3259 H   0  0  0  0  0  0  0  0  0  0  0  0
   51.2595   29.3610   34.1845 H   0  0  0  0  0  0  0  0  0  0  0  0
   55.7186   30.5410   37.2835 H   0  0  0  0  0  0  0  0  0  0  0  0
   57.6278   31.3358   35.9667 H   0  0  0  0  0  0  0  0  0  0  0  0
   55.5930   30.0416   32.4706 H   0  0  0  0  0  0  0  0  0  0  0  0
  1  9  1  0
  2  1  2  0
  3  4  1  0
  3  2  1  0
  4  5  2  0
  5  1  1  0
  6 13  1  0
  7  6  2  0
  8  7  1  0
  9  8  2  0
  9 10  1  0
 10  6  1  0
 11 16  2  0
 12 11  1  0
 13 12  2  0
 13 14  1  0
 14 15  2  0
 15 16  1  0
 17  4  1  0
 17 21  1  0
 18 17  2  0
 19 18  1  0
 19 20  2  0
 20 22  1  0
 20 21  1  0
 23 24  2  0
 23 22  1  0
 25 24  1  0
 26 25  2  0
 27 26  1  0
 27 28  2  0
 28 23  1  0
  7 29  1  0
  8 30  1  0
 11 31  1  0
 12 32  1  0
 15 33  1  0
 18 34  1  0
 19 35  1  0
 24 36  1  0
 25 37  1  0
 27 38  1  0
M  ISO  8  29  14  30  14  31  14  32  14  33  14  34  14  35  14  36  14
M  ISO  2  37  14  38  14
M  END
>  <minimizedAffinity>  (1) 
-6.29305744

>  <minimizedRMSD>  (1) 
0.822046995

$$$$
