
     RDKit          3D

 37 41  0  0  0  0  0  0  0  0999 V2000
   46.7880   34.7690   42.1410 C   0  0  0  0  0  0  0  0  0  0  0  0
   47.9800   35.3370   41.8810 C   0  0  0  0  0  0  0  0  0  0  0  0
   48.5770   35.1110   40.6850 C   0  0  0  0  0  0  0  0  0  0  0  0
   47.8430   34.2670   39.8080 C   0  0  0  0  0  0  0  0  0  0  0  0
   46.3560   33.8570   40.7600 S   0  0  0  0  0  0  0  0  0  0  0  0
   44.4480   35.9580   44.8630 C   0  0  0  0  0  0  0  0  0  0  0  0
   45.1180   35.9510   43.6190 C   0  0  0  0  0  0  0  0  0  0  0  0
   46.0180   34.9090   43.3750 C   0  0  0  0  0  0  0  0  0  0  0  0
   46.1940   33.9900   44.3210 N   0  0  0  0  0  0  0  0  0  0  0  0
   45.5420   34.0270   45.4880 C   0  0  0  0  0  0  0  0  0  0  0  0
   44.6740   35.0070   45.7580 N   0  0  0  0  0  0  0  0  0  0  0  0
   48.2630   33.8570   38.4370 C   0  0  0  0  0  0  0  0  0  0  0  0
   48.0350   34.4670   37.3040 N   0  0  0  0  0  0  0  0  0  0  0  0
   48.6120   33.7110   36.3880 O   0  0  0  0  0  0  0  0  0  0  0  0
   49.1780   32.6690   36.9360 C   0  0  0  0  0  0  0  0  0  0  0  0
   48.9670   32.7350   38.2790 N   0  0  0  0  0  0  0  0  0  0  0  0
   49.9220   31.5800   36.2970 C   0  0  0  0  0  0  0  0  0  0  0  0
   49.7050   30.9620   35.1030 C   0  0  0  0  0  0  0  0  0  0  0  0
   50.7150   30.0020   35.0010 C   0  0  0  0  0  0  0  0  0  0  0  0
   51.4880   30.0950   36.1420 C   0  0  0  0  0  0  0  0  0  0  0  0
   51.0010   31.0240   36.8810 O   0  0  0  0  0  0  0  0  0  0  0  0
   52.9120   29.1330   36.5760 S   0  0  0  0  0  0  0  0  0  0  0  0
   54.3660   30.2000   36.5760 C   0  0  0  0  0  0  0  0  0  0  0  0
   55.4520   30.0640   37.5610 C   0  0  0  0  0  0  0  0  0  0  0  0
   54.4640   31.1240   37.7980 C   0  0  0  0  0  0  0  0  0  0  0  0
   48.4651   35.9783   42.6315 H   0  0  0  0  0  0  0  0  0  0  0  0
   49.5508   35.5457   40.4151 H   0  0  0  0  0  0  0  0  0  0  0  0
   43.7315   36.7609   45.0909 H   0  0  0  0  0  0  0  0  0  0  0  0
   44.9382   36.7363   42.8701 H   0  0  0  0  0  0  0  0  0  0  0  0
   45.7224   33.2405   46.2356 H   0  0  0  0  0  0  0  0  0  0  0  0
   48.9070   31.1730   34.3760 H   0  0  0  0  0  0  0  0  0  0  0  0
   50.8666   29.3016   34.1664 H   0  0  0  0  0  0  0  0  0  0  0  0
   54.3696   30.2615   35.4777 H   0  0  0  0  0  0  0  0  0  0  0  0
   55.4750   29.1868   38.2243 H   0  0  0  0  0  0  0  0  0  0  0  0
   56.5493   30.0507   37.4856 H   0  0  0  0  0  0  0  0  0  0  0  0
   54.7443   32.1803   37.6724 H   0  0  0  0  0  0  0  0  0  0  0  0
   53.7965   31.4049   38.6260 H   0  0  0  0  0  0  0  0  0  0  0  0
  1  8  1  0
  2  1  2  0
  3  2  1  0
  4  3  2  0
  4  5  1  0
  5  1  1  0
  6 11  2  0
  7  6  1  0
  8  7  2  0
  8  9  1  0
  9 10  2  0
 10 11  1  0
 12  4  1  0
 13 12  2  0
 14 15  1  0
 14 13  1  0
 15 16  2  0
 16 12  1  0
 17 21  1  0
 17 15  1  0
 18 17  2  0
 19 18  1  0
 19 20  2  0
 20 22  1  0
 20 21  1  0
 23 22  1  0
 23 24  1  0
 23 25  1  0
 24 25  1  0
  2 26  1  0
  3 27  1  0
  6 28  1  0
  7 29  1  0
 10 30  1  0
 18 31  1  0
 19 32  1  0
 23 33  1  0
 24 34  1  0
 24 35  1  0
 25 36  1  0
 25 37  1  0
M  ISO  8  26  14  27  14  28  14  29  14  30  14  31  14  32  14  33  13
M  ISO  4  34  13  35  13  36  13  37  13
M  END
>  <minimizedAffinity>  (1) 
-5.8513279

>  <minimizedRMSD>  (1) 
0.803165078

$$$$
