
     RDKit          3D

 36 40  0  0  0  0  0  0  0  0999 V2000
   48.2720   33.8390   38.3520 C   0  0  0  0  0  0  0  0  0  0  0  0
   48.2250   34.5490   37.2510 N   0  0  0  0  0  0  0  0  0  0  0  0
   48.6770   33.7300   36.3150 O   0  0  0  0  0  0  0  0  0  0  0  0
   48.9920   32.5590   36.8250 C   0  0  0  0  0  0  0  0  0  0  0  0
   48.7350   32.6050   38.1580 N   0  0  0  0  0  0  0  0  0  0  0  0
   46.8320   34.7670   42.0640 C   0  0  0  0  0  0  0  0  0  0  0  0
   48.0230   35.3330   41.8100 C   0  0  0  0  0  0  0  0  0  0  0  0
   48.6150   35.1020   40.6010 C   0  0  0  0  0  0  0  0  0  0  0  0
   47.8770   34.2650   39.7310 C   0  0  0  0  0  0  0  0  0  0  0  0
   46.3680   33.8450   40.6810 S   0  0  0  0  0  0  0  0  0  0  0  0
   44.4750   35.9620   44.7710 C   0  0  0  0  0  0  0  0  0  0  0  0
   45.1460   35.9540   43.5380 C   0  0  0  0  0  0  0  0  0  0  0  0
   46.0570   34.9060   43.3020 C   0  0  0  0  0  0  0  0  0  0  0  0
   46.2410   33.9810   44.2420 N   0  0  0  0  0  0  0  0  0  0  0  0
   45.5730   34.0340   45.4120 C   0  0  0  0  0  0  0  0  0  0  0  0
   44.6950   35.0190   45.6730 N   0  0  0  0  0  0  0  0  0  0  0  0
   49.5190   31.3910   36.1490 C   0  0  0  0  0  0  0  0  0  0  0  0
   48.8880   30.3400   35.5780 C   0  0  0  0  0  0  0  0  0  0  0  0
   49.8800   29.5080   35.0760 C   0  0  0  0  0  0  0  0  0  0  0  0
   51.0880   30.0980   35.3700 C   0  0  0  0  0  0  0  0  0  0  0  0
   50.8430   31.1990   35.9990 O   0  0  0  0  0  0  0  0  0  0  0  0
   52.7200   29.5140   34.9880 S   0  0  0  0  0  0  0  0  0  0  0  0
   53.8270   29.6870   36.3980 C   0  0  0  0  0  0  0  0  0  0  0  0
   53.4340   29.2430   37.6560 C   0  0  0  0  0  0  0  0  0  0  0  0
   54.9190   29.6560   38.7100 S   0  0  0  0  0  0  0  0  0  0  0  0
   55.8010   30.3690   37.1840 C   0  0  0  0  0  0  0  0  0  0  0  0
   55.0350   30.2210   36.3420 N   0  0  0  0  0  0  0  0  0  0  0  0
   48.5124   35.9704   42.5612 H   0  0  0  0  0  0  0  0  0  0  0  0
   49.5889   35.5328   40.3253 H   0  0  0  0  0  0  0  0  0  0  0  0
   43.7553   36.7644   44.9908 H   0  0  0  0  0  0  0  0  0  0  0  0
   44.9673   36.7359   42.7852 H   0  0  0  0  0  0  0  0  0  0  0  0
   45.7497   33.2555   46.1688 H   0  0  0  0  0  0  0  0  0  0  0  0
   47.8017   30.1762   35.5221 H   0  0  0  0  0  0  0  0  0  0  0  0
   49.7288   28.5572   34.5440 H   0  0  0  0  0  0  0  0  0  0  0  0
   52.4876   28.7685   37.9546 H   0  0  0  0  0  0  0  0  0  0  0  0
   56.8042   30.8159   37.1227 H   0  0  0  0  0  0  0  0  0  0  0  0
  1  9  1  0
  2  1  2  0
  3  4  1  0
  3  2  1  0
  4  5  2  0
  5  1  1  0
  6 13  1  0
  7  6  2  0
  8  7  1  0
  9  8  2  0
  9 10  1  0
 10  6  1  0
 11 16  2  0
 12 11  1  0
 13 12  2  0
 13 14  1  0
 14 15  2  0
 15 16  1  0
 17  4  1  0
 18 17  2  0
 19 20  2  0
 19 18  1  0
 20 21  1  0
 21 17  1  0
 22 20  1  0
 22 23  1  0
 23 24  2  0
 24 25  1  0
 26 25  1  0
 27 23  1  0
 27 26  2  0
  7 28  1  0
  8 29  1  0
 11 30  1  0
 12 31  1  0
 15 32  1  0
 18 33  1  0
 19 34  1  0
 24 35  1  0
 26 36  1  0
M  ISO  8  28  14  29  14  30  14  31  14  32  14  33  14  34  14  35  14
M  ISO  1  36  14
M  END
>  <minimizedAffinity>  (1) 
-5.88053226

>  <minimizedRMSD>  (1) 
0.75347513

$$$$
