
     RDKit          3D

 20 21  0  0  0  0  0  0  0  0999 V2000
   44.5110   36.0600   44.4970 C   0  0  0  0  0  0  0  0  0  0  0  0
   44.6280   35.6260   43.1510 C   0  0  0  0  0  0  0  0  0  0  0  0
   45.0770   34.3050   42.9230 C   0  0  0  0  0  0  0  0  0  0  0  0
   45.3720   33.5170   44.0030 N   0  0  0  0  0  0  0  0  0  0  0  0
   45.2390   33.9900   45.2700 C   0  0  0  0  0  0  0  0  0  0  0  0
   44.8190   35.2310   45.5180 N   0  0  0  0  0  0  0  0  0  0  0  0
   45.5460   33.1730   46.4010 N   0  0  0  0  0  0  0  0  0  0  0  0
   45.1140   33.2120   47.6620 N   0  0  0  0  0  0  0  0  0  0  0  0
   45.6840   32.2330   48.3810 C   0  0  0  0  0  0  0  0  0  0  0  0
   46.5150   31.5400   47.5400 C   0  0  0  0  0  0  0  0  0  0  0  0
   46.4130   32.1540   46.2840 C   0  0  0  0  0  0  0  0  0  0  0  0
   47.1640   31.7040   45.0720 C   0  0  0  0  0  0  0  0  0  0  0  0
   46.3120   31.1310   44.1720 F   0  0  0  0  0  0  0  0  0  0  0  0
   48.0340   30.6720   45.4500 F   0  0  0  0  0  0  0  0  0  0  0  0
   47.8090   32.7240   44.4260 F   0  0  0  0  0  0  0  0  0  0  0  0
   44.1659   37.0823   44.7111 H   0  0  0  0  0  0  0  0  0  0  0  0
   44.3780   36.2944   42.3139 H   0  0  0  0  0  0  0  0  0  0  0  0
   45.1871   33.9183   41.8991 H   0  0  0  0  0  0  0  0  0  0  0  0
   45.5155   32.0251   49.4480 H   0  0  0  0  0  0  0  0  0  0  0  0
   47.1394   30.6724   47.7996 H   0  0  0  0  0  0  0  0  0  0  0  0
  1  6  2  0
  2  1  1  0
  3  2  2  0
  3  4  1  0
  4  5  2  0
  5  6  1  0
  5  7  1  0
  7  8  1  0
  8  9  2  0
 10  9  1  0
 11  7  1  0
 11 10  2  0
 12 14  1  0
 12 11  1  0
 13 12  1  0
 15 12  1  0
  1 16  1  0
  2 17  1  0
  3 18  1  0
  9 19  1  0
 10 20  1  0
M  ISO  5  16  14  17  14  18  14  19  14  20  14
M  END
>  <minimizedAffinity>  (1) 
-4.35945415

>  <minimizedRMSD>  (1) 
1.17654657

$$$$
