
     RDKit          3D

 20 21  0  0  0  0  0  0  0  0999 V2000
   44.5190   36.0500   44.4720 C   0  0  0  0  0  0  0  0  0  0  0  0
   44.6320   35.5860   43.1290 C   0  0  0  0  0  0  0  0  0  0  0  0
   45.0580   34.2760   42.9110 C   0  0  0  0  0  0  0  0  0  0  0  0
   45.3350   33.5320   43.9980 N   0  0  0  0  0  0  0  0  0  0  0  0
   45.2250   33.9770   45.2530 C   0  0  0  0  0  0  0  0  0  0  0  0
   44.8170   35.2380   45.5200 N   0  0  0  0  0  0  0  0  0  0  0  0
   45.5310   33.1730   46.4020 N   0  0  0  0  0  0  0  0  0  0  0  0
   45.0970   33.2480   47.6730 N   0  0  0  0  0  0  0  0  0  0  0  0
   45.6630   32.2810   48.3790 C   0  0  0  0  0  0  0  0  0  0  0  0
   46.4800   31.5660   47.5490 C   0  0  0  0  0  0  0  0  0  0  0  0
   46.3910   32.1490   46.2640 C   0  0  0  0  0  0  0  0  0  0  0  0
   47.1960   31.5440   45.2200 C   0  0  0  0  0  0  0  0  0  0  0  0
   47.4770   30.3360   45.0480 O   0  0  0  0  0  0  0  0  0  0  0  0
   47.8260   32.2000   44.1830 O   0  0  0  0  0  0  0  0  0  0  0  0
   44.1856   37.0807   44.6629 H   0  0  0  0  0  0  0  0  0  0  0  0
   44.3887   36.2463   42.2835 H   0  0  0  0  0  0  0  0  0  0  0  0
   45.1631   33.8684   41.8947 H   0  0  0  0  0  0  0  0  0  0  0  0
   45.5030   32.0867   49.4498 H   0  0  0  0  0  0  0  0  0  0  0  0
   47.0937   30.6971   47.8290 H   0  0  0  0  0  0  0  0  0  0  0  0
   48.3539   31.6872   43.5209 H   0  0  0  0  0  0  0  0  0  0  0  0
  1  6  2  0
  2  1  1  0
  3  2  2  0
  3  4  1  0
  4  5  2  0
  5  6  1  0
  5  7  1  0
  7  8  1  0
  8  9  2  0
 10  9  1  0
 11  7  1  0
 11 10  2  0
 12 11  1  0
 13 12  2  0
 14 12  1  0
  1 15  1  0
  2 16  1  0
  3 17  1  0
  9 18  1  0
 10 19  1  0
 14 20  1  0
M  ISO  6  15  14  16  14  17  14  18  14  19  14  20   3
M  END
>  <minimizedAffinity>  (1) 
-4.08238983

>  <minimizedRMSD>  (1) 
1.12860441

$$$$
