
     RDKit          3D

 40 43  0  0  1  0  0  0  0  0999 V2000
   48.3110   32.9510   42.4090 C   0  0  2  0  0  0  0  0  0  0  0  0
   44.7220   35.1940   45.5430 C   0  0  0  0  0  0  0  0  0  0  0  0
   44.5260   35.9400   44.3870 C   0  0  0  0  0  0  0  0  0  0  0  0
   45.1130   35.4580   43.2060 C   0  0  0  0  0  0  0  0  0  0  0  0
   45.8190   34.3070   43.3020 N   0  0  0  0  0  0  0  0  0  0  0  0
   46.0010   33.6060   44.4020 C   0  0  0  0  0  0  0  0  0  0  0  0
   45.4450   34.0540   45.5400 N   0  0  0  0  0  0  0  0  0  0  0  0
   46.7460   32.3990   44.4520 N   0  0  0  0  0  0  0  0  0  0  0  0
   46.6460   31.3560   45.2780 N   0  0  0  0  0  0  0  0  0  0  0  0
   47.5640   30.4480   44.9370 C   0  0  0  0  0  0  0  0  0  0  0  0
   48.2640   30.9360   43.8610 C   0  0  0  0  0  0  0  0  0  0  0  0
   47.7330   32.1920   43.5550 C   0  0  0  0  0  0  0  0  0  0  0  0
   48.7370   34.3070   42.9150 C   0  0  0  0  0  0  0  0  0  0  0  0
   47.3270   33.0900   41.2880 C   0  0  0  0  0  0  0  0  0  0  0  0
   48.0660   32.7110   40.0440 N   0  0  0  0  0  0  0  0  0  0  0  0
   49.3050   32.2040   39.9280 C   0  0  0  0  0  0  0  0  0  0  0  0
   49.6420   32.0250   38.6410 N   0  0  0  0  0  0  0  0  0  0  0  0
   48.6330   32.4100   37.8780 C   0  0  0  0  0  0  0  0  0  0  0  0
   48.4170   32.4540   36.5290 C   0  0  0  0  0  0  0  0  0  0  0  0
   49.2850   32.0750   35.7100 O   0  0  0  0  0  0  0  0  0  0  0  0
   47.2260   32.9240   36.0520 N   0  0  0  0  0  0  0  0  0  0  0  0
   46.3060   33.3270   36.9530 C   0  0  0  0  0  0  0  0  0  0  0  0
   45.0420   33.8270   36.4970 N   0  0  0  0  0  0  0  0  0  0  0  0
   46.4660   33.3060   38.3100 N   0  0  0  0  0  0  0  0  0  0  0  0
   47.6570   32.8360   38.7490 C   0  0  0  0  0  0  0  0  0  0  0  0
   49.1756   32.4036   42.0055 H   0  0  0  0  0  0  0  0  0  0  0  0
   44.2758   35.5420   46.4863 H   0  0  0  0  0  0  0  0  0  0  0  0
   43.9362   36.8685   44.3967 H   0  0  0  0  0  0  0  0  0  0  0  0
   45.0044   35.9899   42.2493 H   0  0  0  0  0  0  0  0  0  0  0  0
   47.7302   29.4794   45.4312 H   0  0  0  0  0  0  0  0  0  0  0  0
   49.0895   30.4318   43.3372 H   0  0  0  0  0  0  0  0  0  0  0  0
   48.7363   34.3047   44.0150 H   0  0  0  0  0  0  0  0  0  0  0  0
   49.7495   34.5333   42.5495 H   0  0  0  0  0  0  0  0  0  0  0  0
   48.0358   35.0717   42.5495 H   0  0  0  0  0  0  0  0  0  0  0  0
   46.4711   32.4170   41.4446 H   0  0  0  0  0  0  0  0  0  0  0  0
   46.9287   34.1134   41.2250 H   0  0  0  0  0  0  0  0  0  0  0  0
   49.9597   31.9660   40.7793 H   0  0  0  0  0  0  0  0  0  0  0  0
   47.0372   32.9691   35.0405 H   0  0  0  0  0  0  0  0  0  0  0  0
   44.3344   34.1366   37.1785 H   0  0  0  0  0  0  0  0  0  0  0  0
   44.8415   33.8766   35.4879 H   0  0  0  0  0  0  0  0  0  0  0  0
  1 13  1  0
  1 12  1  0
  3  2  2  0
  4  5  2  0
  4  3  1  0
  5  6  1  0
  6  8  1  0
  6  7  2  0
  7  2  1  0
  8  9  1  0
 10  9  2  0
 11 10  1  0
 12 11  2  0
 12  8  1  0
 14  1  1  0
 15 14  1  0
 16 15  1  0
 17 16  2  0
 18 17  1  0
 18 25  2  0
 19 18  1  0
 20 19  2  0
 21 19  1  0
 21 22  1  0
 22 24  2  0
 23 22  1  0
 24 25  1  0
 25 15  1  0
  1 26  1  6
  2 27  1  0
  3 28  1  0
  4 29  1  0
 10 30  1  0
 11 31  1  0
 13 32  1  0
 13 33  1  0
 13 34  1  0
 14 35  1  0
 14 36  1  0
 16 37  1  0
 21 38  1  0
 23 39  1  0
 23 40  1  0
M  ISO  8  26   8  27  14  28  14  29  14  30  14  31  14  32   8  33   8
M  ISO  5  34   8  35   8  36   8  37  14  38   9
M  END
>  <minimizedAffinity>  (1) 
-5.91384363

>  <minimizedRMSD>  (1) 
3.35946417

$$$$
