
     RDKit          3D

 32 34  0  0  1  0  0  0  0  0999 V2000
   44.9560   35.0380   45.2570 C   0  0  0  0  0  0  0  0  0  0  0  0
   44.7070   35.9720   44.2330 C   0  0  0  0  0  0  0  0  0  0  0  0
   45.3510   35.7650   42.9940 C   0  0  0  0  0  0  0  0  0  0  0  0
   46.1510   34.6860   42.9010 N   0  0  0  0  0  0  0  0  0  0  0  0
   46.3840   33.8090   43.8610 C   0  0  0  0  0  0  0  0  0  0  0  0
   45.7760   34.0000   45.0390 N   0  0  0  0  0  0  0  0  0  0  0  0
   47.2320   32.6880   43.7140 N   0  0  0  0  0  0  0  0  0  0  0  0
   47.2230   31.5070   44.3260 N   0  0  0  0  0  0  0  0  0  0  0  0
   48.2250   30.7570   43.8560 C   0  0  0  0  0  0  0  0  0  0  0  0
   48.8890   31.4970   42.9140 C   0  0  0  0  0  0  0  0  0  0  0  0
   48.2510   32.7400   42.8200 C   0  0  0  0  0  0  0  0  0  0  0  0
   48.7860   33.7270   41.8420 C   0  0  2  0  0  0  0  0  0  0  0  0
   49.1780   34.9710   42.6300 C   0  0  0  0  0  0  0  0  0  0  0  0
   47.7660   34.0810   40.8060 C   0  0  0  0  0  0  0  0  0  0  0  0
   48.3120   33.6310   39.4510 C   0  0  0  0  0  0  0  0  0  0  0  0
   48.9000   32.2730   39.2200 C   0  0  0  0  0  0  0  0  0  0  0  0
   49.2660   32.4490   37.3780 S   0  0  0  0  0  0  0  0  0  0  0  0
   48.6380   34.1180   37.2600 C   0  0  0  0  0  0  0  0  0  0  0  0
   48.1970   34.5140   38.4670 N   0  0  0  0  0  0  0  0  0  0  0  0
   44.4760   35.1605   46.2392 H   0  0  0  0  0  0  0  0  0  0  0  0
   44.0367   36.8295   44.3924 H   0  0  0  0  0  0  0  0  0  0  0  0
   45.2064   36.4512   42.1465 H   0  0  0  0  0  0  0  0  0  0  0  0
   48.4714   29.7317   44.1690 H   0  0  0  0  0  0  0  0  0  0  0  0
   49.7663   31.1729   42.3350 H   0  0  0  0  0  0  0  0  0  0  0  0
   49.6488   33.2976   41.3118 H   0  0  0  0  0  0  0  0  0  0  0  0
   49.1111   34.7588   43.7073 H   0  0  0  0  0  0  0  0  0  0  0  0
   50.2095   35.2561   42.3758 H   0  0  0  0  0  0  0  0  0  0  0  0
   48.4963   35.7960   42.3758 H   0  0  0  0  0  0  0  0  0  0  0  0
   46.8187   33.5642   41.0196 H   0  0  0  0  0  0  0  0  0  0  0  0
   47.5737   35.1641   40.8059 H   0  0  0  0  0  0  0  0  0  0  0  0
   49.0667   31.4332   39.9106 H   0  0  0  0  0  0  0  0  0  0  0  0
   48.6157   34.7260   36.3436 H   0  0  0  0  0  0  0  0  0  0  0  0
  2  1  2  0
  3  2  1  0
  4  3  2  0
  4  5  1  0
  5  6  2  0
  6  1  1  0
  7  5  1  0
  7  8  1  0
  9  8  2  0
 10  9  1  0
 11 10  2  0
 11  7  1  0
 12 13  1  0
 12 11  1  0
 14 12  1  0
 15 14  1  0
 16 15  2  0
 17 16  1  0
 18 17  1  0
 18 19  2  0
 19 15  1  0
  1 20  1  0
  2 21  1  0
  3 22  1  0
  9 23  1  0
 10 24  1  0
 12 25  1  6
 13 26  1  0
 13 27  1  0
 13 28  1  0
 14 29  1  0
 14 30  1  0
 16 31  1  0
 18 32  1  0
M  ISO  8  20  14  21  14  22  14  23  14  24  14  25   8  26   8  27   8
M  ISO  5  28   8  29   8  30   8  31  14  32  14
M  END
>  <minimizedAffinity>  (1) 
-4.87159538

>  <minimizedRMSD>  (1) 
3.30917835

$$$$
