
     RDKit          3D

 47 51  0  0  1  0  0  0  0  0999 V2000
   44.6780   33.7460   40.9520 N   0  0  0  0  0  0  0  0  0  0  0  0
   43.4940   34.5420   40.6340 C   0  0  0  0  0  0  0  0  0  0  0  0
   42.3470   34.2230   41.5600 C   0  0  0  0  0  0  0  0  0  0  0  0
   42.0770   32.7980   41.4660 N   0  0  0  0  0  0  0  0  0  0  0  0
   43.2180   32.1460   42.1130 C   0  0  0  0  0  0  0  0  0  0  0  0
   44.5000   32.3730   41.3640 C   0  0  1  0  0  0  0  0  0  0  0  0
   46.5790   34.7540   42.0170 C   0  0  0  0  0  0  0  0  0  0  0  0
   47.8950   35.1680   41.9390 C   0  0  0  0  0  0  0  0  0  0  0  0
   48.6570   35.0140   40.7670 C   0  0  0  0  0  0  0  0  0  0  0  0
   48.0680   34.4240   39.6420 C   0  0  0  0  0  0  0  0  0  0  0  0
   46.7670   34.0210   39.7350 C   0  0  0  0  0  0  0  0  0  0  0  0
   46.0570   34.1890   40.9000 C   0  0  0  0  0  0  0  0  0  0  0  0
   44.4790   36.1370   44.8020 C   0  0  0  0  0  0  0  0  0  0  0  0
   45.0890   36.0650   43.5520 C   0  0  0  0  0  0  0  0  0  0  0  0
   45.8860   34.9600   43.2710 C   0  0  0  0  0  0  0  0  0  0  0  0
   46.0380   33.9990   44.2230 N   0  0  0  0  0  0  0  0  0  0  0  0
   45.4210   34.1160   45.4290 C   0  0  0  0  0  0  0  0  0  0  0  0
   44.6460   35.1810   45.7140 N   0  0  0  0  0  0  0  0  0  0  0  0
   44.5980   31.4960   40.2120 N   0  0  0  0  0  0  0  0  0  0  0  0
   45.5660   30.5580   40.0350 C   0  0  0  0  0  0  0  0  0  0  0  0
   45.3280   29.9470   38.8580 N   0  0  0  0  0  0  0  0  0  0  0  0
   44.2380   30.4870   38.3080 C   0  0  0  0  0  0  0  0  0  0  0  0
   43.4980   30.3170   37.1550 C   0  0  0  0  0  0  0  0  0  0  0  0
   42.3870   31.0610   36.8750 N   0  0  0  0  0  0  0  0  0  0  0  0
   41.9810   32.0140   37.7620 C   0  0  0  0  0  0  0  0  0  0  0  0
   42.6790   32.2060   38.8940 N   0  0  0  0  0  0  0  0  0  0  0  0
   43.7550   31.4750   39.1490 C   0  0  0  0  0  0  0  0  0  0  0  0
   43.9220   29.3210   36.2310 N   0  0  0  0  0  0  0  0  0  0  0  0
   43.7445   35.6088   40.7299 H   0  0  0  0  0  0  0  0  0  0  0  0
   43.1838   34.3028   39.6061 H   0  0  0  0  0  0  0  0  0  0  0  0
   42.6179   34.4842   42.5936 H   0  0  0  0  0  0  0  0  0  0  0  0
   41.4548   34.8005   41.2763 H   0  0  0  0  0  0  0  0  0  0  0  0
   41.2018   32.5634   41.9558 H   0  0  0  0  0  0  0  0  0  0  0  0
   43.3261   32.5490   43.1308 H   0  0  0  0  0  0  0  0  0  0  0  0
   43.0236   31.0634   42.1300 H   0  0  0  0  0  0  0  0  0  0  0  0
   45.3080   32.1352   42.0716 H   0  0  0  0  0  0  0  0  0  0  0  0
   48.3610   35.6323   42.8207 H   0  0  0  0  0  0  0  0  0  0  0  0
   49.7030   35.3529   40.7345 H   0  0  0  0  0  0  0  0  0  0  0  0
   48.6371   34.2891   38.7103 H   0  0  0  0  0  0  0  0  0  0  0  0
   46.2800   33.5553   38.8655 H   0  0  0  0  0  0  0  0  0  0  0  0
   43.8448   37.0033   45.0414 H   0  0  0  0  0  0  0  0  0  0  0  0
   44.9444   36.8609   42.8066 H   0  0  0  0  0  0  0  0  0  0  0  0
   45.5567   33.3282   46.1846 H   0  0  0  0  0  0  0  0  0  0  0  0
   46.3927   30.3380   40.7265 H   0  0  0  0  0  0  0  0  0  0  0  0
   41.0882   32.6214   37.5522 H   0  0  0  0  0  0  0  0  0  0  0  0
   43.3932   29.1675   35.3606 H   0  0  0  0  0  0  0  0  0  0  0  0
   44.7577   28.7537   36.4327 H   0  0  0  0  0  0  0  0  0  0  0  0
  1  6  1  0
  2  1  1  0
  2  3  1  0
  4  3  1  0
  4  5  1  0
  6  5  1  0
  7 15  1  0
  8  7  2  0
  9  8  1  0
 10 11  1  0
 10  9  2  0
 11 12  2  0
 12  1  1  0
 12  7  1  0
 13 18  2  0
 14 13  1  0
 15 14  2  0
 15 16  1  0
 16 17  2  0
 17 18  1  0
 19  6  1  0
 20 19  1  0
 21 20  2  0
 22 21  1  0
 22 27  2  0
 23 22  1  0
 24 23  2  0
 24 25  1  0
 25 26  2  0
 26 27  1  0
 27 19  1  0
 28 23  1  0
  2 29  1  0
  2 30  1  0
  3 31  1  0
  3 32  1  0
  4 33  1  0
  5 34  1  0
  5 35  1  0
  6 36  1  1
  8 37  1  0
  9 38  1  0
 10 39  1  0
 11 40  1  0
 13 41  1  0
 14 42  1  0
 17 43  1  0
 20 44  1  0
 25 45  1  0
 28 46  1  0
 28 47  1  0
M  ISO  8  29  13  30  13  31  13  32  13  33   5  34  13  35  13  36  13
M  ISO  8  37  14  38  14  39  14  40  14  41  14  42  14  43  14  44  14
M  ISO  1  45  14
M  END
>  <minimizedAffinity>  (1) 
-6.15950632

>  <minimizedRMSD>  (1) 
0.912970424

$$$$
