
     RDKit          3D

 38 40  0  0  1  0  0  0  0  0999 V2000
   45.1220   34.8220   45.1300 C   0  0  0  0  0  0  0  0  0  0  0  0
   44.7020   35.7790   44.2010 C   0  0  0  0  0  0  0  0  0  0  0  0
   45.2790   35.7600   42.9210 C   0  0  0  0  0  0  0  0  0  0  0  0
   46.2060   34.8050   42.6870 N   0  0  0  0  0  0  0  0  0  0  0  0
   46.6020   33.8990   43.5720 C   0  0  0  0  0  0  0  0  0  0  0  0
   46.0520   33.9170   44.7920 N   0  0  0  0  0  0  0  0  0  0  0  0
   47.5820   32.9050   43.2910 N   0  0  0  0  0  0  0  0  0  0  0  0
   47.7540   31.6960   43.8240 N   0  0  0  0  0  0  0  0  0  0  0  0
   48.8150   31.1190   43.2400 C   0  0  0  0  0  0  0  0  0  0  0  0
   49.3180   32.0010   42.3130 C   0  0  0  0  0  0  0  0  0  0  0  0
   48.5360   33.1400   42.3410 C   0  0  0  0  0  0  0  0  0  0  0  0
   48.8430   34.2700   41.4390 C   0  0  2  0  0  0  0  0  0  0  0  0
   49.0290   35.5270   42.2480 C   0  0  0  0  0  0  0  0  0  0  0  0
   47.7650   34.4720   40.4100 C   0  0  0  0  0  0  0  0  0  0  0  0
   47.5370   33.3480   39.5300 N   0  0  0  0  0  0  0  0  0  0  0  0
   46.1650   33.1940   39.1800 C   0  0  0  0  0  0  0  0  0  0  0  0
   46.0850   33.1200   37.6720 C   0  0  0  0  0  0  0  0  0  0  0  0
   47.3700   33.7050   37.1750 C   0  0  0  0  0  0  0  0  0  0  0  0
   48.3160   33.5660   38.3430 C   0  0  0  0  0  0  0  0  0  0  0  0
   44.6883   34.8115   46.1408 H   0  0  0  0  0  0  0  0  0  0  0  0
   43.9399   36.5267   44.4658 H   0  0  0  0  0  0  0  0  0  0  0  0
   44.9907   36.4865   42.1470 H   0  0  0  0  0  0  0  0  0  0  0  0
   49.2121   30.1178   43.4632 H   0  0  0  0  0  0  0  0  0  0  0  0
   50.1892   31.8301   41.6636 H   0  0  0  0  0  0  0  0  0  0  0  0
   49.7729   34.0329   40.9014 H   0  0  0  0  0  0  0  0  0  0  0  0
   48.9927   35.2820   43.3198 H   0  0  0  0  0  0  0  0  0  0  0  0
   50.0035   35.9770   42.0075 H   0  0  0  0  0  0  0  0  0  0  0  0
   48.2266   36.2399   42.0075 H   0  0  0  0  0  0  0  0  0  0  0  0
   46.8248   34.6862   40.9394 H   0  0  0  0  0  0  0  0  0  0  0  0
   48.1056   35.2982   39.7686 H   0  0  0  0  0  0  0  0  0  0  0  0
   45.7661   32.2695   39.6229 H   0  0  0  0  0  0  0  0  0  0  0  0
   45.5720   34.0399   39.5579 H   0  0  0  0  0  0  0  0  0  0  0  0
   45.9855   32.0751   37.3430 H   0  0  0  0  0  0  0  0  0  0  0  0
   45.2113   33.6629   37.2822 H   0  0  0  0  0  0  0  0  0  0  0  0
   47.7416   33.1464   36.3033 H   0  0  0  0  0  0  0  0  0  0  0  0
   47.2583   34.7484   36.8450 H   0  0  0  0  0  0  0  0  0  0  0  0
   48.9887   32.7116   38.1773 H   0  0  0  0  0  0  0  0  0  0  0  0
   48.9232   34.4770   38.4498 H   0  0  0  0  0  0  0  0  0  0  0  0
  2  1  2  0
  3  2  1  0
  4  3  2  0
  4  5  1  0
  5  6  2  0
  6  1  1  0
  7  5  1  0
  7  8  1  0
  9  8  2  0
 10 11  2  0
 10  9  1  0
 11  7  1  0
 12 13  1  0
 12 11  1  0
 14 12  1  0
 15 14  1  0
 16 15  1  0
 17 16  1  0
 18 17  1  0
 18 19  1  0
 19 15  1  0
  1 20  1  0
  2 21  1  0
  3 22  1  0
  9 23  1  0
 10 24  1  0
 12 25  1  6
 13 26  1  0
 13 27  1  0
 13 28  1  0
 14 29  1  0
 14 30  1  0
 16 31  1  0
 16 32  1  0
 17 33  1  0
 17 34  1  0
 18 35  1  0
 18 36  1  0
 19 37  1  0
 19 38  1  0
M  ISO  8  20  14  21  14  22  14  23  14  24  14  25   8  26   8  27   8
M  ISO  8  28   8  29   8  30   8  31  13  32  13  33  13  34  13  35  13
M  ISO  3  36  13  37  13  38  13
M  END
>  <minimizedAffinity>  (1) 
-4.71624136

>  <minimizedRMSD>  (1) 
3.26795483

$$$$
