
     RDKit          3D

 33 34  0  0  1  0  0  0  0  0999 V2000
   46.9770   31.5070   44.8000 C   0  0  2  0  0  0  0  0  0  0  0  0
   44.6120   36.1860   44.1390 C   0  0  0  0  0  0  0  0  0  0  0  0
   44.5220   35.6740   42.8330 C   0  0  0  0  0  0  0  0  0  0  0  0
   44.7840   34.2930   42.6430 C   0  0  0  0  0  0  0  0  0  0  0  0
   45.1030   33.5850   43.7500 N   0  0  0  0  0  0  0  0  0  0  0  0
   45.1870   34.0690   44.9740 C   0  0  0  0  0  0  0  0  0  0  0  0
   44.9380   35.3760   45.1560 N   0  0  0  0  0  0  0  0  0  0  0  0
   45.5240   33.2780   46.0950 N   0  0  0  0  0  0  0  0  0  0  0  0
   45.1850   33.4110   47.3770 N   0  0  0  0  0  0  0  0  0  0  0  0
   45.7360   32.4180   48.0840 C   0  0  0  0  0  0  0  0  0  0  0  0
   46.4480   31.6350   47.2040 C   0  0  0  0  0  0  0  0  0  0  0  0
   46.3120   32.1860   45.9320 C   0  0  0  0  0  0  0  0  0  0  0  0
   47.7520   32.5290   44.0070 C   0  0  0  0  0  0  0  0  0  0  0  0
   45.9870   30.8490   43.8830 C   0  0  0  0  0  0  0  0  0  0  0  0
   44.7640   30.4700   44.5720 N   0  0  0  0  0  0  0  0  0  0  0  0
   44.4050   29.1470   44.8900 C   0  0  0  0  0  0  0  0  0  0  0  0
   45.3650   28.2720   44.9300 N   0  0  0  0  0  0  0  0  0  0  0  0
   43.0070   28.9030   45.1380 N   0  0  0  0  0  0  0  0  0  0  0  0
   45.0520   27.2950   45.1720 H   0  0  0  0  0  0  0  0  0  0  0  0
   47.6385   30.7306   45.2120 H   0  0  0  0  0  0  0  0  0  0  0  0
   44.4148   37.2518   44.3265 H   0  0  0  0  0  0  0  0  0  0  0  0
   44.2569   36.3234   41.9856 H   0  0  0  0  0  0  0  0  0  0  0  0
   44.7306   33.8237   41.6496 H   0  0  0  0  0  0  0  0  0  0  0  0
   45.6382   32.2571   49.1678 H   0  0  0  0  0  0  0  0  0  0  0  0
   47.0231   30.7330   47.4601 H   0  0  0  0  0  0  0  0  0  0  0  0
   48.2700   33.2121   44.6963 H   0  0  0  0  0  0  0  0  0  0  0  0
   48.4913   32.0175   43.3731 H   0  0  0  0  0  0  0  0  0  0  0  0
   47.0600   33.1029   43.3731 H   0  0  0  0  0  0  0  0  0  0  0  0
   46.4468   29.9457   43.4557 H   0  0  0  0  0  0  0  0  0  0  0  0
   45.7210   31.5736   43.0992 H   0  0  0  0  0  0  0  0  0  0  0  0
   44.1156   31.2218   44.8463 H   0  0  0  0  0  0  0  0  0  0  0  0
   42.6840   27.9542   45.3754 H   0  0  0  0  0  0  0  0  0  0  0  0
   42.3305   29.6774   45.0779 H   0  0  0  0  0  0  0  0  0  0  0  0
  1 12  1  0
  2  7  2  0
  3  2  1  0
  4  3  2  0
  4  5  1  0
  5  6  2  0
  6  7  1  0
  6  8  1  0
  8  9  1  0
  9 10  2  0
 11 10  1  0
 12  8  1  0
 12 11  2  0
 13  1  1  0
 14 15  1  0
 14  1  1  0
 15 16  1  0
 16 17  2  0
 16 18  1  0
 17 19  1  0
  1 20  1  1
  2 21  1  0
  3 22  1  0
  4 23  1  0
 10 24  1  0
 11 25  1  0
 13 26  1  0
 13 27  1  0
 13 28  1  0
 14 29  1  0
 14 30  1  0
 15 31  1  0
 18 32  1  0
 18 33  1  0
M  ISO  8  20   8  21  14  22  14  23  14  24  14  25  14  26   8  27   8
M  ISO  3  28   8  29   8  30   8
M  END
>  <minimizedAffinity>  (1) 
-4.27963972

>  <minimizedRMSD>  (1) 
1.34002483

$$$$
