
     RDKit          3D

 36 38  0  0  1  0  0  0  0  0999 V2000
   47.5490   31.8310   43.9970 C   0  0  2  0  0  0  0  0  0  0  0  0
   44.4040   36.0140   44.7330 C   0  0  0  0  0  0  0  0  0  0  0  0
   44.3100   35.8760   43.3400 C   0  0  0  0  0  0  0  0  0  0  0  0
   44.8060   34.6830   42.7690 C   0  0  0  0  0  0  0  0  0  0  0  0
   45.3300   33.7710   43.6180 N   0  0  0  0  0  0  0  0  0  0  0  0
   45.4160   33.9070   44.9280 C   0  0  0  0  0  0  0  0  0  0  0  0
   44.9480   35.0370   45.4800 N   0  0  0  0  0  0  0  0  0  0  0  0
   45.9680   32.9170   45.7770 N   0  0  0  0  0  0  0  0  0  0  0  0
   45.7120   32.6570   47.0670 N   0  0  0  0  0  0  0  0  0  0  0  0
   46.4650   31.6220   47.4470 C   0  0  0  0  0  0  0  0  0  0  0  0
   47.2130   31.2230   46.3700 C   0  0  0  0  0  0  0  0  0  0  0  0
   46.8890   32.0590   45.2970 C   0  0  0  0  0  0  0  0  0  0  0  0
   48.1210   33.1420   43.4990 C   0  0  0  0  0  0  0  0  0  0  0  0
   46.6160   31.2900   42.9600 C   0  0  0  0  0  0  0  0  0  0  0  0
   47.1210   31.3470   41.5990 N   0  0  0  0  0  0  0  0  0  0  0  0
   46.7580   32.2190   40.6350 C   0  0  0  0  0  0  0  0  0  0  0  0
   47.2150   32.3190   39.3400 C   0  0  0  0  0  0  0  0  0  0  0  0
   48.1780   31.4010   38.9780 C   0  0  0  0  0  0  0  0  0  0  0  0
   48.6350   31.4380   37.8180 O   0  0  0  0  0  0  0  0  0  0  0  0
   48.5810   30.5060   39.8930 N   0  0  0  0  0  0  0  0  0  0  0  0
   48.0650   30.4970   41.1330 C   0  0  0  0  0  0  0  0  0  0  0  0
   48.5630   29.5910   41.8430 O   0  0  0  0  0  0  0  0  0  0  0  0
   48.3380   31.0815   44.1574 H   0  0  0  0  0  0  0  0  0  0  0  0
   44.0300   36.9279   45.2176 H   0  0  0  0  0  0  0  0  0  0  0  0
   43.8670   36.6665   42.7164 H   0  0  0  0  0  0  0  0  0  0  0  0
   44.7676   34.5045   41.6843 H   0  0  0  0  0  0  0  0  0  0  0  0
   46.4821   31.1688   48.4491 H   0  0  0  0  0  0  0  0  0  0  0  0
   47.9370   30.3951   46.3529 H   0  0  0  0  0  0  0  0  0  0  0  0
   48.3958   33.7719   44.3579 H   0  0  0  0  0  0  0  0  0  0  0  0
   49.0145   32.9439   42.8887 H   0  0  0  0  0  0  0  0  0  0  0  0
   47.3681   33.6623   42.8887 H   0  0  0  0  0  0  0  0  0  0  0  0
   46.4060   30.2381   43.2036 H   0  0  0  0  0  0  0  0  0  0  0  0
   45.7201   31.9278   42.9856 H   0  0  0  0  0  0  0  0  0  0  0  0
   45.9902   32.9518   40.9241 H   0  0  0  0  0  0  0  0  0  0  0  0
   46.8373   33.0800   38.6413 H   0  0  0  0  0  0  0  0  0  0  0  0
   49.2995   29.8129   39.6396 H   0  0  0  0  0  0  0  0  0  0  0  0
  1 12  1  0
  2  7  2  0
  3  2  1  0
  4  3  2  0
  4  5  1  0
  5  6  2  0
  6  7  1  0
  6  8  1  0
  8  9  1  0
  9 10  2  0
 11 10  1  0
 12  8  1  0
 12 11  2  0
 13  1  1  0
 14  1  1  0
 15 14  1  0
 16 15  1  0
 17 16  2  0
 18 17  1  0
 18 20  1  0
 19 18  2  0
 20 21  1  0
 21 15  1  0
 21 22  2  0
  1 23  1  1
  2 24  1  0
  3 25  1  0
  4 26  1  0
 10 27  1  0
 11 28  1  0
 13 29  1  0
 13 30  1  0
 13 31  1  0
 14 32  1  0
 14 33  1  0
 16 34  1  0
 17 35  1  0
 20 36  1  0
M  ISO  8  23   8  24  14  25  14  26  14  27  14  28  14  29   8  30   8
M  ISO  6  31   8  32   8  33   8  34  14  35  14  36   9
M  END
>  <minimizedAffinity>  (1) 
-4.19053936

>  <minimizedRMSD>  (1) 
3.84575176

$$$$
