
     RDKit          3D

 34 36  0  0  1  0  0  0  0  0999 V2000
   44.6760   35.9930   44.2570 C   0  0  0  0  0  0  0  0  0  0  0  0
   44.5910   35.4170   42.9920 C   0  0  0  0  0  0  0  0  0  0  0  0
   44.8180   34.0380   42.8690 C   0  0  0  0  0  0  0  0  0  0  0  0
   45.1070   33.3730   44.0090 N   0  0  0  0  0  0  0  0  0  0  0  0
   45.1900   33.9120   45.2130 C   0  0  0  0  0  0  0  0  0  0  0  0
   44.9700   35.2350   45.3310 N   0  0  0  0  0  0  0  0  0  0  0  0
   45.4900   33.1770   46.3850 N   0  0  0  0  0  0  0  0  0  0  0  0
   45.1590   33.4050   47.6570 N   0  0  0  0  0  0  0  0  0  0  0  0
   45.6680   32.4300   48.4230 C   0  0  0  0  0  0  0  0  0  0  0  0
   46.3410   31.5630   47.6010 C   0  0  0  0  0  0  0  0  0  0  0  0
   46.2320   32.0320   46.3020 C   0  0  0  0  0  0  0  0  0  0  0  0
   46.8640   31.2810   45.1970 C   0  0  2  0  0  0  0  0  0  0  0  0
   47.6530   32.2390   44.3330 C   0  0  0  0  0  0  0  0  0  0  0  0
   45.8450   30.5690   44.3470 C   0  0  0  0  0  0  0  0  0  0  0  0
   45.5610   29.2950   45.1770 C   0  0  0  0  0  0  0  0  0  0  0  0
   44.2930   28.9110   45.5860 C   0  0  0  0  0  0  0  0  0  0  0  0
   44.1710   27.7520   46.3220 C   0  0  0  0  0  0  0  0  0  0  0  0
   45.2310   26.9940   46.6500 N   0  0  0  0  0  0  0  0  0  0  0  0
   46.4550   27.3750   46.2490 C   0  0  0  0  0  0  0  0  0  0  0  0
   46.6040   28.4890   45.5380 N   0  0  0  0  0  0  0  0  0  0  0  0
   44.5022   37.0722   44.3798 H   0  0  0  0  0  0  0  0  0  0  0  0
   44.3515   36.0289   42.1098 H   0  0  0  0  0  0  0  0  0  0  0  0
   44.7636   33.5259   41.8970 H   0  0  0  0  0  0  0  0  0  0  0  0
   45.5645   32.3413   49.5145 H   0  0  0  0  0  0  0  0  0  0  0  0
   46.8740   30.6543   47.9176 H   0  0  0  0  0  0  0  0  0  0  0  0
   47.5258   30.5211   45.6380 H   0  0  0  0  0  0  0  0  0  0  0  0
   48.2210   32.9287   44.9747 H   0  0  0  0  0  0  0  0  0  0  0  0
   48.3492   31.6716   43.6979 H   0  0  0  0  0  0  0  0  0  0  0  0
   46.9627   32.8136   43.6979 H   0  0  0  0  0  0  0  0  0  0  0  0
   46.2560   30.3175   43.3581 H   0  0  0  0  0  0  0  0  0  0  0  0
   44.9473   31.1692   44.1377 H   0  0  0  0  0  0  0  0  0  0  0  0
   43.4094   29.5142   45.3303 H   0  0  0  0  0  0  0  0  0  0  0  0
   43.1705   27.4364   46.6526 H   0  0  0  0  0  0  0  0  0  0  0  0
   47.3335   26.7660   46.5085 H   0  0  0  0  0  0  0  0  0  0  0  0
  1  6  2  0
  2  1  1  0
  3  2  2  0
  3  4  1  0
  4  5  2  0
  5  6  1  0
  5  7  1  0
  7  8  1  0
  8  9  2  0
 10  9  1  0
 11  7  1  0
 11 10  2  0
 12 11  1  0
 13 12  1  0
 14 15  1  0
 14 12  1  0
 15 20  1  0
 15 16  2  0
 16 17  1  0
 17 18  2  0
 19 18  1  0
 20 19  2  0
  1 21  1  0
  2 22  1  0
  3 23  1  0
  9 24  1  0
 10 25  1  0
 12 26  1  1
 13 27  1  0
 13 28  1  0
 13 29  1  0
 14 30  1  0
 14 31  1  0
 16 32  1  0
 17 33  1  0
 19 34  1  0
M  ISO  8  21  14  22  14  23  14  24  14  25  14  26   8  27   8  28   8
M  ISO  6  29   8  30   8  31   8  32  14  33  14  34  14
M  END
>  <minimizedAffinity>  (1) 
-4.12239981

>  <minimizedRMSD>  (1) 
1.13912606

$$$$
