
     RDKit          3D

 32 34  0  0  1  0  0  0  0  0999 V2000
   44.6050   36.0890   44.3220 C   0  0  0  0  0  0  0  0  0  0  0  0
   44.5510   35.5720   43.0170 C   0  0  0  0  0  0  0  0  0  0  0  0
   44.8300   34.1960   42.8480 C   0  0  0  0  0  0  0  0  0  0  0  0
   45.1280   33.4910   43.9640 N   0  0  0  0  0  0  0  0  0  0  0  0
   45.1770   33.9860   45.1870 C   0  0  0  0  0  0  0  0  0  0  0  0
   44.9130   35.2930   45.3610 N   0  0  0  0  0  0  0  0  0  0  0  0
   45.4920   33.2100   46.3240 N   0  0  0  0  0  0  0  0  0  0  0  0
   45.1330   33.3710   47.6080 N   0  0  0  0  0  0  0  0  0  0  0  0
   45.6680   32.3850   48.3330 C   0  0  0  0  0  0  0  0  0  0  0  0
   46.3840   31.5770   47.4810 C   0  0  0  0  0  0  0  0  0  0  0  0
   46.2660   32.1120   46.1960 C   0  0  0  0  0  0  0  0  0  0  0  0
   46.9460   31.4080   45.0850 C   0  0  2  0  0  0  0  0  0  0  0  0
   47.6860   32.4380   44.2530 C   0  0  0  0  0  0  0  0  0  0  0  0
   46.0050   30.6780   44.1920 C   0  0  0  0  0  0  0  0  0  0  0  0
   45.4740   29.4490   44.7730 N   0  0  0  0  0  0  0  0  0  0  0  0
   44.2740   28.9000   45.0310 C   0  0  0  0  0  0  0  0  0  0  0  0
   44.4860   27.6910   45.6040 N   0  0  0  0  0  0  0  0  0  0  0  0
   45.8410   27.5410   45.6790 C   0  0  0  0  0  0  0  0  0  0  0  0
   46.4690   28.6360   45.1600 N   0  0  0  0  0  0  0  0  0  0  0  0
   44.3935   37.1544   44.4955 H   0  0  0  0  0  0  0  0  0  0  0  0
   44.3011   36.2133   42.1589 H   0  0  0  0  0  0  0  0  0  0  0  0
   44.8059   33.7211   41.8561 H   0  0  0  0  0  0  0  0  0  0  0  0
   45.5559   32.2443   49.4182 H   0  0  0  0  0  0  0  0  0  0  0  0
   46.9469   30.6742   47.7604 H   0  0  0  0  0  0  0  0  0  0  0  0
   47.6223   30.6639   45.5310 H   0  0  0  0  0  0  0  0  0  0  0  0
   48.1968   33.1490   44.9190 H   0  0  0  0  0  0  0  0  0  0  0  0
   48.4283   31.9319   43.6183 H   0  0  0  0  0  0  0  0  0  0  0  0
   46.9695   32.9800   43.6183 H   0  0  0  0  0  0  0  0  0  0  0  0
   46.5366   30.4212   43.2639 H   0  0  0  0  0  0  0  0  0  0  0  0
   45.1482   31.3451   44.0162 H   0  0  0  0  0  0  0  0  0  0  0  0
   43.2947   29.3521   44.8152 H   0  0  0  0  0  0  0  0  0  0  0  0
   46.3536   26.6626   46.0981 H   0  0  0  0  0  0  0  0  0  0  0  0
  1  6  2  0
  2  1  1  0
  3  2  2  0
  3  4  1  0
  4  5  2  0
  5  6  1  0
  5  7  1  0
  7  8  1  0
  8  9  2  0
 10  9  1  0
 11  7  1  0
 11 10  2  0
 12 11  1  0
 13 12  1  0
 14 15  1  0
 14 12  1  0
 15 16  1  0
 15 19  1  0
 16 17  2  0
 17 18  1  0
 19 18  2  0
  1 20  1  0
  2 21  1  0
  3 22  1  0
  9 23  1  0
 10 24  1  0
 12 25  1  1
 13 26  1  0
 13 27  1  0
 13 28  1  0
 14 29  1  0
 14 30  1  0
 16 31  1  0
 18 32  1  0
M  ISO  8  20  14  21  14  22  14  23  14  24  14  25   8  26   8  27   8
M  ISO  5  28   8  29   8  30   8  31  14  32  14
M  END
>  <minimizedAffinity>  (1) 
-3.9467783

>  <minimizedRMSD>  (1) 
1.03412461

$$$$
