
     RDKit          3D

 27 28  0  0  1  0  0  0  0  0999 V2000
   44.4400   35.9740   44.4820 C   0  0  0  0  0  0  0  0  0  0  0  0
   44.2990   35.6840   43.1290 C   0  0  0  0  0  0  0  0  0  0  0  0
   44.7260   34.4220   42.6820 C   0  0  0  0  0  0  0  0  0  0  0  0
   45.2430   33.5890   43.6120 N   0  0  0  0  0  0  0  0  0  0  0  0
   45.3770   33.8630   44.8950 C   0  0  0  0  0  0  0  0  0  0  0  0
   44.9700   35.0650   45.3200 N   0  0  0  0  0  0  0  0  0  0  0  0
   45.9260   32.9630   45.8390 N   0  0  0  0  0  0  0  0  0  0  0  0
   45.7240   32.8590   47.1490 N   0  0  0  0  0  0  0  0  0  0  0  0
   46.4720   31.8580   47.6320 C   0  0  0  0  0  0  0  0  0  0  0  0
   47.1700   31.3170   46.5760 C   0  0  0  0  0  0  0  0  0  0  0  0
   46.8150   32.0310   45.4260 C   0  0  0  0  0  0  0  0  0  0  0  0
   47.4260   31.6300   44.1430 C   0  0  2  0  0  0  0  0  0  0  0  0
   48.0270   32.8730   43.4930 C   0  0  0  0  0  0  0  0  0  0  0  0
   46.4330   31.0260   43.1950 C   0  0  0  0  0  0  0  0  0  0  0  0
   46.8090   31.6270   41.9190 O   0  0  0  0  0  0  0  0  0  0  0  0
   44.1165   36.9516   44.8687 H   0  0  0  0  0  0  0  0  0  0  0  0
   43.8677   36.4179   42.4323 H   0  0  0  0  0  0  0  0  0  0  0  0
   44.6434   34.1264   41.6257 H   0  0  0  0  0  0  0  0  0  0  0  0
   46.5197   31.5287   48.6805 H   0  0  0  0  0  0  0  0  0  0  0  0
   47.8779   30.4766   46.6269 H   0  0  0  0  0  0  0  0  0  0  0  0
   48.1885   30.8659   44.3544 H   0  0  0  0  0  0  0  0  0  0  0  0
   48.3637   33.5694   44.2751 H   0  0  0  0  0  0  0  0  0  0  0  0
   48.8839   32.5819   42.8677 H   0  0  0  0  0  0  0  0  0  0  0  0
   47.2667   33.3638   42.8677 H   0  0  0  0  0  0  0  0  0  0  0  0
   46.5297   29.9307   43.1625 H   0  0  0  0  0  0  0  0  0  0  0  0
   45.3866   31.2142   43.4771 H   0  0  0  0  0  0  0  0  0  0  0  0
   47.3267   32.4546   42.0838 H   0  0  0  0  0  0  0  0  0  0  0  0
  1  6  2  0
  2  1  1  0
  3  2  2  0
  3  4  1  0
  4  5  2  0
  5  6  1  0
  5  7  1  0
  7  8  1  0
  8  9  2  0
 10  9  1  0
 11  7  1  0
 11 10  2  0
 12 11  1  0
 13 12  1  0
 14 12  1  0
 15 14  1  0
  1 16  1  0
  2 17  1  0
  3 18  1  0
  9 19  1  0
 10 20  1  0
 12 21  1  1
 13 22  1  0
 13 23  1  0
 13 24  1  0
 14 25  1  0
 14 26  1  0
 15 27  1  0
M  ISO  8  16  14  17  14  18  14  19  14  20  14  21   8  22   8  23   8
M  ISO  4  24   8  25   8  26   8  27   3
M  END
>  <minimizedAffinity>  (1) 
-3.87279201

>  <minimizedRMSD>  (1) 
0.275462866

$$$$
