
     RDKit          3D

 33 35  0  0  1  0  0  0  0  0999 V2000
   44.4300   35.9610   44.4300 C   0  0  0  0  0  0  0  0  0  0  0  0
   44.2750   35.6430   43.0700 C   0  0  0  0  0  0  0  0  0  0  0  0
   44.7100   34.3660   42.6450 C   0  0  0  0  0  0  0  0  0  0  0  0
   45.2390   33.5540   43.5880 N   0  0  0  0  0  0  0  0  0  0  0  0
   45.3810   33.8620   44.8660 C   0  0  0  0  0  0  0  0  0  0  0  0
   44.9710   35.0740   45.2830 N   0  0  0  0  0  0  0  0  0  0  0  0
   45.9370   32.9790   45.8170 N   0  0  0  0  0  0  0  0  0  0  0  0
   45.7210   32.8830   47.1370 N   0  0  0  0  0  0  0  0  0  0  0  0
   46.4690   31.8850   47.6300 C   0  0  0  0  0  0  0  0  0  0  0  0
   47.1760   31.3400   46.5800 C   0  0  0  0  0  0  0  0  0  0  0  0
   46.8300   32.0450   45.4250 C   0  0  0  0  0  0  0  0  0  0  0  0
   47.4590   31.6340   44.1490 C   0  0  2  0  0  0  0  0  0  0  0  0
   48.0780   32.8630   43.5090 C   0  0  0  0  0  0  0  0  0  0  0  0
   46.4800   31.0500   43.1900 C   0  0  0  0  0  0  0  0  0  0  0  0
   45.8420   29.8350   43.6750 N   0  0  0  0  0  0  0  0  0  0  0  0
   44.4860   29.9140   43.6370 C   0  0  0  0  0  0  0  0  0  0  0  0
   43.9650   28.7160   44.1160 C   0  0  0  0  0  0  0  0  0  0  0  0
   45.0340   27.9450   44.4310 N   0  0  0  0  0  0  0  0  0  0  0  0
   46.1510   28.6440   44.1560 C   0  0  0  0  0  0  0  0  0  0  0  0
   44.1056   36.9448   44.8000 H   0  0  0  0  0  0  0  0  0  0  0  0
   43.8322   36.3599   42.3629 H   0  0  0  0  0  0  0  0  0  0  0  0
   44.6220   34.0481   41.5956 H   0  0  0  0  0  0  0  0  0  0  0  0
   46.5106   31.5607   48.6803 H   0  0  0  0  0  0  0  0  0  0  0  0
   47.8849   30.5011   46.6406 H   0  0  0  0  0  0  0  0  0  0  0  0
   48.2082   30.8611   44.3755 H   0  0  0  0  0  0  0  0  0  0  0  0
   48.4243   33.5505   44.2947 H   0  0  0  0  0  0  0  0  0  0  0  0
   48.9313   32.5606   42.8842 H   0  0  0  0  0  0  0  0  0  0  0  0
   47.3270   33.3686   42.8842 H   0  0  0  0  0  0  0  0  0  0  0  0
   47.0079   30.8155   42.2539 H   0  0  0  0  0  0  0  0  0  0  0  0
   45.6848   31.7964   43.0467 H   0  0  0  0  0  0  0  0  0  0  0  0
   43.9005   30.7771   43.2875 H   0  0  0  0  0  0  0  0  0  0  0  0
   42.9027   28.4493   44.2181 H   0  0  0  0  0  0  0  0  0  0  0  0
   47.1760   28.2757   44.3100 H   0  0  0  0  0  0  0  0  0  0  0  0
  1  6  2  0
  2  1  1  0
  3  2  2  0
  3  4  1  0
  4  5  2  0
  5  6  1  0
  5  7  1  0
  7  8  1  0
  8  9  2  0
 10  9  1  0
 11  7  1  0
 11 10  2  0
 12 11  1  0
 13 12  1  0
 14 15  1  0
 14 12  1  0
 15 19  1  0
 16 15  1  0
 16 17  2  0
 17 18  1  0
 19 18  2  0
  1 20  1  0
  2 21  1  0
  3 22  1  0
  9 23  1  0
 10 24  1  0
 12 25  1  1
 13 26  1  0
 13 27  1  0
 13 28  1  0
 14 29  1  0
 14 30  1  0
 16 31  1  0
 17 32  1  0
 19 33  1  0
M  ISO  8  20  14  21  14  22  14  23  14  24  14  25   8  26   8  27   8
M  ISO  6  28   8  29   8  30   8  31  14  32  14  33  14
M  END
>  <minimizedAffinity>  (1) 
-3.89299583

>  <minimizedRMSD>  (1) 
0.0598805211

$$$$
