
     RDKit          3D

 43 46  0  0  1  0  0  0  0  0999 V2000
   47.0060   31.2730   45.1130 C   0  0  2  0  0  0  0  0  0  0  0  0
   44.7280   35.9020   44.1220 C   0  0  0  0  0  0  0  0  0  0  0  0
   44.6650   35.3190   42.8580 C   0  0  0  0  0  0  0  0  0  0  0  0
   44.9050   33.9240   42.7720 C   0  0  0  0  0  0  0  0  0  0  0  0
   45.1700   33.3200   43.9470 N   0  0  0  0  0  0  0  0  0  0  0  0
   45.2330   33.8350   45.1220 C   0  0  0  0  0  0  0  0  0  0  0  0
   45.0050   35.1610   45.2080 N   0  0  0  0  0  0  0  0  0  0  0  0
   45.5210   33.0940   46.2840 N   0  0  0  0  0  0  0  0  0  0  0  0
   45.1250   33.3120   47.5440 N   0  0  0  0  0  0  0  0  0  0  0  0
   45.6400   32.3610   48.3240 C   0  0  0  0  0  0  0  0  0  0  0  0
   46.3720   31.5350   47.5250 C   0  0  0  0  0  0  0  0  0  0  0  0
   46.3100   31.9870   46.2100 C   0  0  0  0  0  0  0  0  0  0  0  0
   47.8040   32.2640   44.3150 C   0  0  0  0  0  0  0  0  0  0  0  0
   46.0960   30.5250   44.2460 C   0  0  0  0  0  0  0  0  0  0  0  0
   44.5970   29.8890   45.0480 S   0  0  0  0  0  0  0  0  0  0  0  0
   44.8700   28.4840   46.1100 C   0  0  0  0  0  0  0  0  0  0  0  0
   45.9800   28.0660   46.8130 C   0  0  0  0  0  0  0  0  0  0  0  0
   45.9800   26.9230   47.5740 C   0  0  0  0  0  0  0  0  0  0  0  0
   44.8690   26.1200   47.6830 C   0  0  0  0  0  0  0  0  0  0  0  0
   43.7500   26.5000   47.0020 C   0  0  0  0  0  0  0  0  0  0  0  0
   42.6470   25.6820   47.1250 C   0  0  0  0  0  0  0  0  0  0  0  0
   41.4940   25.9920   46.4780 C   0  0  0  0  0  0  0  0  0  0  0  0
   41.4260   27.1100   45.7070 C   0  0  0  0  0  0  0  0  0  0  0  0
   42.5500   27.9010   45.6110 C   0  0  0  0  0  0  0  0  0  0  0  0
   43.7510   27.6490   46.2390 C   0  0  0  0  0  0  0  0  0  0  0  0
   47.6712   30.5250   45.5690 H   0  0  0  0  0  0  0  0  0  0  0  0
   44.5488   36.9817   44.2320 H   0  0  0  0  0  0  0  0  0  0  0  0
   44.4382   35.9168   41.9629 H   0  0  0  0  0  0  0  0  0  0  0  0
   44.8770   33.3765   41.8184 H   0  0  0  0  0  0  0  0  0  0  0  0
   45.4999   32.2618   49.4105 H   0  0  0  0  0  0  0  0  0  0  0  0
   46.9262   30.6482   47.8663 H   0  0  0  0  0  0  0  0  0  0  0  0
   48.3444   32.9351   44.9988 H   0  0  0  0  0  0  0  0  0  0  0  0
   48.5256   31.7280   43.6809 H   0  0  0  0  0  0  0  0  0  0  0  0
   47.1265   32.8546   43.6809 H   0  0  0  0  0  0  0  0  0  0  0  0
   46.6489   29.6682   43.8334 H   0  0  0  0  0  0  0  0  0  0  0  0
   45.7505   31.2390   43.4839 H   0  0  0  0  0  0  0  0  0  0  0  0
   46.8982   28.6696   46.7624 H   0  0  0  0  0  0  0  0  0  0  0  0
   46.8966   26.6411   48.1128 H   0  0  0  0  0  0  0  0  0  0  0  0
   44.8822   25.2065   48.2957 H   0  0  0  0  0  0  0  0  0  0  0  0
   42.7010   24.7771   47.7480 H   0  0  0  0  0  0  0  0  0  0  0  0
   40.6148   25.3385   46.5776 H   0  0  0  0  0  0  0  0  0  0  0  0
   40.5003   27.3752   45.1753 H   0  0  0  0  0  0  0  0  0  0  0  0
   42.4839   28.8031   44.9850 H   0  0  0  0  0  0  0  0  0  0  0  0
  1 12  1  0
  2  7  2  0
  3  2  1  0
  4  3  2  0
  4  5  1  0
  5  6  2  0
  6  7  1  0
  6  8  1  0
  8  9  1  0
  9 10  2  0
 11 10  1  0
 12  8  1  0
 12 11  2  0
 13  1  1  0
 14 15  1  0
 14  1  1  0
 15 16  1  0
 16 25  1  0
 16 17  2  0
 17 18  1  0
 18 19  2  0
 20 21  2  0
 20 19  1  0
 22 21  1  0
 23 22  2  0
 24 23  1  0
 24 25  2  0
 25 20  1  0
  1 26  1  1
  2 27  1  0
  3 28  1  0
  4 29  1  0
 10 30  1  0
 11 31  1  0
 13 32  1  0
 13 33  1  0
 13 34  1  0
 14 35  1  0
 14 36  1  0
 17 37  1  0
 18 38  1  0
 19 39  1  0
 21 40  1  0
 22 41  1  0
 23 42  1  0
 24 43  1  0
M  ISO  8  26   8  27  14  28  14  29  14  30  14  31  14  32   8  33   8
M  ISO  8  34   8  35   8  36   8  37  14  38  14  39  14  40  14  41  14
M  ISO  2  42  14  43  14
M  END
>  <minimizedAffinity>  (1) 
-5.1300211

>  <minimizedRMSD>  (1) 
2.1626122

$$$$
