
     RDKit          3D

 43 45  0  0  1  0  0  0  0  0999 V2000
   44.6110   36.0560   44.2870 C   0  0  0  0  0  0  0  0  0  0  0  0
   44.5130   35.5250   43.0010 C   0  0  0  0  0  0  0  0  0  0  0  0
   44.7810   34.1410   42.8560 C   0  0  0  0  0  0  0  0  0  0  0  0
   45.1020   33.4980   44.0060 N   0  0  0  0  0  0  0  0  0  0  0  0
   45.1950   33.9780   45.2000 C   0  0  0  0  0  0  0  0  0  0  0  0
   44.9410   35.2900   45.3270 N   0  0  0  0  0  0  0  0  0  0  0  0
   45.5250   33.1990   46.3140 N   0  0  0  0  0  0  0  0  0  0  0  0
   45.1570   33.3810   47.6030 N   0  0  0  0  0  0  0  0  0  0  0  0
   45.6900   32.4020   48.3380 C   0  0  0  0  0  0  0  0  0  0  0  0
   46.4000   31.6000   47.4940 C   0  0  0  0  0  0  0  0  0  0  0  0
   46.3000   32.1040   46.1920 C   0  0  0  0  0  0  0  0  0  0  0  0
   46.9570   31.4370   45.0520 C   0  0  2  0  0  0  0  0  0  0  0  0
   47.7240   32.4500   44.2560 C   0  0  0  0  0  0  0  0  0  0  0  0
   46.0200   30.6800   44.1970 C   0  0  0  0  0  0  0  0  0  0  0  0
   45.4510   29.1270   44.8690 S   0  0  0  0  0  0  0  0  0  0  0  0
   44.2150   29.0180   46.0650 C   0  0  0  0  0  0  0  0  0  0  0  0
   43.0230   28.2150   45.6080 C   0  0  0  0  0  0  0  0  0  0  0  0
   43.5320   26.8450   45.1590 C   0  0  0  0  0  0  0  0  0  0  0  0
   43.9050   26.1120   46.4310 C   0  0  0  0  0  0  0  0  0  0  0  0
   45.0560   26.8550   47.0420 C   0  0  0  0  0  0  0  0  0  0  0  0
   44.7880   28.3000   47.3070 C   0  0  0  0  0  0  0  0  0  0  0  0
   44.4124   37.1262   44.4460 H   0  0  0  0  0  0  0  0  0  0  0  0
   44.2403   36.1516   42.1390 H   0  0  0  0  0  0  0  0  0  0  0  0
   44.7323   33.6274   41.8845 H   0  0  0  0  0  0  0  0  0  0  0  0
   45.5772   32.2673   49.4239 H   0  0  0  0  0  0  0  0  0  0  0  0
   46.9613   30.7012   47.7891 H   0  0  0  0  0  0  0  0  0  0  0  0
   47.6493   30.6872   45.4625 H   0  0  0  0  0  0  0  0  0  0  0  0
   48.2439   33.1367   44.9402 H   0  0  0  0  0  0  0  0  0  0  0  0
   48.4614   31.9361   43.6219 H   0  0  0  0  0  0  0  0  0  0  0  0
   47.0293   33.0204   43.6219 H   0  0  0  0  0  0  0  0  0  0  0  0
   46.5251   30.4716   43.2423 H   0  0  0  0  0  0  0  0  0  0  0  0
   45.1251   31.3117   44.0961 H   0  0  0  0  0  0  0  0  0  0  0  0
   43.8872   30.0463   46.2775 H   0  0  0  0  0  0  0  0  0  0  0  0
   42.3103   28.0968   46.4375 H   0  0  0  0  0  0  0  0  0  0  0  0
   42.5080   28.7254   44.7808 H   0  0  0  0  0  0  0  0  0  0  0  0
   42.7433   26.3004   44.6192 H   0  0  0  0  0  0  0  0  0  0  0  0
   44.3883   26.9334   44.4742 H   0  0  0  0  0  0  0  0  0  0  0  0
   43.0515   26.1004   47.1248 H   0  0  0  0  0  0  0  0  0  0  0  0
   44.1796   25.0685   46.2174 H   0  0  0  0  0  0  0  0  0  0  0  0
   45.3092   26.3715   47.9970 H   0  0  0  0  0  0  0  0  0  0  0  0
   45.8769   26.8175   46.3107 H   0  0  0  0  0  0  0  0  0  0  0  0
   45.7298   28.7888   47.5971 H   0  0  0  0  0  0  0  0  0  0  0  0
   44.0419   28.3657   48.1126 H   0  0  0  0  0  0  0  0  0  0  0  0
  1  6  2  0
  2  1  1  0
  3  2  2  0
  3  4  1  0
  4  5  2  0
  5  6  1  0
  5  7  1  0
  7  8  1  0
  8  9  2  0
 10  9  1  0
 11  7  1  0
 11 10  2  0
 12 11  1  0
 13 12  1  0
 14 15  1  0
 14 12  1  0
 15 16  1  0
 16 21  1  0
 17 16  1  0
 18 17  1  0
 18 19  1  0
 19 20  1  0
 20 21  1  0
  1 22  1  0
  2 23  1  0
  3 24  1  0
  9 25  1  0
 10 26  1  0
 12 27  1  1
 13 28  1  0
 13 29  1  0
 13 30  1  0
 14 31  1  0
 14 32  1  0
 16 33  1  0
 17 34  1  0
 17 35  1  0
 18 36  1  0
 18 37  1  0
 19 38  1  0
 19 39  1  0
 20 40  1  0
 20 41  1  0
 21 42  1  0
 21 43  1  0
M  ISO  8  22  14  23  14  24  14  25  14  26  14  27   8  28   8  29   8
M  ISO  8  30   8  31   8  32   8  33  13  34  13  35  13  36  13  37  13
M  ISO  6  38  13  39  13  40  13  41  13  42  13  43  13
M  END
>  <minimizedAffinity>  (1) 
-4.42031145

>  <minimizedRMSD>  (1) 
1.30451512

$$$$
