
     RDKit          3D

 30 31  0  0  1  0  0  0  0  0999 V2000
   44.5330   35.9390   44.3330 C   0  0  0  0  0  0  0  0  0  0  0  0
   44.4090   35.3750   43.0460 C   0  0  0  0  0  0  0  0  0  0  0  0
   44.7170   33.9950   42.8970 C   0  0  0  0  0  0  0  0  0  0  0  0
   45.0980   33.3850   44.0410 N   0  0  0  0  0  0  0  0  0  0  0  0
   45.2180   33.8810   45.2250 C   0  0  0  0  0  0  0  0  0  0  0  0
   44.9300   35.1860   45.3810 N   0  0  0  0  0  0  0  0  0  0  0  0
   45.6250   33.1360   46.3410 N   0  0  0  0  0  0  0  0  0  0  0  0
   45.3300   33.3120   47.6400 N   0  0  0  0  0  0  0  0  0  0  0  0
   45.9380   32.3480   48.3600 C   0  0  0  0  0  0  0  0  0  0  0  0
   46.6290   31.5550   47.4860 C   0  0  0  0  0  0  0  0  0  0  0  0
   46.4320   32.0570   46.1920 C   0  0  0  0  0  0  0  0  0  0  0  0
   47.0600   31.4010   45.0350 C   0  0  2  0  0  0  0  0  0  0  0  0
   47.7760   32.4100   44.1890 C   0  0  0  0  0  0  0  0  0  0  0  0
   46.1110   30.6070   44.2320 C   0  0  0  0  0  0  0  0  0  0  0  0
   45.5760   29.0600   44.9230 S   0  0  0  0  0  0  0  0  0  0  0  0
   44.3120   28.8790   46.0680 C   0  0  0  0  0  0  0  0  0  0  0  0
   43.0630   28.7220   45.4290 F   0  0  0  0  0  0  0  0  0  0  0  0
   44.5070   27.5660   46.6470 F   0  0  0  0  0  0  0  0  0  0  0  0
   44.2170   29.6630   47.1550 F   0  0  0  0  0  0  0  0  0  0  0  0
   44.3037   37.0041   44.4845 H   0  0  0  0  0  0  0  0  0  0  0  0
   44.0853   35.9818   42.1875 H   0  0  0  0  0  0  0  0  0  0  0  0
   44.6508   33.4690   41.9332 H   0  0  0  0  0  0  0  0  0  0  0  0
   45.8875   32.2222   49.4516 H   0  0  0  0  0  0  0  0  0  0  0  0
   47.2343   30.6759   47.7521 H   0  0  0  0  0  0  0  0  0  0  0  0
   47.7923   30.6832   45.4331 H   0  0  0  0  0  0  0  0  0  0  0  0
   48.2899   33.1342   44.8381 H   0  0  0  0  0  0  0  0  0  0  0  0
   48.5142   31.8984   43.5540 H   0  0  0  0  0  0  0  0  0  0  0  0
   47.0493   32.9379   43.5540 H   0  0  0  0  0  0  0  0  0  0  0  0
   46.5911   30.3917   43.2660 H   0  0  0  0  0  0  0  0  0  0  0  0
   45.2022   31.2233   44.1677 H   0  0  0  0  0  0  0  0  0  0  0  0
  1  6  2  0
  2  1  1  0
  3  2  2  0
  3  4  1  0
  4  5  2  0
  5  6  1  0
  5  7  1  0
  7  8  1  0
  8  9  2  0
 10  9  1  0
 11  7  1  0
 11 10  2  0
 12 11  1  0
 13 12  1  0
 14 15  1  0
 14 12  1  0
 15 16  1  0
 16 18  1  0
 16 19  1  0
 17 16  1  0
  1 20  1  0
  2 21  1  0
  3 22  1  0
  9 23  1  0
 10 24  1  0
 12 25  1  1
 13 26  1  0
 13 27  1  0
 13 28  1  0
 14 29  1  0
 14 30  1  0
M  ISO  8  20  14  21  14  22  14  23  14  24  14  25   8  26   8  27   8
M  ISO  3  28   8  29   8  30   8
M  END
>  <minimizedAffinity>  (1) 
-4.12936544

>  <minimizedRMSD>  (1) 
1.14501643

$$$$
