
     RDKit          3D

 40 42  0  0  1  0  0  0  0  0999 V2000
   46.9900   31.4340   44.7470 C   0  0  2  0  0  0  0  0  0  0  0  0
   44.6400   36.1100   44.0700 C   0  0  0  0  0  0  0  0  0  0  0  0
   44.5390   35.5890   42.7810 C   0  0  0  0  0  0  0  0  0  0  0  0
   44.7940   34.2070   42.6210 C   0  0  0  0  0  0  0  0  0  0  0  0
   45.1090   33.5460   43.7470 N   0  0  0  0  0  0  0  0  0  0  0  0
   45.2060   33.9990   44.9460 C   0  0  0  0  0  0  0  0  0  0  0  0
   44.9640   35.3140   45.1040 N   0  0  0  0  0  0  0  0  0  0  0  0
   45.5470   33.2070   46.0690 N   0  0  0  0  0  0  0  0  0  0  0  0
   45.2020   33.3630   47.3420 N   0  0  0  0  0  0  0  0  0  0  0  0
   45.7450   32.3570   48.0550 C   0  0  0  0  0  0  0  0  0  0  0  0
   46.4370   31.5760   47.1800 C   0  0  0  0  0  0  0  0  0  0  0  0
   46.3270   32.1020   45.8960 C   0  0  0  0  0  0  0  0  0  0  0  0
   47.8620   32.4480   44.0540 C   0  0  0  0  0  0  0  0  0  0  0  0
   46.0110   30.8600   43.7960 C   0  0  0  0  0  0  0  0  0  0  0  0
   44.7630   29.8080   44.5420 S   0  0  0  0  0  0  0  0  0  0  0  0
   46.1110   26.5370   47.3870 C   0  0  0  0  0  0  0  0  0  0  0  0
   46.8080   26.7240   46.2380 C   0  0  0  0  0  0  0  0  0  0  0  0
   46.3950   27.7530   45.3760 C   0  0  0  0  0  0  0  0  0  0  0  0
   45.3200   28.5790   45.6430 C   0  0  0  0  0  0  0  0  0  0  0  0
   44.6590   28.3430   46.8180 C   0  0  0  0  0  0  0  0  0  0  0  0
   45.0480   27.3340   47.6840 C   0  0  0  0  0  0  0  0  0  0  0  0
   46.5650   25.2170   48.4850 S   0  0  0  0  0  0  0  0  0  0  0  0
   45.5860   25.2490   49.6470 O   0  0  0  0  0  0  0  0  0  0  0  0
   47.9390   25.4360   49.0740 O   0  0  0  0  0  0  0  0  0  0  0  0
   47.5936   30.5945   45.1224 H   0  0  0  0  0  0  0  0  0  0  0  0
   44.4533   37.1802   44.2425 H   0  0  0  0  0  0  0  0  0  0  0  0
   44.2723   36.2257   41.9246 H   0  0  0  0  0  0  0  0  0  0  0  0
   44.7382   33.7081   41.6422 H   0  0  0  0  0  0  0  0  0  0  0  0
   45.6477   32.1968   49.1389 H   0  0  0  0  0  0  0  0  0  0  0  0
   46.9974   30.6680   47.4472 H   0  0  0  0  0  0  0  0  0  0  0  0
   48.3854   33.0566   44.8061 H   0  0  0  0  0  0  0  0  0  0  0  0
   48.5997   31.9283   43.4249 H   0  0  0  0  0  0  0  0  0  0  0  0
   47.2377   33.0996   43.4249 H   0  0  0  0  0  0  0  0  0  0  0  0
   46.5633   30.2630   43.0553 H   0  0  0  0  0  0  0  0  0  0  0  0
   45.4734   31.7118   43.3540 H   0  0  0  0  0  0  0  0  0  0  0  0
   47.6708   26.0886   45.9891 H   0  0  0  0  0  0  0  0  0  0  0  0
   46.9550   27.9091   44.4422 H   0  0  0  0  0  0  0  0  0  0  0  0
   43.7956   28.9714   47.0819 H   0  0  0  0  0  0  0  0  0  0  0  0
   44.4928   27.1754   48.6203 H   0  0  0  0  0  0  0  0  0  0  0  0
   46.5525   24.0369   47.7891 H   0  0  0  0  0  0  0  0  0  0  0  0
  1 12  1  0
  2  7  2  0
  3  2  1  0
  4  3  2  0
  4  5  1  0
  5  6  2  0
  6  7  1  0
  6  8  1  0
  8  9  1  0
  9 10  2  0
 11 10  1  0
 12  8  1  0
 12 11  2  0
 13  1  1  0
 14 15  1  0
 14  1  1  0
 15 19  1  0
 16 21  2  0
 16 22  1  0
 17 16  1  0
 18 19  1  0
 18 17  2  0
 19 20  2  0
 20 21  1  0
 22 24  2  0
 22 23  2  0
  1 25  1  1
  2 26  1  0
  3 27  1  0
  4 28  1  0
 10 29  1  0
 11 30  1  0
 13 31  1  0
 13 32  1  0
 13 33  1  0
 14 34  1  0
 14 35  1  0
 17 36  1  0
 18 37  1  0
 20 38  1  0
 21 39  1  0
 22 40  1  0
M  ISO  8  25   8  26  14  27  14  28  14  29  14  30  14  31   8  32   8
M  ISO  8  33   8  34   8  35   8  36  14  37  14  38  14  39  14  40  11
M  END
>  <minimizedAffinity>  (1) 
-4.42614508

>  <minimizedRMSD>  (1) 
3.22756648

$$$$
