
     RDKit          3D

 47 50  0  0  1  0  0  0  0  0999 V2000
   44.7290   33.8220   40.9370 N   0  0  0  0  0  0  0  0  0  0  0  0
   43.5640   34.6530   40.6370 C   0  0  0  0  0  0  0  0  0  0  0  0
   42.4000   34.3330   41.5300 C   0  0  0  0  0  0  0  0  0  0  0  0
   42.1060   32.9200   41.3950 N   0  0  0  0  0  0  0  0  0  0  0  0
   43.2280   32.2190   42.0180 C   0  0  0  0  0  0  0  0  0  0  0  0
   44.5410   32.4440   41.2960 C   0  0  1  0  0  0  0  0  0  0  0  0
   46.6390   34.7810   42.0610 C   0  0  0  0  0  0  0  0  0  0  0  0
   47.9560   35.1760   42.0240 C   0  0  0  0  0  0  0  0  0  0  0  0
   48.7360   35.0360   40.8670 C   0  0  0  0  0  0  0  0  0  0  0  0
   48.1600   34.4790   39.7130 C   0  0  0  0  0  0  0  0  0  0  0  0
   46.8510   34.0940   39.7710 C   0  0  0  0  0  0  0  0  0  0  0  0
   46.1160   34.2420   40.9150 C   0  0  0  0  0  0  0  0  0  0  0  0
   44.4740   36.1540   44.8110 C   0  0  0  0  0  0  0  0  0  0  0  0
   45.1180   36.0770   43.5720 C   0  0  0  0  0  0  0  0  0  0  0  0
   45.9270   34.9680   43.3000 C   0  0  0  0  0  0  0  0  0  0  0  0
   46.0550   34.0070   44.2520 N   0  0  0  0  0  0  0  0  0  0  0  0
   45.3970   34.1410   45.4460 C   0  0  0  0  0  0  0  0  0  0  0  0
   44.6180   35.2030   45.7180 N   0  0  0  0  0  0  0  0  0  0  0  0
   44.6830   31.5220   40.1860 N   0  0  0  0  0  0  0  0  0  0  0  0
   44.0290   31.6720   38.9970 C   0  0  0  0  0  0  0  0  0  0  0  0
   44.1640   30.7990   37.9480 C   0  0  0  0  0  0  0  0  0  0  0  0
   43.4290   31.0010   36.6620 C   0  0  0  0  0  0  0  0  0  0  0  0
   44.9950   29.7050   38.0730 C   0  0  0  0  0  0  0  0  0  0  0  0
   45.1370   28.8850   37.1200 O   0  0  0  0  0  0  0  0  0  0  0  0
   45.6390   29.5510   39.2360 N   0  0  0  0  0  0  0  0  0  0  0  0
   45.4810   30.4310   40.2430 C   0  0  0  0  0  0  0  0  0  0  0  0
   46.1350   30.1880   41.2910 O   0  0  0  0  0  0  0  0  0  0  0  0
   43.8368   35.7098   40.7740 H   0  0  0  0  0  0  0  0  0  0  0  0
   43.2613   34.4517   39.5988 H   0  0  0  0  0  0  0  0  0  0  0  0
   42.6570   34.5625   42.5746 H   0  0  0  0  0  0  0  0  0  0  0  0
   41.5239   34.9341   41.2454 H   0  0  0  0  0  0  0  0  0  0  0  0
   41.2260   32.6889   41.8777 H   0  0  0  0  0  0  0  0  0  0  0  0
   43.3320   32.5747   43.0537 H   0  0  0  0  0  0  0  0  0  0  0  0
   43.0085   31.1420   41.9738 H   0  0  0  0  0  0  0  0  0  0  0  0
   45.3633   32.2184   41.9910 H   0  0  0  0  0  0  0  0  0  0  0  0
   48.4094   35.6133   42.9258 H   0  0  0  0  0  0  0  0  0  0  0  0
   49.7875   35.3588   40.8631 H   0  0  0  0  0  0  0  0  0  0  0  0
   48.7460   34.3566   38.7901 H   0  0  0  0  0  0  0  0  0  0  0  0
   46.3782   33.6560   38.8796 H   0  0  0  0  0  0  0  0  0  0  0  0
   43.8360   37.0217   45.0350 H   0  0  0  0  0  0  0  0  0  0  0  0
   44.9909   36.8740   42.8246 H   0  0  0  0  0  0  0  0  0  0  0  0
   45.5094   33.3546   46.2069 H   0  0  0  0  0  0  0  0  0  0  0  0
   43.3601   32.5366   38.8742 H   0  0  0  0  0  0  0  0  0  0  0  0
   42.3885   31.2870   36.8754 H   0  0  0  0  0  0  0  0  0  0  0  0
   43.9169   31.7984   36.0822 H   0  0  0  0  0  0  0  0  0  0  0  0
   43.4408   30.0663   36.0822 H   0  0  0  0  0  0  0  0  0  0  0  0
   46.2670   28.7446   39.3632 H   0  0  0  0  0  0  0  0  0  0  0  0
  1  6  1  0
  2  1  1  0
  2  3  1  0
  4  3  1  0
  4  5  1  0
  6  5  1  0
  7 15  1  0
  8  7  2  0
  9  8  1  0
 10 11  1  0
 10  9  2  0
 11 12  2  0
 12  1  1  0
 12  7  1  0
 13 18  2  0
 14 13  1  0
 15 14  2  0
 15 16  1  0
 16 17  2  0
 17 18  1  0
 19 26  1  0
 19  6  1  0
 20 19  1  0
 21 23  1  0
 21 20  2  0
 22 21  1  0
 23 25  1  0
 24 23  2  0
 25 26  1  0
 26 27  2  0
  2 28  1  0
  2 29  1  0
  3 30  1  0
  3 31  1  0
  4 32  1  0
  5 33  1  0
  5 34  1  0
  6 35  1  1
  8 36  1  0
  9 37  1  0
 10 38  1  0
 11 39  1  0
 13 40  1  0
 14 41  1  0
 17 42  1  0
 20 43  1  0
 22 44  1  0
 22 45  1  0
 22 46  1  0
 25 47  1  0
M  ISO  8  28  13  29  13  30  13  31  13  32   5  33  13  34  13  35  13
M  ISO  8  36  14  37  14  38  14  39  14  40  14  41  14  42  14  43  14
M  ISO  4  44   8  45   8  46   8  47   9
M  END
>  <minimizedAffinity>  (1) 
-5.88560295

>  <minimizedRMSD>  (1) 
0.645731628

$$$$
