
     RDKit          3D

 36 38  0  0  1  0  0  0  0  0999 V2000
   47.2340   31.5410   44.4970 C   0  0  2  0  0  0  0  0  0  0  0  0
   44.4920   36.0130   44.0660 C   0  0  0  0  0  0  0  0  0  0  0  0
   44.3530   35.5040   42.7750 C   0  0  0  0  0  0  0  0  0  0  0  0
   44.7080   34.1460   42.5610 C   0  0  0  0  0  0  0  0  0  0  0  0
   45.1450   33.4980   43.6600 N   0  0  0  0  0  0  0  0  0  0  0  0
   45.2830   33.9420   44.8610 C   0  0  0  0  0  0  0  0  0  0  0  0
   44.9450   35.2260   45.0500 N   0  0  0  0  0  0  0  0  0  0  0  0
   45.7490   33.1670   45.9320 N   0  0  0  0  0  0  0  0  0  0  0  0
   45.4740   33.2720   47.2380 N   0  0  0  0  0  0  0  0  0  0  0  0
   46.1310   32.3170   47.8960 C   0  0  0  0  0  0  0  0  0  0  0  0
   46.8330   31.6000   46.9770 C   0  0  0  0  0  0  0  0  0  0  0  0
   46.6000   32.1310   45.6990 C   0  0  0  0  0  0  0  0  0  0  0  0
   47.9780   32.6200   43.7620 C   0  0  0  0  0  0  0  0  0  0  0  0
   46.2740   30.8760   43.6140 C   0  0  0  0  0  0  0  0  0  0  0  0
   45.0770   29.7950   44.4410 S   0  0  0  0  0  0  0  0  0  0  0  0
   45.8520   28.6010   45.5040 C   0  0  0  0  0  0  0  0  0  0  0  0
   47.0240   27.9070   45.3470 C   0  0  0  0  0  0  0  0  0  0  0  0
   47.4860   27.0150   46.2830 C   0  0  0  0  0  0  0  0  0  0  0  0
   46.7540   26.8050   47.4230 C   0  0  0  0  0  0  0  0  0  0  0  0
   45.5640   27.5260   47.5590 C   0  0  0  0  0  0  0  0  0  0  0  0
   45.1200   28.3970   46.6330 N   0  0  0  0  0  0  0  0  0  0  0  0
   47.9306   30.7573   44.8295 H   0  0  0  0  0  0  0  0  0  0  0  0
   44.2296   37.0605   44.2757 H   0  0  0  0  0  0  0  0  0  0  0  0
   43.9816   36.1322   41.9519 H   0  0  0  0  0  0  0  0  0  0  0  0
   44.6325   33.6609   41.5767 H   0  0  0  0  0  0  0  0  0  0  0  0
   46.1096   32.1410   48.9816 H   0  0  0  0  0  0  0  0  0  0  0  0
   47.4810   30.7397   47.2005 H   0  0  0  0  0  0  0  0  0  0  0  0
   48.4475   33.3009   44.4872 H   0  0  0  0  0  0  0  0  0  0  0  0
   48.7550   32.1646   43.1304 H   0  0  0  0  0  0  0  0  0  0  0  0
   47.2762   33.1843   43.1304 H   0  0  0  0  0  0  0  0  0  0  0  0
   46.8404   30.2671   42.8940 H   0  0  0  0  0  0  0  0  0  0  0  0
   45.6851   31.6790   43.1467 H   0  0  0  0  0  0  0  0  0  0  0  0
   47.6174   28.0713   44.4355 H   0  0  0  0  0  0  0  0  0  0  0  0
   48.4310   26.4760   46.1203 H   0  0  0  0  0  0  0  0  0  0  0  0
   47.0887   26.0993   48.1976 H   0  0  0  0  0  0  0  0  0  0  0  0
   44.9611   27.3744   48.4665 H   0  0  0  0  0  0  0  0  0  0  0  0
  1 12  1  0
  2  7  2  0
  3  2  1  0
  4  3  2  0
  4  5  1  0
  5  6  2  0
  6  7  1  0
  6  8  1  0
  8  9  1  0
  9 10  2  0
 11 10  1  0
 12  8  1  0
 12 11  2  0
 13  1  1  0
 14 15  1  0
 14  1  1  0
 15 16  1  0
 16 21  1  0
 17 16  2  0
 17 18  1  0
 18 19  2  0
 19 20  1  0
 21 20  2  0
  1 22  1  1
  2 23  1  0
  3 24  1  0
  4 25  1  0
 10 26  1  0
 11 27  1  0
 13 28  1  0
 13 29  1  0
 13 30  1  0
 14 31  1  0
 14 32  1  0
 17 33  1  0
 18 34  1  0
 19 35  1  0
 20 36  1  0
M  ISO  8  22   8  23  14  24  14  25  14  26  14  27  14  28   8  29   8
M  ISO  7  30   8  31   8  32   8  33  14  34  14  35  14  36  14
M  END
>  <minimizedAffinity>  (1) 
-3.95280218

>  <minimizedRMSD>  (1) 
1.09849823

$$$$
