
     RDKit          3D

 30 31  0  0  1  0  0  0  0  0999 V2000
   44.4450   36.0040   44.4520 C   0  0  0  0  0  0  0  0  0  0  0  0
   44.2710   35.7060   43.0840 C   0  0  0  0  0  0  0  0  0  0  0  0
   44.6830   34.4210   42.6560 C   0  0  0  0  0  0  0  0  0  0  0  0
   45.1960   33.6210   43.6010 N   0  0  0  0  0  0  0  0  0  0  0  0
   45.3640   33.8810   44.8650 C   0  0  0  0  0  0  0  0  0  0  0  0
   44.9750   35.1020   45.2830 N   0  0  0  0  0  0  0  0  0  0  0  0
   45.9290   32.9690   45.7820 N   0  0  0  0  0  0  0  0  0  0  0  0
   45.7070   32.8620   47.0970 N   0  0  0  0  0  0  0  0  0  0  0  0
   46.4580   31.8500   47.5670 C   0  0  0  0  0  0  0  0  0  0  0  0
   47.1510   31.3340   46.5090 C   0  0  0  0  0  0  0  0  0  0  0  0
   46.8210   32.0430   45.3490 C   0  0  0  0  0  0  0  0  0  0  0  0
   47.4070   31.6900   44.0410 C   0  0  2  0  0  0  0  0  0  0  0  0
   48.1020   32.8950   43.4810 C   0  0  0  0  0  0  0  0  0  0  0  0
   46.4530   31.1550   43.0810 C   0  0  0  0  0  0  0  0  0  0  0  0
   45.3430   29.8780   43.7550 S   0  0  0  0  0  0  0  0  0  0  0  0
   43.7010   29.8520   43.1030 C   0  0  0  0  0  0  0  0  0  0  0  0
   44.1414   36.9883   44.8381 H   0  0  0  0  0  0  0  0  0  0  0  0
   43.8368   36.4358   42.3848 H   0  0  0  0  0  0  0  0  0  0  0  0
   44.5876   34.0980   41.6088 H   0  0  0  0  0  0  0  0  0  0  0  0
   46.5053   31.5025   48.6096 H   0  0  0  0  0  0  0  0  0  0  0  0
   47.8578   30.4928   46.5610 H   0  0  0  0  0  0  0  0  0  0  0  0
   48.1207   30.8721   44.2191 H   0  0  0  0  0  0  0  0  0  0  0  0
   48.4654   33.5251   44.3061 H   0  0  0  0  0  0  0  0  0  0  0  0
   48.9532   32.5732   42.8630 H   0  0  0  0  0  0  0  0  0  0  0  0
   47.3972   33.4706   42.8630 H   0  0  0  0  0  0  0  0  0  0  0  0
   47.0163   30.7148   42.2450 H   0  0  0  0  0  0  0  0  0  0  0  0
   45.8138   31.9952   42.7721 H   0  0  0  0  0  0  0  0  0  0  0  0
   42.9776   29.8405   43.9316 H   0  0  0  0  0  0  0  0  0  0  0  0
   43.5374   30.7477   42.4857 H   0  0  0  0  0  0  0  0  0  0  0  0
   43.5658   28.9516   42.4857 H   0  0  0  0  0  0  0  0  0  0  0  0
  1  6  2  0
  2  1  1  0
  3  2  2  0
  3  4  1  0
  4  5  2  0
  5  6  1  0
  5  7  1  0
  7  8  1  0
  8  9  2  0
 10  9  1  0
 11  7  1  0
 11 10  2  0
 12 11  1  0
 13 12  1  0
 14 15  1  0
 14 12  1  0
 16 15  1  0
  1 17  1  0
  2 18  1  0
  3 19  1  0
  9 20  1  0
 10 21  1  0
 12 22  1  1
 13 23  1  0
 13 24  1  0
 13 25  1  0
 14 26  1  0
 14 27  1  0
 16 28  1  0
 16 29  1  0
 16 30  1  0
M  ISO  8  17  14  18  14  19  14  20  14  21  14  22   8  23   8  24   8
M  ISO  6  25   8  26   8  27   8  28   8  29   8  30   8
M  END
>  <minimizedAffinity>  (1) 
-3.73637605

>  <minimizedRMSD>  (1) 
0.0669558048

$$$$
