
     RDKit          3D

 34 36  0  0  1  0  0  0  0  0999 V2000
   44.5290   36.0750   44.1360 C   0  0  0  0  0  0  0  0  0  0  0  0
   44.3560   35.6530   42.8130 C   0  0  0  0  0  0  0  0  0  0  0  0
   44.6900   34.3110   42.5120 C   0  0  0  0  0  0  0  0  0  0  0  0
   45.1450   33.5820   43.5540 N   0  0  0  0  0  0  0  0  0  0  0  0
   45.3090   33.9560   44.7780 C   0  0  0  0  0  0  0  0  0  0  0  0
   44.9900   35.2260   45.0530 N   0  0  0  0  0  0  0  0  0  0  0  0
   45.7900   33.1080   45.7860 N   0  0  0  0  0  0  0  0  0  0  0  0
   45.5360   33.1370   47.1050 N   0  0  0  0  0  0  0  0  0  0  0  0
   46.2030   32.1360   47.6880 C   0  0  0  0  0  0  0  0  0  0  0  0
   46.8830   31.4760   46.7120 C   0  0  0  0  0  0  0  0  0  0  0  0
   46.6320   32.0860   45.4720 C   0  0  0  0  0  0  0  0  0  0  0  0
   47.2340   31.5770   44.2260 C   0  0  2  0  0  0  0  0  0  0  0  0
   48.0280   32.6730   43.5780 C   0  0  0  0  0  0  0  0  0  0  0  0
   46.2610   31.0180   43.2880 C   0  0  0  0  0  0  0  0  0  0  0  0
   45.0350   29.8950   44.0300 S   0  0  0  0  0  0  0  0  0  0  0  0
   45.8330   28.5330   44.8660 C   0  0  0  0  0  0  0  0  0  0  0  0
   45.1970   28.2800   46.0930 C   0  0  0  0  0  0  0  0  0  0  0  0
   45.8480   27.2120   46.7150 C   0  0  0  0  0  0  0  0  0  0  0  0
   46.8610   26.8770   45.8070 C   0  0  0  0  0  0  0  0  0  0  0  0
   46.7890   27.6820   44.7650 O   0  0  0  0  0  0  0  0  0  0  0  0
   44.2839   37.1093   44.4191 H   0  0  0  0  0  0  0  0  0  0  0  0
   43.9761   36.3361   42.0390 H   0  0  0  0  0  0  0  0  0  0  0  0
   44.5863   33.8912   41.5005 H   0  0  0  0  0  0  0  0  0  0  0  0
   46.2022   31.8909   48.7603 H   0  0  0  0  0  0  0  0  0  0  0  0
   47.5294   30.6001   46.8696 H   0  0  0  0  0  0  0  0  0  0  0  0
   47.8916   30.7394   44.5016 H   0  0  0  0  0  0  0  0  0  0  0  0
   48.4848   33.3035   44.3551 H   0  0  0  0  0  0  0  0  0  0  0  0
   48.8180   32.2326   42.9520 H   0  0  0  0  0  0  0  0  0  0  0  0
   47.3633   33.2864   42.9520 H   0  0  0  0  0  0  0  0  0  0  0  0
   46.8121   30.4600   42.5167 H   0  0  0  0  0  0  0  0  0  0  0  0
   45.6939   31.8715   42.8880 H   0  0  0  0  0  0  0  0  0  0  0  0
   44.3332   28.8295   46.4954 H   0  0  0  0  0  0  0  0  0  0  0  0
   45.6200   26.7459   47.6849 H   0  0  0  0  0  0  0  0  0  0  0  0
   47.5981   26.0717   45.9417 H   0  0  0  0  0  0  0  0  0  0  0  0
  1  6  2  0
  2  1  1  0
  3  2  2  0
  3  4  1  0
  4  5  2  0
  5  6  1  0
  5  7  1  0
  7  8  1  0
  8  9  2  0
 10  9  1  0
 11  7  1  0
 11 10  2  0
 12 11  1  0
 13 12  1  0
 14 15  1  0
 14 12  1  0
 15 16  1  0
 16 17  2  0
 17 18  1  0
 19 18  2  0
 20 16  1  0
 20 19  1  0
  1 21  1  0
  2 22  1  0
  3 23  1  0
  9 24  1  0
 10 25  1  0
 12 26  1  1
 13 27  1  0
 13 28  1  0
 13 29  1  0
 14 30  1  0
 14 31  1  0
 17 32  1  0
 18 33  1  0
 19 34  1  0
M  ISO  8  21  14  22  14  23  14  24  14  25  14  26   8  27   8  28   8
M  ISO  6  29   8  30   8  31   8  32  14  33  14  34  14
M  END
>  <minimizedAffinity>  (1) 
-3.79092884

>  <minimizedRMSD>  (1) 
0.67465198

$$$$
