
     RDKit          3D

 36 38  0  0  1  0  0  0  0  0999 V2000
   46.0410   29.6070   46.6770 C   0  0  2  0  0  0  0  0  0  0  0  0
   48.8200   31.6510   49.1680 C   0  0  0  0  0  0  0  0  0  0  0  0
   50.1620   31.5030   49.4930 C   0  0  0  0  0  0  0  0  0  0  0  0
   50.8110   30.2970   49.2050 C   0  0  0  0  0  0  0  0  0  0  0  0
   50.0950   29.3160   48.6160 N   0  0  0  0  0  0  0  0  0  0  0  0
   48.7640   29.4820   48.3010 C   0  0  0  0  0  0  0  0  0  0  0  0
   48.1660   30.6300   48.5810 N   0  0  0  0  0  0  0  0  0  0  0  0
   48.0190   28.4430   47.6680 N   0  0  0  0  0  0  0  0  0  0  0  0
   48.5160   27.1950   47.7430 C   0  0  0  0  0  0  0  0  0  0  0  0
   47.6140   26.3910   47.0590 C   0  0  0  0  0  0  0  0  0  0  0  0
   46.6050   27.1670   46.5950 N   0  0  0  0  0  0  0  0  0  0  0  0
   46.8560   28.4240   46.9690 C   0  0  0  0  0  0  0  0  0  0  0  0
   44.5870   29.1190   46.5770 C   0  0  0  0  0  0  0  0  0  0  0  0
   46.4060   30.1610   45.3200 C   0  0  0  0  0  0  0  0  0  0  0  0
   46.0110   31.5530   45.2660 N   0  0  0  0  0  0  0  0  0  0  0  0
   46.2250   32.4390   46.2540 C   0  0  0  0  0  0  0  0  0  0  0  0
   45.8290   33.7700   46.1610 C   0  0  0  0  0  0  0  0  0  0  0  0
   45.1890   34.2060   45.0100 C   0  0  0  0  0  0  0  0  0  0  0  0
   44.7930   35.3710   44.8210 O   0  0  0  0  0  0  0  0  0  0  0  0
   45.0200   33.2490   44.0800 N   0  0  0  0  0  0  0  0  0  0  0  0
   45.3850   31.9550   44.1270 C   0  0  0  0  0  0  0  0  0  0  0  0
   45.1580   31.1840   43.1780 O   0  0  0  0  0  0  0  0  0  0  0  0
   46.1913   30.3742   47.4508 H   0  0  0  0  0  0  0  0  0  0  0  0
   48.2960   32.5929   49.3878 H   0  0  0  0  0  0  0  0  0  0  0  0
   50.7104   32.3270   49.9729 H   0  0  0  0  0  0  0  0  0  0  0  0
   51.8733   30.1528   49.4514 H   0  0  0  0  0  0  0  0  0  0  0  0
   49.4435   26.8778   48.2421 H   0  0  0  0  0  0  0  0  0  0  0  0
   47.7038   25.3039   46.9173 H   0  0  0  0  0  0  0  0  0  0  0  0
   44.1762   28.9811   47.5880 H   0  0  0  0  0  0  0  0  0  0  0  0
   43.9863   29.8648   46.0357 H   0  0  0  0  0  0  0  0  0  0  0  0
   44.5579   28.1618   46.0357 H   0  0  0  0  0  0  0  0  0  0  0  0
   47.4920   30.0780   45.1661 H   0  0  0  0  0  0  0  0  0  0  0  0
   45.8893   29.5937   44.5319 H   0  0  0  0  0  0  0  0  0  0  0  0
   46.7316   32.0996   47.1695 H   0  0  0  0  0  0  0  0  0  0  0  0
   46.0211   34.4674   46.9897 H   0  0  0  0  0  0  0  0  0  0  0  0
   44.5472   33.5472   43.2149 H   0  0  0  0  0  0  0  0  0  0  0  0
  1 12  1  0
  2  3  2  0
  4  3  1  0
  5  4  2  0
  6  7  2  0
  6  5  1  0
  7  2  1  0
  8  9  1  0
  8  6  1  0
 10  9  2  0
 11 12  2  0
 11 10  1  0
 12  8  1  0
 13  1  1  0
 14  1  1  0
 15 14  1  0
 15 16  1  0
 17 16  2  0
 18 17  1  0
 19 18  2  0
 20 21  1  0
 20 18  1  0
 21 15  1  0
 22 21  2  0
  1 23  1  1
  2 24  1  0
  3 25  1  0
  4 26  1  0
  9 27  1  0
 10 28  1  0
 13 29  1  0
 13 30  1  0
 13 31  1  0
 14 32  1  0
 14 33  1  0
 16 34  1  0
 17 35  1  0
 20 36  1  0
M  ISO  8  23   8  24  14  25  14  26  14  27  14  28  14  29   8  30   8
M  ISO  6  31   8  32   8  33   8  34  14  35  14  36   9
M  END
>  <minimizedAffinity>  (1) 
-4.42776871

>  <minimizedRMSD>  (1) 
6.14735317

$$$$
