
     RDKit          3D

 50 53  0  0  1  0  0  0  0  0999 V2000
   46.9050   31.5020   44.5640 C   0  0  2  0  0  0  0  0  0  0  0  0
   44.6730   36.2370   44.1250 C   0  0  0  0  0  0  0  0  0  0  0  0
   44.5570   35.7750   42.8300 C   0  0  0  0  0  0  0  0  0  0  0  0
   44.7820   34.3900   42.5890 C   0  0  0  0  0  0  0  0  0  0  0  0
   45.0870   33.7150   43.7240 N   0  0  0  0  0  0  0  0  0  0  0  0
   45.2050   34.0820   44.9260 C   0  0  0  0  0  0  0  0  0  0  0  0
   44.9860   35.3900   45.1060 N   0  0  0  0  0  0  0  0  0  0  0  0
   45.5320   33.2330   45.9860 N   0  0  0  0  0  0  0  0  0  0  0  0
   45.2010   33.3450   47.2720 N   0  0  0  0  0  0  0  0  0  0  0  0
   45.7180   32.3130   47.9440 C   0  0  0  0  0  0  0  0  0  0  0  0
   46.3800   31.5510   47.0450 C   0  0  0  0  0  0  0  0  0  0  0  0
   46.2820   32.1170   45.7620 C   0  0  0  0  0  0  0  0  0  0  0  0
   47.8410   32.5000   43.9520 C   0  0  0  0  0  0  0  0  0  0  0  0
   45.9830   30.9920   43.5870 C   0  0  0  0  0  0  0  0  0  0  0  0
   45.6490   29.2130   43.6730 S   0  0  0  0  0  0  0  0  0  0  0  0
   45.7110   28.4720   45.2350 C   0  0  0  0  0  0  0  0  0  0  0  0
   44.4460   28.3520   45.7780 C   0  0  0  0  0  0  0  0  0  0  0  0
   44.1840   27.7700   47.0350 C   0  0  0  0  0  0  0  0  0  0  0  0
   45.2700   27.3080   47.7290 C   0  0  0  0  0  0  0  0  0  0  0  0
   46.5090   27.4220   47.2020 C   0  0  0  0  0  0  0  0  0  0  0  0
   46.7350   27.9910   45.9780 C   0  0  0  0  0  0  0  0  0  0  0  0
   48.0500   28.0590   45.4510 N   0  0  0  0  0  0  0  0  0  0  0  0
   48.9430   28.9330   46.2290 C   0  0  0  0  0  0  0  0  0  0  0  0
   50.2710   29.1000   45.5260 C   0  0  0  0  0  0  0  0  0  0  0  0
   49.9660   29.6090   44.2590 O   0  0  0  0  0  0  0  0  0  0  0  0
   49.4790   28.5490   43.5110 C   0  0  0  0  0  0  0  0  0  0  0  0
   48.7700   27.5130   44.3430 C   0  0  0  0  0  0  0  0  0  0  0  0
   47.4438   30.6077   44.9102 H   0  0  0  0  0  0  0  0  0  0  0  0
   44.5077   37.3015   44.3475 H   0  0  0  0  0  0  0  0  0  0  0  0
   44.2980   36.4575   42.0071 H   0  0  0  0  0  0  0  0  0  0  0  0
   44.7159   33.9216   41.5959 H   0  0  0  0  0  0  0  0  0  0  0  0
   45.6232   32.1201   49.0228 H   0  0  0  0  0  0  0  0  0  0  0  0
   46.9181   30.6216   47.2831 H   0  0  0  0  0  0  0  0  0  0  0  0
   48.3596   33.0530   44.7490 H   0  0  0  0  0  0  0  0  0  0  0  0
   48.5802   31.9753   43.3289 H   0  0  0  0  0  0  0  0  0  0  0  0
   47.2700   33.2041   43.3289 H   0  0  0  0  0  0  0  0  0  0  0  0
   46.3923   31.2110   42.5897 H   0  0  0  0  0  0  0  0  0  0  0  0
   45.0229   31.4871   43.7944 H   0  0  0  0  0  0  0  0  0  0  0  0
   43.5940   28.7327   45.1956 H   0  0  0  0  0  0  0  0  0  0  0  0
   43.1628   27.6914   47.4363 H   0  0  0  0  0  0  0  0  0  0  0  0
   45.1337   26.8435   48.7167 H   0  0  0  0  0  0  0  0  0  0  0  0
   47.3668   27.0439   47.7775 H   0  0  0  0  0  0  0  0  0  0  0  0
   48.4703   29.9192   46.3473 H   0  0  0  0  0  0  0  0  0  0  0  0
   49.1185   28.4740   47.2131 H   0  0  0  0  0  0  0  0  0  0  0  0
   50.9117   29.8034   46.0781 H   0  0  0  0  0  0  0  0  0  0  0  0
   50.8188   28.1484   45.4607 H   0  0  0  0  0  0  0  0  0  0  0  0
   48.7722   28.9425   42.7656 H   0  0  0  0  0  0  0  0  0  0  0  0
   50.3428   28.0561   43.0410 H   0  0  0  0  0  0  0  0  0  0  0  0
   48.0591   26.9765   43.6975 H   0  0  0  0  0  0  0  0  0  0  0  0
   49.5435   26.8501   44.7580 H   0  0  0  0  0  0  0  0  0  0  0  0
  1 12  1  0
  2  7  2  0
  3  2  1  0
  4  3  2  0
  4  5  1  0
  5  6  2  0
  6  7  1  0
  6  8  1  0
  8  9  1  0
  9 10  2  0
 11 10  1  0
 12  8  1  0
 12 11  2  0
 13  1  1  0
 14 15  1  0
 14  1  1  0
 15 16  1  0
 16 17  2  0
 16 21  1  0
 17 18  1  0
 18 19  2  0
 20 19  1  0
 21 20  2  0
 22 21  1  0
 22 23  1  0
 24 23  1  0
 25 24  1  0
 26 25  1  0
 26 27  1  0
 27 22  1  0
  1 28  1  1
  2 29  1  0
  3 30  1  0
  4 31  1  0
 10 32  1  0
 11 33  1  0
 13 34  1  0
 13 35  1  0
 13 36  1  0
 14 37  1  0
 14 38  1  0
 17 39  1  0
 18 40  1  0
 19 41  1  0
 20 42  1  0
 23 43  1  0
 23 44  1  0
 24 45  1  0
 24 46  1  0
 26 47  1  0
 26 48  1  0
 27 49  1  0
 27 50  1  0
M  ISO  8  28   8  29  14  30  14  31  14  32  14  33  14  34   8  35   8
M  ISO  8  36   8  37   8  38   8  39  14  40  14  41  14  42  14  43  13
M  ISO  7  44  13  45  13  46  13  47  13  48  13  49  13  50  13
M  END
>  <minimizedAffinity>  (1) 
-4.27282286

>  <minimizedRMSD>  (1) 
1.12956583

$$$$
