
     RDKit          3D

 43 46  0  0  1  0  0  0  0  0999 V2000
   47.0060   31.5630   44.6150 C   0  0  2  0  0  0  0  0  0  0  0  0
   44.6340   36.2200   44.1320 C   0  0  0  0  0  0  0  0  0  0  0  0
   44.5580   35.7570   42.8310 C   0  0  0  0  0  0  0  0  0  0  0  0
   44.8270   34.3760   42.5920 C   0  0  0  0  0  0  0  0  0  0  0  0
   45.1290   33.7110   43.7370 N   0  0  0  0  0  0  0  0  0  0  0  0
   45.2120   34.0790   44.9390 C   0  0  0  0  0  0  0  0  0  0  0  0
   44.9530   35.3810   45.1280 N   0  0  0  0  0  0  0  0  0  0  0  0
   45.5400   33.2400   46.0050 N   0  0  0  0  0  0  0  0  0  0  0  0
   45.1750   33.3350   47.2860 N   0  0  0  0  0  0  0  0  0  0  0  0
   45.7080   32.3200   47.9710 C   0  0  0  0  0  0  0  0  0  0  0  0
   46.4150   31.5880   47.0880 C   0  0  0  0  0  0  0  0  0  0  0  0
   46.3310   32.1520   45.8060 C   0  0  0  0  0  0  0  0  0  0  0  0
   47.8340   32.6280   43.9600 C   0  0  0  0  0  0  0  0  0  0  0  0
   46.1350   30.9240   43.6730 C   0  0  0  0  0  0  0  0  0  0  0  0
   46.0790   29.1110   43.7510 S   0  0  0  0  0  0  0  0  0  0  0  0
   45.9240   28.3980   45.3200 C   0  0  0  0  0  0  0  0  0  0  0  0
   44.5870   28.3060   45.6790 C   0  0  0  0  0  0  0  0  0  0  0  0
   44.1560   27.7470   46.9070 C   0  0  0  0  0  0  0  0  0  0  0  0
   45.1260   27.2870   47.7550 C   0  0  0  0  0  0  0  0  0  0  0  0
   46.4250   27.3800   47.3970 C   0  0  0  0  0  0  0  0  0  0  0  0
   46.8410   27.9220   46.2050 C   0  0  0  0  0  0  0  0  0  0  0  0
   48.1930   27.9940   45.8350 N   0  0  0  0  0  0  0  0  0  0  0  0
   49.1420   27.3730   45.0670 C   0  0  0  0  0  0  0  0  0  0  0  0
   50.3160   28.0220   45.1710 N   0  0  0  0  0  0  0  0  0  0  0  0
   50.1280   29.0480   45.9950 C   0  0  0  0  0  0  0  0  0  0  0  0
   48.8550   29.0260   46.3900 N   0  0  0  0  0  0  0  0  0  0  0  0
   47.6391   30.7418   44.9821 H   0  0  0  0  0  0  0  0  0  0  0  0
   44.4323   37.2791   44.3501 H   0  0  0  0  0  0  0  0  0  0  0  0
   44.2976   36.4339   42.0040 H   0  0  0  0  0  0  0  0  0  0  0  0
   44.7937   33.9058   41.5981 H   0  0  0  0  0  0  0  0  0  0  0  0
   45.5923   32.1205   49.0466 H   0  0  0  0  0  0  0  0  0  0  0  0
   46.9786   30.6768   47.3370 H   0  0  0  0  0  0  0  0  0  0  0  0
   48.3145   33.2460   44.7328 H   0  0  0  0  0  0  0  0  0  0  0  0
   48.6065   32.1583   43.3334 H   0  0  0  0  0  0  0  0  0  0  0  0
   47.1884   33.2609   43.3334 H   0  0  0  0  0  0  0  0  0  0  0  0
   46.4642   31.2082   42.6626 H   0  0  0  0  0  0  0  0  0  0  0  0
   45.1202   31.2650   43.9259 H   0  0  0  0  0  0  0  0  0  0  0  0
   43.8277   28.6841   44.9786 H   0  0  0  0  0  0  0  0  0  0  0  0
   43.0890   27.6855   47.1672 H   0  0  0  0  0  0  0  0  0  0  0  0
   44.8495   26.8438   48.7231 H   0  0  0  0  0  0  0  0  0  0  0  0
   47.1877   27.0031   48.0943 H   0  0  0  0  0  0  0  0  0  0  0  0
   48.9696   26.4754   44.4550 H   0  0  0  0  0  0  0  0  0  0  0  0
   50.8876   29.7841   46.2971 H   0  0  0  0  0  0  0  0  0  0  0  0
  1 12  1  0
  2  7  2  0
  3  2  1  0
  4  3  2  0
  4  5  1  0
  5  6  2  0
  6  7  1  0
  6  8  1  0
  8  9  1  0
  9 10  2  0
 11 10  1  0
 12  8  1  0
 12 11  2  0
 13  1  1  0
 14 15  1  0
 14  1  1  0
 15 16  1  0
 16 17  2  0
 16 21  1  0
 17 18  1  0
 18 19  2  0
 20 19  1  0
 21 20  2  0
 22 21  1  0
 22 26  1  0
 23 24  2  0
 23 22  1  0
 24 25  1  0
 25 26  2  0
  1 27  1  1
  2 28  1  0
  3 29  1  0
  4 30  1  0
 10 31  1  0
 11 32  1  0
 13 33  1  0
 13 34  1  0
 13 35  1  0
 14 36  1  0
 14 37  1  0
 17 38  1  0
 18 39  1  0
 19 40  1  0
 20 41  1  0
 23 42  1  0
 25 43  1  0
M  ISO  8  27   8  28  14  29  14  30  14  31  14  32  14  33   8  34   8
M  ISO  8  35   8  36   8  37   8  38  14  39  14  40  14  41  14  42  14
M  ISO  1  43  14
M  END
>  <minimizedAffinity>  (1) 
-4.27175808

>  <minimizedRMSD>  (1) 
1.37962782

$$$$
