
     RDKit          3D

 52 55  0  0  1  0  0  0  0  0999 V2000
   46.9460   31.5780   44.5770 C   0  0  2  0  0  0  0  0  0  0  0  0
   44.6270   36.2840   44.1870 C   0  0  0  0  0  0  0  0  0  0  0  0
   44.5530   35.8480   42.8800 C   0  0  0  0  0  0  0  0  0  0  0  0
   44.8200   34.4780   42.6220 C   0  0  0  0  0  0  0  0  0  0  0  0
   45.1170   33.7830   43.7500 N   0  0  0  0  0  0  0  0  0  0  0  0
   45.2000   34.1280   44.9610 C   0  0  0  0  0  0  0  0  0  0  0  0
   44.9420   35.4270   45.1730 N   0  0  0  0  0  0  0  0  0  0  0  0
   45.5240   33.2670   46.0110 N   0  0  0  0  0  0  0  0  0  0  0  0
   45.1750   33.3480   47.2930 N   0  0  0  0  0  0  0  0  0  0  0  0
   45.7000   32.3060   47.9550 C   0  0  0  0  0  0  0  0  0  0  0  0
   46.3900   31.5640   47.0520 C   0  0  0  0  0  0  0  0  0  0  0  0
   46.2940   32.1630   45.7830 C   0  0  0  0  0  0  0  0  0  0  0  0
   47.8110   32.6280   43.9550 C   0  0  0  0  0  0  0  0  0  0  0  0
   46.0430   31.0060   43.6150 C   0  0  0  0  0  0  0  0  0  0  0  0
   45.8410   29.2120   43.6870 S   0  0  0  0  0  0  0  0  0  0  0  0
   45.8720   28.4660   45.2410 C   0  0  0  0  0  0  0  0  0  0  0  0
   44.5990   28.3380   45.7700 C   0  0  0  0  0  0  0  0  0  0  0  0
   44.3100   27.7550   47.0170 C   0  0  0  0  0  0  0  0  0  0  0  0
   45.3840   27.2980   47.7250 C   0  0  0  0  0  0  0  0  0  0  0  0
   46.6350   27.4130   47.2240 C   0  0  0  0  0  0  0  0  0  0  0  0
   46.8920   27.9870   45.9970 C   0  0  0  0  0  0  0  0  0  0  0  0
   48.2310   28.0230   45.5270 N   0  0  0  0  0  0  0  0  0  0  0  0
   48.5560   26.8080   44.7950 C   0  0  0  0  0  0  0  0  0  0  0  0
   50.0570   26.7250   44.5800 C   0  0  0  0  0  0  0  0  0  0  0  0
   50.4480   27.9830   43.8750 C   0  0  0  0  0  0  0  0  0  0  0  0
   50.0760   29.2410   44.5990 C   0  0  0  0  0  0  0  0  0  0  0  0
   49.1640   29.0960   45.7720 C   0  0  0  0  0  0  0  0  0  0  0  0
   47.5456   30.7205   44.9163 H   0  0  0  0  0  0  0  0  0  0  0  0
   44.4269   37.3395   44.4233 H   0  0  0  0  0  0  0  0  0  0  0  0
   44.2954   36.5397   42.0644 H   0  0  0  0  0  0  0  0  0  0  0  0
   44.7896   34.0287   41.6184 H   0  0  0  0  0  0  0  0  0  0  0  0
   45.5916   32.0929   49.0287 H   0  0  0  0  0  0  0  0  0  0  0  0
   46.9391   30.6379   47.2776 H   0  0  0  0  0  0  0  0  0  0  0  0
   48.2972   33.2182   44.7457 H   0  0  0  0  0  0  0  0  0  0  0  0
   48.5791   32.1479   43.3309 H   0  0  0  0  0  0  0  0  0  0  0  0
   47.1927   33.2900   43.3309 H   0  0  0  0  0  0  0  0  0  0  0  0
   46.4133   31.2629   42.6116 H   0  0  0  0  0  0  0  0  0  0  0  0
   45.0538   31.4254   43.8509 H   0  0  0  0  0  0  0  0  0  0  0  0
   43.7560   28.7182   45.1744 H   0  0  0  0  0  0  0  0  0  0  0  0
   43.2815   27.6724   47.3984 H   0  0  0  0  0  0  0  0  0  0  0  0
   45.2309   26.8329   48.7100 H   0  0  0  0  0  0  0  0  0  0  0  0
   47.4797   27.0341   47.8181 H   0  0  0  0  0  0  0  0  0  0  0  0
   48.2204   25.9332   45.3713 H   0  0  0  0  0  0  0  0  0  0  0  0
   48.0489   26.8245   43.8190 H   0  0  0  0  0  0  0  0  0  0  0  0
   50.5771   26.6523   45.5465 H   0  0  0  0  0  0  0  0  0  0  0  0
   50.3289   25.8356   43.9927 H   0  0  0  0  0  0  0  0  0  0  0  0
   51.5394   27.9752   43.7378 H   0  0  0  0  0  0  0  0  0  0  0  0
   49.8956   27.9938   42.9238 H   0  0  0  0  0  0  0  0  0  0  0  0
   51.0061   29.7074   44.9559 H   0  0  0  0  0  0  0  0  0  0  0  0
   49.5126   29.8391   43.8676 H   0  0  0  0  0  0  0  0  0  0  0  0
   48.6112   30.0347   45.9247 H   0  0  0  0  0  0  0  0  0  0  0  0
   49.7563   28.8685   46.6706 H   0  0  0  0  0  0  0  0  0  0  0  0
  1 12  1  0
  2  7  2  0
  3  2  1  0
  4  3  2  0
  4  5  1  0
  5  6  2  0
  6  7  1  0
  6  8  1  0
  8  9  1  0
  9 10  2  0
 11 10  1  0
 12  8  1  0
 12 11  2  0
 13  1  1  0
 14 15  1  0
 14  1  1  0
 15 16  1  0
 16 17  2  0
 16 21  1  0
 17 18  1  0
 18 19  2  0
 20 19  1  0
 21 20  2  0
 22 27  1  0
 22 21  1  0
 23 22  1  0
 24 23  1  0
 25 24  1  0
 25 26  1  0
 26 27  1  0
  1 28  1  1
  2 29  1  0
  3 30  1  0
  4 31  1  0
 10 32  1  0
 11 33  1  0
 13 34  1  0
 13 35  1  0
 13 36  1  0
 14 37  1  0
 14 38  1  0
 17 39  1  0
 18 40  1  0
 19 41  1  0
 20 42  1  0
 23 43  1  0
 23 44  1  0
 24 45  1  0
 24 46  1  0
 25 47  1  0
 25 48  1  0
 26 49  1  0
 26 50  1  0
 27 51  1  0
 27 52  1  0
M  ISO  8  28   8  29  14  30  14  31  14  32  14  33  14  34   8  35   8
M  ISO  8  36   8  37   8  38   8  39  14  40  14  41  14  42  14  43  13
M  ISO  8  44  13  45  13  46  13  47  13  48  13  49  13  50  13  51  13
M  ISO  1  52  13
M  END
>  <minimizedAffinity>  (1) 
-4.24906063

>  <minimizedRMSD>  (1) 
1.20342839

$$$$
