
     RDKit          3D

 38 40  0  0  1  0  0  0  0  0999 V2000
   46.6740   31.4110   44.5970 C   0  0  2  0  0  0  0  0  0  0  0  0
   44.7620   36.2610   43.9360 C   0  0  0  0  0  0  0  0  0  0  0  0
   44.5860   35.7390   42.6710 C   0  0  0  0  0  0  0  0  0  0  0  0
   44.7090   34.3260   42.4980 C   0  0  0  0  0  0  0  0  0  0  0  0
   44.9950   33.6950   43.6690 N   0  0  0  0  0  0  0  0  0  0  0  0
   45.1660   34.1170   44.8460 C   0  0  0  0  0  0  0  0  0  0  0  0
   45.0400   35.4460   44.9550 N   0  0  0  0  0  0  0  0  0  0  0  0
   45.4550   33.3090   45.9450 N   0  0  0  0  0  0  0  0  0  0  0  0
   45.1600   33.5140   47.2300 N   0  0  0  0  0  0  0  0  0  0  0  0
   45.6170   32.4830   47.9510 C   0  0  0  0  0  0  0  0  0  0  0  0
   46.2030   31.6300   47.0860 C   0  0  0  0  0  0  0  0  0  0  0  0
   46.1160   32.1340   45.7810 C   0  0  0  0  0  0  0  0  0  0  0  0
   47.7350   32.2650   43.9740 C   0  0  0  0  0  0  0  0  0  0  0  0
   45.6990   30.9950   43.6250 C   0  0  0  0  0  0  0  0  0  0  0  0
   44.7010   29.5450   44.0520 S   0  0  0  0  0  0  0  0  0  0  0  0
   45.3280   28.5340   45.3160 C   0  0  0  0  0  0  0  0  0  0  0  0
   44.5130   28.5980   46.4450 C   0  0  0  0  0  0  0  0  0  0  0  0
   44.7670   27.8760   47.6190 C   0  0  0  0  0  0  0  0  0  0  0  0
   45.8740   27.0700   47.6420 C   0  0  0  0  0  0  0  0  0  0  0  0
   46.6640   27.0070   46.5480 C   0  0  0  0  0  0  0  0  0  0  0  0
   46.4270   27.7100   45.3920 C   0  0  0  0  0  0  0  0  0  0  0  0
   47.3960   27.6560   43.9270 S   0  0  0  0  0  0  0  0  0  0  0  0
   47.0976   30.4660   44.9678 H   0  0  0  0  0  0  0  0  0  0  0  0
   44.6735   37.3445   44.1036 H   0  0  0  0  0  0  0  0  0  0  0  0
   44.3568   36.3939   41.8174 H   0  0  0  0  0  0  0  0  0  0  0  0
   44.5871   33.8104   41.5340 H   0  0  0  0  0  0  0  0  0  0  0  0
   45.5311   32.3558   49.0402 H   0  0  0  0  0  0  0  0  0  0  0  0
   46.6794   30.6783   47.3640 H   0  0  0  0  0  0  0  0  0  0  0  0
   48.3308   32.7446   44.7646 H   0  0  0  0  0  0  0  0  0  0  0  0
   48.3899   31.6392   43.3499 H   0  0  0  0  0  0  0  0  0  0  0  0
   47.2636   33.0385   43.3499 H   0  0  0  0  0  0  0  0  0  0  0  0
   46.2337   30.7694   42.6905 H   0  0  0  0  0  0  0  0  0  0  0  0
   44.9853   31.8289   43.5528 H   0  0  0  0  0  0  0  0  0  0  0  0
   43.6260   29.2478   46.4129 H   0  0  0  0  0  0  0  0  0  0  0  0
   44.1009   27.9539   48.4910 H   0  0  0  0  0  0  0  0  0  0  0  0
   46.1166   26.4818   48.5393 H   0  0  0  0  0  0  0  0  0  0  0  0
   47.5488   26.3546   46.5851 H   0  0  0  0  0  0  0  0  0  0  0  0
   48.7229   27.5821   44.2596 H   0  0  0  0  0  0  0  0  0  0  0  0
  1 12  1  0
  2  7  2  0
  3  2  1  0
  4  3  2  0
  4  5  1  0
  5  6  2  0
  6  7  1  0
  6  8  1  0
  8  9  1  0
  9 10  2  0
 11 10  1  0
 12  8  1  0
 12 11  2  0
 13  1  1  0
 14 15  1  0
 14  1  1  0
 15 16  1  0
 16 21  1  0
 16 17  2  0
 17 18  1  0
 18 19  2  0
 20 19  1  0
 21 20  2  0
 22 21  1  0
  1 23  1  1
  2 24  1  0
  3 25  1  0
  4 26  1  0
 10 27  1  0
 11 28  1  0
 13 29  1  0
 13 30  1  0
 13 31  1  0
 14 32  1  0
 14 33  1  0
 17 34  1  0
 18 35  1  0
 19 36  1  0
 20 37  1  0
 22 38  1  0
M  ISO  8  23   8  24  14  25  14  26  14  27  14  28  14  29   8  30   8
M  ISO  8  31   8  32   8  33   8  34  14  35  14  36  14  37  14  38  11
M  END
>  <minimizedAffinity>  (1) 
-4.14742613

>  <minimizedRMSD>  (1) 
0.309602857

$$$$
