
     RDKit          3D

 40 42  0  0  1  0  0  0  0  0999 V2000
   46.6830   31.3890   44.5950 C   0  0  2  0  0  0  0  0  0  0  0  0
   44.7720   36.2360   43.9170 C   0  0  0  0  0  0  0  0  0  0  0  0
   44.5880   35.7090   42.6540 C   0  0  0  0  0  0  0  0  0  0  0  0
   44.7050   34.2990   42.4890 C   0  0  0  0  0  0  0  0  0  0  0  0
   44.9920   33.6680   43.6570 N   0  0  0  0  0  0  0  0  0  0  0  0
   45.1690   34.0950   44.8300 C   0  0  0  0  0  0  0  0  0  0  0  0
   45.0540   35.4260   44.9630 N   0  0  0  0  0  0  0  0  0  0  0  0
   45.4600   33.2890   45.9320 N   0  0  0  0  0  0  0  0  0  0  0  0
   45.1650   33.4990   47.2160 N   0  0  0  0  0  0  0  0  0  0  0  0
   45.6260   32.4750   47.9410 C   0  0  0  0  0  0  0  0  0  0  0  0
   46.2200   31.6130   47.0780 C   0  0  0  0  0  0  0  0  0  0  0  0
   46.1250   32.1190   45.7720 C   0  0  0  0  0  0  0  0  0  0  0  0
   47.7260   32.2500   43.9500 C   0  0  0  0  0  0  0  0  0  0  0  0
   45.7220   30.9590   43.6230 C   0  0  0  0  0  0  0  0  0  0  0  0
   44.7280   29.5190   44.1040 S   0  0  0  0  0  0  0  0  0  0  0  0
   45.3300   28.5070   45.3540 C   0  0  0  0  0  0  0  0  0  0  0  0
   44.4830   28.5210   46.4570 C   0  0  0  0  0  0  0  0  0  0  0  0
   44.7160   27.7640   47.6280 C   0  0  0  0  0  0  0  0  0  0  0  0
   45.8420   26.9860   47.6530 C   0  0  0  0  0  0  0  0  0  0  0  0
   46.6530   26.9820   46.5760 C   0  0  0  0  0  0  0  0  0  0  0  0
   46.4500   27.7110   45.4200 C   0  0  0  0  0  0  0  0  0  0  0  0
   47.3120   27.7040   44.2110 C   0  0  0  0  0  0  0  0  0  0  0  0
   47.1095   30.4541   44.9876 H   0  0  0  0  0  0  0  0  0  0  0  0
   44.6887   37.3216   44.0735 H   0  0  0  0  0  0  0  0  0  0  0  0
   44.3573   36.3605   41.7983 H   0  0  0  0  0  0  0  0  0  0  0  0
   44.5776   33.7811   41.5269 H   0  0  0  0  0  0  0  0  0  0  0  0
   45.5400   32.3541   49.0310 H   0  0  0  0  0  0  0  0  0  0  0  0
   46.7015   30.6645   47.3582 H   0  0  0  0  0  0  0  0  0  0  0  0
   48.3255   32.7449   44.7283 H   0  0  0  0  0  0  0  0  0  0  0  0
   48.3809   31.6260   43.3241 H   0  0  0  0  0  0  0  0  0  0  0  0
   47.2373   33.0112   43.3241 H   0  0  0  0  0  0  0  0  0  0  0  0
   46.2624   30.7061   42.6989 H   0  0  0  0  0  0  0  0  0  0  0  0
   45.0142   31.7926   43.5040 H   0  0  0  0  0  0  0  0  0  0  0  0
   43.5846   29.1544   46.4161 H   0  0  0  0  0  0  0  0  0  0  0  0
   44.0229   27.7986   48.4815 H   0  0  0  0  0  0  0  0  0  0  0  0
   46.0809   26.3750   48.5360 H   0  0  0  0  0  0  0  0  0  0  0  0
   47.5496   26.3464   46.6213 H   0  0  0  0  0  0  0  0  0  0  0  0
   48.3693   27.6954   44.5145 H   0  0  0  0  0  0  0  0  0  0  0  0
   47.0954   26.8076   43.6114 H   0  0  0  0  0  0  0  0  0  0  0  0
   47.1100   28.6038   43.6114 H   0  0  0  0  0  0  0  0  0  0  0  0
  1 12  1  0
  2  7  2  0
  3  2  1  0
  4  3  2  0
  4  5  1  0
  5  6  2  0
  6  7  1  0
  6  8  1  0
  8  9  1  0
  9 10  2  0
 11 10  1  0
 12  8  1  0
 12 11  2  0
 13  1  1  0
 14 15  1  0
 14  1  1  0
 15 16  1  0
 16 21  1  0
 16 17  2  0
 17 18  1  0
 18 19  2  0
 20 19  1  0
 21 20  2  0
 22 21  1  0
  1 23  1  1
  2 24  1  0
  3 25  1  0
  4 26  1  0
 10 27  1  0
 11 28  1  0
 13 29  1  0
 13 30  1  0
 13 31  1  0
 14 32  1  0
 14 33  1  0
 17 34  1  0
 18 35  1  0
 19 36  1  0
 20 37  1  0
 22 38  1  0
 22 39  1  0
 22 40  1  0
M  ISO  8  23   8  24  14  25  14  26  14  27  14  28  14  29   8  30   8
M  ISO  8  31   8  32   8  33   8  34  14  35  14  36  14  37  14  38   8
M  ISO  2  39   8  40   8
M  END
>  <minimizedAffinity>  (1) 
-4.14605808

>  <minimizedRMSD>  (1) 
0.302081019

$$$$
