
     RDKit          3D

 41 43  0  0  1  0  0  0  0  0999 V2000
   44.7960   33.6950   40.9870 N   0  0  0  0  0  0  0  0  0  0  0  0
   43.5890   34.4200   40.5640 C   0  0  0  0  0  0  0  0  0  0  0  0
   42.4230   34.1330   41.4720 C   0  0  0  0  0  0  0  0  0  0  0  0
   42.2130   32.7000   41.4750 N   0  0  0  0  0  0  0  0  0  0  0  0
   43.3560   32.1450   42.2110 C   0  0  0  0  0  0  0  0  0  0  0  0
   44.6740   32.3590   41.5020 C   0  0  1  0  0  0  0  0  0  0  0  0
   46.6510   34.7850   42.0830 C   0  0  0  0  0  0  0  0  0  0  0  0
   47.9530   35.2490   42.0090 C   0  0  0  0  0  0  0  0  0  0  0  0
   48.7270   35.1300   40.8580 C   0  0  0  0  0  0  0  0  0  0  0  0
   48.1760   34.5170   39.7210 C   0  0  0  0  0  0  0  0  0  0  0  0
   46.8930   34.0640   39.8070 C   0  0  0  0  0  0  0  0  0  0  0  0
   46.1560   34.1930   40.9450 C   0  0  0  0  0  0  0  0  0  0  0  0
   44.4510   36.1060   44.8220 C   0  0  0  0  0  0  0  0  0  0  0  0
   45.0920   36.0420   43.5750 C   0  0  0  0  0  0  0  0  0  0  0  0
   45.9400   34.9580   43.3190 C   0  0  0  0  0  0  0  0  0  0  0  0
   46.1170   34.0090   44.2740 N   0  0  0  0  0  0  0  0  0  0  0  0
   45.4660   34.1200   45.4730 C   0  0  0  0  0  0  0  0  0  0  0  0
   44.6420   35.1600   45.7380 N   0  0  0  0  0  0  0  0  0  0  0  0
   44.8760   31.4380   40.3970 N   0  0  0  0  0  0  0  0  0  0  0  0
   44.3340   31.6550   39.0880 C   0  0  0  0  0  0  0  0  0  0  0  0
   43.5480   32.6490   38.9030 N   0  0  0  0  0  0  0  0  0  0  0  0
   44.6670   30.7700   37.9970 N   0  0  0  0  0  0  0  0  0  0  0  0
   43.1500   32.8120   37.9530 H   0  0  0  0  0  0  0  0  0  0  0  0
   43.7971   35.5000   40.5808 H   0  0  0  0  0  0  0  0  0  0  0  0
   43.3252   34.0863   39.5496 H   0  0  0  0  0  0  0  0  0  0  0  0
   42.6465   34.4815   42.4911 H   0  0  0  0  0  0  0  0  0  0  0  0
   41.5211   34.6550   41.1196 H   0  0  0  0  0  0  0  0  0  0  0  0
   41.3295   32.4654   41.9496 H   0  0  0  0  0  0  0  0  0  0  0  0
   43.4060   32.6286   43.1977 H   0  0  0  0  0  0  0  0  0  0  0  0
   43.1989   31.0594   42.2938 H   0  0  0  0  0  0  0  0  0  0  0  0
   45.4397   32.1768   42.2704 H   0  0  0  0  0  0  0  0  0  0  0  0
   48.3934   35.7307   42.8944 H   0  0  0  0  0  0  0  0  0  0  0  0
   49.7584   35.5118   40.8393 H   0  0  0  0  0  0  0  0  0  0  0  0
   48.7585   34.4063   38.7945 H   0  0  0  0  0  0  0  0  0  0  0  0
   46.4390   33.5793   38.9301 H   0  0  0  0  0  0  0  0  0  0  0  0
   43.7815   36.9498   45.0451 H   0  0  0  0  0  0  0  0  0  0  0  0
   44.9321   36.8239   42.8180 H   0  0  0  0  0  0  0  0  0  0  0  0
   45.6163   33.3453   46.2393 H   0  0  0  0  0  0  0  0  0  0  0  0
   45.4352   30.5889   40.5620 H   0  0  0  0  0  0  0  0  0  0  0  0
   44.2716   30.9356   37.0605 H   0  0  0  0  0  0  0  0  0  0  0  0
   45.3000   29.9730   38.1552 H   0  0  0  0  0  0  0  0  0  0  0  0
  1  6  1  0
  2  1  1  0
  2  3  1  0
  3  4  1  0
  4  5  1  0
  6  5  1  0
  7 15  1  0
  8  7  2  0
  9  8  1  0
 10 11  1  0
 10  9  2  0
 11 12  2  0
 12  1  1  0
 12  7  1  0
 13 18  2  0
 14 13  1  0
 15 14  2  0
 15 16  1  0
 16 17  2  0
 17 18  1  0
 19  6  1  0
 20 19  1  0
 21 20  2  0
 22 20  1  0
 23 21  1  0
  2 24  1  0
  2 25  1  0
  3 26  1  0
  3 27  1  0
  4 28  1  0
  5 29  1  0
  5 30  1  0
  6 31  1  1
  8 32  1  0
  9 33  1  0
 10 34  1  0
 11 35  1  0
 13 36  1  0
 14 37  1  0
 17 38  1  0
 19 39  1  0
 22 40  1  0
 22 41  1  0
M  ISO  8  24  13  25  13  26  13  27  13  28   5  29  13  30  13  31  13
M  ISO  7  32  14  33  14  34  14  35  14  36  14  37  14  38  14
M  END
>  <minimizedAffinity>  (1) 
-5.69293356

>  <minimizedRMSD>  (1) 
0.383417845

$$$$
