
     RDKit          3D

 20 21  0  0  0  0  0  0  0  0999 V2000
   44.4980   36.0230   44.7930 C   0  0  0  0  0  0  0  0  0  0  0  0
   45.0350   36.0420   43.4840 C   0  0  0  0  0  0  0  0  0  0  0  0
   45.8500   34.9570   43.1390 C   0  0  0  0  0  0  0  0  0  0  0  0
   46.0640   33.9880   44.0620 N   0  0  0  0  0  0  0  0  0  0  0  0
   45.5310   34.0140   45.2940 C   0  0  0  0  0  0  0  0  0  0  0  0
   44.7410   35.0390   45.6660 N   0  0  0  0  0  0  0  0  0  0  0  0
   46.4660   34.8430   41.8380 C   0  0  0  0  0  0  0  0  0  0  0  0
   45.8080   34.4100   40.8320 O   0  0  0  0  0  0  0  0  0  0  0  0
   47.8010   35.2100   41.6660 O   0  0  0  0  0  0  0  0  0  0  0  0
   48.7560   34.2010   41.5830 C   0  0  0  0  0  0  0  0  0  0  0  0
   49.8490   34.3220   42.3320 C   0  0  0  0  0  0  0  0  0  0  0  0
   50.9110   33.4960   42.4350 C   0  0  0  0  0  0  0  0  0  0  0  0
   50.6810   32.3490   41.5330 C   0  0  0  0  0  0  0  0  0  0  0  0
   48.9750   32.6960   40.7190 S   0  0  0  0  0  0  0  0  0  0  0  0
   43.8512   36.8554   45.1071 H   0  0  0  0  0  0  0  0  0  0  0  0
   44.8247   36.8603   42.7795 H   0  0  0  0  0  0  0  0  0  0  0  0
   45.7399   33.1970   46.0003 H   0  0  0  0  0  0  0  0  0  0  0  0
   49.8933   35.2258   42.9575 H   0  0  0  0  0  0  0  0  0  0  0  0
   51.7913   33.6494   43.0765 H   0  0  0  0  0  0  0  0  0  0  0  0
   51.3414   31.4856   41.3642 H   0  0  0  0  0  0  0  0  0  0  0  0
  1  6  2  0
  2  1  1  0
  3  2  2  0
  3  4  1  0
  4  5  2  0
  5  6  1  0
  7  3  1  0
  8  7  2  0
  9  7  1  0
 10  9  1  0
 10 11  2  0
 11 12  1  0
 13 12  2  0
 14 13  1  0
 14 10  1  0
  1 15  1  0
  2 16  1  0
  5 17  1  0
 11 18  1  0
 12 19  1  0
 13 20  1  0
M  ISO  6  15  14  16  14  17  14  18  14  19  14  20  14
M  END
>  <minimizedAffinity>  (1) 
-4.56280756

>  <minimizedRMSD>  (1) 
3.12727118

$$$$
