
     RDKit          3D

 22 23  0  0  0  0  0  0  0  0999 V2000
   47.3330   34.7200   42.0270 C   0  0  0  0  0  0  0  0  0  0  0  0
   48.2000   35.6260   41.7580 O   0  0  0  0  0  0  0  0  0  0  0  0
   44.6040   36.0460   44.2280 C   0  0  0  0  0  0  0  0  0  0  0  0
   45.4660   35.9830   43.1080 C   0  0  0  0  0  0  0  0  0  0  0  0
   46.3800   34.9210   43.1070 C   0  0  0  0  0  0  0  0  0  0  0  0
   46.3740   34.0500   44.1530 N   0  0  0  0  0  0  0  0  0  0  0  0
   45.5320   34.1580   45.1910 C   0  0  0  0  0  0  0  0  0  0  0  0
   44.6440   35.1560   45.2320 N   0  0  0  0  0  0  0  0  0  0  0  0
   47.3100   33.5590   41.2870 O   0  0  0  0  0  0  0  0  0  0  0  0
   47.3020   33.6300   39.8990 C   0  0  0  0  0  0  0  0  0  0  0  0
   48.2660   34.2630   39.1580 C   0  0  0  0  0  0  0  0  0  0  0  0
   48.1690   34.2790   37.7820 C   0  0  0  0  0  0  0  0  0  0  0  0
   47.1260   33.6740   37.1090 C   0  0  0  0  0  0  0  0  0  0  0  0
   46.1720   33.0440   37.9140 C   0  0  0  0  0  0  0  0  0  0  0  0
   46.2710   33.0310   39.2570 N   0  0  0  0  0  0  0  0  0  0  0  0
   43.8675   36.8615   44.2784 H   0  0  0  0  0  0  0  0  0  0  0  0
   45.4216   36.7191   42.2918 H   0  0  0  0  0  0  0  0  0  0  0  0
   45.5722   33.4244   46.0097 H   0  0  0  0  0  0  0  0  0  0  0  0
   49.1128   34.7558   39.6581 H   0  0  0  0  0  0  0  0  0  0  0  0
   48.9496   34.7915   37.2007 H   0  0  0  0  0  0  0  0  0  0  0  0
   47.0506   33.6868   36.0117 H   0  0  0  0  0  0  0  0  0  0  0  0
   45.3160   32.5446   37.4366 H   0  0  0  0  0  0  0  0  0  0  0  0
  1  5  1  0
  2  1  2  0
  3  8  2  0
  4  3  1  0
  5  4  2  0
  5  6  1  0
  6  7  2  0
  7  8  1  0
  9  1  1  0
 10  9  1  0
 11 10  2  0
 12 11  1  0
 13 12  2  0
 13 14  1  0
 14 15  2  0
 15 10  1  0
  3 16  1  0
  4 17  1  0
  7 18  1  0
 11 19  1  0
 12 20  1  0
 13 21  1  0
 14 22  1  0
M  ISO  7  16  14  17  14  18  14  19  14  20  14  21  14  22  14
M  END
>  <minimizedAffinity>  (1) 
-4.37387705

>  <minimizedRMSD>  (1) 
0.858917058

$$$$
