
     RDKit          3D

 23 24  0  0  0  0  0  0  0  0999 V2000
   47.1480   34.7200   42.0510 C   0  0  0  0  0  0  0  0  0  0  0  0
   48.0540   35.5890   41.7970 O   0  0  0  0  0  0  0  0  0  0  0  0
   44.5500   35.9900   44.4410 C   0  0  0  0  0  0  0  0  0  0  0  0
   45.3420   35.9330   43.2900 C   0  0  0  0  0  0  0  0  0  0  0  0
   46.2770   34.8850   43.1870 C   0  0  0  0  0  0  0  0  0  0  0  0
   46.3390   34.0050   44.2210 N   0  0  0  0  0  0  0  0  0  0  0  0
   45.5690   34.0860   45.3080 C   0  0  0  0  0  0  0  0  0  0  0  0
   44.6670   35.0810   45.4280 N   0  0  0  0  0  0  0  0  0  0  0  0
   47.0150   33.6180   41.2220 O   0  0  0  0  0  0  0  0  0  0  0  0
   47.1910   33.7140   39.8510 C   0  0  0  0  0  0  0  0  0  0  0  0
   48.2230   34.3080   39.1560 C   0  0  0  0  0  0  0  0  0  0  0  0
   48.2130   34.2960   37.7690 C   0  0  0  0  0  0  0  0  0  0  0  0
   47.1800   33.6950   37.0900 C   0  0  0  0  0  0  0  0  0  0  0  0
   46.1340   33.0920   37.7720 C   0  0  0  0  0  0  0  0  0  0  0  0
   46.1420   33.1030   39.1610 C   0  0  0  0  0  0  0  0  0  0  0  0
   43.8116   36.7989   44.5431 H   0  0  0  0  0  0  0  0  0  0  0  0
   45.2381   36.6822   42.4913 H   0  0  0  0  0  0  0  0  0  0  0  0
   45.6705   33.3386   46.1087 H   0  0  0  0  0  0  0  0  0  0  0  0
   49.0501   34.7890   39.6987 H   0  0  0  0  0  0  0  0  0  0  0  0
   49.0343   34.7689   37.2107 H   0  0  0  0  0  0  0  0  0  0  0  0
   47.1831   33.6923   35.9900 H   0  0  0  0  0  0  0  0  0  0  0  0
   45.3110   32.6126   37.2218 H   0  0  0  0  0  0  0  0  0  0  0  0
   45.3204   32.6295   39.7185 H   0  0  0  0  0  0  0  0  0  0  0  0
  1  5  1  0
  2  1  2  0
  3  8  2  0
  4  3  1  0
  5  4  2  0
  5  6  1  0
  6  7  2  0
  7  8  1  0
  9  1  1  0
 10  9  1  0
 11 10  2  0
 12 11  1  0
 13 12  2  0
 13 14  1  0
 14 15  2  0
 15 10  1  0
  3 16  1  0
  4 17  1  0
  7 18  1  0
 11 19  1  0
 12 20  1  0
 13 21  1  0
 14 22  1  0
 15 23  1  0
M  ISO  8  16  14  17  14  18  14  19  14  20  14  21  14  22  14  23  14
M  END
>  <minimizedAffinity>  (1) 
-4.51941681

>  <minimizedRMSD>  (1) 
0.637599707

$$$$
