
     RDKit          3D

 49 52  0  0  1  0  0  0  0  0999 V2000
   44.7980   33.7310   40.9850 N   0  0  0  0  0  0  0  0  0  0  0  0
   43.5960   34.5120   40.6350 C   0  0  0  0  0  0  0  0  0  0  0  0
   42.4370   34.1670   41.5140 C   0  0  0  0  0  0  0  0  0  0  0  0
   42.2090   32.7470   41.4410 N   0  0  0  0  0  0  0  0  0  0  0  0
   43.3410   32.1370   42.1220 C   0  0  0  0  0  0  0  0  0  0  0  0
   44.6620   32.3600   41.4120 C   0  0  1  0  0  0  0  0  0  0  0  0
   46.6540   34.8070   42.0730 C   0  0  0  0  0  0  0  0  0  0  0  0
   47.9540   35.2620   42.0120 C   0  0  0  0  0  0  0  0  0  0  0  0
   48.7360   35.1390   40.8690 C   0  0  0  0  0  0  0  0  0  0  0  0
   48.1880   34.5280   39.7300 C   0  0  0  0  0  0  0  0  0  0  0  0
   46.8930   34.0750   39.7960 C   0  0  0  0  0  0  0  0  0  0  0  0
   46.1630   34.2190   40.9410 C   0  0  0  0  0  0  0  0  0  0  0  0
   44.4600   36.1320   44.8260 C   0  0  0  0  0  0  0  0  0  0  0  0
   45.1050   36.0760   43.5770 C   0  0  0  0  0  0  0  0  0  0  0  0
   45.9300   34.9890   43.3190 C   0  0  0  0  0  0  0  0  0  0  0  0
   46.0940   34.0170   44.2670 N   0  0  0  0  0  0  0  0  0  0  0  0
   45.4370   34.1330   45.4630 C   0  0  0  0  0  0  0  0  0  0  0  0
   44.6320   35.1790   45.7320 N   0  0  0  0  0  0  0  0  0  0  0  0
   44.8210   31.3690   40.4550 N   0  0  0  0  0  0  0  0  0  0  0  0
   45.6180   30.2570   40.6370 C   0  0  0  0  0  0  0  0  0  0  0  0
   46.5580   30.1510   39.4480 C   0  0  0  0  0  0  0  0  0  0  0  0
   45.7240   29.7850   38.2460 C   0  0  0  0  0  0  0  0  0  0  0  0
   44.4250   30.5300   38.1820 C   0  0  0  0  0  0  0  0  0  0  0  0
   44.2370   31.5810   39.1930 C   0  0  0  0  0  0  0  0  0  0  0  0
   43.8217   35.5828   40.7466 H   0  0  0  0  0  0  0  0  0  0  0  0
   43.3221   34.2729   39.5968 H   0  0  0  0  0  0  0  0  0  0  0  0
   42.6617   34.4530   42.5521 H   0  0  0  0  0  0  0  0  0  0  0  0
   41.5394   34.7084   41.1805 H   0  0  0  0  0  0  0  0  0  0  0  0
   41.3281   32.4989   41.9136 H   0  0  0  0  0  0  0  0  0  0  0  0
   43.4118   32.5650   43.1328 H   0  0  0  0  0  0  0  0  0  0  0  0
   43.1619   31.0519   42.1417 H   0  0  0  0  0  0  0  0  0  0  0  0
   45.5238   32.2444   42.0858 H   0  0  0  0  0  0  0  0  0  0  0  0
   48.3892   35.7407   42.9017 H   0  0  0  0  0  0  0  0  0  0  0  0
   49.7696   35.5152   40.8573 H   0  0  0  0  0  0  0  0  0  0  0  0
   48.7797   34.4151   38.8096 H   0  0  0  0  0  0  0  0  0  0  0  0
   46.4396   33.5916   38.9181 H   0  0  0  0  0  0  0  0  0  0  0  0
   43.8007   36.9821   45.0554 H   0  0  0  0  0  0  0  0  0  0  0  0
   44.9604   36.8685   42.8280 H   0  0  0  0  0  0  0  0  0  0  0  0
   45.5703   33.3507   46.2247 H   0  0  0  0  0  0  0  0  0  0  0  0
   46.2001   30.3631   41.5643 H   0  0  0  0  0  0  0  0  0  0  0  0
   44.9978   29.3519   40.7146 H   0  0  0  0  0  0  0  0  0  0  0  0
   47.0598   31.1150   39.2782 H   0  0  0  0  0  0  0  0  0  0  0  0
   47.3315   29.3905   39.6306 H   0  0  0  0  0  0  0  0  0  0  0  0
   46.3018   30.0103   37.3375 H   0  0  0  0  0  0  0  0  0  0  0  0
   45.4842   28.7145   38.3272 H   0  0  0  0  0  0  0  0  0  0  0  0
   44.3546   31.0001   37.1900 H   0  0  0  0  0  0  0  0  0  0  0  0
   43.6430   29.7824   38.3808 H   0  0  0  0  0  0  0  0  0  0  0  0
   44.6581   32.5118   38.7853 H   0  0  0  0  0  0  0  0  0  0  0  0
   43.1535   31.6035   39.3814 H   0  0  0  0  0  0  0  0  0  0  0  0
  1  6  1  0
  2  1  1  0
  2  3  1  0
  4  3  1  0
  4  5  1  0
  6  5  1  0
  7 15  1  0
  8  7  2  0
  9  8  1  0
 10 11  1  0
 10  9  2  0
 11 12  2  0
 12  1  1  0
 12  7  1  0
 13 18  2  0
 14 13  1  0
 15 14  2  0
 15 16  1  0
 16 17  2  0
 17 18  1  0
 19 20  1  0
 19  6  1  0
 21 20  1  0
 22 21  1  0
 23 22  1  0
 23 24  1  0
 24 19  1  0
  2 25  1  0
  2 26  1  0
  3 27  1  0
  3 28  1  0
  4 29  1  0
  5 30  1  0
  5 31  1  0
  6 32  1  1
  8 33  1  0
  9 34  1  0
 10 35  1  0
 11 36  1  0
 13 37  1  0
 14 38  1  0
 17 39  1  0
 20 40  1  0
 20 41  1  0
 21 42  1  0
 21 43  1  0
 22 44  1  0
 22 45  1  0
 23 46  1  0
 23 47  1  0
 24 48  1  0
 24 49  1  0
M  ISO  8  25  13  26  13  27  13  28  13  29   5  30  13  31  13  32  13
M  ISO  8  33  14  34  14  35  14  36  14  37  14  38  14  39  14  40  13
M  ISO  8  41  13  42  13  43  13  44  13  45  13  46  13  47  13  48  13
M  ISO  1  49  13
M  END
>  <minimizedAffinity>  (1) 
-5.68279457

>  <minimizedRMSD>  (1) 
0.457427204

$$$$
