
     RDKit          3D

 23 24  0  0  0  0  0  0  0  0999 V2000
   47.4060   33.5430   41.3040 O   0  0  0  0  0  0  0  0  0  0  0  0
   46.7130   33.3030   40.1690 C   0  0  0  0  0  0  0  0  0  0  0  0
   45.4420   32.6830   40.1240 C   0  0  0  0  0  0  0  0  0  0  0  0
   45.0830   32.6210   38.8340 N   0  0  0  0  0  0  0  0  0  0  0  0
   46.0570   33.1660   38.0820 C   0  0  0  0  0  0  0  0  0  0  0  0
   47.0660   33.5860   38.9160 N   0  0  0  0  0  0  0  0  0  0  0  0
   48.2020   34.1610   38.2270 C   0  0  0  0  0  0  0  0  0  0  0  0
   48.7300   35.2750   38.8480 F   0  0  0  0  0  0  0  0  0  0  0  0
   47.8120   34.7180   36.9740 F   0  0  0  0  0  0  0  0  0  0  0  0
   49.1490   33.2530   37.7990 F   0  0  0  0  0  0  0  0  0  0  0  0
   47.3340   34.6590   42.0650 C   0  0  0  0  0  0  0  0  0  0  0  0
   48.1340   35.5810   41.7490 O   0  0  0  0  0  0  0  0  0  0  0  0
   44.6120   35.8620   44.3210 C   0  0  0  0  0  0  0  0  0  0  0  0
   45.4530   35.8070   43.1920 C   0  0  0  0  0  0  0  0  0  0  0  0
   46.4220   34.7990   43.1530 C   0  0  0  0  0  0  0  0  0  0  0  0
   46.4620   33.9680   44.2060 N   0  0  0  0  0  0  0  0  0  0  0  0
   45.6660   34.0260   45.2640 C   0  0  0  0  0  0  0  0  0  0  0  0
   44.7300   34.9810   45.3280 N   0  0  0  0  0  0  0  0  0  0  0  0
   44.8594   32.3208   40.9839 H   0  0  0  0  0  0  0  0  0  0  0  0
   46.0474   33.2595   36.9860 H   0  0  0  0  0  0  0  0  0  0  0  0
   43.8410   36.6444   44.3791 H   0  0  0  0  0  0  0  0  0  0  0  0
   45.3512   36.5311   42.3703 H   0  0  0  0  0  0  0  0  0  0  0  0
   45.7732   33.2972   46.0809 H   0  0  0  0  0  0  0  0  0  0  0  0
  1 11  1  0
  2  1  1  0
  3  2  2  0
  4  3  1  0
  5  4  2  0
  5  6  1  0
  6  2  1  0
  7  8  1  0
  7  6  1  0
  9  7  1  0
 10  7  1  0
 11 15  1  0
 12 11  2  0
 13 18  2  0
 14 13  1  0
 15 14  2  0
 15 16  1  0
 16 17  2  0
 17 18  1  0
  3 19  1  0
  5 20  1  0
 13 21  1  0
 14 22  1  0
 17 23  1  0
M  ISO  5  19  14  20  14  21  14  22  14  23  14
M  END
>  <minimizedAffinity>  (1) 
-4.58470535

>  <minimizedRMSD>  (1) 
1.86472678

$$$$
