
     RDKit          3D

 28 30  0  0  1  0  0  0  0  0999 V2000
   45.6200   33.2220   39.8880 C   0  0  0  0  0  0  0  0  0  0  0  0
   44.2850   33.6750   39.8620 C   0  0  0  0  0  0  0  0  0  0  0  0
   43.8420   33.5100   38.6050 N   0  0  0  0  0  0  0  0  0  0  0  0
   44.8150   32.9830   37.8460 C   0  0  0  0  0  0  0  0  0  0  0  0
   45.8870   32.8210   38.6670 N   0  0  0  0  0  0  0  0  0  0  0  0
   47.0680   32.2630   38.0680 C   0  0  1  0  0  0  0  0  0  0  0  0
   47.4150   32.4270   36.6390 C   0  0  0  0  0  0  0  0  0  0  0  0
   48.1490   33.2620   37.5960 C   0  0  1  0  0  0  0  0  0  0  0  0
   47.9120   34.6080   37.7550 O   0  0  0  0  0  0  0  0  0  0  0  0
   46.3750   33.2460   41.0080 O   0  0  0  0  0  0  0  0  0  0  0  0
   46.6760   34.3550   41.7320 C   0  0  0  0  0  0  0  0  0  0  0  0
   47.6230   35.0640   41.2700 O   0  0  0  0  0  0  0  0  0  0  0  0
   44.6530   36.1180   44.3200 C   0  0  0  0  0  0  0  0  0  0  0  0
   45.2670   35.9010   43.0940 C   0  0  0  0  0  0  0  0  0  0  0  0
   45.9920   34.7200   42.9280 C   0  0  0  0  0  0  0  0  0  0  0  0
   46.0190   33.8970   44.0010 N   0  0  0  0  0  0  0  0  0  0  0  0
   45.4330   34.1090   45.1650 C   0  0  0  0  0  0  0  0  0  0  0  0
   44.7340   35.2360   45.3390 N   0  0  0  0  0  0  0  0  0  0  0  0
   43.7155   34.0850   40.7091 H   0  0  0  0  0  0  0  0  0  0  0  0
   44.7572   32.7327   36.7764 H   0  0  0  0  0  0  0  0  0  0  0  0
   46.9821   31.3839   38.7236 H   0  0  0  0  0  0  0  0  0  0  0  0
   46.6904   32.8958   35.9570 H   0  0  0  0  0  0  0  0  0  0  0  0
   47.7259   31.7272   35.8493 H   0  0  0  0  0  0  0  0  0  0  0  0
   49.2182   33.4469   37.7764 H   0  0  0  0  0  0  0  0  0  0  0  0
   47.8739   34.8246   38.7203 H   0  0  0  0  0  0  0  0  0  0  0  0
   44.0783   37.0443   44.4669 H   0  0  0  0  0  0  0  0  0  0  0  0
   45.1848   36.6360   42.2798 H   0  0  0  0  0  0  0  0  0  0  0  0
   45.5181   33.3720   45.9771 H   0  0  0  0  0  0  0  0  0  0  0  0
  1 10  1  0
  2  1  2  0
  3  2  1  0
  4  3  2  0
  4  5  1  0
  5  1  1  0
  6  5  1  0
  7  8  1  0
  7  6  1  0
  8  9  1  0
  8  6  1  0
 10 11  1  0
 11 15  1  0
 12 11  2  0
 13 18  2  0
 14 13  1  0
 15 14  2  0
 15 16  1  0
 16 17  2  0
 17 18  1  0
  2 19  1  0
  4 20  1  0
  6 21  1  1
  7 22  1  0
  7 23  1  0
  8 24  1  1
  9 25  1  0
 13 26  1  0
 14 27  1  0
 17 28  1  0
M  ISO  8  19  14  20  14  21  13  22  13  23  13  24  13  25   3  26  14
M  ISO  2  27  14  28  14
M  END
>  <minimizedAffinity>  (1) 
-4.29213953

>  <minimizedRMSD>  (1) 
0.818365633

$$$$
