
     RDKit          3D

 30 32  0  0  1  0  0  0  0  0999 V2000
   46.2050   33.2120   40.0490 C   0  0  0  0  0  0  0  0  0  0  0  0
   44.8530   33.6200   39.9590 C   0  0  0  0  0  0  0  0  0  0  0  0
   44.4160   33.3120   38.7240 N   0  0  0  0  0  0  0  0  0  0  0  0
   45.4080   32.7330   38.0270 C   0  0  0  0  0  0  0  0  0  0  0  0
   46.4660   32.6960   38.8690 N   0  0  0  0  0  0  0  0  0  0  0  0
   47.6820   32.1090   38.3510 C   0  0  1  0  0  0  0  0  0  0  0  0
   48.0550   32.1330   36.9280 C   0  0  0  0  0  0  0  0  0  0  0  0
   48.7410   33.0900   37.7890 C   0  0  1  0  0  0  0  0  0  0  0  0
   48.3700   34.5320   37.6440 C   0  0  0  0  0  0  0  0  0  0  0  0
   46.9340   33.3820   41.1650 O   0  0  0  0  0  0  0  0  0  0  0  0
   47.0400   34.5210   41.8720 C   0  0  0  0  0  0  0  0  0  0  0  0
   47.9170   35.3400   41.4640 O   0  0  0  0  0  0  0  0  0  0  0  0
   44.6260   36.0750   44.2720 C   0  0  0  0  0  0  0  0  0  0  0  0
   45.3740   35.9020   43.1090 C   0  0  0  0  0  0  0  0  0  0  0  0
   46.2250   34.8050   43.0130 C   0  0  0  0  0  0  0  0  0  0  0  0
   46.2450   33.9930   44.0810 N   0  0  0  0  0  0  0  0  0  0  0  0
   45.5370   34.1470   45.1950 C   0  0  0  0  0  0  0  0  0  0  0  0
   44.7160   35.2030   45.2930 N   0  0  0  0  0  0  0  0  0  0  0  0
   44.2656   34.1017   40.7545 H   0  0  0  0  0  0  0  0  0  0  0  0
   45.3682   32.3665   36.9906 H   0  0  0  0  0  0  0  0  0  0  0  0
   47.6083   31.3016   39.0944 H   0  0  0  0  0  0  0  0  0  0  0  0
   47.3293   32.4986   36.1866 H   0  0  0  0  0  0  0  0  0  0  0  0
   48.4065   31.3616   36.2270 H   0  0  0  0  0  0  0  0  0  0  0  0
   49.7863   33.3327   38.0309 H   0  0  0  0  0  0  0  0  0  0  0  0
   48.2540   34.9828   38.6407 H   0  0  0  0  0  0  0  0  0  0  0  0
   49.1614   35.0605   37.0924 H   0  0  0  0  0  0  0  0  0  0  0  0
   47.4218   34.6130   37.0924 H   0  0  0  0  0  0  0  0  0  0  0  0
   43.9505   36.9390   44.3569 H   0  0  0  0  0  0  0  0  0  0  0  0
   45.2931   36.6208   42.2803 H   0  0  0  0  0  0  0  0  0  0  0  0
   45.6225   33.4237   46.0193 H   0  0  0  0  0  0  0  0  0  0  0  0
  1 10  1  0
  2  1  2  0
  3  2  1  0
  4  3  2  0
  4  5  1  0
  5  1  1  0
  6  5  1  0
  7  8  1  0
  7  6  1  0
  8  6  1  0
  9  8  1  0
 10 11  1  0
 11 15  1  0
 12 11  2  0
 13 18  2  0
 14 13  1  0
 15 14  2  0
 15 16  1  0
 16 17  2  0
 17 18  1  0
  2 19  1  0
  4 20  1  0
  6 21  1  1
  7 22  1  0
  7 23  1  0
  8 24  1  1
  9 25  1  0
  9 26  1  0
  9 27  1  0
 13 28  1  0
 14 29  1  0
 17 30  1  0
M  ISO  8  19  14  20  14  21  13  22  13  23  13  24  13  25   8  26   8
M  ISO  4  27   8  28  14  29  14  30  14
M  END
>  <minimizedAffinity>  (1) 
-4.27474833

>  <minimizedRMSD>  (1) 
0.711461365

$$$$
