
     RDKit          3D

 39 42  0  0  1  0  0  0  0  0999 V2000
   44.6060   33.7960   40.2300 C   0  0  0  0  0  0  0  0  0  0  0  0
   43.5330   34.6380   40.5640 C   0  0  0  0  0  0  0  0  0  0  0  0
   42.7130   34.6820   39.4990 N   0  0  0  0  0  0  0  0  0  0  0  0
   43.2230   33.9080   38.5230 C   0  0  0  0  0  0  0  0  0  0  0  0
   44.3750   33.3880   39.0090 N   0  0  0  0  0  0  0  0  0  0  0  0
   45.1290   32.5050   38.1420 C   0  0  1  0  0  0  0  0  0  0  0  0
   45.1580   32.7100   36.6680 C   0  0  0  0  0  0  0  0  0  0  0  0
   46.3530   33.1190   37.4270 C   0  0  2  0  0  0  0  0  0  0  0  0
   47.5200   32.3540   37.1910 N   0  0  0  0  0  0  0  0  0  0  0  0
   48.7680   32.8570   37.6410 C   0  0  0  0  0  0  0  0  0  0  0  0
   49.7240   31.8720   36.9300 C   0  0  0  0  0  0  0  0  0  0  0  0
   49.1340   31.9240   35.5150 C   0  0  0  0  0  0  0  0  0  0  0  0
   47.6410   31.9800   35.8210 C   0  0  0  0  0  0  0  0  0  0  0  0
   45.6190   33.5400   41.1000 O   0  0  0  0  0  0  0  0  0  0  0  0
   46.1730   34.4370   41.9450 C   0  0  0  0  0  0  0  0  0  0  0  0
   47.1840   35.0440   41.5080 O   0  0  0  0  0  0  0  0  0  0  0  0
   44.5030   35.9870   44.9080 C   0  0  0  0  0  0  0  0  0  0  0  0
   44.9430   35.8660   43.5870 C   0  0  0  0  0  0  0  0  0  0  0  0
   45.6620   34.6960   43.2560 C   0  0  0  0  0  0  0  0  0  0  0  0
   45.8470   33.8200   44.2490 N   0  0  0  0  0  0  0  0  0  0  0  0
   45.4260   33.9440   45.5010 C   0  0  0  0  0  0  0  0  0  0  0  0
   44.7380   35.0500   45.8390 N   0  0  0  0  0  0  0  0  0  0  0  0
   43.3898   35.1640   41.5194 H   0  0  0  0  0  0  0  0  0  0  0  0
   42.7896   33.7325   37.5273 H   0  0  0  0  0  0  0  0  0  0  0  0
   44.9091   31.6415   38.7869 H   0  0  0  0  0  0  0  0  0  0  0  0
   44.5145   33.4786   36.2150 H   0  0  0  0  0  0  0  0  0  0  0  0
   44.9950   32.0481   35.8047 H   0  0  0  0  0  0  0  0  0  0  0  0
   46.9396   34.0348   37.5920 H   0  0  0  0  0  0  0  0  0  0  0  0
   48.9325   33.8942   37.3136 H   0  0  0  0  0  0  0  0  0  0  0  0
   48.8815   32.9066   38.7340 H   0  0  0  0  0  0  0  0  0  0  0  0
   50.7663   32.2228   36.9532 H   0  0  0  0  0  0  0  0  0  0  0  0
   49.7802   30.8687   37.3774 H   0  0  0  0  0  0  0  0  0  0  0  0
   49.3938   31.0254   34.9362 H   0  0  0  0  0  0  0  0  0  0  0  0
   49.5018   32.7600   34.9020 H   0  0  0  0  0  0  0  0  0  0  0  0
   47.1497   32.7260   35.1791 H   0  0  0  0  0  0  0  0  0  0  0  0
   47.1603   31.0090   35.6309 H   0  0  0  0  0  0  0  0  0  0  0  0
   43.9409   36.8875   45.1962 H   0  0  0  0  0  0  0  0  0  0  0  0
   44.7387   36.6463   42.8391 H   0  0  0  0  0  0  0  0  0  0  0  0
   45.6344   33.1612   46.2452 H   0  0  0  0  0  0  0  0  0  0  0  0
  1  2  2  0
  1 14  1  0
  3  2  1  0
  4  5  1  0
  4  3  2  0
  5  1  1  0
  6  5  1  0
  7  8  1  0
  7  6  1  0
  8  6  1  0
  9  8  1  0
  9 10  1  0
 11 10  1  0
 12 13  1  0
 12 11  1  0
 13  9  1  0
 14 15  1  0
 15 19  1  0
 16 15  2  0
 17 22  2  0
 18 17  1  0
 19 18  2  0
 19 20  1  0
 20 21  2  0
 21 22  1  0
  2 23  1  0
  4 24  1  0
  6 25  1  6
  7 26  1  0
  7 27  1  0
  8 28  1  1
 10 29  1  0
 10 30  1  0
 11 31  1  0
 11 32  1  0
 12 33  1  0
 12 34  1  0
 13 35  1  0
 13 36  1  0
 17 37  1  0
 18 38  1  0
 21 39  1  0
M  ISO  8  23  14  24  14  25  13  26  13  27  13  28  13  29  13  30  13
M  ISO  8  31  13  32  13  33  13  34  13  35  13  36  13  37  14  38  14
M  ISO  1  39  14
M  END
>  <minimizedAffinity>  (1) 
-4.52594185

>  <minimizedRMSD>  (1) 
2.61122251

$$$$
