
     RDKit          3D

 39 42  0  0  1  0  0  0  0  0999 V2000
   44.3590   33.9300   40.4220 C   0  0  0  0  0  0  0  0  0  0  0  0
   43.3670   34.8850   40.7050 C   0  0  0  0  0  0  0  0  0  0  0  0
   42.5290   34.9130   39.6530 N   0  0  0  0  0  0  0  0  0  0  0  0
   42.9440   34.0270   38.7260 C   0  0  0  0  0  0  0  0  0  0  0  0
   44.0520   33.4590   39.2380 N   0  0  0  0  0  0  0  0  0  0  0  0
   44.7130   32.4460   38.4270 C   0  0  1  0  0  0  0  0  0  0  0  0
   44.4070   32.2500   37.0060 C   0  0  0  0  0  0  0  0  0  0  0  0
   45.6390   32.9890   37.3050 C   0  0  2  0  0  0  0  0  0  0  0  0
   46.9960   32.3700   37.2240 C   0  0  0  0  0  0  0  0  0  0  0  0
   47.4910   32.0550   38.6120 C   0  0  0  0  0  0  0  0  0  0  0  0
   48.2230   33.1390   39.3040 C   0  0  0  0  0  0  0  0  0  0  0  0
   48.4200   34.4020   38.5420 C   0  0  0  0  0  0  0  0  0  0  0  0
   48.7290   34.2120   37.0990 C   0  0  0  0  0  0  0  0  0  0  0  0
   47.9960   33.1240   36.4030 C   0  0  0  0  0  0  0  0  0  0  0  0
   45.3610   33.6580   41.2870 O   0  0  0  0  0  0  0  0  0  0  0  0
   45.9150   34.5290   42.1580 C   0  0  0  0  0  0  0  0  0  0  0  0
   46.8160   35.2780   41.6760 O   0  0  0  0  0  0  0  0  0  0  0  0
   44.4550   35.6160   45.4210 C   0  0  0  0  0  0  0  0  0  0  0  0
   44.7590   35.6620   44.0490 C   0  0  0  0  0  0  0  0  0  0  0  0
   45.5280   34.6170   43.5310 C   0  0  0  0  0  0  0  0  0  0  0  0
   45.9010   33.6690   44.4030 N   0  0  0  0  0  0  0  0  0  0  0  0
   45.6090   33.6350   45.6960 C   0  0  0  0  0  0  0  0  0  0  0  0
   44.8750   34.6190   46.2190 N   0  0  0  0  0  0  0  0  0  0  0  0
   43.2903   35.4956   41.6167 H   0  0  0  0  0  0  0  0  0  0  0  0
   42.4753   33.8128   37.7542 H   0  0  0  0  0  0  0  0  0  0  0  0
   44.7630   31.7577   39.2836 H   0  0  0  0  0  0  0  0  0  0  0  0
   43.5540   32.7825   36.5600 H   0  0  0  0  0  0  0  0  0  0  0  0
   44.1905   31.3599   36.3970 H   0  0  0  0  0  0  0  0  0  0  0  0
   46.0393   33.9510   36.9524 H   0  0  0  0  0  0  0  0  0  0  0  0
   46.8800   31.4330   36.6595 H   0  0  0  0  0  0  0  0  0  0  0  0
   47.3183   31.0762   39.0834 H   0  0  0  0  0  0  0  0  0  0  0  0
   48.6022   33.0174   40.3294 H   0  0  0  0  0  0  0  0  0  0  0  0
   47.4984   34.9974   38.6202 H   0  0  0  0  0  0  0  0  0  0  0  0
   49.2943   34.9009   38.9854 H   0  0  0  0  0  0  0  0  0  0  0  0
   49.4615   34.8439   36.5755 H   0  0  0  0  0  0  0  0  0  0  0  0
   48.1773   32.8855   35.3446 H   0  0  0  0  0  0  0  0  0  0  0  0
   43.8514   36.4255   45.8574 H   0  0  0  0  0  0  0  0  0  0  0  0
   44.4064   36.4856   43.4108 H   0  0  0  0  0  0  0  0  0  0  0  0
   45.9663   32.8084   46.3277 H   0  0  0  0  0  0  0  0  0  0  0  0
  1  2  2  0
  1 15  1  0
  3  2  1  0
  4  5  1  0
  4  3  2  0
  5  1  1  0
  6  5  1  0
  7  8  1  0
  7  6  1  0
  8  6  1  0
  9 14  1  0
  9  8  1  0
  9 10  1  0
 10 11  2  0
 12 11  1  0
 13 12  1  0
 14 13  2  0
 15 16  1  0
 16 20  1  0
 17 16  2  0
 18 23  2  0
 19 18  1  0
 20 19  2  0
 20 21  1  0
 21 22  2  0
 22 23  1  0
  2 24  1  0
  4 25  1  0
  6 26  1  1
  7 27  1  0
  7 28  1  0
  8 29  1  6
  9 30  1  0
 10 31  1  0
 11 32  1  0
 12 33  1  0
 12 34  1  0
 13 35  1  0
 14 36  1  0
 18 37  1  0
 19 38  1  0
 22 39  1  0
M  ISO  8  24  14  25  14  26  13  27  13  28  13  29  13  30  13  31  13
M  ISO  8  32  13  33  13  34  13  35  13  36  13  37  14  38  14  39  14
M  END
>  <minimizedAffinity>  (1) 
-4.70684242

>  <minimizedRMSD>  (1) 
2.68817377

$$$$
