
     RDKit          3D

 43 46  0  0  1  0  0  0  0  0999 V2000
   46.7390   34.5240   41.7360 C   0  0  0  0  0  0  0  0  0  0  0  0
   47.6820   35.2760   41.3290 O   0  0  0  0  0  0  0  0  0  0  0  0
   44.6260   36.0940   44.3900 C   0  0  0  0  0  0  0  0  0  0  0  0
   45.2420   35.9310   43.1590 C   0  0  0  0  0  0  0  0  0  0  0  0
   46.0450   34.8080   42.9700 C   0  0  0  0  0  0  0  0  0  0  0  0
   46.1410   33.9900   44.0130 N   0  0  0  0  0  0  0  0  0  0  0  0
   45.5600   34.1320   45.1900 C   0  0  0  0  0  0  0  0  0  0  0  0
   44.7880   35.2050   45.3830 N   0  0  0  0  0  0  0  0  0  0  0  0
   45.8180   33.1050   46.1700 N   0  0  0  0  0  0  0  0  0  0  0  0
   46.7030   32.1810   45.7000 C   0  0  0  0  0  0  0  0  0  0  0  0
   47.0310   31.1370   46.5590 C   0  0  0  0  0  0  0  0  0  0  0  0
   47.9870   30.0360   46.2070 C   0  0  0  0  0  0  0  0  0  0  0  0
   46.4530   31.0900   47.8210 C   0  0  0  0  0  0  0  0  0  0  0  0
   46.7240   30.1600   48.6270 O   0  0  0  0  0  0  0  0  0  0  0  0
   45.5830   32.0360   48.2230 N   0  0  0  0  0  0  0  0  0  0  0  0
   45.2620   33.0510   47.3940 C   0  0  0  0  0  0  0  0  0  0  0  0
   44.4730   34.0060   47.6160 O   0  0  0  0  0  0  0  0  0  0  0  0
   46.4300   33.4630   40.9640 O   0  0  0  0  0  0  0  0  0  0  0  0
   45.4190   33.4090   40.0650 C   0  0  0  0  0  0  0  0  0  0  0  0
   44.0990   33.7620   40.4180 C   0  0  0  0  0  0  0  0  0  0  0  0
   43.3350   33.6050   39.3150 N   0  0  0  0  0  0  0  0  0  0  0  0
   44.1120   33.1740   38.3030 C   0  0  0  0  0  0  0  0  0  0  0  0
   45.3530   33.0740   38.8060 N   0  0  0  0  0  0  0  0  0  0  0  0
   46.3960   32.6200   37.8940 C   0  0  1  0  0  0  0  0  0  0  0  0
   46.2420   32.6920   36.4280 C   0  0  0  0  0  0  0  0  0  0  0  0
   47.1050   33.7140   37.0560 C   0  0  2  0  0  0  0  0  0  0  0  0
   48.6070   33.5020   36.9260 C   0  0  0  0  0  0  0  0  0  0  0  0
   49.2780   34.6530   37.2410 F   0  0  0  0  0  0  0  0  0  0  0  0
   49.0010   32.4140   37.6490 F   0  0  0  0  0  0  0  0  0  0  0  0
   48.8410   33.2540   35.5720 F   0  0  0  0  0  0  0  0  0  0  0  0
   43.9881   36.9743   44.5576 H   0  0  0  0  0  0  0  0  0  0  0  0
   45.1009   36.6673   42.3541 H   0  0  0  0  0  0  0  0  0  0  0  0
   47.1363   32.2570   44.6918 H   0  0  0  0  0  0  0  0  0  0  0  0
   48.3802   29.5831   47.1291 H   0  0  0  0  0  0  0  0  0  0  0  0
   47.4627   29.2699   45.6169 H   0  0  0  0  0  0  0  0  0  0  0  0
   48.8191   30.4476   45.6169 H   0  0  0  0  0  0  0  0  0  0  0  0
   45.1631   31.9848   49.1621 H   0  0  0  0  0  0  0  0  0  0  0  0
   43.7563   34.1015   41.4066 H   0  0  0  0  0  0  0  0  0  0  0  0
   43.7947   32.9496   37.2739 H   0  0  0  0  0  0  0  0  0  0  0  0
   46.6714   31.8095   38.5848 H   0  0  0  0  0  0  0  0  0  0  0  0
   45.2737   32.9909   36.0001 H   0  0  0  0  0  0  0  0  0  0  0  0
   46.3939   31.9684   35.6135 H   0  0  0  0  0  0  0  0  0  0  0  0
   47.1443   34.8131   37.0343 H   0  0  0  0  0  0  0  0  0  0  0  0
  1  5  1  0
  2  1  2  0
  3  8  2  0
  4  3  1  0
  5  4  2  0
  5  6  1  0
  6  7  2  0
  7  8  1  0
  7  9  1  0
  9 16  1  0
 10  9  1  0
 10 11  2  0
 11 13  1  0
 12 11  1  0
 13 15  1  0
 13 14  2  0
 16 17  2  0
 16 15  1  0
 18  1  1  0
 19 20  2  0
 19 18  1  0
 21 20  1  0
 22 23  1  0
 22 21  2  0
 23 19  1  0
 24 23  1  0
 25 26  1  0
 25 24  1  0
 26 24  1  0
 27 26  1  0
 27 28  1  0
 27 29  1  0
 30 27  1  0
  3 31  1  0
  4 32  1  0
 10 33  1  0
 12 34  1  0
 12 35  1  0
 12 36  1  0
 15 37  1  0
 20 38  1  0
 22 39  1  0
 24 40  1  6
 25 41  1  0
 25 42  1  0
 26 43  1  1
M  ISO  8  31  14  32  14  33  14  34   8  35   8  36   8  37   9  38  14
M  ISO  5  39  14  40  13  41  13  42  13  43  13
M  END
>  <minimizedAffinity>  (1) 
-6.47217512

>  <minimizedRMSD>  (1) 
0.255744427

$$$$
