
     RDKit          3D

 44 48  0  0  1  0  0  0  0  0999 V2000
   46.6070   34.4730   42.1490 C   0  0  0  0  0  0  0  0  0  0  0  0
   47.5100   35.2860   41.7390 O   0  0  0  0  0  0  0  0  0  0  0  0
   44.5040   35.9190   44.8790 C   0  0  0  0  0  0  0  0  0  0  0  0
   45.0940   35.8210   43.6310 C   0  0  0  0  0  0  0  0  0  0  0  0
   45.9290   34.7060   43.3920 C   0  0  0  0  0  0  0  0  0  0  0  0
   46.0660   33.8500   44.4040 N   0  0  0  0  0  0  0  0  0  0  0  0
   45.5000   33.9500   45.5910 C   0  0  0  0  0  0  0  0  0  0  0  0
   44.7100   34.9900   45.8410 N   0  0  0  0  0  0  0  0  0  0  0  0
   45.7190   32.9510   46.6330 C   0  0  0  0  0  0  0  0  0  0  0  0
   45.2300   32.9240   47.9230 C   0  0  0  0  0  0  0  0  0  0  0  0
   45.6730   31.8120   48.5720 N   0  0  0  0  0  0  0  0  0  0  0  0
   46.4470   31.1090   47.7260 C   0  0  0  0  0  0  0  0  0  0  0  0
   47.1590   29.9210   47.8170 C   0  0  0  0  0  0  0  0  0  0  0  0
   47.9030   29.3790   46.7900 C   0  0  0  0  0  0  0  0  0  0  0  0
   47.9380   30.0800   45.5800 C   0  0  0  0  0  0  0  0  0  0  0  0
   47.2230   31.2570   45.5140 C   0  0  0  0  0  0  0  0  0  0  0  0
   46.4790   31.8030   46.5350 C   0  0  0  0  0  0  0  0  0  0  0  0
   46.3620   33.4320   41.3500 O   0  0  0  0  0  0  0  0  0  0  0  0
   45.3810   33.3910   40.3960 C   0  0  0  0  0  0  0  0  0  0  0  0
   44.0530   33.7220   40.6720 C   0  0  0  0  0  0  0  0  0  0  0  0
   43.3560   33.5800   39.5330 N   0  0  0  0  0  0  0  0  0  0  0  0
   44.1960   33.1730   38.5520 C   0  0  0  0  0  0  0  0  0  0  0  0
   45.4150   33.0740   39.1290 N   0  0  0  0  0  0  0  0  0  0  0  0
   46.5000   32.6490   38.2700 C   0  0  1  0  0  0  0  0  0  0  0  0
   46.3190   32.4250   36.8190 C   0  0  0  0  0  0  0  0  0  0  0  0
   46.9890   33.6650   37.2180 C   0  0  2  0  0  0  0  0  0  0  0  0
   48.5030   33.7020   37.0650 C   0  0  0  0  0  0  0  0  0  0  0  0
   48.9750   34.9450   37.3930 F   0  0  0  0  0  0  0  0  0  0  0  0
   49.0770   32.6690   37.7470 F   0  0  0  0  0  0  0  0  0  0  0  0
   48.7500   33.5270   35.6980 F   0  0  0  0  0  0  0  0  0  0  0  0
   43.8492   36.7761   45.0950 H   0  0  0  0  0  0  0  0  0  0  0  0
   44.9199   36.5812   42.8553 H   0  0  0  0  0  0  0  0  0  0  0  0
   44.5761   33.6908   48.3638 H   0  0  0  0  0  0  0  0  0  0  0  0
   45.4530   31.5534   49.5444 H   0  0  0  0  0  0  0  0  0  0  0  0
   47.1278   29.3755   48.7717 H   0  0  0  0  0  0  0  0  0  0  0  0
   48.4479   28.4320   46.9175 H   0  0  0  0  0  0  0  0  0  0  0  0
   48.5114   29.7081   44.7181 H   0  0  0  0  0  0  0  0  0  0  0  0
   47.2495   31.8077   44.5622 H   0  0  0  0  0  0  0  0  0  0  0  0
   43.6510   34.0409   41.6450 H   0  0  0  0  0  0  0  0  0  0  0  0
   43.9397   32.9657   37.5025 H   0  0  0  0  0  0  0  0  0  0  0  0
   46.9217   32.0401   39.0832 H   0  0  0  0  0  0  0  0  0  0  0  0
   45.3087   32.4710   36.3864 H   0  0  0  0  0  0  0  0  0  0  0  0
   46.5868   31.6029   36.1390 H   0  0  0  0  0  0  0  0  0  0  0  0
   46.8306   34.7306   36.9955 H   0  0  0  0  0  0  0  0  0  0  0  0
  1  5  1  0
  2  1  2  0
  3  8  2  0
  4  3  1  0
  5  4  2  0
  5  6  1  0
  6  7  2  0
  7  8  1  0
  7  9  1  0
  9 10  2  0
 10 11  1  0
 12 13  2  0
 12 11  1  0
 14 13  1  0
 15 14  2  0
 16 15  1  0
 16 17  2  0
 17  9  1  0
 17 12  1  0
 18  1  1  0
 19 20  2  0
 19 18  1  0
 21 20  1  0
 22 23  1  0
 22 21  2  0
 23 19  1  0
 24 23  1  0
 25 26  1  0
 25 24  1  0
 26 24  1  0
 27 26  1  0
 27 28  1  0
 27 29  1  0
 30 27  1  0
  3 31  1  0
  4 32  1  0
 10 33  1  0
 11 34  1  0
 13 35  1  0
 14 36  1  0
 15 37  1  0
 16 38  1  0
 20 39  1  0
 22 40  1  0
 24 41  1  1
 25 42  1  0
 25 43  1  0
 26 44  1  1
M  ISO  8  31  14  32  14  33  14  34   9  35  14  36  14  37  14  38  14
M  ISO  6  39  14  40  14  41  13  42  13  43  13  44  13
M  END
>  <minimizedAffinity>  (1) 
-6.34328842

>  <minimizedRMSD>  (1) 
0.365514159

$$$$
