
     RDKit          3D

 41 44  0  0  1  0  0  0  0  0999 V2000
   46.8330   34.5710   41.8760 C   0  0  0  0  0  0  0  0  0  0  0  0
   47.7410   35.3980   41.5310 O   0  0  0  0  0  0  0  0  0  0  0  0
   44.5490   35.7830   44.5630 C   0  0  0  0  0  0  0  0  0  0  0  0
   45.1680   35.7280   43.3310 C   0  0  0  0  0  0  0  0  0  0  0  0
   46.1220   34.7360   43.1040 C   0  0  0  0  0  0  0  0  0  0  0  0
   46.3370   33.9250   44.1300 N   0  0  0  0  0  0  0  0  0  0  0  0
   45.7640   33.9510   45.3160 C   0  0  0  0  0  0  0  0  0  0  0  0
   44.8470   34.9010   45.5410 N   0  0  0  0  0  0  0  0  0  0  0  0
   46.0380   33.0480   46.3870 N   0  0  0  0  0  0  0  0  0  0  0  0
   46.9940   32.1280   46.1640 C   0  0  0  0  0  0  0  0  0  0  0  0
   47.2550   31.2580   47.2030 C   0  0  0  0  0  0  0  0  0  0  0  0
   46.5220   31.4070   48.3620 C   0  0  0  0  0  0  0  0  0  0  0  0
   46.7600   30.5300   49.4560 N   0  0  0  0  0  0  0  0  0  0  0  0
   45.5700   32.3560   48.5210 N   0  0  0  0  0  0  0  0  0  0  0  0
   45.3090   33.2160   47.5050 C   0  0  0  0  0  0  0  0  0  0  0  0
   44.4400   34.1220   47.5800 O   0  0  0  0  0  0  0  0  0  0  0  0
   46.6060   33.5660   41.0230 O   0  0  0  0  0  0  0  0  0  0  0  0
   45.5670   33.4780   40.1560 C   0  0  0  0  0  0  0  0  0  0  0  0
   44.2530   33.8270   40.5390 C   0  0  0  0  0  0  0  0  0  0  0  0
   43.4490   33.6350   39.4690 N   0  0  0  0  0  0  0  0  0  0  0  0
   44.2050   33.1840   38.4460 C   0  0  0  0  0  0  0  0  0  0  0  0
   45.4620   33.1080   38.9090 N   0  0  0  0  0  0  0  0  0  0  0  0
   46.4800   32.6390   37.9780 C   0  0  1  0  0  0  0  0  0  0  0  0
   46.2770   32.6700   36.5130 C   0  0  0  0  0  0  0  0  0  0  0  0
   47.1440   33.7170   37.0970 C   0  0  2  0  0  0  0  0  0  0  0  0
   48.6450   33.4870   36.9270 C   0  0  0  0  0  0  0  0  0  0  0  0
   49.3280   34.6440   37.2320 F   0  0  0  0  0  0  0  0  0  0  0  0
   49.0620   32.4050   37.6220 F   0  0  0  0  0  0  0  0  0  0  0  0
   48.8320   33.2690   35.5570 F   0  0  0  0  0  0  0  0  0  0  0  0
   43.7963   36.5624   44.7525 H   0  0  0  0  0  0  0  0  0  0  0  0
   44.9141   36.4524   42.5431 H   0  0  0  0  0  0  0  0  0  0  0  0
   47.5363   32.0725   45.2086 H   0  0  0  0  0  0  0  0  0  0  0  0
   48.0205   30.4735   47.1102 H   0  0  0  0  0  0  0  0  0  0  0  0
   46.2181   30.6329   50.3258 H   0  0  0  0  0  0  0  0  0  0  0  0
   47.4743   29.7920   49.3785 H   0  0  0  0  0  0  0  0  0  0  0  0
   43.9402   34.1896   41.5293 H   0  0  0  0  0  0  0  0  0  0  0  0
   43.8592   32.9292   37.4333 H   0  0  0  0  0  0  0  0  0  0  0  0
   46.7877   31.8484   38.6782 H   0  0  0  0  0  0  0  0  0  0  0  0
   45.2921   32.9456   36.1080 H   0  0  0  0  0  0  0  0  0  0  0  0
   46.4129   31.9302   35.7104 H   0  0  0  0  0  0  0  0  0  0  0  0
   47.1681   34.8158   37.0510 H   0  0  0  0  0  0  0  0  0  0  0  0
  1  5  1  0
  2  1  2  0
  3  8  2  0
  4  3  1  0
  5  4  2  0
  5  6  1  0
  6  7  2  0
  7  8  1  0
  7  9  1  0
  9 15  1  0
 10  9  1  0
 10 11  2  0
 11 12  1  0
 12 14  2  0
 12 13  1  0
 15 16  2  0
 15 14  1  0
 17  1  1  0
 18 19  2  0
 18 17  1  0
 20 19  1  0
 21 22  1  0
 21 20  2  0
 22 18  1  0
 23 22  1  0
 24 25  1  0
 24 23  1  0
 25 23  1  0
 26 25  1  0
 26 27  1  0
 26 28  1  0
 29 26  1  0
  3 30  1  0
  4 31  1  0
 10 32  1  0
 11 33  1  0
 13 34  1  0
 13 35  1  0
 19 36  1  0
 21 37  1  0
 23 38  1  1
 24 39  1  0
 24 40  1  0
 25 41  1  1
M  ISO  8  30  14  31  14  32  14  33  14  36  14  37  14  38  13  39  13
M  ISO  2  40  13  41  13
M  END
>  <minimizedAffinity>  (1) 
-6.72132015

>  <minimizedRMSD>  (1) 
0.418207109

$$$$
