
     RDKit          3D

 37 40  0  0  1  0  0  0  0  0999 V2000
   45.3240   33.3400   40.3550 C   0  0  0  0  0  0  0  0  0  0  0  0
   43.9920   33.6780   40.6090 C   0  0  0  0  0  0  0  0  0  0  0  0
   43.3220   33.5630   39.4430 N   0  0  0  0  0  0  0  0  0  0  0  0
   44.1840   33.1680   38.4790 C   0  0  0  0  0  0  0  0  0  0  0  0
   45.3820   33.0470   39.0820 N   0  0  0  0  0  0  0  0  0  0  0  0
   46.4970   32.6260   38.2430 C   0  0  1  0  0  0  0  0  0  0  0  0
   46.3210   32.3860   36.7870 C   0  0  0  0  0  0  0  0  0  0  0  0
   46.9710   33.6530   37.1740 C   0  0  2  0  0  0  0  0  0  0  0  0
   48.4940   33.6990   37.0500 C   0  0  0  0  0  0  0  0  0  0  0  0
   48.9420   34.9440   37.3800 F   0  0  0  0  0  0  0  0  0  0  0  0
   49.0720   32.6750   37.7350 F   0  0  0  0  0  0  0  0  0  0  0  0
   48.7570   33.5300   35.6870 F   0  0  0  0  0  0  0  0  0  0  0  0
   46.2820   33.3520   41.3380 O   0  0  0  0  0  0  0  0  0  0  0  0
   46.5670   34.4050   42.1050 C   0  0  0  0  0  0  0  0  0  0  0  0
   47.5040   35.1720   41.6810 O   0  0  0  0  0  0  0  0  0  0  0  0
   44.4490   35.9520   44.7790 C   0  0  0  0  0  0  0  0  0  0  0  0
   45.0330   35.7870   43.5330 C   0  0  0  0  0  0  0  0  0  0  0  0
   45.8890   34.7040   43.3430 C   0  0  0  0  0  0  0  0  0  0  0  0
   46.0780   33.8970   44.4020 N   0  0  0  0  0  0  0  0  0  0  0  0
   45.5150   34.0640   45.5920 C   0  0  0  0  0  0  0  0  0  0  0  0
   44.6950   35.0970   45.7820 N   0  0  0  0  0  0  0  0  0  0  0  0
   45.7260   33.1840   46.7350 C   0  0  0  0  0  0  0  0  0  0  0  0
   46.9510   32.5140   46.7670 C   0  0  0  0  0  0  0  0  0  0  0  0
   46.9310   31.7420   47.9320 C   0  0  0  0  0  0  0  0  0  0  0  0
   45.7410   31.9610   48.5430 N   0  0  0  0  0  0  0  0  0  0  0  0
   45.0140   32.8280   47.8250 N   0  0  0  0  0  0  0  0  0  0  0  0
   43.5687   33.9811   41.5780 H   0  0  0  0  0  0  0  0  0  0  0  0
   43.9538   32.9833   37.4193 H   0  0  0  0  0  0  0  0  0  0  0  0
   46.9318   32.0347   39.0624 H   0  0  0  0  0  0  0  0  0  0  0  0
   45.3100   32.4076   36.3541 H   0  0  0  0  0  0  0  0  0  0  0  0
   46.6062   31.5629   36.1153 H   0  0  0  0  0  0  0  0  0  0  0  0
   46.7925   34.7106   36.9299 H   0  0  0  0  0  0  0  0  0  0  0  0
   43.7704   36.8010   44.9483 H   0  0  0  0  0  0  0  0  0  0  0  0
   44.8261   36.4928   42.7151 H   0  0  0  0  0  0  0  0  0  0  0  0
   47.7634   32.5802   46.0283 H   0  0  0  0  0  0  0  0  0  0  0  0
   47.7333   31.0788   48.2876 H   0  0  0  0  0  0  0  0  0  0  0  0
   45.4405   31.5260   49.4270 H   0  0  0  0  0  0  0  0  0  0  0  0
  1  2  2  0
  1 13  1  0
  3  2  1  0
  4  5  1  0
  4  3  2  0
  5  1  1  0
  6  5  1  0
  7  8  1  0
  7  6  1  0
  8  6  1  0
  9  8  1  0
  9 10  1  0
  9 11  1  0
 12  9  1  0
 13 14  1  0
 14 18  1  0
 15 14  2  0
 16 21  2  0
 17 16  1  0
 18 17  2  0
 18 19  1  0
 19 20  2  0
 20 21  1  0
 20 22  1  0
 22 23  1  0
 22 26  2  0
 23 24  2  0
 24 25  1  0
 26 25  1  0
  2 27  1  0
  4 28  1  0
  6 29  1  1
  7 30  1  0
  7 31  1  0
  8 32  1  1
 16 33  1  0
 17 34  1  0
 23 35  1  0
 24 36  1  0
 25 37  1  0
M  ISO  8  27  14  28  14  29  13  30  13  31  13  32  13  33  14  34  14
M  ISO  3  35  14  36  14  37   9
M  END
>  <minimizedAffinity>  (1) 
-5.80790138

>  <minimizedRMSD>  (1) 
0.250719488

$$$$
