
     RDKit          3D

 35 38  0  0  1  0  0  0  0  0999 V2000
   45.3210   33.3520   40.3150 C   0  0  0  0  0  0  0  0  0  0  0  0
   43.9960   33.6950   40.5710 C   0  0  0  0  0  0  0  0  0  0  0  0
   43.3180   33.5740   39.4170 N   0  0  0  0  0  0  0  0  0  0  0  0
   44.1610   33.1700   38.4560 C   0  0  0  0  0  0  0  0  0  0  0  0
   45.3580   33.0520   39.0500 N   0  0  0  0  0  0  0  0  0  0  0  0
   46.4730   32.6180   38.2060 C   0  0  1  0  0  0  0  0  0  0  0  0
   46.2870   32.4040   36.7390 C   0  0  0  0  0  0  0  0  0  0  0  0
   46.9670   33.6490   37.1490 C   0  0  2  0  0  0  0  0  0  0  0  0
   48.4870   33.6630   37.0140 C   0  0  0  0  0  0  0  0  0  0  0  0
   48.9590   34.9130   37.3680 F   0  0  0  0  0  0  0  0  0  0  0  0
   49.0460   32.6300   37.6800 F   0  0  0  0  0  0  0  0  0  0  0  0
   48.7480   33.5180   35.6470 F   0  0  0  0  0  0  0  0  0  0  0  0
   46.2770   33.3720   41.2880 O   0  0  0  0  0  0  0  0  0  0  0  0
   46.5760   34.4220   42.0700 C   0  0  0  0  0  0  0  0  0  0  0  0
   47.4960   35.1900   41.6310 O   0  0  0  0  0  0  0  0  0  0  0  0
   44.4540   35.9190   44.7530 C   0  0  0  0  0  0  0  0  0  0  0  0
   45.0350   35.7590   43.5020 C   0  0  0  0  0  0  0  0  0  0  0  0
   45.9210   34.6840   43.3130 C   0  0  0  0  0  0  0  0  0  0  0  0
   46.1210   33.9060   44.3730 N   0  0  0  0  0  0  0  0  0  0  0  0
   45.5750   34.0450   45.5730 C   0  0  0  0  0  0  0  0  0  0  0  0
   44.7250   35.0700   45.7680 N   0  0  0  0  0  0  0  0  0  0  0  0
   45.8430   33.1500   46.6920 C   0  0  0  0  0  0  0  0  0  0  0  0
   45.1410   32.7680   47.7750 N   0  0  0  0  0  0  0  0  0  0  0  0
   45.8350   31.9330   48.4900 O   0  0  0  0  0  0  0  0  0  0  0  0
   46.9940   31.7460   47.9040 C   0  0  0  0  0  0  0  0  0  0  0  0
   47.0280   32.4990   46.7710 N   0  0  0  0  0  0  0  0  0  0  0  0
   43.5804   34.0077   41.5402 H   0  0  0  0  0  0  0  0  0  0  0  0
   43.9211   32.9757   37.4002 H   0  0  0  0  0  0  0  0  0  0  0  0
   46.8983   32.0083   39.0168 H   0  0  0  0  0  0  0  0  0  0  0  0
   45.2760   32.4564   36.3086 H   0  0  0  0  0  0  0  0  0  0  0  0
   46.5512   31.5863   36.0523 H   0  0  0  0  0  0  0  0  0  0  0  0
   46.8115   34.7149   36.9262 H   0  0  0  0  0  0  0  0  0  0  0  0
   43.7586   36.7546   44.9209 H   0  0  0  0  0  0  0  0  0  0  0  0
   44.8081   36.4548   42.6808 H   0  0  0  0  0  0  0  0  0  0  0  0
   47.8007   31.0920   48.2667 H   0  0  0  0  0  0  0  0  0  0  0  0
  1  2  2  0
  1 13  1  0
  3  2  1  0
  4  5  1  0
  4  3  2  0
  5  1  1  0
  6  5  1  0
  7  8  1  0
  7  6  1  0
  8  6  1  0
  9  8  1  0
  9 10  1  0
  9 11  1  0
 12  9  1  0
 13 14  1  0
 14 18  1  0
 15 14  2  0
 16 21  2  0
 17 16  1  0
 18 17  2  0
 18 19  1  0
 19 20  2  0
 20 21  1  0
 20 22  1  0
 22 26  1  0
 22 23  2  0
 23 24  1  0
 25 24  1  0
 26 25  2  0
  2 27  1  0
  4 28  1  0
  6 29  1  1
  7 30  1  0
  7 31  1  0
  8 32  1  1
 16 33  1  0
 17 34  1  0
 25 35  1  0
M  ISO  8  27  14  28  14  29  13  30  13  31  13  32  13  33  14  34  14
M  ISO  1  35  14
M  END
>  <minimizedAffinity>  (1) 
-5.75616264

>  <minimizedRMSD>  (1) 
0.312074363

$$$$
