
     RDKit          3D

 32 34  0  0  1  0  0  0  0  0999 V2000
   45.4310   33.4690   40.3250 C   0  0  0  0  0  0  0  0  0  0  0  0
   44.1150   33.8540   40.6140 C   0  0  0  0  0  0  0  0  0  0  0  0
   43.3950   33.7000   39.4930 N   0  0  0  0  0  0  0  0  0  0  0  0
   44.2100   33.2330   38.5130 C   0  0  0  0  0  0  0  0  0  0  0  0
   45.4270   33.1110   39.0690 N   0  0  0  0  0  0  0  0  0  0  0  0
   46.4830   32.6210   38.2070 C   0  0  1  0  0  0  0  0  0  0  0  0
   46.2670   32.3800   36.7590 C   0  0  0  0  0  0  0  0  0  0  0  0
   46.9970   33.6000   37.1190 C   0  0  2  0  0  0  0  0  0  0  0  0
   48.5120   33.5590   36.9500 C   0  0  0  0  0  0  0  0  0  0  0  0
   49.0600   34.7520   37.3240 F   0  0  0  0  0  0  0  0  0  0  0  0
   49.0440   32.4810   37.6020 F   0  0  0  0  0  0  0  0  0  0  0  0
   48.7330   33.4120   35.5800 F   0  0  0  0  0  0  0  0  0  0  0  0
   46.4240   33.5070   41.2650 O   0  0  0  0  0  0  0  0  0  0  0  0
   46.6770   34.5520   42.0800 C   0  0  0  0  0  0  0  0  0  0  0  0
   47.5870   35.3490   41.6850 O   0  0  0  0  0  0  0  0  0  0  0  0
   44.5030   35.9410   44.7760 C   0  0  0  0  0  0  0  0  0  0  0  0
   45.1180   35.8410   43.5350 C   0  0  0  0  0  0  0  0  0  0  0  0
   45.9830   34.7710   43.3080 C   0  0  0  0  0  0  0  0  0  0  0  0
   46.1270   33.9400   44.3310 N   0  0  0  0  0  0  0  0  0  0  0  0
   45.5610   34.0020   45.5180 C   0  0  0  0  0  0  0  0  0  0  0  0
   44.7250   35.0350   45.7440 N   0  0  0  0  0  0  0  0  0  0  0  0
   45.7920   33.0240   46.5860 C   0  0  0  0  0  0  0  0  0  0  0  0
   45.0850   33.0230   47.6140 O   0  0  0  0  0  0  0  0  0  0  0  0
   43.7409   34.2162   41.5829 H   0  0  0  0  0  0  0  0  0  0  0  0
   43.9307   33.0015   37.4745 H   0  0  0  0  0  0  0  0  0  0  0  0
   46.8937   32.0110   39.0251 H   0  0  0  0  0  0  0  0  0  0  0  0
   45.2517   32.4607   36.3435 H   0  0  0  0  0  0  0  0  0  0  0  0
   46.4884   31.5346   36.0910 H   0  0  0  0  0  0  0  0  0  0  0  0
   46.8794   34.6655   36.8722 H   0  0  0  0  0  0  0  0  0  0  0  0
   43.8191   36.7801   44.9713 H   0  0  0  0  0  0  0  0  0  0  0  0
   44.9275   36.5877   42.7501 H   0  0  0  0  0  0  0  0  0  0  0  0
   46.5978   32.2828   46.4796 H   0  0  0  0  0  0  0  0  0  0  0  0
  1  2  2  0
  1 13  1  0
  3  2  1  0
  4  5  1  0
  4  3  2  0
  5  1  1  0
  6  5  1  0
  7  8  1  0
  7  6  1  0
  8  6  1  0
  9  8  1  0
  9 10  1  0
  9 11  1  0
 12  9  1  0
 13 14  1  0
 14 18  1  0
 15 14  2  0
 16 21  2  0
 17 16  1  0
 18 17  2  0
 18 19  1  0
 19 20  2  0
 20 21  1  0
 20 22  1  0
 22 23  2  0
  2 24  1  0
  4 25  1  0
  6 26  1  1
  7 27  1  0
  7 28  1  0
  8 29  1  1
 16 30  1  0
 17 31  1  0
 22 32  1  0
M  ISO  8  24  14  25  14  26  13  27  13  28  13  29  13  30  14  31  14
M  ISO  1  32   6
M  END
>  <minimizedAffinity>  (1) 
-5.15876055

>  <minimizedRMSD>  (1) 
0.127903938

$$$$
