
     RDKit          3D

 42 46  0  0  1  0  0  0  0  0999 V2000
   44.5140   34.3330   41.6650 C   0  0  0  0  0  0  0  0  0  0  0  0
   43.8940   34.9810   42.5850 O   0  0  0  0  0  0  0  0  0  0  0  0
   48.0990   35.3310   42.0330 C   0  0  0  0  0  0  0  0  0  0  0  0
   46.7600   35.1810   42.3620 C   0  0  0  0  0  0  0  0  0  0  0  0
   45.9080   34.5450   41.4410 C   0  0  0  0  0  0  0  0  0  0  0  0
   46.4930   34.1350   40.3070 N   0  0  0  0  0  0  0  0  0  0  0  0
   47.7740   34.2770   39.9910 C   0  0  0  0  0  0  0  0  0  0  0  0
   48.5820   34.8740   40.8490 N   0  0  0  0  0  0  0  0  0  0  0  0
   48.2700   33.7750   38.7070 C   0  0  0  0  0  0  0  0  0  0  0  0
   48.0840   34.3140   37.4550 C   0  0  0  0  0  0  0  0  0  0  0  0
   48.7160   33.5200   36.5820 N   0  0  0  0  0  0  0  0  0  0  0  0
   49.3020   32.4930   37.2080 C   0  0  0  0  0  0  0  0  0  0  0  0
   49.0140   32.6720   38.5150 N   0  0  0  0  0  0  0  0  0  0  0  0
   49.4880   31.7430   39.5030 C   0  0  0  0  0  0  0  0  0  0  0  0
   50.6460   31.6450   40.1830 N   0  0  0  0  0  0  0  0  0  0  0  0
   50.5800   30.6140   40.9720 O   0  0  0  0  0  0  0  0  0  0  0  0
   49.4120   30.0150   40.8410 C   0  0  0  0  0  0  0  0  0  0  0  0
   48.7200   30.7000   39.9340 N   0  0  0  0  0  0  0  0  0  0  0  0
   43.7790   33.4640   40.9470 O   0  0  0  0  0  0  0  0  0  0  0  0
   42.9630   32.5130   41.4820 C   0  0  0  0  0  0  0  0  0  0  0  0
   43.4500   31.4720   42.3030 C   0  0  0  0  0  0  0  0  0  0  0  0
   42.3980   30.7220   42.6580 N   0  0  0  0  0  0  0  0  0  0  0  0
   41.2770   31.2290   42.1090 C   0  0  0  0  0  0  0  0  0  0  0  0
   41.6710   32.3150   41.4040 N   0  0  0  0  0  0  0  0  0  0  0  0
   40.6350   33.0620   40.7000 C   0  0  1  0  0  0  0  0  0  0  0  0
   39.3130   33.3050   41.3110 C   0  0  0  0  0  0  0  0  0  0  0  0
   40.2560   34.4330   41.2960 C   0  0  2  0  0  0  0  0  0  0  0  0
   40.0250   35.5130   40.2470 C   0  0  0  0  0  0  0  0  0  0  0  0
   39.8510   36.7270   40.8420 F   0  0  0  0  0  0  0  0  0  0  0  0
   41.0210   35.4630   39.3090 F   0  0  0  0  0  0  0  0  0  0  0  0
   38.8180   35.1610   39.6290 F   0  0  0  0  0  0  0  0  0  0  0  0
   48.7792   35.8271   42.7410 H   0  0  0  0  0  0  0  0  0  0  0  0
   46.3726   35.5515   43.3226 H   0  0  0  0  0  0  0  0  0  0  0  0
   47.5205   35.2279   37.2157 H   0  0  0  0  0  0  0  0  0  0  0  0
   49.8900   31.6803   36.7565 H   0  0  0  0  0  0  0  0  0  0  0  0
   49.0737   29.1179   41.3802 H   0  0  0  0  0  0  0  0  0  0  0  0
   44.4974   31.3077   42.5962 H   0  0  0  0  0  0  0  0  0  0  0  0
   40.2531   30.8405   42.2124 H   0  0  0  0  0  0  0  0  0  0  0  0
   40.9601   32.6535   39.7318 H   0  0  0  0  0  0  0  0  0  0  0  0
   38.4190   33.3385   40.6710 H   0  0  0  0  0  0  0  0  0  0  0  0
   38.7407   32.8046   42.1061 H   0  0  0  0  0  0  0  0  0  0  0  0
   40.6503   35.1154   42.0633 H   0  0  0  0  0  0  0  0  0  0  0  0
  1  2  2  0
  3  4  2  0
  5  1  1  0
  5  4  1  0
  6  5  2  0
  7  6  1  0
  7  8  2  0
  8  3  1  0
  9  7  1  0
 10  9  2  0
 11 12  2  0
 11 10  1  0
 12 13  1  0
 13  9  1  0
 13 14  1  0
 14 18  1  0
 14 15  2  0
 15 16  1  0
 17 16  1  0
 18 17  2  0
 19 20  1  0
 19  1  1  0
 20 21  2  0
 21 22  1  0
 23 22  2  0
 24 20  1  0
 24 23  1  0
 25 27  1  0
 25 26  1  0
 25 24  1  0
 27 26  1  0
 28 29  1  0
 28 27  1  0
 30 28  1  0
 31 28  1  0
  3 32  1  0
  4 33  1  0
 10 34  1  0
 12 35  1  0
 17 36  1  0
 21 37  1  0
 23 38  1  0
 25 39  1  6
 26 40  1  0
 26 41  1  0
 27 42  1  1
M  ISO  8  32  14  33  14  34  14  35  14  36  14  37  14  38  14  39  13
M  ISO  3  40  13  41  13  42  13
M  END
>  <minimizedAffinity>  (1) 
-6.62404823

>  <minimizedRMSD>  (1) 
7.92002392

$$$$
