
     RDKit          3D

 44 48  0  0  1  0  0  0  0  0999 V2000
   45.0060   35.0890   45.0460 C   0  0  0  0  0  0  0  0  0  0  0  0
   44.3250   35.1660   43.8420 C   0  0  0  0  0  0  0  0  0  0  0  0
   44.4790   34.1190   42.9340 C   0  0  0  0  0  0  0  0  0  0  0  0
   45.2900   33.1140   43.3230 N   0  0  0  0  0  0  0  0  0  0  0  0
   45.9380   33.0490   44.4820 C   0  0  0  0  0  0  0  0  0  0  0  0
   45.8000   34.0340   45.3490 N   0  0  0  0  0  0  0  0  0  0  0  0
   46.7870   31.9080   44.7890 C   0  0  0  0  0  0  0  0  0  0  0  0
   47.6710   31.2620   43.9410 C   0  0  0  0  0  0  0  0  0  0  0  0
   48.2460   30.2630   44.6360 N   0  0  0  0  0  0  0  0  0  0  0  0
   47.7720   30.2350   45.8960 C   0  0  0  0  0  0  0  0  0  0  0  0
   46.8850   31.2530   45.9490 N   0  0  0  0  0  0  0  0  0  0  0  0
   46.1800   31.5170   47.1620 C   0  0  0  0  0  0  0  0  0  0  0  0
   46.8380   31.7940   48.3430 C   0  0  0  0  0  0  0  0  0  0  0  0
   45.8790   31.9970   49.3070 C   0  0  0  0  0  0  0  0  0  0  0  0
   44.6930   31.8420   48.7050 N   0  0  0  0  0  0  0  0  0  0  0  0
   44.8400   31.5540   47.4210 N   0  0  0  0  0  0  0  0  0  0  0  0
   43.8420   34.0590   41.6530 C   0  0  0  0  0  0  0  0  0  0  0  0
   44.4850   34.3950   40.5950 O   0  0  0  0  0  0  0  0  0  0  0  0
   42.5790   33.6630   41.4620 O   0  0  0  0  0  0  0  0  0  0  0  0
   41.5710   34.4850   41.0410 C   0  0  0  0  0  0  0  0  0  0  0  0
   41.4190   35.8040   41.5240 C   0  0  0  0  0  0  0  0  0  0  0  0
   40.3460   36.3290   40.9160 N   0  0  0  0  0  0  0  0  0  0  0  0
   39.8140   35.4130   40.0760 C   0  0  0  0  0  0  0  0  0  0  0  0
   40.5920   34.3190   40.1910 N   0  0  0  0  0  0  0  0  0  0  0  0
   40.2310   33.1640   39.3760 C   0  0  1  0  0  0  0  0  0  0  0  0
   39.5980   33.3090   38.0540 C   0  0  0  0  0  0  0  0  0  0  0  0
   41.0380   32.9700   38.0730 C   0  0  2  0  0  0  0  0  0  0  0  0
   41.3990   31.5160   37.7870 C   0  0  0  0  0  0  0  0  0  0  0  0
   42.4470   31.4720   36.8950 F   0  0  0  0  0  0  0  0  0  0  0  0
   41.5970   30.8460   38.9440 F   0  0  0  0  0  0  0  0  0  0  0  0
   40.2730   30.9900   37.1420 F   0  0  0  0  0  0  0  0  0  0  0  0
   44.8992   35.9058   45.7750 H   0  0  0  0  0  0  0  0  0  0  0  0
   43.6819   36.0275   43.6092 H   0  0  0  0  0  0  0  0  0  0  0  0
   47.8677   31.5189   42.8896 H   0  0  0  0  0  0  0  0  0  0  0  0
   48.0458   29.5387   46.7024 H   0  0  0  0  0  0  0  0  0  0  0  0
   47.9275   31.8432   48.4864 H   0  0  0  0  0  0  0  0  0  0  0  0
   46.0522   32.2394   50.3659 H   0  0  0  0  0  0  0  0  0  0  0  0
   43.7836   31.9348   49.1796 H   0  0  0  0  0  0  0  0  0  0  0  0
   42.0617   36.3066   42.2618 H   0  0  0  0  0  0  0  0  0  0  0  0
   38.9301   35.5354   39.4327 H   0  0  0  0  0  0  0  0  0  0  0  0
   39.9728   32.5834   40.2739 H   0  0  0  0  0  0  0  0  0  0  0  0
   39.2810   34.3053   37.7121 H   0  0  0  0  0  0  0  0  0  0  0  0
   38.7168   32.8520   37.5801 H   0  0  0  0  0  0  0  0  0  0  0  0
   41.9401   33.3989   37.6122 H   0  0  0  0  0  0  0  0  0  0  0  0
  1  6  2  0
  2  1  1  0
  3  4  1  0
  3  2  2  0
  4  5  2  0
  5  7  1  0
  5  6  1  0
  7 11  1  0
  8  9  1  0
  8  7  2  0
  9 10  2  0
 10 11  1  0
 11 12  1  0
 12 16  2  0
 12 13  1  0
 13 14  2  0
 15 14  1  0
 16 15  1  0
 17  3  1  0
 18 17  2  0
 19 17  1  0
 20 19  1  0
 20 21  2  0
 22 21  1  0
 23 24  1  0
 23 22  2  0
 24 20  1  0
 25 24  1  0
 26 27  1  0
 26 25  1  0
 27 25  1  0
 28 27  1  0
 28 30  1  0
 29 28  1  0
 31 28  1  0
  1 32  1  0
  2 33  1  0
  8 34  1  0
 10 35  1  0
 13 36  1  0
 14 37  1  0
 15 38  1  0
 21 39  1  0
 23 40  1  0
 25 41  1  1
 26 42  1  0
 26 43  1  0
 27 44  1  6
M  ISO  8  32  14  33  14  34  14  35  14  36  14  37  14  38   9  39  14
M  ISO  5  40  14  41  13  42  13  43  13  44  13
M  END
>  <minimizedAffinity>  (1) 
-6.03346634

>  <minimizedRMSD>  (1) 
4.62877083

$$$$
