
     RDKit          3D

 35 38  0  0  0  0  0  0  0  0999 V2000
   46.0480   32.6690   47.0350 C   0  0  0  0  0  0  0  0  0  0  0  0
   45.0560   32.5070   47.9640 C   0  0  0  0  0  0  0  0  0  0  0  0
   45.2320   31.6790   49.0610 C   0  0  0  0  0  0  0  0  0  0  0  0
   46.4430   31.0460   49.1490 C   0  0  0  0  0  0  0  0  0  0  0  0
   47.4630   31.1740   48.2560 C   0  0  0  0  0  0  0  0  0  0  0  0
   47.1710   32.0000   47.2410 N   0  0  0  0  0  0  0  0  0  0  0  0
   48.7290   30.5390   48.1830 C   0  0  0  0  0  0  0  0  0  0  0  0
   48.9110   29.5350   47.2180 C   0  0  0  0  0  0  0  0  0  0  0  0
   50.0650   28.8300   46.9990 C   0  0  0  0  0  0  0  0  0  0  0  0
   51.1670   29.0970   47.7680 C   0  0  0  0  0  0  0  0  0  0  0  0
   51.0720   30.0690   48.7340 C   0  0  0  0  0  0  0  0  0  0  0  0
   52.1920   30.3580   49.4790 C   0  0  0  0  0  0  0  0  0  0  0  0
   52.1780   31.3500   50.4420 C   0  0  0  0  0  0  0  0  0  0  0  0
   50.9710   32.0400   50.6130 C   0  0  0  0  0  0  0  0  0  0  0  0
   49.8810   31.7130   49.8430 C   0  0  0  0  0  0  0  0  0  0  0  0
   49.8850   30.7290   48.8900 C   0  0  0  0  0  0  0  0  0  0  0  0
   44.7770   35.3030   44.8530 C   0  0  0  0  0  0  0  0  0  0  0  0
   45.5620   35.1700   43.6800 C   0  0  0  0  0  0  0  0  0  0  0  0
   46.5230   34.1700   43.6540 C   0  0  0  0  0  0  0  0  0  0  0  0
   46.6500   33.3840   44.7530 N   0  0  0  0  0  0  0  0  0  0  0  0
   45.8740   33.5400   45.8720 C   0  0  0  0  0  0  0  0  0  0  0  0
   44.9420   34.4990   45.9170 N   0  0  0  0  0  0  0  0  0  0  0  0
   44.1036   33.0428   47.8377 H   0  0  0  0  0  0  0  0  0  0  0  0
   44.4452   31.5385   49.8167 H   0  0  0  0  0  0  0  0  0  0  0  0
   46.6048   30.3808   50.0100 H   0  0  0  0  0  0  0  0  0  0  0  0
   48.0484   29.2926   46.5799 H   0  0  0  0  0  0  0  0  0  0  0  0
   50.1063   28.0591   46.2154 H   0  0  0  0  0  0  0  0  0  0  0  0
   52.1065   28.5456   47.6153 H   0  0  0  0  0  0  0  0  0  0  0  0
   53.1169   29.7885   49.3050 H   0  0  0  0  0  0  0  0  0  0  0  0
   53.0688   31.5853   51.0429 H   0  0  0  0  0  0  0  0  0  0  0  0
   50.8960   32.8420   51.3622 H   0  0  0  0  0  0  0  0  0  0  0  0
   48.9489   32.2753   50.0014 H   0  0  0  0  0  0  0  0  0  0  0  0
   44.0086   36.0891   44.8934 H   0  0  0  0  0  0  0  0  0  0  0  0
   45.4139   35.8379   42.8187 H   0  0  0  0  0  0  0  0  0  0  0  0
   47.1615   34.0190   42.7711 H   0  0  0  0  0  0  0  0  0  0  0  0
  1  6  1  0
  1  2  2  0
  2  3  1  0
  3  4  2  0
  5  4  1  0
  6  5  2  0
  7  5  1  0
  7 16  1  0
  8  7  2  0
  9  8  1  0
  9 10  2  0
 10 11  1  0
 11 16  2  0
 11 12  1  0
 12 13  2  0
 13 14  1  0
 15 14  2  0
 16 15  1  0
 17 22  2  0
 18 17  1  0
 19 18  2  0
 19 20  1  0
 20 21  2  0
 21 22  1  0
 21  1  1  0
  2 23  1  0
  3 24  1  0
  4 25  1  0
  8 26  1  0
  9 27  1  0
 10 28  1  0
 12 29  1  0
 13 30  1  0
 14 31  1  0
 15 32  1  0
 17 33  1  0
 18 34  1  0
 19 35  1  0
M  ISO  8  23  14  24  14  25  14  26  14  27  14  28  14  29  14  30  14
M  ISO  5  31  14  32  14  33  14  34  14  35  14
M  END
>  <minimizedAffinity>  (1) 
-6.29676676

>  <minimizedRMSD>  (1) 
0.839908123

$$$$
