
     RDKit          3D

 32 34  0  0  0  0  0  0  0  0999 V2000
   46.1320   32.7000   47.0710 C   0  0  0  0  0  0  0  0  0  0  0  0
   45.0450   32.3380   47.8310 C   0  0  0  0  0  0  0  0  0  0  0  0
   45.1800   31.5760   48.9880 C   0  0  0  0  0  0  0  0  0  0  0  0
   46.4580   31.2110   49.3190 C   0  0  0  0  0  0  0  0  0  0  0  0
   47.5580   31.5580   48.5790 C   0  0  0  0  0  0  0  0  0  0  0  0
   47.3500   32.2900   47.4810 N   0  0  0  0  0  0  0  0  0  0  0  0
   48.9100   31.2180   48.8570 N   0  0  0  0  0  0  0  0  0  0  0  0
   49.8060   31.9580   49.5270 C   0  0  0  0  0  0  0  0  0  0  0  0
   51.0670   31.4760   49.7030 C   0  0  0  0  0  0  0  0  0  0  0  0
   52.0540   32.3080   50.4490 C   0  0  0  0  0  0  0  0  0  0  0  0
   51.4870   30.2510   49.2280 C   0  0  0  0  0  0  0  0  0  0  0  0
   52.6360   29.7920   49.3800 O   0  0  0  0  0  0  0  0  0  0  0  0
   50.5590   29.5380   48.5620 N   0  0  0  0  0  0  0  0  0  0  0  0
   49.3040   30.0110   48.3830 C   0  0  0  0  0  0  0  0  0  0  0  0
   48.5260   29.2370   47.7360 O   0  0  0  0  0  0  0  0  0  0  0  0
   44.8940   35.1840   44.7220 C   0  0  0  0  0  0  0  0  0  0  0  0
   45.7180   35.0220   43.5930 C   0  0  0  0  0  0  0  0  0  0  0  0
   46.7050   34.0490   43.6450 C   0  0  0  0  0  0  0  0  0  0  0  0
   46.8150   33.3140   44.7810 N   0  0  0  0  0  0  0  0  0  0  0  0
   46.0000   33.4990   45.8550 C   0  0  0  0  0  0  0  0  0  0  0  0
   45.0370   34.4390   45.8190 N   0  0  0  0  0  0  0  0  0  0  0  0
   44.0412   32.6593   47.5161 H   0  0  0  0  0  0  0  0  0  0  0  0
   44.3131   31.2847   49.5993 H   0  0  0  0  0  0  0  0  0  0  0  0
   46.6093   30.6078   50.2263 H   0  0  0  0  0  0  0  0  0  0  0  0
   49.5252   32.9425   49.9294 H   0  0  0  0  0  0  0  0  0  0  0  0
   51.9000   32.1782   51.5304 H   0  0  0  0  0  0  0  0  0  0  0  0
   53.0740   31.9931   50.1835 H   0  0  0  0  0  0  0  0  0  0  0  0
   51.9162   33.3666   50.1835 H   0  0  0  0  0  0  0  0  0  0  0  0
   50.8094   28.6143   48.1813 H   0  0  0  0  0  0  0  0  0  0  0  0
   44.1055   35.9507   44.6991 H   0  0  0  0  0  0  0  0  0  0  0  0
   45.5837   35.6470   42.6978 H   0  0  0  0  0  0  0  0  0  0  0  0
   47.3780   33.8781   42.7919 H   0  0  0  0  0  0  0  0  0  0  0  0
  1  6  1  0
  1  2  2  0
  2  3  1  0
  3  4  2  0
  5  7  1  0
  5  4  1  0
  6  5  2  0
  7  8  1  0
  8  9  2  0
  9 10  1  0
 11 12  2  0
 11  9  1  0
 13 11  1  0
 14 13  1  0
 14  7  1  0
 15 14  2  0
 16 21  2  0
 17 18  2  0
 17 16  1  0
 18 19  1  0
 19 20  2  0
 20  1  1  0
 21 20  1  0
  2 22  1  0
  3 23  1  0
  4 24  1  0
  8 25  1  0
 10 26  1  0
 10 27  1  0
 10 28  1  0
 13 29  1  0
 16 30  1  0
 17 31  1  0
 18 32  1  0
M  ISO  8  22  14  23  14  24  14  25  14  26   8  27   8  28   8  29   9
M  ISO  3  30  14  31  14  32  14
M  END
>  <minimizedAffinity>  (1) 
-6.21686077

>  <minimizedRMSD>  (1) 
1.13396287

$$$$
