
     RDKit          3D

 33 36  0  0  0  0  0  0  0  0999 V2000
   46.1400   32.7090   46.9530 C   0  0  0  0  0  0  0  0  0  0  0  0
   45.2080   32.5930   47.9610 C   0  0  0  0  0  0  0  0  0  0  0  0
   45.4080   31.7730   49.0610 C   0  0  0  0  0  0  0  0  0  0  0  0
   46.6030   31.0870   49.0680 C   0  0  0  0  0  0  0  0  0  0  0  0
   47.5610   31.1690   48.0910 C   0  0  0  0  0  0  0  0  0  0  0  0
   47.2660   31.9870   47.0780 N   0  0  0  0  0  0  0  0  0  0  0  0
   48.7640   30.4250   48.1820 N   0  0  0  0  0  0  0  0  0  0  0  0
   49.2030   29.5550   47.2690 C   0  0  0  0  0  0  0  0  0  0  0  0
   50.3810   29.0100   47.6470 N   0  0  0  0  0  0  0  0  0  0  0  0
   50.7090   29.5420   48.8380 C   0  0  0  0  0  0  0  0  0  0  0  0
   51.8060   29.3220   49.6480 C   0  0  0  0  0  0  0  0  0  0  0  0
   52.7250   28.5190   49.3460 O   0  0  0  0  0  0  0  0  0  0  0  0
   51.8560   30.0250   50.8150 N   0  0  0  0  0  0  0  0  0  0  0  0
   50.8540   30.8910   51.1280 C   0  0  0  0  0  0  0  0  0  0  0  0
   51.0580   31.5410   52.3740 N   0  0  0  0  0  0  0  0  0  0  0  0
   49.7900   31.0780   50.3010 N   0  0  0  0  0  0  0  0  0  0  0  0
   49.6840   30.4150   49.1390 C   0  0  0  0  0  0  0  0  0  0  0  0
   44.7260   35.3300   44.8450 C   0  0  0  0  0  0  0  0  0  0  0  0
   45.4670   35.2250   43.6530 C   0  0  0  0  0  0  0  0  0  0  0  0
   46.4660   34.2360   43.5840 C   0  0  0  0  0  0  0  0  0  0  0  0
   46.6630   33.4310   44.6740 N   0  0  0  0  0  0  0  0  0  0  0  0
   45.9170   33.5750   45.8030 C   0  0  0  0  0  0  0  0  0  0  0  0
   44.9630   34.5180   45.8720 N   0  0  0  0  0  0  0  0  0  0  0  0
   44.2742   33.1701   47.8908 H   0  0  0  0  0  0  0  0  0  0  0  0
   44.6673   31.6771   49.8686 H   0  0  0  0  0  0  0  0  0  0  0  0
   46.8033   30.4234   49.9221 H   0  0  0  0  0  0  0  0  0  0  0  0
   48.6763   29.3139   46.3339 H   0  0  0  0  0  0  0  0  0  0  0  0
   52.6506   29.9009   51.4585 H   0  0  0  0  0  0  0  0  0  0  0  0
   50.3658   32.2209   52.7196 H   0  0  0  0  0  0  0  0  0  0  0  0
   51.8982   31.3326   52.9321 H   0  0  0  0  0  0  0  0  0  0  0  0
   43.9395   36.0945   44.9287 H   0  0  0  0  0  0  0  0  0  0  0  0
   45.2716   35.8946   42.8024 H   0  0  0  0  0  0  0  0  0  0  0  0
   47.0742   34.1126   42.6758 H   0  0  0  0  0  0  0  0  0  0  0  0
  1  6  1  0
  1  2  2  0
  2  3  1  0
  3  4  2  0
  5  7  1  0
  5  4  1  0
  6  5  2  0
  7 17  1  0
  8  9  2  0
  8  7  1  0
  9 10  1  0
 10 17  2  0
 10 11  1  0
 11 13  1  0
 12 11  2  0
 13 14  1  0
 14 15  1  0
 16 14  2  0
 17 16  1  0
 18 23  2  0
 19 18  1  0
 20 19  2  0
 20 21  1  0
 21 22  2  0
 22 23  1  0
 22  1  1  0
  2 24  1  0
  3 25  1  0
  4 26  1  0
  8 27  1  0
 13 28  1  0
 15 29  1  0
 15 30  1  0
 18 31  1  0
 19 32  1  0
 20 33  1  0
M  ISO  8  24  14  25  14  26  14  27  14  28   9  31  14  32  14  33  14
M  END
>  <minimizedAffinity>  (1) 
-6.7965498

>  <minimizedRMSD>  (1) 
0.317981035

$$$$
