
     RDKit          3D

 33 35  0  0  0  0  0  0  0  0999 V2000
   46.1720   32.6820   47.0540 C   0  0  0  0  0  0  0  0  0  0  0  0
   45.0820   32.3260   47.8330 C   0  0  0  0  0  0  0  0  0  0  0  0
   45.2270   31.5520   48.9750 C   0  0  0  0  0  0  0  0  0  0  0  0
   46.5280   31.1660   49.2740 C   0  0  0  0  0  0  0  0  0  0  0  0
   47.6170   31.5060   48.5180 C   0  0  0  0  0  0  0  0  0  0  0  0
   47.3680   32.2520   47.4430 N   0  0  0  0  0  0  0  0  0  0  0  0
   48.9450   31.1120   48.8220 N   0  0  0  0  0  0  0  0  0  0  0  0
   49.8670   31.8420   49.6430 C   0  0  0  0  0  0  0  0  0  0  0  0
   50.6620   30.9820   50.5940 C   0  0  0  0  0  0  0  0  0  0  0  0
   50.9800   29.6800   50.1110 N   0  0  0  0  0  0  0  0  0  0  0  0
   49.8650   29.0170   49.4660 C   0  0  0  0  0  0  0  0  0  0  0  0
   49.4710   29.8750   48.2830 C   0  0  0  0  0  0  0  0  0  0  0  0
   44.8780   35.1940   44.7470 C   0  0  0  0  0  0  0  0  0  0  0  0
   45.6960   35.0430   43.6020 C   0  0  0  0  0  0  0  0  0  0  0  0
   46.6900   34.0740   43.6340 C   0  0  0  0  0  0  0  0  0  0  0  0
   46.8080   33.3340   44.7700 N   0  0  0  0  0  0  0  0  0  0  0  0
   46.0140   33.4950   45.8550 C   0  0  0  0  0  0  0  0  0  0  0  0
   45.0480   34.4330   45.8310 N   0  0  0  0  0  0  0  0  0  0  0  0
   44.0780   32.6654   47.5385 H   0  0  0  0  0  0  0  0  0  0  0  0
   44.3701   31.2633   49.6015 H   0  0  0  0  0  0  0  0  0  0  0  0
   46.6922   30.5510   50.1711 H   0  0  0  0  0  0  0  0  0  0  0  0
   50.5718   32.3706   48.9843 H   0  0  0  0  0  0  0  0  0  0  0  0
   49.2671   32.5261   50.2612 H   0  0  0  0  0  0  0  0  0  0  0  0
   51.6052   31.5025   50.8165 H   0  0  0  0  0  0  0  0  0  0  0  0
   50.0242   30.8331   51.4777 H   0  0  0  0  0  0  0  0  0  0  0  0
   51.7485   29.7631   49.4303 H   0  0  0  0  0  0  0  0  0  0  0  0
   50.1661   28.0158   49.1241 H   0  0  0  0  0  0  0  0  0  0  0  0
   49.0224   28.8940   50.1624 H   0  0  0  0  0  0  0  0  0  0  0  0
   48.7018   29.3650   47.6845 H   0  0  0  0  0  0  0  0  0  0  0  0
   50.3337   30.0646   47.6274 H   0  0  0  0  0  0  0  0  0  0  0  0
   44.0842   35.9555   44.7439 H   0  0  0  0  0  0  0  0  0  0  0  0
   45.5487   35.6744   42.7133 H   0  0  0  0  0  0  0  0  0  0  0  0
   47.3564   33.9108   42.7742 H   0  0  0  0  0  0  0  0  0  0  0  0
  1  6  1  0
  1  2  2  0
  2  3  1  0
  3  4  2  0
  5  7  1  0
  5  4  1  0
  6  5  2  0
  7  8  1  0
  8  9  1  0
 10  9  1  0
 11 10  1  0
 12  7  1  0
 12 11  1  0
 13 18  2  0
 14 15  2  0
 14 13  1  0
 15 16  1  0
 16 17  2  0
 17  1  1  0
 18 17  1  0
  2 19  1  0
  3 20  1  0
  4 21  1  0
  8 22  1  0
  8 23  1  0
  9 24  1  0
  9 25  1  0
 10 26  1  0
 11 27  1  0
 11 28  1  0
 12 29  1  0
 12 30  1  0
 13 31  1  0
 14 32  1  0
 15 33  1  0
M  ISO  8  19  14  20  14  21  14  22  13  23  13  24  13  25  13  26   5
M  ISO  7  27  13  28  13  29  13  30  13  31  14  32  14  33  14
M  END
>  <minimizedAffinity>  (1) 
-5.77197313

>  <minimizedRMSD>  (1) 
0.829725742

$$$$
