
     RDKit          3D

 29 31  0  0  0  0  0  0  0  0999 V2000
   46.0790   32.7120   47.0880 C   0  0  0  0  0  0  0  0  0  0  0  0
   45.0180   32.3550   47.8840 C   0  0  0  0  0  0  0  0  0  0  0  0
   45.1840   31.5660   49.0120 C   0  0  0  0  0  0  0  0  0  0  0  0
   46.4870   31.1720   49.2700 C   0  0  0  0  0  0  0  0  0  0  0  0
   47.5680   31.5080   48.4990 C   0  0  0  0  0  0  0  0  0  0  0  0
   47.2820   32.2730   47.4370 N   0  0  0  0  0  0  0  0  0  0  0  0
   44.7680   35.2850   44.8550 C   0  0  0  0  0  0  0  0  0  0  0  0
   45.5430   35.1440   43.6880 C   0  0  0  0  0  0  0  0  0  0  0  0
   46.5180   34.1550   43.6790 C   0  0  0  0  0  0  0  0  0  0  0  0
   46.6750   33.3760   44.7940 N   0  0  0  0  0  0  0  0  0  0  0  0
   45.9110   33.5430   45.8970 C   0  0  0  0  0  0  0  0  0  0  0  0
   44.9630   34.5000   45.9130 N   0  0  0  0  0  0  0  0  0  0  0  0
   48.9300   31.0900   48.7760 C   0  0  0  0  0  0  0  0  0  0  0  0
   49.8110   31.8210   49.5440 C   0  0  0  0  0  0  0  0  0  0  0  0
   51.0880   31.3440   49.7530 C   0  0  0  0  0  0  0  0  0  0  0  0
   51.5400   30.1530   49.2280 C   0  0  0  0  0  0  0  0  0  0  0  0
   50.6670   29.4280   48.4690 C   0  0  0  0  0  0  0  0  0  0  0  0
   49.3900   29.9040   48.2570 C   0  0  0  0  0  0  0  0  0  0  0  0
   44.0092   32.7046   47.6193 H   0  0  0  0  0  0  0  0  0  0  0  0
   44.3415   31.2738   49.6560 H   0  0  0  0  0  0  0  0  0  0  0  0
   46.6659   30.5454   50.1562 H   0  0  0  0  0  0  0  0  0  0  0  0
   43.9866   36.0583   44.8936 H   0  0  0  0  0  0  0  0  0  0  0  0
   45.3821   35.7936   42.8150 H   0  0  0  0  0  0  0  0  0  0  0  0
   47.1518   34.0005   42.7933 H   0  0  0  0  0  0  0  0  0  0  0  0
   49.4977   32.7779   49.9869 H   0  0  0  0  0  0  0  0  0  0  0  0
   51.7775   31.9419   50.3671 H   0  0  0  0  0  0  0  0  0  0  0  0
   52.5651   29.7998   49.4133 H   0  0  0  0  0  0  0  0  0  0  0  0
   50.9803   28.4697   48.0291 H   0  0  0  0  0  0  0  0  0  0  0  0
   48.7048   29.3033   47.6409 H   0  0  0  0  0  0  0  0  0  0  0  0
  1  6  1  0
  1  2  2  0
  2  3  1  0
  3  4  2  0
  5 13  1  0
  5  4  1  0
  6  5  2  0
  7 12  2  0
  8  7  1  0
  9  8  2  0
  9 10  1  0
 10 11  2  0
 11 12  1  0
 11  1  1  0
 13 14  2  0
 14 15  1  0
 16 15  2  0
 17 16  1  0
 18 17  2  0
 18 13  1  0
  2 19  1  0
  3 20  1  0
  4 21  1  0
  7 22  1  0
  8 23  1  0
  9 24  1  0
 14 25  1  0
 15 26  1  0
 16 27  1  0
 17 28  1  0
 18 29  1  0
M  ISO  8  19  14  20  14  21  14  22  14  23  14  24  14  25  14  26  14
M  ISO  3  27  14  28  14  29  14
M  END
>  <minimizedAffinity>  (1) 
-5.69126797

>  <minimizedRMSD>  (1) 
1.03095233

$$$$
