
     RDKit          3D

 26 27  0  0  0  0  0  0  0  0999 V2000
   46.0290   32.7850   46.9050 C   0  0  0  0  0  0  0  0  0  0  0  0
   45.1540   32.6320   47.9580 C   0  0  0  0  0  0  0  0  0  0  0  0
   45.3940   31.7730   49.0090 C   0  0  0  0  0  0  0  0  0  0  0  0
   46.5730   31.0720   48.9390 C   0  0  0  0  0  0  0  0  0  0  0  0
   47.4810   31.1940   47.9010 C   0  0  0  0  0  0  0  0  0  0  0  0
   47.1630   32.0580   46.9160 N   0  0  0  0  0  0  0  0  0  0  0  0
   48.6910   30.4500   47.8680 N   0  0  0  0  0  0  0  0  0  0  0  0
   49.4750   30.3510   49.0410 C   0  0  0  0  0  0  0  0  0  0  0  0
   48.9340   30.4170   50.2090 N   0  0  0  0  0  0  0  0  0  0  0  0
   50.8820   30.1780   48.9560 N   0  0  0  0  0  0  0  0  0  0  0  0
   49.4750   30.3490   51.0880 H   0  0  0  0  0  0  0  0  0  0  0  0
   44.5550   35.5260   45.0010 C   0  0  0  0  0  0  0  0  0  0  0  0
   45.2170   35.4340   43.7410 C   0  0  0  0  0  0  0  0  0  0  0  0
   46.1620   34.4310   43.5610 C   0  0  0  0  0  0  0  0  0  0  0  0
   46.4050   33.5860   44.6060 N   0  0  0  0  0  0  0  0  0  0  0  0
   45.7520   33.7000   45.8060 C   0  0  0  0  0  0  0  0  0  0  0  0
   44.8440   34.6610   45.9810 N   0  0  0  0  0  0  0  0  0  0  0  0
   44.2245   33.2202   47.9602 H   0  0  0  0  0  0  0  0  0  0  0  0
   44.6898   31.6570   49.8460 H   0  0  0  0  0  0  0  0  0  0  0  0
   46.8095   30.3732   49.7549 H   0  0  0  0  0  0  0  0  0  0  0  0
   48.9940   29.9876   46.9990 H   0  0  0  0  0  0  0  0  0  0  0  0
   51.4450   30.1069   49.8156 H   0  0  0  0  0  0  0  0  0  0  0  0
   51.3395   30.1237   48.0348 H   0  0  0  0  0  0  0  0  0  0  0  0
   43.8033   36.3115   45.1683 H   0  0  0  0  0  0  0  0  0  0  0  0
   44.9850   36.1406   42.9305 H   0  0  0  0  0  0  0  0  0  0  0  0
   46.6976   34.3211   42.6065 H   0  0  0  0  0  0  0  0  0  0  0  0
  1  6  1  0
  1  2  2  0
  2  3  1  0
  4  3  2  0
  5  4  1  0
  6  5  2  0
  7  5  1  0
  7  8  1  0
  8  9  2  0
  9 11  1  0
 10  8  1  0
 12 17  2  0
 13 12  1  0
 14 13  2  0
 14 15  1  0
 15 16  2  0
 16 17  1  0
 16  1  1  0
  2 18  1  0
  3 19  1  0
  4 20  1  0
  7 21  1  0
 10 22  1  0
 10 23  1  0
 12 24  1  0
 13 25  1  0
 14 26  1  0
M  ISO  6  18  14  19  14  20  14  24  14  25  14  26  14
M  END
>  <minimizedAffinity>  (1) 
-5.68415356

>  <minimizedRMSD>  (1) 
0.191165537

$$$$
