
     RDKit          3D

 32 34  0  0  0  0  0  0  0  0999 V2000
   46.1380   32.6670   47.0610 C   0  0  0  0  0  0  0  0  0  0  0  0
   45.0550   32.3920   47.8710 C   0  0  0  0  0  0  0  0  0  0  0  0
   45.1450   31.6260   49.0210 C   0  0  0  0  0  0  0  0  0  0  0  0
   46.4040   31.1570   49.2970 C   0  0  0  0  0  0  0  0  0  0  0  0
   47.5090   31.4040   48.5240 C   0  0  0  0  0  0  0  0  0  0  0  0
   47.3100   32.1590   47.4300 N   0  0  0  0  0  0  0  0  0  0  0  0
   48.8250   30.9620   48.7390 N   0  0  0  0  0  0  0  0  0  0  0  0
   49.3740   29.7280   48.2340 C   0  0  0  0  0  0  0  0  0  0  0  0
   50.5360   29.3040   49.1110 C   0  0  0  0  0  0  0  0  0  0  0  0
   50.1420   29.4680   50.4360 O   0  0  0  0  0  0  0  0  0  0  0  0
   50.1910   30.8310   50.7220 C   0  0  0  0  0  0  0  0  0  0  0  0
   49.8460   31.6600   49.4940 C   0  0  0  0  0  0  0  0  0  0  0  0
   44.9210   35.1670   44.7170 C   0  0  0  0  0  0  0  0  0  0  0  0
   45.7500   35.0180   43.5890 C   0  0  0  0  0  0  0  0  0  0  0  0
   46.7340   34.0410   43.6540 C   0  0  0  0  0  0  0  0  0  0  0  0
   46.8320   33.2980   44.7920 N   0  0  0  0  0  0  0  0  0  0  0  0
   46.0100   33.4760   45.8560 C   0  0  0  0  0  0  0  0  0  0  0  0
   45.0650   34.4120   45.8010 N   0  0  0  0  0  0  0  0  0  0  0  0
   44.0734   32.8009   47.5896 H   0  0  0  0  0  0  0  0  0  0  0  0
   44.2769   31.4110   49.6615 H   0  0  0  0  0  0  0  0  0  0  0  0
   46.5360   30.5414   50.1990 H   0  0  0  0  0  0  0  0  0  0  0  0
   48.5989   28.9476   48.2475 H   0  0  0  0  0  0  0  0  0  0  0  0
   49.7241   29.8742   47.2015 H   0  0  0  0  0  0  0  0  0  0  0  0
   50.7847   28.2495   48.9209 H   0  0  0  0  0  0  0  0  0  0  0  0
   51.4270   29.9114   48.8938 H   0  0  0  0  0  0  0  0  0  0  0  0
   49.4705   31.0565   51.5220 H   0  0  0  0  0  0  0  0  0  0  0  0
   51.2129   31.0852   51.0399 H   0  0  0  0  0  0  0  0  0  0  0  0
   50.7431   31.7914   48.8712 H   0  0  0  0  0  0  0  0  0  0  0  0
   49.4773   32.6503   49.7997 H   0  0  0  0  0  0  0  0  0  0  0  0
   44.1302   35.9314   44.7006 H   0  0  0  0  0  0  0  0  0  0  0  0
   45.6237   35.6477   42.6959 H   0  0  0  0  0  0  0  0  0  0  0  0
   47.4170   33.8710   42.8086 H   0  0  0  0  0  0  0  0  0  0  0  0
  1  6  1  0
  1  2  2  0
  2  3  1  0
  3  4  2  0
  5  7  1  0
  5  4  1  0
  6  5  2  0
  7 12  1  0
  8  7  1  0
  8  9  1  0
  9 10  1  0
 10 11  1  0
 12 11  1  0
 13 18  2  0
 14 15  2  0
 14 13  1  0
 15 16  1  0
 16 17  2  0
 17  1  1  0
 18 17  1  0
  2 19  1  0
  3 20  1  0
  4 21  1  0
  8 22  1  0
  8 23  1  0
  9 24  1  0
  9 25  1  0
 11 26  1  0
 11 27  1  0
 12 28  1  0
 12 29  1  0
 13 30  1  0
 14 31  1  0
 15 32  1  0
M  ISO  8  19  14  20  14  21  14  22  13  23  13  24  13  25  13  26  13
M  ISO  6  27  13  28  13  29  13  30  14  31  14  32  14
M  END
>  <minimizedAffinity>  (1) 
-5.86414337

>  <minimizedRMSD>  (1) 
0.778968096

$$$$
