
     RDKit          3D

 25 27  0  0  0  0  0  0  0  0999 V2000
   46.0430   32.7230   47.0900 C   0  0  0  0  0  0  0  0  0  0  0  0
   44.9480   32.2310   47.8020 C   0  0  0  0  0  0  0  0  0  0  0  0
   45.1370   31.4380   48.9340 C   0  0  0  0  0  0  0  0  0  0  0  0
   46.4360   31.1770   49.2970 C   0  0  0  0  0  0  0  0  0  0  0  0
   47.5110   31.6510   48.6090 C   0  0  0  0  0  0  0  0  0  0  0  0
   47.2500   32.4020   47.5390 N   0  0  0  0  0  0  0  0  0  0  0  0
   44.7340   35.3200   44.8910 C   0  0  0  0  0  0  0  0  0  0  0  0
   45.5010   35.1870   43.7190 C   0  0  0  0  0  0  0  0  0  0  0  0
   46.4860   34.1810   43.6880 C   0  0  0  0  0  0  0  0  0  0  0  0
   46.6430   33.3910   44.7970 N   0  0  0  0  0  0  0  0  0  0  0  0
   45.8820   33.5590   45.9020 C   0  0  0  0  0  0  0  0  0  0  0  0
   44.9390   34.5200   45.9330 N   0  0  0  0  0  0  0  0  0  0  0  0
   48.8910   31.4110   48.9530 C   0  0  0  0  0  0  0  0  0  0  0  0
   49.6170   30.2190   48.6250 C   0  0  0  0  0  0  0  0  0  0  0  0
   51.2910   30.5850   49.3510 S   0  0  0  0  0  0  0  0  0  0  0  0
   50.8010   32.2990   50.0030 C   0  0  0  0  0  0  0  0  0  0  0  0
   49.8090   31.8970   49.4860 N   0  0  0  0  0  0  0  0  0  0  0  0
   43.9277   32.4705   47.4678 H   0  0  0  0  0  0  0  0  0  0  0  0
   44.2870   31.0409   49.5082 H   0  0  0  0  0  0  0  0  0  0  0  0
   46.6162   30.5552   50.1863 H   0  0  0  0  0  0  0  0  0  0  0  0
   43.9554   36.0951   44.9459 H   0  0  0  0  0  0  0  0  0  0  0  0
   45.3366   35.8475   42.8548 H   0  0  0  0  0  0  0  0  0  0  0  0
   47.1133   34.0330   42.7966 H   0  0  0  0  0  0  0  0  0  0  0  0
   49.2745   29.3234   48.0859 H   0  0  0  0  0  0  0  0  0  0  0  0
   51.2037   33.1662   50.5469 H   0  0  0  0  0  0  0  0  0  0  0  0
  1  6  1  0
  1  2  2  0
  2  3  1  0
  3  4  2  0
  5 13  1  0
  5  4  1  0
  6  5  2  0
  7 12  2  0
  8  7  1  0
  9  8  2  0
  9 10  1  0
 10 11  2  0
 11 12  1  0
 11  1  1  0
 13 17  1  0
 14 13  2  0
 14 15  1  0
 15 16  1  0
 17 16  2  0
  2 18  1  0
  3 19  1  0
  4 20  1  0
  7 21  1  0
  8 22  1  0
  9 23  1  0
 14 24  1  0
 16 25  1  0
M  ISO  8  18  14  19  14  20  14  21  14  22  14  23  14  24  14  25  14
M  END
>  <minimizedAffinity>  (1) 
-5.47058582

>  <minimizedRMSD>  (1) 
0.995912075

$$$$
