
     RDKit          3D

 26 28  0  0  0  0  0  0  0  0999 V2000
   46.0750   32.7100   47.0730 C   0  0  0  0  0  0  0  0  0  0  0  0
   45.0220   32.3160   47.8700 C   0  0  0  0  0  0  0  0  0  0  0  0
   45.1450   31.5150   48.9840 C   0  0  0  0  0  0  0  0  0  0  0  0
   46.4370   31.1330   49.2370 C   0  0  0  0  0  0  0  0  0  0  0  0
   47.5440   31.4930   48.4770 C   0  0  0  0  0  0  0  0  0  0  0  0
   47.2970   32.2770   47.4170 N   0  0  0  0  0  0  0  0  0  0  0  0
   48.8630   31.0640   48.7930 N   0  0  0  0  0  0  0  0  0  0  0  0
   49.7500   31.7950   49.4910 C   0  0  0  0  0  0  0  0  0  0  0  0
   50.8880   31.0020   49.5620 C   0  0  0  0  0  0  0  0  0  0  0  0
   50.6310   29.8550   48.9120 N   0  0  0  0  0  0  0  0  0  0  0  0
   49.3820   29.8610   48.4220 C   0  0  0  0  0  0  0  0  0  0  0  0
   44.7390   35.3070   44.9000 C   0  0  0  0  0  0  0  0  0  0  0  0
   45.5160   35.1700   43.7090 C   0  0  0  0  0  0  0  0  0  0  0  0
   46.4910   34.1800   43.6730 C   0  0  0  0  0  0  0  0  0  0  0  0
   46.6480   33.4000   44.7770 N   0  0  0  0  0  0  0  0  0  0  0  0
   45.8850   33.5600   45.9040 C   0  0  0  0  0  0  0  0  0  0  0  0
   44.9460   34.5090   45.9470 N   0  0  0  0  0  0  0  0  0  0  0  0
   44.0148   32.6648   47.5981 H   0  0  0  0  0  0  0  0  0  0  0  0
   44.2915   31.2121   49.6083 H   0  0  0  0  0  0  0  0  0  0  0  0
   46.6119   30.4897   50.1120 H   0  0  0  0  0  0  0  0  0  0  0  0
   49.6059   32.8005   49.9131 H   0  0  0  0  0  0  0  0  0  0  0  0
   51.8317   31.2662   50.0616 H   0  0  0  0  0  0  0  0  0  0  0  0
   48.8851   29.0666   47.8457 H   0  0  0  0  0  0  0  0  0  0  0  0
   43.9596   36.0814   44.9535 H   0  0  0  0  0  0  0  0  0  0  0  0
   45.3474   35.8294   42.8448 H   0  0  0  0  0  0  0  0  0  0  0  0
   47.1161   34.0317   42.7801 H   0  0  0  0  0  0  0  0  0  0  0  0
  1  6  1  0
  1  2  2  0
  2  3  1  0
  3  4  2  0
  5  7  1  0
  5  4  1  0
  6  5  2  0
  7  8  1  0
  8  9  2  0
 10  9  1  0
 11  7  1  0
 11 10  2  0
 12 17  2  0
 13 12  1  0
 14 13  2  0
 14 15  1  0
 15 16  2  0
 16 17  1  0
 16  1  1  0
  2 18  1  0
  3 19  1  0
  4 20  1  0
  8 21  1  0
  9 22  1  0
 11 23  1  0
 12 24  1  0
 13 25  1  0
 14 26  1  0
M  ISO  8  18  14  19  14  20  14  21  14  22  14  23  14  24  14  25  14
M  ISO  1  26  14
M  END
>  <minimizedAffinity>  (1) 
-5.58815098

>  <minimizedRMSD>  (1) 
0.694380999

$$$$
