
     RDKit          3D

 26 28  0  0  0  0  0  0  0  0999 V2000
   46.0770   32.7370   47.0740 C   0  0  0  0  0  0  0  0  0  0  0  0
   45.0060   32.3290   47.8610 C   0  0  0  0  0  0  0  0  0  0  0  0
   45.1580   31.5470   48.9840 C   0  0  0  0  0  0  0  0  0  0  0  0
   46.4520   31.1980   49.2700 C   0  0  0  0  0  0  0  0  0  0  0  0
   47.5450   31.5770   48.5200 C   0  0  0  0  0  0  0  0  0  0  0  0
   47.3100   32.3360   47.4470 N   0  0  0  0  0  0  0  0  0  0  0  0
   44.7590   35.2970   44.8510 C   0  0  0  0  0  0  0  0  0  0  0  0
   45.5530   35.1390   43.6740 C   0  0  0  0  0  0  0  0  0  0  0  0
   46.5290   34.1540   43.6600 C   0  0  0  0  0  0  0  0  0  0  0  0
   46.6560   33.4050   44.7830 N   0  0  0  0  0  0  0  0  0  0  0  0
   45.8970   33.5680   45.8880 C   0  0  0  0  0  0  0  0  0  0  0  0
   44.9510   34.5140   45.9160 N   0  0  0  0  0  0  0  0  0  0  0  0
   48.8960   31.1640   48.8910 C   0  0  0  0  0  0  0  0  0  0  0  0
   49.4150   29.9040   48.6670 C   0  0  0  0  0  0  0  0  0  0  0  0
   50.6980   30.0030   49.1820 C   0  0  0  0  0  0  0  0  0  0  0  0
   50.9360   31.2500   49.6870 N   0  0  0  0  0  0  0  0  0  0  0  0
   49.8050   31.9480   49.4950 N   0  0  0  0  0  0  0  0  0  0  0  0
   43.9923   32.6449   47.5738 H   0  0  0  0  0  0  0  0  0  0  0  0
   44.3070   31.2273   49.6034 H   0  0  0  0  0  0  0  0  0  0  0  0
   46.6306   30.5734   50.1577 H   0  0  0  0  0  0  0  0  0  0  0  0
   43.9799   36.0730   44.8806 H   0  0  0  0  0  0  0  0  0  0  0  0
   45.3937   35.7847   42.7978 H   0  0  0  0  0  0  0  0  0  0  0  0
   47.1689   33.9884   42.7807 H   0  0  0  0  0  0  0  0  0  0  0  0
   48.9300   29.0362   48.1962 H   0  0  0  0  0  0  0  0  0  0  0  0
   51.4308   29.1826   49.1839 H   0  0  0  0  0  0  0  0  0  0  0  0
   51.8053   31.5861   50.1254 H   0  0  0  0  0  0  0  0  0  0  0  0
  1  6  1  0
  1  2  2  0
  2  3  1  0
  3  4  2  0
  5 13  1  0
  5  4  1  0
  6  5  2  0
  7 12  2  0
  8  7  1  0
  9  8  2  0
  9 10  1  0
 10 11  2  0
 11 12  1  0
 11  1  1  0
 13 17  2  0
 14 13  1  0
 14 15  2  0
 15 16  1  0
 17 16  1  0
  2 18  1  0
  3 19  1  0
  4 20  1  0
  7 21  1  0
  8 22  1  0
  9 23  1  0
 14 24  1  0
 15 25  1  0
 16 26  1  0
M  ISO  8  18  14  19  14  20  14  21  14  22  14  23  14  24  14  25  14
M  ISO  1  26   9
M  END
>  <minimizedAffinity>  (1) 
-5.37005663

>  <minimizedRMSD>  (1) 
0.846266389

$$$$
