
     RDKit          3D

 28 29  0  0  0  0  0  0  0  0999 V2000
   46.0810   32.7250   47.0110 C   0  0  0  0  0  0  0  0  0  0  0  0
   45.0590   32.4910   47.9060 C   0  0  0  0  0  0  0  0  0  0  0  0
   45.2260   31.6770   49.0190 C   0  0  0  0  0  0  0  0  0  0  0  0
   46.4800   31.1230   49.1620 C   0  0  0  0  0  0  0  0  0  0  0  0
   47.5260   31.3400   48.2780 C   0  0  0  0  0  0  0  0  0  0  0  0
   47.2630   32.1410   47.2370 N   0  0  0  0  0  0  0  0  0  0  0  0
   44.7130   35.3530   44.8670 C   0  0  0  0  0  0  0  0  0  0  0  0
   45.4710   35.2310   43.6810 C   0  0  0  0  0  0  0  0  0  0  0  0
   46.4560   34.2390   43.6230 C   0  0  0  0  0  0  0  0  0  0  0  0
   46.6340   33.4370   44.7220 N   0  0  0  0  0  0  0  0  0  0  0  0
   45.8840   33.5870   45.8440 C   0  0  0  0  0  0  0  0  0  0  0  0
   44.9530   34.5340   45.8820 N   0  0  0  0  0  0  0  0  0  0  0  0
   48.8650   30.7440   48.4390 C   0  0  0  0  0  0  0  0  0  0  0  0
   49.2290   30.5310   49.8910 C   0  0  0  0  0  0  0  0  0  0  0  0
   48.8340   29.3820   47.7470 C   0  0  0  0  0  0  0  0  0  0  0  0
   44.0808   32.9636   47.7334 H   0  0  0  0  0  0  0  0  0  0  0  0
   44.4140   31.4876   49.7364 H   0  0  0  0  0  0  0  0  0  0  0  0
   46.6617   30.4702   50.0285 H   0  0  0  0  0  0  0  0  0  0  0  0
   43.9299   36.1213   44.9478 H   0  0  0  0  0  0  0  0  0  0  0  0
   45.2914   35.8986   42.8254 H   0  0  0  0  0  0  0  0  0  0  0  0
   47.0710   34.1057   42.7208 H   0  0  0  0  0  0  0  0  0  0  0  0
   49.6118   31.4260   48.0065 H   0  0  0  0  0  0  0  0  0  0  0  0
   48.4577   30.9823   50.5324 H   0  0  0  0  0  0  0  0  0  0  0  0
   49.2935   29.4527   50.0985 H   0  0  0  0  0  0  0  0  0  0  0  0
   50.2007   31.0030   50.0985 H   0  0  0  0  0  0  0  0  0  0  0  0
   48.8159   28.5856   48.5056 H   0  0  0  0  0  0  0  0  0  0  0  0
   47.9340   29.3104   47.1186 H   0  0  0  0  0  0  0  0  0  0  0  0
   49.7298   29.2695   47.1186 H   0  0  0  0  0  0  0  0  0  0  0  0
  1  6  1  0
  1  2  2  0
  2  3  1  0
  3  4  2  0
  5 13  1  0
  5  4  1  0
  6  5  2  0
  7 12  2  0
  8  7  1  0
  9  8  2  0
  9 10  1  0
 10 11  2  0
 11 12  1  0
 11  1  1  0
 13 14  1  0
 15 13  1  0
  2 16  1  0
  3 17  1  0
  4 18  1  0
  7 19  1  0
  8 20  1  0
  9 21  1  0
 13 22  1  0
 14 23  1  0
 14 24  1  0
 14 25  1  0
 15 26  1  0
 15 27  1  0
 15 28  1  0
M  ISO  8  16  14  17  14  18  14  19  14  20  14  21  14  22   8  23   8
M  ISO  5  24   8  25   8  26   8  27   8  28   8
M  END
>  <minimizedAffinity>  (1) 
-5.04596186

>  <minimizedRMSD>  (1) 
0.332313865

$$$$
