
     RDKit          3D

 26 28  0  0  0  0  0  0  0  0999 V2000
   46.0800   32.7080   47.0680 C   0  0  0  0  0  0  0  0  0  0  0  0
   45.0420   32.4070   47.9140 C   0  0  0  0  0  0  0  0  0  0  0  0
   45.1990   31.6080   49.0360 C   0  0  0  0  0  0  0  0  0  0  0  0
   46.4740   31.1380   49.2390 C   0  0  0  0  0  0  0  0  0  0  0  0
   47.5380   31.4170   48.4160 C   0  0  0  0  0  0  0  0  0  0  0  0
   47.2920   32.1960   47.3580 N   0  0  0  0  0  0  0  0  0  0  0  0
   44.7670   35.2880   44.8600 C   0  0  0  0  0  0  0  0  0  0  0  0
   45.5300   35.1630   43.6860 C   0  0  0  0  0  0  0  0  0  0  0  0
   46.5040   34.1740   43.6660 C   0  0  0  0  0  0  0  0  0  0  0  0
   46.6550   33.3980   44.7790 N   0  0  0  0  0  0  0  0  0  0  0  0
   45.8990   33.5510   45.8920 C   0  0  0  0  0  0  0  0  0  0  0  0
   44.9480   34.5010   45.9350 N   0  0  0  0  0  0  0  0  0  0  0  0
   48.9230   30.9170   48.6220 C   0  0  0  0  0  0  0  0  0  0  0  0
   49.3340   30.4300   49.9790 C   0  0  0  0  0  0  0  0  0  0  0  0
   49.7890   31.7680   49.5480 C   0  0  0  0  0  0  0  0  0  0  0  0
   44.0452   32.8163   47.6928 H   0  0  0  0  0  0  0  0  0  0  0  0
   44.3656   31.3684   49.7127 H   0  0  0  0  0  0  0  0  0  0  0  0
   46.6541   30.4982   50.1155 H   0  0  0  0  0  0  0  0  0  0  0  0
   43.9879   36.0635   44.9010 H   0  0  0  0  0  0  0  0  0  0  0  0
   45.3625   35.8206   42.8203 H   0  0  0  0  0  0  0  0  0  0  0  0
   47.1359   34.0200   42.7789 H   0  0  0  0  0  0  0  0  0  0  0  0
   48.9897   30.4968   47.6076 H   0  0  0  0  0  0  0  0  0  0  0  0
   48.5821   30.3407   50.7770 H   0  0  0  0  0  0  0  0  0  0  0  0
   49.8438   29.5282   50.3489 H   0  0  0  0  0  0  0  0  0  0  0  0
   50.8490   31.9381   49.3081 H   0  0  0  0  0  0  0  0  0  0  0  0
   49.7202   32.7848   49.9621 H   0  0  0  0  0  0  0  0  0  0  0  0
  1  6  1  0
  1  2  2  0
  2  3  1  0
  3  4  2  0
  5 13  1  0
  5  4  1  0
  6  5  2  0
  7 12  2  0
  8  7  1  0
  9  8  2  0
  9 10  1  0
 10 11  2  0
 11 12  1  0
 11  1  1  0
 13 15  1  0
 13 14  1  0
 15 14  1  0
  2 16  1  0
  3 17  1  0
  4 18  1  0
  7 19  1  0
  8 20  1  0
  9 21  1  0
 13 22  1  0
 14 23  1  0
 14 24  1  0
 15 25  1  0
 15 26  1  0
M  ISO  8  16  14  17  14  18  14  19  14  20  14  21  14  22  13  23  13
M  ISO  3  24  13  25  13  26  13
M  END
>  <minimizedAffinity>  (1) 
-5.24979544

>  <minimizedRMSD>  (1) 
0.573569059

$$$$
