
     RDKit          3D

 37 40  0  0  1  0  0  0  0  0999 V2000
   45.9240   32.7070   46.9380 C   0  0  0  0  0  0  0  0  0  0  0  0
   45.1320   32.6550   48.0530 C   0  0  0  0  0  0  0  0  0  0  0  0
   45.3100   31.7770   49.0920 C   0  0  0  0  0  0  0  0  0  0  0  0
   46.3610   30.9250   48.9440 C   0  0  0  0  0  0  0  0  0  0  0  0
   47.1910   30.9150   47.8750 C   0  0  0  0  0  0  0  0  0  0  0  0
   46.9100   31.8200   46.9300 N   0  0  0  0  0  0  0  0  0  0  0  0
   48.2250   30.0450   47.4550 C   0  0  0  0  0  0  0  0  0  0  0  0
   49.1200   29.2910   47.0910 N   0  0  0  0  0  0  0  0  0  0  0  0
   49.8570   28.4590   46.5690 C   0  0  0  0  0  0  0  0  0  0  0  0
   50.8020   28.8370   47.4360 N   0  0  0  0  0  0  0  0  0  0  0  0
   50.5720   29.8130   48.3540 C   0  0  0  0  0  0  0  0  0  0  0  0
   51.7060   30.1330   49.1610 C   0  0  0  0  0  0  0  0  0  0  0  0
   51.5250   31.1590   50.0480 C   0  0  0  0  0  0  0  0  0  0  0  0
   50.3870   31.8800   50.2230 C   0  0  0  0  0  0  0  0  0  0  0  0
   49.3810   31.4560   49.3770 C   0  0  0  0  0  0  0  0  0  0  0  0
   49.2860   30.4280   48.3740 C   0  0  0  0  0  0  0  0  0  0  0  0
   44.5790   35.5150   45.0610 C   0  0  0  0  0  0  0  0  0  0  0  0
   45.2680   35.4290   43.8180 C   0  0  0  0  0  0  0  0  0  0  0  0
   46.2000   34.3870   43.6430 C   0  0  0  0  0  0  0  0  0  0  0  0
   46.3930   33.5150   44.6790 N   0  0  0  0  0  0  0  0  0  0  0  0
   45.6940   33.6520   45.8570 C   0  0  0  0  0  0  0  0  0  0  0  0
   44.8070   34.6340   46.0400 N   0  0  0  0  0  0  0  0  0  0  0  0
   44.2954   33.3660   48.1207 H   0  0  0  0  0  0  0  0  0  0  0  0
   44.6547   31.7627   49.9754 H   0  0  0  0  0  0  0  0  0  0  0  0
   46.5483   30.1962   49.7464 H   0  0  0  0  0  0  0  0  0  0  0  0
   48.5721   30.8036   46.7381 H   0  0  0  0  0  0  0  0  0  0  0  0
   49.7851   30.0621   46.9360 H   0  0  0  0  0  0  0  0  0  0  0  0
   49.5232   27.4168   46.6800 H   0  0  0  0  0  0  0  0  0  0  0  0
   50.0388   28.4472   45.4842 H   0  0  0  0  0  0  0  0  0  0  0  0
   51.7241   28.3789   47.4078 H   0  0  0  0  0  0  0  0  0  0  0  0
   52.6597   29.5917   49.0753 H   0  0  0  0  0  0  0  0  0  0  0  0
   52.3843   31.4259   50.6808 H   0  0  0  0  0  0  0  0  0  0  0  0
   50.2800   32.6998   50.9485 H   0  0  0  0  0  0  0  0  0  0  0  0
   48.4494   32.0287   49.4955 H   0  0  0  0  0  0  0  0  0  0  0  0
   43.8464   36.3203   45.2184 H   0  0  0  0  0  0  0  0  0  0  0  0
   45.0777   36.1569   43.0155 H   0  0  0  0  0  0  0  0  0  0  0  0
   46.7564   34.2779   42.7004 H   0  0  0  0  0  0  0  0  0  0  0  0
  1  2  2  0
  2  3  1  0
  4  3  2  0
  5  4  1  0
  6  1  1  0
  6  5  2  0
  7  5  1  0
  7 16  1  0
  8  7  1  0
  9  8  1  0
  9 10  1  0
 10 11  1  0
 11 16  2  0
 11 12  1  0
 12 13  2  0
 13 14  1  0
 15 14  2  0
 16 15  1  0
 17 22  2  0
 18 17  1  0
 19 18  2  0
 19 20  1  0
 20 21  2  0
 21 22  1  0
 21  1  1  0
  2 23  1  0
  3 24  1  0
  4 25  1  0
  7 26  1  0
  8 27  1  0
  9 28  1  0
  9 29  1  0
 10 30  1  0
 12 31  1  0
 13 32  1  0
 14 33  1  0
 15 34  1  0
 17 35  1  0
 18 36  1  0
 19 37  1  0
M  ISO  8  23  14  24  14  25  14  26  13  27   5  28  13  29  13  31  14
M  ISO  6  32  14  33  14  34  14  35  14  36  14  37  14
M  END
>  <minimizedAffinity>  (1) 
-6.13460588

>  <minimizedRMSD>  (1) 
0.933181047

$$$$
