
     RDKit          3D

 27 28  0  0  1  0  0  0  0  0999 V2000
   44.5940   35.3890   45.5880 C   0  0  0  0  0  0  0  0  0  0  0  0
   44.4840   35.8690   44.2860 C   0  0  0  0  0  0  0  0  0  0  0  0
   45.0640   35.1120   43.2630 C   0  0  0  0  0  0  0  0  0  0  0  0
   45.6930   33.9670   43.5890 N   0  0  0  0  0  0  0  0  0  0  0  0
   45.7890   33.5150   44.8790 C   0  0  0  0  0  0  0  0  0  0  0  0
   45.2390   34.2280   45.8530 N   0  0  0  0  0  0  0  0  0  0  0  0
   46.4540   32.3120   45.2170 N   0  0  0  0  0  0  0  0  0  0  0  0
   47.3150   31.8290   44.3000 C   0  0  0  0  0  0  0  0  0  0  0  0
   47.8350   30.6670   44.8560 C   0  0  0  0  0  0  0  0  0  0  0  0
   47.2850   30.4750   46.0820 N   0  0  0  0  0  0  0  0  0  0  0  0
   46.4390   31.4890   46.2940 C   0  0  0  0  0  0  0  0  0  0  0  0
   45.6020   31.7050   47.4810 C   0  0  2  0  0  0  0  0  0  0  0  0
   46.5730   32.0520   48.6270 C   0  0  0  0  0  0  0  0  0  0  0  0
   44.9130   30.4230   47.8720 C   0  0  0  0  0  0  0  0  0  0  0  0
   44.3690   29.7550   46.8000 O   0  0  0  0  0  0  0  0  0  0  0  0
   44.1498   35.9621   46.4152 H   0  0  0  0  0  0  0  0  0  0  0  0
   43.9591   36.8111   44.0693 H   0  0  0  0  0  0  0  0  0  0  0  0
   45.0076   35.4444   42.2160 H   0  0  0  0  0  0  0  0  0  0  0  0
   47.5554   32.2632   43.3183 H   0  0  0  0  0  0  0  0  0  0  0  0
   48.5747   30.0075   44.3787 H   0  0  0  0  0  0  0  0  0  0  0  0
   44.8520   32.4853   47.2846 H   0  0  0  0  0  0  0  0  0  0  0  0
   46.0780   31.8751   49.5932 H   0  0  0  0  0  0  0  0  0  0  0  0
   47.4692   31.4185   48.5527 H   0  0  0  0  0  0  0  0  0  0  0  0
   46.8647   33.1100   48.5527 H   0  0  0  0  0  0  0  0  0  0  0  0
   45.6478   29.7648   48.3586 H   0  0  0  0  0  0  0  0  0  0  0  0
   44.0864   30.6874   48.5479 H   0  0  0  0  0  0  0  0  0  0  0  0
   43.7790   29.0306   47.1275 H   0  0  0  0  0  0  0  0  0  0  0  0
  1  6  2  0
  2  1  1  0
  3  4  1  0
  3  2  2  0
  4  5  2  0
  5  7  1  0
  5  6  1  0
  7 11  1  0
  8  9  2  0
  8  7  1  0
  9 10  1  0
 10 11  2  0
 11 12  1  0
 12 14  1  0
 12 13  1  0
 15 14  1  0
  1 16  1  0
  2 17  1  0
  3 18  1  0
  8 19  1  0
  9 20  1  0
 12 21  1  6
 13 22  1  0
 13 23  1  0
 13 24  1  0
 14 25  1  0
 14 26  1  0
 15 27  1  0
M  ISO  8  16  14  17  14  18  14  19  14  20  14  21   8  22   8  23   8
M  ISO  4  24   8  25   8  26   8  27   3
M  END
>  <minimizedAffinity>  (1) 
-4.35450554

>  <minimizedRMSD>  (1) 
0.206827462

$$$$
