
     RDKit          3D

 41 44  0  0  1  0  0  0  0  0999 V2000
   44.8060   33.7100   40.9870 N   0  0  0  0  0  0  0  0  0  0  0  0
   43.5930   34.4260   40.5860 C   0  0  0  0  0  0  0  0  0  0  0  0
   42.4370   34.1190   41.5000 C   0  0  0  0  0  0  0  0  0  0  0  0
   42.2310   32.6780   41.4710 N   0  0  0  0  0  0  0  0  0  0  0  0
   43.3730   32.1150   42.1770 C   0  0  0  0  0  0  0  0  0  0  0  0
   44.6940   32.3510   41.4890 C   0  0  1  0  0  0  0  0  0  0  0  0
   46.6530   34.7930   42.0750 C   0  0  0  0  0  0  0  0  0  0  0  0
   47.9510   35.2560   42.0170 C   0  0  0  0  0  0  0  0  0  0  0  0
   48.7370   35.1330   40.8660 C   0  0  0  0  0  0  0  0  0  0  0  0
   48.1820   34.5170   39.7280 C   0  0  0  0  0  0  0  0  0  0  0  0
   46.8910   34.0600   39.7950 C   0  0  0  0  0  0  0  0  0  0  0  0
   46.1670   34.2040   40.9440 C   0  0  0  0  0  0  0  0  0  0  0  0
   44.4490   36.1250   44.8160 C   0  0  0  0  0  0  0  0  0  0  0  0
   45.0940   36.0600   43.5680 C   0  0  0  0  0  0  0  0  0  0  0  0
   45.9360   34.9730   43.3150 C   0  0  0  0  0  0  0  0  0  0  0  0
   46.1010   34.0250   44.2720 N   0  0  0  0  0  0  0  0  0  0  0  0
   45.4490   34.1390   45.4680 C   0  0  0  0  0  0  0  0  0  0  0  0
   44.6330   35.1830   45.7280 N   0  0  0  0  0  0  0  0  0  0  0  0
   44.9140   31.3700   40.4360 N   0  0  0  0  0  0  0  0  0  0  0  0
   45.6430   30.2830   40.4390 N   0  0  0  0  0  0  0  0  0  0  0  0
   45.5920   29.6360   39.2720 C   0  0  0  0  0  0  0  0  0  0  0  0
   44.7610   30.3610   38.4370 C   0  0  0  0  0  0  0  0  0  0  0  0
   44.3530   31.4420   39.1980 C   0  0  0  0  0  0  0  0  0  0  0  0
   43.7919   35.5075   40.6138 H   0  0  0  0  0  0  0  0  0  0  0  0
   43.3228   34.1007   39.5705 H   0  0  0  0  0  0  0  0  0  0  0  0
   42.6705   34.4451   42.5243 H   0  0  0  0  0  0  0  0  0  0  0  0
   41.5303   34.6480   41.1713 H   0  0  0  0  0  0  0  0  0  0  0  0
   41.3528   32.4290   41.9481 H   0  0  0  0  0  0  0  0  0  0  0  0
   43.4184   32.5676   43.1785 H   0  0  0  0  0  0  0  0  0  0  0  0
   43.2214   31.0261   42.2120 H   0  0  0  0  0  0  0  0  0  0  0  0
   45.4878   32.2224   42.2396 H   0  0  0  0  0  0  0  0  0  0  0  0
   48.3830   35.7385   42.9061 H   0  0  0  0  0  0  0  0  0  0  0  0
   49.7700   35.5108   40.8504 H   0  0  0  0  0  0  0  0  0  0  0  0
   48.7710   34.4049   38.8058 H   0  0  0  0  0  0  0  0  0  0  0  0
   46.4361   33.5749   38.9188 H   0  0  0  0  0  0  0  0  0  0  0  0
   43.7818   36.9710   45.0377 H   0  0  0  0  0  0  0  0  0  0  0  0
   44.9401   36.8434   42.8112 H   0  0  0  0  0  0  0  0  0  0  0  0
   45.5921   33.3637   46.2351 H   0  0  0  0  0  0  0  0  0  0  0  0
   46.1137   28.7006   39.0213 H   0  0  0  0  0  0  0  0  0  0  0  0
   44.4854   30.1293   37.3976 H   0  0  0  0  0  0  0  0  0  0  0  0
   43.6774   32.2392   38.8545 H   0  0  0  0  0  0  0  0  0  0  0  0
  1  6  1  0
  2  1  1  0
  2  3  1  0
  4  3  1  0
  4  5  1  0
  6  5  1  0
  7 15  1  0
  8  7  2  0
  9  8  1  0
 10 11  1  0
 10  9  2  0
 11 12  2  0
 12  1  1  0
 12  7  1  0
 13 18  2  0
 14 13  1  0
 15 14  2  0
 15 16  1  0
 16 17  2  0
 17 18  1  0
 19 20  1  0
 19  6  1  0
 21 20  2  0
 22 23  2  0
 22 21  1  0
 23 19  1  0
  2 24  1  0
  2 25  1  0
  3 26  1  0
  3 27  1  0
  4 28  1  0
  5 29  1  0
  5 30  1  0
  6 31  1  1
  8 32  1  0
  9 33  1  0
 10 34  1  0
 11 35  1  0
 13 36  1  0
 14 37  1  0
 17 38  1  0
 21 39  1  0
 22 40  1  0
 23 41  1  0
M  ISO  8  24  13  25  13  26  13  27  13  28   5  29  13  30  13  31  13
M  ISO  8  32  14  33  14  34  14  35  14  36  14  37  14  38  14  39  14
M  ISO  2  40  14  41  14
M  END
>  <minimizedAffinity>  (1) 
-5.60956335

>  <minimizedRMSD>  (1) 
0.182415813

$$$$
