
     RDKit          3D

 27 29  0  0  0  0  0  0  0  0999 V2000
   46.7170   32.5110   44.7320 C   0  0  0  0  0  0  0  0  0  0  0  0
   47.7690   32.1160   43.9790 N   0  0  0  0  0  0  0  0  0  0  0  0
   48.2700   32.8030   42.9480 C   0  0  0  0  0  0  0  0  0  0  0  0
   47.7480   33.9780   42.5740 N   0  0  0  0  0  0  0  0  0  0  0  0
   46.7060   34.4570   43.2540 C   0  0  0  0  0  0  0  0  0  0  0  0
   46.1810   35.6670   42.8540 C   0  0  0  0  0  0  0  0  0  0  0  0
   45.1120   36.2150   43.5090 C   0  0  0  0  0  0  0  0  0  0  0  0
   44.5860   35.4940   44.5890 C   0  0  0  0  0  0  0  0  0  0  0  0
   45.1500   34.2950   44.9410 C   0  0  0  0  0  0  0  0  0  0  0  0
   46.2120   33.7270   44.3090 C   0  0  0  0  0  0  0  0  0  0  0  0
   45.2280   29.6540   46.3040 C   0  0  0  0  0  0  0  0  0  0  0  0
   45.0840   29.9270   47.6690 C   0  0  0  0  0  0  0  0  0  0  0  0
   45.5300   31.1710   48.0590 C   0  0  0  0  0  0  0  0  0  0  0  0
   46.0450   31.9840   47.1270 N   0  0  0  0  0  0  0  0  0  0  0  0
   46.1910   31.7530   45.8420 C   0  0  0  0  0  0  0  0  0  0  0  0
   45.7560   30.5500   45.4820 N   0  0  0  0  0  0  0  0  0  0  0  0
   45.4740   31.6670   49.4590 C   0  0  0  0  0  0  0  0  0  0  0  0
   49.1289   32.3948   42.3952 H   0  0  0  0  0  0  0  0  0  0  0  0
   46.6260   36.1976   41.9994 H   0  0  0  0  0  0  0  0  0  0  0  0
   44.6839   37.1803   43.2009 H   0  0  0  0  0  0  0  0  0  0  0  0
   43.7260   35.8874   45.1509 H   0  0  0  0  0  0  0  0  0  0  0  0
   44.7132   33.7548   45.7939 H   0  0  0  0  0  0  0  0  0  0  0  0
   44.8984   28.6823   45.9076 H   0  0  0  0  0  0  0  0  0  0  0  0
   44.6487   29.2048   48.3754 H   0  0  0  0  0  0  0  0  0  0  0  0
   45.5698   30.8187   50.1527 H   0  0  0  0  0  0  0  0  0  0  0  0
   46.2979   32.3755   49.6302 H   0  0  0  0  0  0  0  0  0  0  0  0
   44.5129   32.1739   49.6302 H   0  0  0  0  0  0  0  0  0  0  0  0
  1 15  1  0
  2  1  2  0
  3  2  1  0
  4  3  2  0
  4  5  1  0
  5 10  2  0
  6  5  1  0
  6  7  2  0
  7  8  1  0
  8  9  2  0
 10  1  1  0
 10  9  1  0
 11 12  2  0
 12 13  1  0
 13 17  1  0
 14 13  2  0
 15 14  1  0
 16 15  2  0
 16 11  1  0
  3 18  1  0
  6 19  1  0
  7 20  1  0
  8 21  1  0
  9 22  1  0
 11 23  1  0
 12 24  1  0
 17 25  1  0
 17 26  1  0
 17 27  1  0
M  ISO  8  18  14  19  14  20  14  21  14  22  14  23  14  24  14  25   8
M  ISO  2  26   8  27   8
M  END
>  <minimizedAffinity>  (1) 
-5.26856852

>  <minimizedRMSD>  (1) 
1.05198538

$$$$
