
     RDKit          3D

 31 34  0  0  0  0  0  0  0  0999 V2000
   46.7420   32.6120   43.9930 C   0  0  0  0  0  0  0  0  0  0  0  0
   47.7040   32.3750   43.0640 N   0  0  0  0  0  0  0  0  0  0  0  0
   48.0790   33.2340   42.1170 C   0  0  0  0  0  0  0  0  0  0  0  0
   47.5070   34.4420   42.0090 N   0  0  0  0  0  0  0  0  0  0  0  0
   46.5530   34.7740   42.8690 C   0  0  0  0  0  0  0  0  0  0  0  0
   45.9770   36.0220   42.7440 C   0  0  0  0  0  0  0  0  0  0  0  0
   44.9770   36.4220   43.6140 C   0  0  0  0  0  0  0  0  0  0  0  0
   44.5870   35.5170   44.6070 C   0  0  0  0  0  0  0  0  0  0  0  0
   45.1990   34.2900   44.6810 C   0  0  0  0  0  0  0  0  0  0  0  0
   46.1880   33.8660   43.8390 C   0  0  0  0  0  0  0  0  0  0  0  0
   45.3200   29.5690   45.2380 C   0  0  0  0  0  0  0  0  0  0  0  0
   45.4450   29.5660   46.6350 C   0  0  0  0  0  0  0  0  0  0  0  0
   46.0570   30.6820   47.1730 C   0  0  0  0  0  0  0  0  0  0  0  0
   46.4630   31.6390   46.3280 N   0  0  0  0  0  0  0  0  0  0  0  0
   46.3530   31.6570   45.0160 C   0  0  0  0  0  0  0  0  0  0  0  0
   45.7620   30.5800   44.5000 N   0  0  0  0  0  0  0  0  0  0  0  0
   46.3030   30.9080   48.6280 C   0  0  0  0  0  0  0  0  0  0  0  0
   45.8040   32.2160   49.2060 C   0  0  0  0  0  0  0  0  0  0  0  0
   45.2070   30.9200   49.5980 C   0  0  0  0  0  0  0  0  0  0  0  0
   48.8722   32.9470   41.4110 H   0  0  0  0  0  0  0  0  0  0  0  0
   46.3144   36.7028   41.9486 H   0  0  0  0  0  0  0  0  0  0  0  0
   44.5074   37.4130   43.5278 H   0  0  0  0  0  0  0  0  0  0  0  0
   43.7964   35.7862   45.3228 H   0  0  0  0  0  0  0  0  0  0  0  0
   44.8703   33.6008   45.4728 H   0  0  0  0  0  0  0  0  0  0  0  0
   44.8433   28.7113   44.7410 H   0  0  0  0  0  0  0  0  0  0  0  0
   45.0819   28.7350   47.2576 H   0  0  0  0  0  0  0  0  0  0  0  0
   47.2536   30.3571   48.5747 H   0  0  0  0  0  0  0  0  0  0  0  0
   46.4239   32.7789   49.9194 H   0  0  0  0  0  0  0  0  0  0  0  0
   45.4260   33.1639   48.7954 H   0  0  0  0  0  0  0  0  0  0  0  0
   44.1873   30.6689   49.2706 H   0  0  0  0  0  0  0  0  0  0  0  0
   45.0300   30.4177   50.5605 H   0  0  0  0  0  0  0  0  0  0  0  0
  1 15  1  0
  2  1  2  0
  3  2  1  0
  4  3  2  0
  4  5  1  0
  5 10  2  0
  6  5  1  0
  6  7  2  0
  7  8  1  0
  8  9  2  0
 10  1  1  0
 10  9  1  0
 11 12  2  0
 12 13  1  0
 13 17  1  0
 14 13  2  0
 15 14  1  0
 16 15  2  0
 16 11  1  0
 17 18  1  0
 17 19  1  0
 18 19  1  0
  3 20  1  0
  6 21  1  0
  7 22  1  0
  8 23  1  0
  9 24  1  0
 11 25  1  0
 12 26  1  0
 17 27  1  0
 18 28  1  0
 18 29  1  0
 19 30  1  0
 19 31  1  0
M  ISO  8  20  14  21  14  22  14  23  14  24  14  25  14  26  14  27  13
M  ISO  4  28  13  29  13  30  13  31  13
M  END
>  <minimizedAffinity>  (1) 
-5.0740633

>  <minimizedRMSD>  (1) 
1.88936651

$$$$
