
     RDKit          3D

 37 39  0  0  1  0  0  0  0  0999 V2000
   46.6440   34.7770   42.0740 C   0  0  0  0  0  0  0  0  0  0  0  0
   47.9510   35.2480   42.0190 C   0  0  0  0  0  0  0  0  0  0  0  0
   48.7260   35.1260   40.8560 C   0  0  0  0  0  0  0  0  0  0  0  0
   48.1700   34.5140   39.7180 C   0  0  0  0  0  0  0  0  0  0  0  0
   46.8850   34.0590   39.7950 C   0  0  0  0  0  0  0  0  0  0  0  0
   46.1610   34.1930   40.9390 C   0  0  0  0  0  0  0  0  0  0  0  0
   44.8140   33.6840   40.9850 N   0  0  0  0  0  0  0  0  0  0  0  0
   43.5920   34.3940   40.5620 C   0  0  0  0  0  0  0  0  0  0  0  0
   42.4290   34.1040   41.4720 C   0  0  0  0  0  0  0  0  0  0  0  0
   42.2270   32.6630   41.4790 N   0  0  0  0  0  0  0  0  0  0  0  0
   43.3660   32.1330   42.2140 C   0  0  0  0  0  0  0  0  0  0  0  0
   44.6760   32.3570   41.5000 C   0  0  1  0  0  0  0  0  0  0  0  0
   44.8780   31.2530   40.5170 C   0  0  0  0  0  0  0  0  0  0  0  0
   46.2140   30.8590   40.4590 F   0  0  0  0  0  0  0  0  0  0  0  0
   44.1190   30.1390   40.7050 F   0  0  0  0  0  0  0  0  0  0  0  0
   44.5920   31.6860   39.2110 F   0  0  0  0  0  0  0  0  0  0  0  0
   44.4480   36.1220   44.8080 C   0  0  0  0  0  0  0  0  0  0  0  0
   45.0890   36.0430   43.5690 C   0  0  0  0  0  0  0  0  0  0  0  0
   45.9350   34.9570   43.3120 C   0  0  0  0  0  0  0  0  0  0  0  0
   46.1070   34.0150   44.2730 N   0  0  0  0  0  0  0  0  0  0  0  0
   45.4550   34.1400   45.4690 C   0  0  0  0  0  0  0  0  0  0  0  0
   44.6400   35.1780   45.7260 N   0  0  0  0  0  0  0  0  0  0  0  0
   48.3874   35.7273   42.9078 H   0  0  0  0  0  0  0  0  0  0  0  0
   49.7583   35.5052   40.8342 H   0  0  0  0  0  0  0  0  0  0  0  0
   48.7540   34.4051   38.7922 H   0  0  0  0  0  0  0  0  0  0  0  0
   46.4280   33.5766   38.9184 H   0  0  0  0  0  0  0  0  0  0  0  0
   43.7888   35.4762   40.5708 H   0  0  0  0  0  0  0  0  0  0  0  0
   43.3288   34.0461   39.5522 H   0  0  0  0  0  0  0  0  0  0  0  0
   42.6516   34.4569   42.4898 H   0  0  0  0  0  0  0  0  0  0  0  0
   41.5237   34.6201   41.1198 H   0  0  0  0  0  0  0  0  0  0  0  0
   41.3450   32.4223   41.9533 H   0  0  0  0  0  0  0  0  0  0  0  0
   43.4116   32.6268   43.1959 H   0  0  0  0  0  0  0  0  0  0  0  0
   43.2222   31.0467   42.3107 H   0  0  0  0  0  0  0  0  0  0  0  0
   45.5101   32.3053   42.2152 H   0  0  0  0  0  0  0  0  0  0  0  0
   43.7810   36.9692   45.0258 H   0  0  0  0  0  0  0  0  0  0  0  0
   44.9317   36.8213   42.8077 H   0  0  0  0  0  0  0  0  0  0  0  0
   45.6014   33.3705   46.2413 H   0  0  0  0  0  0  0  0  0  0  0  0
  1 19  1  0
  2  1  2  0
  3  2  1  0
  4  5  1  0
  4  3  2  0
  5  6  2  0
  6  7  1  0
  6  1  1  0
  7 12  1  0
  8  7  1  0
  8  9  1  0
  9 10  1  0
 10 11  1  0
 12 11  1  0
 13 15  1  0
 13 12  1  0
 14 13  1  0
 16 13  1  0
 17 22  2  0
 18 17  1  0
 19 18  2  0
 19 20  1  0
 20 21  2  0
 21 22  1  0
  2 23  1  0
  3 24  1  0
  4 25  1  0
  5 26  1  0
  8 27  1  0
  8 28  1  0
  9 29  1  0
  9 30  1  0
 10 31  1  0
 11 32  1  0
 11 33  1  0
 12 34  1  1
 17 35  1  0
 18 36  1  0
 21 37  1  0
M  ISO  8  23  14  24  14  25  14  26  14  27  13  28  13  29  13  30  13
M  ISO  7  31   5  32  13  33  13  34  13  35  14  36  14  37  14
M  END
>  <minimizedAffinity>  (1) 
-5.5658536

>  <minimizedRMSD>  (1) 
0.0361354873

$$$$
