
     RDKit          3D

 37 40  0  0  0  0  0  0  0  0999 V2000
   44.9650   35.2120   43.9470 C   0  0  0  0  0  0  0  0  0  0  0  0
   45.8420   35.6750   42.9710 C   0  0  0  0  0  0  0  0  0  0  0  0
   46.8020   34.7760   42.5740 C   0  0  0  0  0  0  0  0  0  0  0  0
   46.8020   33.5740   43.1490 N   0  0  0  0  0  0  0  0  0  0  0  0
   46.0000   33.1020   44.0640 C   0  0  0  0  0  0  0  0  0  0  0  0
   45.0660   33.9810   44.4480 N   0  0  0  0  0  0  0  0  0  0  0  0
   45.8890   31.8440   44.7650 C   0  0  0  0  0  0  0  0  0  0  0  0
   45.3120   30.7290   44.2260 N   0  0  0  0  0  0  0  0  0  0  0  0
   45.1990   29.5550   44.8640 C   0  0  0  0  0  0  0  0  0  0  0  0
   45.6560   29.3950   46.0970 N   0  0  0  0  0  0  0  0  0  0  0  0
   46.2370   30.4180   46.7120 C   0  0  0  0  0  0  0  0  0  0  0  0
   46.7090   30.2340   48.0000 C   0  0  0  0  0  0  0  0  0  0  0  0
   47.3130   31.2470   48.6750 C   0  0  0  0  0  0  0  0  0  0  0  0
   47.4390   32.4750   48.0290 C   0  0  0  0  0  0  0  0  0  0  0  0
   46.9540   32.6150   46.7470 C   0  0  0  0  0  0  0  0  0  0  0  0
   46.3420   31.6110   46.0440 C   0  0  0  0  0  0  0  0  0  0  0  0
   47.8580   35.0080   41.5540 C   0  0  0  0  0  0  0  0  0  0  0  0
   48.5270   33.7270   41.1420 C   0  0  0  0  0  0  0  0  0  0  0  0
   48.5240   33.6040   39.6620 C   0  0  0  0  0  0  0  0  0  0  0  0
   48.7400   32.5710   38.8010 C   0  0  0  0  0  0  0  0  0  0  0  0
   48.6010   33.0630   37.5230 C   0  0  0  0  0  0  0  0  0  0  0  0
   48.3000   34.4090   37.7120 C   0  0  0  0  0  0  0  0  0  0  0  0
   48.2600   34.7020   38.9810 O   0  0  0  0  0  0  0  0  0  0  0  0
   44.1696   35.8775   44.3137 H   0  0  0  0  0  0  0  0  0  0  0  0
   45.7717   36.6879   42.5478 H   0  0  0  0  0  0  0  0  0  0  0  0
   44.7173   28.7081   44.3534 H   0  0  0  0  0  0  0  0  0  0  0  0
   46.5935   29.2532   48.4845 H   0  0  0  0  0  0  0  0  0  0  0  0
   47.6902   31.1022   49.6981 H   0  0  0  0  0  0  0  0  0  0  0  0
   47.9205   33.3236   48.5370 H   0  0  0  0  0  0  0  0  0  0  0  0
   47.0651   33.5938   46.2575 H   0  0  0  0  0  0  0  0  0  0  0  0
   47.4010   35.4721   40.6676 H   0  0  0  0  0  0  0  0  0  0  0  0
   48.6212   35.6657   41.9955 H   0  0  0  0  0  0  0  0  0  0  0  0
   49.5653   33.7253   41.5053 H   0  0  0  0  0  0  0  0  0  0  0  0
   47.9780   32.8780   41.5754 H   0  0  0  0  0  0  0  0  0  0  0  0
   48.9813   31.5337   39.0764 H   0  0  0  0  0  0  0  0  0  0  0  0
   48.7039   32.5188   36.5726 H   0  0  0  0  0  0  0  0  0  0  0  0
   48.1202   35.1283   36.8995 H   0  0  0  0  0  0  0  0  0  0  0  0
  1  6  2  0
  2  1  1  0
  3  2  2  0
  3  4  1  0
  4  5  2  0
  5  6  1  0
  5  7  1  0
  7 16  1  0
  8  7  2  0
  8  9  1  0
  9 10  2  0
 10 11  1  0
 11 12  1  0
 12 13  2  0
 14 13  1  0
 15 14  2  0
 16 11  2  0
 16 15  1  0
 17  3  1  0
 18 17  1  0
 19 18  1  0
 20 19  2  0
 21 22  2  0
 21 20  1  0
 22 23  1  0
 23 19  1  0
  1 24  1  0
  2 25  1  0
  9 26  1  0
 12 27  1  0
 13 28  1  0
 14 29  1  0
 15 30  1  0
 17 31  1  0
 17 32  1  0
 18 33  1  0
 18 34  1  0
 20 35  1  0
 21 36  1  0
 22 37  1  0
M  ISO  8  24  14  25  14  26  14  27  14  28  14  29  14  30  14  31   8
M  ISO  6  32   8  33   8  34   8  35  14  36  14  37  14
M  END
>  <minimizedAffinity>  (1) 
-5.29989529

>  <minimizedRMSD>  (1) 
8.29215145

$$$$
