
     RDKit          3D

 47 50  0  0  1  0  0  0  0  0999 V2000
   44.7110   33.8390   40.9360 N   0  0  0  0  0  0  0  0  0  0  0  0
   43.5570   34.7040   40.6600 C   0  0  0  0  0  0  0  0  0  0  0  0
   42.3880   34.3740   41.5320 C   0  0  0  0  0  0  0  0  0  0  0  0
   42.0780   32.9730   41.3540 N   0  0  0  0  0  0  0  0  0  0  0  0
   43.1760   32.2490   41.9830 C   0  0  0  0  0  0  0  0  0  0  0  0
   44.4980   32.4550   41.2750 C   0  0  1  0  0  0  0  0  0  0  0  0
   46.6240   34.7730   42.0570 C   0  0  0  0  0  0  0  0  0  0  0  0
   47.9470   35.1530   42.0150 C   0  0  0  0  0  0  0  0  0  0  0  0
   48.7270   35.0090   40.8610 C   0  0  0  0  0  0  0  0  0  0  0  0
   48.1450   34.4610   39.7080 C   0  0  0  0  0  0  0  0  0  0  0  0
   46.8270   34.0850   39.7550 C   0  0  0  0  0  0  0  0  0  0  0  0
   46.1050   34.2430   40.9030 C   0  0  0  0  0  0  0  0  0  0  0  0
   44.4770   36.1510   44.8150 C   0  0  0  0  0  0  0  0  0  0  0  0
   45.1200   36.0740   43.5710 C   0  0  0  0  0  0  0  0  0  0  0  0
   45.9160   34.9660   43.2950 C   0  0  0  0  0  0  0  0  0  0  0  0
   46.0360   34.0080   44.2460 N   0  0  0  0  0  0  0  0  0  0  0  0
   45.3970   34.1220   45.4380 C   0  0  0  0  0  0  0  0  0  0  0  0
   44.6250   35.1830   45.7200 N   0  0  0  0  0  0  0  0  0  0  0  0
   45.0950   29.6980   38.0120 C   0  0  0  0  0  0  0  0  0  0  0  0
   45.6990   29.4920   39.2250 C   0  0  0  0  0  0  0  0  0  0  0  0
   45.5020   30.3810   40.2640 C   0  0  0  0  0  0  0  0  0  0  0  0
   44.7090   31.5060   40.1660 C   0  0  0  0  0  0  0  0  0  0  0  0
   44.1200   31.6590   38.9030 C   0  0  0  0  0  0  0  0  0  0  0  0
   44.2860   30.8060   37.8470 C   0  0  0  0  0  0  0  0  0  0  0  0
   45.2690   28.6480   36.6340 S   0  0  0  0  0  0  0  0  0  0  0  0
   46.2340   29.3290   35.6980 O   0  0  0  0  0  0  0  0  0  0  0  0
   43.9400   28.5400   35.9500 O   0  0  0  0  0  0  0  0  0  0  0  0
   43.8473   35.7503   40.8362 H   0  0  0  0  0  0  0  0  0  0  0  0
   43.2560   34.5452   39.6140 H   0  0  0  0  0  0  0  0  0  0  0  0
   42.6407   34.5694   42.5846 H   0  0  0  0  0  0  0  0  0  0  0  0
   41.5214   34.9943   41.2596 H   0  0  0  0  0  0  0  0  0  0  0  0
   41.1848   32.7409   41.8114 H   0  0  0  0  0  0  0  0  0  0  0  0
   43.2761   32.5963   43.0219 H   0  0  0  0  0  0  0  0  0  0  0  0
   42.9371   31.1765   41.9318 H   0  0  0  0  0  0  0  0  0  0  0  0
   45.2976   32.2064   41.9883 H   0  0  0  0  0  0  0  0  0  0  0  0
   48.4059   35.5836   42.9172 H   0  0  0  0  0  0  0  0  0  0  0  0
   49.7817   35.3213   40.8585 H   0  0  0  0  0  0  0  0  0  0  0  0
   48.7328   34.3357   38.7867 H   0  0  0  0  0  0  0  0  0  0  0  0
   46.3490   33.6538   38.8631 H   0  0  0  0  0  0  0  0  0  0  0  0
   43.8434   37.0198   45.0468 H   0  0  0  0  0  0  0  0  0  0  0  0
   44.9975   36.8748   42.8268 H   0  0  0  0  0  0  0  0  0  0  0  0
   45.5144   33.3273   46.1894 H   0  0  0  0  0  0  0  0  0  0  0  0
   46.3445   28.6135   39.3721 H   0  0  0  0  0  0  0  0  0  0  0  0
   46.0048   30.1811   41.2217 H   0  0  0  0  0  0  0  0  0  0  0  0
   43.4727   32.5350   38.7491 H   0  0  0  0  0  0  0  0  0  0  0  0
   43.7859   30.9980   36.8862 H   0  0  0  0  0  0  0  0  0  0  0  0
   45.7082   27.4020   36.9967 H   0  0  0  0  0  0  0  0  0  0  0  0
  1  6  1  0
  2  1  1  0
  2  3  1  0
  4  3  1  0
  4  5  1  0
  6  5  1  0
  7 15  1  0
  8  7  2  0
  9  8  1  0
 10 11  1  0
 10  9  2  0
 11 12  2  0
 12  1  1  0
 12  7  1  0
 13 18  2  0
 14 13  1  0
 15 14  2  0
 15 16  1  0
 16 17  2  0
 17 18  1  0
 19 20  2  0
 20 21  1  0
 22 21  2  0
 22  6  1  0
 23 22  1  0
 24 19  1  0
 24 23  2  0
 25 19  1  0
 26 25  2  0
 27 25  2  0
  2 28  1  0
  2 29  1  0
  3 30  1  0
  3 31  1  0
  4 32  1  0
  5 33  1  0
  5 34  1  0
  6 35  1  1
  8 36  1  0
  9 37  1  0
 10 38  1  0
 11 39  1  0
 13 40  1  0
 14 41  1  0
 17 42  1  0
 20 43  1  0
 21 44  1  0
 23 45  1  0
 24 46  1  0
 25 47  1  0
M  ISO  8  28  13  29  13  30  13  31  13  32   5  33  13  34  13  35  13
M  ISO  8  36  14  37  14  38  14  39  14  40  14  41  14  42  14  43  14
M  ISO  4  44  14  45  14  46  14  47  11
M  END
>  <minimizedAffinity>  (1) 
-5.55410719

>  <minimizedRMSD>  (1) 
0.672826469

$$$$
