
     RDKit          3D

 30 33  0  0  0  0  0  0  0  0999 V2000
   47.2480   34.9220   41.9120 C   0  0  0  0  0  0  0  0  0  0  0  0
   48.4890   35.5520   41.7910 C   0  0  0  0  0  0  0  0  0  0  0  0
   48.9600   35.3240   40.5440 N   0  0  0  0  0  0  0  0  0  0  0  0
   48.0590   34.5760   39.8920 C   0  0  0  0  0  0  0  0  0  0  0  0
   48.0840   34.0860   38.5990 C   0  0  0  0  0  0  0  0  0  0  0  0
   47.0200   33.3370   38.1750 C   0  0  0  0  0  0  0  0  0  0  0  0
   45.8900   33.0220   38.9470 C   0  0  0  0  0  0  0  0  0  0  0  0
   45.9380   33.5470   40.2240 C   0  0  0  0  0  0  0  0  0  0  0  0
   46.9660   34.3010   40.7180 C   0  0  0  0  0  0  0  0  0  0  0  0
   44.5880   35.8660   44.3530 C   0  0  0  0  0  0  0  0  0  0  0  0
   45.3990   35.8750   43.2160 C   0  0  0  0  0  0  0  0  0  0  0  0
   46.3980   34.9180   43.0950 C   0  0  0  0  0  0  0  0  0  0  0  0
   46.5350   34.0140   44.1020 N   0  0  0  0  0  0  0  0  0  0  0  0
   45.7320   34.0250   45.2020 C   0  0  0  0  0  0  0  0  0  0  0  0
   44.7650   34.9480   45.3230 N   0  0  0  0  0  0  0  0  0  0  0  0
   46.0140   32.9710   46.2070 C   0  0  0  0  0  0  0  0  0  0  0  0
   47.0120   31.8220   46.1200 C   0  0  0  0  0  0  0  0  0  0  0  0
   46.6880   31.0640   47.7440 S   0  0  0  0  0  0  0  0  0  0  0  0
   45.3670   32.3100   48.2410 C   0  0  0  0  0  0  0  0  0  0  0  0
   45.2150   33.1920   47.2590 N   0  0  0  0  0  0  0  0  0  0  0  0
   48.9959   36.1335   42.5752 H   0  0  0  0  0  0  0  0  0  0  0  0
   49.8538   35.6651   40.1624 H   0  0  0  0  0  0  0  0  0  0  0  0
   48.9336   34.2921   37.9314 H   0  0  0  0  0  0  0  0  0  0  0  0
   47.0526   32.9502   37.1457 H   0  0  0  0  0  0  0  0  0  0  0  0
   45.0506   32.4177   38.5724 H   0  0  0  0  0  0  0  0  0  0  0  0
   45.0877   33.3437   40.8916 H   0  0  0  0  0  0  0  0  0  0  0  0
   43.7933   36.6193   44.4580 H   0  0  0  0  0  0  0  0  0  0  0  0
   45.2488   36.6283   42.4287 H   0  0  0  0  0  0  0  0  0  0  0  0
   47.7129   31.5378   45.3213 H   0  0  0  0  0  0  0  0  0  0  0  0
   44.8112   32.3081   49.1903 H   0  0  0  0  0  0  0  0  0  0  0  0
  1 12  1  0
  2  1  2  0
  3  2  1  0
  4  3  1  0
  4  9  2  0
  5  4  1  0
  6  5  2  0
  6  7  1  0
  7  8  2  0
  8  9  1  0
  9  1  1  0
 10 15  2  0
 11 10  1  0
 12 11  2  0
 12 13  1  0
 13 14  2  0
 14 15  1  0
 14 16  1  0
 16 20  1  0
 17 16  2  0
 17 18  1  0
 18 19  1  0
 20 19  2  0
  2 21  1  0
  3 22  1  0
  5 23  1  0
  6 24  1  0
  7 25  1  0
  8 26  1  0
 10 27  1  0
 11 28  1  0
 17 29  1  0
 19 30  1  0
M  ISO  8  21  14  22   9  23  14  24  14  25  14  26  14  27  14  28  14
M  ISO  2  29  14  30  14
M  END
>  <minimizedAffinity>  (1) 
-6.67216158

>  <minimizedRMSD>  (1) 
0.0364293978

$$$$
