
     RDKit          3D

 29 32  0  0  0  0  0  0  0  0999 V2000
   47.2360   34.9160   41.9300 C   0  0  0  0  0  0  0  0  0  0  0  0
   48.4900   35.5160   41.8030 C   0  0  0  0  0  0  0  0  0  0  0  0
   48.9610   35.2730   40.5630 N   0  0  0  0  0  0  0  0  0  0  0  0
   48.0430   34.5420   39.9100 C   0  0  0  0  0  0  0  0  0  0  0  0
   48.0620   34.0440   38.6170 C   0  0  0  0  0  0  0  0  0  0  0  0
   46.9770   33.3160   38.1910 C   0  0  0  0  0  0  0  0  0  0  0  0
   45.8460   33.0310   38.9610 C   0  0  0  0  0  0  0  0  0  0  0  0
   45.8990   33.5600   40.2400 C   0  0  0  0  0  0  0  0  0  0  0  0
   46.9460   34.2970   40.7390 C   0  0  0  0  0  0  0  0  0  0  0  0
   44.5280   35.8920   44.3100 C   0  0  0  0  0  0  0  0  0  0  0  0
   45.3550   35.8690   43.1770 C   0  0  0  0  0  0  0  0  0  0  0  0
   46.3810   34.9350   43.1100 C   0  0  0  0  0  0  0  0  0  0  0  0
   46.5600   34.0570   44.1560 N   0  0  0  0  0  0  0  0  0  0  0  0
   45.7280   34.1220   45.2330 C   0  0  0  0  0  0  0  0  0  0  0  0
   44.7300   35.0110   45.3270 N   0  0  0  0  0  0  0  0  0  0  0  0
   45.9560   33.1720   46.3160 C   0  0  0  0  0  0  0  0  0  0  0  0
   46.9790   32.3030   46.4100 N   0  0  0  0  0  0  0  0  0  0  0  0
   46.8940   31.5920   47.5050 O   0  0  0  0  0  0  0  0  0  0  0  0
   45.8030   31.9780   48.1650 C   0  0  0  0  0  0  0  0  0  0  0  0
   45.2220   32.9600   47.4240 N   0  0  0  0  0  0  0  0  0  0  0  0
   49.0079   36.0914   42.5845 H   0  0  0  0  0  0  0  0  0  0  0  0
   49.8643   35.5914   40.1841 H   0  0  0  0  0  0  0  0  0  0  0  0
   48.9192   34.2258   37.9520 H   0  0  0  0  0  0  0  0  0  0  0  0
   47.0006   32.9268   37.1624 H   0  0  0  0  0  0  0  0  0  0  0  0
   44.9950   32.4428   38.5870 H   0  0  0  0  0  0  0  0  0  0  0  0
   45.0413   33.3770   40.9040 H   0  0  0  0  0  0  0  0  0  0  0  0
   43.7117   36.6264   44.3765 H   0  0  0  0  0  0  0  0  0  0  0  0
   45.1933   36.5803   42.3536 H   0  0  0  0  0  0  0  0  0  0  0  0
   45.4415   31.5794   49.1244 H   0  0  0  0  0  0  0  0  0  0  0  0
  1 12  1  0
  2  1  2  0
  3  2  1  0
  4  3  1  0
  4  9  2  0
  5  4  1  0
  6  5  2  0
  6  7  1  0
  7  8  2  0
  8  9  1  0
  9  1  1  0
 10 15  2  0
 11 10  1  0
 12 11  2  0
 12 13  1  0
 13 14  2  0
 14 15  1  0
 14 16  1  0
 16 17  2  0
 16 20  1  0
 17 18  1  0
 18 19  1  0
 20 19  2  0
  2 21  1  0
  3 22  1  0
  5 23  1  0
  6 24  1  0
  7 25  1  0
  8 26  1  0
 10 27  1  0
 11 28  1  0
 19 29  1  0
M  ISO  8  21  14  22   9  23  14  24  14  25  14  26  14  27  14  28  14
M  ISO  1  29  14
M  END
>  <minimizedAffinity>  (1) 
-6.69018412

>  <minimizedRMSD>  (1) 
0.413514644

$$$$
