
     RDKit          3D

 27 29  0  0  0  0  0  0  0  0999 V2000
   47.3270   34.8950   41.8640 C   0  0  0  0  0  0  0  0  0  0  0  0
   48.5380   35.5450   41.7030 C   0  0  0  0  0  0  0  0  0  0  0  0
   48.9840   35.3550   40.4500 N   0  0  0  0  0  0  0  0  0  0  0  0
   48.0800   34.5920   39.8000 C   0  0  0  0  0  0  0  0  0  0  0  0
   48.0850   34.1270   38.5000 C   0  0  0  0  0  0  0  0  0  0  0  0
   47.0270   33.3610   38.0930 C   0  0  0  0  0  0  0  0  0  0  0  0
   45.9290   33.0060   38.8900 C   0  0  0  0  0  0  0  0  0  0  0  0
   46.0000   33.5090   40.1720 C   0  0  0  0  0  0  0  0  0  0  0  0
   47.0220   34.2820   40.6590 C   0  0  0  0  0  0  0  0  0  0  0  0
   44.6380   35.6660   44.3300 C   0  0  0  0  0  0  0  0  0  0  0  0
   45.4230   35.7210   43.1710 C   0  0  0  0  0  0  0  0  0  0  0  0
   46.5020   34.8450   43.0660 C   0  0  0  0  0  0  0  0  0  0  0  0
   46.7440   33.9760   44.0890 N   0  0  0  0  0  0  0  0  0  0  0  0
   45.9580   33.9590   45.1870 C   0  0  0  0  0  0  0  0  0  0  0  0
   44.9130   34.7870   45.3210 N   0  0  0  0  0  0  0  0  0  0  0  0
   46.2610   33.0110   46.2530 C   0  0  0  0  0  0  0  0  0  0  0  0
   45.7530   31.8600   46.3080 O   0  0  0  0  0  0  0  0  0  0  0  0
   47.1380   33.3370   47.2780 O   0  0  0  0  0  0  0  0  0  0  0  0
   49.0551   36.1269   42.4802 H   0  0  0  0  0  0  0  0  0  0  0  0
   49.8602   35.7258   40.0554 H   0  0  0  0  0  0  0  0  0  0  0  0
   48.9119   34.3644   37.8145 H   0  0  0  0  0  0  0  0  0  0  0  0
   47.0385   32.9937   37.0562 H   0  0  0  0  0  0  0  0  0  0  0  0
   45.0941   32.3878   38.5284 H   0  0  0  0  0  0  0  0  0  0  0  0
   45.1726   33.2716   40.8568 H   0  0  0  0  0  0  0  0  0  0  0  0
   43.7828   36.3497   44.4362 H   0  0  0  0  0  0  0  0  0  0  0  0
   45.1943   36.4354   42.3665 H   0  0  0  0  0  0  0  0  0  0  0  0
   47.3306   32.6794   47.9925 H   0  0  0  0  0  0  0  0  0  0  0  0
  1 12  1  0
  2  1  2  0
  3  2  1  0
  4  3  1  0
  4  9  2  0
  5  4  1  0
  6  5  2  0
  6  7  1  0
  7  8  2  0
  8  9  1  0
  9  1  1  0
 10 15  2  0
 11 10  1  0
 12 11  2  0
 12 13  1  0
 13 14  2  0
 14 15  1  0
 14 16  1  0
 16 17  2  0
 16 18  1  0
  2 19  1  0
  3 20  1  0
  5 21  1  0
  6 22  1  0
  7 23  1  0
  8 24  1  0
 10 25  1  0
 11 26  1  0
 18 27  1  0
M  ISO  8  19  14  20   9  21  14  22  14  23  14  24  14  25  14  26  14
M  ISO  1  27   3
M  END
>  <minimizedAffinity>  (1) 
-6.55174208

>  <minimizedRMSD>  (1) 
0.218513057

$$$$
