
     RDKit          3D

 27 29  0  0  0  0  0  0  0  0999 V2000
   47.2390   34.9110   41.9380 C   0  0  0  0  0  0  0  0  0  0  0  0
   48.4820   35.5220   41.8080 C   0  0  0  0  0  0  0  0  0  0  0  0
   48.9640   35.3000   40.5770 N   0  0  0  0  0  0  0  0  0  0  0  0
   48.0490   34.5550   39.9120 C   0  0  0  0  0  0  0  0  0  0  0  0
   48.0710   34.0630   38.6160 C   0  0  0  0  0  0  0  0  0  0  0  0
   46.9980   33.3270   38.1930 C   0  0  0  0  0  0  0  0  0  0  0  0
   45.8800   33.0310   38.9620 C   0  0  0  0  0  0  0  0  0  0  0  0
   45.9200   33.5490   40.2370 C   0  0  0  0  0  0  0  0  0  0  0  0
   46.9550   34.2970   40.7440 C   0  0  0  0  0  0  0  0  0  0  0  0
   44.5670   35.9100   44.3450 C   0  0  0  0  0  0  0  0  0  0  0  0
   45.3890   35.9060   43.2050 C   0  0  0  0  0  0  0  0  0  0  0  0
   46.3890   34.9170   43.1120 C   0  0  0  0  0  0  0  0  0  0  0  0
   46.5130   34.0200   44.1240 N   0  0  0  0  0  0  0  0  0  0  0  0
   45.7020   34.0520   45.2120 C   0  0  0  0  0  0  0  0  0  0  0  0
   44.7360   34.9850   45.3280 N   0  0  0  0  0  0  0  0  0  0  0  0
   45.8440   33.0620   46.3190 C   0  0  0  0  0  0  0  0  0  0  0  0
   45.7010   31.7740   45.8850 F   0  0  0  0  0  0  0  0  0  0  0  0
   47.1390   33.1280   46.8520 F   0  0  0  0  0  0  0  0  0  0  0  0
   44.9380   33.3490   47.3290 F   0  0  0  0  0  0  0  0  0  0  0  0
   48.9910   36.0986   42.5944 H   0  0  0  0  0  0  0  0  0  0  0  0
   49.8645   35.6344   40.2053 H   0  0  0  0  0  0  0  0  0  0  0  0
   48.9238   34.2581   37.9492 H   0  0  0  0  0  0  0  0  0  0  0  0
   47.0227   32.9396   37.1638 H   0  0  0  0  0  0  0  0  0  0  0  0
   45.0360   32.4346   38.5852 H   0  0  0  0  0  0  0  0  0  0  0  0
   45.0625   33.3499   40.8966 H   0  0  0  0  0  0  0  0  0  0  0  0
   43.7778   36.6699   44.4435 H   0  0  0  0  0  0  0  0  0  0  0  0
   45.2558   36.6529   42.4085 H   0  0  0  0  0  0  0  0  0  0  0  0
  1 12  1  0
  2  1  2  0
  3  2  1  0
  4  3  1  0
  4  9  2  0
  5  4  1  0
  6  5  2  0
  6  7  1  0
  7  8  2  0
  8  9  1  0
  9  1  1  0
 10 15  2  0
 11 10  1  0
 12 11  2  0
 12 13  1  0
 13 14  2  0
 14 15  1  0
 14 16  1  0
 16 18  1  0
 16 19  1  0
 17 16  1  0
  2 20  1  0
  3 21  1  0
  5 22  1  0
  6 23  1  0
  7 24  1  0
  8 25  1  0
 10 26  1  0
 11 27  1  0
M  ISO  8  20  14  21   9  22  14  23  14  24  14  25  14  26  14  27  14
M  END
>  <minimizedAffinity>  (1) 
-6.59757376

>  <minimizedRMSD>  (1) 
0.166302845

$$$$
