
     RDKit          3D

 25 27  0  0  0  0  0  0  0  0999 V2000
   47.2360   34.9230   41.9210 C   0  0  0  0  0  0  0  0  0  0  0  0
   48.4870   35.5310   41.7920 C   0  0  0  0  0  0  0  0  0  0  0  0
   48.9690   35.2990   40.5590 N   0  0  0  0  0  0  0  0  0  0  0  0
   48.0490   34.5550   39.8980 C   0  0  0  0  0  0  0  0  0  0  0  0
   48.0900   34.0690   38.6090 C   0  0  0  0  0  0  0  0  0  0  0  0
   47.0150   33.3360   38.1850 C   0  0  0  0  0  0  0  0  0  0  0  0
   45.8700   33.0350   38.9520 C   0  0  0  0  0  0  0  0  0  0  0  0
   45.9260   33.5650   40.2250 C   0  0  0  0  0  0  0  0  0  0  0  0
   46.9520   34.3030   40.7280 C   0  0  0  0  0  0  0  0  0  0  0  0
   44.5650   35.8760   44.3430 C   0  0  0  0  0  0  0  0  0  0  0  0
   45.3820   35.8870   43.1880 C   0  0  0  0  0  0  0  0  0  0  0  0
   46.3850   34.9320   43.0930 C   0  0  0  0  0  0  0  0  0  0  0  0
   46.5330   34.0270   44.1230 N   0  0  0  0  0  0  0  0  0  0  0  0
   45.7340   34.0520   45.2040 C   0  0  0  0  0  0  0  0  0  0  0  0
   44.7450   34.9740   45.3270 N   0  0  0  0  0  0  0  0  0  0  0  0
   46.1510   32.7680   46.3770 S   0  0  0  0  0  0  0  0  0  0  0  0
   48.9975   36.1090   42.5764 H   0  0  0  0  0  0  0  0  0  0  0  0
   49.8713   35.6263   40.1853 H   0  0  0  0  0  0  0  0  0  0  0  0
   48.9492   34.2619   37.9498 H   0  0  0  0  0  0  0  0  0  0  0  0
   47.0465   32.9476   37.1563 H   0  0  0  0  0  0  0  0  0  0  0  0
   45.0235   32.4417   38.5759 H   0  0  0  0  0  0  0  0  0  0  0  0
   45.0694   33.3748   40.8883 H   0  0  0  0  0  0  0  0  0  0  0  0
   43.7629   36.6225   44.4398 H   0  0  0  0  0  0  0  0  0  0  0  0
   45.2273   36.6288   42.3906 H   0  0  0  0  0  0  0  0  0  0  0  0
   45.9958   33.2459   47.6515 H   0  0  0  0  0  0  0  0  0  0  0  0
  1 12  1  0
  2  1  2  0
  3  2  1  0
  4  3  1  0
  4  9  2  0
  5  4  1  0
  6  5  2  0
  6  7  1  0
  7  8  2  0
  8  9  1  0
  9  1  1  0
 10 15  2  0
 11 10  1  0
 12 11  2  0
 12 13  1  0
 13 14  2  0
 14 15  1  0
 14 16  1  0
  2 17  1  0
  3 18  1  0
  5 19  1  0
  6 20  1  0
  7 21  1  0
  8 22  1  0
 10 23  1  0
 11 24  1  0
 16 25  1  0
M  ISO  8  17  14  18   9  19  14  20  14  21  14  22  14  23  14  24  14
M  ISO  1  25  11
M  END
>  <minimizedAffinity>  (1) 
-5.94605446

>  <minimizedRMSD>  (1) 
0.0350284576

$$$$
