
     RDKit          3D

 25 27  0  0  0  0  0  0  0  0999 V2000
   47.2460   34.9270   41.9210 C   0  0  0  0  0  0  0  0  0  0  0  0
   48.4870   35.5320   41.7940 C   0  0  0  0  0  0  0  0  0  0  0  0
   48.9610   35.2970   40.5600 N   0  0  0  0  0  0  0  0  0  0  0  0
   48.0560   34.5620   39.9080 C   0  0  0  0  0  0  0  0  0  0  0  0
   48.0760   34.0620   38.6130 C   0  0  0  0  0  0  0  0  0  0  0  0
   47.0030   33.3260   38.1840 C   0  0  0  0  0  0  0  0  0  0  0  0
   45.8800   33.0360   38.9490 C   0  0  0  0  0  0  0  0  0  0  0  0
   45.9270   33.5640   40.2270 C   0  0  0  0  0  0  0  0  0  0  0  0
   46.9560   34.3020   40.7220 C   0  0  0  0  0  0  0  0  0  0  0  0
   44.5740   35.8840   44.3380 C   0  0  0  0  0  0  0  0  0  0  0  0
   45.3850   35.9020   43.1920 C   0  0  0  0  0  0  0  0  0  0  0  0
   46.3780   34.9360   43.1070 C   0  0  0  0  0  0  0  0  0  0  0  0
   46.5260   34.0200   44.1220 N   0  0  0  0  0  0  0  0  0  0  0  0
   45.7090   34.0530   45.2060 C   0  0  0  0  0  0  0  0  0  0  0  0
   44.7400   34.9700   45.3230 N   0  0  0  0  0  0  0  0  0  0  0  0
   45.9020   33.1030   46.2050 O   0  0  0  0  0  0  0  0  0  0  0  0
   48.9997   36.1103   42.5767 H   0  0  0  0  0  0  0  0  0  0  0  0
   49.8618   35.6250   40.1833 H   0  0  0  0  0  0  0  0  0  0  0  0
   48.9316   34.2519   37.9483 H   0  0  0  0  0  0  0  0  0  0  0  0
   47.0328   32.9351   37.1562 H   0  0  0  0  0  0  0  0  0  0  0  0
   45.0332   32.4425   38.5739 H   0  0  0  0  0  0  0  0  0  0  0  0
   45.0704   33.3730   40.8901 H   0  0  0  0  0  0  0  0  0  0  0  0
   43.7782   36.6367   44.4388 H   0  0  0  0  0  0  0  0  0  0  0  0
   45.2399   36.6483   42.3971 H   0  0  0  0  0  0  0  0  0  0  0  0
   45.3213   33.1029   47.0068 H   0  0  0  0  0  0  0  0  0  0  0  0
  1 12  1  0
  2  1  2  0
  3  2  1  0
  4  3  1  0
  4  9  2  0
  5  4  1  0
  6  5  2  0
  6  7  1  0
  7  8  2  0
  8  9  1  0
  9  1  1  0
 10 15  2  0
 11 10  1  0
 12 11  2  0
 12 13  1  0
 13 14  2  0
 14 15  1  0
 14 16  1  0
  2 17  1  0
  3 18  1  0
  5 19  1  0
  6 20  1  0
  7 21  1  0
  8 22  1  0
 10 23  1  0
 11 24  1  0
 16 25  1  0
M  ISO  8  17  14  18   9  19  14  20  14  21  14  22  14  23  14  24  14
M  ISO  1  25   3
M  END
>  <minimizedAffinity>  (1) 
-5.88292599

>  <minimizedRMSD>  (1) 
0.0282518622

$$$$
