
     RDKit          3D

 40 43  0  0  1  0  0  0  0  0999 V2000
   44.6370   35.5900   44.8180 C   0  0  0  0  0  0  0  0  0  0  0  0
   45.3410   35.6100   43.5850 C   0  0  0  0  0  0  0  0  0  0  0  0
   46.3570   34.6870   43.4210 C   0  0  0  0  0  0  0  0  0  0  0  0
   46.6390   33.8130   44.4270 N   0  0  0  0  0  0  0  0  0  0  0  0
   45.9540   33.8170   45.5900 C   0  0  0  0  0  0  0  0  0  0  0  0
   44.9610   34.6940   45.7940 N   0  0  0  0  0  0  0  0  0  0  0  0
   46.2880   32.8880   46.6030 N   0  0  0  0  0  0  0  0  0  0  0  0
   47.3400   31.9000   46.4790 C   0  0  0  0  0  0  0  0  0  0  0  0
   46.6410   30.5550   46.5610 C   0  0  0  0  0  0  0  0  0  0  0  0
   46.1210   30.4080   47.9610 C   0  0  0  0  0  0  0  0  0  0  0  0
   45.9700   31.6960   48.7060 C   0  0  0  0  0  0  0  0  0  0  0  0
   45.5750   32.8660   47.8670 C   0  0  2  0  0  0  0  0  0  0  0  0
   47.0900   34.6920   42.1590 C   0  0  0  0  0  0  0  0  0  0  0  0
   48.3130   35.3090   41.8950 C   0  0  0  0  0  0  0  0  0  0  0  0
   48.6550   35.0870   40.6290 N   0  0  0  0  0  0  0  0  0  0  0  0
   47.6990   34.3440   40.0520 C   0  0  0  0  0  0  0  0  0  0  0  0
   47.5870   33.8540   38.7670 C   0  0  0  0  0  0  0  0  0  0  0  0
   46.4790   33.1100   38.4500 C   0  0  0  0  0  0  0  0  0  0  0  0
   45.4480   32.8080   39.3310 C   0  0  0  0  0  0  0  0  0  0  0  0
   45.6110   33.3220   40.5970 C   0  0  0  0  0  0  0  0  0  0  0  0
   46.6980   34.0790   40.9910 C   0  0  0  0  0  0  0  0  0  0  0  0
   44.2160   32.9780   47.6580 O   0  0  0  0  0  0  0  0  0  0  0  0
   43.8198   36.3064   44.9882 H   0  0  0  0  0  0  0  0  0  0  0  0
   45.0883   36.3303   42.7929 H   0  0  0  0  0  0  0  0  0  0  0  0
   48.0667   32.0067   47.2978 H   0  0  0  0  0  0  0  0  0  0  0  0
   47.8995   32.0138   45.5388 H   0  0  0  0  0  0  0  0  0  0  0  0
   45.8075   30.5194   45.8440 H   0  0  0  0  0  0  0  0  0  0  0  0
   47.3363   29.7387   46.3157 H   0  0  0  0  0  0  0  0  0  0  0  0
   45.1354   29.9221   47.9120 H   0  0  0  0  0  0  0  0  0  0  0  0
   46.8667   29.8148   48.5106 H   0  0  0  0  0  0  0  0  0  0  0  0
   45.2005   31.5550   49.4793 H   0  0  0  0  0  0  0  0  0  0  0  0
   46.9627   31.9325   49.1167 H   0  0  0  0  0  0  0  0  0  0  0  0
   45.8688   33.7467   48.4569 H   0  0  0  0  0  0  0  0  0  0  0  0
   48.9025   35.8886   42.6206 H   0  0  0  0  0  0  0  0  0  0  0  0
   49.5108   35.4285   40.1687 H   0  0  0  0  0  0  0  0  0  0  0  0
   48.3658   34.0547   38.0165 H   0  0  0  0  0  0  0  0  0  0  0  0
   46.4010   32.7242   37.4228 H   0  0  0  0  0  0  0  0  0  0  0  0
   44.5734   32.2074   39.0404 H   0  0  0  0  0  0  0  0  0  0  0  0
   44.8275   33.1177   41.3416 H   0  0  0  0  0  0  0  0  0  0  0  0
   43.7500   33.0164   48.5306 H   0  0  0  0  0  0  0  0  0  0  0  0
  1  6  2  0
  2  1  1  0
  3  2  2  0
  3  4  1  0
  4  5  2  0
  5  6  1  0
  5  7  1  0
  7 12  1  0
  8  9  1  0
  8  7  1  0
  9 10  1  0
 10 11  1  0
 12 11  1  0
 13  3  1  0
 14 13  2  0
 15 14  1  0
 16 15  1  0
 16 21  2  0
 17 16  1  0
 18 17  2  0
 18 19  1  0
 19 20  2  0
 20 21  1  0
 21 13  1  0
 22 12  1  0
  1 23  1  0
  2 24  1  0
  8 25  1  0
  8 26  1  0
  9 27  1  0
  9 28  1  0
 10 29  1  0
 10 30  1  0
 11 31  1  0
 11 32  1  0
 12 33  1  1
 14 34  1  0
 15 35  1  0
 17 36  1  0
 18 37  1  0
 19 38  1  0
 20 39  1  0
 22 40  1  0
M  ISO  8  23  14  24  14  25  13  26  13  27  13  28  13  29  13  30  13
M  ISO  8  31  13  32  13  33  13  34  14  35   9  36  14  37  14  38  14
M  ISO  2  39  14  40   3
M  END
>  <minimizedAffinity>  (1) 
-7.07983732

>  <minimizedRMSD>  (1) 
0.525620401

$$$$
