
     RDKit          3D

 21 22  0  0  0  0  0  0  0  0999 V2000
   45.5900   34.8150   44.1440 C   0  0  0  0  0  0  0  0  0  0  0  0
   46.6460   34.0570   43.6310 C   0  0  0  0  0  0  0  0  0  0  0  0
   47.1580   33.0310   44.4500 C   0  0  0  0  0  0  0  0  0  0  0  0
   46.5930   32.8460   45.6800 N   0  0  0  0  0  0  0  0  0  0  0  0
   45.5760   33.6060   46.1280 C   0  0  0  0  0  0  0  0  0  0  0  0
   45.0720   34.5880   45.3660 N   0  0  0  0  0  0  0  0  0  0  0  0
   47.2010   34.3100   42.3050 C   0  0  0  0  0  0  0  0  0  0  0  0
   46.7540   33.7230   41.1410 C   0  0  0  0  0  0  0  0  0  0  0  0
   47.3080   33.9910   39.9060 C   0  0  0  0  0  0  0  0  0  0  0  0
   48.3490   34.8870   39.8770 C   0  0  0  0  0  0  0  0  0  0  0  0
   48.8680   35.5270   40.9840 C   0  0  0  0  0  0  0  0  0  0  0  0
   48.2660   35.2130   42.1900 C   0  0  0  0  0  0  0  0  0  0  0  0
   44.8840   36.1450   43.1550 S   0  0  0  0  0  0  0  0  0  0  0  0
   47.9894   32.3968   44.1085 H   0  0  0  0  0  0  0  0  0  0  0  0
   45.1550   33.4201   47.1271 H   0  0  0  0  0  0  0  0  0  0  0  0
   45.9188   33.0094   41.1990 H   0  0  0  0  0  0  0  0  0  0  0  0
   46.9344   33.5108   38.9896 H   0  0  0  0  0  0  0  0  0  0  0  0
   48.8020   35.1107   38.8999 H   0  0  0  0  0  0  0  0  0  0  0  0
   49.7037   36.2387   40.9127 H   0  0  0  0  0  0  0  0  0  0  0  0
   48.6424   35.6964   43.1036 H   0  0  0  0  0  0  0  0  0  0  0  0
   44.3726   37.1085   43.9839 H   0  0  0  0  0  0  0  0  0  0  0  0
  1  6  2  0
  2  1  1  0
  2  3  2  0
  3  4  1  0
  4  5  2  0
  6  5  1  0
  7  2  1  0
  8  7  2  0
  9  8  1  0
 10  9  2  0
 10 11  1  0
 11 12  2  0
 12  7  1  0
 13  1  1  0
  3 14  1  0
  5 15  1  0
  8 16  1  0
  9 17  1  0
 10 18  1  0
 11 19  1  0
 12 20  1  0
 13 21  1  0
M  ISO  8  14  14  15  14  16  14  17  14  18  14  19  14  20  14  21  11
M  END
>  <minimizedAffinity>  (1) 
-4.68342018

>  <minimizedRMSD>  (1) 
0.320140064

$$$$
