
     RDKit          3D

 18 19  0  0  0  0  0  0  0  0999 V2000
   45.8650   34.7480   43.8180 C   0  0  0  0  0  0  0  0  0  0  0  0
   46.9960   34.0870   43.3360 C   0  0  0  0  0  0  0  0  0  0  0  0
   47.5050   33.0420   44.1110 C   0  0  0  0  0  0  0  0  0  0  0  0
   46.8720   32.7410   45.2720 N   0  0  0  0  0  0  0  0  0  0  0  0
   45.7780   33.3990   45.7130 C   0  0  0  0  0  0  0  0  0  0  0  0
   45.2710   34.4120   44.9790 N   0  0  0  0  0  0  0  0  0  0  0  0
   47.5980   34.4950   42.0720 C   0  0  0  0  0  0  0  0  0  0  0  0
   47.2640   33.9150   40.8590 C   0  0  0  0  0  0  0  0  0  0  0  0
   48.0500   34.5750   39.9100 C   0  0  0  0  0  0  0  0  0  0  0  0
   48.8020   35.4920   40.5410 N   0  0  0  0  0  0  0  0  0  0  0  0
   48.5410   35.4580   41.8560 N   0  0  0  0  0  0  0  0  0  0  0  0
   45.1310   36.1180   42.8850 S   0  0  0  0  0  0  0  0  0  0  0  0
   48.3937   32.4795   43.7888 H   0  0  0  0  0  0  0  0  0  0  0  0
   45.3038   33.1116   46.6630 H   0  0  0  0  0  0  0  0  0  0  0  0
   46.5370   33.1089   40.6810 H   0  0  0  0  0  0  0  0  0  0  0  0
   48.0523   34.3767   38.8280 H   0  0  0  0  0  0  0  0  0  0  0  0
   49.4755   36.1240   40.0850 H   0  0  0  0  0  0  0  0  0  0  0  0
   44.6321   37.0491   43.7574 H   0  0  0  0  0  0  0  0  0  0  0  0
  1  6  2  0
  2  1  1  0
  2  3  2  0
  3  4  1  0
  4  5  2  0
  6  5  1  0
  7  2  1  0
  8  7  1  0
  9 10  1  0
  9  8  2  0
 10 11  1  0
 11  7  2  0
 12  1  1  0
  3 13  1  0
  5 14  1  0
  8 15  1  0
  9 16  1  0
 10 17  1  0
 12 18  1  0
M  ISO  6  13  14  14  14  15  14  16  14  17   9  18  11
M  END
>  <minimizedAffinity>  (1) 
-4.09326935

>  <minimizedRMSD>  (1) 
0.568183243

$$$$
