
     RDKit          3D

 18 19  0  0  0  0  0  0  0  0999 V2000
   45.6690   34.8070   44.0940 C   0  0  0  0  0  0  0  0  0  0  0  0
   46.7750   34.1350   43.5790 C   0  0  0  0  0  0  0  0  0  0  0  0
   47.3040   33.0940   44.3710 C   0  0  0  0  0  0  0  0  0  0  0  0
   46.7170   32.8170   45.5590 N   0  0  0  0  0  0  0  0  0  0  0  0
   45.6530   33.4920   46.0150 C   0  0  0  0  0  0  0  0  0  0  0  0
   45.1170   34.4980   45.2800 N   0  0  0  0  0  0  0  0  0  0  0  0
   47.3880   34.4410   42.3130 C   0  0  0  0  0  0  0  0  0  0  0  0
   48.3050   35.2740   41.8500 C   0  0  0  0  0  0  0  0  0  0  0  0
   48.6870   35.3350   40.5700 C   0  0  0  0  0  0  0  0  0  0  0  0
   48.0200   34.4120   39.7020 C   0  0  0  0  0  0  0  0  0  0  0  0
   46.9160   33.5640   40.8460 S   0  0  0  0  0  0  0  0  0  0  0  0
   44.9120   36.1500   43.1710 S   0  0  0  0  0  0  0  0  0  0  0  0
   48.1769   32.5183   44.0296 H   0  0  0  0  0  0  0  0  0  0  0  0
   45.2130   33.2294   46.9884 H   0  0  0  0  0  0  0  0  0  0  0  0
   48.7841   35.9606   42.5635 H   0  0  0  0  0  0  0  0  0  0  0  0
   49.4531   36.0386   40.2122 H   0  0  0  0  0  0  0  0  0  0  0  0
   48.1480   34.2603   38.6201 H   0  0  0  0  0  0  0  0  0  0  0  0
   44.3938   37.0693   44.0446 H   0  0  0  0  0  0  0  0  0  0  0  0
  1  6  2  0
  2  1  1  0
  2  3  2  0
  3  4  1  0
  4  5  2  0
  6  5  1  0
  7  2  1  0
  8  7  2  0
  9  8  1  0
 10  9  2  0
 10 11  1  0
 11  7  1  0
 12  1  1  0
  3 13  1  0
  5 14  1  0
  8 15  1  0
  9 16  1  0
 10 17  1  0
 12 18  1  0
M  ISO  6  13  14  14  14  15  14  16  14  17  14  18  11
M  END
>  <minimizedAffinity>  (1) 
-4.13722515

>  <minimizedRMSD>  (1) 
0.947722197

$$$$
