
     RDKit          3D

 19 20  0  0  0  0  0  0  0  0999 V2000
   45.5850   34.7600   44.1300 C   0  0  0  0  0  0  0  0  0  0  0  0
   46.6600   33.9760   43.7050 C   0  0  0  0  0  0  0  0  0  0  0  0
   47.1530   33.0240   44.5840 C   0  0  0  0  0  0  0  0  0  0  0  0
   46.5770   32.8980   45.8040 N   0  0  0  0  0  0  0  0  0  0  0  0
   45.5330   33.6770   46.1860 C   0  0  0  0  0  0  0  0  0  0  0  0
   45.0340   34.6090   45.3510 N   0  0  0  0  0  0  0  0  0  0  0  0
   47.1680   34.2340   42.3630 C   0  0  0  0  0  0  0  0  0  0  0  0
   48.2070   35.1090   42.1240 C   0  0  0  0  0  0  0  0  0  0  0  0
   48.7100   35.3750   40.8650 C   0  0  0  0  0  0  0  0  0  0  0  0
   48.1610   34.7490   39.8080 N   0  0  0  0  0  0  0  0  0  0  0  0
   47.1470   33.8950   40.0430 C   0  0  0  0  0  0  0  0  0  0  0  0
   46.6540   33.6320   41.2580 N   0  0  0  0  0  0  0  0  0  0  0  0
   44.8770   36.0240   43.0550 S   0  0  0  0  0  0  0  0  0  0  0  0
   47.9980   32.3814   44.2957 H   0  0  0  0  0  0  0  0  0  0  0  0
   45.0911   33.5463   47.1848 H   0  0  0  0  0  0  0  0  0  0  0  0
   48.6605   35.6238   42.9838 H   0  0  0  0  0  0  0  0  0  0  0  0
   49.5410   36.0829   40.7297 H   0  0  0  0  0  0  0  0  0  0  0  0
   46.6957   33.3813   39.1814 H   0  0  0  0  0  0  0  0  0  0  0  0
   44.3217   37.0155   43.8202 H   0  0  0  0  0  0  0  0  0  0  0  0
  1  6  2  0
  2  1  1  0
  2  3  2  0
  3  4  1  0
  4  5  2  0
  6  5  1  0
  7  2  1  0
  8  7  2  0
  9  8  1  0
 10 11  1  0
 10  9  2  0
 11 12  2  0
 12  7  1  0
 13  1  1  0
  3 14  1  0
  5 15  1  0
  8 16  1  0
  9 17  1  0
 11 18  1  0
 13 19  1  0
M  ISO  6  14  14  15  14  16  14  17  14  18  14  19  11
M  END
>  <minimizedAffinity>  (1) 
-4.14325857

>  <minimizedRMSD>  (1) 
0.817367196

$$$$
