
     RDKit          3D

 18 19  0  0  0  0  0  0  0  0999 V2000
   45.7190   34.7620   44.0380 C   0  0  0  0  0  0  0  0  0  0  0  0
   46.8070   34.0240   43.5730 C   0  0  0  0  0  0  0  0  0  0  0  0
   47.3340   32.9940   44.3400 C   0  0  0  0  0  0  0  0  0  0  0  0
   46.7320   32.7660   45.5370 N   0  0  0  0  0  0  0  0  0  0  0  0
   45.6860   33.4770   45.9830 C   0  0  0  0  0  0  0  0  0  0  0  0
   45.1670   34.4750   45.2520 N   0  0  0  0  0  0  0  0  0  0  0  0
   47.3640   34.3620   42.2780 C   0  0  0  0  0  0  0  0  0  0  0  0
   48.4000   35.2300   42.0100 C   0  0  0  0  0  0  0  0  0  0  0  0
   48.5290   35.1880   40.6230 C   0  0  0  0  0  0  0  0  0  0  0  0
   47.5850   34.3150   40.1220 C   0  0  0  0  0  0  0  0  0  0  0  0
   46.9180   33.8520   41.1480 O   0  0  0  0  0  0  0  0  0  0  0  0
   45.0140   36.0980   43.0730 S   0  0  0  0  0  0  0  0  0  0  0  0
   48.1913   32.3955   43.9980 H   0  0  0  0  0  0  0  0  0  0  0  0
   45.2470   33.2383   46.9629 H   0  0  0  0  0  0  0  0  0  0  0  0
   48.9899   35.8206   42.7264 H   0  0  0  0  0  0  0  0  0  0  0  0
   49.2600   35.7551   40.0280 H   0  0  0  0  0  0  0  0  0  0  0  0
   47.4243   34.0581   39.0646 H   0  0  0  0  0  0  0  0  0  0  0  0
   44.5099   37.0533   43.9157 H   0  0  0  0  0  0  0  0  0  0  0  0
  1  6  2  0
  2  1  1  0
  2  3  2  0
  3  4  1  0
  4  5  2  0
  6  5  1  0
  7  2  1  0
  8  7  2  0
  9  8  1  0
 10  9  2  0
 10 11  1  0
 11  7  1  0
 12  1  1  0
  3 13  1  0
  5 14  1  0
  8 15  1  0
  9 16  1  0
 10 17  1  0
 12 18  1  0
M  ISO  6  13  14  14  14  15  14  16  14  17  14  18  11
M  END
>  <minimizedAffinity>  (1) 
-4.10747051

>  <minimizedRMSD>  (1) 
0.316288441

$$$$
