
     RDKit          3D

 18 19  0  0  0  0  0  0  0  0999 V2000
   46.0720   33.5400   44.4140 C   0  0  0  0  0  0  0  0  0  0  0  0
   45.6120   33.8870   45.6900 C   0  0  0  0  0  0  0  0  0  0  0  0
   44.7550   34.9820   45.8240 C   0  0  0  0  0  0  0  0  0  0  0  0
   44.4210   35.6480   44.6860 N   0  0  0  0  0  0  0  0  0  0  0  0
   44.8680   35.3040   43.4710 C   0  0  0  0  0  0  0  0  0  0  0  0
   45.6940   34.2520   43.3300 N   0  0  0  0  0  0  0  0  0  0  0  0
   46.0310   33.1140   46.8090 N   0  0  0  0  0  0  0  0  0  0  0  0
   47.2030   32.6620   47.2460 N   0  0  0  0  0  0  0  0  0  0  0  0
   47.0280   31.9640   48.3850 C   0  0  0  0  0  0  0  0  0  0  0  0
   45.6690   31.9790   48.6790 C   0  0  0  0  0  0  0  0  0  0  0  0
   45.0520   32.7170   47.6620 C   0  0  0  0  0  0  0  0  0  0  0  0
   47.1780   32.1360   44.1740 S   0  0  0  0  0  0  0  0  0  0  0  0
   44.3676   35.2918   46.8058 H   0  0  0  0  0  0  0  0  0  0  0  0
   44.5592   35.8824   42.5878 H   0  0  0  0  0  0  0  0  0  0  0  0
   47.8159   31.4723   48.9744 H   0  0  0  0  0  0  0  0  0  0  0  0
   45.1762   31.5047   49.5405 H   0  0  0  0  0  0  0  0  0  0  0  0
   43.9775   32.9342   47.5711 H   0  0  0  0  0  0  0  0  0  0  0  0
   47.5644   31.6454   45.3934 H   0  0  0  0  0  0  0  0  0  0  0  0
  1  2  2  0
  2  3  1  0
  2  7  1  0
  4  3  2  0
  5  4  1  0
  6  5  2  0
  6  1  1  0
  7  8  1  0
  7 11  1  0
  8  9  2  0
  9 10  1  0
 11 10  2  0
 12  1  1  0
  3 13  1  0
  5 14  1  0
  9 15  1  0
 10 16  1  0
 11 17  1  0
 12 18  1  0
M  ISO  6  13  14  14  14  15  14  16  14  17  14  18  11
M  END
>  <minimizedAffinity>  (1) 
-3.88954163

>  <minimizedRMSD>  (1) 
5.2911973

$$$$
