
     RDKit          3D

 20 20  0  0  0  0  0  0  0  0999 V2000
   46.0500   34.7010   43.5980 C   0  0  0  0  0  0  0  0  0  0  0  0
   47.2060   34.3470   42.9010 C   0  0  0  0  0  0  0  0  0  0  0  0
   47.9350   33.2450   43.3480 C   0  0  0  0  0  0  0  0  0  0  0  0
   47.4580   32.5870   44.4460 N   0  0  0  0  0  0  0  0  0  0  0  0
   46.3440   32.9480   45.0990 C   0  0  0  0  0  0  0  0  0  0  0  0
   45.6170   34.0090   44.6920 N   0  0  0  0  0  0  0  0  0  0  0  0
   47.6040   35.1540   41.7260 C   0  0  0  0  0  0  0  0  0  0  0  0
   47.3400   34.3190   40.4930 C   0  0  0  0  0  0  0  0  0  0  0  0
   49.0510   35.5230   41.8420 C   0  0  0  0  0  0  0  0  0  0  0  0
   45.0460   36.1210   43.0840 S   0  0  0  0  0  0  0  0  0  0  0  0
   48.8541   32.9199   42.8385 H   0  0  0  0  0  0  0  0  0  0  0  0
   46.0187   32.3717   45.9777 H   0  0  0  0  0  0  0  0  0  0  0  0
   47.0293   36.0899   41.6643 H   0  0  0  0  0  0  0  0  0  0  0  0
   47.0211   33.3104   40.7946 H   0  0  0  0  0  0  0  0  0  0  0  0
   46.5471   34.7904   39.8938 H   0  0  0  0  0  0  0  0  0  0  0  0
   48.2598   34.2489   39.8938 H   0  0  0  0  0  0  0  0  0  0  0  0
   49.3274   35.5935   42.9044 H   0  0  0  0  0  0  0  0  0  0  0  0
   49.6661   34.7530   41.3534 H   0  0  0  0  0  0  0  0  0  0  0  0
   49.2222   36.4935   41.3534 H   0  0  0  0  0  0  0  0  0  0  0  0
   44.5818   36.7775   44.1932 H   0  0  0  0  0  0  0  0  0  0  0  0
  1  6  2  0
  2  3  2  0
  2  1  1  0
  3  4  1  0
  4  5  2  0
  6  5  1  0
  7  9  1  0
  7  2  1  0
  8  7  1  0
 10  1  1  0
  3 11  1  0
  5 12  1  0
  7 13  1  0
  8 14  1  0
  8 15  1  0
  8 16  1  0
  9 17  1  0
  9 18  1  0
  9 19  1  0
 10 20  1  0
M  ISO  8  11  14  12  14  13   8  14   8  15   8  16   8  17   8  18   8
M  ISO  2  19   8  20  11
M  END
>  <minimizedAffinity>  (1) 
-3.5914073

>  <minimizedRMSD>  (1) 
1.28994024

$$$$
