
     RDKit          3D

 13 13  0  0  0  0  0  0  0  0999 V2000
   45.5830   34.6000   44.4930 C   0  0  0  0  0  0  0  0  0  0  0  0
   46.5430   34.1200   43.5990 C   0  0  0  0  0  0  0  0  0  0  0  0
   47.3270   33.0390   43.9750 C   0  0  0  0  0  0  0  0  0  0  0  0
   47.1200   32.4970   45.2000 N   0  0  0  0  0  0  0  0  0  0  0  0
   46.1890   32.9680   46.0560 C   0  0  0  0  0  0  0  0  0  0  0  0
   45.4230   34.0110   45.7130 N   0  0  0  0  0  0  0  0  0  0  0  0
   46.6680   34.7850   42.3170 C   0  0  0  0  0  0  0  0  0  0  0  0
   47.7580   35.3530   42.0690 O   0  0  0  0  0  0  0  0  0  0  0  0
   44.5290   35.9940   44.0810 S   0  0  0  0  0  0  0  0  0  0  0  0
   48.0941   32.6336   43.2988 H   0  0  0  0  0  0  0  0  0  0  0  0
   46.0590   32.4930   47.0396 H   0  0  0  0  0  0  0  0  0  0  0  0
   45.8409   34.7911   41.5918 H   0  0  0  0  0  0  0  0  0  0  0  0
   44.0822   36.5850   45.2334 H   0  0  0  0  0  0  0  0  0  0  0  0
  1  6  2  0
  2  3  2  0
  2  1  1  0
  3  4  1  0
  4  5  2  0
  6  5  1  0
  7  2  1  0
  8  7  2  0
  9  1  1  0
  3 10  1  0
  5 11  1  0
  7 12  1  0
  9 13  1  0
M  ISO  4  10  14  11  14  12   6  13  11
M  END
>  <minimizedAffinity>  (1) 
-2.9219923

>  <minimizedRMSD>  (1) 
0.703846514

$$$$
