
     RDKit          3D

 17 17  0  0  0  0  0  0  0  0999 V2000
   45.8720   34.7190   43.8000 C   0  0  0  0  0  0  0  0  0  0  0  0
   46.9390   34.2020   43.0670 C   0  0  0  0  0  0  0  0  0  0  0  0
   47.6320   33.1270   43.6180 C   0  0  0  0  0  0  0  0  0  0  0  0
   47.2350   32.6450   44.8280 N   0  0  0  0  0  0  0  0  0  0  0  0
   46.1940   33.1720   45.5050 C   0  0  0  0  0  0  0  0  0  0  0  0
   45.5010   34.2060   45.0110 N   0  0  0  0  0  0  0  0  0  0  0  0
   44.9200   36.1180   43.1590 S   0  0  0  0  0  0  0  0  0  0  0  0
   47.2350   34.8390   41.7650 C   0  0  0  0  0  0  0  0  0  0  0  0
   48.6190   35.4720   41.7220 C   0  0  0  0  0  0  0  0  0  0  0  0
   48.4830   32.6763   43.0864 H   0  0  0  0  0  0  0  0  0  0  0  0
   45.9098   32.7456   46.4784 H   0  0  0  0  0  0  0  0  0  0  0  0
   44.4223   36.8493   44.2051 H   0  0  0  0  0  0  0  0  0  0  0  0
   47.1732   34.0742   40.9768 H   0  0  0  0  0  0  0  0  0  0  0  0
   46.4978   35.6410   41.6121 H   0  0  0  0  0  0  0  0  0  0  0  0
   48.9789   35.6366   42.7483 H   0  0  0  0  0  0  0  0  0  0  0  0
   49.3126   34.8016   41.1933 H   0  0  0  0  0  0  0  0  0  0  0  0
   48.5654   36.4351   41.1933 H   0  0  0  0  0  0  0  0  0  0  0  0
  1  6  2  0
  2  3  2  0
  2  1  1  0
  3  4  1  0
  4  5  2  0
  6  5  1  0
  7  1  1  0
  8  2  1  0
  9  8  1  0
  3 10  1  0
  5 11  1  0
  7 12  1  0
  8 13  1  0
  8 14  1  0
  9 15  1  0
  9 16  1  0
  9 17  1  0
M  ISO  8  10  14  11  14  12  11  13   8  14   8  15   8  16   8  17   8
M  END
>  <minimizedAffinity>  (1) 
-3.23238969

>  <minimizedRMSD>  (1) 
0.926087618

$$$$
