
     RDKit          3D

 31 33  0  0  0  0  0  0  0  0999 V2000
   45.2830   35.3240   44.1440 C   0  0  0  0  0  0  0  0  0  0  0  0
   46.1700   34.3160   43.7370 C   0  0  0  0  0  0  0  0  0  0  0  0
   46.4650   33.2890   44.6440 C   0  0  0  0  0  0  0  0  0  0  0  0
   45.8630   33.3330   45.8800 N   0  0  0  0  0  0  0  0  0  0  0  0
   45.0150   34.3090   46.2450 C   0  0  0  0  0  0  0  0  0  0  0  0
   44.7180   35.3090   45.3880 N   0  0  0  0  0  0  0  0  0  0  0  0
   47.6500   34.1790   39.7830 C   0  0  0  0  0  0  0  0  0  0  0  0
   48.3470   34.9410   40.7110 C   0  0  0  0  0  0  0  0  0  0  0  0
   47.8830   34.9980   42.0020 C   0  0  0  0  0  0  0  0  0  0  0  0
   46.7590   34.3400   42.4310 C   0  0  0  0  0  0  0  0  0  0  0  0
   46.0740   33.5870   41.5020 C   0  0  0  0  0  0  0  0  0  0  0  0
   46.5170   33.5050   40.1810 C   0  0  0  0  0  0  0  0  0  0  0  0
   48.3030   34.1530   38.1550 S   0  0  0  0  0  0  0  0  0  0  0  0
   49.2250   33.0050   37.9490 O   0  0  0  0  0  0  0  0  0  0  0  0
   47.2030   34.0050   37.1130 O   0  0  0  0  0  0  0  0  0  0  0  0
   44.8520   36.6780   43.0420 S   0  0  0  0  0  0  0  0  0  0  0  0
   45.1560   38.2680   43.7960 C   0  0  0  0  0  0  0  0  0  0  0  0
   45.5350   39.5360   43.4000 C   0  0  0  0  0  0  0  0  0  0  0  0
   45.5890   40.3260   44.4850 N   0  0  0  0  0  0  0  0  0  0  0  0
   45.2520   39.5870   45.5540 C   0  0  0  0  0  0  0  0  0  0  0  0
   44.9830   38.3270   45.1490 N   0  0  0  0  0  0  0  0  0  0  0  0
   47.1548   32.4751   44.3764 H   0  0  0  0  0  0  0  0  0  0  0  0
   44.5606   34.2933   47.2466 H   0  0  0  0  0  0  0  0  0  0  0  0
   49.2544   35.4891   40.4173 H   0  0  0  0  0  0  0  0  0  0  0  0
   48.4423   35.6034   42.7305 H   0  0  0  0  0  0  0  0  0  0  0  0
   45.1668   33.0439   41.8054 H   0  0  0  0  0  0  0  0  0  0  0  0
   45.9578   32.8984   39.4535 H   0  0  0  0  0  0  0  0  0  0  0  0
   48.9644   35.3438   38.0087 H   0  0  0  0  0  0  0  0  0  0  0  0
   45.7558   39.8469   42.3682 H   0  0  0  0  0  0  0  0  0  0  0  0
   45.2029   39.9491   46.5915 H   0  0  0  0  0  0  0  0  0  0  0  0
   44.6968   37.5456   45.7560 H   0  0  0  0  0  0  0  0  0  0  0  0
  1  6  2  0
  2  1  1  0
  2  3  2  0
  3  4  1  0
  4  5  2  0
  6  5  1  0
  7 12  2  0
  7  8  1  0
  8  9  2  0
  9 10  1  0
 10  2  1  0
 11 10  2  0
 12 11  1  0
 13  7  1  0
 14 13  2  0
 15 13  2  0
 16 17  1  0
 16  1  1  0
 17 21  1  0
 18 17  2  0
 18 19  1  0
 19 20  2  0
 21 20  1  0
  3 22  1  0
  5 23  1  0
  8 24  1  0
  9 25  1  0
 11 26  1  0
 12 27  1  0
 13 28  1  0
 18 29  1  0
 20 30  1  0
 21 31  1  0
M  ISO  8  22  14  23  14  24  14  25  14  26  14  27  14  28  11  29  14
M  ISO  2  30  14  31   9
M  END
>  <minimizedAffinity>  (1) 
-4.98123932

>  <minimizedRMSD>  (1) 
0.939693511

$$$$
