
     RDKit          3D

 31 33  0  0  0  0  0  0  0  0999 V2000
   45.5190   34.9700   44.0950 C   0  0  0  0  0  0  0  0  0  0  0  0
   46.4560   34.0630   43.6050 C   0  0  0  0  0  0  0  0  0  0  0  0
   46.8860   33.0320   44.4650 C   0  0  0  0  0  0  0  0  0  0  0  0
   46.3590   32.9800   45.7290 N   0  0  0  0  0  0  0  0  0  0  0  0
   45.4530   33.8740   46.1720 C   0  0  0  0  0  0  0  0  0  0  0  0
   45.0230   34.8730   45.3680 N   0  0  0  0  0  0  0  0  0  0  0  0
   47.7290   34.1510   39.5690 C   0  0  0  0  0  0  0  0  0  0  0  0
   48.3880   34.9660   40.4860 C   0  0  0  0  0  0  0  0  0  0  0  0
   47.9970   34.9600   41.8110 C   0  0  0  0  0  0  0  0  0  0  0  0
   46.9700   34.1720   42.2670 C   0  0  0  0  0  0  0  0  0  0  0  0
   46.3250   33.3720   41.3600 C   0  0  0  0  0  0  0  0  0  0  0  0
   46.6950   33.3530   40.0170 C   0  0  0  0  0  0  0  0  0  0  0  0
   48.3020   34.2330   37.9250 S   0  0  0  0  0  0  0  0  0  0  0  0
   49.3480   33.2080   37.6460 O   0  0  0  0  0  0  0  0  0  0  0  0
   47.1710   33.9910   36.9330 O   0  0  0  0  0  0  0  0  0  0  0  0
   44.9170   36.3110   43.0610 S   0  0  0  0  0  0  0  0  0  0  0  0
   45.1320   37.8970   43.8300 C   0  0  0  0  0  0  0  0  0  0  0  0
   45.4740   39.1590   43.3350 C   0  0  0  0  0  0  0  0  0  0  0  0
   45.4920   40.0400   44.4150 C   0  0  0  0  0  0  0  0  0  0  0  0
   45.1740   39.3250   45.5090 N   0  0  0  0  0  0  0  0  0  0  0  0
   44.9660   38.0790   45.1620 N   0  0  0  0  0  0  0  0  0  0  0  0
   47.6249   32.2890   44.1304 H   0  0  0  0  0  0  0  0  0  0  0  0
   45.0600   33.7905   47.1960 H   0  0  0  0  0  0  0  0  0  0  0  0
   49.2158   35.6114   40.1569 H   0  0  0  0  0  0  0  0  0  0  0  0
   48.5265   35.6085   42.5244 H   0  0  0  0  0  0  0  0  0  0  0  0
   45.4978   32.7314   41.6997 H   0  0  0  0  0  0  0  0  0  0  0  0
   46.1614   32.6998   39.3108 H   0  0  0  0  0  0  0  0  0  0  0  0
   48.8224   35.4916   37.7770 H   0  0  0  0  0  0  0  0  0  0  0  0
   45.6893   39.4105   42.2860 H   0  0  0  0  0  0  0  0  0  0  0  0
   45.7223   41.1150   44.3794 H   0  0  0  0  0  0  0  0  0  0  0  0
   45.1050   39.6977   46.4667 H   0  0  0  0  0  0  0  0  0  0  0  0
  1  6  2  0
  2  1  1  0
  2  3  2  0
  3  4  1  0
  4  5  2  0
  6  5  1  0
  7 12  2  0
  7  8  1  0
  8  9  2  0
  9 10  1  0
 10  2  1  0
 11 10  2  0
 12 11  1  0
 13  7  1  0
 14 13  2  0
 15 13  2  0
 16 17  1  0
 16  1  1  0
 17 21  2  0
 18 17  1  0
 18 19  2  0
 19 20  1  0
 21 20  1  0
  3 22  1  0
  5 23  1  0
  8 24  1  0
  9 25  1  0
 11 26  1  0
 12 27  1  0
 13 28  1  0
 18 29  1  0
 19 30  1  0
 20 31  1  0
M  ISO  8  22  14  23  14  24  14  25  14  26  14  27  14  28  11  29  14
M  ISO  2  30  14  31   9
M  END
>  <minimizedAffinity>  (1) 
-4.86840582

>  <minimizedRMSD>  (1) 
0.892832339

$$$$
