
     RDKit          3D

 12 12  0  0  0  0  0  0  0  0999 V2000
   44.5250   35.9880   44.5530 C   0  0  0  0  0  0  0  0  0  0  0  0
   45.2100   35.8890   43.3210 C   0  0  0  0  0  0  0  0  0  0  0  0
   46.1080   34.8230   43.1790 C   0  0  0  0  0  0  0  0  0  0  0  0
   46.2670   33.9570   44.2150 N   0  0  0  0  0  0  0  0  0  0  0  0
   45.5930   34.0880   45.3740 C   0  0  0  0  0  0  0  0  0  0  0  0
   44.7250   35.0940   45.5500 N   0  0  0  0  0  0  0  0  0  0  0  0
   45.8130   33.1210   46.4450 C   0  0  0  0  0  0  0  0  0  0  0  0
   45.1150   33.0730   47.4920 O   0  0  0  0  0  0  0  0  0  0  0  0
   43.8119   36.8115   44.7058 H   0  0  0  0  0  0  0  0  0  0  0  0
   45.0458   36.6151   42.5112 H   0  0  0  0  0  0  0  0  0  0  0  0
   46.6745   34.6890   42.2457 H   0  0  0  0  0  0  0  0  0  0  0  0
   46.6321   32.3956   46.3315 H   0  0  0  0  0  0  0  0  0  0  0  0
  1  6  2  0
  2  1  1  0
  3  2  2  0
  3  4  1  0
  4  5  2  0
  5  6  1  0
  5  7  1  0
  7  8  2  0
  1  9  1  0
  2 10  1  0
  3 11  1  0
  7 12  1  0
M  ISO  4   9  14  10  14  11  14  12   6
M  END
>  <minimizedAffinity>  (1) 
-3.19193602

>  <minimizedRMSD>  (1) 
0.327188164

$$$$
