
     RDKit          3D

 27 28  0  0  0  0  0  0  0  0999 V2000
   44.5970   35.8070   44.6040 C   0  0  0  0  0  0  0  0  0  0  0  0
   45.3470   35.5550   43.4450 C   0  0  0  0  0  0  0  0  0  0  0  0
   46.1940   34.4520   43.4860 C   0  0  0  0  0  0  0  0  0  0  0  0
   46.2340   33.7160   44.6160 N   0  0  0  0  0  0  0  0  0  0  0  0
   45.5150   33.9640   45.7150 C   0  0  0  0  0  0  0  0  0  0  0  0
   44.7020   35.0170   45.6870 N   0  0  0  0  0  0  0  0  0  0  0  0
   45.6070   33.1300   46.8970 C   0  0  0  0  0  0  0  0  0  0  0  0
   44.7450   33.1780   47.8290 O   0  0  0  0  0  0  0  0  0  0  0  0
   46.6900   32.2190   47.0390 N   0  0  0  0  0  0  0  0  0  0  0  0
   47.4320   32.0850   48.2920 C   0  0  0  0  0  0  0  0  0  0  0  0
   48.4390   30.9870   48.1550 C   0  0  0  0  0  0  0  0  0  0  0  0
   47.9040   29.7020   47.6110 C   0  0  0  0  0  0  0  0  0  0  0  0
   47.1350   29.9050   46.3330 C   0  0  0  0  0  0  0  0  0  0  0  0
   47.1220   31.3730   45.9490 C   0  0  0  0  0  0  0  0  0  0  0  0
   43.9108   36.6664   44.6269 H   0  0  0  0  0  0  0  0  0  0  0  0
   45.2695   36.1943   42.5532 H   0  0  0  0  0  0  0  0  0  0  0  0
   46.8158   34.1865   42.6183 H   0  0  0  0  0  0  0  0  0  0  0  0
   47.9474   33.0304   48.5168 H   0  0  0  0  0  0  0  0  0  0  0  0
   46.7354   31.8464   49.1092 H   0  0  0  0  0  0  0  0  0  0  0  0
   49.2356   31.3369   47.4819 H   0  0  0  0  0  0  0  0  0  0  0  0
   48.7923   30.7658   49.1730 H   0  0  0  0  0  0  0  0  0  0  0  0
   48.7461   29.0222   47.4142 H   0  0  0  0  0  0  0  0  0  0  0  0
   47.2155   29.2787   48.3572 H   0  0  0  0  0  0  0  0  0  0  0  0
   47.6100   29.3244   45.5284 H   0  0  0  0  0  0  0  0  0  0  0  0
   46.0990   29.5670   46.4832 H   0  0  0  0  0  0  0  0  0  0  0  0
   48.1384   31.6703   45.6512 H   0  0  0  0  0  0  0  0  0  0  0  0
   46.4091   31.4990   45.1208 H   0  0  0  0  0  0  0  0  0  0  0  0
  1  6  2  0
  2  3  2  0
  2  1  1  0
  3  4  1  0
  4  5  2  0
  5  7  1  0
  6  5  1  0
  7  9  1  0
  7  8  2  0
  9 10  1  0
 11 10  1  0
 12 11  1  0
 13 12  1  0
 14 13  1  0
 14  9  1  0
  1 15  1  0
  2 16  1  0
  3 17  1  0
 10 18  1  0
 10 19  1  0
 11 20  1  0
 11 21  1  0
 12 22  1  0
 12 23  1  0
 13 24  1  0
 13 25  1  0
 14 26  1  0
 14 27  1  0
M  ISO  8  15  14  16  14  17  14  18  13  19  13  20  13  21  13  22  13
M  ISO  5  23  13  24  13  25  13  26  13  27  13
M  END
>  <minimizedAffinity>  (1) 
-4.49962997

>  <minimizedRMSD>  (1) 
0.655453622

$$$$
