
     RDKit          3D

 23 25  0  0  0  0  0  0  0  0999 V2000
   45.4950   33.1450   46.5730 C   0  0  0  0  0  0  0  0  0  0  0  0
   44.9030   33.4160   47.6460 O   0  0  0  0  0  0  0  0  0  0  0  0
   48.8450   30.4230   48.3120 N   0  0  0  0  0  0  0  0  0  0  0  0
   48.7600   31.6150   48.9260 C   0  0  0  0  0  0  0  0  0  0  0  0
   47.7710   32.3240   48.3580 N   0  0  0  0  0  0  0  0  0  0  0  0
   47.2270   31.6020   47.3920 C   0  0  0  0  0  0  0  0  0  0  0  0
   46.1920   31.8630   46.5150 C   0  0  0  0  0  0  0  0  0  0  0  0
   45.8670   30.8980   45.6240 N   0  0  0  0  0  0  0  0  0  0  0  0
   46.5380   29.7090   45.5960 C   0  0  0  0  0  0  0  0  0  0  0  0
   47.5510   29.4250   46.4370 N   0  0  0  0  0  0  0  0  0  0  0  0
   47.8980   30.3780   47.3420 C   0  0  0  0  0  0  0  0  0  0  0  0
   44.7070   35.9470   44.3350 C   0  0  0  0  0  0  0  0  0  0  0  0
   45.5560   35.7220   43.2450 C   0  0  0  0  0  0  0  0  0  0  0  0
   46.3830   34.6060   43.3060 C   0  0  0  0  0  0  0  0  0  0  0  0
   46.3300   33.8040   44.3980 N   0  0  0  0  0  0  0  0  0  0  0  0
   45.5040   34.0420   45.4340 C   0  0  0  0  0  0  0  0  0  0  0  0
   44.7060   35.1070   45.3920 N   0  0  0  0  0  0  0  0  0  0  0  0
   49.5137   29.6731   48.5387 H   0  0  0  0  0  0  0  0  0  0  0  0
   49.3958   31.9543   49.7571 H   0  0  0  0  0  0  0  0  0  0  0  0
   46.2389   28.9520   44.8561 H   0  0  0  0  0  0  0  0  0  0  0  0
   44.0339   36.8170   44.3303 H   0  0  0  0  0  0  0  0  0  0  0  0
   45.5683   36.3987   42.3779 H   0  0  0  0  0  0  0  0  0  0  0  0
   47.0713   34.3767   42.4792 H   0  0  0  0  0  0  0  0  0  0  0  0
  1  2  2  0
  3  4  1  0
  5  4  2  0
  6  5  1  0
  7  1  1  0
  7  6  2  0
  8  7  1  0
  9  8  2  0
  9 10  1  0
 10 11  2  0
 11  6  1  0
 11  3  1  0
 12 17  2  0
 13 14  2  0
 13 12  1  0
 14 15  1  0
 15 16  2  0
 16  1  1  0
 17 16  1  0
  3 18  1  0
  4 19  1  0
  9 20  1  0
 12 21  1  0
 13 22  1  0
 14 23  1  0
M  ISO  6  18   9  19  14  20  14  21  14  22  14  23  14
M  END
>  <minimizedAffinity>  (1) 
-4.76772594

>  <minimizedRMSD>  (1) 
1.00923479

$$$$
