
     RDKit          3D

 17 18  0  0  0  0  0  0  0  0999 V2000
   44.6990   35.9670   44.1810 C   0  0  0  0  0  0  0  0  0  0  0  0
   45.5750   35.5920   43.1220 C   0  0  0  0  0  0  0  0  0  0  0  0
   46.4040   34.4650   43.3090 C   0  0  0  0  0  0  0  0  0  0  0  0
   46.3120   33.8070   44.4970 N   0  0  0  0  0  0  0  0  0  0  0  0
   45.4710   34.1980   45.4690 C   0  0  0  0  0  0  0  0  0  0  0  0
   44.6760   35.2560   45.3220 N   0  0  0  0  0  0  0  0  0  0  0  0
   45.4410   33.4320   46.7050 C   0  0  0  0  0  0  0  0  0  0  0  0
   44.6190   33.6480   47.6500 O   0  0  0  0  0  0  0  0  0  0  0  0
   46.3850   32.3380   46.9360 C   0  0  0  0  0  0  0  0  0  0  0  0
   47.4450   32.4090   47.7620 N   0  0  0  0  0  0  0  0  0  0  0  0
   48.0840   31.2600   47.7400 O   0  0  0  0  0  0  0  0  0  0  0  0
   47.4990   30.4240   46.9380 C   0  0  0  0  0  0  0  0  0  0  0  0
   46.4240   31.0930   46.4240 N   0  0  0  0  0  0  0  0  0  0  0  0
   44.0400   36.8401   44.0650 H   0  0  0  0  0  0  0  0  0  0  0  0
   45.6046   36.1654   42.1837 H   0  0  0  0  0  0  0  0  0  0  0  0
   47.0984   34.1310   42.5240 H   0  0  0  0  0  0  0  0  0  0  0  0
   47.8052   29.3907   46.7176 H   0  0  0  0  0  0  0  0  0  0  0  0
  1  6  2  0
  2  3  2  0
  2  1  1  0
  3  4  1  0
  4  5  2  0
  5  7  1  0
  6  5  1  0
  7  9  1  0
  7  8  2  0
  9 10  2  0
 11 10  1  0
 12 11  1  0
 13  9  1  0
 13 12  2  0
  1 14  1  0
  2 15  1  0
  3 16  1  0
 12 17  1  0
M  ISO  4  14  14  15  14  16  14  17  14
M  END
>  <minimizedAffinity>  (1) 
-3.91145873

>  <minimizedRMSD>  (1) 
0.778247356

$$$$
