
     RDKit          3D

 34 36  0  0  0  0  0  0  0  0999 V2000
   45.9780   32.4170   46.9480 C   0  0  0  0  0  0  0  0  0  0  0  0
   47.2040   32.5080   47.5770 C   0  0  0  0  0  0  0  0  0  0  0  0
   47.8490   31.3660   48.0630 C   0  0  0  0  0  0  0  0  0  0  0  0
   47.2400   30.1270   47.9050 C   0  0  0  0  0  0  0  0  0  0  0  0
   46.0020   30.0690   47.2650 C   0  0  0  0  0  0  0  0  0  0  0  0
   45.4390   31.1930   46.8240 N   0  0  0  0  0  0  0  0  0  0  0  0
   45.2480   28.8850   47.0240 N   0  0  0  0  0  0  0  0  0  0  0  0
   45.0920   28.0020   48.0340 C   0  0  0  0  0  0  0  0  0  0  0  0
   44.3680   26.8530   47.8240 C   0  0  0  0  0  0  0  0  0  0  0  0
   44.1910   25.8690   48.9450 C   0  0  0  0  0  0  0  0  0  0  0  0
   43.8140   26.6250   46.5770 C   0  0  0  0  0  0  0  0  0  0  0  0
   43.1490   25.5740   46.3770 O   0  0  0  0  0  0  0  0  0  0  0  0
   43.9950   27.5390   45.5880 N   0  0  0  0  0  0  0  0  0  0  0  0
   44.7060   28.6710   45.7880 C   0  0  0  0  0  0  0  0  0  0  0  0
   44.8710   29.5170   44.8630 O   0  0  0  0  0  0  0  0  0  0  0  0
   45.3520   33.6460   46.4610 C   0  0  0  0  0  0  0  0  0  0  0  0
   44.5490   34.2080   47.2620 O   0  0  0  0  0  0  0  0  0  0  0  0
   45.2020   35.6230   43.3800 C   0  0  0  0  0  0  0  0  0  0  0  0
   46.2720   35.1080   42.6200 C   0  0  0  0  0  0  0  0  0  0  0  0
   47.0150   34.0830   43.2110 C   0  0  0  0  0  0  0  0  0  0  0  0
   46.6780   33.6460   44.4540 N   0  0  0  0  0  0  0  0  0  0  0  0
   45.6520   34.1590   45.1500 C   0  0  0  0  0  0  0  0  0  0  0  0
   44.9370   35.1330   44.6010 N   0  0  0  0  0  0  0  0  0  0  0  0
   47.6800   33.4923   47.6975 H   0  0  0  0  0  0  0  0  0  0  0  0
   48.8251   31.4476   48.5635 H   0  0  0  0  0  0  0  0  0  0  0  0
   47.7238   29.2117   48.2766 H   0  0  0  0  0  0  0  0  0  0  0  0
   45.5414   28.2012   49.0180 H   0  0  0  0  0  0  0  0  0  0  0  0
   44.2848   26.3906   49.9089 H   0  0  0  0  0  0  0  0  0  0  0  0
   43.1953   25.4069   48.8735 H   0  0  0  0  0  0  0  0  0  0  0  0
   44.9632   25.0889   48.8735 H   0  0  0  0  0  0  0  0  0  0  0  0
   43.5796   27.3647   44.6618 H   0  0  0  0  0  0  0  0  0  0  0  0
   44.5801   36.4320   42.9694 H   0  0  0  0  0  0  0  0  0  0  0  0
   46.5088   35.4921   41.6168 H   0  0  0  0  0  0  0  0  0  0  0  0
   47.8646   33.6337   42.6760 H   0  0  0  0  0  0  0  0  0  0  0  0
  1  2  2  0
  2  3  1  0
  4  3  2  0
  5  4  1  0
  6  1  1  0
  6  5  2  0
  7  5  1  0
  7  8  1  0
  9  8  2  0
  9 10  1  0
 11  9  1  0
 12 11  2  0
 13 14  1  0
 13 11  1  0
 14  7  1  0
 15 14  2  0
 16  1  1  0
 16 17  2  0
 18 23  2  0
 19 20  2  0
 19 18  1  0
 20 21  1  0
 21 22  2  0
 22 16  1  0
 23 22  1  0
  2 24  1  0
  3 25  1  0
  4 26  1  0
  8 27  1  0
 10 28  1  0
 10 29  1  0
 10 30  1  0
 13 31  1  0
 18 32  1  0
 19 33  1  0
 20 34  1  0
M  ISO  8  24  14  25  14  26  14  27  14  28   8  29   8  30   8  31   9
M  ISO  3  32  14  33  14  34  14
M  END
>  <minimizedAffinity>  (1) 
-5.62009621

>  <minimizedRMSD>  (1) 
1.08457017

$$$$
