
     RDKit          3D

 34 37  0  0  0  0  0  0  0  0999 V2000
   46.1680   32.1990   47.2030 C   0  0  0  0  0  0  0  0  0  0  0  0
   47.3770   32.3970   47.8770 C   0  0  0  0  0  0  0  0  0  0  0  0
   48.1280   31.3120   48.3300 C   0  0  0  0  0  0  0  0  0  0  0  0
   47.6440   30.0210   48.0930 C   0  0  0  0  0  0  0  0  0  0  0  0
   46.4450   29.8510   47.4240 C   0  0  0  0  0  0  0  0  0  0  0  0
   45.7670   30.9340   47.0130 N   0  0  0  0  0  0  0  0  0  0  0  0
   45.9890   28.5200   47.2060 N   0  0  0  0  0  0  0  0  0  0  0  0
   46.6030   27.3730   47.5600 C   0  0  0  0  0  0  0  0  0  0  0  0
   45.8490   26.3070   47.1750 N   0  0  0  0  0  0  0  0  0  0  0  0
   44.7590   26.7690   46.5760 C   0  0  0  0  0  0  0  0  0  0  0  0
   43.6470   26.2570   45.9860 C   0  0  0  0  0  0  0  0  0  0  0  0
   42.6540   26.9720   45.4350 N   0  0  0  0  0  0  0  0  0  0  0  0
   42.7600   28.3220   45.4670 C   0  0  0  0  0  0  0  0  0  0  0  0
   43.8380   28.8770   46.0370 N   0  0  0  0  0  0  0  0  0  0  0  0
   44.8300   28.1600   46.5870 C   0  0  0  0  0  0  0  0  0  0  0  0
   43.4840   24.8540   45.9270 N   0  0  0  0  0  0  0  0  0  0  0  0
   45.4290   33.3700   46.7550 C   0  0  0  0  0  0  0  0  0  0  0  0
   44.5910   33.8450   47.5550 O   0  0  0  0  0  0  0  0  0  0  0  0
   45.1330   35.4680   43.7580 C   0  0  0  0  0  0  0  0  0  0  0  0
   46.1640   35.0020   42.9320 C   0  0  0  0  0  0  0  0  0  0  0  0
   46.9430   33.9610   43.4420 C   0  0  0  0  0  0  0  0  0  0  0  0
   46.6630   33.4690   44.6850 N   0  0  0  0  0  0  0  0  0  0  0  0
   45.6660   33.9420   45.4490 C   0  0  0  0  0  0  0  0  0  0  0  0
   44.9210   34.9340   44.9650 N   0  0  0  0  0  0  0  0  0  0  0  0
   47.7403   33.4204   48.0521 H   0  0  0  0  0  0  0  0  0  0  0  0
   49.0785   31.4680   48.8611 H   0  0  0  0  0  0  0  0  0  0  0  0
   48.2140   29.1453   48.4369 H   0  0  0  0  0  0  0  0  0  0  0  0
   47.5691   27.3083   48.0820 H   0  0  0  0  0  0  0  0  0  0  0  0
   41.9721   28.9538   45.0311 H   0  0  0  0  0  0  0  0  0  0  0  0
   42.6465   24.4511   45.4830 H   0  0  0  0  0  0  0  0  0  0  0  0
   44.2027   24.2347   46.3280 H   0  0  0  0  0  0  0  0  0  0  0  0
   44.4873   36.2867   43.4077 H   0  0  0  0  0  0  0  0  0  0  0  0
   46.3498   35.4322   41.9368 H   0  0  0  0  0  0  0  0  0  0  0  0
   47.7709   33.5430   42.8506 H   0  0  0  0  0  0  0  0  0  0  0  0
  1  2  2  0
  2  3  1  0
  4  3  2  0
  5  4  1  0
  6  1  1  0
  6  5  2  0
  7  5  1  0
  7  8  1  0
  9  8  2  0
 10 15  2  0
 10  9  1  0
 11 10  1  0
 12 13  1  0
 12 11  2  0
 13 14  2  0
 14 15  1  0
 15  7  1  0
 16 11  1  0
 17  1  1  0
 17 18  2  0
 19 24  2  0
 20 21  2  0
 20 19  1  0
 21 22  1  0
 22 23  2  0
 23 17  1  0
 24 23  1  0
  2 25  1  0
  3 26  1  0
  4 27  1  0
  8 28  1  0
 13 29  1  0
 16 30  1  0
 16 31  1  0
 19 32  1  0
 20 33  1  0
 21 34  1  0
M  ISO  8  25  14  26  14  27  14  28  14  29  14  32  14  33  14  34  14
M  END
>  <minimizedAffinity>  (1) 
-5.51679897

>  <minimizedRMSD>  (1) 
0.640389979

$$$$
