
     RDKit          3D

 23 24  0  0  0  0  0  0  0  0999 V2000
   46.7940   34.8100   41.7150 C   0  0  0  0  0  0  0  0  0  0  0  0
   44.5350   36.0480   44.5160 C   0  0  0  0  0  0  0  0  0  0  0  0
   45.1730   36.0100   43.2750 C   0  0  0  0  0  0  0  0  0  0  0  0
   46.0540   34.9540   43.0100 C   0  0  0  0  0  0  0  0  0  0  0  0
   46.2510   34.0010   43.9720 N   0  0  0  0  0  0  0  0  0  0  0  0
   45.6040   34.0810   45.1670 C   0  0  0  0  0  0  0  0  0  0  0  0
   44.7570   35.0930   45.4330 N   0  0  0  0  0  0  0  0  0  0  0  0
   48.1820   35.4130   41.8360 C   0  0  0  0  0  0  0  0  0  0  0  0
   49.2540   34.4160   41.9310 C   0  0  0  0  0  0  0  0  0  0  0  0
   49.1840   33.2150   41.2160 C   0  0  0  0  0  0  0  0  0  0  0  0
   50.3100   32.4980   41.4990 N   0  0  0  0  0  0  0  0  0  0  0  0
   51.0540   33.2200   42.3560 C   0  0  0  0  0  0  0  0  0  0  0  0
   50.4000   34.3720   42.6040 N   0  0  0  0  0  0  0  0  0  0  0  0
   46.2397   35.3300   40.9197 H   0  0  0  0  0  0  0  0  0  0  0  0
   46.8863   33.7415   41.4706 H   0  0  0  0  0  0  0  0  0  0  0  0
   43.8417   36.8707   44.7454 H   0  0  0  0  0  0  0  0  0  0  0  0
   44.9881   36.7911   42.5229 H   0  0  0  0  0  0  0  0  0  0  0  0
   45.7762   33.3057   45.9281 H   0  0  0  0  0  0  0  0  0  0  0  0
   48.3671   36.0381   40.9500 H   0  0  0  0  0  0  0  0  0  0  0  0
   48.1994   35.9925   42.7708 H   0  0  0  0  0  0  0  0  0  0  0  0
   48.3682   32.9048   40.5465 H   0  0  0  0  0  0  0  0  0  0  0  0
   52.0247   32.9227   42.7796 H   0  0  0  0  0  0  0  0  0  0  0  0
   50.7411   35.1162   43.2291 H   0  0  0  0  0  0  0  0  0  0  0  0
  1  8  1  0
  1  4  1  0
  2  7  2  0
  3  2  1  0
  4  3  2  0
  4  5  1  0
  5  6  2  0
  6  7  1  0
  8  9  1  0
  9 13  1  0
 10 11  1  0
 10  9  2  0
 11 12  2  0
 12 13  1  0
  1 14  1  0
  1 15  1  0
  2 16  1  0
  3 17  1  0
  6 18  1  0
  8 19  1  0
  8 20  1  0
 10 21  1  0
 12 22  1  0
 13 23  1  0
M  ISO  8  14   8  15   8  16  14  17  14  18  14  19   8  20   8  21  14
M  ISO  2  22  14  23   9
M  END
>  <minimizedAffinity>  (1) 
-4.59852171

>  <minimizedRMSD>  (1) 
1.31252539

$$$$
