
     RDKit          3D

 27 28  0  0  0  0  0  0  0  0999 V2000
   46.1480   32.3750   47.1180 C   0  0  0  0  0  0  0  0  0  0  0  0
   47.2980   32.5940   47.8490 C   0  0  0  0  0  0  0  0  0  0  0  0
   48.0030   31.5160   48.4000 C   0  0  0  0  0  0  0  0  0  0  0  0
   47.5390   30.2250   48.2080 C   0  0  0  0  0  0  0  0  0  0  0  0
   46.3890   30.0410   47.4750 C   0  0  0  0  0  0  0  0  0  0  0  0
   45.7480   31.1000   46.9680 N   0  0  0  0  0  0  0  0  0  0  0  0
   45.4430   33.5170   46.5620 C   0  0  0  0  0  0  0  0  0  0  0  0
   44.5660   34.0450   47.2900 O   0  0  0  0  0  0  0  0  0  0  0  0
   45.3110   35.4200   43.4230 C   0  0  0  0  0  0  0  0  0  0  0  0
   46.3850   34.9090   42.6950 C   0  0  0  0  0  0  0  0  0  0  0  0
   47.1270   33.9190   43.3110 C   0  0  0  0  0  0  0  0  0  0  0  0
   46.7960   33.4900   44.5640 N   0  0  0  0  0  0  0  0  0  0  0  0
   45.7460   34.0130   45.2350 C   0  0  0  0  0  0  0  0  0  0  0  0
   45.0220   34.9660   44.6570 N   0  0  0  0  0  0  0  0  0  0  0  0
   45.7210   28.7550   47.1510 C   0  0  0  0  0  0  0  0  0  0  0  0
   44.4300   28.9310   46.4200 C   0  0  0  0  0  0  0  0  0  0  0  0
   47.6630   33.6206   47.9998 H   0  0  0  0  0  0  0  0  0  0  0  0
   48.9196   31.6937   48.9816 H   0  0  0  0  0  0  0  0  0  0  0  0
   48.0783   29.3653   48.6324 H   0  0  0  0  0  0  0  0  0  0  0  0
   44.6872   36.2102   42.9799 H   0  0  0  0  0  0  0  0  0  0  0  0
   46.6282   35.2737   41.6861 H   0  0  0  0  0  0  0  0  0  0  0  0
   47.9877   33.4749   42.7895 H   0  0  0  0  0  0  0  0  0  0  0  0
   46.3990   28.1569   46.5244 H   0  0  0  0  0  0  0  0  0  0  0  0
   45.4919   28.2560   48.1042 H   0  0  0  0  0  0  0  0  0  0  0  0
   43.6104   29.0427   47.1451 H   0  0  0  0  0  0  0  0  0  0  0  0
   44.4859   29.8298   45.7884 H   0  0  0  0  0  0  0  0  0  0  0  0
   44.2432   28.0500   45.7884 H   0  0  0  0  0  0  0  0  0  0  0  0
  1  2  2  0
  2  3  1  0
  4  3  2  0
  5  4  1  0
  6  1  1  0
  6  5  2  0
  7  1  1  0
  7  8  2  0
  9 14  2  0
 10 11  2  0
 10  9  1  0
 11 12  1  0
 12 13  2  0
 13  7  1  0
 14 13  1  0
 15  5  1  0
 16 15  1  0
  2 17  1  0
  3 18  1  0
  4 19  1  0
  9 20  1  0
 10 21  1  0
 11 22  1  0
 15 23  1  0
 15 24  1  0
 16 25  1  0
 16 26  1  0
 16 27  1  0
M  ISO  8  17  14  18  14  19  14  20  14  21  14  22  14  23   8  24   8
M  ISO  3  25   8  26   8  27   8
M  END
>  <minimizedAffinity>  (1) 
-4.43785238

>  <minimizedRMSD>  (1) 
0.595508635

$$$$
