
     RDKit          3D

 27 28  0  0  0  0  0  0  0  0999 V2000
   47.9610   33.5880   41.7050 C   0  0  0  0  0  0  0  0  0  0  0  0
   48.3250   33.3820   40.2980 N   0  0  0  0  0  0  0  0  0  0  0  0
   47.9420   34.3200   39.4060 C   0  0  0  0  0  0  0  0  0  0  0  0
   48.2260   34.2330   38.0730 C   0  0  0  0  0  0  0  0  0  0  0  0
   48.9450   33.0960   37.6960 C   0  0  0  0  0  0  0  0  0  0  0  0
   49.2670   32.9620   36.2980 N   0  0  0  0  0  0  0  0  0  0  0  0
   49.3200   32.1750   38.5820 N   0  0  0  0  0  0  0  0  0  0  0  0
   49.0170   32.3040   39.8860 C   0  0  0  0  0  0  0  0  0  0  0  0
   49.3710   31.4310   40.7350 O   0  0  0  0  0  0  0  0  0  0  0  0
   47.1390   34.8900   41.7460 C   0  0  0  0  0  0  0  0  0  0  0  0
   44.5950   35.8430   44.4000 C   0  0  0  0  0  0  0  0  0  0  0  0
   45.3360   35.8820   43.2000 C   0  0  0  0  0  0  0  0  0  0  0  0
   46.3110   34.9190   42.9900 C   0  0  0  0  0  0  0  0  0  0  0  0
   46.5180   33.9700   43.9550 N   0  0  0  0  0  0  0  0  0  0  0  0
   45.7970   33.9580   45.0900 C   0  0  0  0  0  0  0  0  0  0  0  0
   44.8410   34.8800   45.3220 N   0  0  0  0  0  0  0  0  0  0  0  0
   48.8656   33.6877   42.3229 H   0  0  0  0  0  0  0  0  0  0  0  0
   47.3871   32.7372   42.1009 H   0  0  0  0  0  0  0  0  0  0  0  0
   47.3771   35.1916   39.7682 H   0  0  0  0  0  0  0  0  0  0  0  0
   47.9122   35.0006   37.3503 H   0  0  0  0  0  0  0  0  0  0  0  0
   49.7957   32.1421   35.9676 H   0  0  0  0  0  0  0  0  0  0  0  0
   48.9685   33.6861   35.6291 H   0  0  0  0  0  0  0  0  0  0  0  0
   47.8201   35.7537   41.7389 H   0  0  0  0  0  0  0  0  0  0  0  0
   46.4800   34.9348   40.8664 H   0  0  0  0  0  0  0  0  0  0  0  0
   43.8155   36.5960   44.5880 H   0  0  0  0  0  0  0  0  0  0  0  0
   45.1441   36.6603   42.4467 H   0  0  0  0  0  0  0  0  0  0  0  0
   45.9909   33.1808   45.8439 H   0  0  0  0  0  0  0  0  0  0  0  0
  1 10  1  0
  2  1  1  0
  3  2  1  0
  4  3  2  0
  5  4  1  0
  5  7  2  0
  6  5  1  0
  7  8  1  0
  8  2  1  0
  8  9  2  0
 10 13  1  0
 11 16  2  0
 12 11  1  0
 13 12  2  0
 13 14  1  0
 14 15  2  0
 15 16  1  0
  1 17  1  0
  1 18  1  0
  3 19  1  0
  4 20  1  0
  6 21  1  0
  6 22  1  0
 10 23  1  0
 10 24  1  0
 11 25  1  0
 12 26  1  0
 15 27  1  0
M  ISO  8  17   8  18   8  19  14  20  14  23   8  24   8  25  14  26  14
M  ISO  1  27  14
M  END
>  <minimizedAffinity>  (1) 
-4.59484196

>  <minimizedRMSD>  (1) 
1.51375413

$$$$
