
     RDKit          3D

 42 46  0  0  0  0  0  0  0  0999 V2000
   45.0780   35.5490   43.5200 C   0  0  0  0  0  0  0  0  0  0  0  0
   46.1850   35.1150   42.7900 C   0  0  0  0  0  0  0  0  0  0  0  0
   47.0070   34.1660   43.3530 C   0  0  0  0  0  0  0  0  0  0  0  0
   46.6760   33.7060   44.6140 N   0  0  0  0  0  0  0  0  0  0  0  0
   45.6160   34.1300   45.3000 C   0  0  0  0  0  0  0  0  0  0  0  0
   44.8430   35.0380   44.7400 N   0  0  0  0  0  0  0  0  0  0  0  0
   48.2390   33.6150   42.8330 C   0  0  0  0  0  0  0  0  0  0  0  0
   49.3840   34.4260   42.9150 C   0  0  0  0  0  0  0  0  0  0  0  0
   50.6380   34.0630   42.4840 C   0  0  0  0  0  0  0  0  0  0  0  0
   50.8330   32.8300   41.9290 C   0  0  0  0  0  0  0  0  0  0  0  0
   49.7640   31.9910   41.8220 C   0  0  0  0  0  0  0  0  0  0  0  0
   49.9230   30.7260   41.3010 C   0  0  0  0  0  0  0  0  0  0  0  0
   48.8750   29.8050   41.2010 C   0  0  0  0  0  0  0  0  0  0  0  0
   47.6480   30.2520   41.6650 C   0  0  0  0  0  0  0  0  0  0  0  0
   47.5150   31.5060   42.1740 C   0  0  0  0  0  0  0  0  0  0  0  0
   48.5430   32.4070   42.2690 C   0  0  0  0  0  0  0  0  0  0  0  0
   45.3530   33.5860   46.6070 C   0  0  0  0  0  0  0  0  0  0  0  0
   44.5200   34.1120   47.4050 O   0  0  0  0  0  0  0  0  0  0  0  0
   46.0400   32.3840   47.0920 C   0  0  0  0  0  0  0  0  0  0  0  0
   47.2510   32.5240   47.7170 C   0  0  0  0  0  0  0  0  0  0  0  0
   47.9080   31.3680   48.1840 C   0  0  0  0  0  0  0  0  0  0  0  0
   47.3440   30.1240   48.0160 C   0  0  0  0  0  0  0  0  0  0  0  0
   46.1320   30.0350   47.3850 C   0  0  0  0  0  0  0  0  0  0  0  0
   45.5310   31.1520   46.9500 N   0  0  0  0  0  0  0  0  0  0  0  0
   45.4480   28.7550   47.1540 C   0  0  0  0  0  0  0  0  0  0  0  0
   44.3180   28.6760   46.4470 N   0  0  0  0  0  0  0  0  0  0  0  0
   43.9200   27.4510   46.3890 O   0  0  0  0  0  0  0  0  0  0  0  0
   44.7590   26.6590   47.0490 C   0  0  0  0  0  0  0  0  0  0  0  0
   45.7350   27.4790   47.5400 N   0  0  0  0  0  0  0  0  0  0  0  0
   44.4006   36.3063   43.0984 H   0  0  0  0  0  0  0  0  0  0  0  0
   46.3953   35.5213   41.7896 H   0  0  0  0  0  0  0  0  0  0  0  0
   49.2680   35.4265   43.3573 H   0  0  0  0  0  0  0  0  0  0  0  0
   51.4809   34.7625   42.5856 H   0  0  0  0  0  0  0  0  0  0  0  0
   51.8285   32.5217   41.5770 H   0  0  0  0  0  0  0  0  0  0  0  0
   50.9204   30.4261   40.9471 H   0  0  0  0  0  0  0  0  0  0  0  0
   49.0149   28.7970   40.7835 H   0  0  0  0  0  0  0  0  0  0  0  0
   46.7735   29.5862   41.6212 H   0  0  0  0  0  0  0  0  0  0  0  0
   46.5218   31.8159   42.5312 H   0  0  0  0  0  0  0  0  0  0  0  0
   47.7014   33.5185   47.8516 H   0  0  0  0  0  0  0  0  0  0  0  0
   48.8814   31.4610   48.6879 H   0  0  0  0  0  0  0  0  0  0  0  0
   47.8556   29.2210   48.3806 H   0  0  0  0  0  0  0  0  0  0  0  0
   44.6831   25.5688   47.1740 H   0  0  0  0  0  0  0  0  0  0  0  0
  1  6  2  0
  2  3  2  0
  2  1  1  0
  3  4  1  0
  4  5  2  0
  5 17  1  0
  6  5  1  0
  7  8  2  0
  7  3  1  0
  9  8  1  0
 10  9  2  0
 11 10  1  0
 11 16  2  0
 12 11  1  0
 13 12  2  0
 13 14  1  0
 14 15  2  0
 15 16  1  0
 16  7  1  0
 17 19  1  0
 17 18  2  0
 19 20  2  0
 20 21  1  0
 22 21  2  0
 23 22  1  0
 24 19  1  0
 24 23  2  0
 25 23  1  0
 25 29  1  0
 26 25  2  0
 27 26  1  0
 27 28  1  0
 28 29  2  0
  1 30  1  0
  2 31  1  0
  8 32  1  0
  9 33  1  0
 10 34  1  0
 12 35  1  0
 13 36  1  0
 14 37  1  0
 15 38  1  0
 20 39  1  0
 21 40  1  0
 22 41  1  0
 28 42  1  0
M  ISO  8  30  14  31  14  32  14  33  14  34  14  35  14  36  14  37  14
M  ISO  5  38  14  39  14  40  14  41  14  42  14
M  END
>  <minimizedAffinity>  (1) 
-6.45850563

>  <minimizedRMSD>  (1) 
1.02887797

$$$$
