
     RDKit          3D

 40 44  0  0  0  0  0  0  0  0999 V2000
   44.9840   35.7160   43.9340 C   0  0  0  0  0  0  0  0  0  0  0  0
   45.9580   35.2310   43.0620 C   0  0  0  0  0  0  0  0  0  0  0  0
   46.7050   34.1400   43.4830 C   0  0  0  0  0  0  0  0  0  0  0  0
   46.4190   33.6300   44.7240 N   0  0  0  0  0  0  0  0  0  0  0  0
   45.4860   34.1110   45.5370 C   0  0  0  0  0  0  0  0  0  0  0  0
   44.7720   35.1520   45.1370 N   0  0  0  0  0  0  0  0  0  0  0  0
   47.6930   33.7020   42.5230 C   0  0  0  0  0  0  0  0  0  0  0  0
   48.9970   33.5710   42.8530 N   0  0  0  0  0  0  0  0  0  0  0  0
   49.9580   33.1760   42.0300 C   0  0  0  0  0  0  0  0  0  0  0  0
   49.7200   32.8570   40.7470 N   0  0  0  0  0  0  0  0  0  0  0  0
   48.4510   32.9510   40.3090 C   0  0  0  0  0  0  0  0  0  0  0  0
   48.1550   32.6360   39.0040 C   0  0  0  0  0  0  0  0  0  0  0  0
   46.8690   32.7190   38.5140 C   0  0  0  0  0  0  0  0  0  0  0  0
   45.8870   33.1370   39.4070 C   0  0  0  0  0  0  0  0  0  0  0  0
   46.2210   33.4420   40.6960 C   0  0  0  0  0  0  0  0  0  0  0  0
   47.4950   33.3660   41.2050 C   0  0  0  0  0  0  0  0  0  0  0  0
   45.2980   33.4860   46.8090 C   0  0  0  0  0  0  0  0  0  0  0  0
   44.4690   33.9440   47.6720 O   0  0  0  0  0  0  0  0  0  0  0  0
   46.0310   32.2840   47.2210 C   0  0  0  0  0  0  0  0  0  0  0  0
   47.2740   32.4280   47.7890 C   0  0  0  0  0  0  0  0  0  0  0  0
   47.9680   31.2800   48.1750 C   0  0  0  0  0  0  0  0  0  0  0  0
   47.4260   30.0260   47.9930 C   0  0  0  0  0  0  0  0  0  0  0  0
   46.1710   29.9300   47.4170 C   0  0  0  0  0  0  0  0  0  0  0  0
   45.5180   31.0390   47.0510 N   0  0  0  0  0  0  0  0  0  0  0  0
   45.5100   28.6550   47.1890 C   0  0  0  0  0  0  0  0  0  0  0  0
   44.3450   28.5730   46.5140 N   0  0  0  0  0  0  0  0  0  0  0  0
   43.9690   27.3260   46.4560 O   0  0  0  0  0  0  0  0  0  0  0  0
   44.8450   26.5450   47.0740 C   0  0  0  0  0  0  0  0  0  0  0  0
   45.8240   27.3760   47.5400 N   0  0  0  0  0  0  0  0  0  0  0  0
   44.3745   36.5802   43.6312 H   0  0  0  0  0  0  0  0  0  0  0  0
   46.1275   35.6949   42.0791 H   0  0  0  0  0  0  0  0  0  0  0  0
   50.9875   33.1069   42.4113 H   0  0  0  0  0  0  0  0  0  0  0  0
   48.9642   32.3097   38.3342 H   0  0  0  0  0  0  0  0  0  0  0  0
   46.6312   32.4675   37.4699 H   0  0  0  0  0  0  0  0  0  0  0  0
   44.8418   33.2218   39.0749 H   0  0  0  0  0  0  0  0  0  0  0  0
   45.4169   33.7701   41.3711 H   0  0  0  0  0  0  0  0  0  0  0  0
   47.7125   33.4260   47.9363 H   0  0  0  0  0  0  0  0  0  0  0  0
   48.9638   31.3778   48.6319 H   0  0  0  0  0  0  0  0  0  0  0  0
   47.9769   29.1240   48.2978 H   0  0  0  0  0  0  0  0  0  0  0  0
   44.7937   25.4521   47.1879 H   0  0  0  0  0  0  0  0  0  0  0  0
  1  6  2  0
  2  3  2  0
  2  1  1  0
  3  4  1  0
  4  5  2  0
  5 17  1  0
  6  5  1  0
  7  8  2  0
  7  3  1  0
  9  8  1  0
 10  9  2  0
 11 10  1  0
 11 16  2  0
 12 11  1  0
 13 12  2  0
 13 14  1  0
 14 15  2  0
 15 16  1  0
 16  7  1  0
 17 19  1  0
 17 18  2  0
 19 20  2  0
 20 21  1  0
 22 21  2  0
 23 22  1  0
 24 19  1  0
 24 23  2  0
 25 23  1  0
 25 29  1  0
 26 25  2  0
 27 26  1  0
 27 28  1  0
 28 29  2  0
  1 30  1  0
  2 31  1  0
  9 32  1  0
 12 33  1  0
 13 34  1  0
 14 35  1  0
 15 36  1  0
 20 37  1  0
 21 38  1  0
 22 39  1  0
 28 40  1  0
M  ISO  8  30  14  31  14  32  14  33  14  34  14  35  14  36  14  37  14
M  ISO  3  38  14  39  14  40  14
M  END
>  <minimizedAffinity>  (1) 
-6.10717106

>  <minimizedRMSD>  (1) 
0.515574753

$$$$
