
     RDKit          3D

 36 39  0  0  0  0  0  0  0  0999 V2000
   45.3550   33.6230   46.5060 C   0  0  0  0  0  0  0  0  0  0  0  0
   44.4960   34.2260   47.2340 O   0  0  0  0  0  0  0  0  0  0  0  0
   45.9540   32.4210   47.0830 C   0  0  0  0  0  0  0  0  0  0  0  0
   47.1510   32.5530   47.7780 C   0  0  0  0  0  0  0  0  0  0  0  0
   47.7120   31.3930   48.3240 C   0  0  0  0  0  0  0  0  0  0  0  0
   47.1070   30.1570   48.1850 C   0  0  0  0  0  0  0  0  0  0  0  0
   45.9310   30.0900   47.4900 C   0  0  0  0  0  0  0  0  0  0  0  0
   45.4000   31.2040   46.9710 N   0  0  0  0  0  0  0  0  0  0  0  0
   45.2050   28.8360   47.2810 C   0  0  0  0  0  0  0  0  0  0  0  0
   44.2440   28.7170   46.3570 N   0  0  0  0  0  0  0  0  0  0  0  0
   43.7650   27.5120   46.3780 O   0  0  0  0  0  0  0  0  0  0  0  0
   44.3780   26.7860   47.3050 C   0  0  0  0  0  0  0  0  0  0  0  0
   45.2850   27.6160   47.8760 N   0  0  0  0  0  0  0  0  0  0  0  0
   45.3200   35.4160   43.3050 C   0  0  0  0  0  0  0  0  0  0  0  0
   46.4870   34.9610   42.6870 C   0  0  0  0  0  0  0  0  0  0  0  0
   47.2410   34.0560   43.3900 C   0  0  0  0  0  0  0  0  0  0  0  0
   46.8380   33.6510   44.6230 N   0  0  0  0  0  0  0  0  0  0  0  0
   45.7010   34.1090   45.2000 C   0  0  0  0  0  0  0  0  0  0  0  0
   44.9530   34.9820   44.5440 N   0  0  0  0  0  0  0  0  0  0  0  0
   48.4850   33.4820   42.8930 C   0  0  0  0  0  0  0  0  0  0  0  0
   48.5110   32.1520   42.5370 C   0  0  0  0  0  0  0  0  0  0  0  0
   49.6750   31.5550   42.0550 C   0  0  0  0  0  0  0  0  0  0  0  0
   50.8480   32.2910   41.9210 C   0  0  0  0  0  0  0  0  0  0  0  0
   50.8290   33.6340   42.2800 C   0  0  0  0  0  0  0  0  0  0  0  0
   49.6560   34.1880   42.7510 C   0  0  0  0  0  0  0  0  0  0  0  0
   47.6386   33.5322   47.8943 H   0  0  0  0  0  0  0  0  0  0  0  0
   48.6592   31.4661   48.8784 H   0  0  0  0  0  0  0  0  0  0  0  0
   47.5588   29.2538   48.6210 H   0  0  0  0  0  0  0  0  0  0  0  0
   44.1895   25.7320   47.5570 H   0  0  0  0  0  0  0  0  0  0  0  0
   44.6820   36.1417   42.7794 H   0  0  0  0  0  0  0  0  0  0  0  0
   46.7861   35.3105   41.6878 H   0  0  0  0  0  0  0  0  0  0  0  0
   47.5961   31.5492   42.6348 H   0  0  0  0  0  0  0  0  0  0  0  0
   49.6659   30.4906   41.7777 H   0  0  0  0  0  0  0  0  0  0  0  0
   51.7674   31.8221   41.5405 H   0  0  0  0  0  0  0  0  0  0  0  0
   51.7376   34.2474   42.1898 H   0  0  0  0  0  0  0  0  0  0  0  0
   49.6582   35.2526   43.0279 H   0  0  0  0  0  0  0  0  0  0  0  0
  1  3  1  0
  1  2  2  0
  3  4  2  0
  4  5  1  0
  6  5  2  0
  7  6  1  0
  8  3  1  0
  8  7  2  0
  9  7  1  0
  9 13  1  0
 10 11  1  0
 10  9  2  0
 11 12  1  0
 12 13  2  0
 14 19  2  0
 15 14  1  0
 15 16  2  0
 16 17  1  0
 17 18  2  0
 18  1  1  0
 19 18  1  0
 20 16  1  0
 21 20  2  0
 22 21  1  0
 23 22  2  0
 23 24  1  0
 24 25  2  0
 25 20  1  0
  4 26  1  0
  5 27  1  0
  6 28  1  0
 12 29  1  0
 14 30  1  0
 15 31  1  0
 21 32  1  0
 22 33  1  0
 23 34  1  0
 24 35  1  0
 25 36  1  0
M  ISO  8  26  14  27  14  28  14  29  14  30  14  31  14  32  14  33  14
M  ISO  3  34  14  35  14  36  14
M  END
>  <minimizedAffinity>  (1) 
-6.1243968

>  <minimizedRMSD>  (1) 
0.767048538

$$$$
