
     RDKit          3D

 37 41  0  0  0  0  0  0  0  0999 V2000
   45.2400   35.4310   43.3970 C   0  0  0  0  0  0  0  0  0  0  0  0
   46.4250   35.0300   42.7340 C   0  0  0  0  0  0  0  0  0  0  0  0
   47.2250   34.1310   43.3930 C   0  0  0  0  0  0  0  0  0  0  0  0
   46.8650   33.6660   44.6290 N   0  0  0  0  0  0  0  0  0  0  0  0
   45.7260   34.0710   45.2320 C   0  0  0  0  0  0  0  0  0  0  0  0
   44.9200   34.9430   44.6250 N   0  0  0  0  0  0  0  0  0  0  0  0
   48.4210   33.7130   42.7450 N   0  0  0  0  0  0  0  0  0  0  0  0
   49.5950   34.3960   42.8410 C   0  0  0  0  0  0  0  0  0  0  0  0
   50.5730   33.8070   42.1450 N   0  0  0  0  0  0  0  0  0  0  0  0
   50.0250   32.7150   41.5830 C   0  0  0  0  0  0  0  0  0  0  0  0
   50.5340   31.7310   40.7670 C   0  0  0  0  0  0  0  0  0  0  0  0
   49.6870   30.7470   40.3690 N   0  0  0  0  0  0  0  0  0  0  0  0
   48.3980   30.7110   40.7410 C   0  0  0  0  0  0  0  0  0  0  0  0
   47.8650   31.6720   41.5500 N   0  0  0  0  0  0  0  0  0  0  0  0
   48.6970   32.6650   41.9590 C   0  0  0  0  0  0  0  0  0  0  0  0
   45.4140   33.5400   46.5290 C   0  0  0  0  0  0  0  0  0  0  0  0
   44.5460   34.0840   47.2930 O   0  0  0  0  0  0  0  0  0  0  0  0
   46.0670   32.3430   47.0630 C   0  0  0  0  0  0  0  0  0  0  0  0
   47.2510   32.4880   47.7440 C   0  0  0  0  0  0  0  0  0  0  0  0
   47.8750   31.3390   48.2530 C   0  0  0  0  0  0  0  0  0  0  0  0
   47.3140   30.0840   48.0780 C   0  0  0  0  0  0  0  0  0  0  0  0
   46.1210   29.9930   47.3850 C   0  0  0  0  0  0  0  0  0  0  0  0
   45.5480   31.1100   46.9080 N   0  0  0  0  0  0  0  0  0  0  0  0
   45.4430   28.7270   47.1400 C   0  0  0  0  0  0  0  0  0  0  0  0
   44.2950   28.6450   46.4480 N   0  0  0  0  0  0  0  0  0  0  0  0
   43.9090   27.4110   46.3780 O   0  0  0  0  0  0  0  0  0  0  0  0
   44.7600   26.6260   47.0050 C   0  0  0  0  0  0  0  0  0  0  0  0
   45.7440   27.4410   47.4980 N   0  0  0  0  0  0  0  0  0  0  0  0
   44.5658   36.1506   42.9096 H   0  0  0  0  0  0  0  0  0  0  0  0
   46.6910   35.4197   41.7403 H   0  0  0  0  0  0  0  0  0  0  0  0
   49.7235   35.3214   43.4216 H   0  0  0  0  0  0  0  0  0  0  0  0
   51.5870   31.7410   40.4491 H   0  0  0  0  0  0  0  0  0  0  0  0
   47.7579   29.8897   40.3864 H   0  0  0  0  0  0  0  0  0  0  0  0
   47.6997   33.4821   47.8870 H   0  0  0  0  0  0  0  0  0  0  0  0
   48.8246   31.4359   48.7997 H   0  0  0  0  0  0  0  0  0  0  0  0
   47.8043   29.1849   48.4794 H   0  0  0  0  0  0  0  0  0  0  0  0
   44.6938   25.5332   47.1116 H   0  0  0  0  0  0  0  0  0  0  0  0
  1  6  2  0
  2  3  2  0
  2  1  1  0
  3  4  1  0
  4  5  2  0
  5 16  1  0
  6  5  1  0
  7  8  1  0
  7  3  1  0
  9  8  2  0
 10 15  2  0
 10  9  1  0
 11 10  1  0
 12 13  1  0
 12 11  2  0
 13 14  2  0
 14 15  1  0
 15  7  1  0
 16 18  1  0
 16 17  2  0
 18 19  2  0
 19 20  1  0
 21 20  2  0
 22 21  1  0
 23 18  1  0
 23 22  2  0
 24 22  1  0
 24 28  1  0
 25 24  2  0
 26 25  1  0
 26 27  1  0
 27 28  2  0
  1 29  1  0
  2 30  1  0
  8 31  1  0
 11 32  1  0
 13 33  1  0
 19 34  1  0
 20 35  1  0
 21 36  1  0
 27 37  1  0
M  ISO  8  29  14  30  14  31  14  32  14  33  14  34  14  35  14  36  14
M  ISO  1  37  14
M  END
>  <minimizedAffinity>  (1) 
-5.99745607

>  <minimizedRMSD>  (1) 
0.577971995

$$$$
