
     RDKit          3D

 31 34  0  0  0  0  0  0  0  0999 V2000
   45.4830   33.6890   46.0810 C   0  0  0  0  0  0  0  0  0  0  0  0
   44.6550   34.3870   46.7400 O   0  0  0  0  0  0  0  0  0  0  0  0
   46.0360   32.5200   46.7860 C   0  0  0  0  0  0  0  0  0  0  0  0
   47.1740   32.6770   47.5380 C   0  0  0  0  0  0  0  0  0  0  0  0
   47.6920   31.5570   48.2050 C   0  0  0  0  0  0  0  0  0  0  0  0
   47.0760   30.3240   48.1100 C   0  0  0  0  0  0  0  0  0  0  0  0
   45.9340   30.2120   47.3450 C   0  0  0  0  0  0  0  0  0  0  0  0
   45.4570   31.3030   46.7140 N   0  0  0  0  0  0  0  0  0  0  0  0
   45.2140   28.9600   47.1850 C   0  0  0  0  0  0  0  0  0  0  0  0
   44.2160   28.8260   46.3060 N   0  0  0  0  0  0  0  0  0  0  0  0
   43.7350   27.6290   46.3470 O   0  0  0  0  0  0  0  0  0  0  0  0
   44.3850   26.9080   47.2500 C   0  0  0  0  0  0  0  0  0  0  0  0
   45.3210   27.7470   47.7810 N   0  0  0  0  0  0  0  0  0  0  0  0
   45.3830   34.8380   42.6120 C   0  0  0  0  0  0  0  0  0  0  0  0
   46.6820   34.5880   42.1520 C   0  0  0  0  0  0  0  0  0  0  0  0
   47.5480   34.0310   43.0620 C   0  0  0  0  0  0  0  0  0  0  0  0
   47.1290   33.7500   44.3320 N   0  0  0  0  0  0  0  0  0  0  0  0
   45.8690   34.0070   44.7300 C   0  0  0  0  0  0  0  0  0  0  0  0
   45.0110   34.5450   43.8730 N   0  0  0  0  0  0  0  0  0  0  0  0
   48.9410   33.7100   42.7380 C   0  0  0  0  0  0  0  0  0  0  0  0
   50.0730   34.4340   42.6060 N   0  0  0  0  0  0  0  0  0  0  0  0
   51.0400   33.6060   42.3000 O   0  0  0  0  0  0  0  0  0  0  0  0
   50.5690   32.3880   42.2320 C   0  0  0  0  0  0  0  0  0  0  0  0
   49.2470   32.4260   42.5040 N   0  0  0  0  0  0  0  0  0  0  0  0
   47.6674   33.6571   47.6155 H   0  0  0  0  0  0  0  0  0  0  0  0
   48.6026   31.6620   48.8130 H   0  0  0  0  0  0  0  0  0  0  0  0
   47.4882   29.4491   48.6341 H   0  0  0  0  0  0  0  0  0  0  0  0
   44.2072   25.8554   47.5152 H   0  0  0  0  0  0  0  0  0  0  0  0
   44.6481   35.2849   41.9263 H   0  0  0  0  0  0  0  0  0  0  0  0
   46.9908   34.8236   41.1229 H   0  0  0  0  0  0  0  0  0  0  0  0
   51.1511   31.4856   41.9936 H   0  0  0  0  0  0  0  0  0  0  0  0
  1  2  2  0
  1  3  1  0
  3  4  2  0
  4  5  1  0
  6  5  2  0
  7  6  1  0
  8  3  1  0
  8  7  2  0
  9  7  1  0
  9 13  1  0
 10 11  1  0
 10  9  2  0
 11 12  1  0
 12 13  2  0
 14 19  2  0
 15 14  1  0
 15 16  2  0
 16 17  1  0
 17 18  2  0
 18  1  1  0
 19 18  1  0
 20 16  1  0
 21 20  2  0
 22 21  1  0
 23 22  1  0
 23 24  2  0
 24 20  1  0
  4 25  1  0
  5 26  1  0
  6 27  1  0
 12 28  1  0
 14 29  1  0
 15 30  1  0
 23 31  1  0
M  ISO  7  25  14  26  14  27  14  28  14  29  14  30  14  31  14
M  END
>  <minimizedAffinity>  (1) 
-5.60765839

>  <minimizedRMSD>  (1) 
0.956270099

$$$$
