
     RDKit          3D

 33 36  0  0  0  0  0  0  0  0999 V2000
   45.9870   32.4160   47.0650 C   0  0  0  0  0  0  0  0  0  0  0  0
   47.1520   32.5420   47.7950 C   0  0  0  0  0  0  0  0  0  0  0  0
   47.6990   31.3950   48.3870 C   0  0  0  0  0  0  0  0  0  0  0  0
   47.0860   30.1590   48.2440 C   0  0  0  0  0  0  0  0  0  0  0  0
   45.9370   30.0850   47.5150 C   0  0  0  0  0  0  0  0  0  0  0  0
   45.4190   31.1890   46.9500 N   0  0  0  0  0  0  0  0  0  0  0  0
   45.2050   28.8290   47.2990 C   0  0  0  0  0  0  0  0  0  0  0  0
   44.2420   28.7160   46.3590 N   0  0  0  0  0  0  0  0  0  0  0  0
   43.7790   27.5040   46.4010 O   0  0  0  0  0  0  0  0  0  0  0  0
   44.3730   26.7830   47.3170 C   0  0  0  0  0  0  0  0  0  0  0  0
   45.2750   27.6120   47.8900 N   0  0  0  0  0  0  0  0  0  0  0  0
   45.4130   33.6040   46.4470 C   0  0  0  0  0  0  0  0  0  0  0  0
   44.5370   34.2280   47.1370 O   0  0  0  0  0  0  0  0  0  0  0  0
   45.4740   35.3350   43.2170 C   0  0  0  0  0  0  0  0  0  0  0  0
   46.6440   34.8550   42.6220 C   0  0  0  0  0  0  0  0  0  0  0  0
   47.3670   33.9520   43.3590 C   0  0  0  0  0  0  0  0  0  0  0  0
   46.9390   33.5650   44.6020 N   0  0  0  0  0  0  0  0  0  0  0  0
   45.8090   34.0500   45.1390 C   0  0  0  0  0  0  0  0  0  0  0  0
   45.0920   34.9250   44.4420 N   0  0  0  0  0  0  0  0  0  0  0  0
   48.5640   33.4450   42.7790 N   0  0  0  0  0  0  0  0  0  0  0  0
   49.0490   32.3370   42.1890 C   0  0  0  0  0  0  0  0  0  0  0  0
   50.3860   32.5740   41.8560 C   0  0  0  0  0  0  0  0  0  0  0  0
   50.6960   33.8320   42.2510 N   0  0  0  0  0  0  0  0  0  0  0  0
   49.5870   34.3510   42.8090 C   0  0  0  0  0  0  0  0  0  0  0  0
   47.6403   33.5210   47.9096 H   0  0  0  0  0  0  0  0  0  0  0  0
   48.6266   31.4763   48.9726 H   0  0  0  0  0  0  0  0  0  0  0  0
   47.5172   29.2597   48.7081 H   0  0  0  0  0  0  0  0  0  0  0  0
   44.1803   25.7293   47.5672 H   0  0  0  0  0  0  0  0  0  0  0  0
   44.8525   36.0623   42.6740 H   0  0  0  0  0  0  0  0  0  0  0  0
   46.9658   35.1819   41.6222 H   0  0  0  0  0  0  0  0  0  0  0  0
   48.4912   31.4076   42.0016 H   0  0  0  0  0  0  0  0  0  0  0  0
   51.0656   31.8647   41.3610 H   0  0  0  0  0  0  0  0  0  0  0  0
   49.5138   35.3642   43.2309 H   0  0  0  0  0  0  0  0  0  0  0  0
  1  2  2  0
  2  3  1  0
  4  3  2  0
  5  4  1  0
  6  1  1  0
  6  5  2  0
  7  5  1  0
  7 11  1  0
  8  9  1  0
  8  7  2  0
  9 10  1  0
 10 11  2  0
 12  1  1  0
 12 13  2  0
 14 19  2  0
 15 14  1  0
 15 16  2  0
 16 17  1  0
 17 18  2  0
 18 12  1  0
 19 18  1  0
 20 24  1  0
 20 16  1  0
 21 20  1  0
 22 21  2  0
 22 23  1  0
 23 24  2  0
  2 25  1  0
  3 26  1  0
  4 27  1  0
 10 28  1  0
 14 29  1  0
 15 30  1  0
 21 31  1  0
 22 32  1  0
 24 33  1  0
M  ISO  8  25  14  26  14  27  14  28  14  29  14  30  14  31  14  32  14
M  ISO  1  33  14
M  END
>  <minimizedAffinity>  (1) 
-5.63584089

>  <minimizedRMSD>  (1) 
0.702971697

$$$$
