
     RDKit          3D

 28 30  0  0  0  0  0  0  0  0999 V2000
   46.1290   32.4040   47.1330 C   0  0  0  0  0  0  0  0  0  0  0  0
   47.2860   32.6130   47.8380 C   0  0  0  0  0  0  0  0  0  0  0  0
   47.9360   31.5070   48.3920 C   0  0  0  0  0  0  0  0  0  0  0  0
   47.4310   30.2260   48.2390 C   0  0  0  0  0  0  0  0  0  0  0  0
   46.2670   30.0710   47.5220 C   0  0  0  0  0  0  0  0  0  0  0  0
   45.6620   31.1480   47.0000 N   0  0  0  0  0  0  0  0  0  0  0  0
   45.6440   28.7690   47.2970 C   0  0  0  0  0  0  0  0  0  0  0  0
   44.4420   28.6410   46.7160 N   0  0  0  0  0  0  0  0  0  0  0  0
   44.1310   27.3910   46.6410 O   0  0  0  0  0  0  0  0  0  0  0  0
   45.0820   26.6300   47.1530 C   0  0  0  0  0  0  0  0  0  0  0  0
   46.0440   27.4980   47.5690 N   0  0  0  0  0  0  0  0  0  0  0  0
   45.4360   33.5620   46.5450 C   0  0  0  0  0  0  0  0  0  0  0  0
   44.5470   34.1100   47.2810 O   0  0  0  0  0  0  0  0  0  0  0  0
   45.3230   35.4220   43.3990 C   0  0  0  0  0  0  0  0  0  0  0  0
   46.4100   34.8990   42.6870 C   0  0  0  0  0  0  0  0  0  0  0  0
   47.1480   33.9160   43.3220 C   0  0  0  0  0  0  0  0  0  0  0  0
   46.7930   33.5120   44.5790 N   0  0  0  0  0  0  0  0  0  0  0  0
   45.7360   34.0440   45.2320 C   0  0  0  0  0  0  0  0  0  0  0  0
   45.0110   34.9850   44.6500 N   0  0  0  0  0  0  0  0  0  0  0  0
   48.2690   33.3300   42.6680 N   0  0  0  0  0  0  0  0  0  0  0  0
   47.6930   33.6271   47.9646 H   0  0  0  0  0  0  0  0  0  0  0  0
   48.8660   31.6562   48.9602 H   0  0  0  0  0  0  0  0  0  0  0  0
   47.9455   29.3584   48.6778 H   0  0  0  0  0  0  0  0  0  0  0  0
   45.0936   25.5326   47.2270 H   0  0  0  0  0  0  0  0  0  0  0  0
   44.7058   36.2057   42.9355 H   0  0  0  0  0  0  0  0  0  0  0  0
   46.6635   35.2513   41.6762 H   0  0  0  0  0  0  0  0  0  0  0  0
   48.8173   32.5983   43.1422 H   0  0  0  0  0  0  0  0  0  0  0  0
   48.5315   33.6378   41.7208 H   0  0  0  0  0  0  0  0  0  0  0  0
  1  2  2  0
  2  3  1  0
  4  3  2  0
  5  4  1  0
  6  1  1  0
  6  5  2  0
  7  5  1  0
  7 11  1  0
  8  7  2  0
  9  8  1  0
  9 10  1  0
 10 11  2  0
 12  1  1  0
 12 13  2  0
 14 19  2  0
 15 16  2  0
 15 14  1  0
 16 17  1  0
 17 18  2  0
 18 12  1  0
 19 18  1  0
 20 16  1  0
  2 21  1  0
  3 22  1  0
  4 23  1  0
 10 24  1  0
 14 25  1  0
 15 26  1  0
 20 27  1  0
 20 28  1  0
M  ISO  6  21  14  22  14  23  14  24  14  25  14  26  14
M  END
>  <minimizedAffinity>  (1) 
-4.89100361

>  <minimizedRMSD>  (1) 
0.226243243

$$$$
