
     RDKit          3D

 22 22  0  0  0  0  0  0  0  0999 V2000
   48.0530   34.7690   42.4490 C   0  0  0  0  0  0  0  0  0  0  0  0
   48.4150   33.5990   43.1350 C   0  0  0  0  0  0  0  0  0  0  0  0
   47.4380   32.9430   43.9090 C   0  0  0  0  0  0  0  0  0  0  0  0
   46.1850   33.5030   43.9360 N   0  0  0  0  0  0  0  0  0  0  0  0
   45.8750   34.6250   43.2660 C   0  0  0  0  0  0  0  0  0  0  0  0
   46.8080   35.2550   42.5240 N   0  0  0  0  0  0  0  0  0  0  0  0
   49.1000   35.4530   41.6320 C   0  0  0  0  0  0  0  0  0  0  0  0
   48.8210   35.3020   40.2780 F   0  0  0  0  0  0  0  0  0  0  0  0
   49.1560   36.7850   41.9290 F   0  0  0  0  0  0  0  0  0  0  0  0
   50.3060   34.8050   41.8600 F   0  0  0  0  0  0  0  0  0  0  0  0
   44.4780   35.0790   43.4150 C   0  0  0  0  0  0  0  0  0  0  0  0
   44.4560   36.0570   44.5600 C   0  0  0  0  0  0  0  0  0  0  0  0
   43.8780   35.6520   42.1700 C   0  0  0  0  0  0  0  0  0  0  0  0
   49.4392   33.2032   43.0695 H   0  0  0  0  0  0  0  0  0  0  0  0
   47.6687   32.0234   44.4667 H   0  0  0  0  0  0  0  0  0  0  0  0
   43.8400   34.2073   43.6228 H   0  0  0  0  0  0  0  0  0  0  0  0
   44.4684   35.5068   45.5124 H   0  0  0  0  0  0  0  0  0  0  0  0
   45.3397   36.7095   44.5019 H   0  0  0  0  0  0  0  0  0  0  0  0
   43.5439   36.6691   44.5019 H   0  0  0  0  0  0  0  0  0  0  0  0
   43.1068   36.3885   42.4400 H   0  0  0  0  0  0  0  0  0  0  0  0
   44.6633   36.1439   41.5773 H   0  0  0  0  0  0  0  0  0  0  0  0
   43.4227   34.8449   41.5773 H   0  0  0  0  0  0  0  0  0  0  0  0
  1  6  2  0
  1  2  1  0
  2  3  2  0
  3  4  1  0
  5 11  1  0
  5  4  2  0
  6  5  1  0
  7 10  1  0
  7  9  1  0
  7  1  1  0
  8  7  1  0
 11 12  1  0
 13 11  1  0
  2 14  1  0
  3 15  1  0
 11 16  1  0
 12 17  1  0
 12 18  1  0
 12 19  1  0
 13 20  1  0
 13 21  1  0
 13 22  1  0
M  ISO  8  14  14  15  14  16   8  17   8  18   8  19   8  20   8  21   8
M  ISO  1  22   8
M  END
>  <minimizedAffinity>  (1) 
-4.40441465

>  <minimizedRMSD>  (1) 
2.43054223

$$$$
