
     RDKit          3D

 26 27  0  0  0  0  0  0  0  0999 V2000
   45.1190   34.3210   41.0150 C   0  0  0  0  0  0  0  0  0  0  0  0
   41.5050   35.4160   41.5070 C   0  0  0  0  0  0  0  0  0  0  0  0
   42.9070   35.5190   41.3970 C   0  0  0  0  0  0  0  0  0  0  0  0
   43.6160   34.3520   41.1540 C   0  0  0  0  0  0  0  0  0  0  0  0
   42.9340   33.1730   41.0340 N   0  0  0  0  0  0  0  0  0  0  0  0
   41.5970   33.1130   41.1440 C   0  0  0  0  0  0  0  0  0  0  0  0
   40.8820   34.2310   41.3790 N   0  0  0  0  0  0  0  0  0  0  0  0
   45.7520   35.0580   42.2110 C   0  0  0  0  0  0  0  0  0  0  0  0
   47.2120   34.8140   42.2760 C   0  0  0  0  0  0  0  0  0  0  0  0
   47.6960   33.6070   42.7760 C   0  0  0  0  0  0  0  0  0  0  0  0
   49.0160   33.2400   42.8980 C   0  0  0  0  0  0  0  0  0  0  0  0
   49.9400   34.1640   42.4830 C   0  0  0  0  0  0  0  0  0  0  0  0
   49.5290   35.3910   41.9750 C   0  0  0  0  0  0  0  0  0  0  0  0
   48.1780   35.7210   41.8680 C   0  0  0  0  0  0  0  0  0  0  0  0
   45.4660   33.2773   41.0001 H   0  0  0  0  0  0  0  0  0  0  0  0
   45.4144   34.8146   40.0774 H   0  0  0  0  0  0  0  0  0  0  0  0
   40.9103   36.3209   41.7009 H   0  0  0  0  0  0  0  0  0  0  0  0
   43.4186   36.4874   41.4999 H   0  0  0  0  0  0  0  0  0  0  0  0
   41.0826   32.1461   41.0417 H   0  0  0  0  0  0  0  0  0  0  0  0
   45.5727   36.1379   42.1032 H   0  0  0  0  0  0  0  0  0  0  0  0
   45.2932   34.6803   43.1366 H   0  0  0  0  0  0  0  0  0  0  0  0
   46.9464   32.8730   43.1068 H   0  0  0  0  0  0  0  0  0  0  0  0
   49.3130   32.2621   43.3048 H   0  0  0  0  0  0  0  0  0  0  0  0
   51.0132   33.9330   42.5524 H   0  0  0  0  0  0  0  0  0  0  0  0
   50.2870   36.1188   41.6498 H   0  0  0  0  0  0  0  0  0  0  0  0
   47.8797   36.6984   41.4609 H   0  0  0  0  0  0  0  0  0  0  0  0
  1  4  1  0
  1  8  1  0
  3  2  2  0
  4  3  1  0
  5  6  1  0
  5  4  2  0
  6  7  2  0
  7  2  1  0
  8  9  1  0
  9 10  2  0
 10 11  1  0
 12 11  2  0
 13 12  1  0
 14 13  2  0
 14  9  1  0
  1 15  1  0
  1 16  1  0
  2 17  1  0
  3 18  1  0
  6 19  1  0
  8 20  1  0
  8 21  1  0
 10 22  1  0
 11 23  1  0
 12 24  1  0
 13 25  1  0
 14 26  1  0
M  ISO  8  15   8  16   8  17  14  18  14  19  14  20   8  21   8  22  14
M  ISO  4  23  14  24  14  25  14  26  14
M  END
>  <minimizedAffinity>  (1) 
-4.23984909

>  <minimizedRMSD>  (1) 
3.79532099

$$$$
