
     RDKit          3D

 14 14  0  0  0  0  0  0  0  0999 V2000
   46.8060   34.6080   42.9490 C   0  0  0  0  0  0  0  0  0  0  0  0
   47.1970   33.6720   43.9120 C   0  0  0  0  0  0  0  0  0  0  0  0
   46.3750   33.4880   45.0340 C   0  0  0  0  0  0  0  0  0  0  0  0
   45.2490   34.2320   45.1150 N   0  0  0  0  0  0  0  0  0  0  0  0
   44.8880   35.1350   44.1700 C   0  0  0  0  0  0  0  0  0  0  0  0
   45.6810   35.3070   43.0930 N   0  0  0  0  0  0  0  0  0  0  0  0
   47.6940   34.7960   41.7550 C   0  0  0  0  0  0  0  0  0  0  0  0
   46.9500   34.7440   40.6020 F   0  0  0  0  0  0  0  0  0  0  0  0
   48.3250   36.0070   41.8210 F   0  0  0  0  0  0  0  0  0  0  0  0
   48.5800   33.7240   41.7270 F   0  0  0  0  0  0  0  0  0  0  0  0
   43.7220   35.8910   44.2750 O   0  0  0  0  0  0  0  0  0  0  0  0
   48.1257   33.0946   43.7927 H   0  0  0  0  0  0  0  0  0  0  0  0
   46.6373   32.7642   45.8197 H   0  0  0  0  0  0  0  0  0  0  0  0
   43.4885   36.5417   43.5664 H   0  0  0  0  0  0  0  0  0  0  0  0
  1  6  2  0
  1  2  1  0
  2  3  2  0
  3  4  1  0
  5 11  1  0
  5  4  2  0
  6  5  1  0
  7  9  1  0
  7  1  1  0
  8  7  1  0
 10  7  1  0
  2 12  1  0
  3 13  1  0
 11 14  1  0
M  ISO  3  12  14  13  14  14   3
M  END
>  <minimizedAffinity>  (1) 
-4.34035635

>  <minimizedRMSD>  (1) 
0.931130588

$$$$
