
     RDKit          3D

 20 21  0  0  0  0  0  0  0  0999 V2000
   45.5370   34.9820   44.0780 C   0  0  0  0  0  0  0  0  0  0  0  0
   44.6340   35.4910   45.0350 C   0  0  0  0  0  0  0  0  0  0  0  0
   44.5460   34.8200   46.2770 C   0  0  0  0  0  0  0  0  0  0  0  0
   45.3340   33.7320   46.4640 N   0  0  0  0  0  0  0  0  0  0  0  0
   46.1800   33.2790   45.5270 C   0  0  0  0  0  0  0  0  0  0  0  0
   46.2780   33.9020   44.3430 N   0  0  0  0  0  0  0  0  0  0  0  0
   45.6210   35.7010   42.7690 C   0  0  0  0  0  0  0  0  0  0  0  0
   46.9340   35.6710   42.3110 F   0  0  0  0  0  0  0  0  0  0  0  0
   44.8080   35.1140   41.8500 F   0  0  0  0  0  0  0  0  0  0  0  0
   45.3340   37.0410   43.0100 F   0  0  0  0  0  0  0  0  0  0  0  0
   47.0000   32.0700   45.8430 C   0  0  0  0  0  0  0  0  0  0  0  0
   46.4200   30.7250   45.8670 C   0  0  0  0  0  0  0  0  0  0  0  0
   47.2210   31.1640   44.6860 C   0  0  0  0  0  0  0  0  0  0  0  0
   44.0199   36.3786   44.8227 H   0  0  0  0  0  0  0  0  0  0  0  0
   43.8617   35.1687   47.0645 H   0  0  0  0  0  0  0  0  0  0  0  0
   47.6044   32.6160   46.5824 H   0  0  0  0  0  0  0  0  0  0  0  0
   46.8235   29.9651   46.5524 H   0  0  0  0  0  0  0  0  0  0  0  0
   45.4079   30.3188   46.0106 H   0  0  0  0  0  0  0  0  0  0  0  0
   46.7250   31.3636   43.7247 H   0  0  0  0  0  0  0  0  0  0  0  0
   48.0999   30.7794   44.1478 H   0  0  0  0  0  0  0  0  0  0  0  0
  1  6  2  0
  1  2  1  0
  2  3  2  0
  3  4  1  0
  5 11  1  0
  5  4  2  0
  6  5  1  0
  7 10  1  0
  7  1  1  0
  8  7  1  0
  9  7  1  0
 11 12  1  0
 13 11  1  0
 13 12  1  0
  2 14  1  0
  3 15  1  0
 11 16  1  0
 12 17  1  0
 12 18  1  0
 13 19  1  0
 13 20  1  0
M  ISO  7  14  14  15  14  16  13  17  13  18  13  19  13  20  13
M  END
>  <minimizedAffinity>  (1) 
-3.91151071

>  <minimizedRMSD>  (1) 
4.20740175

$$$$
