
     RDKit          3D

 35 37  0  0  0  0  0  0  0  0999 V2000
   43.8500   35.3440   42.3570 C   0  0  0  0  0  0  0  0  0  0  0  0
   47.5180   34.8850   42.1990 C   0  0  0  0  0  0  0  0  0  0  0  0
   47.7710   34.0870   43.3330 C   0  0  0  0  0  0  0  0  0  0  0  0
   46.6700   33.7200   44.1360 C   0  0  0  0  0  0  0  0  0  0  0  0
   45.4540   34.1570   43.7600 N   0  0  0  0  0  0  0  0  0  0  0  0
   45.2410   34.9190   42.6720 C   0  0  0  0  0  0  0  0  0  0  0  0
   46.2700   35.2850   41.8890 N   0  0  0  0  0  0  0  0  0  0  0  0
   48.7040   35.2570   41.3700 C   0  0  0  0  0  0  0  0  0  0  0  0
   48.3710   35.2570   40.0470 F   0  0  0  0  0  0  0  0  0  0  0  0
   49.1200   36.5370   41.7010 F   0  0  0  0  0  0  0  0  0  0  0  0
   49.6870   34.3070   41.5550 F   0  0  0  0  0  0  0  0  0  0  0  0
   43.5940   35.2490   40.8930 C   0  0  0  0  0  0  0  0  0  0  0  0
   42.1740   35.1880   40.5100 C   0  0  0  0  0  0  0  0  0  0  0  0
   41.1940   36.0560   40.9810 C   0  0  0  0  0  0  0  0  0  0  0  0
   39.8800   35.9180   40.5600 C   0  0  0  0  0  0  0  0  0  0  0  0
   39.5720   34.9040   39.6700 C   0  0  0  0  0  0  0  0  0  0  0  0
   40.5410   34.0420   39.2000 C   0  0  0  0  0  0  0  0  0  0  0  0
   40.1540   33.0530   38.3100 C   0  0  0  0  0  0  0  0  0  0  0  0
   41.1220   32.1790   37.8320 C   0  0  0  0  0  0  0  0  0  0  0  0
   42.4460   32.2890   38.2310 C   0  0  0  0  0  0  0  0  0  0  0  0
   42.7480   33.3090   39.1270 C   0  0  0  0  0  0  0  0  0  0  0  0
   41.8280   34.1880   39.6210 C   0  0  0  0  0  0  0  0  0  0  0  0
   43.1428   34.6924   42.8911 H   0  0  0  0  0  0  0  0  0  0  0  0
   43.7170   36.3889   42.6741 H   0  0  0  0  0  0  0  0  0  0  0  0
   48.7915   33.7615   43.5835 H   0  0  0  0  0  0  0  0  0  0  0  0
   46.8009   33.1002   45.0353 H   0  0  0  0  0  0  0  0  0  0  0  0
   44.0392   36.1320   40.4112 H   0  0  0  0  0  0  0  0  0  0  0  0
   44.0408   34.2989   40.5649 H   0  0  0  0  0  0  0  0  0  0  0  0
   41.4622   36.8538   41.6892 H   0  0  0  0  0  0  0  0  0  0  0  0
   39.0987   36.6004   40.9259 H   0  0  0  0  0  0  0  0  0  0  0  0
   38.5328   34.7829   39.3303 H   0  0  0  0  0  0  0  0  0  0  0  0
   39.1056   32.9622   37.9898 H   0  0  0  0  0  0  0  0  0  0  0  0
   40.8340   31.3866   37.1255 H   0  0  0  0  0  0  0  0  0  0  0  0
   43.2198   31.6026   37.8568 H   0  0  0  0  0  0  0  0  0  0  0  0
   43.7919   33.4137   39.4577 H   0  0  0  0  0  0  0  0  0  0  0  0
  1  6  1  0
  2  3  2  0
  3  4  1  0
  5  4  2  0
  6  5  1  0
  7  2  1  0
  7  6  2  0
  8 11  1  0
  8 10  1  0
  8  2  1  0
  9  8  1  0
 12  1  1  0
 13 12  1  0
 13 14  2  0
 15 14  1  0
 16 15  2  0
 17 22  2  0
 17 16  1  0
 18 17  1  0
 19 20  1  0
 19 18  2  0
 20 21  2  0
 21 22  1  0
 22 13  1  0
  1 23  1  0
  1 24  1  0
  3 25  1  0
  4 26  1  0
 12 27  1  0
 12 28  1  0
 14 29  1  0
 15 30  1  0
 16 31  1  0
 18 32  1  0
 19 33  1  0
 20 34  1  0
 21 35  1  0
M  ISO  8  23   8  24   8  25  14  26  14  27   8  28   8  29  14  30  14
M  ISO  5  31  14  32  14  33  14  34  14  35  14
M  END
>  <minimizedAffinity>  (1) 
-6.57999802

>  <minimizedRMSD>  (1) 
1.75814116

$$$$
