
     RDKit          3D

 29 30  0  0  0  0  0  0  0  0999 V2000
   46.4710   34.9050   41.8450 C   0  0  0  0  0  0  0  0  0  0  0  0
   44.4690   35.9460   44.9110 C   0  0  0  0  0  0  0  0  0  0  0  0
   44.9980   35.9850   43.6210 C   0  0  0  0  0  0  0  0  0  0  0  0
   45.8480   34.9510   43.2210 C   0  0  0  0  0  0  0  0  0  0  0  0
   46.1230   33.9520   44.1120 N   0  0  0  0  0  0  0  0  0  0  0  0
   45.5910   33.9510   45.3490 C   0  0  0  0  0  0  0  0  0  0  0  0
   44.7720   34.9400   45.7440 N   0  0  0  0  0  0  0  0  0  0  0  0
   47.9500   35.2560   41.9490 C   0  0  0  0  0  0  0  0  0  0  0  0
   48.6570   34.3910   40.9300 C   0  0  0  0  0  0  0  0  0  0  0  0
   47.8150   34.1870   39.6900 C   0  0  0  0  0  0  0  0  0  0  0  0
   48.5700   33.0320   39.0170 C   0  0  0  0  0  0  0  0  0  0  0  0
   49.3110   32.3130   40.1210 C   0  0  0  0  0  0  0  0  0  0  0  0
   48.8500   32.9740   41.4130 C   0  0  0  0  0  0  0  0  0  0  0  0
   45.9667   35.6299   41.1891 H   0  0  0  0  0  0  0  0  0  0  0  0
   46.3611   33.8944   41.4247 H   0  0  0  0  0  0  0  0  0  0  0  0
   43.7966   36.7485   45.2483 H   0  0  0  0  0  0  0  0  0  0  0  0
   44.7520   36.8095   42.9356 H   0  0  0  0  0  0  0  0  0  0  0  0
   45.8295   33.1319   46.0434 H   0  0  0  0  0  0  0  0  0  0  0  0
   48.1070   36.3206   41.7212 H   0  0  0  0  0  0  0  0  0  0  0  0
   48.3354   35.0791   42.9640 H   0  0  0  0  0  0  0  0  0  0  0  0
   49.6034   34.9206   40.7461 H   0  0  0  0  0  0  0  0  0  0  0  0
   46.7830   33.9029   39.9436 H   0  0  0  0  0  0  0  0  0  0  0  0
   47.7021   35.0839   39.0633 H   0  0  0  0  0  0  0  0  0  0  0  0
   47.8619   32.3488   38.5251 H   0  0  0  0  0  0  0  0  0  0  0  0
   49.2608   33.4007   38.2445 H   0  0  0  0  0  0  0  0  0  0  0  0
   49.0551   31.2432   40.1232 H   0  0  0  0  0  0  0  0  0  0  0  0
   50.4015   32.3798   39.9933 H   0  0  0  0  0  0  0  0  0  0  0  0
   49.6168   32.9119   42.1992 H   0  0  0  0  0  0  0  0  0  0  0  0
   47.9621   32.5177   41.8750 H   0  0  0  0  0  0  0  0  0  0  0  0
  1  8  1  0
  1  4  1  0
  2  7  2  0
  3  2  1  0
  4  3  2  0
  4  5  1  0
  5  6  2  0
  6  7  1  0
  9 13  1  0
  9  8  1  0
 10  9  1  0
 11 10  1  0
 11 12  1  0
 12 13  1  0
  1 14  1  0
  1 15  1  0
  2 16  1  0
  3 17  1  0
  6 18  1  0
  8 19  1  0
  8 20  1  0
  9 21  1  0
 10 22  1  0
 10 23  1  0
 11 24  1  0
 11 25  1  0
 12 26  1  0
 12 27  1  0
 13 28  1  0
 13 29  1  0
M  ISO  8  14   8  15   8  16  14  17  14  18  14  19   8  20   8  21  13
M  ISO  8  22  13  23  13  24  13  25  13  26  13  27  13  28  13  29  13
M  END
>  <minimizedAffinity>  (1) 
-4.20010805

>  <minimizedRMSD>  (1) 
0.97838676

$$$$
