
     RDKit          3D

 33 35  0  0  0  0  0  0  0  0999 V2000
   43.6770   35.5030   41.0420 C   0  0  0  0  0  0  0  0  0  0  0  0
   42.2910   35.1560   40.7880 N   0  0  0  0  0  0  0  0  0  0  0  0
   41.2750   35.7200   41.4600 C   0  0  0  0  0  0  0  0  0  0  0  0
   40.0740   35.2290   41.0390 N   0  0  0  0  0  0  0  0  0  0  0  0
   40.3600   34.3320   40.0760 C   0  0  0  0  0  0  0  0  0  0  0  0
   39.6280   33.4880   39.2470 C   0  0  0  0  0  0  0  0  0  0  0  0
   38.3890   33.5460   39.4070 O   0  0  0  0  0  0  0  0  0  0  0  0
   40.2600   32.7000   38.3710 N   0  0  0  0  0  0  0  0  0  0  0  0
   41.5950   32.6590   38.2220 C   0  0  0  0  0  0  0  0  0  0  0  0
   42.0930   31.7670   37.2460 N   0  0  0  0  0  0  0  0  0  0  0  0
   42.3390   33.4740   39.0180 N   0  0  0  0  0  0  0  0  0  0  0  0
   41.7490   34.2890   39.9200 C   0  0  0  0  0  0  0  0  0  0  0  0
   43.9000   35.3530   42.5230 C   0  0  0  0  0  0  0  0  0  0  0  0
   47.5590   34.8780   42.2600 C   0  0  0  0  0  0  0  0  0  0  0  0
   47.8270   34.0190   43.3530 C   0  0  0  0  0  0  0  0  0  0  0  0
   46.7500   33.6200   44.1590 C   0  0  0  0  0  0  0  0  0  0  0  0
   45.5180   34.0900   43.8290 N   0  0  0  0  0  0  0  0  0  0  0  0
   45.2940   34.9050   42.7830 C   0  0  0  0  0  0  0  0  0  0  0  0
   46.3100   35.3030   41.9950 N   0  0  0  0  0  0  0  0  0  0  0  0
   48.7310   35.2820   41.4260 C   0  0  0  0  0  0  0  0  0  0  0  0
   48.3890   35.2460   40.0990 F   0  0  0  0  0  0  0  0  0  0  0  0
   49.1130   36.5650   41.7300 F   0  0  0  0  0  0  0  0  0  0  0  0
   49.7410   34.3490   41.6050 F   0  0  0  0  0  0  0  0  0  0  0  0
   43.8699   36.5411   40.7335 H   0  0  0  0  0  0  0  0  0  0  0  0
   44.3569   34.8518   40.4731 H   0  0  0  0  0  0  0  0  0  0  0  0
   41.3952   36.4789   42.2472 H   0  0  0  0  0  0  0  0  0  0  0  0
   39.6882   32.0863   37.7733 H   0  0  0  0  0  0  0  0  0  0  0  0
   43.1079   31.6921   37.0868 H   0  0  0  0  0  0  0  0  0  0  0  0
   41.4412   31.1917   36.6937 H   0  0  0  0  0  0  0  0  0  0  0  0
   43.7300   36.3209   43.0172 H   0  0  0  0  0  0  0  0  0  0  0  0
   43.1992   34.6040   42.9203 H   0  0  0  0  0  0  0  0  0  0  0  0
   48.8500   33.6743   43.5643 H   0  0  0  0  0  0  0  0  0  0  0  0
   46.8966   32.9543   45.0223 H   0  0  0  0  0  0  0  0  0  0  0  0
  1 13  1  0
  2  1  1  0
  2  3  1  0
  4  3  2  0
  5  4  1  0
  6  7  2  0
  6  5  1  0
  8  6  1  0
  9  8  1  0
  9 11  2  0
 10  9  1  0
 11 12  1  0
 12  5  2  0
 12  2  1  0
 13 18  1  0
 14 15  2  0
 15 16  1  0
 17 16  2  0
 18 17  1  0
 19 14  1  0
 19 18  2  0
 20 23  1  0
 20 22  1  0
 20 14  1  0
 21 20  1  0
  1 24  1  0
  1 25  1  0
  3 26  1  0
  8 27  1  0
 10 28  1  0
 10 29  1  0
 13 30  1  0
 13 31  1  0
 15 32  1  0
 16 33  1  0
M  ISO  8  24   8  25   8  26  14  27   9  30   8  31   8  32  14  33  14
M  END
>  <minimizedAffinity>  (1) 
-6.23388958

>  <minimizedRMSD>  (1) 
2.78267884

$$$$
