
     RDKit          3D

 33 35  0  0  0  0  0  0  0  0999 V2000
   43.8110   35.3280   42.2220 C   0  0  0  0  0  0  0  0  0  0  0  0
   47.4950   34.8900   42.1920 C   0  0  0  0  0  0  0  0  0  0  0  0
   47.7160   34.1130   43.3320 C   0  0  0  0  0  0  0  0  0  0  0  0
   46.5910   33.7550   44.0880 C   0  0  0  0  0  0  0  0  0  0  0  0
   45.3870   34.1810   43.6700 N   0  0  0  0  0  0  0  0  0  0  0  0
   45.2050   34.9300   42.5660 C   0  0  0  0  0  0  0  0  0  0  0  0
   46.2590   35.2910   41.8180 N   0  0  0  0  0  0  0  0  0  0  0  0
   48.7050   35.2720   41.3790 C   0  0  0  0  0  0  0  0  0  0  0  0
   48.3880   35.2710   40.0370 F   0  0  0  0  0  0  0  0  0  0  0  0
   49.1330   36.5340   41.7120 F   0  0  0  0  0  0  0  0  0  0  0  0
   49.6690   34.2890   41.5500 F   0  0  0  0  0  0  0  0  0  0  0  0
   43.5380   35.0430   40.7870 C   0  0  0  0  0  0  0  0  0  0  0  0
   42.0840   35.1800   40.5120 C   0  0  0  0  0  0  0  0  0  0  0  0
   41.2000   36.0660   41.0950 C   0  0  0  0  0  0  0  0  0  0  0  0
   39.9460   35.9360   40.6260 N   0  0  0  0  0  0  0  0  0  0  0  0
   39.9830   34.9450   39.7080 C   0  0  0  0  0  0  0  0  0  0  0  0
   39.0030   34.3780   38.9070 C   0  0  0  0  0  0  0  0  0  0  0  0
   39.2740   33.3520   38.0200 C   0  0  0  0  0  0  0  0  0  0  0  0
   40.5800   32.9080   37.9670 C   0  0  0  0  0  0  0  0  0  0  0  0
   41.5950   33.4420   38.7490 C   0  0  0  0  0  0  0  0  0  0  0  0
   41.2840   34.4680   39.6230 C   0  0  0  0  0  0  0  0  0  0  0  0
   43.1057   34.7600   42.8465 H   0  0  0  0  0  0  0  0  0  0  0  0
   43.6883   36.4057   42.4051 H   0  0  0  0  0  0  0  0  0  0  0  0
   48.7282   33.7961   43.6235 H   0  0  0  0  0  0  0  0  0  0  0  0
   46.6909   33.1433   44.9968 H   0  0  0  0  0  0  0  0  0  0  0  0
   44.0963   35.7548   40.1611 H   0  0  0  0  0  0  0  0  0  0  0  0
   43.8553   34.0156   40.5550 H   0  0  0  0  0  0  0  0  0  0  0  0
   41.4902   36.7999   41.8613 H   0  0  0  0  0  0  0  0  0  0  0  0
   39.1211   36.4833   40.9102 H   0  0  0  0  0  0  0  0  0  0  0  0
   37.9733   34.7579   38.9798 H   0  0  0  0  0  0  0  0  0  0  0  0
   38.4882   32.9119   37.3884 H   0  0  0  0  0  0  0  0  0  0  0  0
   40.8282   32.0923   37.2720 H   0  0  0  0  0  0  0  0  0  0  0  0
   42.6232   33.0580   38.6753 H   0  0  0  0  0  0  0  0  0  0  0  0
  1  6  1  0
  2  3  2  0
  3  4  1  0
  5  4  2  0
  6  5  1  0
  7  2  1  0
  7  6  2  0
  8 11  1  0
  8 10  1  0
  8  2  1  0
  9  8  1  0
 12  1  1  0
 13 12  1  0
 13 14  2  0
 15 14  1  0
 16 15  1  0
 17 16  2  0
 18 17  1  0
 19 18  2  0
 19 20  1  0
 20 21  2  0
 21 16  1  0
 21 13  1  0
  1 22  1  0
  1 23  1  0
  3 24  1  0
  4 25  1  0
 12 26  1  0
 12 27  1  0
 14 28  1  0
 15 29  1  0
 17 30  1  0
 18 31  1  0
 19 32  1  0
 20 33  1  0
M  ISO  8  22   8  23   8  24  14  25  14  26   8  27   8  28  14  29   9
M  ISO  4  30  14  31  14  32  14  33  14
M  END
>  <minimizedAffinity>  (1) 
-6.39131165

>  <minimizedRMSD>  (1) 
1.46587574

$$$$
