
     RDKit          3D

 27 28  0  0  0  0  0  0  0  0999 V2000
   43.8310   35.4040   42.3780 C   0  0  0  0  0  0  0  0  0  0  0  0
   47.4930   34.8800   42.2000 C   0  0  0  0  0  0  0  0  0  0  0  0
   47.7380   34.0790   43.3230 C   0  0  0  0  0  0  0  0  0  0  0  0
   46.6430   33.7250   44.1250 C   0  0  0  0  0  0  0  0  0  0  0  0
   45.4340   34.1830   43.7560 N   0  0  0  0  0  0  0  0  0  0  0  0
   45.2190   34.9580   42.6640 C   0  0  0  0  0  0  0  0  0  0  0  0
   46.2580   35.3090   41.8810 N   0  0  0  0  0  0  0  0  0  0  0  0
   48.6820   35.2460   41.3560 C   0  0  0  0  0  0  0  0  0  0  0  0
   48.3450   35.2610   40.0400 F   0  0  0  0  0  0  0  0  0  0  0  0
   49.1160   36.5240   41.6950 F   0  0  0  0  0  0  0  0  0  0  0  0
   49.6620   34.2950   41.5440 F   0  0  0  0  0  0  0  0  0  0  0  0
   43.5470   35.2900   40.9250 C   0  0  0  0  0  0  0  0  0  0  0  0
   42.0870   34.9360   40.8080 C   0  0  0  0  0  0  0  0  0  0  0  0
   41.0910   35.7280   40.2740 C   0  0  0  0  0  0  0  0  0  0  0  0
   39.8050   35.2120   40.2590 C   0  0  0  0  0  0  0  0  0  0  0  0
   39.5590   33.9820   40.7520 N   0  0  0  0  0  0  0  0  0  0  0  0
   40.5410   33.2020   41.2790 C   0  0  0  0  0  0  0  0  0  0  0  0
   41.7770   33.7110   41.2870 N   0  0  0  0  0  0  0  0  0  0  0  0
   43.1239   34.7738   42.9373 H   0  0  0  0  0  0  0  0  0  0  0  0
   43.7202   36.4545   42.6849 H   0  0  0  0  0  0  0  0  0  0  0  0
   48.7551   33.7390   43.5676 H   0  0  0  0  0  0  0  0  0  0  0  0
   46.7684   33.0978   45.0199 H   0  0  0  0  0  0  0  0  0  0  0  0
   43.7489   36.2466   40.4209 H   0  0  0  0  0  0  0  0  0  0  0  0
   44.1832   34.5281   40.4510 H   0  0  0  0  0  0  0  0  0  0  0  0
   41.3094   36.7299   39.8758 H   0  0  0  0  0  0  0  0  0  0  0  0
   38.9806   35.8094   39.8425 H   0  0  0  0  0  0  0  0  0  0  0  0
   40.3281   32.1999   41.6796 H   0  0  0  0  0  0  0  0  0  0  0  0
  1  6  1  0
  2  3  2  0
  3  4  1  0
  5  4  2  0
  6  5  1  0
  7  2  1  0
  7  6  2  0
  8 11  1  0
  8 10  1  0
  8  2  1  0
  9  8  1  0
 12  1  1  0
 13 12  1  0
 13 18  1  0
 14 13  2  0
 15 14  1  0
 15 16  2  0
 16 17  1  0
 17 18  2  0
  1 19  1  0
  1 20  1  0
  3 21  1  0
  4 22  1  0
 12 23  1  0
 12 24  1  0
 14 25  1  0
 15 26  1  0
 17 27  1  0
M  ISO  8  19   8  20   8  21  14  22  14  23   8  24   8  25  14  26  14
M  ISO  1  27  14
M  END
>  <minimizedAffinity>  (1) 
-5.4218564

>  <minimizedRMSD>  (1) 
1.51003742

$$$$
