
     RDKit          3D

 26 27  0  0  0  0  0  0  0  0999 V2000
   47.6470   34.9200   42.2630 C   0  0  0  0  0  0  0  0  0  0  0  0
   47.8940   34.0650   43.3490 C   0  0  0  0  0  0  0  0  0  0  0  0
   46.7980   33.6460   44.1180 C   0  0  0  0  0  0  0  0  0  0  0  0
   45.5810   34.0910   43.7630 N   0  0  0  0  0  0  0  0  0  0  0  0
   45.3640   34.9170   42.7100 C   0  0  0  0  0  0  0  0  0  0  0  0
   46.3970   35.3300   41.9610 N   0  0  0  0  0  0  0  0  0  0  0  0
   48.8300   35.3560   41.4550 C   0  0  0  0  0  0  0  0  0  0  0  0
   48.5230   35.3500   40.1250 F   0  0  0  0  0  0  0  0  0  0  0  0
   49.2000   36.6340   41.8070 F   0  0  0  0  0  0  0  0  0  0  0  0
   49.8430   34.4200   41.6380 F   0  0  0  0  0  0  0  0  0  0  0  0
   43.9600   35.3420   42.4170 C   0  0  0  0  0  0  0  0  0  0  0  0
   43.6680   35.1730   40.9700 C   0  0  0  0  0  0  0  0  0  0  0  0
   42.2230   35.3970   40.6720 C   0  0  0  0  0  0  0  0  0  0  0  0
   41.6940   35.0130   39.4400 C   0  0  0  0  0  0  0  0  0  0  0  0
   40.3630   35.3230   39.4150 C   0  0  0  0  0  0  0  0  0  0  0  0
   40.1290   35.8970   40.6630 C   0  0  0  0  0  0  0  0  0  0  0  0
   41.2460   35.9130   41.3490 O   0  0  0  0  0  0  0  0  0  0  0  0
   48.9151   33.7340   43.5894 H   0  0  0  0  0  0  0  0  0  0  0  0
   46.9303   32.9769   44.9810 H   0  0  0  0  0  0  0  0  0  0  0  0
   43.2631   34.7253   43.0035 H   0  0  0  0  0  0  0  0  0  0  0  0
   43.8401   36.4014   42.6876 H   0  0  0  0  0  0  0  0  0  0  0  0
   44.2670   35.8968   40.3979 H   0  0  0  0  0  0  0  0  0  0  0  0
   43.9223   34.1413   40.6856 H   0  0  0  0  0  0  0  0  0  0  0  0
   42.2560   34.5383   38.6222 H   0  0  0  0  0  0  0  0  0  0  0  0
   39.6437   35.1578   38.5993 H   0  0  0  0  0  0  0  0  0  0  0  0
   39.1593   36.2770   41.0170 H   0  0  0  0  0  0  0  0  0  0  0  0
  1  2  2  0
  2  3  1  0
  4  3  2  0
  5  4  1  0
  6  1  1  0
  6  5  2  0
  7 10  1  0
  7  9  1  0
  7  1  1  0
  8  7  1  0
 11  5  1  0
 12 11  1  0
 13 12  1  0
 13 17  1  0
 14 13  2  0
 15 14  1  0
 15 16  2  0
 16 17  1  0
  2 18  1  0
  3 19  1  0
 11 20  1  0
 11 21  1  0
 12 22  1  0
 12 23  1  0
 14 24  1  0
 15 25  1  0
 16 26  1  0
M  ISO  8  18  14  19  14  20   8  21   8  22   8  23   8  24  14  25  14
M  ISO  1  26  14
M  END
>  <minimizedAffinity>  (1) 
-5.41750956

>  <minimizedRMSD>  (1) 
0.846963704

$$$$
