
     RDKit          3D

 28 29  0  0  0  0  0  0  0  0999 V2000
   43.8400   35.3140   42.2870 C   0  0  0  0  0  0  0  0  0  0  0  0
   47.5150   34.8860   42.1940 C   0  0  0  0  0  0  0  0  0  0  0  0
   47.7570   34.0970   43.3440 C   0  0  0  0  0  0  0  0  0  0  0  0
   46.6560   33.7280   44.1280 C   0  0  0  0  0  0  0  0  0  0  0  0
   45.4420   34.1520   43.7300 N   0  0  0  0  0  0  0  0  0  0  0  0
   45.2330   34.8990   42.6360 C   0  0  0  0  0  0  0  0  0  0  0  0
   46.2690   35.2790   41.8490 N   0  0  0  0  0  0  0  0  0  0  0  0
   48.7080   35.2720   41.3650 C   0  0  0  0  0  0  0  0  0  0  0  0
   48.3860   35.2640   40.0440 F   0  0  0  0  0  0  0  0  0  0  0  0
   49.1320   36.5340   41.7120 F   0  0  0  0  0  0  0  0  0  0  0  0
   49.6900   34.3110   41.5600 F   0  0  0  0  0  0  0  0  0  0  0  0
   43.6580   35.2700   40.7950 C   0  0  0  0  0  0  0  0  0  0  0  0
   42.2070   35.0920   40.5180 C   0  0  0  0  0  0  0  0  0  0  0  0
   41.7140   35.3220   39.2290 C   0  0  0  0  0  0  0  0  0  0  0  0
   40.3520   35.1390   39.0400 C   0  0  0  0  0  0  0  0  0  0  0  0
   39.4500   34.7500   40.0100 C   0  0  0  0  0  0  0  0  0  0  0  0
   40.0310   34.5470   41.2450 C   0  0  0  0  0  0  0  0  0  0  0  0
   41.3420   34.7080   41.4970 N   0  0  0  0  0  0  0  0  0  0  0  0
   43.1238   34.6283   42.7633 H   0  0  0  0  0  0  0  0  0  0  0  0
   43.6640   36.3388   42.6459 H   0  0  0  0  0  0  0  0  0  0  0  0
   48.7764   33.7837   43.6134 H   0  0  0  0  0  0  0  0  0  0  0  0
   46.7789   33.1157   45.0335 H   0  0  0  0  0  0  0  0  0  0  0  0
   44.0117   36.2104   40.3471 H   0  0  0  0  0  0  0  0  0  0  0  0
   44.2361   34.4403   40.3621 H   0  0  0  0  0  0  0  0  0  0  0  0
   42.3741   35.6327   38.4058 H   0  0  0  0  0  0  0  0  0  0  0  0
   39.9564   35.3195   38.0296 H   0  0  0  0  0  0  0  0  0  0  0  0
   38.3754   34.6153   39.8176 H   0  0  0  0  0  0  0  0  0  0  0  0
   39.3810   34.2339   42.0754 H   0  0  0  0  0  0  0  0  0  0  0  0
  1  6  1  0
  2  3  2  0
  3  4  1  0
  5  4  2  0
  6  5  1  0
  7  2  1  0
  7  6  2  0
  8 11  1  0
  8 10  1  0
  8  2  1  0
  9  8  1  0
 12  1  1  0
 13 12  1  0
 13 18  1  0
 14 13  2  0
 15 14  1  0
 15 16  2  0
 16 17  1  0
 17 18  2  0
  1 19  1  0
  1 20  1  0
  3 21  1  0
  4 22  1  0
 12 23  1  0
 12 24  1  0
 14 25  1  0
 15 26  1  0
 16 27  1  0
 17 28  1  0
M  ISO  8  19   8  20   8  21  14  22  14  23   8  24   8  25  14  26  14
M  ISO  2  27  14  28  14
M  END
>  <minimizedAffinity>  (1) 
-5.67704868

>  <minimizedRMSD>  (1) 
1.37610459

$$$$
