
     RDKit          3D

 27 28  0  0  0  0  0  0  0  0999 V2000
   44.0060   35.4870   42.6560 C   0  0  0  0  0  0  0  0  0  0  0  0
   47.6490   34.9110   42.2890 C   0  0  0  0  0  0  0  0  0  0  0  0
   47.9080   33.9870   43.3130 C   0  0  0  0  0  0  0  0  0  0  0  0
   46.8370   33.5700   44.1170 C   0  0  0  0  0  0  0  0  0  0  0  0
   45.6300   34.0950   43.8430 N   0  0  0  0  0  0  0  0  0  0  0  0
   45.3990   34.9800   42.8570 C   0  0  0  0  0  0  0  0  0  0  0  0
   46.4130   35.3920   42.0730 N   0  0  0  0  0  0  0  0  0  0  0  0
   48.8180   35.3390   41.4420 C   0  0  0  0  0  0  0  0  0  0  0  0
   48.4620   35.3170   40.1090 F   0  0  0  0  0  0  0  0  0  0  0  0
   49.1940   36.6250   41.7650 F   0  0  0  0  0  0  0  0  0  0  0  0
   49.8390   34.4140   41.6130 F   0  0  0  0  0  0  0  0  0  0  0  0
   43.6400   35.4180   41.2080 C   0  0  0  0  0  0  0  0  0  0  0  0
   42.2350   34.9450   41.0640 C   0  0  0  0  0  0  0  0  0  0  0  0
   41.2410   35.8370   40.6590 C   0  0  0  0  0  0  0  0  0  0  0  0
   39.9410   35.3940   40.5270 C   0  0  0  0  0  0  0  0  0  0  0  0
   39.6550   34.1070   40.7920 N   0  0  0  0  0  0  0  0  0  0  0  0
   40.6540   33.2840   41.1810 C   0  0  0  0  0  0  0  0  0  0  0  0
   41.9570   33.6470   41.3340 N   0  0  0  0  0  0  0  0  0  0  0  0
   43.3062   34.8696   43.2383 H   0  0  0  0  0  0  0  0  0  0  0  0
   43.9505   36.5327   42.9927 H   0  0  0  0  0  0  0  0  0  0  0  0
   48.9240   33.6000   43.4807 H   0  0  0  0  0  0  0  0  0  0  0  0
   46.9781   32.8469   44.9339 H   0  0  0  0  0  0  0  0  0  0  0  0
   43.7365   36.4176   40.7590 H   0  0  0  0  0  0  0  0  0  0  0  0
   44.3138   34.7149   40.6965 H   0  0  0  0  0  0  0  0  0  0  0  0
   41.4924   36.8866   40.4464 H   0  0  0  0  0  0  0  0  0  0  0  0
   39.1473   36.0859   40.2085 H   0  0  0  0  0  0  0  0  0  0  0  0
   40.3931   32.2362   41.3909 H   0  0  0  0  0  0  0  0  0  0  0  0
  1  6  1  0
  2  3  2  0
  3  4  1  0
  5  4  2  0
  6  5  1  0
  7  2  1  0
  7  6  2  0
  8 11  1  0
  8 10  1  0
  8  2  1  0
  9  8  1  0
 12  1  1  0
 13 12  1  0
 13 18  1  0
 14 13  2  0
 15 14  1  0
 15 16  2  0
 16 17  1  0
 17 18  2  0
  1 19  1  0
  1 20  1  0
  3 21  1  0
  4 22  1  0
 12 23  1  0
 12 24  1  0
 14 25  1  0
 15 26  1  0
 17 27  1  0
M  ISO  8  19   8  20   8  21  14  22  14  23   8  24   8  25  14  26  14
M  ISO  1  27  14
M  END
>  <minimizedAffinity>  (1) 
-5.43685102

>  <minimizedRMSD>  (1) 
1.4120816

$$$$
