
     RDKit          3D

 29 30  0  0  0  0  0  0  0  0999 V2000
   43.8510   35.2620   42.2770 C   0  0  0  0  0  0  0  0  0  0  0  0
   47.5370   34.8740   42.2130 C   0  0  0  0  0  0  0  0  0  0  0  0
   47.7700   34.1020   43.3580 C   0  0  0  0  0  0  0  0  0  0  0  0
   46.6770   33.7220   44.1380 C   0  0  0  0  0  0  0  0  0  0  0  0
   45.4610   34.1280   43.7320 N   0  0  0  0  0  0  0  0  0  0  0  0
   45.2520   34.8700   42.6290 C   0  0  0  0  0  0  0  0  0  0  0  0
   46.2900   35.2470   41.8620 N   0  0  0  0  0  0  0  0  0  0  0  0
   48.7380   35.2630   41.3980 C   0  0  0  0  0  0  0  0  0  0  0  0
   48.4110   35.2720   40.0580 F   0  0  0  0  0  0  0  0  0  0  0  0
   49.1360   36.5490   41.7450 F   0  0  0  0  0  0  0  0  0  0  0  0
   49.7210   34.3130   41.5850 F   0  0  0  0  0  0  0  0  0  0  0  0
   43.7020   35.3440   40.7950 C   0  0  0  0  0  0  0  0  0  0  0  0
   42.2400   35.1960   40.4950 C   0  0  0  0  0  0  0  0  0  0  0  0
   41.7960   35.2470   39.1910 C   0  0  0  0  0  0  0  0  0  0  0  0
   40.4870   35.1250   38.7840 C   0  0  0  0  0  0  0  0  0  0  0  0
   39.5330   34.9350   39.7810 C   0  0  0  0  0  0  0  0  0  0  0  0
   39.9550   34.8780   41.1140 C   0  0  0  0  0  0  0  0  0  0  0  0
   41.2840   35.0060   41.4740 C   0  0  0  0  0  0  0  0  0  0  0  0
   43.1520   34.5103   42.6725 H   0  0  0  0  0  0  0  0  0  0  0  0
   43.6294   36.2453   42.7175 H   0  0  0  0  0  0  0  0  0  0  0  0
   48.7911   33.8020   43.6361 H   0  0  0  0  0  0  0  0  0  0  0  0
   46.8048   33.1157   45.0469 H   0  0  0  0  0  0  0  0  0  0  0  0
   44.0662   36.3162   40.4315 H   0  0  0  0  0  0  0  0  0  0  0  0
   44.2877   34.5576   40.2964 H   0  0  0  0  0  0  0  0  0  0  0  0
   42.5536   35.3983   38.4079 H   0  0  0  0  0  0  0  0  0  0  0  0
   40.2073   35.1752   37.7213 H   0  0  0  0  0  0  0  0  0  0  0  0
   38.4681   34.8317   39.5254 H   0  0  0  0  0  0  0  0  0  0  0  0
   39.2035   34.7261   41.9028 H   0  0  0  0  0  0  0  0  0  0  0  0
   41.5780   34.9569   42.5328 H   0  0  0  0  0  0  0  0  0  0  0  0
  1  6  1  0
  2  3  2  0
  3  4  1  0
  5  4  2  0
  6  5  1  0
  7  2  1  0
  7  6  2  0
  8 11  1  0
  8 10  1  0
  8  2  1  0
  9  8  1  0
 12  1  1  0
 13 12  1  0
 13 18  1  0
 14 13  2  0
 15 14  1  0
 15 16  2  0
 16 17  1  0
 17 18  2  0
  1 19  1  0
  1 20  1  0
  3 21  1  0
  4 22  1  0
 12 23  1  0
 12 24  1  0
 14 25  1  0
 15 26  1  0
 16 27  1  0
 17 28  1  0
 18 29  1  0
M  ISO  8  19   8  20   8  21  14  22  14  23   8  24   8  25  14  26  14
M  ISO  3  27  14  28  14  29  14
M  END
>  <minimizedAffinity>  (1) 
-5.81602001

>  <minimizedRMSD>  (1) 
1.35883927

$$$$
