
     RDKit          3D

 26 27  0  0  0  0  0  0  0  0999 V2000
   43.9560   35.3310   42.4180 C   0  0  0  0  0  0  0  0  0  0  0  0
   47.6310   34.9140   42.2650 C   0  0  0  0  0  0  0  0  0  0  0  0
   47.8760   34.0630   43.3580 C   0  0  0  0  0  0  0  0  0  0  0  0
   46.7880   33.6420   44.1260 C   0  0  0  0  0  0  0  0  0  0  0  0
   45.5540   34.0980   43.7510 N   0  0  0  0  0  0  0  0  0  0  0  0
   45.3610   34.9080   42.7050 C   0  0  0  0  0  0  0  0  0  0  0  0
   46.3860   35.3280   41.9480 N   0  0  0  0  0  0  0  0  0  0  0  0
   48.8180   35.3420   41.4620 C   0  0  0  0  0  0  0  0  0  0  0  0
   48.5050   35.3380   40.1200 F   0  0  0  0  0  0  0  0  0  0  0  0
   49.1960   36.6170   41.7970 F   0  0  0  0  0  0  0  0  0  0  0  0
   49.8310   34.4120   41.6420 F   0  0  0  0  0  0  0  0  0  0  0  0
   43.6730   35.1990   40.9630 C   0  0  0  0  0  0  0  0  0  0  0  0
   42.2820   35.3870   40.6610 N   0  0  0  0  0  0  0  0  0  0  0  0
   41.8670   35.2360   39.4040 N   0  0  0  0  0  0  0  0  0  0  0  0
   40.5380   35.4530   39.3300 C   0  0  0  0  0  0  0  0  0  0  0  0
   40.1180   35.7540   40.6130 C   0  0  0  0  0  0  0  0  0  0  0  0
   41.2300   35.7070   41.4330 C   0  0  0  0  0  0  0  0  0  0  0  0
   43.2607   34.6936   42.9838 H   0  0  0  0  0  0  0  0  0  0  0  0
   43.8263   36.3814   42.7177 H   0  0  0  0  0  0  0  0  0  0  0  0
   48.8981   33.7375   43.6016 H   0  0  0  0  0  0  0  0  0  0  0  0
   46.9173   32.9754   44.9914 H   0  0  0  0  0  0  0  0  0  0  0  0
   44.2588   35.9542   40.4184 H   0  0  0  0  0  0  0  0  0  0  0  0
   43.9499   34.1795   40.6566 H   0  0  0  0  0  0  0  0  0  0  0  0
   39.9116   35.4009   38.4273 H   0  0  0  0  0  0  0  0  0  0  0  0
   39.0890   35.9877   40.9236 H   0  0  0  0  0  0  0  0  0  0  0  0
   41.2498   35.8964   42.5164 H   0  0  0  0  0  0  0  0  0  0  0  0
  1  6  1  0
  2  3  2  0
  3  4  1  0
  5  4  2  0
  6  5  1  0
  7  2  1  0
  7  6  2  0
  8 11  1  0
  8 10  1  0
  8  2  1  0
  9  8  1  0
 12  1  1  0
 13 12  1  0
 13 17  1  0
 14 13  1  0
 15 14  2  0
 15 16  1  0
 16 17  2  0
  1 18  1  0
  1 19  1  0
  3 20  1  0
  4 21  1  0
 12 22  1  0
 12 23  1  0
 15 24  1  0
 16 25  1  0
 17 26  1  0
M  ISO  8  18   8  19   8  20  14  21  14  22   8  23   8  24  14  25  14
M  ISO  1  26  14
M  END
>  <minimizedAffinity>  (1) 
-5.33725834

>  <minimizedRMSD>  (1) 
0.811899722

$$$$
