
     RDKit          3D

 24 25  0  0  0  0  0  0  0  0999 V2000
   47.7670   34.9500   42.3410 C   0  0  0  0  0  0  0  0  0  0  0  0
   48.0370   33.9360   43.2660 C   0  0  0  0  0  0  0  0  0  0  0  0
   46.9800   33.5050   44.0870 C   0  0  0  0  0  0  0  0  0  0  0  0
   45.7800   34.0950   43.9270 N   0  0  0  0  0  0  0  0  0  0  0  0
   45.5490   35.0710   43.0240 C   0  0  0  0  0  0  0  0  0  0  0  0
   46.5430   35.5010   42.2290 N   0  0  0  0  0  0  0  0  0  0  0  0
   48.9080   35.4030   41.4680 C   0  0  0  0  0  0  0  0  0  0  0  0
   48.5450   35.3640   40.1540 F   0  0  0  0  0  0  0  0  0  0  0  0
   49.2600   36.6970   41.7800 F   0  0  0  0  0  0  0  0  0  0  0  0
   49.9560   34.4980   41.6410 F   0  0  0  0  0  0  0  0  0  0  0  0
   44.1710   35.6540   42.9360 C   0  0  0  0  0  0  0  0  0  0  0  0
   43.6810   35.5710   41.5260 C   0  0  0  0  0  0  0  0  0  0  0  0
   42.2790   35.0790   41.4240 C   0  0  0  0  0  0  0  0  0  0  0  0
   41.1300   35.7830   41.4580 N   0  0  0  0  0  0  0  0  0  0  0  0
   40.1490   34.9430   41.3340 O   0  0  0  0  0  0  0  0  0  0  0  0
   40.6380   33.7360   41.2240 C   0  0  0  0  0  0  0  0  0  0  0  0
   41.9830   33.7720   41.2770 N   0  0  0  0  0  0  0  0  0  0  0  0
   49.0400   33.4918   43.3481 H   0  0  0  0  0  0  0  0  0  0  0  0
   47.1283   32.7123   44.8351 H   0  0  0  0  0  0  0  0  0  0  0  0
   43.4924   35.0906   43.5933 H   0  0  0  0  0  0  0  0  0  0  0  0
   44.1989   36.7073   43.2519 H   0  0  0  0  0  0  0  0  0  0  0  0
   43.7339   36.5739   41.0772 H   0  0  0  0  0  0  0  0  0  0  0  0
   44.3216   34.8497   40.9975 H   0  0  0  0  0  0  0  0  0  0  0  0
   40.0373   32.8222   41.1052 H   0  0  0  0  0  0  0  0  0  0  0  0
  1  2  2  0
  2  3  1  0
  4  3  2  0
  5  4  1  0
  6  1  1  0
  6  5  2  0
  7 10  1  0
  7  9  1  0
  7  1  1  0
  8  7  1  0
 11  5  1  0
 12 11  1  0
 13 14  2  0
 13 12  1  0
 15 14  1  0
 16 17  2  0
 16 15  1  0
 17 13  1  0
  2 18  1  0
  3 19  1  0
 11 20  1  0
 11 21  1  0
 12 22  1  0
 12 23  1  0
 16 24  1  0
M  ISO  7  18  14  19  14  20   8  21   8  22   8  23   8  24  14
M  END
>  <minimizedAffinity>  (1) 
-5.22972679

>  <minimizedRMSD>  (1) 
1.7226572

$$$$
