
     RDKit          3D

 25 26  0  0  0  0  0  0  0  0999 V2000
   47.7740   34.9500   42.3360 C   0  0  0  0  0  0  0  0  0  0  0  0
   48.0380   33.9230   43.2580 C   0  0  0  0  0  0  0  0  0  0  0  0
   46.9890   33.5010   44.0820 C   0  0  0  0  0  0  0  0  0  0  0  0
   45.7990   34.1050   43.9350 N   0  0  0  0  0  0  0  0  0  0  0  0
   45.5690   35.0870   43.0440 C   0  0  0  0  0  0  0  0  0  0  0  0
   46.5550   35.5150   42.2390 N   0  0  0  0  0  0  0  0  0  0  0  0
   48.9190   35.3850   41.4640 C   0  0  0  0  0  0  0  0  0  0  0  0
   48.5530   35.3590   40.1540 F   0  0  0  0  0  0  0  0  0  0  0  0
   49.2720   36.6920   41.7810 F   0  0  0  0  0  0  0  0  0  0  0  0
   49.9670   34.5050   41.6480 F   0  0  0  0  0  0  0  0  0  0  0  0
   44.1970   35.6870   42.9720 C   0  0  0  0  0  0  0  0  0  0  0  0
   43.6710   35.6200   41.5980 C   0  0  0  0  0  0  0  0  0  0  0  0
   42.4390   34.8020   41.4580 C   0  0  0  0  0  0  0  0  0  0  0  0
   41.1550   35.4840   41.4640 C   0  0  0  0  0  0  0  0  0  0  0  0
   40.0410   34.0820   41.2710 S   0  0  0  0  0  0  0  0  0  0  0  0
   41.4510   32.8170   41.2140 C   0  0  0  0  0  0  0  0  0  0  0  0
   42.5680   33.4790   41.3330 N   0  0  0  0  0  0  0  0  0  0  0  0
   49.0361   33.4661   43.3295 H   0  0  0  0  0  0  0  0  0  0  0  0
   47.1342   32.7023   44.8243 H   0  0  0  0  0  0  0  0  0  0  0  0
   43.5248   35.1327   43.6434 H   0  0  0  0  0  0  0  0  0  0  0  0
   44.2560   36.7422   43.2770 H   0  0  0  0  0  0  0  0  0  0  0  0
   43.4454   36.6437   41.2645 H   0  0  0  0  0  0  0  0  0  0  0  0
   44.4450   35.1338   40.9860 H   0  0  0  0  0  0  0  0  0  0  0  0
   40.9276   36.5560   41.5596 H   0  0  0  0  0  0  0  0  0  0  0  0
   41.3466   31.7278   41.1015 H   0  0  0  0  0  0  0  0  0  0  0  0
  1  2  2  0
  2  3  1  0
  4  3  2  0
  5  4  1  0
  6  1  1  0
  6  5  2  0
  7 10  1  0
  7  9  1  0
  7  1  1  0
  8  7  1  0
 11  5  1  0
 12 11  1  0
 13 14  2  0
 13 12  1  0
 15 14  1  0
 16 15  1  0
 16 17  2  0
 17 13  1  0
  2 18  1  0
  3 19  1  0
 11 20  1  0
 11 21  1  0
 12 22  1  0
 12 23  1  0
 14 24  1  0
 16 25  1  0
M  ISO  8  18  14  19  14  20   8  21   8  22   8  23   8  24  14  25  14
M  END
>  <minimizedAffinity>  (1) 
-5.16266727

>  <minimizedRMSD>  (1) 
1.45628917

$$$$
