
     RDKit          3D

 40 43  0  0  1  0  0  0  0  0999 V2000
   43.4890   35.3710   41.5770 C   0  0  0  0  0  0  0  0  0  0  0  0
   42.0070   35.1910   41.6100 C   0  0  1  0  0  0  0  0  0  0  0  0
   41.0890   36.2760   41.1950 C   0  0  0  0  0  0  0  0  0  0  0  0
   41.2360   35.0510   40.3450 C   0  0  2  0  0  0  0  0  0  0  0  0
   40.0080   34.1850   40.3380 C   0  0  0  0  0  0  0  0  0  0  0  0
   38.7760   34.4880   39.7970 C   0  0  0  0  0  0  0  0  0  0  0  0
   37.9050   33.4720   39.9760 N   0  0  0  0  0  0  0  0  0  0  0  0
   38.5950   32.5110   40.6400 C   0  0  0  0  0  0  0  0  0  0  0  0
   38.1950   31.2580   41.0810 C   0  0  0  0  0  0  0  0  0  0  0  0
   39.0760   30.4310   41.7470 C   0  0  0  0  0  0  0  0  0  0  0  0
   40.3910   30.8250   41.9970 C   0  0  0  0  0  0  0  0  0  0  0  0
   40.7870   32.0840   41.5510 C   0  0  0  0  0  0  0  0  0  0  0  0
   39.9030   32.9110   40.8860 C   0  0  0  0  0  0  0  0  0  0  0  0
   44.1000   35.6780   42.9210 C   0  0  0  0  0  0  0  0  0  0  0  0
   47.6730   34.9250   42.3250 C   0  0  0  0  0  0  0  0  0  0  0  0
   47.9410   33.9250   43.2670 C   0  0  0  0  0  0  0  0  0  0  0  0
   46.8700   33.5190   44.1070 C   0  0  0  0  0  0  0  0  0  0  0  0
   45.6900   34.1250   43.9290 N   0  0  0  0  0  0  0  0  0  0  0  0
   45.4580   35.0850   43.0160 C   0  0  0  0  0  0  0  0  0  0  0  0
   46.4420   35.4940   42.2070 N   0  0  0  0  0  0  0  0  0  0  0  0
   48.8150   35.3400   41.4470 C   0  0  0  0  0  0  0  0  0  0  0  0
   48.4450   35.3080   40.1370 F   0  0  0  0  0  0  0  0  0  0  0  0
   49.2000   36.6320   41.7430 F   0  0  0  0  0  0  0  0  0  0  0  0
   49.8420   34.4330   41.6110 F   0  0  0  0  0  0  0  0  0  0  0  0
   43.9415   34.4440   41.1950 H   0  0  0  0  0  0  0  0  0  0  0  0
   43.6898   36.2382   40.9307 H   0  0  0  0  0  0  0  0  0  0  0  0
   42.1225   34.5892   42.5235 H   0  0  0  0  0  0  0  0  0  0  0  0
   40.1565   36.4507   41.7517 H   0  0  0  0  0  0  0  0  0  0  0  0
   41.1898   37.3581   41.0247 H   0  0  0  0  0  0  0  0  0  0  0  0
   41.5262   34.8059   39.3127 H   0  0  0  0  0  0  0  0  0  0  0  0
   38.5349   35.4324   39.2872 H   0  0  0  0  0  0  0  0  0  0  0  0
   36.9217   33.4344   39.6718 H   0  0  0  0  0  0  0  0  0  0  0  0
   37.1643   30.9202   40.8977 H   0  0  0  0  0  0  0  0  0  0  0  0
   38.7352   29.4421   42.0874 H   0  0  0  0  0  0  0  0  0  0  0  0
   41.0914   30.1638   42.5283 H   0  0  0  0  0  0  0  0  0  0  0  0
   41.8176   32.4240   41.7309 H   0  0  0  0  0  0  0  0  0  0  0  0
   44.1703   36.7685   43.0473 H   0  0  0  0  0  0  0  0  0  0  0  0
   43.4653   35.2480   43.7098 H   0  0  0  0  0  0  0  0  0  0  0  0
   48.9398   33.4722   43.3532 H   0  0  0  0  0  0  0  0  0  0  0  0
   47.0047   32.7396   44.8714 H   0  0  0  0  0  0  0  0  0  0  0  0
  1  2  1  0
  1 14  1  0
  3  2  1  0
  4  3  1  0
  4  2  1  0
  5  4  1  0
  5 13  1  0
  6  7  1  0
  6  5  2  0
  7  8  1  0
  8 13  2  0
  8  9  1  0
  9 10  2  0
 10 11  1  0
 12 11  2  0
 13 12  1  0
 14 19  1  0
 15 16  2  0
 16 17  1  0
 18 17  2  0
 19 18  1  0
 20 15  1  0
 20 19  2  0
 21 24  1  0
 21 23  1  0
 21 15  1  0
 22 21  1  0
  1 25  1  0
  1 26  1  0
  2 27  1  1
  3 28  1  0
  3 29  1  0
  4 30  1  6
  6 31  1  0
  7 32  1  0
  9 33  1  0
 10 34  1  0
 11 35  1  0
 12 36  1  0
 14 37  1  0
 14 38  1  0
 16 39  1  0
 17 40  1  0
M  ISO  8  25   8  26   8  27  13  28  13  29  13  30  13  31  14  32   9
M  ISO  8  33  14  34  14  35  14  36  14  37   8  38   8  39  14  40  14
M  END
>  <minimizedAffinity>  (1) 
-6.89767408

>  <minimizedRMSD>  (1) 
1.29131663

$$$$
