
     RDKit          3D

 39 41  0  0  1  0  0  0  0  0999 V2000
   43.5550   35.5200   41.6530 C   0  0  0  0  0  0  0  0  0  0  0  0
   42.0970   35.1820   41.7160 C   0  0  1  0  0  0  0  0  0  0  0  0
   41.1130   35.9870   40.9340 C   0  0  0  0  0  0  0  0  0  0  0  0
   41.4240   34.5690   40.5490 C   0  0  2  0  0  0  0  0  0  0  0  0
   38.4110   31.5200   41.0300 C   0  0  0  0  0  0  0  0  0  0  0  0
   38.2350   32.5520   40.1320 C   0  0  0  0  0  0  0  0  0  0  0  0
   39.1920   33.5340   39.9680 C   0  0  0  0  0  0  0  0  0  0  0  0
   40.3720   33.5340   40.6940 C   0  0  0  0  0  0  0  0  0  0  0  0
   40.5780   32.5000   41.6120 C   0  0  0  0  0  0  0  0  0  0  0  0
   39.6020   31.5340   41.7520 C   0  0  0  0  0  0  0  0  0  0  0  0
   37.2430   30.2540   41.2810 S   0  0  0  0  0  0  0  0  0  0  0  0
   37.7110   29.2340   42.2930 O   0  0  0  0  0  0  0  0  0  0  0  0
   37.0480   29.5020   39.9970 O   0  0  0  0  0  0  0  0  0  0  0  0
   44.1950   35.8080   42.9850 C   0  0  0  0  0  0  0  0  0  0  0  0
   47.7510   34.9670   42.3150 C   0  0  0  0  0  0  0  0  0  0  0  0
   47.9890   33.9120   43.2320 C   0  0  0  0  0  0  0  0  0  0  0  0
   46.9220   33.5110   44.0620 C   0  0  0  0  0  0  0  0  0  0  0  0
   45.7500   34.1660   43.9180 N   0  0  0  0  0  0  0  0  0  0  0  0
   45.5460   35.1610   43.0450 C   0  0  0  0  0  0  0  0  0  0  0  0
   46.5440   35.5630   42.2430 N   0  0  0  0  0  0  0  0  0  0  0  0
   48.9020   35.3760   41.4430 C   0  0  0  0  0  0  0  0  0  0  0  0
   48.5380   35.3390   40.1330 F   0  0  0  0  0  0  0  0  0  0  0  0
   49.2900   36.6580   41.7420 F   0  0  0  0  0  0  0  0  0  0  0  0
   49.9280   34.4620   41.6200 F   0  0  0  0  0  0  0  0  0  0  0  0
   44.0837   34.6705   41.1960 H   0  0  0  0  0  0  0  0  0  0  0  0
   43.6327   36.4468   41.0656 H   0  0  0  0  0  0  0  0  0  0  0  0
   42.2070   34.9076   42.7755 H   0  0  0  0  0  0  0  0  0  0  0  0
   40.1350   36.2389   41.3701 H   0  0  0  0  0  0  0  0  0  0  0  0
   41.1306   36.9591   40.4195 H   0  0  0  0  0  0  0  0  0  0  0  0
   41.7873   34.0495   39.6501 H   0  0  0  0  0  0  0  0  0  0  0  0
   37.3128   32.5937   39.5338 H   0  0  0  0  0  0  0  0  0  0  0  0
   39.0123   34.3391   39.2403 H   0  0  0  0  0  0  0  0  0  0  0  0
   41.4997   32.4571   42.2109 H   0  0  0  0  0  0  0  0  0  0  0  0
   39.7754   30.7260   42.4780 H   0  0  0  0  0  0  0  0  0  0  0  0
   36.0969   30.8586   41.7257 H   0  0  0  0  0  0  0  0  0  0  0  0
   44.3040   36.8953   43.1112 H   0  0  0  0  0  0  0  0  0  0  0  0
   43.5614   35.4053   43.7890 H   0  0  0  0  0  0  0  0  0  0  0  0
   48.9724   33.4231   43.2938 H   0  0  0  0  0  0  0  0  0  0  0  0
   47.0393   32.6995   44.7953 H   0  0  0  0  0  0  0  0  0  0  0  0
  1  2  1  0
  1 14  1  0
  3  2  1  0
  4  8  1  0
  4  3  1  0
  4  2  1  0
  5 11  1  0
  5 10  2  0
  6  5  1  0
  7  6  2  0
  7  8  1  0
  8  9  2  0
  9 10  1  0
 11 12  2  0
 13 11  2  0
 14 19  1  0
 15 16  2  0
 16 17  1  0
 18 17  2  0
 19 18  1  0
 20 15  1  0
 20 19  2  0
 21 24  1  0
 21 23  1  0
 21 15  1  0
 22 21  1  0
  1 25  1  0
  1 26  1  0
  2 27  1  1
  3 28  1  0
  3 29  1  0
  4 30  1  6
  6 31  1  0
  7 32  1  0
  9 33  1  0
 10 34  1  0
 11 35  1  0
 14 36  1  0
 14 37  1  0
 16 38  1  0
 17 39  1  0
M  ISO  8  25   8  26   8  27  13  28  13  29  13  30  13  31  14  32  14
M  ISO  7  33  14  34  14  35  11  36   8  37   8  38  14  39  14
M  END
>  <minimizedAffinity>  (1) 
-6.45444393

>  <minimizedRMSD>  (1) 
1.74607742

$$$$
