
     RDKit          3D

 33 35  0  0  1  0  0  0  0  0999 V2000
   43.6900   35.5100   41.2270 C   0  0  0  0  0  0  0  0  0  0  0  0
   42.3390   34.9290   40.9410 C   0  0  1  0  0  0  0  0  0  0  0  0
   41.1560   35.3240   41.7530 C   0  0  0  0  0  0  0  0  0  0  0  0
   41.2770   35.7440   40.3220 C   0  0  2  0  0  0  0  0  0  0  0  0
   40.4070   35.0990   39.2970 C   0  0  0  0  0  0  0  0  0  0  0  0
   39.2430   34.4520   39.6570 C   0  0  0  0  0  0  0  0  0  0  0  0
   38.6580   33.9600   38.4960 C   0  0  0  0  0  0  0  0  0  0  0  0
   39.4690   34.3160   37.4810 N   0  0  0  0  0  0  0  0  0  0  0  0
   40.5230   35.0010   37.9560 N   0  0  0  0  0  0  0  0  0  0  0  0
   44.0590   35.5510   42.6870 C   0  0  0  0  0  0  0  0  0  0  0  0
   47.7000   34.9700   42.3020 C   0  0  0  0  0  0  0  0  0  0  0  0
   47.9630   34.0040   43.2880 C   0  0  0  0  0  0  0  0  0  0  0  0
   46.8800   33.5610   44.0780 C   0  0  0  0  0  0  0  0  0  0  0  0
   45.6790   34.1050   43.8180 N   0  0  0  0  0  0  0  0  0  0  0  0
   45.4500   35.0240   42.8740 C   0  0  0  0  0  0  0  0  0  0  0  0
   46.4570   35.4640   42.1090 N   0  0  0  0  0  0  0  0  0  0  0  0
   48.8730   35.4270   41.4710 C   0  0  0  0  0  0  0  0  0  0  0  0
   48.5480   35.4190   40.1550 F   0  0  0  0  0  0  0  0  0  0  0  0
   49.2320   36.7130   41.8370 F   0  0  0  0  0  0  0  0  0  0  0  0
   49.9100   34.5350   41.6630 F   0  0  0  0  0  0  0  0  0  0  0  0
   43.7100   36.5391   40.8391 H   0  0  0  0  0  0  0  0  0  0  0  0
   44.4226   34.8505   40.7388 H   0  0  0  0  0  0  0  0  0  0  0  0
   42.8245   33.9743   40.6902 H   0  0  0  0  0  0  0  0  0  0  0  0
   40.4107   34.5699   42.0459 H   0  0  0  0  0  0  0  0  0  0  0  0
   41.0024   35.8434   42.7104 H   0  0  0  0  0  0  0  0  0  0  0  0
   41.2345   36.7095   39.7967 H   0  0  0  0  0  0  0  0  0  0  0  0
   38.8489   34.3448   40.6784 H   0  0  0  0  0  0  0  0  0  0  0  0
   37.7188   33.3923   38.4209 H   0  0  0  0  0  0  0  0  0  0  0  0
   39.3055   34.0958   36.4882 H   0  0  0  0  0  0  0  0  0  0  0  0
   44.0103   36.5893   43.0470 H   0  0  0  0  0  0  0  0  0  0  0  0
   43.3546   34.9277   43.2574 H   0  0  0  0  0  0  0  0  0  0  0  0
   48.9776   33.6067   43.4391 H   0  0  0  0  0  0  0  0  0  0  0  0
   47.0128   32.8072   44.8680 H   0  0  0  0  0  0  0  0  0  0  0  0
  1 10  1  0
  2  1  1  0
  2  3  1  0
  4  2  1  0
  4  3  1  0
  5  6  1  0
  5  4  1  0
  7  6  2  0
  8  9  1  0
  8  7  1  0
  9  5  2  0
 10 15  1  0
 11 12  2  0
 12 13  1  0
 14 13  2  0
 15 14  1  0
 16 11  1  0
 16 15  2  0
 17 20  1  0
 17 19  1  0
 17 11  1  0
 18 17  1  0
  1 21  1  0
  1 22  1  0
  2 23  1  6
  3 24  1  0
  3 25  1  0
  4 26  1  1
  6 27  1  0
  7 28  1  0
  8 29  1  0
 10 30  1  0
 10 31  1  0
 12 32  1  0
 13 33  1  0
M  ISO  8  21   8  22   8  23  13  24  13  25  13  26  13  27  14  28  14
M  ISO  5  29   9  30   8  31   8  32  14  33  14
M  END
>  <minimizedAffinity>  (1) 
-6.02442122

>  <minimizedRMSD>  (1) 
0.970942795

$$$$
