
     RDKit          3D

 33 35  0  0  1  0  0  0  0  0999 V2000
   43.6930   35.4940   41.2310 C   0  0  0  0  0  0  0  0  0  0  0  0
   42.3350   34.9080   40.9690 C   0  0  1  0  0  0  0  0  0  0  0  0
   41.1460   35.3590   41.7330 C   0  0  0  0  0  0  0  0  0  0  0  0
   41.2880   35.6690   40.2690 C   0  0  2  0  0  0  0  0  0  0  0  0
   40.2830   35.0170   39.4140 C   0  0  0  0  0  0  0  0  0  0  0  0
   39.0860   34.4520   39.8050 C   0  0  0  0  0  0  0  0  0  0  0  0
   38.4620   33.9640   38.7150 N   0  0  0  0  0  0  0  0  0  0  0  0
   39.2710   34.2260   37.6510 C   0  0  0  0  0  0  0  0  0  0  0  0
   40.3980   34.8750   38.0680 N   0  0  0  0  0  0  0  0  0  0  0  0
   44.0700   35.5590   42.6880 C   0  0  0  0  0  0  0  0  0  0  0  0
   47.7000   34.9510   42.2780 C   0  0  0  0  0  0  0  0  0  0  0  0
   47.9690   33.9890   43.2810 C   0  0  0  0  0  0  0  0  0  0  0  0
   46.8810   33.5670   44.0870 C   0  0  0  0  0  0  0  0  0  0  0  0
   45.6750   34.1140   43.8330 N   0  0  0  0  0  0  0  0  0  0  0  0
   45.4550   35.0210   42.8760 C   0  0  0  0  0  0  0  0  0  0  0  0
   46.4570   35.4480   42.0930 N   0  0  0  0  0  0  0  0  0  0  0  0
   48.8710   35.3760   41.4450 C   0  0  0  0  0  0  0  0  0  0  0  0
   48.5340   35.3580   40.1240 F   0  0  0  0  0  0  0  0  0  0  0  0
   49.2370   36.6690   41.7890 F   0  0  0  0  0  0  0  0  0  0  0  0
   49.8970   34.4680   41.6330 F   0  0  0  0  0  0  0  0  0  0  0  0
   43.7114   36.5160   40.8246 H   0  0  0  0  0  0  0  0  0  0  0  0
   44.4221   34.8279   40.7466 H   0  0  0  0  0  0  0  0  0  0  0  0
   42.8230   33.9372   40.7977 H   0  0  0  0  0  0  0  0  0  0  0  0
   40.3977   34.6280   42.0731 H   0  0  0  0  0  0  0  0  0  0  0  0
   40.9791   35.9491   42.6462 H   0  0  0  0  0  0  0  0  0  0  0  0
   41.3377   36.5503   39.6126 H   0  0  0  0  0  0  0  0  0  0  0  0
   38.7046   34.4075   40.8358 H   0  0  0  0  0  0  0  0  0  0  0  0
   39.0491   33.9546   36.6084 H   0  0  0  0  0  0  0  0  0  0  0  0
   41.1803   35.1937   37.4786 H   0  0  0  0  0  0  0  0  0  0  0  0
   44.0346   36.6044   43.0285 H   0  0  0  0  0  0  0  0  0  0  0  0
   43.3621   34.9550   43.2745 H   0  0  0  0  0  0  0  0  0  0  0  0
   48.9813   33.5850   43.4293 H   0  0  0  0  0  0  0  0  0  0  0  0
   47.0155   32.8238   44.8867 H   0  0  0  0  0  0  0  0  0  0  0  0
  1 10  1  0
  2  1  1  0
  2  3  1  0
  4  2  1  0
  4  3  1  0
  5  6  2  0
  5  4  1  0
  7  6  1  0
  8  9  1  0
  8  7  2  0
  9  5  1  0
 10 15  1  0
 11 12  2  0
 12 13  1  0
 14 13  2  0
 15 14  1  0
 16 11  1  0
 16 15  2  0
 17 20  1  0
 17 19  1  0
 17 11  1  0
 18 17  1  0
  1 21  1  0
  1 22  1  0
  2 23  1  6
  3 24  1  0
  3 25  1  0
  4 26  1  1
  6 27  1  0
  8 28  1  0
  9 29  1  0
 10 30  1  0
 10 31  1  0
 12 32  1  0
 13 33  1  0
M  ISO  8  21   8  22   8  23  13  24  13  25  13  26  13  27  14  28  14
M  ISO  5  29   9  30   8  31   8  32  14  33  14
M  END
>  <minimizedAffinity>  (1) 
-5.92324448

>  <minimizedRMSD>  (1) 
0.827519536

$$$$
