
     RDKit          3D

 38 39  0  0  1  0  0  0  0  0999 V2000
   44.0440   35.5800   42.6570 C   0  0  0  0  0  0  0  0  0  0  0  0
   47.6720   34.9490   42.2750 C   0  0  0  0  0  0  0  0  0  0  0  0
   47.9340   34.0040   43.2780 C   0  0  0  0  0  0  0  0  0  0  0  0
   46.8430   33.5930   44.0810 C   0  0  0  0  0  0  0  0  0  0  0  0
   45.6360   34.1370   43.8250 N   0  0  0  0  0  0  0  0  0  0  0  0
   45.4200   35.0490   42.8480 C   0  0  0  0  0  0  0  0  0  0  0  0
   46.4360   35.4530   42.0740 N   0  0  0  0  0  0  0  0  0  0  0  0
   48.8420   35.3750   41.4290 C   0  0  0  0  0  0  0  0  0  0  0  0
   48.5040   35.3430   40.1070 F   0  0  0  0  0  0  0  0  0  0  0  0
   49.2280   36.6540   41.7570 F   0  0  0  0  0  0  0  0  0  0  0  0
   49.8550   34.4470   41.6060 F   0  0  0  0  0  0  0  0  0  0  0  0
   43.6220   35.4220   41.2260 C   0  0  0  0  0  0  0  0  0  0  0  0
   42.2370   34.8790   41.0510 C   0  0  1  0  0  0  0  0  0  0  0  0
   41.0370   35.6710   41.4060 C   0  0  0  0  0  0  0  0  0  0  0  0
   41.3570   35.4260   39.9800 C   0  0  2  0  0  0  0  0  0  0  0  0
   40.4360   34.5460   39.2010 C   0  0  0  0  0  0  0  0  0  0  0  0
   39.0520   34.6860   39.7930 C   0  0  0  0  0  0  0  0  0  0  0  0
   40.3400   34.9690   37.7590 C   0  0  0  0  0  0  0  0  0  0  0  0
   40.9460   33.1250   39.2940 C   0  0  0  0  0  0  0  0  0  0  0  0
   43.3478   35.0266   43.3044 H   0  0  0  0  0  0  0  0  0  0  0  0
   44.0318   36.6483   42.9191 H   0  0  0  0  0  0  0  0  0  0  0  0
   48.9449   33.5993   43.4340 H   0  0  0  0  0  0  0  0  0  0  0  0
   46.9753   32.8552   44.8861 H   0  0  0  0  0  0  0  0  0  0  0  0
   43.6697   36.4083   40.7413 H   0  0  0  0  0  0  0  0  0  0  0  0
   44.3078   34.6910   40.7729 H   0  0  0  0  0  0  0  0  0  0  0  0
   42.6115   33.8847   41.3358 H   0  0  0  0  0  0  0  0  0  0  0  0
   40.1693   35.1762   41.8667 H   0  0  0  0  0  0  0  0  0  0  0  0
   40.8520   36.5672   42.0164 H   0  0  0  0  0  0  0  0  0  0  0  0
   41.5441   36.0370   39.0846 H   0  0  0  0  0  0  0  0  0  0  0  0
   39.1204   34.6791   40.8909 H   0  0  0  0  0  0  0  0  0  0  0  0
   38.6047   35.6340   39.4594 H   0  0  0  0  0  0  0  0  0  0  0  0
   38.4239   33.8468   39.4594 H   0  0  0  0  0  0  0  0  0  0  0  0
   40.0968   36.0405   37.7066 H   0  0  0  0  0  0  0  0  0  0  0  0
   41.3024   34.7865   37.2585 H   0  0  0  0  0  0  0  0  0  0  0  0
   39.5507   34.3890   37.2585 H   0  0  0  0  0  0  0  0  0  0  0  0
   41.0481   32.8406   40.3517 H   0  0  0  0  0  0  0  0  0  0  0  0
   40.2350   32.4471   38.7990 H   0  0  0  0  0  0  0  0  0  0  0  0
   41.9257   33.0539   38.7990 H   0  0  0  0  0  0  0  0  0  0  0  0
  1  6  1  0
  2  3  2  0
  3  4  1  0
  5  4  2  0
  6  5  1  0
  7  2  1  0
  7  6  2  0
  8 11  1  0
  8 10  1  0
  8  2  1  0
  9  8  1  0
 12  1  1  0
 13 12  1  0
 13 14  1  0
 15 13  1  0
 15 14  1  0
 16 19  1  0
 16 17  1  0
 16 15  1  0
 18 16  1  0
  1 20  1  0
  1 21  1  0
  3 22  1  0
  4 23  1  0
 12 24  1  0
 12 25  1  0
 13 26  1  1
 14 27  1  0
 14 28  1  0
 15 29  1  6
 17 30  1  0
 17 31  1  0
 17 32  1  0
 18 33  1  0
 18 34  1  0
 18 35  1  0
 19 36  1  0
 19 37  1  0
 19 38  1  0
M  ISO  8  20   8  21   8  22  14  23  14  24   8  25   8  26  13  27  13
M  ISO  8  28  13  29  13  30   8  31   8  32   8  33   8  34   8  35   8
M  ISO  3  36   8  37   8  38   8
M  END
>  <minimizedAffinity>  (1) 
-6.01781702

>  <minimizedRMSD>  (1) 
0.482206047

$$$$
