
     RDKit          3D

 32 34  0  0  1  0  0  0  0  0999 V2000
   44.0480   35.5100   42.6660 C   0  0  0  0  0  0  0  0  0  0  0  0
   47.6830   34.9500   42.2740 C   0  0  0  0  0  0  0  0  0  0  0  0
   47.9500   33.9990   43.2930 C   0  0  0  0  0  0  0  0  0  0  0  0
   46.8740   33.5740   44.0900 C   0  0  0  0  0  0  0  0  0  0  0  0
   45.6610   34.0960   43.8350 N   0  0  0  0  0  0  0  0  0  0  0  0
   45.4300   34.9950   42.8640 C   0  0  0  0  0  0  0  0  0  0  0  0
   46.4380   35.4200   42.0850 N   0  0  0  0  0  0  0  0  0  0  0  0
   48.8500   35.3820   41.4410 C   0  0  0  0  0  0  0  0  0  0  0  0
   48.5170   35.3620   40.1240 F   0  0  0  0  0  0  0  0  0  0  0  0
   49.2160   36.6630   41.7730 F   0  0  0  0  0  0  0  0  0  0  0  0
   49.8820   34.4750   41.6350 F   0  0  0  0  0  0  0  0  0  0  0  0
   43.6850   35.4640   41.2020 C   0  0  0  0  0  0  0  0  0  0  0  0
   42.3370   34.8650   40.9260 C   0  0  1  0  0  0  0  0  0  0  0  0
   41.1390   35.3220   41.6890 C   0  0  0  0  0  0  0  0  0  0  0  0
   41.3060   35.6560   40.2330 C   0  0  2  0  0  0  0  0  0  0  0  0
   40.3220   35.0180   39.3720 N   0  0  0  0  0  0  0  0  0  0  0  0
   39.1600   34.4940   39.7980 C   0  0  0  0  0  0  0  0  0  0  0  0
   38.4800   33.9810   38.7560 N   0  0  0  0  0  0  0  0  0  0  0  0
   39.2600   34.2070   37.6830 C   0  0  0  0  0  0  0  0  0  0  0  0
   40.3790   34.8400   38.0820 N   0  0  0  0  0  0  0  0  0  0  0  0
   43.3423   34.8879   43.2360 H   0  0  0  0  0  0  0  0  0  0  0  0
   43.9965   36.5508   43.0183 H   0  0  0  0  0  0  0  0  0  0  0  0
   48.9655   33.6077   43.4534 H   0  0  0  0  0  0  0  0  0  0  0  0
   47.0187   32.8390   44.8955 H   0  0  0  0  0  0  0  0  0  0  0  0
   43.6933   36.4922   40.8111 H   0  0  0  0  0  0  0  0  0  0  0  0
   44.4271   34.8179   40.7102 H   0  0  0  0  0  0  0  0  0  0  0  0
   42.8121   33.8887   40.7494 H   0  0  0  0  0  0  0  0  0  0  0  0
   40.3753   34.5965   42.0059 H   0  0  0  0  0  0  0  0  0  0  0  0
   40.9690   35.8973   42.6111 H   0  0  0  0  0  0  0  0  0  0  0  0
   41.3714   36.5524   39.5988 H   0  0  0  0  0  0  0  0  0  0  0  0
   38.8159   34.4857   40.8428 H   0  0  0  0  0  0  0  0  0  0  0  0
   39.0219   33.9209   36.6479 H   0  0  0  0  0  0  0  0  0  0  0  0
  1  6  1  0
  2  3  2  0
  3  4  1  0
  5  4  2  0
  6  5  1  0
  7  2  1  0
  7  6  2  0
  8 11  1  0
  8 10  1  0
  8  2  1  0
  9  8  1  0
 12  1  1  0
 13 12  1  0
 13 14  1  0
 15 13  1  0
 15 14  1  0
 16 17  1  0
 16 15  1  0
 18 17  2  0
 19 20  2  0
 19 18  1  0
 20 16  1  0
  1 21  1  0
  1 22  1  0
  3 23  1  0
  4 24  1  0
 12 25  1  0
 12 26  1  0
 13 27  1  6
 14 28  1  0
 14 29  1  0
 15 30  1  1
 17 31  1  0
 19 32  1  0
M  ISO  8  21   8  22   8  23  14  24  14  25   8  26   8  27  13  28  13
M  ISO  4  29  13  30  13  31  14  32  14
M  END
>  <minimizedAffinity>  (1) 
-5.85972023

>  <minimizedRMSD>  (1) 
0.784345806

$$$$
