
     RDKit          3D

 34 36  0  0  1  0  0  0  0  0999 V2000
   43.6150   35.2800   41.3190 C   0  0  0  0  0  0  0  0  0  0  0  0
   43.5790   33.8100   41.0040 C   0  0  1  0  0  0  0  0  0  0  0  0
   42.3570   33.0070   41.2680 C   0  0  0  0  0  0  0  0  0  0  0  0
   42.8140   33.2730   39.8630 C   0  0  1  0  0  0  0  0  0  0  0  0
   41.9850   34.1050   38.9850 C   0  0  0  0  0  0  0  0  0  0  0  0
   40.7180   33.6280   38.6400 C   0  0  0  0  0  0  0  0  0  0  0  0
   39.8690   34.3640   37.8060 C   0  0  0  0  0  0  0  0  0  0  0  0
   40.3040   35.5530   37.3390 N   0  0  0  0  0  0  0  0  0  0  0  0
   41.5410   36.0000   37.6860 C   0  0  0  0  0  0  0  0  0  0  0  0
   42.3320   35.2850   38.4800 N   0  0  0  0  0  0  0  0  0  0  0  0
   44.1090   35.5930   42.6990 C   0  0  0  0  0  0  0  0  0  0  0  0
   47.7430   34.9810   42.2950 C   0  0  0  0  0  0  0  0  0  0  0  0
   47.9970   34.0080   43.2890 C   0  0  0  0  0  0  0  0  0  0  0  0
   46.9200   33.5800   44.0770 C   0  0  0  0  0  0  0  0  0  0  0  0
   45.7190   34.1300   43.8290 N   0  0  0  0  0  0  0  0  0  0  0  0
   45.4950   35.0510   42.8860 C   0  0  0  0  0  0  0  0  0  0  0  0
   46.5020   35.4780   42.1170 N   0  0  0  0  0  0  0  0  0  0  0  0
   48.9130   35.4200   41.4670 C   0  0  0  0  0  0  0  0  0  0  0  0
   48.5910   35.3950   40.1490 F   0  0  0  0  0  0  0  0  0  0  0  0
   49.2630   36.7100   41.8010 F   0  0  0  0  0  0  0  0  0  0  0  0
   49.9480   34.5080   41.6580 F   0  0  0  0  0  0  0  0  0  0  0  0
   42.5960   35.6813   41.2165 H   0  0  0  0  0  0  0  0  0  0  0  0
   44.3229   35.7405   40.6141 H   0  0  0  0  0  0  0  0  0  0  0  0
   44.6330   33.7516   41.3132 H   0  0  0  0  0  0  0  0  0  0  0  0
   42.4416   31.9965   41.6943 H   0  0  0  0  0  0  0  0  0  0  0  0
   41.4246   33.1627   41.8304 H   0  0  0  0  0  0  0  0  0  0  0  0
   43.0923   32.6751   38.9826 H   0  0  0  0  0  0  0  0  0  0  0  0
   40.3818   32.6564   39.0310 H   0  0  0  0  0  0  0  0  0  0  0  0
   38.8725   33.9831   37.5379 H   0  0  0  0  0  0  0  0  0  0  0  0
   41.8927   36.9694   37.3032 H   0  0  0  0  0  0  0  0  0  0  0  0
   44.1226   36.6836   42.8419 H   0  0  0  0  0  0  0  0  0  0  0  0
   43.4380   35.1271   43.4357 H   0  0  0  0  0  0  0  0  0  0  0  0
   49.0075   33.6001   43.4390 H   0  0  0  0  0  0  0  0  0  0  0  0
   47.0522   32.8250   44.8660 H   0  0  0  0  0  0  0  0  0  0  0  0
  1 11  1  0
  2  3  1  0
  2  1  1  0
  4  2  1  0
  4  3  1  0
  5  4  1  0
  6  5  2  0
  7  6  1  0
  8  9  1  0
  8  7  2  0
  9 10  2  0
 10  5  1  0
 11 16  1  0
 12 13  2  0
 13 14  1  0
 15 14  2  0
 16 15  1  0
 17 12  1  0
 17 16  2  0
 18 21  1  0
 18 20  1  0
 18 12  1  0
 19 18  1  0
  1 22  1  0
  1 23  1  0
  2 24  1  1
  3 25  1  0
  3 26  1  0
  4 27  1  6
  6 28  1  0
  7 29  1  0
  9 30  1  0
 11 31  1  0
 11 32  1  0
 13 33  1  0
 14 34  1  0
M  ISO  8  22   8  23   8  24  13  25  13  26  13  27  13  28  14  29  14
M  ISO  5  30  14  31   8  32   8  33  14  34  14
M  END
>  <minimizedAffinity>  (1) 
-5.68248749

>  <minimizedRMSD>  (1) 
1.68052268

$$$$
