
     RDKit          3D

 32 33  0  0  1  0  0  0  0  0999 V2000
   44.0840   35.6510   42.8920 C   0  0  0  0  0  0  0  0  0  0  0  0
   47.6780   34.9220   42.3090 C   0  0  0  0  0  0  0  0  0  0  0  0
   47.9480   33.9190   43.2690 C   0  0  0  0  0  0  0  0  0  0  0  0
   46.8830   33.5100   44.1000 C   0  0  0  0  0  0  0  0  0  0  0  0
   45.6890   34.1040   43.9230 N   0  0  0  0  0  0  0  0  0  0  0  0
   45.4630   35.0610   42.9970 C   0  0  0  0  0  0  0  0  0  0  0  0
   46.4460   35.4740   42.1890 N   0  0  0  0  0  0  0  0  0  0  0  0
   48.8170   35.3440   41.4350 C   0  0  0  0  0  0  0  0  0  0  0  0
   48.4520   35.3310   40.1270 F   0  0  0  0  0  0  0  0  0  0  0  0
   49.1890   36.6490   41.7480 F   0  0  0  0  0  0  0  0  0  0  0  0
   49.8530   34.4450   41.6050 F   0  0  0  0  0  0  0  0  0  0  0  0
   43.6060   35.5440   41.4820 C   0  0  0  0  0  0  0  0  0  0  0  0
   42.2100   35.0450   41.3060 C   0  0  1  0  0  0  0  0  0  0  0  0
   41.0590   35.9960   41.2210 C   0  0  0  0  0  0  0  0  0  0  0  0
   41.4920   35.2400   40.0200 C   0  0  2  0  0  0  0  0  0  0  0  0
   40.5390   34.1890   39.5140 C   0  0  0  0  0  0  0  0  0  0  0  0
   39.1090   34.6930   39.7180 C   0  0  0  0  0  0  0  0  0  0  0  0
   43.3985   35.1024   43.5547 H   0  0  0  0  0  0  0  0  0  0  0  0
   44.1129   36.7091   43.1913 H   0  0  0  0  0  0  0  0  0  0  0  0
   48.9497   33.4747   43.3643 H   0  0  0  0  0  0  0  0  0  0  0  0
   47.0243   32.7328   44.8655 H   0  0  0  0  0  0  0  0  0  0  0  0
   43.6668   36.5441   41.0281 H   0  0  0  0  0  0  0  0  0  0  0  0
   44.2539   34.7954   41.0026 H   0  0  0  0  0  0  0  0  0  0  0  0
   42.4596   34.1799   41.9379 H   0  0  0  0  0  0  0  0  0  0  0  0
   40.1053   35.7512   41.7113 H   0  0  0  0  0  0  0  0  0  0  0  0
   40.9079   37.0592   41.4595 H   0  0  0  0  0  0  0  0  0  0  0  0
   41.8277   35.4831   39.0011 H   0  0  0  0  0  0  0  0  0  0  0  0
   40.6864   33.2537   40.0740 H   0  0  0  0  0  0  0  0  0  0  0  0
   40.7223   33.9960   38.4467 H   0  0  0  0  0  0  0  0  0  0  0  0
   38.8967   34.7678   40.7947 H   0  0  0  0  0  0  0  0  0  0  0  0
   38.9996   35.6839   39.2530 H   0  0  0  0  0  0  0  0  0  0  0  0
   38.4025   33.9897   39.2530 H   0  0  0  0  0  0  0  0  0  0  0  0
  1  6  1  0
  2  3  2  0
  3  4  1  0
  5  4  2  0
  6  5  1  0
  7  2  1  0
  7  6  2  0
  8 11  1  0
  8 10  1  0
  8  2  1  0
  9  8  1  0
 12  1  1  0
 13 12  1  0
 14 13  1  0
 15 14  1  0
 15 13  1  0
 16 17  1  0
 16 15  1  0
  1 18  1  0
  1 19  1  0
  3 20  1  0
  4 21  1  0
 12 22  1  0
 12 23  1  0
 13 24  1  1
 14 25  1  0
 14 26  1  0
 15 27  1  6
 16 28  1  0
 16 29  1  0
 17 30  1  0
 17 31  1  0
 17 32  1  0
M  ISO  8  18   8  19   8  20  14  21  14  22   8  23   8  24  13  25  13
M  ISO  7  26  13  27  13  28   8  29   8  30   8  31   8  32   8
M  END
>  <minimizedAffinity>  (1) 
-5.33293676

>  <minimizedRMSD>  (1) 
0.428686142

$$$$
