
     RDKit          3D

 29 30  0  0  1  0  0  0  0  0999 V2000
   43.9020   35.5340   42.4420 C   0  0  0  0  0  0  0  0  0  0  0  0
   47.5490   34.9400   42.2290 C   0  0  0  0  0  0  0  0  0  0  0  0
   47.7890   34.0630   43.3110 C   0  0  0  0  0  0  0  0  0  0  0  0
   46.6720   33.6970   44.0950 C   0  0  0  0  0  0  0  0  0  0  0  0
   45.4780   34.2100   43.7470 N   0  0  0  0  0  0  0  0  0  0  0  0
   45.2860   35.0370   42.7160 C   0  0  0  0  0  0  0  0  0  0  0  0
   46.3170   35.4090   41.9490 N   0  0  0  0  0  0  0  0  0  0  0  0
   48.7550   35.3190   41.4050 C   0  0  0  0  0  0  0  0  0  0  0  0
   48.4280   35.3080   40.0860 F   0  0  0  0  0  0  0  0  0  0  0  0
   49.1820   36.5830   41.7370 F   0  0  0  0  0  0  0  0  0  0  0  0
   49.7250   34.3630   41.6050 F   0  0  0  0  0  0  0  0  0  0  0  0
   43.5620   35.3440   40.9940 C   0  0  0  0  0  0  0  0  0  0  0  0
   42.7670   34.1010   40.7130 C   0  0  1  0  0  0  0  0  0  0  0  0
   41.3400   34.0010   41.0850 C   0  0  0  0  0  0  0  0  0  0  0  0
   41.7390   34.0930   39.6400 C   0  0  1  0  0  0  0  0  0  0  0  0
   41.2840   35.3850   38.9810 C   0  0  0  0  0  0  0  0  0  0  0  0
   40.7590   36.2880   39.8930 F   0  0  0  0  0  0  0  0  0  0  0  0
   42.3010   35.9540   38.2430 F   0  0  0  0  0  0  0  0  0  0  0  0
   40.2620   35.0780   38.1020 F   0  0  0  0  0  0  0  0  0  0  0  0
   43.1854   34.9735   43.0603 H   0  0  0  0  0  0  0  0  0  0  0  0
   43.8500   36.6054   42.6858 H   0  0  0  0  0  0  0  0  0  0  0  0
   48.7975   33.6834   43.5322 H   0  0  0  0  0  0  0  0  0  0  0  0
   46.7746   33.0196   44.9556 H   0  0  0  0  0  0  0  0  0  0  0  0
   42.9763   36.2127   40.6590 H   0  0  0  0  0  0  0  0  0  0  0  0
   44.5145   35.2426   40.4533 H   0  0  0  0  0  0  0  0  0  0  0  0
   43.6620   33.5023   40.9378 H   0  0  0  0  0  0  0  0  0  0  0  0
   40.9406   33.0581   41.4869 H   0  0  0  0  0  0  0  0  0  0  0  0
   40.6654   34.5669   41.7443 H   0  0  0  0  0  0  0  0  0  0  0  0
   41.6452   33.5055   38.7148 H   0  0  0  0  0  0  0  0  0  0  0  0
  1  6  1  0
  2  3  2  0
  3  4  1  0
  5  4  2  0
  6  5  1  0
  7  2  1  0
  7  6  2  0
  8 11  1  0
  8 10  1  0
  8  2  1  0
  9  8  1  0
 12  1  1  0
 13 12  1  0
 13 14  1  0
 15 13  1  0
 15 14  1  0
 16 15  1  0
 16 17  1  0
 18 16  1  0
 19 16  1  0
  1 20  1  0
  1 21  1  0
  3 22  1  0
  4 23  1  0
 12 24  1  0
 12 25  1  0
 13 26  1  6
 14 27  1  0
 14 28  1  0
 15 29  1  6
M  ISO  8  20   8  21   8  22  14  23  14  24   8  25   8  26  13  27  13
M  ISO  2  28  13  29  13
M  END
>  <minimizedAffinity>  (1) 
-5.56110048

>  <minimizedRMSD>  (1) 
0.89521724

$$$$
