
     RDKit          3D

 35 36  0  0  1  0  0  0  0  0999 V2000
   44.1680   35.7280   43.0280 C   0  0  0  0  0  0  0  0  0  0  0  0
   47.7350   34.9530   42.3330 C   0  0  0  0  0  0  0  0  0  0  0  0
   48.0010   33.9140   43.2440 C   0  0  0  0  0  0  0  0  0  0  0  0
   46.9520   33.4930   44.0850 C   0  0  0  0  0  0  0  0  0  0  0  0
   45.7690   34.1220   43.9490 N   0  0  0  0  0  0  0  0  0  0  0  0
   45.5350   35.1100   43.0760 C   0  0  0  0  0  0  0  0  0  0  0  0
   46.5150   35.5270   42.2670 N   0  0  0  0  0  0  0  0  0  0  0  0
   48.8640   35.3800   41.4520 C   0  0  0  0  0  0  0  0  0  0  0  0
   48.4830   35.3340   40.1430 F   0  0  0  0  0  0  0  0  0  0  0  0
   49.2430   36.6680   41.7350 F   0  0  0  0  0  0  0  0  0  0  0  0
   49.9020   34.4810   41.6110 F   0  0  0  0  0  0  0  0  0  0  0  0
   43.5950   35.5910   41.6460 C   0  0  0  0  0  0  0  0  0  0  0  0
   42.1890   35.0900   41.5910 C   0  0  1  0  0  0  0  0  0  0  0  0
   41.0910   35.9620   41.0880 C   0  0  0  0  0  0  0  0  0  0  0  0
   41.5170   34.7720   40.3080 C   0  0  1  0  0  0  0  0  0  0  0  0
   42.1400   35.0790   38.9830 C   0  0  0  0  0  0  0  0  0  0  0  0
   42.9480   33.9460   38.3980 C   0  0  0  0  0  0  0  0  0  0  0  0
   41.0320   35.4290   38.0120 C   0  0  0  0  0  0  0  0  0  0  0  0
   43.5112   35.2176   43.7478 H   0  0  0  0  0  0  0  0  0  0  0  0
   44.2428   36.7948   43.2857 H   0  0  0  0  0  0  0  0  0  0  0  0
   48.9950   33.4460   43.2977 H   0  0  0  0  0  0  0  0  0  0  0  0
   47.0929   32.6866   44.8198 H   0  0  0  0  0  0  0  0  0  0  0  0
   43.6236   36.5801   41.1654 H   0  0  0  0  0  0  0  0  0  0  0  0
   44.2097   34.8371   41.1324 H   0  0  0  0  0  0  0  0  0  0  0  0
   42.3866   34.5293   42.5165 H   0  0  0  0  0  0  0  0  0  0  0  0
   40.1153   35.9670   41.5959 H   0  0  0  0  0  0  0  0  0  0  0  0
   40.9846   37.0359   40.8749 H   0  0  0  0  0  0  0  0  0  0  0  0
   41.0730   33.8419   39.9235 H   0  0  0  0  0  0  0  0  0  0  0  0
   42.8424   35.9095   39.1470 H   0  0  0  0  0  0  0  0  0  0  0  0
   43.3776   33.3436   39.2120 H   0  0  0  0  0  0  0  0  0  0  0  0
   42.2963   33.3129   37.7779 H   0  0  0  0  0  0  0  0  0  0  0  0
   43.7588   34.3559   37.7779 H   0  0  0  0  0  0  0  0  0  0  0  0
   40.1296   35.7141   38.5727 H   0  0  0  0  0  0  0  0  0  0  0  0
   41.3513   36.2700   37.3790 H   0  0  0  0  0  0  0  0  0  0  0  0
   40.8102   34.5572   37.3790 H   0  0  0  0  0  0  0  0  0  0  0  0
  1  6  1  0
  2  3  2  0
  3  4  1  0
  5  4  2  0
  6  5  1  0
  7  2  1  0
  7  6  2  0
  8 11  1  0
  8 10  1  0
  8  2  1  0
  9  8  1  0
 12  1  1  0
 13 12  1  0
 14 13  1  0
 15 14  1  0
 15 13  1  0
 16 15  1  0
 17 16  1  0
 18 16  1  0
  1 19  1  0
  1 20  1  0
  3 21  1  0
  4 22  1  0
 12 23  1  0
 12 24  1  0
 13 25  1  1
 14 26  1  0
 14 27  1  0
 15 28  1  6
 16 29  1  0
 17 30  1  0
 17 31  1  0
 17 32  1  0
 18 33  1  0
 18 34  1  0
 18 35  1  0
M  ISO  8  19   8  20   8  21  14  22  14  23   8  24   8  25  13  26  13
M  ISO  8  27  13  28  13  29   8  30   8  31   8  32   8  33   8  34   8
M  ISO  1  35   8
M  END
>  <minimizedAffinity>  (1) 
-5.4690814

>  <minimizedRMSD>  (1) 
0.558027208

$$$$
