
     RDKit          3D

 27 28  0  0  1  0  0  0  0  0999 V2000
   44.1550   35.6770   42.9350 C   0  0  0  0  0  0  0  0  0  0  0  0
   47.7390   34.9620   42.3230 C   0  0  0  0  0  0  0  0  0  0  0  0
   48.0050   33.9440   43.2590 C   0  0  0  0  0  0  0  0  0  0  0  0
   46.9450   33.5180   44.0890 C   0  0  0  0  0  0  0  0  0  0  0  0
   45.7640   34.1160   43.9210 N   0  0  0  0  0  0  0  0  0  0  0  0
   45.5280   35.0930   43.0160 C   0  0  0  0  0  0  0  0  0  0  0  0
   46.5190   35.5110   42.2200 N   0  0  0  0  0  0  0  0  0  0  0  0
   48.8770   35.3960   41.4560 C   0  0  0  0  0  0  0  0  0  0  0  0
   48.5220   35.3520   40.1530 F   0  0  0  0  0  0  0  0  0  0  0  0
   49.2520   36.6890   41.7790 F   0  0  0  0  0  0  0  0  0  0  0  0
   49.9240   34.4970   41.6270 F   0  0  0  0  0  0  0  0  0  0  0  0
   43.6470   35.5790   41.5270 C   0  0  0  0  0  0  0  0  0  0  0  0
   42.2710   34.9870   41.4060 C   0  0  1  0  0  0  0  0  0  0  0  0
   41.1090   35.8580   41.1310 C   0  0  0  0  0  0  0  0  0  0  0  0
   41.6020   34.9130   40.0860 C   0  0  1  0  0  0  0  0  0  0  0  0
   42.2450   35.3970   38.9600 O   0  0  0  0  0  0  0  0  0  0  0  0
   43.4818   35.1234   43.6061 H   0  0  0  0  0  0  0  0  0  0  0  0
   44.1900   36.7341   43.2373 H   0  0  0  0  0  0  0  0  0  0  0  0
   49.0060   33.4953   43.3409 H   0  0  0  0  0  0  0  0  0  0  0  0
   47.0866   32.7278   44.8411 H   0  0  0  0  0  0  0  0  0  0  0  0
   43.6255   36.5913   41.0972 H   0  0  0  0  0  0  0  0  0  0  0  0
   44.3294   34.9020   40.9922 H   0  0  0  0  0  0  0  0  0  0  0  0
   42.5236   34.2551   42.1874 H   0  0  0  0  0  0  0  0  0  0  0  0
   40.1490   35.6702   41.6342 H   0  0  0  0  0  0  0  0  0  0  0  0
   40.9196   36.9407   41.1750 H   0  0  0  0  0  0  0  0  0  0  0  0
   41.1479   34.1125   39.4834 H   0  0  0  0  0  0  0  0  0  0  0  0
   43.0050   35.9691   39.2343 H   0  0  0  0  0  0  0  0  0  0  0  0
  1  6  1  0
  2  3  2  0
  3  4  1  0
  5  4  2  0
  6  5  1  0
  7  2  1  0
  7  6  2  0
  8 11  1  0
  8 10  1  0
  8  2  1  0
  9  8  1  0
 12  1  1  0
 13 12  1  0
 14 13  1  0
 15 14  1  0
 15 13  1  0
 16 15  1  0
  1 17  1  0
  1 18  1  0
  3 19  1  0
  4 20  1  0
 12 21  1  0
 12 22  1  0
 13 23  1  1
 14 24  1  0
 14 25  1  0
 15 26  1  6
 16 27  1  0
M  ISO  8  17   8  18   8  19  14  20  14  21   8  22   8  23  13  24  13
M  ISO  3  25  13  26  13  27   3
M  END
>  <minimizedAffinity>  (1) 
-5.06298113

>  <minimizedRMSD>  (1) 
0.0956216082

$$$$
