
     RDKit          3D

 39 41  0  0  1  0  0  0  0  0999 V2000
   43.6090   35.5190   41.6420 C   0  0  0  0  0  0  0  0  0  0  0  0
   42.2370   34.9140   41.6970 C   0  0  1  0  0  0  0  0  0  0  0  0
   41.0350   35.7100   41.4180 C   0  0  0  0  0  0  0  0  0  0  0  0
   41.4630   34.6760   40.4430 C   0  0  1  0  0  0  0  0  0  0  0  0
   42.0160   35.0220   39.2290 O   0  0  0  0  0  0  0  0  0  0  0  0
   40.9380   33.0810   38.6600 N   0  0  0  0  0  0  0  0  0  0  0  0
   39.6300   32.9200   38.1040 C   0  0  0  0  0  0  0  0  0  0  0  0
   39.1000   34.2890   37.8110 C   0  0  0  0  0  0  0  0  0  0  0  0
   40.3230   35.1290   37.6040 C   0  0  0  0  0  0  0  0  0  0  0  0
   41.4970   34.3220   38.1600 C   0  0  1  0  0  0  0  0  0  0  0  0
   44.2220   35.7540   42.9920 C   0  0  0  0  0  0  0  0  0  0  0  0
   47.7700   34.9630   42.3220 C   0  0  0  0  0  0  0  0  0  0  0  0
   48.0370   33.9190   43.2360 C   0  0  0  0  0  0  0  0  0  0  0  0
   46.9810   33.5010   44.0730 C   0  0  0  0  0  0  0  0  0  0  0  0
   45.8110   34.1310   43.9330 N   0  0  0  0  0  0  0  0  0  0  0  0
   45.5820   35.1280   43.0520 C   0  0  0  0  0  0  0  0  0  0  0  0
   46.5620   35.5390   42.2510 N   0  0  0  0  0  0  0  0  0  0  0  0
   48.9060   35.3850   41.4460 C   0  0  0  0  0  0  0  0  0  0  0  0
   48.5400   35.3300   40.1390 F   0  0  0  0  0  0  0  0  0  0  0  0
   49.2930   36.6790   41.7520 F   0  0  0  0  0  0  0  0  0  0  0  0
   49.9510   34.4810   41.5960 F   0  0  0  0  0  0  0  0  0  0  0  0
   44.2648   34.8405   41.0767 H   0  0  0  0  0  0  0  0  0  0  0  0
   43.5062   36.5030   41.1611 H   0  0  0  0  0  0  0  0  0  0  0  0
   42.5713   34.2924   42.5407 H   0  0  0  0  0  0  0  0  0  0  0  0
   40.1247   35.5559   42.0160 H   0  0  0  0  0  0  0  0  0  0  0  0
   40.8169   36.7865   41.3581 H   0  0  0  0  0  0  0  0  0  0  0  0
   40.9724   33.8157   39.9643 H   0  0  0  0  0  0  0  0  0  0  0  0
   40.8775   33.1156   39.6876 H   0  0  0  0  0  0  0  0  0  0  0  0
   39.6849   32.3310   37.1766 H   0  0  0  0  0  0  0  0  0  0  0  0
   38.9707   32.3889   38.8063 H   0  0  0  0  0  0  0  0  0  0  0  0
   38.4773   34.2789   36.9043 H   0  0  0  0  0  0  0  0  0  0  0  0
   38.4617   34.6723   38.6207 H   0  0  0  0  0  0  0  0  0  0  0  0
   40.4713   35.3283   36.5324 H   0  0  0  0  0  0  0  0  0  0  0  0
   40.2307   36.1012   38.1102 H   0  0  0  0  0  0  0  0  0  0  0  0
   42.2746   34.1424   37.4030 H   0  0  0  0  0  0  0  0  0  0  0  0
   44.3107   36.8361   43.1686 H   0  0  0  0  0  0  0  0  0  0  0  0
   43.5815   35.3019   43.7636 H   0  0  0  0  0  0  0  0  0  0  0  0
   49.0304   33.4500   43.2928 H   0  0  0  0  0  0  0  0  0  0  0  0
   47.1148   32.6931   44.8075 H   0  0  0  0  0  0  0  0  0  0  0  0
  1  2  1  0
  1 11  1  0
  3  2  1  0
  4  3  1  0
  4  2  1  0
  5  4  1  0
  7  6  1  0
  8  7  1  0
  9  8  1  0
  9 10  1  0
 10  6  1  0
 10  5  1  0
 11 16  1  0
 12 13  2  0
 13 14  1  0
 15 14  2  0
 16 15  1  0
 17 12  1  0
 17 16  2  0
 18 21  1  0
 18 20  1  0
 18 12  1  0
 19 18  1  0
  1 22  1  0
  1 23  1  0
  2 24  1  1
  3 25  1  0
  3 26  1  0
  4 27  1  6
  6 28  1  0
  7 29  1  0
  7 30  1  0
  8 31  1  0
  8 32  1  0
  9 33  1  0
  9 34  1  0
 10 35  1  6
 11 36  1  0
 11 37  1  0
 13 38  1  0
 14 39  1  0
M  ISO  8  22   8  23   8  24  13  25  13  26  13  27  13  28   5  29  13
M  ISO  8  30  13  31  13  32  13  33  13  34  13  35  13  36   8  37   8
M  ISO  2  38  14  39  14
M  END
>  <minimizedAffinity>  (1) 
-5.80884981

>  <minimizedRMSD>  (1) 
1.09783387

$$$$
