
     RDKit          3D

 18 18  0  0  0  0  0  0  0  0999 V2000
   44.6130   36.0020   44.3830 C   0  0  0  0  0  0  0  0  0  0  0  0
   45.2970   35.9550   43.1640 C   0  0  0  0  0  0  0  0  0  0  0  0
   46.1770   34.9040   42.9550 C   0  0  0  0  0  0  0  0  0  0  0  0
   46.3310   33.9730   43.9460 N   0  0  0  0  0  0  0  0  0  0  0  0
   45.6510   34.0480   45.1160 C   0  0  0  0  0  0  0  0  0  0  0  0
   44.8030   35.0520   45.3290 N   0  0  0  0  0  0  0  0  0  0  0  0
   46.9700   34.7480   41.6860 C   0  0  0  0  0  0  0  0  0  0  0  0
   48.3640   35.3590   41.8770 C   0  0  0  0  0  0  0  0  0  0  0  0
   48.8880   35.5350   40.5230 N   0  0  0  0  0  0  0  0  0  0  0  0
   43.9088   36.8246   44.5765 H   0  0  0  0  0  0  0  0  0  0  0  0
   45.1419   36.7269   42.3958 H   0  0  0  0  0  0  0  0  0  0  0  0
   45.7997   33.2798   45.8891 H   0  0  0  0  0  0  0  0  0  0  0  0
   46.4525   35.2646   40.8642 H   0  0  0  0  0  0  0  0  0  0  0  0
   47.0676   33.6796   41.4431 H   0  0  0  0  0  0  0  0  0  0  0  0
   48.2943   36.3276   42.3937 H   0  0  0  0  0  0  0  0  0  0  0  0
   49.0146   34.7203   42.4924 H   0  0  0  0  0  0  0  0  0  0  0  0
   49.8633   35.8626   40.5722 H   0  0  0  0  0  0  0  0  0  0  0  0
   48.8526   34.6360   40.0216 H   0  0  0  0  0  0  0  0  0  0  0  0
  1  6  2  0
  2  1  1  0
  3  2  2  0
  3  4  1  0
  4  5  2  0
  5  6  1  0
  7  8  1  0
  7  3  1  0
  9  8  1  0
  1 10  1  0
  2 11  1  0
  5 12  1  0
  7 13  1  0
  7 14  1  0
  8 15  1  0
  8 16  1  0
  9 17  1  0
  9 18  1  0
M  ISO  8  10  14  11  14  12  14  13   8  14   8  15   8  16   8  17   5
M  ISO  1  18   5
M  END
>  <minimizedAffinity>  (1) 
-3.70346761

>  <minimizedRMSD>  (1) 
0.172566742

$$$$
