
     RDKit          3D

 53 56  0  0  1  0  0  0  0  0999 V2000
   43.5930   35.4920   41.4150 C   0  0  0  0  0  0  0  0  0  0  0  0
   43.6950   34.0580   40.9870 C   0  0  1  0  0  0  0  0  0  0  0  0
   42.7360   33.0460   41.4690 C   0  0  0  0  0  0  0  0  0  0  0  0
   42.7180   33.5270   40.0230 C   0  0  1  0  0  0  0  0  0  0  0  0
   41.6500   34.1830   39.6220 O   0  0  0  0  0  0  0  0  0  0  0  0
   38.8350   33.0040   38.8500 N   0  0  0  0  0  0  0  0  0  0  0  0
   39.8350   32.0540   38.5080 C   0  0  0  0  0  0  0  0  0  0  0  0
   41.0950   32.5870   38.0050 C   0  0  0  0  0  0  0  0  0  0  0  0
   41.2990   34.1580   38.2900 C   0  0  1  0  0  0  0  0  0  0  0  0
   40.1440   34.8020   37.7490 C   0  0  0  0  0  0  0  0  0  0  0  0
   38.8460   34.1890   38.0830 C   0  0  0  0  0  0  0  0  0  0  0  0
   44.1210   35.7500   42.7910 C   0  0  0  0  0  0  0  0  0  0  0  0
   47.7090   34.9910   42.3260 C   0  0  0  0  0  0  0  0  0  0  0  0
   47.9380   33.9940   43.3010 C   0  0  0  0  0  0  0  0  0  0  0  0
   46.8570   33.6070   44.0940 C   0  0  0  0  0  0  0  0  0  0  0  0
   45.6800   34.2110   43.8720 N   0  0  0  0  0  0  0  0  0  0  0  0
   45.4850   35.1660   42.9300 C   0  0  0  0  0  0  0  0  0  0  0  0
   46.5030   35.5540   42.1580 N   0  0  0  0  0  0  0  0  0  0  0  0
   46.9940   32.6120   45.1010 N   0  0  0  0  0  0  0  0  0  0  0  0
   46.7160   32.8100   46.4810 C   0  0  0  0  0  0  0  0  0  0  0  0
   46.4010   31.6110   47.2730 C   0  0  0  0  0  0  0  0  0  0  0  0
   46.2640   30.3140   46.5660 C   0  0  0  0  0  0  0  0  0  0  0  0
   46.2830   30.3710   45.0710 C   0  0  0  0  0  0  0  0  0  0  0  0
   47.4530   31.2920   44.7090 C   0  0  0  0  0  0  0  0  0  0  0  0
   48.8830   35.3900   41.4810 C   0  0  0  0  0  0  0  0  0  0  0  0
   48.5550   35.3290   40.1610 F   0  0  0  0  0  0  0  0  0  0  0  0
   49.2900   36.6580   41.8170 F   0  0  0  0  0  0  0  0  0  0  0  0
   49.8990   34.4470   41.6720 F   0  0  0  0  0  0  0  0  0  0  0  0
   42.5337   35.7873   41.3889 H   0  0  0  0  0  0  0  0  0  0  0  0
   44.2107   36.0789   40.7193 H   0  0  0  0  0  0  0  0  0  0  0  0
   44.7921   34.1301   41.0211 H   0  0  0  0  0  0  0  0  0  0  0  0
   43.0789   32.0289   41.7097 H   0  0  0  0  0  0  0  0  0  0  0  0
   42.0016   32.9865   42.2858 H   0  0  0  0  0  0  0  0  0  0  0  0
   42.8236   33.1043   39.0130 H   0  0  0  0  0  0  0  0  0  0  0  0
   38.1517   32.8398   39.6030 H   0  0  0  0  0  0  0  0  0  0  0  0
   40.0579   31.4645   39.4095 H   0  0  0  0  0  0  0  0  0  0  0  0
   39.4117   31.4736   37.6749 H   0  0  0  0  0  0  0  0  0  0  0  0
   41.1301   32.4249   36.9176 H   0  0  0  0  0  0  0  0  0  0  0  0
   41.9000   32.0589   38.5370 H   0  0  0  0  0  0  0  0  0  0  0  0
   42.0927   34.7496   37.8104 H   0  0  0  0  0  0  0  0  0  0  0  0
   40.2191   35.7017   37.1206 H   0  0  0  0  0  0  0  0  0  0  0  0
   37.9052   34.6455   37.7416 H   0  0  0  0  0  0  0  0  0  0  0  0
   44.1696   36.8350   42.9653 H   0  0  0  0  0  0  0  0  0  0  0  0
   43.4512   35.2839   43.5286 H   0  0  0  0  0  0  0  0  0  0  0  0
   48.9315   33.5399   43.4300 H   0  0  0  0  0  0  0  0  0  0  0  0
   46.7355   33.8118   46.9349 H   0  0  0  0  0  0  0  0  0  0  0  0
   46.2702   31.6746   48.3633 H   0  0  0  0  0  0  0  0  0  0  0  0
   47.0936   29.6672   46.8877 H   0  0  0  0  0  0  0  0  0  0  0  0
   45.2658   29.9371   46.8334 H   0  0  0  0  0  0  0  0  0  0  0  0
   46.4403   29.3669   44.6504 H   0  0  0  0  0  0  0  0  0  0  0  0
   45.3308   30.7438   44.6656 H   0  0  0  0  0  0  0  0  0  0  0  0
   48.3588   31.0113   45.2665 H   0  0  0  0  0  0  0  0  0  0  0  0
   47.7225   31.2361   43.6440 H   0  0  0  0  0  0  0  0  0  0  0  0
  1 12  1  0
  2  1  1  0
  2  3  1  0
  4  2  1  0
  4  3  1  0
  5  4  1  0
  7  6  1  0
  8  9  1  0
  8  7  1  0
  9  5  1  0
 10 11  2  0
 10  9  1  0
 11  6  1  0
 12 17  1  0
 13 14  2  0
 14 15  1  0
 15 19  1  0
 16 15  2  0
 17 16  1  0
 18 13  1  0
 18 17  2  0
 19 20  1  0
 20 21  2  0
 22 21  1  0
 23 22  1  0
 24 23  1  0
 24 19  1  0
 25 28  1  0
 25 27  1  0
 25 13  1  0
 26 25  1  0
  1 29  1  0
  1 30  1  0
  2 31  1  6
  3 32  1  0
  3 33  1  0
  4 34  1  6
  6 35  1  0
  7 36  1  0
  7 37  1  0
  8 38  1  0
  8 39  1  0
  9 40  1  6
 10 41  1  0
 11 42  1  0
 12 43  1  0
 12 44  1  0
 14 45  1  0
 20 46  1  0
 21 47  1  0
 22 48  1  0
 22 49  1  0
 23 50  1  0
 23 51  1  0
 24 52  1  0
 24 53  1  0
M  ISO  8  29   8  30   8  31  13  32  13  33  13  34  13  36  13  37  13
M  ISO  8  38  13  39  13  40  13  41  13  42  13  43   8  44   8  45  14
M  ISO  8  46  13  47  13  48  13  49  13  50  13  51  13  52  13  53  13
M  END
>  <minimizedAffinity>  (1) 
-6.67554951

>  <minimizedRMSD>  (1) 
0.170375794

$$$$
