
     RDKit          3D

 53 56  0  0  1  0  0  0  0  0999 V2000
   43.5920   35.4840   41.4190 C   0  0  0  0  0  0  0  0  0  0  0  0
   43.7000   34.0540   40.9840 C   0  0  1  0  0  0  0  0  0  0  0  0
   42.7420   33.0360   41.4700 C   0  0  0  0  0  0  0  0  0  0  0  0
   42.7190   33.5210   40.0250 C   0  0  1  0  0  0  0  0  0  0  0  0
   41.6520   34.1750   39.6220 O   0  0  0  0  0  0  0  0  0  0  0  0
   38.8340   33.0000   38.8470 N   0  0  0  0  0  0  0  0  0  0  0  0
   39.8340   32.0500   38.5070 C   0  0  0  0  0  0  0  0  0  0  0  0
   41.0980   32.5780   38.0050 C   0  0  0  0  0  0  0  0  0  0  0  0
   41.3040   34.1490   38.2900 C   0  0  1  0  0  0  0  0  0  0  0  0
   40.1490   34.7960   37.7550 C   0  0  0  0  0  0  0  0  0  0  0  0
   38.8480   34.1940   38.0870 C   0  0  0  0  0  0  0  0  0  0  0  0
   44.1220   35.7480   42.7930 C   0  0  0  0  0  0  0  0  0  0  0  0
   47.7080   34.9700   42.3510 C   0  0  0  0  0  0  0  0  0  0  0  0
   47.9310   33.9700   43.3040 C   0  0  0  0  0  0  0  0  0  0  0  0
   46.8380   33.5750   44.0920 C   0  0  0  0  0  0  0  0  0  0  0  0
   45.6610   34.1800   43.8770 N   0  0  0  0  0  0  0  0  0  0  0  0
   45.4800   35.1550   42.9350 C   0  0  0  0  0  0  0  0  0  0  0  0
   46.5060   35.5470   42.1750 N   0  0  0  0  0  0  0  0  0  0  0  0
   47.0130   32.5640   45.0720 N   0  0  0  0  0  0  0  0  0  0  0  0
   46.7790   32.7660   46.4890 C   0  0  0  0  0  0  0  0  0  0  0  0
   45.9780   31.5280   46.9130 C   0  0  0  0  0  0  0  0  0  0  0  0
   46.8280   30.4590   46.9050 O   0  0  0  0  0  0  0  0  0  0  0  0
   47.6770   30.3320   45.8490 C   0  0  0  0  0  0  0  0  0  0  0  0
   47.4460   31.2450   44.6820 C   0  0  0  0  0  0  0  0  0  0  0  0
   48.8880   35.3720   41.5220 C   0  0  0  0  0  0  0  0  0  0  0  0
   48.5760   35.3090   40.1920 F   0  0  0  0  0  0  0  0  0  0  0  0
   49.2920   36.6430   41.8500 F   0  0  0  0  0  0  0  0  0  0  0  0
   49.9050   34.4320   41.7170 F   0  0  0  0  0  0  0  0  0  0  0  0
   42.5306   35.7721   41.3973 H   0  0  0  0  0  0  0  0  0  0  0  0
   44.2076   36.0736   40.7237 H   0  0  0  0  0  0  0  0  0  0  0  0
   44.7971   34.1298   41.0101 H   0  0  0  0  0  0  0  0  0  0  0  0
   43.0876   32.0190   41.7073 H   0  0  0  0  0  0  0  0  0  0  0  0
   42.0108   32.9730   42.2894 H   0  0  0  0  0  0  0  0  0  0  0  0
   42.8205   33.0980   39.0147 H   0  0  0  0  0  0  0  0  0  0  0  0
   38.1462   32.8315   39.5950 H   0  0  0  0  0  0  0  0  0  0  0  0
   40.0542   31.4609   39.4095 H   0  0  0  0  0  0  0  0  0  0  0  0
   39.4109   31.4724   37.6719 H   0  0  0  0  0  0  0  0  0  0  0  0
   41.1348   32.4149   36.9178 H   0  0  0  0  0  0  0  0  0  0  0  0
   41.9012   32.0475   38.5374 H   0  0  0  0  0  0  0  0  0  0  0  0
   42.0996   34.7350   37.8066 H   0  0  0  0  0  0  0  0  0  0  0  0
   40.2276   35.6964   37.1281 H   0  0  0  0  0  0  0  0  0  0  0  0
   37.9095   34.6604   37.7528 H   0  0  0  0  0  0  0  0  0  0  0  0
   44.1790   36.8338   42.9595 H   0  0  0  0  0  0  0  0  0  0  0  0
   43.4488   35.2928   43.5344 H   0  0  0  0  0  0  0  0  0  0  0  0
   48.9229   33.5116   43.4308 H   0  0  0  0  0  0  0  0  0  0  0  0
   47.7304   32.8231   47.0382 H   0  0  0  0  0  0  0  0  0  0  0  0
   46.2489   33.7063   46.7008 H   0  0  0  0  0  0  0  0  0  0  0  0
   45.5700   31.6743   47.9240 H   0  0  0  0  0  0  0  0  0  0  0  0
   45.1391   31.3575   46.2222 H   0  0  0  0  0  0  0  0  0  0  0  0
   48.6969   30.5153   46.2181 H   0  0  0  0  0  0  0  0  0  0  0  0
   47.5027   29.3180   45.4600 H   0  0  0  0  0  0  0  0  0  0  0  0
   46.6743   30.7998   44.0368 H   0  0  0  0  0  0  0  0  0  0  0  0
   48.4068   31.3570   44.1583 H   0  0  0  0  0  0  0  0  0  0  0  0
  1 12  1  0
  2  1  1  0
  2  3  1  0
  4  2  1  0
  4  3  1  0
  5  4  1  0
  7  6  1  0
  8  9  1  0
  8  7  1  0
  9  5  1  0
 10 11  2  0
 10  9  1  0
 11  6  1  0
 12 17  1  0
 13 14  2  0
 14 15  1  0
 15 19  1  0
 16 15  2  0
 17 16  1  0
 18 13  1  0
 18 17  2  0
 19 20  1  0
 20 21  1  0
 22 21  1  0
 23 22  1  0
 24 19  1  0
 24 23  1  0
 25 28  1  0
 25 27  1  0
 25 13  1  0
 26 25  1  0
  1 29  1  0
  1 30  1  0
  2 31  1  6
  3 32  1  0
  3 33  1  0
  4 34  1  6
  6 35  1  0
  7 36  1  0
  7 37  1  0
  8 38  1  0
  8 39  1  0
  9 40  1  6
 10 41  1  0
 11 42  1  0
 12 43  1  0
 12 44  1  0
 14 45  1  0
 20 46  1  0
 20 47  1  0
 21 48  1  0
 21 49  1  0
 23 50  1  0
 23 51  1  0
 24 52  1  0
 24 53  1  0
M  ISO  8  29   8  30   8  31  13  32  13  33  13  34  13  36  13  37  13
M  ISO  8  38  13  39  13  40  13  41  13  42  13  43   8  44   8  45  14
M  ISO  8  46  13  47  13  48  13  49  13  50  13  51  13  52  13  53  13
M  END
>  <minimizedAffinity>  (1) 
-6.66037989

>  <minimizedRMSD>  (1) 
0.17630212

$$$$
