
     RDKit          3D

 54 58  0  0  1  0  0  0  0  0999 V2000
   44.1110   35.5850   42.6440 C   0  0  0  0  0  0  0  0  0  0  0  0
   47.7330   34.9390   42.3140 C   0  0  0  0  0  0  0  0  0  0  0  0
   47.9180   33.8500   43.1640 C   0  0  0  0  0  0  0  0  0  0  0  0
   46.7880   33.3360   43.8500 C   0  0  0  0  0  0  0  0  0  0  0  0
   45.6420   33.9590   43.6100 N   0  0  0  0  0  0  0  0  0  0  0  0
   45.4830   35.0090   42.7880 C   0  0  0  0  0  0  0  0  0  0  0  0
   46.5320   35.5000   42.1390 N   0  0  0  0  0  0  0  0  0  0  0  0
   47.1050   32.2000   44.6980 C   0  0  0  0  0  0  0  0  0  0  0  0
   47.8900   31.1910   44.2740 N   0  0  0  0  0  0  0  0  0  0  0  0
   48.2160   30.1210   45.0020 C   0  0  0  0  0  0  0  0  0  0  0  0
   47.7640   29.9710   46.2630 N   0  0  0  0  0  0  0  0  0  0  0  0
   46.9680   30.9310   46.7830 C   0  0  0  0  0  0  0  0  0  0  0  0
   46.5200   30.7640   48.0560 C   0  0  0  0  0  0  0  0  0  0  0  0
   45.7040   31.7360   48.6050 C   0  0  0  0  0  0  0  0  0  0  0  0
   45.3860   32.8190   47.8370 C   0  0  0  0  0  0  0  0  0  0  0  0
   45.8680   32.9320   46.5590 C   0  0  0  0  0  0  0  0  0  0  0  0
   46.6730   32.0070   45.9740 C   0  0  0  0  0  0  0  0  0  0  0  0
   48.9490   35.4480   41.5960 C   0  0  0  0  0  0  0  0  0  0  0  0
   48.7670   35.3760   40.2490 F   0  0  0  0  0  0  0  0  0  0  0  0
   49.2110   36.7460   41.9620 F   0  0  0  0  0  0  0  0  0  0  0  0
   50.0190   34.5960   41.8940 F   0  0  0  0  0  0  0  0  0  0  0  0
   43.6340   35.4130   41.2340 C   0  0  0  0  0  0  0  0  0  0  0  0
   43.6780   33.9950   40.7530 C   0  0  1  0  0  0  0  0  0  0  0  0
   42.9340   32.9260   41.4570 C   0  0  0  0  0  0  0  0  0  0  0  0
   42.4940   33.4260   40.0870 C   0  0  1  0  0  0  0  0  0  0  0  0
   41.3300   34.0340   40.0110 O   0  0  0  0  0  0  0  0  0  0  0  0
   38.3690   33.2140   40.7040 N   0  0  0  0  0  0  0  0  0  0  0  0
   39.0930   32.0480   40.3350 C   0  0  0  0  0  0  0  0  0  0  0  0
   40.0740   32.2060   39.2680 C   0  0  0  0  0  0  0  0  0  0  0  0
   40.4760   33.7380   38.9730 C   0  0  1  0  0  0  0  0  0  0  0  0
   39.2420   34.4170   38.7270 C   0  0  0  0  0  0  0  0  0  0  0  0
   38.1550   34.1510   39.6730 C   0  0  0  0  0  0  0  0  0  0  0  0
   43.4234   35.0661   43.3280 H   0  0  0  0  0  0  0  0  0  0  0  0
   44.1393   36.6568   42.8897 H   0  0  0  0  0  0  0  0  0  0  0  0
   48.9132   33.4014   43.2991 H   0  0  0  0  0  0  0  0  0  0  0  0
   48.8651   29.3478   44.5652 H   0  0  0  0  0  0  0  0  0  0  0  0
   46.8011   29.8735   48.6374 H   0  0  0  0  0  0  0  0  0  0  0  0
   45.3217   31.6393   49.6319 H   0  0  0  0  0  0  0  0  0  0  0  0
   44.7377   33.6073   48.2472 H   0  0  0  0  0  0  0  0  0  0  0  0
   45.5876   33.8207   45.9746 H   0  0  0  0  0  0  0  0  0  0  0  0
   42.5948   35.7685   41.1730 H   0  0  0  0  0  0  0  0  0  0  0  0
   44.3136   35.9920   40.5915 H   0  0  0  0  0  0  0  0  0  0  0  0
   44.7359   34.1231   40.4802 H   0  0  0  0  0  0  0  0  0  0  0  0
   43.3747   31.9240   41.5653 H   0  0  0  0  0  0  0  0  0  0  0  0
   42.4593   32.8183   42.4434 H   0  0  0  0  0  0  0  0  0  0  0  0
   42.3318   33.0200   39.0776 H   0  0  0  0  0  0  0  0  0  0  0  0
   38.0232   33.3645   41.6625 H   0  0  0  0  0  0  0  0  0  0  0  0
   39.6246   31.6873   41.2279 H   0  0  0  0  0  0  0  0  0  0  0  0
   38.3409   31.3492   39.9401 H   0  0  0  0  0  0  0  0  0  0  0  0
   40.9845   31.6572   39.5505 H   0  0  0  0  0  0  0  0  0  0  0  0
   39.6128   31.8142   38.3494 H   0  0  0  0  0  0  0  0  0  0  0  0
   41.0479   34.0413   38.0837 H   0  0  0  0  0  0  0  0  0  0  0  0
   39.1156   35.1011   37.8749 H   0  0  0  0  0  0  0  0  0  0  0  0
   37.1909   34.6724   39.5803 H   0  0  0  0  0  0  0  0  0  0  0  0
  1  6  1  0
  2  3  2  0
  3  4  1  0
  4  8  1  0
  5  4  2  0
  6  5  1  0
  7  2  1  0
  7  6  2  0
  8 17  1  0
  9  8  2  0
  9 10  1  0
 10 11  2  0
 11 12  1  0
 12 13  2  0
 13 14  1  0
 15 14  2  0
 16 15  1  0
 17 16  2  0
 17 12  1  0
 18 21  1  0
 18 20  1  0
 18  2  1  0
 19 18  1  0
 22  1  1  0
 23 22  1  0
 23 24  1  0
 25 23  1  0
 25 24  1  0
 26 25  1  0
 28 27  1  0
 29 28  1  0
 30 29  1  0
 30 26  1  0
 31 30  1  0
 31 32  2  0
 32 27  1  0
  1 33  1  0
  1 34  1  0
  3 35  1  0
 10 36  1  0
 13 37  1  0
 14 38  1  0
 15 39  1  0
 16 40  1  0
 22 41  1  0
 22 42  1  0
 23 43  1  6
 24 44  1  0
 24 45  1  0
 25 46  1  6
 27 47  1  0
 28 48  1  0
 28 49  1  0
 29 50  1  0
 29 51  1  0
 30 52  1  6
 31 53  1  0
 32 54  1  0
M  ISO  8  33   8  34   8  35  14  36  14  37  14  38  14  39  14  40  14
M  ISO  8  41   8  42   8  43  13  44  13  45  13  46  13  48  13  49  13
M  ISO  5  50  13  51  13  52  13  53  13  54  13
M  END
>  <minimizedAffinity>  (1) 
-7.43406343

>  <minimizedRMSD>  (1) 
0.980966389

$$$$
