
     RDKit          3D

 49 52  0  0  1  0  0  0  0  0999 V2000
   43.5770   35.4950   41.3860 C   0  0  0  0  0  0  0  0  0  0  0  0
   43.6750   34.0580   40.9740 C   0  0  1  0  0  0  0  0  0  0  0  0
   42.7110   33.0540   41.4730 C   0  0  0  0  0  0  0  0  0  0  0  0
   42.6940   33.5150   40.0210 C   0  0  1  0  0  0  0  0  0  0  0  0
   41.6290   34.1700   39.6100 O   0  0  0  0  0  0  0  0  0  0  0  0
   38.8130   32.9890   38.8320 N   0  0  0  0  0  0  0  0  0  0  0  0
   39.8150   32.0420   38.4950 C   0  0  0  0  0  0  0  0  0  0  0  0
   41.0780   32.5730   37.9930 C   0  0  0  0  0  0  0  0  0  0  0  0
   41.2830   34.1460   38.2780 C   0  0  1  0  0  0  0  0  0  0  0  0
   40.1260   34.7890   37.7410 C   0  0  0  0  0  0  0  0  0  0  0  0
   38.8250   34.1830   38.0700 C   0  0  0  0  0  0  0  0  0  0  0  0
   44.0990   35.7740   42.7590 C   0  0  0  0  0  0  0  0  0  0  0  0
   47.6850   34.9800   42.3330 C   0  0  0  0  0  0  0  0  0  0  0  0
   47.8980   33.9920   43.3150 C   0  0  0  0  0  0  0  0  0  0  0  0
   46.8080   33.6190   44.1060 C   0  0  0  0  0  0  0  0  0  0  0  0
   45.6350   34.2290   43.8710 N   0  0  0  0  0  0  0  0  0  0  0  0
   45.4580   35.1780   42.9170 C   0  0  0  0  0  0  0  0  0  0  0  0
   46.4870   35.5510   42.1490 N   0  0  0  0  0  0  0  0  0  0  0  0
   46.9780   32.6000   45.1370 C   0  0  0  0  0  0  0  0  0  0  0  0
   46.6590   32.9260   46.4390 C   0  0  0  0  0  0  0  0  0  0  0  0
   46.8390   31.9230   47.3710 C   0  0  0  0  0  0  0  0  0  0  0  0
   47.3150   30.6810   46.9620 C   0  0  0  0  0  0  0  0  0  0  0  0
   47.6260   30.3870   45.6400 C   0  0  0  0  0  0  0  0  0  0  0  0
   47.4360   31.3930   44.7600 N   0  0  0  0  0  0  0  0  0  0  0  0
   48.8700   35.3640   41.4920 C   0  0  0  0  0  0  0  0  0  0  0  0
   48.5510   35.2970   40.1690 F   0  0  0  0  0  0  0  0  0  0  0  0
   49.2870   36.6280   41.8230 F   0  0  0  0  0  0  0  0  0  0  0  0
   49.8750   34.4090   41.6950 F   0  0  0  0  0  0  0  0  0  0  0  0
   42.5186   35.7926   41.3519 H   0  0  0  0  0  0  0  0  0  0  0  0
   44.2027   36.0686   40.6864 H   0  0  0  0  0  0  0  0  0  0  0  0
   44.7724   34.1284   41.0019 H   0  0  0  0  0  0  0  0  0  0  0  0
   43.0506   32.0392   41.7277 H   0  0  0  0  0  0  0  0  0  0  0  0
   41.9773   33.0084   42.2913 H   0  0  0  0  0  0  0  0  0  0  0  0
   42.7963   33.0757   39.0177 H   0  0  0  0  0  0  0  0  0  0  0  0
   38.1245   32.8197   39.5792 H   0  0  0  0  0  0  0  0  0  0  0  0
   40.0361   31.4552   39.3988 H   0  0  0  0  0  0  0  0  0  0  0  0
   39.3943   31.4614   37.6608 H   0  0  0  0  0  0  0  0  0  0  0  0
   41.1147   32.4101   36.9057 H   0  0  0  0  0  0  0  0  0  0  0  0
   41.8818   32.0440   38.5260 H   0  0  0  0  0  0  0  0  0  0  0  0
   42.0777   34.7352   37.7971 H   0  0  0  0  0  0  0  0  0  0  0  0
   40.2029   35.6898   37.1144 H   0  0  0  0  0  0  0  0  0  0  0  0
   37.8859   34.6459   37.7325 H   0  0  0  0  0  0  0  0  0  0  0  0
   44.1577   36.8616   42.9128 H   0  0  0  0  0  0  0  0  0  0  0  0
   43.4202   35.3293   43.5016 H   0  0  0  0  0  0  0  0  0  0  0  0
   48.8870   33.5308   43.4539 H   0  0  0  0  0  0  0  0  0  0  0  0
   46.2848   33.9223   46.7173 H   0  0  0  0  0  0  0  0  0  0  0  0
   46.6074   32.1048   48.4309 H   0  0  0  0  0  0  0  0  0  0  0  0
   47.4514   29.8958   47.7202 H   0  0  0  0  0  0  0  0  0  0  0  0
   48.0019   29.4004   45.3311 H   0  0  0  0  0  0  0  0  0  0  0  0
  1 12  1  0
  2  1  1  0
  2  3  1  0
  4  2  1  0
  4  3  1  0
  5  4  1  0
  7  6  1  0
  8  9  1  0
  8  7  1  0
  9  5  1  0
 10 11  2  0
 10  9  1  0
 11  6  1  0
 12 17  1  0
 13 14  2  0
 14 15  1  0
 15 19  1  0
 16 15  2  0
 17 16  1  0
 18 13  1  0
 18 17  2  0
 19 20  2  0
 20 21  1  0
 22 21  2  0
 23 22  1  0
 24 19  1  0
 24 23  2  0
 25 28  1  0
 25 27  1  0
 25 13  1  0
 26 25  1  0
  1 29  1  0
  1 30  1  0
  2 31  1  6
  3 32  1  0
  3 33  1  0
  4 34  1  6
  6 35  1  0
  7 36  1  0
  7 37  1  0
  8 38  1  0
  8 39  1  0
  9 40  1  6
 10 41  1  0
 11 42  1  0
 12 43  1  0
 12 44  1  0
 14 45  1  0
 20 46  1  0
 21 47  1  0
 22 48  1  0
 23 49  1  0
M  ISO  8  29   8  30   8  31  13  32  13  33  13  34  13  36  13  37  13
M  ISO  8  38  13  39  13  40  13  41  13  42  13  43   8  44   8  45  14
M  ISO  4  46  14  47  14  48  14  49  14
M  END
>  <minimizedAffinity>  (1) 
-6.50854826

>  <minimizedRMSD>  (1) 
0.20919618

$$$$
