
     RDKit          3D

 48 51  0  0  1  0  0  0  0  0999 V2000
   43.5950   35.4590   41.3770 C   0  0  0  0  0  0  0  0  0  0  0  0
   43.6980   34.0220   40.9630 C   0  0  1  0  0  0  0  0  0  0  0  0
   42.7390   33.0140   41.4560 C   0  0  0  0  0  0  0  0  0  0  0  0
   42.7200   33.4790   40.0050 C   0  0  1  0  0  0  0  0  0  0  0  0
   41.6490   34.1290   39.6040 O   0  0  0  0  0  0  0  0  0  0  0  0
   38.8110   32.9880   38.8580 N   0  0  0  0  0  0  0  0  0  0  0  0
   39.7940   32.0260   38.5030 C   0  0  0  0  0  0  0  0  0  0  0  0
   41.0590   32.5420   37.9960 C   0  0  0  0  0  0  0  0  0  0  0  0
   41.2880   34.1110   38.2760 C   0  0  1  0  0  0  0  0  0  0  0  0
   40.1360   34.7700   37.7530 C   0  0  0  0  0  0  0  0  0  0  0  0
   38.8280   34.1820   38.0970 C   0  0  0  0  0  0  0  0  0  0  0  0
   44.1070   35.7310   42.7570 C   0  0  0  0  0  0  0  0  0  0  0  0
   47.7040   35.0000   42.3230 C   0  0  0  0  0  0  0  0  0  0  0  0
   47.9350   34.0300   43.3060 C   0  0  0  0  0  0  0  0  0  0  0  0
   46.8570   33.6410   44.1040 C   0  0  0  0  0  0  0  0  0  0  0  0
   45.6730   34.2230   43.8720 N   0  0  0  0  0  0  0  0  0  0  0  0
   45.4770   35.1620   42.9120 C   0  0  0  0  0  0  0  0  0  0  0  0
   46.4960   35.5490   42.1380 N   0  0  0  0  0  0  0  0  0  0  0  0
   46.9590   32.6440   45.1610 C   0  0  0  0  0  0  0  0  0  0  0  0
   47.2720   31.3210   44.9460 C   0  0  0  0  0  0  0  0  0  0  0  0
   47.3700   30.3740   45.9440 C   0  0  0  0  0  0  0  0  0  0  0  0
   47.1410   30.7890   47.2050 N   0  0  0  0  0  0  0  0  0  0  0  0
   46.8290   32.0950   47.4500 C   0  0  0  0  0  0  0  0  0  0  0  0
   46.7460   32.9770   46.4450 N   0  0  0  0  0  0  0  0  0  0  0  0
   48.8750   35.3950   41.4810 C   0  0  0  0  0  0  0  0  0  0  0  0
   48.5500   35.3310   40.1530 F   0  0  0  0  0  0  0  0  0  0  0  0
   49.2860   36.6680   41.8020 F   0  0  0  0  0  0  0  0  0  0  0  0
   49.8940   34.4550   41.6670 F   0  0  0  0  0  0  0  0  0  0  0  0
   42.5368   35.7564   41.3354 H   0  0  0  0  0  0  0  0  0  0  0  0
   44.2238   36.0368   40.6836 H   0  0  0  0  0  0  0  0  0  0  0  0
   44.7951   34.0958   40.9950 H   0  0  0  0  0  0  0  0  0  0  0  0
   43.0827   31.9998   41.7076 H   0  0  0  0  0  0  0  0  0  0  0  0
   42.0048   32.9629   42.2735 H   0  0  0  0  0  0  0  0  0  0  0  0
   42.8267   33.0468   38.9991 H   0  0  0  0  0  0  0  0  0  0  0  0
   38.1328   32.8281   39.6165 H   0  0  0  0  0  0  0  0  0  0  0  0
   40.0132   31.4266   39.3989 H   0  0  0  0  0  0  0  0  0  0  0  0
   39.3566   31.4591   37.6680 H   0  0  0  0  0  0  0  0  0  0  0  0
   41.0886   32.3771   36.9088 H   0  0  0  0  0  0  0  0  0  0  0  0
   41.8574   32.0047   38.5288 H   0  0  0  0  0  0  0  0  0  0  0  0
   42.0842   34.6894   37.7845 H   0  0  0  0  0  0  0  0  0  0  0  0
   40.2190   35.6699   37.1258 H   0  0  0  0  0  0  0  0  0  0  0  0
   37.8913   34.6579   37.7713 H   0  0  0  0  0  0  0  0  0  0  0  0
   44.1422   36.8175   42.9253 H   0  0  0  0  0  0  0  0  0  0  0  0
   43.4352   35.2623   43.4912 H   0  0  0  0  0  0  0  0  0  0  0  0
   48.9330   33.5888   43.4451 H   0  0  0  0  0  0  0  0  0  0  0  0
   47.4560   30.9979   43.9108 H   0  0  0  0  0  0  0  0  0  0  0  0
   47.6237   29.3273   45.7204 H   0  0  0  0  0  0  0  0  0  0  0  0
   46.6440   32.4265   48.4824 H   0  0  0  0  0  0  0  0  0  0  0  0
  1 12  1  0
  2  1  1  0
  2  3  1  0
  4  2  1  0
  4  3  1  0
  5  4  1  0
  7  6  1  0
  8  9  1  0
  8  7  1  0
  9  5  1  0
 10 11  2  0
 10  9  1  0
 11  6  1  0
 12 17  1  0
 13 14  2  0
 14 15  1  0
 15 19  1  0
 16 15  2  0
 17 16  1  0
 18 13  1  0
 18 17  2  0
 19 24  1  0
 20 19  2  0
 20 21  1  0
 21 22  2  0
 22 23  1  0
 24 23  2  0
 25 28  1  0
 25 27  1  0
 25 13  1  0
 26 25  1  0
  1 29  1  0
  1 30  1  0
  2 31  1  6
  3 32  1  0
  3 33  1  0
  4 34  1  6
  6 35  1  0
  7 36  1  0
  7 37  1  0
  8 38  1  0
  8 39  1  0
  9 40  1  6
 10 41  1  0
 11 42  1  0
 12 43  1  0
 12 44  1  0
 14 45  1  0
 20 46  1  0
 21 47  1  0
 23 48  1  0
M  ISO  8  29   8  30   8  31  13  32  13  33  13  34  13  36  13  37  13
M  ISO  8  38  13  39  13  40  13  41  13  42  13  43   8  44   8  45  14
M  ISO  3  46  14  47  14  48  14
M  END
>  <minimizedAffinity>  (1) 
-6.47116232

>  <minimizedRMSD>  (1) 
0.191982731

$$$$
