
     RDKit          3D

 17 17  0  0  0  0  0  0  0  0999 V2000
   44.5450   36.0190   44.4800 C   0  0  0  0  0  0  0  0  0  0  0  0
   45.2300   35.9950   43.2600 C   0  0  0  0  0  0  0  0  0  0  0  0
   46.1330   34.9570   43.0410 C   0  0  0  0  0  0  0  0  0  0  0  0
   46.2880   34.0280   44.0380 N   0  0  0  0  0  0  0  0  0  0  0  0
   45.6110   34.0850   45.1980 C   0  0  0  0  0  0  0  0  0  0  0  0
   44.7510   35.0750   45.4030 N   0  0  0  0  0  0  0  0  0  0  0  0
   46.9380   34.7960   41.7920 C   0  0  0  0  0  0  0  0  0  0  0  0
   48.4300   34.9560   42.1350 C   0  0  0  0  0  0  0  0  0  0  0  0
   48.9920   35.9670   41.3920 O   0  0  0  0  0  0  0  0  0  0  0  0
   43.8264   36.8269   44.6822 H   0  0  0  0  0  0  0  0  0  0  0  0
   45.0609   36.7706   42.4985 H   0  0  0  0  0  0  0  0  0  0  0  0
   45.7684   33.3179   45.9705 H   0  0  0  0  0  0  0  0  0  0  0  0
   46.6429   35.5635   41.0613 H   0  0  0  0  0  0  0  0  0  0  0  0
   46.7600   33.8000   41.3603 H   0  0  0  0  0  0  0  0  0  0  0  0
   48.5316   35.1938   43.2042 H   0  0  0  0  0  0  0  0  0  0  0  0
   48.9499   34.0147   41.9033 H   0  0  0  0  0  0  0  0  0  0  0  0
   49.3720   36.6506   41.9990 H   0  0  0  0  0  0  0  0  0  0  0  0
  1  6  2  0
  2  1  1  0
  3  2  2  0
  3  4  1  0
  4  5  2  0
  5  6  1  0
  7  8  1  0
  7  3  1  0
  9  8  1  0
  1 10  1  0
  2 11  1  0
  5 12  1  0
  7 13  1  0
  7 14  1  0
  8 15  1  0
  8 16  1  0
  9 17  1  0
M  ISO  8  10  14  11  14  12  14  13   8  14   8  15   8  16   8  17   3
M  END
>  <minimizedAffinity>  (1) 
-3.47724009

>  <minimizedRMSD>  (1) 
0.485192597

$$$$
