
     RDKit          3D

 52 54  0  0  1  0  0  0  0  0999 V2000
   43.6570   34.0830   41.0480 C   0  0  1  0  0  0  0  0  0  0  0  0
   42.7070   33.0300   41.4510 C   0  0  0  0  0  0  0  0  0  0  0  0
   42.7320   33.5620   40.0250 C   0  0  1  0  0  0  0  0  0  0  0  0
   43.5060   35.4910   41.5270 C   0  0  0  0  0  0  0  0  0  0  0  0
   44.1810   35.7610   42.8360 C   0  0  0  0  0  0  0  0  0  0  0  0
   47.7360   34.9220   42.2770 C   0  0  0  0  0  0  0  0  0  0  0  0
   47.8930   33.7280   43.0150 C   0  0  0  0  0  0  0  0  0  0  0  0
   46.7700   33.2380   43.6930 C   0  0  0  0  0  0  0  0  0  0  0  0
   45.6290   33.9360   43.5900 N   0  0  0  0  0  0  0  0  0  0  0  0
   45.5100   35.0840   42.8700 C   0  0  0  0  0  0  0  0  0  0  0  0
   46.5650   35.5730   42.2150 N   0  0  0  0  0  0  0  0  0  0  0  0
   48.9530   35.4320   41.5530 C   0  0  0  0  0  0  0  0  0  0  0  0
   48.7660   35.3620   40.2110 F   0  0  0  0  0  0  0  0  0  0  0  0
   49.2080   36.7310   41.9380 F   0  0  0  0  0  0  0  0  0  0  0  0
   50.0220   34.5830   41.8490 F   0  0  0  0  0  0  0  0  0  0  0  0
   46.8740   31.9860   44.4870 C   0  0  0  0  0  0  0  0  0  0  0  0
   45.6480   31.1130   44.3170 C   0  0  0  0  0  0  0  0  0  0  0  0
   47.0000   32.2940   45.9670 C   0  0  0  0  0  0  0  0  0  0  0  0
   48.0710   31.1560   44.0690 C   0  0  0  0  0  0  0  0  0  0  0  0
   41.6610   34.2160   39.6160 O   0  0  0  0  0  0  0  0  0  0  0  0
   38.8470   33.0050   38.8690 N   0  0  0  0  0  0  0  0  0  0  0  0
   39.8590   32.0630   38.5450 C   0  0  0  0  0  0  0  0  0  0  0  0
   41.1080   32.6010   38.0110 C   0  0  0  0  0  0  0  0  0  0  0  0
   41.3000   34.1790   38.2900 C   0  0  1  0  0  0  0  0  0  0  0  0
   40.1340   34.8040   37.7540 C   0  0  0  0  0  0  0  0  0  0  0  0
   38.8450   34.1880   38.0960 C   0  0  0  0  0  0  0  0  0  0  0  0
   44.7495   34.1831   41.1277 H   0  0  0  0  0  0  0  0  0  0  0  0
   43.0675   32.0138   41.6685 H   0  0  0  0  0  0  0  0  0  0  0  0
   41.9423   32.9218   42.2343 H   0  0  0  0  0  0  0  0  0  0  0  0
   42.8866   33.1768   39.0063 H   0  0  0  0  0  0  0  0  0  0  0  0
   43.9368   36.1627   40.7699 H   0  0  0  0  0  0  0  0  0  0  0  0
   42.4304   35.6630   41.6803 H   0  0  0  0  0  0  0  0  0  0  0  0
   44.3206   36.8453   42.9578 H   0  0  0  0  0  0  0  0  0  0  0  0
   43.5554   35.3730   43.6534 H   0  0  0  0  0  0  0  0  0  0  0  0
   48.8592   33.2038   43.0556 H   0  0  0  0  0  0  0  0  0  0  0  0
   45.2564   30.8341   45.3064 H   0  0  0  0  0  0  0  0  0  0  0  0
   44.8777   31.6670   43.7606 H   0  0  0  0  0  0  0  0  0  0  0  0
   45.9196   30.2038   43.7606 H   0  0  0  0  0  0  0  0  0  0  0  0
   46.6473   31.4320   46.5522 H   0  0  0  0  0  0  0  0  0  0  0  0
   48.0533   32.4966   46.2110 H   0  0  0  0  0  0  0  0  0  0  0  0
   46.3907   33.1768   46.2110 H   0  0  0  0  0  0  0  0  0  0  0  0
   48.5957   30.7922   44.9647 H   0  0  0  0  0  0  0  0  0  0  0  0
   47.7313   30.2986   43.4694 H   0  0  0  0  0  0  0  0  0  0  0  0
   48.7549   31.7747   43.4694 H   0  0  0  0  0  0  0  0  0  0  0  0
   38.1600   32.8371   39.6178 H   0  0  0  0  0  0  0  0  0  0  0  0
   40.1011   31.5050   39.4615 H   0  0  0  0  0  0  0  0  0  0  0  0
   39.4367   31.4518   37.7338 H   0  0  0  0  0  0  0  0  0  0  0  0
   41.1218   32.4354   36.9236 H   0  0  0  0  0  0  0  0  0  0  0  0
   41.9302   32.0793   38.5227 H   0  0  0  0  0  0  0  0  0  0  0  0
   42.0852   34.7773   37.8046 H   0  0  0  0  0  0  0  0  0  0  0  0
   40.1973   35.6996   37.1184 H   0  0  0  0  0  0  0  0  0  0  0  0
   37.8996   34.6374   37.7580 H   0  0  0  0  0  0  0  0  0  0  0  0
  1  2  1  0
  1  4  1  0
  3  1  1  0
  3  2  1  0
  4  5  1  0
  5 10  1  0
  6  7  2  0
  7  8  1  0
  8 16  1  0
  9  8  2  0
 10  9  1  0
 11  6  1  0
 11 10  2  0
 12 15  1  0
 12 14  1  0
 12  6  1  0
 13 12  1  0
 16 18  1  0
 17 16  1  0
 19 16  1  0
 20  3  1  0
 22 21  1  0
 23 24  1  0
 23 22  1  0
 24 20  1  0
 25 26  2  0
 25 24  1  0
 26 21  1  0
  1 27  1  6
  2 28  1  0
  2 29  1  0
  3 30  1  6
  4 31  1  0
  4 32  1  0
  5 33  1  0
  5 34  1  0
  7 35  1  0
 17 36  1  0
 17 37  1  0
 17 38  1  0
 18 39  1  0
 18 40  1  0
 18 41  1  0
 19 42  1  0
 19 43  1  0
 19 44  1  0
 21 45  1  0
 22 46  1  0
 22 47  1  0
 23 48  1  0
 23 49  1  0
 24 50  1  6
 25 51  1  0
 26 52  1  0
M  ISO  8  27  13  28  13  29  13  30  13  31   8  32   8  33   8  34   8
M  ISO  8  35  14  36   8  37   8  38   8  39   8  40   8  41   8  42   8
M  ISO  8  43   8  44   8  46  13  47  13  48  13  49  13  50  13  51  13
M  ISO  1  52  13
M  END
>  <minimizedAffinity>  (1) 
-5.78891182

>  <minimizedRMSD>  (1) 
0.660560727

$$$$
