
     RDKit          3D

 17 18  0  0  0  0  0  0  0  0999 V2000
   44.8390   35.0880   44.5560 C   0  0  0  0  0  0  0  0  0  0  0  0
   45.7390   34.9310   43.4950 C   0  0  0  0  0  0  0  0  0  0  0  0
   46.7990   34.0230   43.6650 C   0  0  0  0  0  0  0  0  0  0  0  0
   46.8950   33.3490   44.8400 N   0  0  0  0  0  0  0  0  0  0  0  0
   46.0060   33.5280   45.8380 C   0  0  0  0  0  0  0  0  0  0  0  0
   44.9960   34.3900   45.6820 N   0  0  0  0  0  0  0  0  0  0  0  0
   46.2160   32.7400   47.0640 C   0  0  0  0  0  0  0  0  0  0  0  0
   45.1370   32.2770   47.8630 C   0  0  0  0  0  0  0  0  0  0  0  0
   46.0190   31.3860   49.2060 S   0  0  0  0  0  0  0  0  0  0  0  0
   47.7090   31.8060   48.4350 C   0  0  0  0  0  0  0  0  0  0  0  0
   47.4140   32.4050   47.5130 N   0  0  0  0  0  0  0  0  0  0  0  0
   43.8130   35.9680   44.3870 O   0  0  0  0  0  0  0  0  0  0  0  0
   45.6208   35.4987   42.5603 H   0  0  0  0  0  0  0  0  0  0  0  0
   47.5348   33.8620   42.8633 H   0  0  0  0  0  0  0  0  0  0  0  0
   44.0557   32.4156   47.7161 H   0  0  0  0  0  0  0  0  0  0  0  0
   48.7149   31.5378   48.7904 H   0  0  0  0  0  0  0  0  0  0  0  0
   43.7261   36.4699   43.5381 H   0  0  0  0  0  0  0  0  0  0  0  0
  1  6  2  0
  2  3  2  0
  2  1  1  0
  3  4  1  0
  4  5  2  0
  5  7  1  0
  6  5  1  0
  7 11  1  0
  7  8  2  0
  8  9  1  0
 10  9  1  0
 11 10  2  0
 12  1  1  0
  2 13  1  0
  3 14  1  0
  8 15  1  0
 10 16  1  0
 12 17  1  0
M  ISO  5  13  14  14  14  15  14  16  14  17   3
M  END
>  <minimizedAffinity>  (1) 
-4.56720257

>  <minimizedRMSD>  (1) 
1.57150471

$$$$
