
     RDKit          3D

 14 14  0  0  0  0  0  0  0  0999 V2000
   44.7820   35.1370   44.3600 C   0  0  0  0  0  0  0  0  0  0  0  0
   45.6180   35.1250   43.2210 C   0  0  0  0  0  0  0  0  0  0  0  0
   46.7580   34.2980   43.2830 C   0  0  0  0  0  0  0  0  0  0  0  0
   46.9880   33.5770   44.3990 N   0  0  0  0  0  0  0  0  0  0  0  0
   46.1630   33.6210   45.4590 C   0  0  0  0  0  0  0  0  0  0  0  0
   45.0760   34.3890   45.4390 N   0  0  0  0  0  0  0  0  0  0  0  0
   43.6680   35.9340   44.3170 O   0  0  0  0  0  0  0  0  0  0  0  0
   46.5340   32.7890   46.6010 C   0  0  0  0  0  0  0  0  0  0  0  0
   46.0350   31.6570   46.7320 O   0  0  0  0  0  0  0  0  0  0  0  0
   47.4170   33.1310   47.5980 O   0  0  0  0  0  0  0  0  0  0  0  0
   45.3908   35.7303   42.3310 H   0  0  0  0  0  0  0  0  0  0  0  0
   47.4516   34.2416   42.4311 H   0  0  0  0  0  0  0  0  0  0  0  0
   43.4765   36.4739   43.5096 H   0  0  0  0  0  0  0  0  0  0  0  0
   47.6036   32.4952   48.3335 H   0  0  0  0  0  0  0  0  0  0  0  0
  1  6  2  0
  2  3  2  0
  2  1  1  0
  3  4  1  0
  4  5  2  0
  5  8  1  0
  6  5  1  0
  7  1  1  0
  8  9  2  0
  8 10  1  0
  2 11  1  0
  3 12  1  0
  7 13  1  0
 10 14  1  0
M  ISO  4  11  14  12  14  13   3  14   3
M  END
>  <minimizedAffinity>  (1) 
-4.3363328

>  <minimizedRMSD>  (1) 
0.827677667

$$$$
