
     RDKit          3D

 23 23  0  0  0  0  0  0  0  0999 V2000
   45.1240   34.5950   45.2130 C   0  0  0  0  0  0  0  0  0  0  0  0
   45.8480   34.6110   44.0150 C   0  0  0  0  0  0  0  0  0  0  0  0
   46.8850   33.6600   43.8590 C   0  0  0  0  0  0  0  0  0  0  0  0
   47.1140   32.7880   44.8840 N   0  0  0  0  0  0  0  0  0  0  0  0
   46.3870   32.8130   46.0180 C   0  0  0  0  0  0  0  0  0  0  0  0
   45.3980   33.7130   46.1800 N   0  0  0  0  0  0  0  0  0  0  0  0
   46.7620   31.8020   47.0290 C   0  0  0  0  0  0  0  0  0  0  0  0
   47.4390   30.5990   46.4270 C   0  0  0  0  0  0  0  0  0  0  0  0
   47.6110   32.3780   48.1430 C   0  0  0  0  0  0  0  0  0  0  0  0
   45.4980   31.2590   47.7030 C   0  0  0  0  0  0  0  0  0  0  0  0
   44.1270   35.5140   45.3550 O   0  0  0  0  0  0  0  0  0  0  0  0
   45.6189   35.3378   43.2218 H   0  0  0  0  0  0  0  0  0  0  0  0
   47.4880   33.6248   42.9397 H   0  0  0  0  0  0  0  0  0  0  0  0
   47.8071   29.9448   47.2311 H   0  0  0  0  0  0  0  0  0  0  0  0
   46.7195   30.0463   45.8051 H   0  0  0  0  0  0  0  0  0  0  0  0
   48.2849   30.9272   45.8051 H   0  0  0  0  0  0  0  0  0  0  0  0
   47.1853   32.0892   49.1153 H   0  0  0  0  0  0  0  0  0  0  0  0
   48.6364   31.9884   48.0614 H   0  0  0  0  0  0  0  0  0  0  0  0
   47.6280   33.4748   48.0614 H   0  0  0  0  0  0  0  0  0  0  0  0
   45.6147   31.3091   48.7956 H   0  0  0  0  0  0  0  0  0  0  0  0
   44.6313   31.8642   47.3987 H   0  0  0  0  0  0  0  0  0  0  0  0
   45.3403   30.2138   47.3987 H   0  0  0  0  0  0  0  0  0  0  0  0
   43.9403   36.1583   44.6269 H   0  0  0  0  0  0  0  0  0  0  0  0
  1 11  1  0
  1  6  2  0
  2  1  1  0
  3  2  2  0
  3  4  1  0
  4  5  2  0
  5  6  1  0
  5  7  1  0
  7 10  1  0
  7  9  1  0
  8  7  1  0
  2 12  1  0
  3 13  1  0
  8 14  1  0
  8 15  1  0
  8 16  1  0
  9 17  1  0
  9 18  1  0
  9 19  1  0
 10 20  1  0
 10 21  1  0
 10 22  1  0
 11 23  1  0
M  ISO  8  12  14  13  14  14   8  15   8  16   8  17   8  18   8  19   8
M  ISO  4  20   8  21   8  22   8  23   3
M  END
>  <minimizedAffinity>  (1) 
-4.03264999

>  <minimizedRMSD>  (1) 
1.54570913

$$$$
