
     RDKit          3D

 14 14  0  0  0  0  0  0  0  0999 V2000
   44.7380   35.2320   44.1170 C   0  0  0  0  0  0  0  0  0  0  0  0
   45.5090   35.5490   42.9800 C   0  0  0  0  0  0  0  0  0  0  0  0
   46.7210   34.8750   42.7990 C   0  0  0  0  0  0  0  0  0  0  0  0
   47.0830   33.9600   43.7210 N   0  0  0  0  0  0  0  0  0  0  0  0
   46.3300   33.6800   44.7920 C   0  0  0  0  0  0  0  0  0  0  0  0
   45.1560   34.3150   44.9900 N   0  0  0  0  0  0  0  0  0  0  0  0
   43.5550   35.8890   44.2950 O   0  0  0  0  0  0  0  0  0  0  0  0
   46.8660   32.6360   45.7320 C   0  0  0  0  0  0  0  0  0  0  0  0
   45.1674   36.3041   42.2567 H   0  0  0  0  0  0  0  0  0  0  0  0
   47.3608   35.0853   41.9293 H   0  0  0  0  0  0  0  0  0  0  0  0
   43.2612   36.5668   43.6359 H   0  0  0  0  0  0  0  0  0  0  0  0
   46.7006   32.9582   46.7707 H   0  0  0  0  0  0  0  0  0  0  0  0
   46.3458   31.6828   45.5565 H   0  0  0  0  0  0  0  0  0  0  0  0
   47.9438   32.5032   45.5565 H   0  0  0  0  0  0  0  0  0  0  0  0
  1  7  1  0
  1  6  2  0
  2  1  1  0
  3  2  2  0
  3  4  1  0
  4  5  2  0
  5  6  1  0
  5  8  1  0
  2  9  1  0
  3 10  1  0
  7 11  1  0
  8 12  1  0
  8 13  1  0
  8 14  1  0
M  ISO  6   9  14  10  14  11   3  12   8  13   8  14   8
M  END
>  <minimizedAffinity>  (1) 
-3.51248741

>  <minimizedRMSD>  (1) 
0.0728490502

$$$$
