
     RDKit          3D

 21 22  0  0  0  0  0  0  0  0999 V2000
   44.7440   35.2950   43.8180 C   0  0  0  0  0  0  0  0  0  0  0  0
   45.7040   35.3400   42.7760 C   0  0  0  0  0  0  0  0  0  0  0  0
   46.8630   34.5610   42.9190 C   0  0  0  0  0  0  0  0  0  0  0  0
   47.0180   33.8100   44.0300 N   0  0  0  0  0  0  0  0  0  0  0  0
   46.0850   33.7900   45.0040 C   0  0  0  0  0  0  0  0  0  0  0  0
   44.9730   34.5180   44.8970 N   0  0  0  0  0  0  0  0  0  0  0  0
   46.1770   33.0240   46.2020 N   0  0  0  0  0  0  0  0  0  0  0  0
   47.0540   32.0200   46.3870 C   0  0  0  0  0  0  0  0  0  0  0  0
   47.0400   31.3500   47.6070 C   0  0  0  0  0  0  0  0  0  0  0  0
   46.1470   31.7110   48.5990 C   0  0  0  0  0  0  0  0  0  0  0  0
   46.1940   31.0600   49.6740 O   0  0  0  0  0  0  0  0  0  0  0  0
   45.2930   32.7350   48.3370 N   0  0  0  0  0  0  0  0  0  0  0  0
   45.3050   33.3820   47.1600 C   0  0  0  0  0  0  0  0  0  0  0  0
   44.4450   34.2990   47.1010 O   0  0  0  0  0  0  0  0  0  0  0  0
   43.6230   36.0500   43.6760 O   0  0  0  0  0  0  0  0  0  0  0  0
   45.5459   35.9648   41.8846 H   0  0  0  0  0  0  0  0  0  0  0  0
   47.6352   34.5625   42.1356 H   0  0  0  0  0  0  0  0  0  0  0  0
   47.7630   31.7364   45.5952 H   0  0  0  0  0  0  0  0  0  0  0  0
   47.7462   30.5253   47.7836 H   0  0  0  0  0  0  0  0  0  0  0  0
   44.6185   33.0227   49.0603 H   0  0  0  0  0  0  0  0  0  0  0  0
   43.4992   36.6048   42.8655 H   0  0  0  0  0  0  0  0  0  0  0  0
  1  6  2  0
  2  3  2  0
  2  1  1  0
  3  4  1  0
  4  5  2  0
  5  7  1  0
  6  5  1  0
  7  8  1  0
  7 13  1  0
  8  9  2  0
  9 10  1  0
 10 11  2  0
 12 10  1  0
 13 12  1  0
 14 13  2  0
 15  1  1  0
  2 16  1  0
  3 17  1  0
  8 18  1  0
  9 19  1  0
 12 20  1  0
 15 21  1  0
M  ISO  6  16  14  17  14  18  14  19  14  20   9  21   3
M  END
>  <minimizedAffinity>  (1) 
-5.58859253

>  <minimizedRMSD>  (1) 
1.01627147

$$$$
