
     RDKit          3D

 27 28  0  0  0  0  0  0  0  0999 V2000
   45.6400   35.1920   42.8740 C   0  0  0  0  0  0  0  0  0  0  0  0
   46.8050   34.9950   42.0750 C   0  0  0  0  0  0  0  0  0  0  0  0
   47.8100   34.1740   42.5840 C   0  0  0  0  0  0  0  0  0  0  0  0
   47.6490   33.6020   43.7920 N   0  0  0  0  0  0  0  0  0  0  0  0
   46.5290   33.8080   44.5290 C   0  0  0  0  0  0  0  0  0  0  0  0
   45.5510   34.5840   44.0760 N   0  0  0  0  0  0  0  0  0  0  0  0
   46.2940   33.2400   45.8050 N   0  0  0  0  0  0  0  0  0  0  0  0
   46.9890   32.2110   46.3240 C   0  0  0  0  0  0  0  0  0  0  0  0
   46.6420   31.7560   47.5990 C   0  0  0  0  0  0  0  0  0  0  0  0
   45.6170   32.3470   48.2980 C   0  0  0  0  0  0  0  0  0  0  0  0
   45.3660   31.8830   49.4330 O   0  0  0  0  0  0  0  0  0  0  0  0
   44.9530   33.3880   47.7100 N   0  0  0  0  0  0  0  0  0  0  0  0
   45.2850   33.8230   46.4910 C   0  0  0  0  0  0  0  0  0  0  0  0
   44.5670   34.7860   46.1140 O   0  0  0  0  0  0  0  0  0  0  0  0
   44.6570   35.9930   42.3810 O   0  0  0  0  0  0  0  0  0  0  0  0
   43.4100   35.4420   42.0090 C   0  0  0  0  0  0  0  0  0  0  0  0
   43.2910   35.1530   40.5340 C   0  0  0  0  0  0  0  0  0  0  0  0
   46.9070   35.4747   41.0904 H   0  0  0  0  0  0  0  0  0  0  0  0
   48.7270   33.9950   42.0034 H   0  0  0  0  0  0  0  0  0  0  0  0
   47.8080   31.7408   45.7599 H   0  0  0  0  0  0  0  0  0  0  0  0
   47.1945   30.9170   48.0472 H   0  0  0  0  0  0  0  0  0  0  0  0
   44.1819   33.8457   48.2167 H   0  0  0  0  0  0  0  0  0  0  0  0
   43.2681   34.5005   42.5599 H   0  0  0  0  0  0  0  0  0  0  0  0
   42.6420   36.1908   42.2529 H   0  0  0  0  0  0  0  0  0  0  0  0
   42.8758   34.1446   40.3903 H   0  0  0  0  0  0  0  0  0  0  0  0
   42.6247   35.8938   40.0678 H   0  0  0  0  0  0  0  0  0  0  0  0
   44.2857   35.2098   40.0678 H   0  0  0  0  0  0  0  0  0  0  0  0
  1  6  2  0
  2  3  2  0
  2  1  1  0
  3  4  1  0
  4  5  2  0
  5  7  1  0
  6  5  1  0
  7  8  1  0
  7 13  1  0
  8  9  2  0
  9 10  1  0
 10 11  2  0
 12 10  1  0
 13 12  1  0
 14 13  2  0
 15  1  1  0
 16 15  1  0
 17 16  1  0
  2 18  1  0
  3 19  1  0
  8 20  1  0
  9 21  1  0
 12 22  1  0
 16 23  1  0
 16 24  1  0
 17 25  1  0
 17 26  1  0
 17 27  1  0
M  ISO  8  18  14  19  14  20  14  21  14  22   9  23   8  24   8  25   8
M  ISO  2  26   8  27   8
M  END
>  <minimizedAffinity>  (1) 
-5.68729305

>  <minimizedRMSD>  (1) 
1.55268824

$$$$
