
     RDKit          3D

 33 35  0  0  0  0  0  0  0  0999 V2000
   45.7960   35.0090   42.6790 C   0  0  0  0  0  0  0  0  0  0  0  0
   46.9600   34.7630   41.9010 C   0  0  0  0  0  0  0  0  0  0  0  0
   47.9280   33.9510   42.4540 C   0  0  0  0  0  0  0  0  0  0  0  0
   47.7500   33.4340   43.6730 N   0  0  0  0  0  0  0  0  0  0  0  0
   46.6340   33.6840   44.3940 C   0  0  0  0  0  0  0  0  0  0  0  0
   45.6720   34.4630   43.8970 N   0  0  0  0  0  0  0  0  0  0  0  0
   46.3700   33.1800   45.6990 N   0  0  0  0  0  0  0  0  0  0  0  0
   47.0490   32.1760   46.2690 C   0  0  0  0  0  0  0  0  0  0  0  0
   46.7000   31.7760   47.5460 C   0  0  0  0  0  0  0  0  0  0  0  0
   45.6760   32.3940   48.2220 C   0  0  0  0  0  0  0  0  0  0  0  0
   45.3750   32.0230   49.3700 O   0  0  0  0  0  0  0  0  0  0  0  0
   45.0280   33.4130   47.5740 N   0  0  0  0  0  0  0  0  0  0  0  0
   45.3610   33.8040   46.3380 C   0  0  0  0  0  0  0  0  0  0  0  0
   44.6650   34.7490   45.8990 O   0  0  0  0  0  0  0  0  0  0  0  0
   44.8630   35.8070   42.1050 O   0  0  0  0  0  0  0  0  0  0  0  0
   43.5280   35.6120   42.1860 C   0  0  0  0  0  0  0  0  0  0  0  0
   42.6950   35.5140   43.2070 O   0  0  0  0  0  0  0  0  0  0  0  0
   42.5350   35.4520   41.0510 C   0  0  0  0  0  0  0  0  0  0  0  0
   41.2010   35.7830   41.2730 C   0  0  0  0  0  0  0  0  0  0  0  0
   40.1250   35.7320   40.4230 C   0  0  0  0  0  0  0  0  0  0  0  0
   40.4470   35.2780   39.1620 C   0  0  0  0  0  0  0  0  0  0  0  0
   41.7310   34.9240   38.8320 C   0  0  0  0  0  0  0  0  0  0  0  0
   42.7310   35.0160   39.7640 C   0  0  0  0  0  0  0  0  0  0  0  0
   47.0835   35.2018   40.8999 H   0  0  0  0  0  0  0  0  0  0  0  0
   48.8467   33.7290   41.8913 H   0  0  0  0  0  0  0  0  0  0  0  0
   47.8695   31.6786   45.7311 H   0  0  0  0  0  0  0  0  0  0  0  0
   47.2491   30.9528   48.0264 H   0  0  0  0  0  0  0  0  0  0  0  0
   44.2563   33.8958   48.0559 H   0  0  0  0  0  0  0  0  0  0  0  0
   40.9743   36.1412   42.2880 H   0  0  0  0  0  0  0  0  0  0  0  0
   39.1066   36.0244   40.7186 H   0  0  0  0  0  0  0  0  0  0  0  0
   39.6558   35.1976   38.4021 H   0  0  0  0  0  0  0  0  0  0  0  0
   41.9579   34.5656   37.8171 H   0  0  0  0  0  0  0  0  0  0  0  0
   43.7483   34.7241   39.4642 H   0  0  0  0  0  0  0  0  0  0  0  0
  1  6  2  0
  2  3  2  0
  2  1  1  0
  3  4  1  0
  4  5  2  0
  5  7  1  0
  6  5  1  0
  7  8  1  0
  7 13  1  0
  8  9  2  0
  9 10  1  0
 10 11  2  0
 12 10  1  0
 13 12  1  0
 14 13  2  0
 15 16  1  0
 15  1  1  0
 16 17  2  0
 18 19  2  0
 18 16  1  0
 20 19  1  0
 21 20  2  0
 22 21  1  0
 22 23  2  0
 23 18  1  0
  2 24  1  0
  3 25  1  0
  8 26  1  0
  9 27  1  0
 12 28  1  0
 19 29  1  0
 20 30  1  0
 21 31  1  0
 22 32  1  0
 23 33  1  0
M  ISO  8  24  14  25  14  26  14  27  14  28   9  29  14  30  14  31  14
M  ISO  2  32  14  33  14
M  END
>  <minimizedAffinity>  (1) 
-6.79276323

>  <minimizedRMSD>  (1) 
1.51447237

$$$$
