
     RDKit          3D

 34 37  0  0  0  0  0  0  0  0999 V2000
   45.4800   35.0450   42.7070 C   0  0  0  0  0  0  0  0  0  0  0  0
   46.6240   34.8720   41.8950 C   0  0  0  0  0  0  0  0  0  0  0  0
   47.6620   34.1340   42.4140 C   0  0  0  0  0  0  0  0  0  0  0  0
   47.5680   33.6130   43.6460 N   0  0  0  0  0  0  0  0  0  0  0  0
   46.4610   33.7960   44.4020 C   0  0  0  0  0  0  0  0  0  0  0  0
   45.4370   34.5040   43.9310 N   0  0  0  0  0  0  0  0  0  0  0  0
   46.2760   33.2830   45.7140 N   0  0  0  0  0  0  0  0  0  0  0  0
   47.0410   32.3070   46.2540 C   0  0  0  0  0  0  0  0  0  0  0  0
   46.7370   31.9020   47.5520 C   0  0  0  0  0  0  0  0  0  0  0  0
   45.6980   32.4730   48.2610 C   0  0  0  0  0  0  0  0  0  0  0  0
   45.4890   32.0560   49.4170 O   0  0  0  0  0  0  0  0  0  0  0  0
   44.9840   33.4460   47.6350 N   0  0  0  0  0  0  0  0  0  0  0  0
   45.2560   33.8530   46.3860 C   0  0  0  0  0  0  0  0  0  0  0  0
   44.5010   34.7540   45.9740 O   0  0  0  0  0  0  0  0  0  0  0  0
   44.4750   35.7740   42.1590 O   0  0  0  0  0  0  0  0  0  0  0  0
   43.2590   35.2920   41.8300 C   0  0  0  0  0  0  0  0  0  0  0  0
   42.0590   35.5740   42.2820 O   0  0  0  0  0  0  0  0  0  0  0  0
   41.1360   34.0610   37.7810 N   0  0  0  0  0  0  0  0  0  0  0  0
   40.9730   35.3540   38.0180 C   0  0  0  0  0  0  0  0  0  0  0  0
   41.5910   35.6190   39.1710 N   0  0  0  0  0  0  0  0  0  0  0  0
   42.1420   34.4990   39.6610 C   0  0  0  0  0  0  0  0  0  0  0  0
   42.8700   34.2420   40.7960 C   0  0  0  0  0  0  0  0  0  0  0  0
   43.2570   32.9940   40.9600 N   0  0  0  0  0  0  0  0  0  0  0  0
   42.9990   31.9980   40.1260 C   0  0  0  0  0  0  0  0  0  0  0  0
   42.2860   32.2360   39.0100 N   0  0  0  0  0  0  0  0  0  0  0  0
   41.8450   33.4730   38.7510 C   0  0  0  0  0  0  0  0  0  0  0  0
   46.6818   35.3103   40.8878 H   0  0  0  0  0  0  0  0  0  0  0  0
   48.5714   33.9707   41.8171 H   0  0  0  0  0  0  0  0  0  0  0  0
   47.8693   31.8516   45.6914 H   0  0  0  0  0  0  0  0  0  0  0  0
   47.3378   31.1099   48.0227 H   0  0  0  0  0  0  0  0  0  0  0  0
   44.2029   33.8884   48.1400 H   0  0  0  0  0  0  0  0  0  0  0  0
   40.7642   33.5708   36.9550 H   0  0  0  0  0  0  0  0  0  0  0  0
   40.4315   36.0725   37.3851 H   0  0  0  0  0  0  0  0  0  0  0  0
   43.3649   30.9838   40.3440 H   0  0  0  0  0  0  0  0  0  0  0  0
  1  6  2  0
  2  3  2  0
  2  1  1  0
  3  4  1  0
  4  5  2  0
  5  7  1  0
  6  5  1  0
  7  8  1  0
  7 13  1  0
  8  9  2  0
  9 10  1  0
 10 11  2  0
 12 10  1  0
 13 12  1  0
 14 13  2  0
 15  1  1  0
 16 15  1  0
 16 17  2  0
 18 19  1  0
 18 26  1  0
 19 20  2  0
 20 21  1  0
 21 22  2  0
 22 23  1  0
 22 16  1  0
 24 23  2  0
 25 24  1  0
 26 25  2  0
 26 21  1  0
  2 27  1  0
  3 28  1  0
  8 29  1  0
  9 30  1  0
 12 31  1  0
 18 32  1  0
 19 33  1  0
 24 34  1  0
M  ISO  8  27  14  28  14  29  14  30  14  31   9  32   9  33  14  34  14
M  END
>  <minimizedAffinity>  (1) 
-6.97691584

>  <minimizedRMSD>  (1) 
1.87040257

$$$$
