
     RDKit          3D

 35 37  0  0  0  0  0  0  0  0999 V2000
   45.6017   35.2676   42.8993 C   0  0  0  0  0  0  0  0  0  0  0  0
   46.7450   35.0846   42.0923 C   0  0  0  0  0  0  0  0  0  0  0  0
   47.7290   34.2518   42.5893 C   0  0  0  0  0  0  0  0  0  0  0  0
   47.5736   33.6664   43.7764 N   0  0  0  0  0  0  0  0  0  0  0  0
   46.4865   33.8519   44.5245 C   0  0  0  0  0  0  0  0  0  0  0  0
   45.5183   34.6397   44.0909 N   0  0  0  0  0  0  0  0  0  0  0  0
   46.2476   33.2665   45.8003 N   0  0  0  0  0  0  0  0  0  0  0  0
   46.9308   32.2204   46.2876 C   0  0  0  0  0  0  0  0  0  0  0  0
   46.6055   31.7411   47.5507 C   0  0  0  0  0  0  0  0  0  0  0  0
   45.5868   32.3461   48.2846 C   0  0  0  0  0  0  0  0  0  0  0  0
   45.3434   31.8629   49.4208 O   0  0  0  0  0  0  0  0  0  0  0  0
   44.9479   33.3934   47.7230 N   0  0  0  0  0  0  0  0  0  0  0  0
   45.2639   33.8511   46.5082 C   0  0  0  0  0  0  0  0  0  0  0  0
   44.5586   34.8375   46.1478 O   0  0  0  0  0  0  0  0  0  0  0  0
   44.6148   36.0914   42.4178 O   0  0  0  0  0  0  0  0  0  0  0  0
   43.6658   35.6458   41.5399 C   0  0  0  0  0  0  0  0  0  0  0  0
   42.5408   35.1280   41.8197 O   0  0  0  0  0  0  0  0  0  0  0  0
   46.9085   35.5376   41.1315 H   0  0  0  0  0  0  0  0  0  0  0  0
   48.6513   34.0150   42.0949 H   0  0  0  0  0  0  0  0  0  0  0  0
   47.7018   31.8028   45.6704 H   0  0  0  0  0  0  0  0  0  0  0  0
   47.1597   30.8978   47.9378 H   0  0  0  0  0  0  0  0  0  0  0  0
   44.1945   33.7996   48.3288 H   0  0  0  0  0  0  0  0  0  0  0  0
   43.1942   35.4187   40.2019 N   0  0  0  0  0  0  0  0  0  0  0  0
   41.8404   35.1272   39.8116 C   0  0  0  0  0  0  0  0  0  0  0  0
   41.6948   35.9640   38.5402 C   0  0  0  0  0  0  0  0  0  0  0  0
   43.0867   36.4367   38.1756 C   0  0  0  0  0  0  0  0  0  0  0  0
   43.9314   35.4245   38.9497 C   0  0  1  0  0  0  0  0  0  0  0  0
   44.9778   35.7102   39.0481 H   0  0  0  0  0  0  0  0  0  0  0  0
   41.0648   35.3622   40.5361 H   0  0  0  0  0  0  0  0  0  0  0  0
   41.7118   34.0442   39.5417 H   0  0  0  0  0  0  0  0  0  0  0  0
   41.3487   35.3164   37.7189 H   0  0  0  0  0  0  0  0  0  0  0  0
   41.0164   36.8127   38.7504 H   0  0  0  0  0  0  0  0  0  0  0  0
   43.2802   36.3832   37.0956 H   0  0  0  0  0  0  0  0  0  0  0  0
   43.3120   37.4309   38.6335 H   0  0  0  0  0  0  0  0  0  0  0  0
   43.7874   34.4511   38.4222 H   0  0  0  0  0  0  0  0  0  0  0  0
  1  6  2  0
  2  3  2  0
  2  1  1  0
  3  4  1  0
  4  5  2  0
  5  7  1  0
  6  5  1  0
  7  8  1  0
  7 13  1  0
  8  9  2  0
  9 10  1  0
 10 11  2  0
 12 10  1  0
 13 12  1  0
 14 13  2  0
 15  1  1  0
 16 17  2  0
 16 15  1  0
  2 18  1  0
  3 19  1  0
  8 20  1  0
  9 21  1  0
 12 22  1  0
 23 24  1  0
 24 25  1  0
 25 26  1  0
 26 27  1  0
 27 28  1  1
 27 23  1  0
 24 29  1  0
 24 30  1  0
 25 31  1  0
 25 32  1  0
 26 33  1  0
 26 34  1  0
 27 35  1  0
 16 23  1  0
M  END
>  <DihAtoms>  (1) 
16,15,22,23

>  <DihDeg>  (1) 
0.30402211025099907

$$$$
