
     RDKit          3D

 39 42  0  0  0  0  0  0  0  0999 V2000
   45.1110   34.4720   41.5790 C   0  0  0  0  0  0  0  0  0  0  0  0
   46.1040   34.0780   40.6560 C   0  0  0  0  0  0  0  0  0  0  0  0
   47.1530   33.3270   41.1360 C   0  0  0  0  0  0  0  0  0  0  0  0
   47.1870   33.0100   42.4310 N   0  0  0  0  0  0  0  0  0  0  0  0
   46.2390   33.3910   43.3040 C   0  0  0  0  0  0  0  0  0  0  0  0
   45.2200   34.1110   42.8700 N   0  0  0  0  0  0  0  0  0  0  0  0
   46.2300   33.0990   44.6860 N   0  0  0  0  0  0  0  0  0  0  0  0
   46.9860   32.1600   45.2720 C   0  0  0  0  0  0  0  0  0  0  0  0
   46.8830   32.0070   46.6520 C   0  0  0  0  0  0  0  0  0  0  0  0
   46.0290   32.7970   47.3980 C   0  0  0  0  0  0  0  0  0  0  0  0
   46.0240   32.5710   48.6240 O   0  0  0  0  0  0  0  0  0  0  0  0
   45.2960   33.7240   46.7310 N   0  0  0  0  0  0  0  0  0  0  0  0
   45.3940   33.8710   45.4080 C   0  0  0  0  0  0  0  0  0  0  0  0
   44.6330   34.7830   44.9670 O   0  0  0  0  0  0  0  0  0  0  0  0
   44.0750   35.2090   41.0880 O   0  0  0  0  0  0  0  0  0  0  0  0
   42.8390   35.2430   41.5990 C   0  0  0  0  0  0  0  0  0  0  0  0
   42.4100   35.7640   42.6930 O   0  0  0  0  0  0  0  0  0  0  0  0
   41.5570   34.6770   41.0190 C   0  0  0  0  0  0  0  0  0  0  0  0
   40.7970   33.7970   41.7870 C   0  0  0  0  0  0  0  0  0  0  0  0
   39.6460   33.1280   41.4470 C   0  0  0  0  0  0  0  0  0  0  0  0
   39.2040   33.3740   40.1830 C   0  0  0  0  0  0  0  0  0  0  0  0
   39.8810   34.2240   39.3540 C   0  0  0  0  0  0  0  0  0  0  0  0
   39.4150   34.4700   38.0830 C   0  0  0  0  0  0  0  0  0  0  0  0
   40.0380   35.3290   37.1820 C   0  0  0  0  0  0  0  0  0  0  0  0
   41.2050   35.9480   37.6570 C   0  0  0  0  0  0  0  0  0  0  0  0
   41.6690   35.7000   38.9280 C   0  0  0  0  0  0  0  0  0  0  0  0
   41.0220   34.8470   39.7770 C   0  0  0  0  0  0  0  0  0  0  0  0
   46.0418   34.3602   39.5946 H   0  0  0  0  0  0  0  0  0  0  0  0
   47.9534   32.9924   40.4597 H   0  0  0  0  0  0  0  0  0  0  0  0
   47.6667   31.5298   44.6809 H   0  0  0  0  0  0  0  0  0  0  0  0
   47.4924   31.2435   47.1577 H   0  0  0  0  0  0  0  0  0  0  0  0
   44.6491   34.3281   47.2578 H   0  0  0  0  0  0  0  0  0  0  0  0
   41.1697   33.6126   42.8054 H   0  0  0  0  0  0  0  0  0  0  0  0
   39.1248   32.4499   42.1387 H   0  0  0  0  0  0  0  0  0  0  0  0
   38.2885   32.8814   39.8236 H   0  0  0  0  0  0  0  0  0  0  0  0
   38.4966   33.9580   37.7600 H   0  0  0  0  0  0  0  0  0  0  0  0
   39.6443   35.5097   36.1709 H   0  0  0  0  0  0  0  0  0  0  0  0
   41.7559   36.6408   37.0039 H   0  0  0  0  0  0  0  0  0  0  0  0
   42.5859   36.2021   39.2702 H   0  0  0  0  0  0  0  0  0  0  0  0
  1  6  2  0
  2  3  2  0
  2  1  1  0
  3  4  1  0
  4  5  2  0
  5  7  1  0
  6  5  1  0
  7  8  1  0
  7 13  1  0
  8  9  2  0
  9 10  1  0
 10 11  2  0
 12 10  1  0
 13 12  1  0
 14 13  2  0
 15  1  1  0
 15 16  1  0
 16 17  2  0
 18 16  1  0
 18 19  2  0
 20 19  1  0
 21 20  2  0
 22 27  2  0
 22 21  1  0
 23 22  1  0
 24 25  1  0
 24 23  2  0
 25 26  2  0
 26 27  1  0
 27 18  1  0
  2 28  1  0
  3 29  1  0
  8 30  1  0
  9 31  1  0
 12 32  1  0
 19 33  1  0
 20 34  1  0
 21 35  1  0
 23 36  1  0
 24 37  1  0
 25 38  1  0
 26 39  1  0
M  ISO  8  28  14  29  14  30  14  31  14  32   9  33  14  34  14  35  14
M  ISO  4  36  14  37  14  38  14  39  14
M  END
>  <minimizedAffinity>  (1) 
-6.93323517

>  <minimizedRMSD>  (1) 
3.15574932

$$$$
