
     RDKit          3D

 36 38  0  0  0  0  0  0  0  0999 V2000
   45.5978   35.2730   42.9063 C   0  0  0  0  0  0  0  0  0  0  0  0
   46.7318   35.0724   42.0960 C   0  0  0  0  0  0  0  0  0  0  0  0
   47.7268   34.2352   42.5675 C   0  0  0  0  0  0  0  0  0  0  0  0
   47.5796   33.6489   43.7682 N   0  0  0  0  0  0  0  0  0  0  0  0
   46.4911   33.8555   44.5213 C   0  0  0  0  0  0  0  0  0  0  0  0
   45.5069   34.6578   44.1008 N   0  0  0  0  0  0  0  0  0  0  0  0
   46.2338   33.2843   45.8097 N   0  0  0  0  0  0  0  0  0  0  0  0
   46.9335   32.2298   46.2995 C   0  0  0  0  0  0  0  0  0  0  0  0
   46.6121   31.7466   47.5550 C   0  0  0  0  0  0  0  0  0  0  0  0
   45.5910   32.3390   48.2886 C   0  0  0  0  0  0  0  0  0  0  0  0
   45.3499   31.8568   49.4135 O   0  0  0  0  0  0  0  0  0  0  0  0
   44.9471   33.3858   47.7212 N   0  0  0  0  0  0  0  0  0  0  0  0
   45.2550   33.8575   46.5049 C   0  0  0  0  0  0  0  0  0  0  0  0
   44.5554   34.8289   46.1426 O   0  0  0  0  0  0  0  0  0  0  0  0
   44.6317   36.0967   42.4277 O   0  0  0  0  0  0  0  0  0  0  0  0
   43.6642   35.6806   41.5555 C   0  0  0  0  0  0  0  0  0  0  0  0
   42.5522   35.0972   41.7948 O   0  0  0  0  0  0  0  0  0  0  0  0
   46.8231   35.5610   41.1280 H   0  0  0  0  0  0  0  0  0  0  0  0
   48.6141   34.0428   41.9965 H   0  0  0  0  0  0  0  0  0  0  0  0
   47.7225   31.7938   45.6995 H   0  0  0  0  0  0  0  0  0  0  0  0
   47.1865   30.9024   47.9244 H   0  0  0  0  0  0  0  0  0  0  0  0
   44.1925   33.7859   48.3212 H   0  0  0  0  0  0  0  0  0  0  0  0
   43.2057   35.5649   40.1975 N   0  0  0  0  0  0  0  0  0  0  0  0
   44.2371   35.0999   39.2945 C   0  0  0  0  0  0  0  0  0  0  0  0
   43.5145   34.9913   37.9395 C   0  0  0  0  0  0  0  0  0  0  0  0
   42.4010   34.1673   38.0836 O   0  0  0  0  0  0  0  0  0  0  0  0
   41.4125   34.6810   38.8921 C   0  0  0  0  0  0  0  0  0  0  0  0
   41.8714   35.8651   39.7136 C   0  0  0  0  0  0  0  0  0  0  0  0
   44.6376   34.0952   39.5533 H   0  0  0  0  0  0  0  0  0  0  0  0
   45.0313   35.8637   39.2391 H   0  0  0  0  0  0  0  0  0  0  0  0
   44.1688   34.5556   37.1844 H   0  0  0  0  0  0  0  0  0  0  0  0
   43.2305   36.0245   37.6517 H   0  0  0  0  0  0  0  0  0  0  0  0
   40.4826   34.9136   38.3351 H   0  0  0  0  0  0  0  0  0  0  0  0
   41.1103   33.8839   39.6213 H   0  0  0  0  0  0  0  0  0  0  0  0
   41.9176   36.7682   39.0845 H   0  0  0  0  0  0  0  0  0  0  0  0
   41.2180   36.0164   40.6043 H   0  0  0  0  0  0  0  0  0  0  0  0
  1  6  2  0
  2  3  2  0
  2  1  1  0
  3  4  1  0
  4  5  2  0
  5  7  1  0
  6  5  1  0
  7  8  1  0
  7 13  1  0
  8  9  2  0
  9 10  1  0
 10 11  2  0
 12 10  1  0
 13 12  1  0
 14 13  2  0
 15  1  1  0
 16 17  2  0
 16 15  1  0
  2 18  1  0
  3 19  1  0
  8 20  1  0
  9 21  1  0
 12 22  1  0
 23 24  1  0
 24 25  1  0
 25 26  1  0
 26 27  1  0
 27 28  1  0
 28 23  1  0
 24 29  1  0
 24 30  1  0
 25 31  1  0
 25 32  1  0
 27 33  1  0
 27 34  1  0
 28 35  1  0
 28 36  1  0
 16 23  1  0
M  END
>  <DihAtoms>  (1) 
16,15,22,23

>  <DihDeg>  (1) 
0.21308965095386725

$$$$
