
     RDKit          3D

 31 33  0  0  0  0  0  0  0  0999 V2000
   45.6290   35.1690   42.8880 C   0  0  0  0  0  0  0  0  0  0  0  0
   46.7930   35.0060   42.0990 C   0  0  0  0  0  0  0  0  0  0  0  0
   47.8040   34.2170   42.6140 C   0  0  0  0  0  0  0  0  0  0  0  0
   47.6500   33.6460   43.8170 N   0  0  0  0  0  0  0  0  0  0  0  0
   46.5340   33.8160   44.5490 C   0  0  0  0  0  0  0  0  0  0  0  0
   45.5390   34.5690   44.0840 N   0  0  0  0  0  0  0  0  0  0  0  0
   46.2870   33.2540   45.8330 N   0  0  0  0  0  0  0  0  0  0  0  0
   47.0150   32.2320   46.3510 C   0  0  0  0  0  0  0  0  0  0  0  0
   46.6650   31.7870   47.6150 C   0  0  0  0  0  0  0  0  0  0  0  0
   45.6320   32.3440   48.3250 C   0  0  0  0  0  0  0  0  0  0  0  0
   45.3610   31.9070   49.4560 O   0  0  0  0  0  0  0  0  0  0  0  0
   44.9680   33.3520   47.7310 N   0  0  0  0  0  0  0  0  0  0  0  0
   45.2670   33.8220   46.5050 C   0  0  0  0  0  0  0  0  0  0  0  0
   44.5460   34.7620   46.1080 O   0  0  0  0  0  0  0  0  0  0  0  0
   44.6560   35.9460   42.3510 O   0  0  0  0  0  0  0  0  0  0  0  0
   43.5040   35.4850   41.8200 C   0  0  0  0  0  0  0  0  0  0  0  0
   42.2590   35.5660   42.2350 O   0  0  0  0  0  0  0  0  0  0  0  0
   43.2620   34.7130   40.5350 C   0  0  0  0  0  0  0  0  0  0  0  0
   42.3200   35.0260   39.5940 C   0  0  0  0  0  0  0  0  0  0  0  0
   42.1690   34.2710   38.4240 C   0  0  0  0  0  0  0  0  0  0  0  0
   42.9640   33.2140   38.2100 N   0  0  0  0  0  0  0  0  0  0  0  0
   43.8870   32.9120   39.1370 C   0  0  0  0  0  0  0  0  0  0  0  0
   43.9910   33.6570   40.2310 N   0  0  0  0  0  0  0  0  0  0  0  0
   46.8890   35.4882   41.1150 H   0  0  0  0  0  0  0  0  0  0  0  0
   48.7292   34.0586   42.0404 H   0  0  0  0  0  0  0  0  0  0  0  0
   47.8460   31.7775   45.7917 H   0  0  0  0  0  0  0  0  0  0  0  0
   47.2341   30.9598   48.0642 H   0  0  0  0  0  0  0  0  0  0  0  0
   44.1876   33.7885   48.2423 H   0  0  0  0  0  0  0  0  0  0  0  0
   41.6640   35.8932   39.7604 H   0  0  0  0  0  0  0  0  0  0  0  0
   41.4017   34.5444   37.6847 H   0  0  0  0  0  0  0  0  0  0  0  0
   44.5548   32.0502   38.9906 H   0  0  0  0  0  0  0  0  0  0  0  0
  1  6  2  0
  2  3  2  0
  2  1  1  0
  3  4  1  0
  4  5  2  0
  5  7  1  0
  6  5  1  0
  7  8  1  0
  7 13  1  0
  8  9  2  0
  9 10  1  0
 10 11  2  0
 12 10  1  0
 13 12  1  0
 14 13  2  0
 15  1  1  0
 16 17  2  0
 16 15  1  0
 18 16  1  0
 19 18  2  0
 20 19  1  0
 21 20  2  0
 21 22  1  0
 22 23  2  0
 23 18  1  0
  2 24  1  0
  3 25  1  0
  8 26  1  0
  9 27  1  0
 12 28  1  0
 19 29  1  0
 20 30  1  0
 22 31  1  0
M  ISO  8  24  14  25  14  26  14  27  14  28   9  29  14  30  14  31  14
M  END
>  <minimizedAffinity>  (1) 
-6.32791567

>  <minimizedRMSD>  (1) 
1.2881968

$$$$
