
     RDKit          3D

 29 31  0  0  0  0  0  0  0  0999 V2000
   45.8890   32.2620   46.8520 C   0  0  0  0  0  0  0  0  0  0  0  0
   46.1080   32.7700   48.1520 C   0  0  0  0  0  0  0  0  0  0  0  0
   45.9490   32.0420   49.2990 C   0  0  0  0  0  0  0  0  0  0  0  0
   45.5550   30.7380   49.2210 C   0  0  0  0  0  0  0  0  0  0  0  0
   45.3260   30.1790   47.9900 C   0  0  0  0  0  0  0  0  0  0  0  0
   44.9360   28.8670   47.9410 C   0  0  0  0  0  0  0  0  0  0  0  0
   44.6880   28.2360   46.7360 C   0  0  0  0  0  0  0  0  0  0  0  0
   44.8620   29.0200   45.5860 C   0  0  0  0  0  0  0  0  0  0  0  0
   45.2570   30.3320   45.7020 C   0  0  0  0  0  0  0  0  0  0  0  0
   45.4980   30.9470   46.8740 C   0  0  0  0  0  0  0  0  0  0  0  0
   45.0400   34.7990   44.4430 C   0  0  0  0  0  0  0  0  0  0  0  0
   46.0830   34.8200   43.5190 C   0  0  0  0  0  0  0  0  0  0  0  0
   47.1240   33.9270   43.7280 C   0  0  0  0  0  0  0  0  0  0  0  0
   47.0620   33.1130   44.7880 N   0  0  0  0  0  0  0  0  0  0  0  0
   46.0800   33.0830   45.6660 C   0  0  0  0  0  0  0  0  0  0  0  0
   45.0970   33.9480   45.4420 N   0  0  0  0  0  0  0  0  0  0  0  0
   43.8940   35.6570   44.3780 N   0  0  0  0  0  0  0  0  0  0  0  0
   45.3760   30.9520   44.4690 O   0  0  0  0  0  0  0  0  0  0  0  0
   46.4269   33.8184   48.2479 H   0  0  0  0  0  0  0  0  0  0  0  0
   46.1377   32.5052   50.2787 H   0  0  0  0  0  0  0  0  0  0  0  0
   45.4225   30.1416   50.1357 H   0  0  0  0  0  0  0  0  0  0  0  0
   44.8178   28.3042   48.8787 H   0  0  0  0  0  0  0  0  0  0  0  0
   44.3734   27.1833   46.6825 H   0  0  0  0  0  0  0  0  0  0  0  0
   44.6825   28.5854   44.5916 H   0  0  0  0  0  0  0  0  0  0  0  0
   46.0810   35.5121   42.6640 H   0  0  0  0  0  0  0  0  0  0  0  0
   47.9802   33.8891   43.0384 H   0  0  0  0  0  0  0  0  0  0  0  0
   43.8052   36.3406   43.6127 H   0  0  0  0  0  0  0  0  0  0  0  0
   43.1591   35.5901   45.0966 H   0  0  0  0  0  0  0  0  0  0  0  0
   45.6544   31.9006   44.4168 H   0  0  0  0  0  0  0  0  0  0  0  0
  1 10  1  0
  1  2  2  0
  2  3  1  0
  4  3  2  0
  5  4  1  0
  6  5  2  0
  7  6  1  0
  8  9  1  0
  8  7  2  0
  9 10  2  0
 10  5  1  0
 11 16  2  0
 12 13  2  0
 12 11  1  0
 13 14  1  0
 14 15  2  0
 15  1  1  0
 16 15  1  0
 17 11  1  0
 18  9  1  0
  2 19  1  0
  3 20  1  0
  4 21  1  0
  6 22  1  0
  7 23  1  0
  8 24  1  0
 12 25  1  0
 13 26  1  0
 17 27  1  0
 17 28  1  0
 18 29  1  0
M  ISO  8  19  14  20  14  21  14  22  14  23  14  24  14  25  14  26  14
M  ISO  1  29   3
M  END
>  <minimizedAffinity>  (1) 
-5.661376

>  <minimizedRMSD>  (1) 
0.200609669

$$$$
