
     RDKit          3D

 41 44  0  0  0  0  0  0  0  0999 V2000
   46.4420   32.5320   45.6870 C   0  0  0  0  0  0  0  0  0  0  0  0
   46.8450   32.8720   47.0000 C   0  0  0  0  0  0  0  0  0  0  0  0
   47.0150   31.9670   48.0160 C   0  0  0  0  0  0  0  0  0  0  0  0
   46.7850   30.6280   47.7660 C   0  0  0  0  0  0  0  0  0  0  0  0
   46.3940   30.2540   46.5120 C   0  0  0  0  0  0  0  0  0  0  0  0
   46.1880   28.9090   46.3040 C   0  0  0  0  0  0  0  0  0  0  0  0
   45.8040   28.4420   45.0610 C   0  0  0  0  0  0  0  0  0  0  0  0
   45.6410   29.4080   44.0530 C   0  0  0  0  0  0  0  0  0  0  0  0
   45.8640   30.7480   44.3330 C   0  0  0  0  0  0  0  0  0  0  0  0
   46.2390   31.1910   45.5400 C   0  0  0  0  0  0  0  0  0  0  0  0
   44.8290   35.1770   43.8660 C   0  0  0  0  0  0  0  0  0  0  0  0
   45.7400   35.5700   42.8760 C   0  0  0  0  0  0  0  0  0  0  0  0
   46.9530   34.8980   42.8310 C   0  0  0  0  0  0  0  0  0  0  0  0
   47.1680   33.9340   43.7240 N   0  0  0  0  0  0  0  0  0  0  0  0
   46.3110   33.5480   44.6680 C   0  0  0  0  0  0  0  0  0  0  0  0
   45.1420   34.2080   44.7000 N   0  0  0  0  0  0  0  0  0  0  0  0
   43.5280   35.7550   44.0530 N   0  0  0  0  0  0  0  0  0  0  0  0
   44.4000   32.7620   40.8560 C   0  0  0  0  0  0  0  0  0  0  0  0
   45.7300   32.4060   40.8670 C   0  0  0  0  0  0  0  0  0  0  0  0
   46.2500   31.7500   41.9550 C   0  0  0  0  0  0  0  0  0  0  0  0
   45.4880   31.4090   43.0890 C   0  0  0  0  0  0  0  0  0  0  0  0
   44.1380   31.8250   42.9650 C   0  0  0  0  0  0  0  0  0  0  0  0
   43.5410   32.4900   41.8990 C   0  0  0  0  0  0  0  0  0  0  0  0
   43.7450   33.5980   39.4670 S   0  0  0  0  0  0  0  0  0  0  0  0
   42.7990   32.6560   38.7430 O   0  0  0  0  0  0  0  0  0  0  0  0
   43.0130   34.8640   39.8710 O   0  0  0  0  0  0  0  0  0  0  0  0
   47.0345   33.9329   47.2204 H   0  0  0  0  0  0  0  0  0  0  0  0
   47.3298   32.3022   49.0153 H   0  0  0  0  0  0  0  0  0  0  0  0
   46.9141   29.8784   48.5606 H   0  0  0  0  0  0  0  0  0  0  0  0
   46.3301   28.2004   47.1333 H   0  0  0  0  0  0  0  0  0  0  0  0
   45.6350   27.3718   44.8708 H   0  0  0  0  0  0  0  0  0  0  0  0
   45.3364   29.1011   43.0416 H   0  0  0  0  0  0  0  0  0  0  0  0
   45.5036   36.3760   42.1657 H   0  0  0  0  0  0  0  0  0  0  0  0
   47.7146   35.1540   42.0798 H   0  0  0  0  0  0  0  0  0  0  0  0
   43.2107   36.5187   43.4391 H   0  0  0  0  0  0  0  0  0  0  0  0
   42.9121   35.4059   44.8011 H   0  0  0  0  0  0  0  0  0  0  0  0
   46.3732   32.6462   40.0076 H   0  0  0  0  0  0  0  0  0  0  0  0
   47.3155   31.4770   41.9402 H   0  0  0  0  0  0  0  0  0  0  0  0
   43.4819   31.5932   43.8169 H   0  0  0  0  0  0  0  0  0  0  0  0
   42.4782   32.7735   41.8893 H   0  0  0  0  0  0  0  0  0  0  0  0
   44.7750   33.9700   38.6439 H   0  0  0  0  0  0  0  0  0  0  0  0
  1  2  2  0
  2  3  1  0
  4  3  2  0
  5  4  1  0
  6  5  2  0
  7  6  1  0
  8  9  1  0
  8  7  2  0
  9 10  2  0
 10  1  1  0
 10  5  1  0
 11 17  1  0
 11 16  2  0
 12 11  1  0
 13 12  2  0
 13 14  1  0
 14 15  2  0
 15 16  1  0
 15  1  1  0
 18 19  2  0
 18 23  1  0
 19 20  1  0
 20 21  2  0
 21  9  1  0
 22 21  1  0
 23 22  2  0
 24 26  2  0
 24 18  1  0
 25 24  2  0
  2 27  1  0
  3 28  1  0
  4 29  1  0
  6 30  1  0
  7 31  1  0
  8 32  1  0
 12 33  1  0
 13 34  1  0
 17 35  1  0
 17 36  1  0
 19 37  1  0
 20 38  1  0
 22 39  1  0
 23 40  1  0
 24 41  1  0
M  ISO  8  27  14  28  14  29  14  30  14  31  14  32  14  33  14  34  14
M  ISO  5  37  14  38  14  39  14  40  14  41  11
M  END
>  <minimizedAffinity>  (1) 
-5.6623373

>  <minimizedRMSD>  (1) 
1.90520132

$$$$
