
     RDKit          3D

 31 33  0  0  0  0  0  0  0  0999 V2000
   45.7830   32.1910   46.8250 C   0  0  0  0  0  0  0  0  0  0  0  0
   45.9030   32.7360   48.1000 C   0  0  0  0  0  0  0  0  0  0  0  0
   45.7790   32.0200   49.2710 C   0  0  0  0  0  0  0  0  0  0  0  0
   45.5220   30.6680   49.1950 C   0  0  0  0  0  0  0  0  0  0  0  0
   45.3940   30.0830   47.9490 C   0  0  0  0  0  0  0  0  0  0  0  0
   45.1660   28.7340   47.8960 C   0  0  0  0  0  0  0  0  0  0  0  0
   45.0540   28.0910   46.6920 C   0  0  0  0  0  0  0  0  0  0  0  0
   45.1820   28.8900   45.5470 C   0  0  0  0  0  0  0  0  0  0  0  0
   45.4100   30.2400   45.6330 C   0  0  0  0  0  0  0  0  0  0  0  0
   45.5250   30.8540   46.8210 C   0  0  0  0  0  0  0  0  0  0  0  0
   45.1120   34.7890   44.4460 C   0  0  0  0  0  0  0  0  0  0  0  0
   46.1890   34.7910   43.5490 C   0  0  0  0  0  0  0  0  0  0  0  0
   47.1770   33.8500   43.7630 C   0  0  0  0  0  0  0  0  0  0  0  0
   47.0210   33.0330   44.7860 N   0  0  0  0  0  0  0  0  0  0  0  0
   46.0120   32.9970   45.6560 C   0  0  0  0  0  0  0  0  0  0  0  0
   45.0290   33.9350   45.4510 N   0  0  0  0  0  0  0  0  0  0  0  0
   43.9810   35.6870   44.3820 N   0  0  0  0  0  0  0  0  0  0  0  0
   45.4370   30.8140   44.2590 C   0  0  0  0  0  0  0  0  0  0  0  0
   46.1113   33.8132   48.1785 H   0  0  0  0  0  0  0  0  0  0  0  0
   45.8830   32.5174   50.2466 H   0  0  0  0  0  0  0  0  0  0  0  0
   45.4205   30.0652   50.1095 H   0  0  0  0  0  0  0  0  0  0  0  0
   45.0718   28.1607   48.8301 H   0  0  0  0  0  0  0  0  0  0  0  0
   44.8736   27.0078   46.6269 H   0  0  0  0  0  0  0  0  0  0  0  0
   45.0975   28.4226   44.5548 H   0  0  0  0  0  0  0  0  0  0  0  0
   46.2446   35.5068   42.7156 H   0  0  0  0  0  0  0  0  0  0  0  0
   48.0576   33.7848   43.1071 H   0  0  0  0  0  0  0  0  0  0  0  0
   43.9308   36.4000   43.6403 H   0  0  0  0  0  0  0  0  0  0  0  0
   43.2253   35.6139   45.0781 H   0  0  0  0  0  0  0  0  0  0  0  0
   45.4886   31.9110   44.3209 H   0  0  0  0  0  0  0  0  0  0  0  0
   46.3183   30.4353   43.7206 H   0  0  0  0  0  0  0  0  0  0  0  0
   44.5240   30.5197   43.7206 H   0  0  0  0  0  0  0  0  0  0  0  0
  1  2  2  0
  2  3  1  0
  4  3  2  0
  5  4  1  0
  6  5  2  0
  7  6  1  0
  8  9  1  0
  8  7  2  0
  9 10  2  0
 10  1  1  0
 10  5  1  0
 11 16  2  0
 12 13  2  0
 12 11  1  0
 13 14  1  0
 14 15  2  0
 15  1  1  0
 16 15  1  0
 17 11  1  0
 18  9  1  0
  2 19  1  0
  3 20  1  0
  4 21  1  0
  6 22  1  0
  7 23  1  0
  8 24  1  0
 12 25  1  0
 13 26  1  0
 17 27  1  0
 17 28  1  0
 18 29  1  0
 18 30  1  0
 18 31  1  0
M  ISO  8  19  14  20  14  21  14  22  14  23  14  24  14  25  14  26  14
M  ISO  3  29   8  30   8  31   8
M  END
>  <minimizedAffinity>  (1) 
-5.49387455

>  <minimizedRMSD>  (1) 
0.0549482107

$$$$
