
     RDKit          3D

 40 43  0  0  0  0  0  0  0  0999 V2000
   45.8310   32.0320   46.6540 C   0  0  0  0  0  0  0  0  0  0  0  0
   45.9360   32.6610   47.9010 C   0  0  0  0  0  0  0  0  0  0  0  0
   45.7650   32.0250   49.1150 C   0  0  0  0  0  0  0  0  0  0  0  0
   45.4760   30.6900   49.1200 C   0  0  0  0  0  0  0  0  0  0  0  0
   45.3680   30.0550   47.9210 C   0  0  0  0  0  0  0  0  0  0  0  0
   45.1310   28.6900   47.9370 C   0  0  0  0  0  0  0  0  0  0  0  0
   45.0570   28.0130   46.7530 C   0  0  0  0  0  0  0  0  0  0  0  0
   45.2160   28.7300   45.5660 C   0  0  0  0  0  0  0  0  0  0  0  0
   45.4490   30.0520   45.5570 C   0  0  0  0  0  0  0  0  0  0  0  0
   45.5360   30.7170   46.7270 C   0  0  0  0  0  0  0  0  0  0  0  0
   45.5230   34.4510   44.0530 C   0  0  0  0  0  0  0  0  0  0  0  0
   46.7240   34.4170   43.3250 C   0  0  0  0  0  0  0  0  0  0  0  0
   47.6590   33.4920   43.7300 C   0  0  0  0  0  0  0  0  0  0  0  0
   47.3100   32.7460   44.7500 N   0  0  0  0  0  0  0  0  0  0  0  0
   46.2040   32.7210   45.4730 C   0  0  0  0  0  0  0  0  0  0  0  0
   45.2270   33.6620   45.0920 N   0  0  0  0  0  0  0  0  0  0  0  0
   44.3890   35.2980   43.7740 N   0  0  0  0  0  0  0  0  0  0  0  0
   45.6840   30.4270   44.1230 C   0  0  0  0  0  0  0  0  0  0  0  0
   47.1810   30.9660   44.1450 C   0  0  0  0  0  0  0  0  0  0  0  0
   46.0030   29.3800   43.1550 C   0  0  0  0  0  0  0  0  0  0  0  0
   45.2080   31.7970   43.7400 C   0  0  0  0  0  0  0  0  0  0  0  0
   46.1708   33.7356   47.9144 H   0  0  0  0  0  0  0  0  0  0  0  0
   45.8596   32.5822   50.0587 H   0  0  0  0  0  0  0  0  0  0  0  0
   45.3348   30.1445   50.0647 H   0  0  0  0  0  0  0  0  0  0  0  0
   45.0040   28.1581   48.8914 H   0  0  0  0  0  0  0  0  0  0  0  0
   44.8763   26.9281   46.7353 H   0  0  0  0  0  0  0  0  0  0  0  0
   45.1482   28.1947   44.6074 H   0  0  0  0  0  0  0  0  0  0  0  0
   46.9072   35.0933   42.4770 H   0  0  0  0  0  0  0  0  0  0  0  0
   47.8680   32.8266   42.8793 H   0  0  0  0  0  0  0  0  0  0  0  0
   48.5320   34.0717   44.0646 H   0  0  0  0  0  0  0  0  0  0  0  0
   44.4316   35.9777   43.0013 H   0  0  0  0  0  0  0  0  0  0  0  0
   43.5367   35.2230   44.3475 H   0  0  0  0  0  0  0  0  0  0  0  0
   47.7754   30.3245   44.8122 H   0  0  0  0  0  0  0  0  0  0  0  0
   47.5565   30.9404   43.1114 H   0  0  0  0  0  0  0  0  0  0  0  0
   46.2833   28.4600   43.6889 H   0  0  0  0  0  0  0  0  0  0  0  0
   45.1238   29.1841   42.5237 H   0  0  0  0  0  0  0  0  0  0  0  0
   46.8421   29.7076   42.5237 H   0  0  0  0  0  0  0  0  0  0  0  0
   45.0047   32.3820   44.6491 H   0  0  0  0  0  0  0  0  0  0  0  0
   45.9835   32.3016   43.1450 H   0  0  0  0  0  0  0  0  0  0  0  0
   44.2867   31.7120   43.1450 H   0  0  0  0  0  0  0  0  0  0  0  0
  1 10  1  0
  1  2  2  0
  2  3  1  0
  3  4  2  0
  5  6  2  0
  5  4  1  0
  7  6  1  0
  8  7  2  0
  9  8  1  0
  9 10  2  0
 10  5  1  0
 11 16  1  0
 12 13  1  0
 12 11  2  0
 13 14  1  0
 14 15  1  0
 15  1  1  0
 16 15  2  0
 17 11  1  0
 18 19  1  0
 18  9  1  0
 19 14  1  0
 20 18  1  0
 21 18  1  0
  2 22  1  0
  3 23  1  0
  4 24  1  0
  6 25  1  0
  7 26  1  0
  8 27  1  0
 12 28  1  0
 13 29  1  0
 13 30  1  0
 17 31  1  0
 17 32  1  0
 19 33  1  0
 19 34  1  0
 20 35  1  0
 20 36  1  0
 20 37  1  0
 21 38  1  0
 21 39  1  0
 21 40  1  0
M  ISO  8  22  14  23  14  24  14  25  14  26  14  27  14  28  13  29  13
M  ISO  8  30  13  33  13  34  13  35   8  36   8  37   8  38   8  39   8
M  ISO  1  40   8
M  END
>  <minimizedAffinity>  (1) 
-5.20747137

>  <minimizedRMSD>  (1) 
0.43506828

$$$$
