
     RDKit          3D

 31 33  0  0  0  0  0  0  0  0999 V2000
   45.8920   32.3200   46.5760 C   0  0  0  0  0  0  0  0  0  0  0  0
   46.0550   32.9060   47.8330 C   0  0  0  0  0  0  0  0  0  0  0  0
   45.9480   32.2210   49.0250 C   0  0  0  0  0  0  0  0  0  0  0  0
   45.6670   30.8740   48.9970 C   0  0  0  0  0  0  0  0  0  0  0  0
   45.5020   30.2730   47.7830 C   0  0  0  0  0  0  0  0  0  0  0  0
   45.2530   28.9180   47.7700 C   0  0  0  0  0  0  0  0  0  0  0  0
   45.1010   28.2580   46.5780 C   0  0  0  0  0  0  0  0  0  0  0  0
   45.2050   29.0220   45.4110 C   0  0  0  0  0  0  0  0  0  0  0  0
   45.4530   30.3590   45.4400 C   0  0  0  0  0  0  0  0  0  0  0  0
   45.6110   30.9940   46.6140 C   0  0  0  0  0  0  0  0  0  0  0  0
   45.2720   34.7670   44.0390 C   0  0  0  0  0  0  0  0  0  0  0  0
   46.4140   34.7980   43.2260 C   0  0  0  0  0  0  0  0  0  0  0  0
   47.4260   33.9220   43.5520 C   0  0  0  0  0  0  0  0  0  0  0  0
   47.2160   33.1450   44.5920 N   0  0  0  0  0  0  0  0  0  0  0  0
   46.1540   33.0720   45.3890 C   0  0  0  0  0  0  0  0  0  0  0  0
   45.1220   33.9540   45.0810 N   0  0  0  0  0  0  0  0  0  0  0  0
   44.0930   35.5790   43.8550 N   0  0  0  0  0  0  0  0  0  0  0  0
   45.5490   30.8570   44.0460 C   0  0  0  0  0  0  0  0  0  0  0  0
   46.8170   31.5500   43.9500 F   0  0  0  0  0  0  0  0  0  0  0  0
   44.9200   32.0600   43.8280 F   0  0  0  0  0  0  0  0  0  0  0  0
   45.8660   30.0250   43.0590 F   0  0  0  0  0  0  0  0  0  0  0  0
   46.2830   33.9813   47.8749 H   0  0  0  0  0  0  0  0  0  0  0  0
   46.0851   32.7431   49.9834 H   0  0  0  0  0  0  0  0  0  0  0  0
   45.5777   30.2968   49.9291 H   0  0  0  0  0  0  0  0  0  0  0  0
   45.1760   28.3648   48.7176 H   0  0  0  0  0  0  0  0  0  0  0  0
   44.9060   27.1761   46.5410 H   0  0  0  0  0  0  0  0  0  0  0  0
   45.0821   28.5250   44.4374 H   0  0  0  0  0  0  0  0  0  0  0  0
   46.4975   35.4863   42.3720 H   0  0  0  0  0  0  0  0  0  0  0  0
   48.3602   33.8749   42.9731 H   0  0  0  0  0  0  0  0  0  0  0  0
   44.0534   36.2626   43.0856 H   0  0  0  0  0  0  0  0  0  0  0  0
   43.2912   35.4748   44.4931 H   0  0  0  0  0  0  0  0  0  0  0  0
  1 10  1  0
  1  2  2  0
  2  3  1  0
  4  3  2  0
  5  4  1  0
  6  5  2  0
  7  6  1  0
  8  9  1  0
  8  7  2  0
  9 10  2  0
 10  5  1  0
 11 16  2  0
 12 13  2  0
 12 11  1  0
 13 14  1  0
 14 15  2  0
 15  1  1  0
 16 15  1  0
 17 11  1  0
 18  9  1  0
 19 18  1  0
 20 18  1  0
 21 18  1  0
  2 22  1  0
  3 23  1  0
  4 24  1  0
  6 25  1  0
  7 26  1  0
  8 27  1  0
 12 28  1  0
 13 29  1  0
 17 30  1  0
 17 31  1  0
M  ISO  8  22  14  23  14  24  14  25  14  26  14  27  14  28  14  29  14
M  END
>  <minimizedAffinity>  (1) 
-5.29413652

>  <minimizedRMSD>  (1) 
0.363409013

$$$$
