
     RDKit          3D

 38 41  0  0  0  0  0  0  0  0999 V2000
   46.2560   33.8570   40.1310 C   0  0  0  0  0  0  0  0  0  0  0  0
   46.9630   33.3140   39.0750 C   0  0  0  0  0  0  0  0  0  0  0  0
   46.4140   32.7720   37.9370 C   0  0  0  0  0  0  0  0  0  0  0  0
   45.0620   32.7880   37.8790 N   0  0  0  0  0  0  0  0  0  0  0  0
   44.3450   33.3170   38.9060 C   0  0  0  0  0  0  0  0  0  0  0  0
   44.8840   33.8500   40.0240 N   0  0  0  0  0  0  0  0  0  0  0  0
   42.8860   33.3230   38.8210 C   0  0  0  0  0  0  0  0  0  0  0  0
   42.0470   32.4750   38.0940 C   0  0  0  0  0  0  0  0  0  0  0  0
   40.7500   32.8460   38.3100 N   0  0  0  0  0  0  0  0  0  0  0  0
   40.7370   33.8950   39.1450 C   0  0  0  0  0  0  0  0  0  0  0  0
   39.6720   34.6290   39.6620 C   0  0  0  0  0  0  0  0  0  0  0  0
   39.8810   35.6880   40.5190 C   0  0  0  0  0  0  0  0  0  0  0  0
   41.1960   36.0200   40.8630 C   0  0  0  0  0  0  0  0  0  0  0  0
   42.2090   35.2660   40.3260 C   0  0  0  0  0  0  0  0  0  0  0  0
   42.0290   34.2020   39.4680 C   0  0  0  0  0  0  0  0  0  0  0  0
   46.9070   34.4080   41.3400 C   0  0  0  0  0  0  0  0  0  0  0  0
   46.6000   33.5050   42.5060 C   0  0  0  0  0  0  0  0  0  0  0  0
   44.5610   36.0160   44.4700 C   0  0  0  0  0  0  0  0  0  0  0  0
   45.2280   35.4100   43.4000 C   0  0  0  0  0  0  0  0  0  0  0  0
   45.8720   34.2030   43.5900 C   0  0  0  0  0  0  0  0  0  0  0  0
   45.8300   33.6400   44.8390 N   0  0  0  0  0  0  0  0  0  0  0  0
   45.1690   34.2620   45.8550 C   0  0  0  0  0  0  0  0  0  0  0  0
   44.5520   35.4200   45.6690 N   0  0  0  0  0  0  0  0  0  0  0  0
   48.0603   33.3156   39.1516 H   0  0  0  0  0  0  0  0  0  0  0  0
   47.0317   32.3538   37.1286 H   0  0  0  0  0  0  0  0  0  0  0  0
   42.3767   31.6444   37.4526 H   0  0  0  0  0  0  0  0  0  0  0  0
   39.9200   32.3948   37.8996 H   0  0  0  0  0  0  0  0  0  0  0  0
   38.6437   34.3580   39.3807 H   0  0  0  0  0  0  0  0  0  0  0  0
   39.0327   36.2596   40.9236 H   0  0  0  0  0  0  0  0  0  0  0  0
   41.4108   36.8584   41.5420 H   0  0  0  0  0  0  0  0  0  0  0  0
   43.2410   35.5301   40.6004 H   0  0  0  0  0  0  0  0  0  0  0  0
   47.9950   34.4564   41.1854 H   0  0  0  0  0  0  0  0  0  0  0  0
   46.5298   35.4216   41.5406 H   0  0  0  0  0  0  0  0  0  0  0  0
   45.9828   32.6670   42.1498 H   0  0  0  0  0  0  0  0  0  0  0  0
   47.5581   33.1562   42.9188 H   0  0  0  0  0  0  0  0  0  0  0  0
   44.0463   36.9776   44.3270 H   0  0  0  0  0  0  0  0  0  0  0  0
   45.2395   35.8927   42.4116 H   0  0  0  0  0  0  0  0  0  0  0  0
   45.1470   33.7935   46.8500 H   0  0  0  0  0  0  0  0  0  0  0  0
  1 16  1  0
  2  1  2  0
  3  2  1  0
  4  3  2  0
  4  5  1  0
  5  6  2  0
  6  1  1  0
  7  5  1  0
  7 15  1  0
  8  9  1  0
  8  7  2  0
  9 10  1  0
 10 15  2  0
 10 11  1  0
 11 12  2  0
 12 13  1  0
 14 13  2  0
 15 14  1  0
 16 17  1  0
 17 20  1  0
 18 23  2  0
 19 20  2  0
 19 18  1  0
 20 21  1  0
 21 22  2  0
 23 22  1  0
  2 24  1  0
  3 25  1  0
  8 26  1  0
  9 27  1  0
 11 28  1  0
 12 29  1  0
 13 30  1  0
 14 31  1  0
 16 32  1  0
 16 33  1  0
 17 34  1  0
 17 35  1  0
 18 36  1  0
 19 37  1  0
 22 38  1  0
M  ISO  8  24  14  25  14  26  14  27   9  28  14  29  14  30  14  31  14
M  ISO  7  32   8  33   8  34   8  35   8  36  14  37  14  38  14
M  END
>  <minimizedAffinity>  (1) 
-5.85912561

>  <minimizedRMSD>  (1) 
3.14832759

$$$$
