
     RDKit          3D

 37 39  0  0  0  0  0  0  0  0999 V2000
   45.8910   32.2830   46.5700 C   0  0  0  0  0  0  0  0  0  0  0  0
   45.9750   32.8750   47.8390 C   0  0  0  0  0  0  0  0  0  0  0  0
   45.8330   32.1840   49.0210 C   0  0  0  0  0  0  0  0  0  0  0  0
   45.5950   30.8280   48.9780 C   0  0  0  0  0  0  0  0  0  0  0  0
   45.5060   30.2130   47.7500 C   0  0  0  0  0  0  0  0  0  0  0  0
   45.2980   28.8660   47.7470 C   0  0  0  0  0  0  0  0  0  0  0  0
   45.2210   28.1810   46.5590 C   0  0  0  0  0  0  0  0  0  0  0  0
   45.3650   28.9510   45.3890 C   0  0  0  0  0  0  0  0  0  0  0  0
   45.5700   30.3010   45.4240 C   0  0  0  0  0  0  0  0  0  0  0  0
   45.6500   30.9470   46.6010 C   0  0  0  0  0  0  0  0  0  0  0  0
   45.2470   34.7460   44.0540 C   0  0  0  0  0  0  0  0  0  0  0  0
   46.3820   34.7900   43.2400 C   0  0  0  0  0  0  0  0  0  0  0  0
   47.4100   33.9170   43.5600 C   0  0  0  0  0  0  0  0  0  0  0  0
   47.2180   33.1310   44.5990 N   0  0  0  0  0  0  0  0  0  0  0  0
   46.1580   33.0520   45.3940 C   0  0  0  0  0  0  0  0  0  0  0  0
   45.1410   33.9240   45.0760 N   0  0  0  0  0  0  0  0  0  0  0  0
   44.0750   35.5580   43.8520 N   0  0  0  0  0  0  0  0  0  0  0  0
   45.6060   30.8370   44.0400 C   0  0  0  0  0  0  0  0  0  0  0  0
   46.6150   29.9780   43.1920 C   0  0  0  0  0  0  0  0  0  0  0  0
   44.3660   30.4970   43.2510 C   0  0  0  0  0  0  0  0  0  0  0  0
   46.1659   33.9570   47.8928 H   0  0  0  0  0  0  0  0  0  0  0  0
   45.9085   32.7070   49.9857 H   0  0  0  0  0  0  0  0  0  0  0  0
   45.4785   30.2487   49.9058 H   0  0  0  0  0  0  0  0  0  0  0  0
   45.1914   28.3257   48.6992 H   0  0  0  0  0  0  0  0  0  0  0  0
   45.0564   27.0940   46.5237 H   0  0  0  0  0  0  0  0  0  0  0  0
   45.3105   28.4477   44.4124 H   0  0  0  0  0  0  0  0  0  0  0  0
   46.4559   35.4824   42.3884 H   0  0  0  0  0  0  0  0  0  0  0  0
   48.3407   33.8824   42.9747 H   0  0  0  0  0  0  0  0  0  0  0  0
   44.0468   36.2385   43.0793 H   0  0  0  0  0  0  0  0  0  0  0  0
   43.2649   35.4583   44.4802 H   0  0  0  0  0  0  0  0  0  0  0  0
   45.8006   31.9126   44.1633 H   0  0  0  0  0  0  0  0  0  0  0  0
   47.2758   29.4154   43.8679 H   0  0  0  0  0  0  0  0  0  0  0  0
   46.0551   29.2751   42.5576 H   0  0  0  0  0  0  0  0  0  0  0  0
   47.2196   30.6429   42.5576 H   0  0  0  0  0  0  0  0  0  0  0  0
   43.5415   30.2709   43.9432 H   0  0  0  0  0  0  0  0  0  0  0  0
   44.0887   31.3523   42.6173 H   0  0  0  0  0  0  0  0  0  0  0  0
   44.5637   29.6199   42.6173 H   0  0  0  0  0  0  0  0  0  0  0  0
  1 10  1  0
  1  2  2  0
  2  3  1  0
  4  3  2  0
  5  4  1  0
  6  5  2  0
  7  6  1  0
  8  9  1  0
  8  7  2  0
  9 10  2  0
 10  5  1  0
 11 16  2  0
 12 13  2  0
 12 11  1  0
 13 14  1  0
 14 15  2  0
 15  1  1  0
 16 15  1  0
 17 11  1  0
 18  9  1  0
 19 18  1  0
 20 18  1  0
  2 21  1  0
  3 22  1  0
  4 23  1  0
  6 24  1  0
  7 25  1  0
  8 26  1  0
 12 27  1  0
 13 28  1  0
 17 29  1  0
 17 30  1  0
 18 31  1  0
 19 32  1  0
 19 33  1  0
 19 34  1  0
 20 35  1  0
 20 36  1  0
 20 37  1  0
M  ISO  8  21  14  22  14  23  14  24  14  25  14  26  14  27  14  28  14
M  ISO  7  31   8  32   8  33   8  34   8  35   8  36   8  37   8
M  END
>  <minimizedAffinity>  (1) 
-5.20036697

>  <minimizedRMSD>  (1) 
0.458398789

$$$$
