
     RDKit          3D

 38 41  0  0  0  0  0  0  0  0999 V2000
   45.9580   32.3260   46.5290 C   0  0  0  0  0  0  0  0  0  0  0  0
   46.0460   32.8810   47.8270 C   0  0  0  0  0  0  0  0  0  0  0  0
   45.8640   32.1760   48.9890 C   0  0  0  0  0  0  0  0  0  0  0  0
   45.5740   30.8290   48.9120 C   0  0  0  0  0  0  0  0  0  0  0  0
   45.4780   30.2390   47.6840 C   0  0  0  0  0  0  0  0  0  0  0  0
   45.2010   28.8970   47.6520 C   0  0  0  0  0  0  0  0  0  0  0  0
   45.0980   28.2290   46.4450 C   0  0  0  0  0  0  0  0  0  0  0  0
   45.2900   28.9990   45.2840 C   0  0  0  0  0  0  0  0  0  0  0  0
   45.5670   30.3540   45.3860 C   0  0  0  0  0  0  0  0  0  0  0  0
   45.6680   30.9930   46.5580 C   0  0  0  0  0  0  0  0  0  0  0  0
   45.2080   34.7740   44.0130 C   0  0  0  0  0  0  0  0  0  0  0  0
   46.3310   34.8430   43.1830 C   0  0  0  0  0  0  0  0  0  0  0  0
   47.3900   34.0090   43.5020 C   0  0  0  0  0  0  0  0  0  0  0  0
   47.2690   33.2090   44.5610 N   0  0  0  0  0  0  0  0  0  0  0  0
   46.1900   33.1420   45.3570 C   0  0  0  0  0  0  0  0  0  0  0  0
   45.1630   33.9510   45.0510 N   0  0  0  0  0  0  0  0  0  0  0  0
   44.0120   35.5640   43.8330 N   0  0  0  0  0  0  0  0  0  0  0  0
   45.5830   30.7900   43.9960 C   0  0  0  0  0  0  0  0  0  0  0  0
   44.6000   31.4350   43.2170 C   0  0  0  0  0  0  0  0  0  0  0  0
   44.7820   31.7510   41.8930 C   0  0  0  0  0  0  0  0  0  0  0  0
   45.9670   31.4370   41.2680 C   0  0  0  0  0  0  0  0  0  0  0  0
   47.0120   30.8070   41.9080 C   0  0  0  0  0  0  0  0  0  0  0  0
   46.7580   30.5150   43.2540 C   0  0  0  0  0  0  0  0  0  0  0  0
   46.2766   33.9533   47.9102 H   0  0  0  0  0  0  0  0  0  0  0  0
   45.9477   32.6755   49.9655 H   0  0  0  0  0  0  0  0  0  0  0  0
   45.4222   30.2384   49.8275 H   0  0  0  0  0  0  0  0  0  0  0  0
   45.0594   28.3466   48.5938 H   0  0  0  0  0  0  0  0  0  0  0  0
   44.8776   27.1524   46.3960 H   0  0  0  0  0  0  0  0  0  0  0  0
   45.2204   28.5258   44.2934 H   0  0  0  0  0  0  0  0  0  0  0  0
   46.3715   35.5248   42.3207 H   0  0  0  0  0  0  0  0  0  0  0  0
   48.3082   34.0071   42.8962 H   0  0  0  0  0  0  0  0  0  0  0  0
   43.9498   36.2339   43.0531 H   0  0  0  0  0  0  0  0  0  0  0  0
   43.2214   35.4573   44.4845 H   0  0  0  0  0  0  0  0  0  0  0  0
   43.6431   31.6971   43.6920 H   0  0  0  0  0  0  0  0  0  0  0  0
   43.9809   32.2549   41.3324 H   0  0  0  0  0  0  0  0  0  0  0  0
   46.0857   31.7015   40.2069 H   0  0  0  0  0  0  0  0  0  0  0  0
   47.9590   30.5564   41.4076 H   0  0  0  0  0  0  0  0  0  0  0  0
   47.5687   30.0114   43.8010 H   0  0  0  0  0  0  0  0  0  0  0  0
  1 10  1  0
  1  2  2  0
  2  3  1  0
  4  3  2  0
  5  4  1  0
  6  5  2  0
  7  6  1  0
  8  9  1  0
  8  7  2  0
  9 10  2  0
 10  5  1  0
 11 16  2  0
 12 13  2  0
 12 11  1  0
 13 14  1  0
 14 15  2  0
 15  1  1  0
 16 15  1  0
 17 11  1  0
 18  9  1  0
 19 18  2  0
 20 19  1  0
 21 20  2  0
 21 22  1  0
 22 23  2  0
 23 18  1  0
  2 24  1  0
  3 25  1  0
  4 26  1  0
  6 27  1  0
  7 28  1  0
  8 29  1  0
 12 30  1  0
 13 31  1  0
 17 32  1  0
 17 33  1  0
 19 34  1  0
 20 35  1  0
 21 36  1  0
 22 37  1  0
 23 38  1  0
M  ISO  8  24  14  25  14  26  14  27  14  28  14  29  14  30  14  31  14
M  ISO  5  34  14  35  14  36  14  37  14  38  14
M  END
>  <minimizedAffinity>  (1) 
-5.50052881

>  <minimizedRMSD>  (1) 
0.546461344

$$$$
