
     RDKit          3D

 38 41  0  0  0  0  0  0  0  0999 V2000
   46.1350   34.0130   40.4260 C   0  0  0  0  0  0  0  0  0  0  0  0
   46.5630   33.1480   39.4670 C   0  0  0  0  0  0  0  0  0  0  0  0
   45.8100   32.5130   38.5250 C   0  0  0  0  0  0  0  0  0  0  0  0
   44.4980   32.7880   38.5660 N   0  0  0  0  0  0  0  0  0  0  0  0
   43.9910   33.6450   39.4950 C   0  0  0  0  0  0  0  0  0  0  0  0
   44.8110   34.2430   40.4090 N   0  0  0  0  0  0  0  0  0  0  0  0
   42.6000   34.0960   39.7380 C   0  0  0  0  0  0  0  0  0  0  0  0
   42.0540   35.2190   39.2280 N   0  0  0  0  0  0  0  0  0  0  0  0
   40.8140   35.6150   39.4490 C   0  0  0  0  0  0  0  0  0  0  0  0
   39.9720   34.9260   40.2130 N   0  0  0  0  0  0  0  0  0  0  0  0
   40.4080   33.7780   40.7800 C   0  0  0  0  0  0  0  0  0  0  0  0
   39.5410   33.0790   41.5600 C   0  0  0  0  0  0  0  0  0  0  0  0
   39.9350   31.9130   42.1570 C   0  0  0  0  0  0  0  0  0  0  0  0
   41.2440   31.4970   41.9230 C   0  0  0  0  0  0  0  0  0  0  0  0
   42.0640   32.2420   41.1310 C   0  0  0  0  0  0  0  0  0  0  0  0
   41.7080   33.4050   40.5210 C   0  0  0  0  0  0  0  0  0  0  0  0
   46.9850   34.6630   41.4340 C   0  0  0  0  0  0  0  0  0  0  0  0
   47.0610   33.8000   42.6680 C   0  0  0  0  0  0  0  0  0  0  0  0
   44.5990   35.8190   44.7140 C   0  0  0  0  0  0  0  0  0  0  0  0
   45.3980   35.4150   43.6370 C   0  0  0  0  0  0  0  0  0  0  0  0
   46.1850   34.2860   43.7600 C   0  0  0  0  0  0  0  0  0  0  0  0
   46.1410   33.6160   44.9440 N   0  0  0  0  0  0  0  0  0  0  0  0
   45.3660   34.0150   45.9760 C   0  0  0  0  0  0  0  0  0  0  0  0
   44.6070   35.1160   45.8380 N   0  0  0  0  0  0  0  0  0  0  0  0
   47.6423   32.9365   39.4499 H   0  0  0  0  0  0  0  0  0  0  0  0
   46.2463   31.8255   37.7854 H   0  0  0  0  0  0  0  0  0  0  0  0
   40.4650   36.5488   38.9841 H   0  0  0  0  0  0  0  0  0  0  0  0
   38.5177   33.4530   41.7117 H   0  0  0  0  0  0  0  0  0  0  0  0
   39.2506   31.3312   42.7919 H   0  0  0  0  0  0  0  0  0  0  0  0
   41.6151   30.5668   42.3780 H   0  0  0  0  0  0  0  0  0  0  0  0
   43.0894   31.8767   40.9728 H   0  0  0  0  0  0  0  0  0  0  0  0
   47.9958   34.8041   41.0238 H   0  0  0  0  0  0  0  0  0  0  0  0
   46.5539   35.6398   41.6987 H   0  0  0  0  0  0  0  0  0  0  0  0
   46.7567   32.7771   42.4015 H   0  0  0  0  0  0  0  0  0  0  0  0
   48.0979   33.8334   43.0337 H   0  0  0  0  0  0  0  0  0  0  0  0
   43.9676   36.7156   44.6277 H   0  0  0  0  0  0  0  0  0  0  0  0
   45.3990   35.9920   42.7005 H   0  0  0  0  0  0  0  0  0  0  0  0
   45.3561   33.4462   46.9175 H   0  0  0  0  0  0  0  0  0  0  0  0
  1 17  1  0
  2  1  2  0
  3  4  2  0
  3  2  1  0
  4  5  1  0
  5  7  1  0
  5  6  2  0
  6  1  1  0
  7 16  2  0
  8  9  2  0
  8  7  1  0
  9 10  1  0
 10 11  2  0
 11 12  1  0
 12 13  2  0
 14 13  1  0
 15 14  2  0
 16 11  1  0
 16 15  1  0
 17 18  1  0
 18 21  1  0
 19 24  2  0
 20 21  2  0
 20 19  1  0
 21 22  1  0
 22 23  2  0
 24 23  1  0
  2 25  1  0
  3 26  1  0
  9 27  1  0
 12 28  1  0
 13 29  1  0
 14 30  1  0
 15 31  1  0
 17 32  1  0
 17 33  1  0
 18 34  1  0
 18 35  1  0
 19 36  1  0
 20 37  1  0
 23 38  1  0
M  ISO  8  25  14  26  14  27  14  28  14  29  14  30  14  31  14  32   8
M  ISO  6  33   8  34   8  35   8  36  14  37  14  38  14
M  END
>  <minimizedAffinity>  (1) 
-5.83992052

>  <minimizedRMSD>  (1) 
2.89885378

$$$$
