
     RDKit          3D

 46 50  0  0  0  0  0  0  0  0999 V2000
   46.4190   32.5320   45.7020 C   0  0  0  0  0  0  0  0  0  0  0  0
   46.8870   32.8790   46.9980 C   0  0  0  0  0  0  0  0  0  0  0  0
   47.0780   31.9880   48.0100 C   0  0  0  0  0  0  0  0  0  0  0  0
   46.8060   30.6610   47.7850 C   0  0  0  0  0  0  0  0  0  0  0  0
   46.3540   30.2780   46.5560 C   0  0  0  0  0  0  0  0  0  0  0  0
   46.1020   28.9380   46.3710 C   0  0  0  0  0  0  0  0  0  0  0  0
   45.6420   28.4780   45.1370 C   0  0  0  0  0  0  0  0  0  0  0  0
   45.4590   29.4420   44.1320 C   0  0  0  0  0  0  0  0  0  0  0  0
   45.7350   30.7770   44.3940 C   0  0  0  0  0  0  0  0  0  0  0  0
   46.1770   31.2080   45.5730 C   0  0  0  0  0  0  0  0  0  0  0  0
   44.8650   35.2190   43.8970 C   0  0  0  0  0  0  0  0  0  0  0  0
   45.7530   35.5830   42.8860 C   0  0  0  0  0  0  0  0  0  0  0  0
   46.9380   34.8770   42.8190 C   0  0  0  0  0  0  0  0  0  0  0  0
   47.1470   33.9110   43.7110 N   0  0  0  0  0  0  0  0  0  0  0  0
   46.2800   33.5610   44.6920 C   0  0  0  0  0  0  0  0  0  0  0  0
   45.1400   34.2470   44.7500 N   0  0  0  0  0  0  0  0  0  0  0  0
   43.5890   35.8500   44.1050 N   0  0  0  0  0  0  0  0  0  0  0  0
   45.3810   31.4410   43.1360 C   0  0  0  0  0  0  0  0  0  0  0  0
   44.1760   32.1310   42.8200 C   0  0  0  0  0  0  0  0  0  0  0  0
   43.9540   32.6740   41.5780 C   0  0  0  0  0  0  0  0  0  0  0  0
   44.8990   32.5630   40.5970 C   0  0  0  0  0  0  0  0  0  0  0  0
   46.0990   31.9170   40.7930 C   0  0  0  0  0  0  0  0  0  0  0  0
   46.2930   31.3740   42.0760 C   0  0  0  0  0  0  0  0  0  0  0  0
   47.5720   30.6970   42.2580 C   0  0  0  0  0  0  0  0  0  0  0  0
   48.6450   31.4740   42.6750 C   0  0  0  0  0  0  0  0  0  0  0  0
   49.8870   30.9590   42.8780 C   0  0  0  0  0  0  0  0  0  0  0  0
   50.1200   29.6540   42.6770 N   0  0  0  0  0  0  0  0  0  0  0  0
   49.0830   28.8870   42.2700 C   0  0  0  0  0  0  0  0  0  0  0  0
   47.8620   29.3960   42.0710 N   0  0  0  0  0  0  0  0  0  0  0  0
   47.1098   33.9376   47.1971 H   0  0  0  0  0  0  0  0  0  0  0  0
   47.4439   32.3255   48.9909 H   0  0  0  0  0  0  0  0  0  0  0  0
   46.9503   29.9182   48.5834 H   0  0  0  0  0  0  0  0  0  0  0  0
   46.2633   28.2292   47.1965 H   0  0  0  0  0  0  0  0  0  0  0  0
   45.4329   27.4127   44.9597 H   0  0  0  0  0  0  0  0  0  0  0  0
   45.0973   29.1394   43.1382 H   0  0  0  0  0  0  0  0  0  0  0  0
   45.5215   36.3918   42.1773 H   0  0  0  0  0  0  0  0  0  0  0  0
   47.6893   35.1067   42.0491 H   0  0  0  0  0  0  0  0  0  0  0  0
   43.2879   36.6184   43.4887 H   0  0  0  0  0  0  0  0  0  0  0  0
   42.9765   35.5334   44.8702 H   0  0  0  0  0  0  0  0  0  0  0  0
   43.4002   32.2321   43.5933 H   0  0  0  0  0  0  0  0  0  0  0  0
   43.0107   33.2009   41.3719 H   0  0  0  0  0  0  0  0  0  0  0  0
   44.6928   33.0072   39.6120 H   0  0  0  0  0  0  0  0  0  0  0  0
   46.8556   31.8312   39.9991 H   0  0  0  0  0  0  0  0  0  0  0  0
   48.4838   32.5483   42.8479 H   0  0  0  0  0  0  0  0  0  0  0  0
   50.7046   31.6163   43.2088 H   0  0  0  0  0  0  0  0  0  0  0  0
   49.2485   27.8133   42.0976 H   0  0  0  0  0  0  0  0  0  0  0  0
  1  2  2  0
  2  3  1  0
  4  3  2  0
  5  4  1  0
  6  5  2  0
  7  6  1  0
  8  9  1  0
  8  7  2  0
  9 10  2  0
 10  1  1  0
 10  5  1  0
 11 17  1  0
 11 16  2  0
 12 11  1  0
 13 12  2  0
 13 14  1  0
 14 15  2  0
 15 16  1  0
 15  1  1  0
 18  9  1  0
 19 18  2  0
 20 19  1  0
 21 22  1  0
 21 20  2  0
 22 23  2  0
 23 24  1  0
 23 18  1  0
 24 25  2  0
 25 26  1  0
 27 26  2  0
 28 27  1  0
 29 24  1  0
 29 28  2  0
  2 30  1  0
  3 31  1  0
  4 32  1  0
  6 33  1  0
  7 34  1  0
  8 35  1  0
 12 36  1  0
 13 37  1  0
 17 38  1  0
 17 39  1  0
 19 40  1  0
 20 41  1  0
 21 42  1  0
 22 43  1  0
 25 44  1  0
 26 45  1  0
 28 46  1  0
M  ISO  8  30  14  31  14  32  14  33  14  34  14  35  14  36  14  37  14
M  ISO  7  40  14  41  14  42  14  43  14  44  14  45  14  46  14
M  END
>  <minimizedAffinity>  (1) 
-5.68963623

>  <minimizedRMSD>  (1) 
1.55381656

$$$$
