
     RDKit          3D

 50 54  0  0  0  0  0  0  0  0999 V2000
   46.4180   32.5350   45.7340 C   0  0  0  0  0  0  0  0  0  0  0  0
   46.8570   32.9000   47.0370 C   0  0  0  0  0  0  0  0  0  0  0  0
   47.0500   32.0090   48.0610 C   0  0  0  0  0  0  0  0  0  0  0  0
   46.8100   30.6810   47.8350 C   0  0  0  0  0  0  0  0  0  0  0  0
   46.3850   30.2750   46.5930 C   0  0  0  0  0  0  0  0  0  0  0  0
   46.1600   28.9390   46.4190 C   0  0  0  0  0  0  0  0  0  0  0  0
   45.7250   28.4650   45.1820 C   0  0  0  0  0  0  0  0  0  0  0  0
   45.5400   29.4240   44.1660 C   0  0  0  0  0  0  0  0  0  0  0  0
   45.7900   30.7630   44.4260 C   0  0  0  0  0  0  0  0  0  0  0  0
   46.2080   31.2050   45.6100 C   0  0  0  0  0  0  0  0  0  0  0  0
   44.8280   35.1760   43.8880 C   0  0  0  0  0  0  0  0  0  0  0  0
   45.7390   35.5580   42.8980 C   0  0  0  0  0  0  0  0  0  0  0  0
   46.9380   34.8870   42.8600 C   0  0  0  0  0  0  0  0  0  0  0  0
   47.1520   33.9290   43.7600 N   0  0  0  0  0  0  0  0  0  0  0  0
   46.2720   33.5570   44.7200 C   0  0  0  0  0  0  0  0  0  0  0  0
   45.1130   34.2120   44.7480 N   0  0  0  0  0  0  0  0  0  0  0  0
   43.5310   35.7700   44.0650 N   0  0  0  0  0  0  0  0  0  0  0  0
   45.4420   31.4110   43.1590 C   0  0  0  0  0  0  0  0  0  0  0  0
   44.1990   31.9900   42.7810 C   0  0  0  0  0  0  0  0  0  0  0  0
   44.0100   32.5290   41.5320 C   0  0  0  0  0  0  0  0  0  0  0  0
   45.0050   32.5320   40.6020 C   0  0  0  0  0  0  0  0  0  0  0  0
   46.2340   31.9990   40.8690 C   0  0  0  0  0  0  0  0  0  0  0  0
   46.4150   31.4510   42.1510 C   0  0  0  0  0  0  0  0  0  0  0  0
   47.7350   30.9280   42.2730 N   0  0  0  0  0  0  0  0  0  0  0  0
   48.9300   30.9870   43.0820 C   0  0  0  0  0  0  0  0  0  0  0  0
   50.0480   31.3480   42.1390 C   0  0  0  0  0  0  0  0  0  0  0  0
   49.5260   30.7670   40.8340 C   0  0  0  0  0  0  0  0  0  0  0  0
   48.3370   29.9540   41.3520 C   0  0  0  0  0  0  0  0  0  0  0  0
   47.0540   33.9639   47.2354 H   0  0  0  0  0  0  0  0  0  0  0  0
   47.3919   32.3558   49.0473 H   0  0  0  0  0  0  0  0  0  0  0  0
   46.9559   29.9455   48.6398 H   0  0  0  0  0  0  0  0  0  0  0  0
   46.3215   28.2392   47.2522 H   0  0  0  0  0  0  0  0  0  0  0  0
   45.5356   27.3955   45.0077 H   0  0  0  0  0  0  0  0  0  0  0  0
   45.1979   29.1109   43.1685 H   0  0  0  0  0  0  0  0  0  0  0  0
   45.5064   36.3597   42.1817 H   0  0  0  0  0  0  0  0  0  0  0  0
   47.7002   35.1346   42.1065 H   0  0  0  0  0  0  0  0  0  0  0  0
   43.2227   36.5290   43.4408 H   0  0  0  0  0  0  0  0  0  0  0  0
   42.9100   35.4366   44.8161 H   0  0  0  0  0  0  0  0  0  0  0  0
   43.3709   32.0064   43.5049 H   0  0  0  0  0  0  0  0  0  0  0  0
   43.0340   32.9677   41.2773 H   0  0  0  0  0  0  0  0  0  0  0  0
   44.8145   32.9739   39.6129 H   0  0  0  0  0  0  0  0  0  0  0  0
   47.0398   31.9986   40.1202 H   0  0  0  0  0  0  0  0  0  0  0  0
   48.8257   31.7540   43.8636 H   0  0  0  0  0  0  0  0  0  0  0  0
   49.1223   30.0303   43.5897 H   0  0  0  0  0  0  0  0  0  0  0  0
   50.1829   32.4376   42.0707 H   0  0  0  0  0  0  0  0  0  0  0  0
   51.0358   30.9695   42.4408 H   0  0  0  0  0  0  0  0  0  0  0  0
   50.2750   30.1264   40.3454 H   0  0  0  0  0  0  0  0  0  0  0  0
   49.2736   31.5134   40.0664 H   0  0  0  0  0  0  0  0  0  0  0  0
   47.6465   29.6804   40.5406 H   0  0  0  0  0  0  0  0  0  0  0  0
   48.6028   28.9900   41.8103 H   0  0  0  0  0  0  0  0  0  0  0  0
  1  2  2  0
  2  3  1  0
  4  3  2  0
  5  4  1  0
  6  5  2  0
  7  6  1  0
  8  9  1  0
  8  7  2  0
  9 10  2  0
 10  1  1  0
 10  5  1  0
 11 17  1  0
 11 16  2  0
 12 11  1  0
 13 12  2  0
 13 14  1  0
 14 15  2  0
 15 16  1  0
 15  1  1  0
 18  9  1  0
 19 18  2  0
 20 19  1  0
 21 22  1  0
 21 20  2  0
 22 23  2  0
 23 24  1  0
 23 18  1  0
 24 25  1  0
 26 25  1  0
 27 28  1  0
 27 26  1  0
 28 24  1  0
  2 29  1  0
  3 30  1  0
  4 31  1  0
  6 32  1  0
  7 33  1  0
  8 34  1  0
 12 35  1  0
 13 36  1  0
 17 37  1  0
 17 38  1  0
 19 39  1  0
 20 40  1  0
 21 41  1  0
 22 42  1  0
 25 43  1  0
 25 44  1  0
 26 45  1  0
 26 46  1  0
 27 47  1  0
 27 48  1  0
 28 49  1  0
 28 50  1  0
M  ISO  8  29  14  30  14  31  14  32  14  33  14  34  14  35  14  36  14
M  ISO  8  39  14  40  14  41  14  42  14  43  13  44  13  45  13  46  13
M  ISO  4  47  13  48  13  49  13  50  13
M  END
>  <minimizedAffinity>  (1) 
-5.68311977

>  <minimizedRMSD>  (1) 
1.7308197

$$$$
