
     RDKit          3D

 49 53  0  0  0  0  0  0  0  0999 V2000
   45.9640   32.4100   46.4140 C   0  0  0  0  0  0  0  0  0  0  0  0
   46.1110   32.9590   47.7140 C   0  0  0  0  0  0  0  0  0  0  0  0
   45.9710   32.2330   48.8730 C   0  0  0  0  0  0  0  0  0  0  0  0
   45.6710   30.8990   48.7860 C   0  0  0  0  0  0  0  0  0  0  0  0
   45.5190   30.3200   47.5500 C   0  0  0  0  0  0  0  0  0  0  0  0
   45.2170   28.9910   47.5140 C   0  0  0  0  0  0  0  0  0  0  0  0
   45.0410   28.3460   46.2990 C   0  0  0  0  0  0  0  0  0  0  0  0
   45.1900   29.1340   45.1380 C   0  0  0  0  0  0  0  0  0  0  0  0
   45.5000   30.4860   45.2550 C   0  0  0  0  0  0  0  0  0  0  0  0
   45.6680   31.0900   46.4280 C   0  0  0  0  0  0  0  0  0  0  0  0
   45.1470   34.8610   43.9210 C   0  0  0  0  0  0  0  0  0  0  0  0
   46.2720   34.9760   43.1020 C   0  0  0  0  0  0  0  0  0  0  0  0
   47.3490   34.1850   43.4130 C   0  0  0  0  0  0  0  0  0  0  0  0
   47.2460   33.3730   44.4620 N   0  0  0  0  0  0  0  0  0  0  0  0
   46.1590   33.2580   45.2580 C   0  0  0  0  0  0  0  0  0  0  0  0
   45.1190   34.0280   44.9510 N   0  0  0  0  0  0  0  0  0  0  0  0
   43.9260   35.6150   43.7440 N   0  0  0  0  0  0  0  0  0  0  0  0
   45.5210   30.9360   43.8640 C   0  0  0  0  0  0  0  0  0  0  0  0
   44.4890   31.5900   43.1350 C   0  0  0  0  0  0  0  0  0  0  0  0
   44.6430   31.9180   41.8140 C   0  0  0  0  0  0  0  0  0  0  0  0
   45.7900   31.6360   41.1390 C   0  0  0  0  0  0  0  0  0  0  0  0
   46.8430   31.0080   41.7510 C   0  0  0  0  0  0  0  0  0  0  0  0
   46.6730   30.6740   43.1080 C   0  0  0  0  0  0  0  0  0  0  0  0
   47.8130   29.9830   43.6110 N   0  0  0  0  0  0  0  0  0  0  0  0
   48.0270   28.9280   44.3910 C   0  0  0  0  0  0  0  0  0  0  0  0
   49.2960   28.5150   44.6940 C   0  0  0  0  0  0  0  0  0  0  0  0
   50.4430   29.1280   44.2380 C   0  0  0  0  0  0  0  0  0  0  0  0
   51.6660   28.5500   44.6640 N   0  0  0  0  0  0  0  0  0  0  0  0
   50.2100   30.2100   43.4390 N   0  0  0  0  0  0  0  0  0  0  0  0
   48.9530   30.5960   43.1560 C   0  0  0  0  0  0  0  0  0  0  0  0
   49.0140   31.6240   42.3940 O   0  0  0  0  0  0  0  0  0  0  0  0
   46.3512   34.0290   47.7996 H   0  0  0  0  0  0  0  0  0  0  0  0
   46.0977   32.7150   49.8536 H   0  0  0  0  0  0  0  0  0  0  0  0
   45.5528   30.2966   49.6988 H   0  0  0  0  0  0  0  0  0  0  0  0
   45.1125   28.4277   48.4530 H   0  0  0  0  0  0  0  0  0  0  0  0
   44.7976   27.2747   46.2432 H   0  0  0  0  0  0  0  0  0  0  0  0
   45.0616   28.6814   44.1437 H   0  0  0  0  0  0  0  0  0  0  0  0
   46.2938   35.6683   42.2475 H   0  0  0  0  0  0  0  0  0  0  0  0
   48.2702   34.2210   42.8130 H   0  0  0  0  0  0  0  0  0  0  0  0
   43.8455   36.2908   42.9709 H   0  0  0  0  0  0  0  0  0  0  0  0
   43.1367   35.4763   44.3910 H   0  0  0  0  0  0  0  0  0  0  0  0
   43.5458   31.8379   43.6438 H   0  0  0  0  0  0  0  0  0  0  0  0
   43.8195   32.4215   41.2863 H   0  0  0  0  0  0  0  0  0  0  0  0
   45.8740   31.9182   40.0791 H   0  0  0  0  0  0  0  0  0  0  0  0
   47.7726   30.7769   41.2102 H   0  0  0  0  0  0  0  0  0  0  0  0
   47.1678   28.3766   44.8006 H   0  0  0  0  0  0  0  0  0  0  0  0
   49.4080   27.6353   45.3448 H   0  0  0  0  0  0  0  0  0  0  0  0
   52.5617   28.9579   44.3604 H   0  0  0  0  0  0  0  0  0  0  0  0
   51.6585   27.7223   45.2770 H   0  0  0  0  0  0  0  0  0  0  0  0
  1 10  1  0
  1  2  2  0
  2  3  1  0
  4  3  2  0
  5  4  1  0
  6  5  2  0
  7  6  1  0
  8  9  1  0
  8  7  2  0
  9 10  2  0
 10  5  1  0
 11 16  2  0
 12 13  2  0
 12 11  1  0
 13 14  1  0
 14 15  2  0
 15  1  1  0
 16 15  1  0
 17 11  1  0
 18  9  1  0
 19 18  2  0
 20 19  1  0
 21 22  1  0
 21 20  2  0
 22 23  2  0
 23 24  1  0
 23 18  1  0
 24 25  1  0
 25 26  2  0
 27 28  1  0
 27 26  1  0
 29 27  2  0
 30 29  1  0
 30 24  1  0
 31 30  2  0
  2 32  1  0
  3 33  1  0
  4 34  1  0
  6 35  1  0
  7 36  1  0
  8 37  1  0
 12 38  1  0
 13 39  1  0
 17 40  1  0
 17 41  1  0
 19 42  1  0
 20 43  1  0
 21 44  1  0
 22 45  1  0
 25 46  1  0
 26 47  1  0
 28 48  1  0
 28 49  1  0
M  ISO  8  32  14  33  14  34  14  35  14  36  14  37  14  38  14  39  14
M  ISO  6  42  14  43  14  44  14  45  14  46  14  47  14
M  END
>  <minimizedAffinity>  (1) 
-5.78678131

>  <minimizedRMSD>  (1) 
0.243034035

$$$$
