
     RDKit          3D

 46 50  0  0  0  0  0  0  0  0999 V2000
   46.4300   32.5210   45.7140 C   0  0  0  0  0  0  0  0  0  0  0  0
   46.8880   32.8770   47.0100 C   0  0  0  0  0  0  0  0  0  0  0  0
   47.0810   31.9790   48.0280 C   0  0  0  0  0  0  0  0  0  0  0  0
   46.8240   30.6550   47.8000 C   0  0  0  0  0  0  0  0  0  0  0  0
   46.3810   30.2630   46.5670 C   0  0  0  0  0  0  0  0  0  0  0  0
   46.1420   28.9210   46.3840 C   0  0  0  0  0  0  0  0  0  0  0  0
   45.6910   28.4590   45.1460 C   0  0  0  0  0  0  0  0  0  0  0  0
   45.5030   29.4230   44.1360 C   0  0  0  0  0  0  0  0  0  0  0  0
   45.7690   30.7600   44.4050 C   0  0  0  0  0  0  0  0  0  0  0  0
   46.2010   31.1900   45.5870 C   0  0  0  0  0  0  0  0  0  0  0  0
   44.8660   35.2020   43.9000 C   0  0  0  0  0  0  0  0  0  0  0  0
   45.7570   35.5620   42.8910 C   0  0  0  0  0  0  0  0  0  0  0  0
   46.9410   34.8640   42.8260 C   0  0  0  0  0  0  0  0  0  0  0  0
   47.1510   33.9010   43.7210 N   0  0  0  0  0  0  0  0  0  0  0  0
   46.2870   33.5480   44.7030 C   0  0  0  0  0  0  0  0  0  0  0  0
   45.1450   34.2290   44.7570 N   0  0  0  0  0  0  0  0  0  0  0  0
   43.5850   35.8230   44.1160 N   0  0  0  0  0  0  0  0  0  0  0  0
   45.4100   31.4190   43.1450 C   0  0  0  0  0  0  0  0  0  0  0  0
   44.2100   32.1100   42.8200 C   0  0  0  0  0  0  0  0  0  0  0  0
   43.9980   32.6440   41.5730 C   0  0  0  0  0  0  0  0  0  0  0  0
   44.9510   32.5220   40.5960 C   0  0  0  0  0  0  0  0  0  0  0  0
   46.1410   31.8800   40.8000 C   0  0  0  0  0  0  0  0  0  0  0  0
   46.3270   31.3450   42.0870 C   0  0  0  0  0  0  0  0  0  0  0  0
   47.5910   30.6530   42.3200 C   0  0  0  0  0  0  0  0  0  0  0  0
   48.6440   31.4570   42.7640 C   0  0  0  0  0  0  0  0  0  0  0  0
   49.8600   30.8070   42.9910 C   0  0  0  0  0  0  0  0  0  0  0  0
   50.0190   29.4840   42.7970 N   0  0  0  0  0  0  0  0  0  0  0  0
   48.9870   28.7360   42.3690 C   0  0  0  0  0  0  0  0  0  0  0  0
   47.8150   29.3380   42.1450 N   0  0  0  0  0  0  0  0  0  0  0  0
   47.1009   33.9376   47.2094 H   0  0  0  0  0  0  0  0  0  0  0  0
   47.4368   32.3178   49.0122 H   0  0  0  0  0  0  0  0  0  0  0  0
   46.9720   29.9140   48.5994 H   0  0  0  0  0  0  0  0  0  0  0  0
   46.3057   28.2138   47.2105 H   0  0  0  0  0  0  0  0  0  0  0  0
   45.4918   27.3920   44.9676 H   0  0  0  0  0  0  0  0  0  0  0  0
   45.1477   29.1190   43.1403 H   0  0  0  0  0  0  0  0  0  0  0  0
   45.5245   36.3675   42.1789 H   0  0  0  0  0  0  0  0  0  0  0  0
   47.6925   35.0950   42.0566 H   0  0  0  0  0  0  0  0  0  0  0  0
   43.2746   36.5902   43.5028 H   0  0  0  0  0  0  0  0  0  0  0  0
   42.9790   35.5000   44.8837 H   0  0  0  0  0  0  0  0  0  0  0  0
   43.4307   32.2195   43.5886 H   0  0  0  0  0  0  0  0  0  0  0  0
   43.0579   33.1727   41.3570 H   0  0  0  0  0  0  0  0  0  0  0  0
   44.7504   32.9586   39.6065 H   0  0  0  0  0  0  0  0  0  0  0  0
   46.9015   31.7883   40.0105 H   0  0  0  0  0  0  0  0  0  0  0  0
   48.5228   32.5383   42.9254 H   0  0  0  0  0  0  0  0  0  0  0  0
   50.7192   31.3980   43.3411 H   0  0  0  0  0  0  0  0  0  0  0  0
   49.1045   27.6543   42.2071 H   0  0  0  0  0  0  0  0  0  0  0  0
  1  2  2  0
  2  3  1  0
  4  3  2  0
  5  4  1  0
  6  5  2  0
  7  6  1  0
  8  9  1  0
  8  7  2  0
  9 10  2  0
 10  1  1  0
 10  5  1  0
 11 17  1  0
 11 16  2  0
 12 11  1  0
 13 12  2  0
 13 14  1  0
 14 15  2  0
 15 16  1  0
 15  1  1  0
 18  9  1  0
 19 18  2  0
 20 19  1  0
 21 22  1  0
 21 20  2  0
 22 23  2  0
 23 24  1  0
 23 18  1  0
 24 25  2  0
 25 26  1  0
 27 26  2  0
 28 27  1  0
 29 24  1  0
 29 28  2  0
  2 30  1  0
  3 31  1  0
  4 32  1  0
  6 33  1  0
  7 34  1  0
  8 35  1  0
 12 36  1  0
 13 37  1  0
 17 38  1  0
 17 39  1  0
 19 40  1  0
 20 41  1  0
 21 42  1  0
 22 43  1  0
 25 44  1  0
 26 45  1  0
 28 46  1  0
M  ISO  8  30  14  31  14  32  14  33  14  34  14  35  14  36  14  37  14
M  ISO  7  40  14  41  14  42  14  43  14  44  14  45  14  46  14
M  END
>  <minimizedAffinity>  (1) 
-5.6730938

>  <minimizedRMSD>  (1) 
1.54565442

$$$$
