
     RDKit          3D

 53 57  0  0  0  0  0  0  0  0999 V2000
   46.4710   32.5150   45.8530 C   0  0  0  0  0  0  0  0  0  0  0  0
   46.8780   32.9160   47.1510 C   0  0  0  0  0  0  0  0  0  0  0  0
   47.0740   32.0520   48.1960 C   0  0  0  0  0  0  0  0  0  0  0  0
   46.8710   30.7120   47.9910 C   0  0  0  0  0  0  0  0  0  0  0  0
   46.4780   30.2750   46.7560 C   0  0  0  0  0  0  0  0  0  0  0  0
   46.2920   28.9250   46.5940 C   0  0  0  0  0  0  0  0  0  0  0  0
   45.8950   28.4190   45.3580 C   0  0  0  0  0  0  0  0  0  0  0  0
   45.7020   29.3530   44.3240 C   0  0  0  0  0  0  0  0  0  0  0  0
   45.9100   30.7030   44.5660 C   0  0  0  0  0  0  0  0  0  0  0  0
   46.2940   31.1750   45.7500 C   0  0  0  0  0  0  0  0  0  0  0  0
   44.9000   35.1210   43.9430 C   0  0  0  0  0  0  0  0  0  0  0  0
   45.8010   35.4690   42.9410 C   0  0  0  0  0  0  0  0  0  0  0  0
   46.9930   34.7880   42.9140 C   0  0  0  0  0  0  0  0  0  0  0  0
   47.2010   33.8560   43.8350 N   0  0  0  0  0  0  0  0  0  0  0  0
   46.3280   33.5130   44.8120 C   0  0  0  0  0  0  0  0  0  0  0  0
   45.1730   34.1760   44.8340 N   0  0  0  0  0  0  0  0  0  0  0  0
   43.5960   35.7260   44.1290 N   0  0  0  0  0  0  0  0  0  0  0  0
   45.5630   31.3180   43.2820 C   0  0  0  0  0  0  0  0  0  0  0  0
   44.3410   31.9320   42.8930 C   0  0  0  0  0  0  0  0  0  0  0  0
   44.1620   32.4340   41.6240 C   0  0  0  0  0  0  0  0  0  0  0  0
   45.1540   32.3600   40.6910 C   0  0  0  0  0  0  0  0  0  0  0  0
   46.3660   31.7890   40.9610 C   0  0  0  0  0  0  0  0  0  0  0  0
   46.5190   31.2860   42.2640 C   0  0  0  0  0  0  0  0  0  0  0  0
   47.7820   30.6780   42.5090 N   0  0  0  0  0  0  0  0  0  0  0  0
   48.3160   29.3420   42.5930 C   0  0  0  0  0  0  0  0  0  0  0  0
   49.3530   29.2450   43.7140 C   0  0  0  0  0  0  0  0  0  0  0  0
   50.5820   30.0730   43.3620 C   0  0  0  0  0  0  0  0  0  0  0  0
   50.1570   31.0940   42.2980 C   0  0  0  0  0  0  0  0  0  0  0  0
   48.8440   31.6390   42.7430 C   0  0  0  0  0  0  0  0  0  0  0  0
   47.0469   33.9881   47.3300 H   0  0  0  0  0  0  0  0  0  0  0  0
   47.3884   32.4267   49.1813 H   0  0  0  0  0  0  0  0  0  0  0  0
   47.0227   29.9953   48.8115 H   0  0  0  0  0  0  0  0  0  0  0  0
   46.4564   28.2420   47.4404 H   0  0  0  0  0  0  0  0  0  0  0  0
   45.7401   27.3417   45.1985 H   0  0  0  0  0  0  0  0  0  0  0  0
   45.3870   29.0138   43.3262 H   0  0  0  0  0  0  0  0  0  0  0  0
   45.5690   36.2530   42.2051 H   0  0  0  0  0  0  0  0  0  0  0  0
   47.7536   35.0088   42.1507 H   0  0  0  0  0  0  0  0  0  0  0  0
   43.2790   36.4721   43.4935 H   0  0  0  0  0  0  0  0  0  0  0  0
   42.9864   35.4099   44.8966 H   0  0  0  0  0  0  0  0  0  0  0  0
   43.5208   32.0075   43.6221 H   0  0  0  0  0  0  0  0  0  0  0  0
   43.2030   32.9026   41.3579 H   0  0  0  0  0  0  0  0  0  0  0  0
   44.9726   32.7736   39.6880 H   0  0  0  0  0  0  0  0  0  0  0  0
   47.1670   31.7274   40.2096 H   0  0  0  0  0  0  0  0  0  0  0  0
   47.4963   28.6374   42.7971 H   0  0  0  0  0  0  0  0  0  0  0  0
   48.8025   29.0943   41.6380 H   0  0  0  0  0  0  0  0  0  0  0  0
   48.9146   29.6237   44.6491 H   0  0  0  0  0  0  0  0  0  0  0  0
   49.6507   28.1935   43.8396 H   0  0  0  0  0  0  0  0  0  0  0  0
   50.9531   30.5944   44.2566 H   0  0  0  0  0  0  0  0  0  0  0  0
   51.3890   29.4290   42.9824 H   0  0  0  0  0  0  0  0  0  0  0  0
   50.0537   30.6033   41.3189 H   0  0  0  0  0  0  0  0  0  0  0  0
   50.9053   31.8928   42.1887 H   0  0  0  0  0  0  0  0  0  0  0  0
   48.6270   32.5602   42.1823 H   0  0  0  0  0  0  0  0  0  0  0  0
   48.8970   31.8509   43.8211 H   0  0  0  0  0  0  0  0  0  0  0  0
  1  2  2  0
  2  3  1  0
  4  3  2  0
  5  4  1  0
  6  5  2  0
  7  6  1  0
  8  9  1  0
  8  7  2  0
  9 10  2  0
 10  1  1  0
 10  5  1  0
 11 17  1  0
 11 16  2  0
 12 11  1  0
 13 12  2  0
 13 14  1  0
 14 15  2  0
 15 16  1  0
 15  1  1  0
 18  9  1  0
 19 18  2  0
 20 19  1  0
 21 22  1  0
 21 20  2  0
 22 23  2  0
 23 24  1  0
 23 18  1  0
 24 25  1  0
 24 29  1  0
 25 26  1  0
 27 26  1  0
 28 29  1  0
 28 27  1  0
  2 30  1  0
  3 31  1  0
  4 32  1  0
  6 33  1  0
  7 34  1  0
  8 35  1  0
 12 36  1  0
 13 37  1  0
 17 38  1  0
 17 39  1  0
 19 40  1  0
 20 41  1  0
 21 42  1  0
 22 43  1  0
 25 44  1  0
 25 45  1  0
 26 46  1  0
 26 47  1  0
 27 48  1  0
 27 49  1  0
 28 50  1  0
 28 51  1  0
 29 52  1  0
 29 53  1  0
M  ISO  8  30  14  31  14  32  14  33  14  34  14  35  14  36  14  37  14
M  ISO  8  40  14  41  14  42  14  43  14  44  13  45  13  46  13  47  13
M  ISO  6  48  13  49  13  50  13  51  13  52  13  53  13
M  END
>  <minimizedAffinity>  (1) 
-5.83588314

>  <minimizedRMSD>  (1) 
1.34217489

$$$$
