
     RDKit          3D

 45 49  0  0  0  0  0  0  0  0999 V2000
   46.4270   32.5240   45.7440 C   0  0  0  0  0  0  0  0  0  0  0  0
   46.8590   32.8960   47.0440 C   0  0  0  0  0  0  0  0  0  0  0  0
   47.0510   32.0070   48.0700 C   0  0  0  0  0  0  0  0  0  0  0  0
   46.8180   30.6770   47.8450 C   0  0  0  0  0  0  0  0  0  0  0  0
   46.4000   30.2700   46.6060 C   0  0  0  0  0  0  0  0  0  0  0  0
   46.1870   28.9250   46.4280 C   0  0  0  0  0  0  0  0  0  0  0  0
   45.7640   28.4460   45.1870 C   0  0  0  0  0  0  0  0  0  0  0  0
   45.5760   29.4030   44.1710 C   0  0  0  0  0  0  0  0  0  0  0  0
   45.8160   30.7460   44.4350 C   0  0  0  0  0  0  0  0  0  0  0  0
   46.2230   31.1890   45.6210 C   0  0  0  0  0  0  0  0  0  0  0  0
   44.8470   35.1670   43.9010 C   0  0  0  0  0  0  0  0  0  0  0  0
   45.7340   35.5440   42.9040 C   0  0  0  0  0  0  0  0  0  0  0  0
   46.9380   34.8610   42.8520 C   0  0  0  0  0  0  0  0  0  0  0  0
   47.1560   33.9060   43.7510 N   0  0  0  0  0  0  0  0  0  0  0  0
   46.2830   33.5430   44.7220 C   0  0  0  0  0  0  0  0  0  0  0  0
   45.1300   34.2060   44.7620 N   0  0  0  0  0  0  0  0  0  0  0  0
   43.5560   35.7760   44.0920 N   0  0  0  0  0  0  0  0  0  0  0  0
   45.4650   31.3930   43.1660 C   0  0  0  0  0  0  0  0  0  0  0  0
   44.2460   32.0410   42.8180 C   0  0  0  0  0  0  0  0  0  0  0  0
   44.0390   32.5710   41.5690 C   0  0  0  0  0  0  0  0  0  0  0  0
   45.0110   32.4900   40.6110 C   0  0  0  0  0  0  0  0  0  0  0  0
   46.2260   31.8880   40.8370 C   0  0  0  0  0  0  0  0  0  0  0  0
   46.4030   31.3570   42.1260 C   0  0  0  0  0  0  0  0  0  0  0  0
   47.6870   30.7130   42.3850 C   0  0  0  0  0  0  0  0  0  0  0  0
   48.7430   31.4530   42.8770 C   0  0  0  0  0  0  0  0  0  0  0  0
   49.7840   30.5500   43.0040 C   0  0  0  0  0  0  0  0  0  0  0  0
   49.3680   29.3140   42.6020 N   0  0  0  0  0  0  0  0  0  0  0  0
   48.1030   29.4410   42.2350 N   0  0  0  0  0  0  0  0  0  0  0  0
   47.0512   33.9612   47.2400 H   0  0  0  0  0  0  0  0  0  0  0  0
   47.3867   32.3567   49.0574 H   0  0  0  0  0  0  0  0  0  0  0  0
   46.9650   29.9429   48.6509 H   0  0  0  0  0  0  0  0  0  0  0  0
   46.3495   28.2264   47.2620 H   0  0  0  0  0  0  0  0  0  0  0  0
   45.5864   27.3747   45.0114 H   0  0  0  0  0  0  0  0  0  0  0  0
   45.2403   29.0884   43.1718 H   0  0  0  0  0  0  0  0  0  0  0  0
   45.4935   36.3455   42.1900 H   0  0  0  0  0  0  0  0  0  0  0  0
   47.6924   35.1019   42.0885 H   0  0  0  0  0  0  0  0  0  0  0  0
   43.2474   36.5352   43.4681 H   0  0  0  0  0  0  0  0  0  0  0  0
   42.9413   35.4523   44.8525 H   0  0  0  0  0  0  0  0  0  0  0  0
   43.4480   32.1191   43.5710 H   0  0  0  0  0  0  0  0  0  0  0  0
   43.0838   33.0647   41.3370 H   0  0  0  0  0  0  0  0  0  0  0  0
   44.8129   32.9239   39.6198 H   0  0  0  0  0  0  0  0  0  0  0  0
   47.0052   31.8262   40.0630 H   0  0  0  0  0  0  0  0  0  0  0  0
   48.7547   32.5266   43.1161 H   0  0  0  0  0  0  0  0  0  0  0  0
   50.7920   30.7915   43.3724 H   0  0  0  0  0  0  0  0  0  0  0  0
   49.9293   28.4505   42.5871 H   0  0  0  0  0  0  0  0  0  0  0  0
  1  2  2  0
  2  3  1  0
  4  3  2  0
  5  4  1  0
  6  5  2  0
  7  6  1  0
  8  9  1  0
  8  7  2  0
  9 10  2  0
 10  1  1  0
 10  5  1  0
 11 17  1  0
 11 16  2  0
 12 11  1  0
 13 12  2  0
 13 14  1  0
 14 15  2  0
 15 16  1  0
 15  1  1  0
 18  9  1  0
 19 18  2  0
 20 19  1  0
 21 22  1  0
 21 20  2  0
 22 23  2  0
 23 24  1  0
 23 18  1  0
 24 25  1  0
 25 26  2  0
 27 26  1  0
 28 24  2  0
 28 27  1  0
  2 29  1  0
  3 30  1  0
  4 31  1  0
  6 32  1  0
  7 33  1  0
  8 34  1  0
 12 35  1  0
 13 36  1  0
 17 37  1  0
 17 38  1  0
 19 39  1  0
 20 40  1  0
 21 41  1  0
 22 42  1  0
 25 43  1  0
 26 44  1  0
 27 45  1  0
M  ISO  8  29  14  30  14  31  14  32  14  33  14  34  14  35  14  36  14
M  ISO  7  39  14  40  14  41  14  42  14  43  14  44  14  45   9
M  END
>  <minimizedAffinity>  (1) 
-5.64004517

>  <minimizedRMSD>  (1) 
1.45576453

$$$$
