
     RDKit          3D

 44 48  0  0  0  0  0  0  0  0999 V2000
   46.4280   32.5310   45.7410 C   0  0  0  0  0  0  0  0  0  0  0  0
   46.8650   32.8960   47.0420 C   0  0  0  0  0  0  0  0  0  0  0  0
   47.0550   32.0100   48.0670 C   0  0  0  0  0  0  0  0  0  0  0  0
   46.8130   30.6790   47.8440 C   0  0  0  0  0  0  0  0  0  0  0  0
   46.3900   30.2730   46.6090 C   0  0  0  0  0  0  0  0  0  0  0  0
   46.1700   28.9340   46.4260 C   0  0  0  0  0  0  0  0  0  0  0  0
   45.7480   28.4550   45.1910 C   0  0  0  0  0  0  0  0  0  0  0  0
   45.5660   29.4040   44.1690 C   0  0  0  0  0  0  0  0  0  0  0  0
   45.8090   30.7500   44.4340 C   0  0  0  0  0  0  0  0  0  0  0  0
   46.2150   31.1990   45.6180 C   0  0  0  0  0  0  0  0  0  0  0  0
   44.8410   35.1740   43.8980 C   0  0  0  0  0  0  0  0  0  0  0  0
   45.7420   35.5450   42.9010 C   0  0  0  0  0  0  0  0  0  0  0  0
   46.9350   34.8660   42.8570 C   0  0  0  0  0  0  0  0  0  0  0  0
   47.1490   33.9120   43.7570 N   0  0  0  0  0  0  0  0  0  0  0  0
   46.2770   33.5480   44.7280 C   0  0  0  0  0  0  0  0  0  0  0  0
   45.1240   34.2110   44.7620 N   0  0  0  0  0  0  0  0  0  0  0  0
   43.5460   35.7770   44.0940 N   0  0  0  0  0  0  0  0  0  0  0  0
   45.4590   31.3940   43.1640 C   0  0  0  0  0  0  0  0  0  0  0  0
   44.2420   32.0400   42.8150 C   0  0  0  0  0  0  0  0  0  0  0  0
   44.0460   32.5700   41.5590 C   0  0  0  0  0  0  0  0  0  0  0  0
   45.0220   32.4890   40.6070 C   0  0  0  0  0  0  0  0  0  0  0  0
   46.2280   31.8890   40.8400 C   0  0  0  0  0  0  0  0  0  0  0  0
   46.4010   31.3570   42.1290 C   0  0  0  0  0  0  0  0  0  0  0  0
   47.7070   30.6980   42.3710 C   0  0  0  0  0  0  0  0  0  0  0  0
   48.7380   31.4650   42.8780 C   0  0  0  0  0  0  0  0  0  0  0  0
   50.1260   30.2510   43.0090 S   0  0  0  0  0  0  0  0  0  0  0  0
   49.0130   28.8760   42.3270 C   0  0  0  0  0  0  0  0  0  0  0  0
   47.9350   29.4020   42.1240 N   0  0  0  0  0  0  0  0  0  0  0  0
   47.0636   33.9600   47.2383 H   0  0  0  0  0  0  0  0  0  0  0  0
   47.3959   32.3593   49.0528 H   0  0  0  0  0  0  0  0  0  0  0  0
   46.9577   29.9452   48.6506 H   0  0  0  0  0  0  0  0  0  0  0  0
   46.3279   28.2342   47.2599 H   0  0  0  0  0  0  0  0  0  0  0  0
   45.5650   27.3837   45.0210 H   0  0  0  0  0  0  0  0  0  0  0  0
   45.2347   29.0863   43.1693 H   0  0  0  0  0  0  0  0  0  0  0  0
   45.5082   36.3446   42.1827 H   0  0  0  0  0  0  0  0  0  0  0  0
   47.6932   35.1055   42.0969 H   0  0  0  0  0  0  0  0  0  0  0  0
   43.2321   36.5362   43.4727 H   0  0  0  0  0  0  0  0  0  0  0  0
   42.9349   35.4486   44.8553 H   0  0  0  0  0  0  0  0  0  0  0  0
   43.4399   32.1183   43.5637 H   0  0  0  0  0  0  0  0  0  0  0  0
   43.0927   33.0641   41.3199 H   0  0  0  0  0  0  0  0  0  0  0  0
   44.8303   32.9232   39.6147 H   0  0  0  0  0  0  0  0  0  0  0  0
   47.0108   31.8268   40.0697 H   0  0  0  0  0  0  0  0  0  0  0  0
   48.7340   32.5336   43.1391 H   0  0  0  0  0  0  0  0  0  0  0  0
   49.2846   27.8246   42.1518 H   0  0  0  0  0  0  0  0  0  0  0  0
  1  2  2  0
  2  3  1  0
  4  3  2  0
  5  4  1  0
  6  5  2  0
  7  6  1  0
  8  9  1  0
  8  7  2  0
  9 10  2  0
 10  1  1  0
 10  5  1  0
 11 17  1  0
 11 16  2  0
 12 11  1  0
 13 12  2  0
 13 14  1  0
 14 15  2  0
 15 16  1  0
 15  1  1  0
 18  9  1  0
 19 18  2  0
 20 19  1  0
 21 22  1  0
 21 20  2  0
 22 23  2  0
 23 24  1  0
 23 18  1  0
 24 25  2  0
 25 26  1  0
 27 26  1  0
 28 27  2  0
 28 24  1  0
  2 29  1  0
  3 30  1  0
  4 31  1  0
  6 32  1  0
  7 33  1  0
  8 34  1  0
 12 35  1  0
 13 36  1  0
 17 37  1  0
 17 38  1  0
 19 39  1  0
 20 40  1  0
 21 41  1  0
 22 42  1  0
 25 43  1  0
 27 44  1  0
M  ISO  8  29  14  30  14  31  14  32  14  33  14  34  14  35  14  36  14
M  ISO  6  39  14  40  14  41  14  42  14  43  14  44  14
M  END
>  <minimizedAffinity>  (1) 
-5.59355307

>  <minimizedRMSD>  (1) 
1.48336267

$$$$
