
     RDKit          3D

 41 44  0  0  0  0  0  0  0  0999 V2000
   46.4570   32.5120   45.8330 C   0  0  0  0  0  0  0  0  0  0  0  0
   46.8780   32.9080   47.1290 C   0  0  0  0  0  0  0  0  0  0  0  0
   47.0730   32.0350   48.1730 C   0  0  0  0  0  0  0  0  0  0  0  0
   46.8500   30.6970   47.9640 C   0  0  0  0  0  0  0  0  0  0  0  0
   46.4400   30.2600   46.7260 C   0  0  0  0  0  0  0  0  0  0  0  0
   46.2250   28.9260   46.5620 C   0  0  0  0  0  0  0  0  0  0  0  0
   45.7980   28.4270   45.3390 C   0  0  0  0  0  0  0  0  0  0  0  0
   45.6070   29.3660   44.3070 C   0  0  0  0  0  0  0  0  0  0  0  0
   45.8510   30.7140   44.5510 C   0  0  0  0  0  0  0  0  0  0  0  0
   46.2620   31.1740   45.7280 C   0  0  0  0  0  0  0  0  0  0  0  0
   44.8830   35.1260   43.9340 C   0  0  0  0  0  0  0  0  0  0  0  0
   45.7850   35.4820   42.9340 C   0  0  0  0  0  0  0  0  0  0  0  0
   46.9860   34.7980   42.9060 C   0  0  0  0  0  0  0  0  0  0  0  0
   47.1900   33.8600   43.8250 N   0  0  0  0  0  0  0  0  0  0  0  0
   46.3150   33.5140   44.7970 C   0  0  0  0  0  0  0  0  0  0  0  0
   45.1620   34.1780   44.8170 N   0  0  0  0  0  0  0  0  0  0  0  0
   43.5900   35.7340   44.1090 N   0  0  0  0  0  0  0  0  0  0  0  0
   45.5170   31.3360   43.2640 C   0  0  0  0  0  0  0  0  0  0  0  0
   44.2770   31.9200   42.8780 C   0  0  0  0  0  0  0  0  0  0  0  0
   44.0700   32.4330   41.6250 C   0  0  0  0  0  0  0  0  0  0  0  0
   45.0660   32.3980   40.6920 C   0  0  0  0  0  0  0  0  0  0  0  0
   46.3030   31.8570   40.9640 C   0  0  0  0  0  0  0  0  0  0  0  0
   46.4970   31.3330   42.2620 C   0  0  0  0  0  0  0  0  0  0  0  0
   47.8510   30.7500   42.4550 C   0  0  0  0  0  0  0  0  0  0  0  0
   48.7330   31.0880   41.4300 F   0  0  0  0  0  0  0  0  0  0  0  0
   47.8130   29.3540   42.4130 F   0  0  0  0  0  0  0  0  0  0  0  0
   48.4080   31.0510   43.6810 F   0  0  0  0  0  0  0  0  0  0  0  0
   47.0592   33.9779   47.3092 H   0  0  0  0  0  0  0  0  0  0  0  0
   47.4014   32.4017   49.1567 H   0  0  0  0  0  0  0  0  0  0  0  0
   46.9985   29.9775   48.7827 H   0  0  0  0  0  0  0  0  0  0  0  0
   46.3908   28.2385   47.4045 H   0  0  0  0  0  0  0  0  0  0  0  0
   45.6180   27.3530   45.1839 H   0  0  0  0  0  0  0  0  0  0  0  0
   45.2671   29.0359   43.3143 H   0  0  0  0  0  0  0  0  0  0  0  0
   45.5528   36.2695   42.2019 H   0  0  0  0  0  0  0  0  0  0  0  0
   47.7492   35.0232   42.1465 H   0  0  0  0  0  0  0  0  0  0  0  0
   43.2819   36.4817   43.4711 H   0  0  0  0  0  0  0  0  0  0  0  0
   42.9729   35.4213   44.8721 H   0  0  0  0  0  0  0  0  0  0  0  0
   43.4577   31.9605   43.6109 H   0  0  0  0  0  0  0  0  0  0  0  0
   43.0960   32.8756   41.3691 H   0  0  0  0  0  0  0  0  0  0  0  0
   44.8746   32.8147   39.6921 H   0  0  0  0  0  0  0  0  0  0  0  0
   47.1013   31.8339   40.2075 H   0  0  0  0  0  0  0  0  0  0  0  0
  1  2  2  0
  2  3  1  0
  4  3  2  0
  5  4  1  0
  6  5  2  0
  7  6  1  0
  8  9  1  0
  8  7  2  0
  9 10  2  0
 10  1  1  0
 10  5  1  0
 11 17  1  0
 11 16  2  0
 12 11  1  0
 13 12  2  0
 13 14  1  0
 14 15  2  0
 15 16  1  0
 15  1  1  0
 18  9  1  0
 19 18  2  0
 20 19  1  0
 21 22  1  0
 21 20  2  0
 22 23  2  0
 23 24  1  0
 23 18  1  0
 24 27  1  0
 25 24  1  0
 26 24  1  0
  2 28  1  0
  3 29  1  0
  4 30  1  0
  6 31  1  0
  7 32  1  0
  8 33  1  0
 12 34  1  0
 13 35  1  0
 17 36  1  0
 17 37  1  0
 19 38  1  0
 20 39  1  0
 21 40  1  0
 22 41  1  0
M  ISO  8  28  14  29  14  30  14  31  14  32  14  33  14  34  14  35  14
M  ISO  4  38  14  39  14  40  14  41  14
M  END
>  <minimizedAffinity>  (1) 
-5.55063009

>  <minimizedRMSD>  (1) 
1.31531692

$$$$
