
     RDKit          3D

 52 56  0  0  0  0  0  0  0  0999 V2000
   46.3240   32.4920   45.8320 C   0  0  0  0  0  0  0  0  0  0  0  0
   46.7380   32.8900   47.1260 C   0  0  0  0  0  0  0  0  0  0  0  0
   46.8220   32.0360   48.1970 C   0  0  0  0  0  0  0  0  0  0  0  0
   46.4920   30.7180   48.0220 C   0  0  0  0  0  0  0  0  0  0  0  0
   46.0880   30.2910   46.7890 C   0  0  0  0  0  0  0  0  0  0  0  0
   45.7760   28.9600   46.6580 C   0  0  0  0  0  0  0  0  0  0  0  0
   45.3600   28.4570   45.4250 C   0  0  0  0  0  0  0  0  0  0  0  0
   45.2840   29.3780   44.3640 C   0  0  0  0  0  0  0  0  0  0  0  0
   45.6170   30.7080   44.5750 C   0  0  0  0  0  0  0  0  0  0  0  0
   46.0170   31.1760   45.7540 C   0  0  0  0  0  0  0  0  0  0  0  0
   45.0230   35.1320   43.7760 C   0  0  0  0  0  0  0  0  0  0  0  0
   46.0010   35.4030   42.8170 C   0  0  0  0  0  0  0  0  0  0  0  0
   47.1500   34.6560   42.8720 C   0  0  0  0  0  0  0  0  0  0  0  0
   47.2530   33.7350   43.8250 N   0  0  0  0  0  0  0  0  0  0  0  0
   46.3070   33.4670   44.7590 C   0  0  0  0  0  0  0  0  0  0  0  0
   45.1950   34.1960   44.6980 N   0  0  0  0  0  0  0  0  0  0  0  0
   43.7570   35.8170   43.8660 N   0  0  0  0  0  0  0  0  0  0  0  0
   45.3600   31.3180   43.2670 C   0  0  0  0  0  0  0  0  0  0  0  0
   44.1910   31.9980   42.8280 C   0  0  0  0  0  0  0  0  0  0  0  0
   44.0840   32.4860   41.5460 C   0  0  0  0  0  0  0  0  0  0  0  0
   45.1020   32.3330   40.6500 C   0  0  0  0  0  0  0  0  0  0  0  0
   46.2630   31.6960   40.9740 C   0  0  0  0  0  0  0  0  0  0  0  0
   46.3560   31.2030   42.2870 C   0  0  0  0  0  0  0  0  0  0  0  0
   47.5470   30.4890   42.6560 N   0  0  0  0  0  0  0  0  0  0  0  0
   48.6670   30.7280   43.4910 C   0  0  0  0  0  0  0  0  0  0  0  0
   50.0190   30.4600   42.9020 C   0  0  0  0  0  0  0  0  0  0  0  0
   50.0630   29.3130   42.0390 N   0  0  0  0  0  0  0  0  0  0  0  0
   48.9090   29.2110   41.1790 C   0  0  0  0  0  0  0  0  0  0  0  0
   47.6880   29.1790   42.0630 C   0  0  0  0  0  0  0  0  0  0  0  0
   47.0080   33.9449   47.2820 H   0  0  0  0  0  0  0  0  0  0  0  0
   47.1492   32.4041   49.1806 H   0  0  0  0  0  0  0  0  0  0  0  0
   46.5516   30.0124   48.8638 H   0  0  0  0  0  0  0  0  0  0  0  0
   45.8542   28.2895   47.5265 H   0  0  0  0  0  0  0  0  0  0  0  0
   45.1047   27.3957   45.2894 H   0  0  0  0  0  0  0  0  0  0  0  0
   44.9606   29.0434   43.3673 H   0  0  0  0  0  0  0  0  0  0  0  0
   45.8565   36.1803   42.0521 H   0  0  0  0  0  0  0  0  0  0  0  0
   47.9630   34.8145   42.1482 H   0  0  0  0  0  0  0  0  0  0  0  0
   43.5261   36.5629   43.1942 H   0  0  0  0  0  0  0  0  0  0  0  0
   43.0838   35.5603   44.6020 H   0  0  0  0  0  0  0  0  0  0  0  0
   43.3542   32.1369   43.5283 H   0  0  0  0  0  0  0  0  0  0  0  0
   43.1650   33.0068   41.2389 H   0  0  0  0  0  0  0  0  0  0  0  0
   44.9819   32.7366   39.6338 H   0  0  0  0  0  0  0  0  0  0  0  0
   47.0810   31.5747   40.2486 H   0  0  0  0  0  0  0  0  0  0  0  0
   48.6386   31.7859   43.7910 H   0  0  0  0  0  0  0  0  0  0  0  0
   48.5667   30.0109   44.3191 H   0  0  0  0  0  0  0  0  0  0  0  0
   50.3241   31.3424   42.3204 H   0  0  0  0  0  0  0  0  0  0  0  0
   50.6970   30.2519   43.7428 H   0  0  0  0  0  0  0  0  0  0  0  0
   50.9062   29.3767   41.4509 H   0  0  0  0  0  0  0  0  0  0  0  0
   48.8634   30.0803   40.5066 H   0  0  0  0  0  0  0  0  0  0  0  0
   48.9646   28.3025   40.5612 H   0  0  0  0  0  0  0  0  0  0  0  0
   46.7968   28.9399   41.4641 H   0  0  0  0  0  0  0  0  0  0  0  0
   47.7940   28.4101   42.8425 H   0  0  0  0  0  0  0  0  0  0  0  0
  1  2  2  0
  2  3  1  0
  4  3  2  0
  5  4  1  0
  6  5  2  0
  7  6  1  0
  8  9  1  0
  8  7  2  0
  9 10  2  0
 10  1  1  0
 10  5  1  0
 11 17  1  0
 11 16  2  0
 12 13  2  0
 12 11  1  0
 13 14  1  0
 14 15  2  0
 15  1  1  0
 16 15  1  0
 18  9  1  0
 19 18  2  0
 20 19  1  0
 21 22  1  0
 21 20  2  0
 22 23  2  0
 23 24  1  0
 23 18  1  0
 24 25  1  0
 26 25  1  0
 27 26  1  0
 28 27  1  0
 28 29  1  0
 29 24  1  0
  2 30  1  0
  3 31  1  0
  4 32  1  0
  6 33  1  0
  7 34  1  0
  8 35  1  0
 12 36  1  0
 13 37  1  0
 17 38  1  0
 17 39  1  0
 19 40  1  0
 20 41  1  0
 21 42  1  0
 22 43  1  0
 25 44  1  0
 25 45  1  0
 26 46  1  0
 26 47  1  0
 27 48  1  0
 28 49  1  0
 28 50  1  0
 29 51  1  0
 29 52  1  0
M  ISO  8  30  14  31  14  32  14  33  14  34  14  35  14  36  14  37  14
M  ISO  8  40  14  41  14  42  14  43  14  44  13  45  13  46  13  47  13
M  ISO  5  48   5  49  13  50  13  51  13  52  13
M  END
>  <minimizedAffinity>  (1) 
-5.54582787

>  <minimizedRMSD>  (1) 
1.49592805

$$$$
