
     RDKit          3D

 34 36  0  0  0  0  0  0  0  0999 V2000
   47.5380   34.3430   40.2060 C   0  0  0  0  0  0  0  0  0  0  0  0
   48.4070   34.5130   39.1510 C   0  0  0  0  0  0  0  0  0  0  0  0
   48.1850   34.1340   37.8410 C   0  0  0  0  0  0  0  0  0  0  0  0
   46.9870   33.5410   37.6120 N   0  0  0  0  0  0  0  0  0  0  0  0
   46.1130   33.3620   38.6350 C   0  0  0  0  0  0  0  0  0  0  0  0
   46.3370   33.7370   39.9160 N   0  0  0  0  0  0  0  0  0  0  0  0
   44.8780   32.7270   38.2810 N   0  0  0  0  0  0  0  0  0  0  0  0
   43.8180   32.6300   39.1320 C   0  0  0  0  0  0  0  0  0  0  0  0
   42.6620   32.0070   38.7280 C   0  0  0  0  0  0  0  0  0  0  0  0
   42.5760   31.4790   37.4580 C   0  0  0  0  0  0  0  0  0  0  0  0
   41.5410   30.8940   37.0270 O   0  0  0  0  0  0  0  0  0  0  0  0
   43.6260   31.5720   36.6110 N   0  0  0  0  0  0  0  0  0  0  0  0
   44.7530   32.1910   37.0310 C   0  0  0  0  0  0  0  0  0  0  0  0
   45.7600   32.2940   36.2550 O   0  0  0  0  0  0  0  0  0  0  0  0
   47.8430   34.7640   41.5920 C   0  0  0  0  0  0  0  0  0  0  0  0
   47.2660   33.7540   42.5470 C   0  0  0  0  0  0  0  0  0  0  0  0
   44.7000   36.0110   44.1740 C   0  0  0  0  0  0  0  0  0  0  0  0
   45.5770   35.4960   43.2250 C   0  0  0  0  0  0  0  0  0  0  0  0
   46.3120   34.3620   43.5070 C   0  0  0  0  0  0  0  0  0  0  0  0
   46.1430   33.7860   44.7240 N   0  0  0  0  0  0  0  0  0  0  0  0
   45.2780   34.2980   45.6560 C   0  0  0  0  0  0  0  0  0  0  0  0
   44.5750   35.3960   45.3660 N   0  0  0  0  0  0  0  0  0  0  0  0
   49.3698   34.9967   39.3725 H   0  0  0  0  0  0  0  0  0  0  0  0
   48.9243   34.3007   37.0438 H   0  0  0  0  0  0  0  0  0  0  0  0
   43.8881   33.0518   40.1455 H   0  0  0  0  0  0  0  0  0  0  0  0
   41.8075   31.9299   39.4164 H   0  0  0  0  0  0  0  0  0  0  0  0
   43.5685   31.1778   35.6612 H   0  0  0  0  0  0  0  0  0  0  0  0
   48.9329   34.8210   41.7291 H   0  0  0  0  0  0  0  0  0  0  0  0
   47.4034   35.7535   41.7860 H   0  0  0  0  0  0  0  0  0  0  0  0
   46.7396   32.9811   41.9678 H   0  0  0  0  0  0  0  0  0  0  0  0
   48.0981   33.3276   43.1265 H   0  0  0  0  0  0  0  0  0  0  0  0
   44.1126   36.9143   43.9526 H   0  0  0  0  0  0  0  0  0  0  0  0
   45.6849   35.9926   42.2494 H   0  0  0  0  0  0  0  0  0  0  0  0
   45.1638   33.8087   46.6345 H   0  0  0  0  0  0  0  0  0  0  0  0
  1 15  1  0
  2  1  2  0
  3  2  1  0
  4  3  2  0
  4  5  1  0
  5  6  2  0
  6  1  1  0
  7  5  1  0
  7  8  1  0
  9  8  2  0
 10  9  1  0
 11 10  2  0
 12 13  1  0
 12 10  1  0
 13  7  1  0
 14 13  2  0
 15 16  1  0
 16 19  1  0
 17 22  2  0
 18 19  2  0
 18 17  1  0
 19 20  1  0
 20 21  2  0
 22 21  1  0
  2 23  1  0
  3 24  1  0
  8 25  1  0
  9 26  1  0
 12 27  1  0
 15 28  1  0
 15 29  1  0
 16 30  1  0
 16 31  1  0
 17 32  1  0
 18 33  1  0
 21 34  1  0
M  ISO  8  23  14  24  14  25  14  26  14  27   9  28   8  29   8  30   8
M  ISO  4  31   8  32  14  33  14  34  14
M  END
>  <minimizedAffinity>  (1) 
-5.36870193

>  <minimizedRMSD>  (1) 
0.501054525

$$$$
