
     RDKit          3D

 31 33  0  0  0  0  0  0  0  0999 V2000
   46.6580   33.0560   37.6060 C   0  0  0  0  0  0  0  0  0  0  0  0
   45.9390   33.5120   38.7170 C   0  0  0  0  0  0  0  0  0  0  0  0
   44.6090   33.1290   38.8370 C   0  0  0  0  0  0  0  0  0  0  0  0
   44.0600   32.3220   37.8640 N   0  0  0  0  0  0  0  0  0  0  0  0
   44.7880   31.9020   36.8040 C   0  0  0  0  0  0  0  0  0  0  0  0
   46.0920   32.2720   36.6780 N   0  0  0  0  0  0  0  0  0  0  0  0
   48.0220   33.4440   37.4740 N   0  0  0  0  0  0  0  0  0  0  0  0
   49.0020   32.4770   37.1140 C   0  0  0  0  0  0  0  0  0  0  0  0
   48.6820   31.3560   36.5570 N   0  0  0  0  0  0  0  0  0  0  0  0
   50.3440   32.7930   37.3920 N   0  0  0  0  0  0  0  0  0  0  0  0
   49.4480   30.6700   36.3080 H   0  0  0  0  0  0  0  0  0  0  0  0
   43.8340   33.5910   39.9900 C   0  0  0  0  0  0  0  0  0  0  0  0
   44.0780   33.3150   41.3200 C   0  0  0  0  0  0  0  0  0  0  0  0
   43.1530   33.9140   42.0810 N   0  0  0  0  0  0  0  0  0  0  0  0
   42.3170   34.5730   41.2470 C   0  0  0  0  0  0  0  0  0  0  0  0
   41.2040   35.3430   41.5350 C   0  0  0  0  0  0  0  0  0  0  0  0
   40.5250   35.9060   40.4900 C   0  0  0  0  0  0  0  0  0  0  0  0
   40.8660   35.7670   39.1410 C   0  0  0  0  0  0  0  0  0  0  0  0
   41.9850   34.9870   38.9290 C   0  0  0  0  0  0  0  0  0  0  0  0
   42.7130   34.3940   39.9130 C   0  0  0  0  0  0  0  0  0  0  0  0
   46.4133   34.1549   39.4731 H   0  0  0  0  0  0  0  0  0  0  0  0
   44.3246   31.2592   36.0411 H   0  0  0  0  0  0  0  0  0  0  0  0
   48.2985   34.4224   37.6388 H   0  0  0  0  0  0  0  0  0  0  0  0
   51.0908   32.1260   37.1505 H   0  0  0  0  0  0  0  0  0  0  0  0
   50.5800   33.6914   37.8371 H   0  0  0  0  0  0  0  0  0  0  0  0
   44.9061   32.6971   41.6975 H   0  0  0  0  0  0  0  0  0  0  0  0
   43.0901   33.8793   43.1085 H   0  0  0  0  0  0  0  0  0  0  0  0
   40.8753   35.4976   42.5733 H   0  0  0  0  0  0  0  0  0  0  0  0
   39.6414   36.5159   40.7293 H   0  0  0  0  0  0  0  0  0  0  0  0
   40.2959   36.2354   38.3251 H   0  0  0  0  0  0  0  0  0  0  0  0
   42.3113   34.8341   37.8897 H   0  0  0  0  0  0  0  0  0  0  0  0
  1  2  2  0
  2  3  1  0
  3 12  1  0
  4  3  2  0
  5  4  1  0
  6  5  2  0
  6  1  1  0
  7  1  1  0
  8 10  1  0
  8  7  1  0
  9  8  2  0
 11  9  1  0
 12 13  2  0
 13 14  1  0
 15 16  2  0
 15 14  1  0
 17 16  1  0
 18 17  2  0
 19 18  1  0
 19 20  2  0
 20 12  1  0
 20 15  1  0
  2 21  1  0
  5 22  1  0
  7 23  1  0
 10 24  1  0
 10 25  1  0
 13 26  1  0
 14 27  1  0
 16 28  1  0
 17 29  1  0
 18 30  1  0
 19 31  1  0
M  ISO  8  21  14  22  14  26  14  27   9  28  14  29  14  30  14  31  14
M  END
>  <minimizedAffinity>  (1) 
-5.10163307

>  <minimizedRMSD>  (1) 
7.64586401

$$$$
