
     RDKit          3D

 32 34  0  0  1  0  0  0  0  0999 V2000
   44.7420   35.1140   45.5060 C   0  0  0  0  0  0  0  0  0  0  0  0
   44.5130   36.0870   44.5140 C   0  0  0  0  0  0  0  0  0  0  0  0
   45.1710   35.9470   43.2890 C   0  0  0  0  0  0  0  0  0  0  0  0
   45.9900   34.8930   43.1190 N   0  0  0  0  0  0  0  0  0  0  0  0
   46.2030   33.9600   44.0870 C   0  0  0  0  0  0  0  0  0  0  0  0
   45.5790   34.0840   45.2570 N   0  0  0  0  0  0  0  0  0  0  0  0
   47.0740   32.8570   43.9170 N   0  0  0  0  0  0  0  0  0  0  0  0
   47.9810   32.9760   42.9020 C   0  0  0  0  0  0  0  0  0  0  0  0
   48.7180   31.7970   42.9410 C   0  0  0  0  0  0  0  0  0  0  0  0
   48.2560   31.0120   43.9480 N   0  0  0  0  0  0  0  0  0  0  0  0
   47.2520   31.6730   44.5340 C   0  0  0  0  0  0  0  0  0  0  0  0
   46.4410   31.2070   45.6580 C   0  0  2  0  0  0  0  0  0  0  0  0
   47.1920   31.6120   46.9370 C   0  0  0  0  0  0  0  0  0  0  0  0
   46.3540   29.7000   45.6520 C   0  0  0  0  0  0  0  0  0  0  0  0
   44.9650   29.2670   45.2510 C   0  0  0  0  0  0  0  0  0  0  0  0
   44.1210   28.6300   46.1680 C   0  0  0  0  0  0  0  0  0  0  0  0
   42.6130   28.3350   45.1880 S   0  0  0  0  0  0  0  0  0  0  0  0
   43.4010   29.1470   43.6570 C   0  0  0  0  0  0  0  0  0  0  0  0
   44.4280   29.4350   44.0530 N   0  0  0  0  0  0  0  0  0  0  0  0
   44.2401   35.1929   46.4816 H   0  0  0  0  0  0  0  0  0  0  0  0
   43.8352   36.9335   44.6982 H   0  0  0  0  0  0  0  0  0  0  0  0
   45.0229   36.6809   42.4831 H   0  0  0  0  0  0  0  0  0  0  0  0
   48.1019   33.8195   42.2064 H   0  0  0  0  0  0  0  0  0  0  0  0
   49.5452   31.5408   42.2626 H   0  0  0  0  0  0  0  0  0  0  0  0
   45.4292   31.6344   45.5972 H   0  0  0  0  0  0  0  0  0  0  0  0
   46.6117   31.2991   47.8176 H   0  0  0  0  0  0  0  0  0  0  0  0
   48.1771   31.1228   46.9543 H   0  0  0  0  0  0  0  0  0  0  0  0
   47.3245   32.7039   46.9543 H   0  0  0  0  0  0  0  0  0  0  0  0
   47.0834   29.2955   44.9348 H   0  0  0  0  0  0  0  0  0  0  0  0
   46.5744   29.3206   46.6607 H   0  0  0  0  0  0  0  0  0  0  0  0
   44.3187   28.3717   47.2188 H   0  0  0  0  0  0  0  0  0  0  0  0
   42.9755   29.2980   42.6539 H   0  0  0  0  0  0  0  0  0  0  0  0
  2  1  2  0
  3  2  1  0
  4  3  2  0
  4  5  1  0
  5  6  2  0
  6  1  1  0
  7  5  1  0
  7 11  1  0
  8  9  2  0
  8  7  1  0
  9 10  1  0
 10 11  2  0
 11 12  1  0
 12 13  1  0
 14 12  1  0
 15 14  1  0
 15 16  2  0
 17 16  1  0
 18 19  2  0
 18 17  1  0
 19 15  1  0
  1 20  1  0
  2 21  1  0
  3 22  1  0
  8 23  1  0
  9 24  1  0
 12 25  1  1
 13 26  1  0
 13 27  1  0
 13 28  1  0
 14 29  1  0
 14 30  1  0
 16 31  1  0
 18 32  1  0
M  ISO  8  20  14  21  14  22  14  23  14  24  14  25   8  26   8  27   8
M  ISO  5  28   8  29   8  30   8  31  14  32  14
M  END
>  <minimizedAffinity>  (1) 
-4.17557621

>  <minimizedRMSD>  (1) 
3.43148708

$$$$
