
     RDKit          3D

 38 40  0  0  0  0  0  0  0  0999 V2000
   47.8510   34.8520   41.5980 C   0  0  0  0  0  0  0  0  0  0  0  0
   47.5830   34.3720   40.2230 C   0  0  0  0  0  0  0  0  0  0  0  0
   48.3950   34.6640   39.1440 C   0  0  0  0  0  0  0  0  0  0  0  0
   48.2050   34.2440   37.8470 C   0  0  0  0  0  0  0  0  0  0  0  0
   47.1050   33.4710   37.6510 N   0  0  0  0  0  0  0  0  0  0  0  0
   46.2840   33.1670   38.6990 C   0  0  0  0  0  0  0  0  0  0  0  0
   46.4830   33.5870   39.9690 N   0  0  0  0  0  0  0  0  0  0  0  0
   45.1410   32.3550   38.4540 N   0  0  0  0  0  0  0  0  0  0  0  0
   43.7890   32.7800   38.7010 C   0  0  0  0  0  0  0  0  0  0  0  0
   42.8540   31.9750   37.8500 C   0  0  0  0  0  0  0  0  0  0  0  0
   43.3580   31.6100   36.5660 N   0  0  0  0  0  0  0  0  0  0  0  0
   44.6510   31.0000   36.5570 C   0  0  0  0  0  0  0  0  0  0  0  0
   45.2600   31.0110   37.9260 C   0  0  0  0  0  0  0  0  0  0  0  0
   47.3380   33.8280   42.5790 C   0  0  0  0  0  0  0  0  0  0  0  0
   44.6950   36.0130   44.1860 C   0  0  0  0  0  0  0  0  0  0  0  0
   45.6030   35.5170   43.2500 C   0  0  0  0  0  0  0  0  0  0  0  0
   46.3560   34.3950   43.5330 C   0  0  0  0  0  0  0  0  0  0  0  0
   46.1730   33.8080   44.7420 N   0  0  0  0  0  0  0  0  0  0  0  0
   45.2850   34.2990   45.6450 C   0  0  0  0  0  0  0  0  0  0  0  0
   44.5660   35.3780   45.3670 N   0  0  0  0  0  0  0  0  0  0  0  0
   47.3370   35.8107   41.7616 H   0  0  0  0  0  0  0  0  0  0  0  0
   48.9323   34.9960   41.7394 H   0  0  0  0  0  0  0  0  0  0  0  0
   49.2769   35.2916   39.3400 H   0  0  0  0  0  0  0  0  0  0  0  0
   48.8917   34.5137   37.0311 H   0  0  0  0  0  0  0  0  0  0  0  0
   43.5438   32.6272   39.7624 H   0  0  0  0  0  0  0  0  0  0  0  0
   43.6868   33.8469   38.4535 H   0  0  0  0  0  0  0  0  0  0  0  0
   42.6098   31.0508   38.3943 H   0  0  0  0  0  0  0  0  0  0  0  0
   41.9828   32.6198   37.6623 H   0  0  0  0  0  0  0  0  0  0  0  0
   42.6929   30.9478   36.1417 H   0  0  0  0  0  0  0  0  0  0  0  0
   44.5552   29.9591   36.2144 H   0  0  0  0  0  0  0  0  0  0  0  0
   45.3028   31.5707   35.8791 H   0  0  0  0  0  0  0  0  0  0  0  0
   44.7263   30.3042   38.5784 H   0  0  0  0  0  0  0  0  0  0  0  0
   46.3168   30.7095   37.8784 H   0  0  0  0  0  0  0  0  0  0  0  0
   46.8551   33.0140   42.0184 H   0  0  0  0  0  0  0  0  0  0  0  0
   48.1974   33.4650   43.1618 H   0  0  0  0  0  0  0  0  0  0  0  0
   44.0946   36.9074   43.9634 H   0  0  0  0  0  0  0  0  0  0  0  0
   45.7197   36.0232   42.2804 H   0  0  0  0  0  0  0  0  0  0  0  0
   45.1611   33.7969   46.6159 H   0  0  0  0  0  0  0  0  0  0  0  0
  1 14  1  0
  2  1  1  0
  3  2  2  0
  4  3  1  0
  5  4  2  0
  5  6  1  0
  6  7  2  0
  7  2  1  0
  8  6  1  0
  8  9  1  0
 10  9  1  0
 11 10  1  0
 12 11  1  0
 12 13  1  0
 13  8  1  0
 14 17  1  0
 15 20  2  0
 16 17  2  0
 16 15  1  0
 17 18  1  0
 18 19  2  0
 20 19  1  0
  1 21  1  0
  1 22  1  0
  3 23  1  0
  4 24  1  0
  9 25  1  0
  9 26  1  0
 10 27  1  0
 10 28  1  0
 11 29  1  0
 12 30  1  0
 12 31  1  0
 13 32  1  0
 13 33  1  0
 14 34  1  0
 14 35  1  0
 15 36  1  0
 16 37  1  0
 19 38  1  0
M  ISO  8  21   8  22   8  23  14  24  14  25  13  26  13  27  13  28  13
M  ISO  8  29   5  30  13  31  13  32  13  33  13  34   8  35   8  36  14
M  ISO  2  37  14  38  14
M  END
>  <minimizedAffinity>  (1) 
-5.15070057

>  <minimizedRMSD>  (1) 
0.0373853482

$$$$
