
     RDKit          3D

 38 42  0  0  1  0  0  0  0  0999 V2000
   45.7940   33.8600   45.2590 C   0  0  0  0  0  0  0  0  0  0  0  0
   46.6100   33.8650   44.1180 C   0  0  0  0  0  0  0  0  0  0  0  0
   46.4070   34.8590   43.1650 C   0  0  0  0  0  0  0  0  0  0  0  0
   45.4230   35.7870   43.3780 N   0  0  0  0  0  0  0  0  0  0  0  0
   44.6480   35.7600   44.4890 C   0  0  0  0  0  0  0  0  0  0  0  0
   44.8340   34.8010   45.4240 N   0  0  0  0  0  0  0  0  0  0  0  0
   47.2440   34.8740   41.9810 C   0  0  0  0  0  0  0  0  0  0  0  0
   48.4900   35.5040   41.8590 C   0  0  0  0  0  0  0  0  0  0  0  0
   48.9590   35.2950   40.6120 N   0  0  0  0  0  0  0  0  0  0  0  0
   48.0390   34.5520   39.9550 C   0  0  0  0  0  0  0  0  0  0  0  0
   48.0600   34.0770   38.6470 C   0  0  0  0  0  0  0  0  0  0  0  0
   46.9900   33.3360   38.2140 C   0  0  0  0  0  0  0  0  0  0  0  0
   45.8740   33.0230   39.0010 C   0  0  0  0  0  0  0  0  0  0  0  0
   45.9370   33.5320   40.2790 C   0  0  0  0  0  0  0  0  0  0  0  0
   46.9600   34.2710   40.7750 C   0  0  0  0  0  0  0  0  0  0  0  0
   45.9260   32.9160   46.2510 O   0  0  0  0  0  0  0  0  0  0  0  0
   45.4180   33.0000   47.5290 C   0  0  1  0  0  0  0  0  0  0  0  0
   44.7480   31.7830   48.0770 C   0  0  0  0  0  0  0  0  0  0  0  0
   46.1080   32.1800   48.5770 C   0  0  1  0  0  0  0  0  0  0  0  0
   47.2080   31.2630   48.1790 C   0  0  0  0  0  0  0  0  0  0  0  0
   48.3060   31.0330   49.1330 C   0  0  0  0  0  0  0  0  0  0  0  0
   49.3390   29.8770   48.1550 S   0  0  0  0  0  0  0  0  0  0  0  0
   48.1500   29.8980   46.6700 C   0  0  0  0  0  0  0  0  0  0  0  0
   47.2060   30.6740   47.0040 N   0  0  0  0  0  0  0  0  0  0  0  0
   47.3907   33.1025   43.9799 H   0  0  0  0  0  0  0  0  0  0  0  0
   43.8656   36.5201   44.6308 H   0  0  0  0  0  0  0  0  0  0  0  0
   49.0005   36.0742   42.6491 H   0  0  0  0  0  0  0  0  0  0  0  0
   49.8523   35.6376   40.2305 H   0  0  0  0  0  0  0  0  0  0  0  0
   48.9090   34.2894   37.9806 H   0  0  0  0  0  0  0  0  0  0  0  0
   47.0095   32.9625   37.1795 H   0  0  0  0  0  0  0  0  0  0  0  0
   45.0265   32.4263   38.6325 H   0  0  0  0  0  0  0  0  0  0  0  0
   45.0910   33.3227   40.9502 H   0  0  0  0  0  0  0  0  0  0  0  0
   45.1352   34.0580   47.4260 H   0  0  0  0  0  0  0  0  0  0  0  0
   43.8698   31.8863   48.7313 H   0  0  0  0  0  0  0  0  0  0  0  0
   44.3158   30.8703   47.6408 H   0  0  0  0  0  0  0  0  0  0  0  0
   46.5727   32.4282   49.5426 H   0  0  0  0  0  0  0  0  0  0  0  0
   48.4617   31.4388   50.1435 H   0  0  0  0  0  0  0  0  0  0  0  0
   48.2592   29.3516   45.7215 H   0  0  0  0  0  0  0  0  0  0  0  0
  1  6  1  0
  1 16  1  0
  2  1  2  0
  3  4  2  0
  3  2  1  0
  4  5  1  0
  5  6  2  0
  7  3  1  0
  8  7  2  0
  9  8  1  0
 10  9  1  0
 10 15  2  0
 11 10  1  0
 12 11  2  0
 12 13  1  0
 13 14  2  0
 14 15  1  0
 15  7  1  0
 16 17  1  0
 17 18  1  0
 17 19  1  0
 18 19  1  0
 20 19  1  0
 20 21  2  0
 22 21  1  0
 23 24  2  0
 23 22  1  0
 24 20  1  0
  2 25  1  0
  5 26  1  0
  8 27  1  0
  9 28  1  0
 11 29  1  0
 12 30  1  0
 13 31  1  0
 14 32  1  0
 17 33  1  1
 18 34  1  0
 18 35  1  0
 19 36  1  1
 21 37  1  0
 23 38  1  0
M  ISO  8  25  14  26  14  27  14  28   9  29  14  30  14  31  14  32  14
M  ISO  6  33  13  34  13  35  13  36  13  37  14  38  14
M  END
>  <minimizedAffinity>  (1) 
-6.86675215

>  <minimizedRMSD>  (1) 
0.411688119

$$$$
