
     RDKit          3D

 35 38  0  0  1  0  0  0  0  0999 V2000
   45.8670   34.0430   45.2740 C   0  0  0  0  0  0  0  0  0  0  0  0
   46.6890   34.0130   44.1470 C   0  0  0  0  0  0  0  0  0  0  0  0
   46.4000   34.9080   43.1040 C   0  0  0  0  0  0  0  0  0  0  0  0
   45.3390   35.7540   43.2440 N   0  0  0  0  0  0  0  0  0  0  0  0
   44.5590   35.7610   44.3440 C   0  0  0  0  0  0  0  0  0  0  0  0
   44.8110   34.9140   45.3630 N   0  0  0  0  0  0  0  0  0  0  0  0
   47.2460   34.8940   41.9230 C   0  0  0  0  0  0  0  0  0  0  0  0
   48.5080   35.5050   41.8040 C   0  0  0  0  0  0  0  0  0  0  0  0
   48.9800   35.2750   40.5700 N   0  0  0  0  0  0  0  0  0  0  0  0
   48.0540   34.5400   39.9120 C   0  0  0  0  0  0  0  0  0  0  0  0
   48.0650   34.0440   38.6120 C   0  0  0  0  0  0  0  0  0  0  0  0
   46.9890   33.3160   38.1760 C   0  0  0  0  0  0  0  0  0  0  0  0
   45.8690   33.0370   38.9670 C   0  0  0  0  0  0  0  0  0  0  0  0
   45.9350   33.5610   40.2400 C   0  0  0  0  0  0  0  0  0  0  0  0
   46.9580   34.2820   40.7260 C   0  0  0  0  0  0  0  0  0  0  0  0
   46.0850   33.1940   46.3420 O   0  0  0  0  0  0  0  0  0  0  0  0
   46.0430   31.8020   46.2830 C   0  0  1  0  0  0  0  0  0  0  0  0
   47.3030   31.0610   46.4600 C   0  0  0  0  0  0  0  0  0  0  0  0
   46.3550   31.1340   47.6110 C   0  0  2  0  0  0  0  0  0  0  0  0
   45.4230   29.9830   47.9300 C   0  0  0  0  0  0  0  0  0  0  0  0
   46.0820   28.7770   47.8500 F   0  0  0  0  0  0  0  0  0  0  0  0
   44.2520   30.0240   47.2200 F   0  0  0  0  0  0  0  0  0  0  0  0
   45.0840   30.1280   49.2810 F   0  0  0  0  0  0  0  0  0  0  0  0
   47.5343   33.3125   44.0778 H   0  0  0  0  0  0  0  0  0  0  0  0
   43.7130   36.4609   44.4106 H   0  0  0  0  0  0  0  0  0  0  0  0
   49.0216   36.0759   42.5916 H   0  0  0  0  0  0  0  0  0  0  0  0
   49.8820   35.5985   40.1924 H   0  0  0  0  0  0  0  0  0  0  0  0
   48.9208   34.2326   37.9472 H   0  0  0  0  0  0  0  0  0  0  0  0
   47.0067   32.9292   37.1464 H   0  0  0  0  0  0  0  0  0  0  0  0
   45.0114   32.4511   38.6047 H   0  0  0  0  0  0  0  0  0  0  0  0
   45.0830   33.3739   40.9102 H   0  0  0  0  0  0  0  0  0  0  0  0
   45.2461   31.7614   45.5258 H   0  0  0  0  0  0  0  0  0  0  0  0
   47.4521   30.1054   45.9359 H   0  0  0  0  0  0  0  0  0  0  0  0
   48.3659   31.3093   46.3233 H   0  0  0  0  0  0  0  0  0  0  0  0
   46.4918   31.4058   48.6681 H   0  0  0  0  0  0  0  0  0  0  0  0
  1  6  1  0
  1 16  1  0
  2  1  2  0
  3  4  2  0
  3  2  1  0
  4  5  1  0
  5  6  2  0
  7  3  1  0
  8  7  2  0
  9  8  1  0
 10  9  1  0
 10 15  2  0
 11 10  1  0
 12 11  2  0
 12 13  1  0
 13 14  2  0
 14 15  1  0
 15  7  1  0
 17 16  1  0
 17 18  1  0
 17 19  1  0
 18 19  1  0
 19 20  1  0
 20 23  1  0
 21 20  1  0
 22 20  1  0
  2 24  1  0
  5 25  1  0
  8 26  1  0
  9 27  1  0
 11 28  1  0
 12 29  1  0
 13 30  1  0
 14 31  1  0
 17 32  1  6
 18 33  1  0
 18 34  1  0
 19 35  1  1
M  ISO  8  24  14  25  14  26  14  27   9  28  14  29  14  30  14  31  14
M  ISO  4  32  13  33  13  34  13  35  13
M  END
>  <minimizedAffinity>  (1) 
-6.65595484

>  <minimizedRMSD>  (1) 
2.0694685

$$$$
