
     RDKit          3D

 33 36  0  0  1  0  0  0  0  0999 V2000
   46.0900   33.8080   45.3090 C   0  0  0  0  0  0  0  0  0  0  0  0
   46.8660   33.8710   44.1430 C   0  0  0  0  0  0  0  0  0  0  0  0
   46.5160   34.7860   43.1480 C   0  0  0  0  0  0  0  0  0  0  0  0
   45.4350   35.5780   43.3540 N   0  0  0  0  0  0  0  0  0  0  0  0
   44.6870   35.5100   44.4900 C   0  0  0  0  0  0  0  0  0  0  0  0
   45.0110   34.6280   45.4650 N   0  0  0  0  0  0  0  0  0  0  0  0
   47.3200   34.8470   41.9470 C   0  0  0  0  0  0  0  0  0  0  0  0
   48.5370   35.5110   41.7900 C   0  0  0  0  0  0  0  0  0  0  0  0
   48.9800   35.3380   40.5290 N   0  0  0  0  0  0  0  0  0  0  0  0
   48.0650   34.5810   39.8870 C   0  0  0  0  0  0  0  0  0  0  0  0
   48.0510   34.1230   38.5790 C   0  0  0  0  0  0  0  0  0  0  0  0
   46.9980   33.3600   38.1600 C   0  0  0  0  0  0  0  0  0  0  0  0
   45.9250   33.0080   38.9750 C   0  0  0  0  0  0  0  0  0  0  0  0
   45.9940   33.4910   40.2660 C   0  0  0  0  0  0  0  0  0  0  0  0
   47.0130   34.2540   40.7450 C   0  0  0  0  0  0  0  0  0  0  0  0
   46.3580   32.9440   46.3310 O   0  0  0  0  0  0  0  0  0  0  0  0
   45.4780   32.5440   47.3170 C   0  0  1  0  0  0  0  0  0  0  0  0
   45.3840   31.0770   47.5820 C   0  0  0  0  0  0  0  0  0  0  0  0
   46.1070   31.9350   48.5470 C   0  0  2  0  0  0  0  0  0  0  0  0
   45.6010   32.1970   49.8080 O   0  0  0  0  0  0  0  0  0  0  0  0
   47.7362   33.2105   44.0142 H   0  0  0  0  0  0  0  0  0  0  0  0
   43.8181   36.1727   44.6157 H   0  0  0  0  0  0  0  0  0  0  0  0
   49.0539   36.0856   42.5727 H   0  0  0  0  0  0  0  0  0  0  0  0
   49.8525   35.7128   40.1301 H   0  0  0  0  0  0  0  0  0  0  0  0
   48.8729   34.3694   37.8906 H   0  0  0  0  0  0  0  0  0  0  0  0
   46.9977   33.0033   37.1194 H   0  0  0  0  0  0  0  0  0  0  0  0
   45.0867   32.3922   38.6172 H   0  0  0  0  0  0  0  0  0  0  0  0
   45.1711   33.2427   40.9524 H   0  0  0  0  0  0  0  0  0  0  0  0
   44.7529   33.3458   47.1136 H   0  0  0  0  0  0  0  0  0  0  0  0
   44.4176   30.6324   47.8622 H   0  0  0  0  0  0  0  0  0  0  0  0
   45.6397   30.1718   47.0117 H   0  0  0  0  0  0  0  0  0  0  0  0
   47.1149   31.9247   48.9875 H   0  0  0  0  0  0  0  0  0  0  0  0
   46.2357   31.8684   50.4931 H   0  0  0  0  0  0  0  0  0  0  0  0
  1  6  1  0
  1 16  1  0
  2  1  2  0
  3  4  2  0
  3  2  1  0
  4  5  1  0
  5  6  2  0
  7  3  1  0
  8  7  2  0
  9  8  1  0
 10  9  1  0
 10 15  2  0
 11 10  1  0
 12 11  2  0
 12 13  1  0
 13 14  2  0
 14 15  1  0
 15  7  1  0
 16 17  1  0
 17 18  1  0
 17 19  1  0
 18 19  1  0
 19 20  1  0
  2 21  1  0
  5 22  1  0
  8 23  1  0
  9 24  1  0
 11 25  1  0
 12 26  1  0
 13 27  1  0
 14 28  1  0
 17 29  1  1
 18 30  1  0
 18 31  1  0
 19 32  1  1
 20 33  1  0
M  ISO  8  21  14  22  14  23  14  24   9  25  14  26  14  27  14  28  14
M  ISO  5  29  13  30  13  31  13  32  13  33   3
M  END
>  <minimizedAffinity>  (1) 
-6.68666458

>  <minimizedRMSD>  (1) 
0.368864208

$$$$
