
     RDKit          3D

 36 38  0  0  0  0  0  0  0  0999 V2000
   47.7850   34.8070   41.5840 C   0  0  0  0  0  0  0  0  0  0  0  0
   47.4790   34.3270   40.2180 C   0  0  0  0  0  0  0  0  0  0  0  0
   48.3480   34.4620   39.1590 C   0  0  0  0  0  0  0  0  0  0  0  0
   48.1340   34.0330   37.8640 C   0  0  0  0  0  0  0  0  0  0  0  0
   46.9260   33.4200   37.6550 N   0  0  0  0  0  0  0  0  0  0  0  0
   46.0560   33.2790   38.6890 C   0  0  0  0  0  0  0  0  0  0  0  0
   46.2920   33.7090   39.9530 N   0  0  0  0  0  0  0  0  0  0  0  0
   44.8280   32.6300   38.3820 N   0  0  0  0  0  0  0  0  0  0  0  0
   43.6420   32.6370   39.2150 C   0  0  0  0  0  0  0  0  0  0  0  0
   42.5160   32.3380   38.2820 C   0  0  0  0  0  0  0  0  0  0  0  0
   43.1520   31.3710   37.2890 C   0  0  0  0  0  0  0  0  0  0  0  0
   44.5630   31.8470   37.1680 C   0  0  0  0  0  0  0  0  0  0  0  0
   47.2770   33.7920   42.5790 C   0  0  0  0  0  0  0  0  0  0  0  0
   44.6880   36.0130   44.2200 C   0  0  0  0  0  0  0  0  0  0  0  0
   45.5770   35.5080   43.2720 C   0  0  0  0  0  0  0  0  0  0  0  0
   46.3190   34.3760   43.5450 C   0  0  0  0  0  0  0  0  0  0  0  0
   46.1440   33.7910   44.7580 N   0  0  0  0  0  0  0  0  0  0  0  0
   45.2680   34.3020   45.6710 C   0  0  0  0  0  0  0  0  0  0  0  0
   44.5570   35.3990   45.3900 N   0  0  0  0  0  0  0  0  0  0  0  0
   47.2897   35.7740   41.7561 H   0  0  0  0  0  0  0  0  0  0  0  0
   48.8711   34.9357   41.7014 H   0  0  0  0  0  0  0  0  0  0  0  0
   49.3068   34.9604   39.3645 H   0  0  0  0  0  0  0  0  0  0  0  0
   48.8749   34.1723   37.0630 H   0  0  0  0  0  0  0  0  0  0  0  0
   43.7129   31.8655   39.9959 H   0  0  0  0  0  0  0  0  0  0  0  0
   43.5060   33.5973   39.7340 H   0  0  0  0  0  0  0  0  0  0  0  0
   41.6758   31.8663   38.8125 H   0  0  0  0  0  0  0  0  0  0  0  0
   42.0920   33.2352   37.8074 H   0  0  0  0  0  0  0  0  0  0  0  0
   43.1192   30.3404   37.6722 H   0  0  0  0  0  0  0  0  0  0  0  0
   42.6281   31.3544   36.3219 H   0  0  0  0  0  0  0  0  0  0  0  0
   45.2517   30.9915   37.1063 H   0  0  0  0  0  0  0  0  0  0  0  0
   44.7103   32.4484   36.2588 H   0  0  0  0  0  0  0  0  0  0  0  0
   46.7752   32.9810   42.0308 H   0  0  0  0  0  0  0  0  0  0  0  0
   48.1415   33.4203   43.1485 H   0  0  0  0  0  0  0  0  0  0  0  0
   44.0984   36.9152   43.9998 H   0  0  0  0  0  0  0  0  0  0  0  0
   45.6878   36.0140   42.3016 H   0  0  0  0  0  0  0  0  0  0  0  0
   45.1458   33.8075   46.6460 H   0  0  0  0  0  0  0  0  0  0  0  0
  1 13  1  0
  2  1  1  0
  3  2  2  0
  4  3  1  0
  5  4  2  0
  5  6  1  0
  6  7  2  0
  7  2  1  0
  8  6  1  0
  8  9  1  0
 10  9  1  0
 11 10  1  0
 12 11  1  0
 12  8  1  0
 13 16  1  0
 14 19  2  0
 15 16  2  0
 15 14  1  0
 16 17  1  0
 17 18  2  0
 19 18  1  0
  1 20  1  0
  1 21  1  0
  3 22  1  0
  4 23  1  0
  9 24  1  0
  9 25  1  0
 10 26  1  0
 10 27  1  0
 11 28  1  0
 11 29  1  0
 12 30  1  0
 12 31  1  0
 13 32  1  0
 13 33  1  0
 14 34  1  0
 15 35  1  0
 18 36  1  0
M  ISO  8  20   8  21   8  22  14  23  14  24  13  25  13  26  13  27  13
M  ISO  8  28  13  29  13  30  13  31  13  32   8  33   8  34  14  35  14
M  ISO  1  36  14
M  END
>  <minimizedAffinity>  (1) 
-4.9090457

>  <minimizedRMSD>  (1) 
0.359577388

$$$$
