
     RDKit          3D

 47 50  0  0  1  0  0  0  0  0999 V2000
   45.7940   33.7350   45.4230 C   0  0  0  0  0  0  0  0  0  0  0  0
   46.5850   33.7830   44.2800 C   0  0  0  0  0  0  0  0  0  0  0  0
   46.3630   34.7910   43.3450 C   0  0  0  0  0  0  0  0  0  0  0  0
   45.3830   35.6910   43.5790 N   0  0  0  0  0  0  0  0  0  0  0  0
   44.6250   35.6280   44.6950 C   0  0  0  0  0  0  0  0  0  0  0  0
   44.8330   34.6540   45.6080 N   0  0  0  0  0  0  0  0  0  0  0  0
   47.2060   34.8210   42.1560 C   0  0  0  0  0  0  0  0  0  0  0  0
   48.4460   35.4290   42.0260 C   0  0  0  0  0  0  0  0  0  0  0  0
   48.9250   35.2530   40.7940 N   0  0  0  0  0  0  0  0  0  0  0  0
   47.9960   34.5280   40.1170 C   0  0  0  0  0  0  0  0  0  0  0  0
   47.9910   34.0680   38.8070 C   0  0  0  0  0  0  0  0  0  0  0  0
   46.9260   33.3470   38.3510 C   0  0  0  0  0  0  0  0  0  0  0  0
   45.8140   33.0340   39.1390 C   0  0  0  0  0  0  0  0  0  0  0  0
   45.8820   33.5220   40.4320 C   0  0  0  0  0  0  0  0  0  0  0  0
   46.9050   34.2380   40.9370 C   0  0  0  0  0  0  0  0  0  0  0  0
   45.9610   32.7650   46.3870 O   0  0  0  0  0  0  0  0  0  0  0  0
   45.5260   32.8520   47.7140 C   0  0  1  0  0  0  0  0  0  0  0  0
   44.9220   31.6170   48.2830 C   0  0  0  0  0  0  0  0  0  0  0  0
   46.3240   32.0660   48.7060 C   0  0  1  0  0  0  0  0  0  0  0  0
   47.4480   31.2220   48.1940 C   0  0  0  0  0  0  0  0  0  0  0  0
   47.7810   31.3230   46.9810 O   0  0  0  0  0  0  0  0  0  0  0  0
   48.1870   30.3170   48.8960 O   0  0  0  0  0  0  0  0  0  0  0  0
   49.5180   30.5610   49.2680 C   0  0  0  0  0  0  0  0  0  0  0  0
   49.8010   32.0340   49.4790 C   0  0  0  0  0  0  0  0  0  0  0  0
   50.5160   29.9950   48.2910 C   0  0  0  0  0  0  0  0  0  0  0  0
   49.7500   29.8610   50.5920 C   0  0  0  0  0  0  0  0  0  0  0  0
   47.3750   33.0352   44.1168 H   0  0  0  0  0  0  0  0  0  0  0  0
   43.8338   36.3739   44.8616 H   0  0  0  0  0  0  0  0  0  0  0  0
   48.9618   35.9791   42.8268 H   0  0  0  0  0  0  0  0  0  0  0  0
   49.8232   35.5988   40.4273 H   0  0  0  0  0  0  0  0  0  0  0  0
   48.8398   34.2833   38.1413 H   0  0  0  0  0  0  0  0  0  0  0  0
   46.9431   32.9936   37.3094 H   0  0  0  0  0  0  0  0  0  0  0  0
   44.9600   32.4509   38.7638 H   0  0  0  0  0  0  0  0  0  0  0  0
   45.0343   33.3085   41.0997 H   0  0  0  0  0  0  0  0  0  0  0  0
   45.2018   33.9007   47.6422 H   0  0  0  0  0  0  0  0  0  0  0  0
   44.0828   31.6887   48.9905 H   0  0  0  0  0  0  0  0  0  0  0  0
   44.4890   30.6955   47.8666 H   0  0  0  0  0  0  0  0  0  0  0  0
   46.8367   32.3101   49.6481 H   0  0  0  0  0  0  0  0  0  0  0  0
   49.8422   32.2487   50.5571 H   0  0  0  0  0  0  0  0  0  0  0  0
   50.7651   32.2921   49.0166 H   0  0  0  0  0  0  0  0  0  0  0  0
   49.0011   32.6310   49.0166 H   0  0  0  0  0  0  0  0  0  0  0  0
   51.3437   29.5256   48.8429 H   0  0  0  0  0  0  0  0  0  0  0  0
   50.0233   29.2419   47.6585 H   0  0  0  0  0  0  0  0  0  0  0  0
   50.9095   30.8044   47.6585 H   0  0  0  0  0  0  0  0  0  0  0  0
   49.5211   30.5517   51.4170 H   0  0  0  0  0  0  0  0  0  0  0  0
   49.0961   28.9791   50.6600 H   0  0  0  0  0  0  0  0  0  0  0  0
   50.8012   29.5442   50.6600 H   0  0  0  0  0  0  0  0  0  0  0  0
  1  6  1  0
  1 16  1  0
  2  1  2  0
  3  4  2  0
  3  2  1  0
  4  5  1  0
  5  6  2  0
  7  3  1  0
  8  7  2  0
  9  8  1  0
 10  9  1  0
 10 15  2  0
 11 10  1  0
 12 11  2  0
 12 13  1  0
 13 14  2  0
 14 15  1  0
 15  7  1  0
 16 17  1  0
 17 18  1  0
 17 19  1  0
 18 19  1  0
 20 19  1  0
 20 22  1  0
 21 20  2  0
 22 23  1  0
 23 24  1  0
 23 26  1  0
 25 23  1  0
  2 27  1  0
  5 28  1  0
  8 29  1  0
  9 30  1  0
 11 31  1  0
 12 32  1  0
 13 33  1  0
 14 34  1  0
 17 35  1  1
 18 36  1  0
 18 37  1  0
 19 38  1  1
 24 39  1  0
 24 40  1  0
 24 41  1  0
 25 42  1  0
 25 43  1  0
 25 44  1  0
 26 45  1  0
 26 46  1  0
 26 47  1  0
M  ISO  8  27  14  28  14  29  14  30   9  31  14  32  14  33  14  34  14
M  ISO  8  35  13  36  13  37  13  38  13  39   8  40   8  41   8  42   8
M  ISO  5  43   8  44   8  45   8  46   8  47   8
M  END
>  <minimizedAffinity>  (1) 
-6.56142426

>  <minimizedRMSD>  (1) 
0.588188946

$$$$
