
     RDKit          3D

 37 40  0  0  1  0  0  0  0  0999 V2000
   45.7650   33.8400   45.4880 C   0  0  0  0  0  0  0  0  0  0  0  0
   46.5640   33.8460   44.3420 C   0  0  0  0  0  0  0  0  0  0  0  0
   46.3400   34.8170   43.3700 C   0  0  0  0  0  0  0  0  0  0  0  0
   45.3530   35.7250   43.5700 N   0  0  0  0  0  0  0  0  0  0  0  0
   44.5900   35.7020   44.6860 C   0  0  0  0  0  0  0  0  0  0  0  0
   44.8010   34.7620   45.6360 N   0  0  0  0  0  0  0  0  0  0  0  0
   47.1790   34.8110   42.1840 C   0  0  0  0  0  0  0  0  0  0  0  0
   48.4440   35.3870   42.0530 C   0  0  0  0  0  0  0  0  0  0  0  0
   48.9130   35.1830   40.8170 N   0  0  0  0  0  0  0  0  0  0  0  0
   47.9710   34.4870   40.1540 C   0  0  0  0  0  0  0  0  0  0  0  0
   47.9490   34.0150   38.8430 C   0  0  0  0  0  0  0  0  0  0  0  0
   46.8600   33.3230   38.3950 C   0  0  0  0  0  0  0  0  0  0  0  0
   45.7390   33.0460   39.1800 C   0  0  0  0  0  0  0  0  0  0  0  0
   45.8240   33.5440   40.4770 C   0  0  0  0  0  0  0  0  0  0  0  0
   46.8680   34.2330   40.9730 C   0  0  0  0  0  0  0  0  0  0  0  0
   45.9380   32.9010   46.4860 O   0  0  0  0  0  0  0  0  0  0  0  0
   45.1170   32.7630   47.6110 C   0  0  1  0  0  0  0  0  0  0  0  0
   44.8410   31.3660   48.0460 C   0  0  0  0  0  0  0  0  0  0  0  0
   45.7990   32.2660   48.8440 C   0  0  1  0  0  0  0  0  0  0  0  0
   47.2470   31.8870   48.7390 C   0  0  0  0  0  0  0  0  0  0  0  0
   48.0500   32.7110   48.2210 O   0  0  0  0  0  0  0  0  0  0  0  0
   47.8260   30.7230   49.1410 O   0  0  0  0  0  0  0  0  0  0  0  0
   49.1520   30.7030   49.5390 C   0  0  0  0  0  0  0  0  0  0  0  0
   49.5480   30.0990   50.5700 O   0  0  0  0  0  0  0  0  0  0  0  0
   47.3573   33.0955   44.2099 H   0  0  0  0  0  0  0  0  0  0  0  0
   43.7950   36.4500   44.8220 H   0  0  0  0  0  0  0  0  0  0  0  0
   48.9764   35.9286   42.8487 H   0  0  0  0  0  0  0  0  0  0  0  0
   49.8202   35.4979   40.4445 H   0  0  0  0  0  0  0  0  0  0  0  0
   48.8025   34.1984   38.1738 H   0  0  0  0  0  0  0  0  0  0  0  0
   46.8665   32.9631   37.3556 H   0  0  0  0  0  0  0  0  0  0  0  0
   44.8687   32.4857   38.8077 H   0  0  0  0  0  0  0  0  0  0  0  0
   44.9721   33.3602   41.1482 H   0  0  0  0  0  0  0  0  0  0  0  0
   44.4821   33.6308   47.3789 H   0  0  0  0  0  0  0  0  0  0  0  0
   43.8575   31.1009   48.4613 H   0  0  0  0  0  0  0  0  0  0  0  0
   44.9074   30.3728   47.5780 H   0  0  0  0  0  0  0  0  0  0  0  0
   45.8826   32.6350   49.8769 H   0  0  0  0  0  0  0  0  0  0  0  0
   49.8925   31.2388   48.9269 H   0  0  0  0  0  0  0  0  0  0  0  0
  1  6  1  0
  1 16  1  0
  2  1  2  0
  3  4  2  0
  3  2  1  0
  4  5  1  0
  5  6  2  0
  7  3  1  0
  8  7  2  0
  9  8  1  0
 10  9  1  0
 10 15  2  0
 11 10  1  0
 12 11  2  0
 12 13  1  0
 13 14  2  0
 14 15  1  0
 15  7  1  0
 16 17  1  0
 17 18  1  0
 17 19  1  0
 18 19  1  0
 20 19  1  0
 20 22  1  0
 21 20  2  0
 22 23  1  0
 23 24  2  0
  2 25  1  0
  5 26  1  0
  8 27  1  0
  9 28  1  0
 11 29  1  0
 12 30  1  0
 13 31  1  0
 14 32  1  0
 17 33  1  1
 18 34  1  0
 18 35  1  0
 19 36  1  1
 23 37  1  0
M  ISO  8  25  14  26  14  27  14  28   9  29  14  30  14  31  14  32  14
M  ISO  5  33  13  34  13  35  13  36  13  37   6
M  END
>  <minimizedAffinity>  (1) 
-6.49995232

>  <minimizedRMSD>  (1) 
0.246359885

$$$$
