
     RDKit          3D

 42 46  0  0  1  0  0  0  0  0999 V2000
   45.7530   33.8420   45.4940 C   0  0  0  0  0  0  0  0  0  0  0  0
   46.5480   33.8450   44.3470 C   0  0  0  0  0  0  0  0  0  0  0  0
   46.3240   34.8220   43.3780 C   0  0  0  0  0  0  0  0  0  0  0  0
   45.3490   35.7300   43.5790 N   0  0  0  0  0  0  0  0  0  0  0  0
   44.5890   35.7120   44.6980 C   0  0  0  0  0  0  0  0  0  0  0  0
   44.7960   34.7700   45.6430 N   0  0  0  0  0  0  0  0  0  0  0  0
   47.1640   34.8100   42.1860 C   0  0  0  0  0  0  0  0  0  0  0  0
   48.4360   35.3870   42.0610 C   0  0  0  0  0  0  0  0  0  0  0  0
   48.9080   35.1800   40.8270 N   0  0  0  0  0  0  0  0  0  0  0  0
   47.9610   34.4800   40.1590 C   0  0  0  0  0  0  0  0  0  0  0  0
   47.9500   34.0120   38.8590 C   0  0  0  0  0  0  0  0  0  0  0  0
   46.8550   33.3130   38.4000 C   0  0  0  0  0  0  0  0  0  0  0  0
   45.7340   33.0450   39.1870 C   0  0  0  0  0  0  0  0  0  0  0  0
   45.8170   33.5460   40.4800 C   0  0  0  0  0  0  0  0  0  0  0  0
   46.8610   34.2340   40.9820 C   0  0  0  0  0  0  0  0  0  0  0  0
   45.9220   32.9000   46.4940 O   0  0  0  0  0  0  0  0  0  0  0  0
   45.0980   32.7660   47.6160 C   0  0  1  0  0  0  0  0  0  0  0  0
   44.8310   31.3750   48.0700 C   0  0  0  0  0  0  0  0  0  0  0  0
   45.7880   32.2890   48.8540 C   0  0  1  0  0  0  0  0  0  0  0  0
   47.2360   31.9080   48.7420 C   0  0  0  0  0  0  0  0  0  0  0  0
   48.0050   32.6470   48.0660 O   0  0  0  0  0  0  0  0  0  0  0  0
   47.8560   30.8270   49.2850 O   0  0  0  0  0  0  0  0  0  0  0  0
   49.2710   30.7140   49.2710 C   0  0  0  0  0  0  0  0  0  0  0  0
   49.8490   29.9350   50.4360 C   0  0  0  0  0  0  0  0  0  0  0  0
   50.0840   31.3950   50.3040 C   0  0  0  0  0  0  0  0  0  0  0  0
   47.3367   33.0905   44.2100 H   0  0  0  0  0  0  0  0  0  0  0  0
   43.8008   36.4663   44.8383 H   0  0  0  0  0  0  0  0  0  0  0  0
   48.9660   35.9286   42.8583 H   0  0  0  0  0  0  0  0  0  0  0  0
   49.8167   35.4928   40.4563 H   0  0  0  0  0  0  0  0  0  0  0  0
   48.8083   34.1959   38.1961 H   0  0  0  0  0  0  0  0  0  0  0  0
   46.8648   32.9482   37.3623 H   0  0  0  0  0  0  0  0  0  0  0  0
   44.8619   32.4865   38.8162 H   0  0  0  0  0  0  0  0  0  0  0  0
   44.9615   33.3666   41.1478 H   0  0  0  0  0  0  0  0  0  0  0  0
   44.4534   33.6231   47.3712 H   0  0  0  0  0  0  0  0  0  0  0  0
   43.8502   31.1106   48.4921 H   0  0  0  0  0  0  0  0  0  0  0  0
   44.9007   30.3763   47.6143 H   0  0  0  0  0  0  0  0  0  0  0  0
   45.8747   32.6737   49.8809 H   0  0  0  0  0  0  0  0  0  0  0  0
   49.3204   30.6949   48.1723 H   0  0  0  0  0  0  0  0  0  0  0  0
   49.1873   29.5512   51.2265 H   0  0  0  0  0  0  0  0  0  0  0  0
   50.4875   29.0457   50.5435 H   0  0  0  0  0  0  0  0  0  0  0  0
   51.0885   31.7655   50.0514 H   0  0  0  0  0  0  0  0  0  0  0  0
   49.9228   32.2623   50.9611 H   0  0  0  0  0  0  0  0  0  0  0  0
  1  6  1  0
  1 16  1  0
  2  1  2  0
  3  4  2  0
  3  2  1  0
  4  5  1  0
  5  6  2  0
  7  3  1  0
  8  7  2  0
  9  8  1  0
 10  9  1  0
 10 15  2  0
 11 10  1  0
 12 11  2  0
 12 13  1  0
 13 14  2  0
 14 15  1  0
 15  7  1  0
 16 17  1  0
 17 18  1  0
 17 19  1  0
 18 19  1  0
 20 19  1  0
 20 22  1  0
 21 20  2  0
 23 22  1  0
 23 25  1  0
 23 24  1  0
 25 24  1  0
  2 26  1  0
  5 27  1  0
  8 28  1  0
  9 29  1  0
 11 30  1  0
 12 31  1  0
 13 32  1  0
 14 33  1  0
 17 34  1  1
 18 35  1  0
 18 36  1  0
 19 37  1  1
 23 38  1  0
 24 39  1  0
 24 40  1  0
 25 41  1  0
 25 42  1  0
M  ISO  8  26  14  27  14  28  14  29   9  30  14  31  14  32  14  33  14
M  ISO  8  34  13  35  13  36  13  37  13  38  13  39  13  40  13  41  13
M  ISO  1  42  13
M  END
>  <minimizedAffinity>  (1) 
-6.76907253

>  <minimizedRMSD>  (1) 
0.354291469

$$$$
