
     RDKit          3D

 19 20  0  0  0  0  0  0  0  0999 V2000
   44.4740   35.8900   44.7090 C   0  0  0  0  0  0  0  0  0  0  0  0
   45.0700   35.7460   43.4440 C   0  0  0  0  0  0  0  0  0  0  0  0
   45.9650   34.6930   43.2500 C   0  0  0  0  0  0  0  0  0  0  0  0
   46.2200   33.8420   44.3120 N   0  0  0  0  0  0  0  0  0  0  0  0
   45.6180   34.0320   45.4990 C   0  0  0  0  0  0  0  0  0  0  0  0
   44.7590   35.0310   45.7110 N   0  0  0  0  0  0  0  0  0  0  0  0
   45.8880   33.1490   46.5910 N   0  0  0  0  0  0  0  0  0  0  0  0
   47.0640   32.5300   46.7930 C   0  0  0  0  0  0  0  0  0  0  0  0
   46.9840   31.7720   47.9060 N   0  0  0  0  0  0  0  0  0  0  0  0
   45.7510   31.9160   48.4050 C   0  0  0  0  0  0  0  0  0  0  0  0
   45.1030   32.7540   47.5930 N   0  0  0  0  0  0  0  0  0  0  0  0
   45.1080   31.3230   49.6050 C   0  0  0  0  0  0  0  0  0  0  0  0
   43.7661   36.7134   44.8849 H   0  0  0  0  0  0  0  0  0  0  0  0
   44.8368   36.4456   42.6278 H   0  0  0  0  0  0  0  0  0  0  0  0
   46.4559   34.5427   42.2771 H   0  0  0  0  0  0  0  0  0  0  0  0
   47.9523   32.6264   46.1514 H   0  0  0  0  0  0  0  0  0  0  0  0
   45.5653   31.7448   50.5122 H   0  0  0  0  0  0  0  0  0  0  0  0
   44.0323   31.5527   49.5959 H   0  0  0  0  0  0  0  0  0  0  0  0
   45.2501   30.2323   49.5959 H   0  0  0  0  0  0  0  0  0  0  0  0
  1  6  2  0
  2  1  1  0
  3  2  2  0
  3  4  1  0
  4  5  2  0
  5  6  1  0
  5  7  1  0
  7  8  1  0
  7 11  1  0
  8  9  2  0
  9 10  1  0
 10 12  1  0
 11 10  2  0
  1 13  1  0
  2 14  1  0
  3 15  1  0
  8 16  1  0
 12 17  1  0
 12 18  1  0
 12 19  1  0
M  ISO  7  13  14  14  14  15  14  16  14  17   8  18   8  19   8
M  END
>  <minimizedAffinity>  (1) 
-4.80306673

>  <minimizedRMSD>  (1) 
0.252087653

$$$$
