
     RDKit          3D

 17 18  0  0  0  0  0  0  0  0999 V2000
   44.5070   35.7310   44.6940 C   0  0  0  0  0  0  0  0  0  0  0  0
   45.1360   35.4730   43.4640 C   0  0  0  0  0  0  0  0  0  0  0  0
   46.0430   34.4090   43.3580 C   0  0  0  0  0  0  0  0  0  0  0  0
   46.2750   33.6590   44.4910 N   0  0  0  0  0  0  0  0  0  0  0  0
   45.6480   33.9430   45.6570 C   0  0  0  0  0  0  0  0  0  0  0  0
   44.7910   34.9490   45.7510 N   0  0  0  0  0  0  0  0  0  0  0  0
   45.8960   33.1560   46.8180 N   0  0  0  0  0  0  0  0  0  0  0  0
   47.0420   32.5030   47.0820 C   0  0  0  0  0  0  0  0  0  0  0  0
   46.9620   31.8570   48.2470 N   0  0  0  0  0  0  0  0  0  0  0  0
   45.7270   32.1080   48.7360 C   0  0  0  0  0  0  0  0  0  0  0  0
   45.0920   32.9060   47.8460 N   0  0  0  0  0  0  0  0  0  0  0  0
   45.1300   31.6840   49.9060 O   0  0  0  0  0  0  0  0  0  0  0  0
   43.7920   36.5613   44.7911 H   0  0  0  0  0  0  0  0  0  0  0  0
   44.9179   36.1026   42.5888 H   0  0  0  0  0  0  0  0  0  0  0  0
   46.5494   34.1818   42.4083 H   0  0  0  0  0  0  0  0  0  0  0  0
   47.9253   32.5017   46.4265 H   0  0  0  0  0  0  0  0  0  0  0  0
   44.2040   31.9624   50.1183 H   0  0  0  0  0  0  0  0  0  0  0  0
  1  6  2  0
  2  1  1  0
  3  2  2  0
  3  4  1  0
  4  5  2  0
  5  6  1  0
  5  7  1  0
  7  8  1  0
  7 11  1  0
  8  9  2  0
  9 10  1  0
 10 12  1  0
 11 10  2  0
  1 13  1  0
  2 14  1  0
  3 15  1  0
  8 16  1  0
 12 17  1  0
M  ISO  5  13  14  14  14  15  14  16  14  17   3
M  END
>  <minimizedAffinity>  (1) 
-5.04073381

>  <minimizedRMSD>  (1) 
0.111958511

$$$$
