
     RDKit          3D

 25 26  0  0  0  0  0  0  0  0999 V2000
   44.5120   36.0190   44.7190 C   0  0  0  0  0  0  0  0  0  0  0  0
   44.8940   36.0970   43.3490 C   0  0  0  0  0  0  0  0  0  0  0  0
   45.6810   35.0810   42.8280 C   0  0  0  0  0  0  0  0  0  0  0  0
   46.0440   34.0620   43.6600 N   0  0  0  0  0  0  0  0  0  0  0  0
   45.6640   34.0200   44.9510 C   0  0  0  0  0  0  0  0  0  0  0  0
   44.9030   34.9800   45.5020 N   0  0  0  0  0  0  0  0  0  0  0  0
   46.0510   32.9500   45.8080 N   0  0  0  0  0  0  0  0  0  0  0  0
   47.2070   32.2570   45.6620 C   0  0  0  0  0  0  0  0  0  0  0  0
   47.2960   31.3090   46.6160 N   0  0  0  0  0  0  0  0  0  0  0  0
   46.1740   31.4150   47.3700 C   0  0  0  0  0  0  0  0  0  0  0  0
   45.4460   32.4080   46.8600 N   0  0  0  0  0  0  0  0  0  0  0  0
   45.8670   30.5590   48.5320 C   0  0  0  0  0  0  0  0  0  0  0  0
   45.0850   31.3080   49.5970 C   0  0  0  0  0  0  0  0  0  0  0  0
   45.0770   29.3210   48.1800 C   0  0  0  0  0  0  0  0  0  0  0  0
   43.8884   36.8154   45.1513 H   0  0  0  0  0  0  0  0  0  0  0  0
   44.5731   36.9410   42.7208 H   0  0  0  0  0  0  0  0  0  0  0  0
   46.0028   35.0960   41.7762 H   0  0  0  0  0  0  0  0  0  0  0  0
   47.9600   32.4409   44.8815 H   0  0  0  0  0  0  0  0  0  0  0  0
   46.8543   30.2574   48.9119 H   0  0  0  0  0  0  0  0  0  0  0  0
   45.4214   30.9858   50.5935 H   0  0  0  0  0  0  0  0  0  0  0  0
   45.2549   32.3890   49.4844 H   0  0  0  0  0  0  0  0  0  0  0  0
   44.0124   31.0917   49.4844 H   0  0  0  0  0  0  0  0  0  0  0  0
   44.7552   28.8166   49.1031 H   0  0  0  0  0  0  0  0  0  0  0  0
   44.1931   29.6054   47.5903 H   0  0  0  0  0  0  0  0  0  0  0  0
   45.7073   28.6392   47.5903 H   0  0  0  0  0  0  0  0  0  0  0  0
  1  6  2  0
  2  1  1  0
  3  2  2  0
  3  4  1  0
  4  5  2  0
  5  6  1  0
  5  7  1  0
  7 11  1  0
  8  7  1  0
  8  9  2  0
  9 10  1  0
 10 12  1  0
 11 10  2  0
 12 13  1  0
 14 12  1  0
  1 15  1  0
  2 16  1  0
  3 17  1  0
  8 18  1  0
 12 19  1  0
 13 20  1  0
 13 21  1  0
 13 22  1  0
 14 23  1  0
 14 24  1  0
 14 25  1  0
M  ISO  8  15  14  16  14  17  14  18  14  19   8  20   8  21   8  22   8
M  ISO  3  23   8  24   8  25   8
M  END
>  <minimizedAffinity>  (1) 
-4.6899581

>  <minimizedRMSD>  (1) 
1.26331234

$$$$
