
     RDKit          3D

 22 24  0  0  0  0  0  0  0  0999 V2000
   44.5940   35.7230   44.9170 C   0  0  0  0  0  0  0  0  0  0  0  0
   44.9600   36.3010   43.6680 C   0  0  0  0  0  0  0  0  0  0  0  0
   45.7950   35.5730   42.8040 C   0  0  0  0  0  0  0  0  0  0  0  0
   46.2190   34.3270   43.2180 N   0  0  0  0  0  0  0  0  0  0  0  0
   45.8500   33.8270   44.3980 C   0  0  0  0  0  0  0  0  0  0  0  0
   45.0510   34.4960   45.2500 N   0  0  0  0  0  0  0  0  0  0  0  0
   46.2870   32.5400   44.8250 N   0  0  0  0  0  0  0  0  0  0  0  0
   47.4670   31.9770   44.4370 C   0  0  0  0  0  0  0  0  0  0  0  0
   47.6030   30.7690   44.9970 N   0  0  0  0  0  0  0  0  0  0  0  0
   46.5100   30.5550   45.7470 C   0  0  0  0  0  0  0  0  0  0  0  0
   45.7210   31.6490   45.6270 N   0  0  0  0  0  0  0  0  0  0  0  0
   46.0950   29.4550   46.5710 N   0  0  0  0  0  0  0  0  0  0  0  0
   46.8240   28.3470   46.6660 C   0  0  0  0  0  0  0  0  0  0  0  0
   46.1860   27.5030   47.5040 N   0  0  0  0  0  0  0  0  0  0  0  0
   45.0700   28.0930   47.9200 C   0  0  0  0  0  0  0  0  0  0  0  0
   45.0180   29.3210   47.3290 N   0  0  0  0  0  0  0  0  0  0  0  0
   43.9406   36.2744   45.6091 H   0  0  0  0  0  0  0  0  0  0  0  0
   44.5955   37.2995   43.3848 H   0  0  0  0  0  0  0  0  0  0  0  0
   46.1006   35.9827   41.8299 H   0  0  0  0  0  0  0  0  0  0  0  0
   48.1989   32.4464   43.7633 H   0  0  0  0  0  0  0  0  0  0  0  0
   47.7774   28.1528   46.1529 H   0  0  0  0  0  0  0  0  0  0  0  0
   44.3269   27.6698   48.6119 H   0  0  0  0  0  0  0  0  0  0  0  0
  1  6  2  0
  2  1  1  0
  3  4  1  0
  3  2  2  0
  4  5  2  0
  5  7  1  0
  5  6  1  0
  7 11  1  0
  8  7  1  0
  8  9  2  0
  9 10  1  0
 10 12  1  0
 11 10  2  0
 12 13  1  0
 12 16  1  0
 13 14  2  0
 14 15  1  0
 16 15  2  0
  1 17  1  0
  2 18  1  0
  3 19  1  0
  8 20  1  0
 13 21  1  0
 15 22  1  0
M  ISO  6  17  14  18  14  19  14  20  14  21  14  22  14
M  END
>  <minimizedAffinity>  (1) 
-4.24066353

>  <minimizedRMSD>  (1) 
3.13867545

$$$$
