
     RDKit          3D

 23 25  0  0  0  0  0  0  0  0999 V2000
   44.6090   35.7350   44.9890 C   0  0  0  0  0  0  0  0  0  0  0  0
   44.8790   36.3710   43.7660 C   0  0  0  0  0  0  0  0  0  0  0  0
   45.6560   35.6880   42.8410 C   0  0  0  0  0  0  0  0  0  0  0  0
   46.1230   34.4310   43.1570 N   0  0  0  0  0  0  0  0  0  0  0  0
   45.8290   33.8720   44.3500 C   0  0  0  0  0  0  0  0  0  0  0  0
   45.0820   34.4930   45.2790 N   0  0  0  0  0  0  0  0  0  0  0  0
   46.3050   32.5670   44.6980 N   0  0  0  0  0  0  0  0  0  0  0  0
   47.4830   32.0630   44.2290 C   0  0  0  0  0  0  0  0  0  0  0  0
   47.6470   30.8220   44.7380 N   0  0  0  0  0  0  0  0  0  0  0  0
   46.5830   30.5600   45.5120 C   0  0  0  0  0  0  0  0  0  0  0  0
   45.7910   31.6320   45.4680 N   0  0  0  0  0  0  0  0  0  0  0  0
   46.0900   29.5030   46.3280 N   0  0  0  0  0  0  0  0  0  0  0  0
   46.8980   28.5970   46.8680 N   0  0  0  0  0  0  0  0  0  0  0  0
   46.2330   27.7010   47.5920 C   0  0  0  0  0  0  0  0  0  0  0  0
   44.9060   28.0900   47.4890 C   0  0  0  0  0  0  0  0  0  0  0  0
   44.8240   29.2160   46.6990 C   0  0  0  0  0  0  0  0  0  0  0  0
   43.9950   36.2584   45.7367 H   0  0  0  0  0  0  0  0  0  0  0  0
   44.4880   37.3760   43.5489 H   0  0  0  0  0  0  0  0  0  0  0  0
   45.8957   36.1439   41.8690 H   0  0  0  0  0  0  0  0  0  0  0  0
   48.1801   32.5788   43.5522 H   0  0  0  0  0  0  0  0  0  0  0  0
   46.6432   26.8446   48.1472 H   0  0  0  0  0  0  0  0  0  0  0  0
   44.0540   27.5805   47.9628 H   0  0  0  0  0  0  0  0  0  0  0  0
   43.9128   29.7685   46.4262 H   0  0  0  0  0  0  0  0  0  0  0  0
  1  6  2  0
  2  1  1  0
  3  4  1  0
  3  2  2  0
  4  5  2  0
  5  7  1  0
  5  6  1  0
  7 11  1  0
  8  7  1  0
  8  9  2  0
  9 10  1  0
 10 12  1  0
 11 10  2  0
 12 16  1  0
 12 13  1  0
 13 14  2  0
 15 14  1  0
 16 15  2  0
  1 17  1  0
  2 18  1  0
  3 19  1  0
  8 20  1  0
 14 21  1  0
 15 22  1  0
 16 23  1  0
M  ISO  7  17  14  18  14  19  14  20  14  21  14  22  14  23  14
M  END
>  <minimizedAffinity>  (1) 
-4.29960251

>  <minimizedRMSD>  (1) 
3.28710914

$$$$
