
     RDKit          3D

 35 39  0  0  0  0  0  0  0  0999 V2000
   46.2390   28.9730   45.5480 C   0  0  0  0  0  0  0  0  0  0  0  0
   46.1070   27.8000   44.9380 N   0  0  0  0  0  0  0  0  0  0  0  0
   45.8900   26.8790   45.8070 O   0  0  0  0  0  0  0  0  0  0  0  0
   45.8600   27.3560   47.0240 C   0  0  0  0  0  0  0  0  0  0  0  0
   46.0820   28.6690   46.8290 N   0  0  0  0  0  0  0  0  0  0  0  0
   44.6070   35.5290   45.0680 C   0  0  0  0  0  0  0  0  0  0  0  0
   44.9330   36.3020   43.9480 C   0  0  0  0  0  0  0  0  0  0  0  0
   45.7330   35.7230   42.9860 C   0  0  0  0  0  0  0  0  0  0  0  0
   46.1680   34.4290   43.1700 N   0  0  0  0  0  0  0  0  0  0  0  0
   45.8220   33.7270   44.2710 C   0  0  0  0  0  0  0  0  0  0  0  0
   45.0560   34.2700   45.2020 N   0  0  0  0  0  0  0  0  0  0  0  0
   46.2730   32.3950   44.4520 N   0  0  0  0  0  0  0  0  0  0  0  0
   47.4670   31.9200   43.9700 C   0  0  0  0  0  0  0  0  0  0  0  0
   47.5990   30.6270   44.3080 N   0  0  0  0  0  0  0  0  0  0  0  0
   46.4910   30.2950   44.9990 C   0  0  0  0  0  0  0  0  0  0  0  0
   45.6990   31.3750   45.0790 N   0  0  0  0  0  0  0  0  0  0  0  0
   45.6290   26.5100   48.1790 C   0  0  0  0  0  0  0  0  0  0  0  0
   44.5260   26.6840   48.9220 N   0  0  0  0  0  0  0  0  0  0  0  0
   44.2500   25.9370   50.0030 C   0  0  0  0  0  0  0  0  0  0  0  0
   45.0770   24.9380   50.4280 N   0  0  0  0  0  0  0  0  0  0  0  0
   46.2080   24.7110   49.7220 C   0  0  0  0  0  0  0  0  0  0  0  0
   47.0770   23.7130   50.1100 C   0  0  0  0  0  0  0  0  0  0  0  0
   48.2390   23.4530   49.4140 C   0  0  0  0  0  0  0  0  0  0  0  0
   48.4920   24.2520   48.2940 C   0  0  0  0  0  0  0  0  0  0  0  0
   47.5960   25.2370   47.9430 C   0  0  0  0  0  0  0  0  0  0  0  0
   46.4470   25.5040   48.6200 C   0  0  0  0  0  0  0  0  0  0  0  0
   43.9704   35.9609   45.8543 H   0  0  0  0  0  0  0  0  0  0  0  0
   44.5648   37.3328   43.8392 H   0  0  0  0  0  0  0  0  0  0  0  0
   46.0195   36.2857   42.0853 H   0  0  0  0  0  0  0  0  0  0  0  0
   48.2005   32.5062   43.3970 H   0  0  0  0  0  0  0  0  0  0  0  0
   43.3259   26.1370   50.5652 H   0  0  0  0  0  0  0  0  0  0  0  0
   46.8373   23.1088   50.9974 H   0  0  0  0  0  0  0  0  0  0  0  0
   48.9321   22.6571   49.7241 H   0  0  0  0  0  0  0  0  0  0  0  0
   49.4021   24.0943   47.6967 H   0  0  0  0  0  0  0  0  0  0  0  0
   47.8245   25.8478   47.0572 H   0  0  0  0  0  0  0  0  0  0  0  0
  1  5  1  0
  2  1  2  0
  2  3  1  0
  3  4  1  0
  4 17  1  0
  5  4  2  0
  6 11  2  0
  7  6  1  0
  8  9  1  0
  8  7  2  0
  9 10  2  0
 10 12  1  0
 10 11  1  0
 12 16  1  0
 13 14  2  0
 13 12  1  0
 14 15  1  0
 15 16  2  0
 15  1  1  0
 17 26  1  0
 17 18  2  0
 18 19  1  0
 19 20  2  0
 21 22  2  0
 21 20  1  0
 23 22  1  0
 24 23  2  0
 25 24  1  0
 25 26  2  0
 26 21  1  0
  6 27  1  0
  7 28  1  0
  8 29  1  0
 13 30  1  0
 19 31  1  0
 22 32  1  0
 23 33  1  0
 24 34  1  0
 25 35  1  0
M  ISO  8  27  14  28  14  29  14  30  14  31  14  32  14  33  14  34  14
M  ISO  1  35  14
M  END
>  <minimizedAffinity>  (1) 
-5.13699913

>  <minimizedRMSD>  (1) 
2.84948254

$$$$
