
     RDKit          3D

 34 37  0  0  0  0  0  0  0  0999 V2000
   44.6660   35.3110   45.4650 C   0  0  0  0  0  0  0  0  0  0  0  0
   44.5890   36.1780   44.3740 C   0  0  0  0  0  0  0  0  0  0  0  0
   45.2790   35.8270   43.2260 C   0  0  0  0  0  0  0  0  0  0  0  0
   46.0030   34.6540   43.2110 N   0  0  0  0  0  0  0  0  0  0  0  0
   46.0420   33.8540   44.2940 C   0  0  0  0  0  0  0  0  0  0  0  0
   45.3860   34.1600   45.4220 N   0  0  0  0  0  0  0  0  0  0  0  0
   46.7900   32.6490   44.2670 N   0  0  0  0  0  0  0  0  0  0  0  0
   47.8890   32.4400   43.4980 C   0  0  0  0  0  0  0  0  0  0  0  0
   48.3610   31.2050   43.7010 N   0  0  0  0  0  0  0  0  0  0  0  0
   47.5560   30.6220   44.6100 C   0  0  0  0  0  0  0  0  0  0  0  0
   46.6250   31.5150   44.9260 N   0  0  0  0  0  0  0  0  0  0  0  0
   47.7050   29.2710   45.1230 C   0  0  0  0  0  0  0  0  0  0  0  0
   48.4780   28.2820   44.6540 N   0  0  0  0  0  0  0  0  0  0  0  0
   48.3240   27.2320   45.3980 O   0  0  0  0  0  0  0  0  0  0  0  0
   47.4720   27.4610   46.3620 C   0  0  0  0  0  0  0  0  0  0  0  0
   47.0840   28.7490   46.1840 N   0  0  0  0  0  0  0  0  0  0  0  0
   46.9500   26.6810   47.4310 N   0  0  0  0  0  0  0  0  0  0  0  0
   45.6250   26.6350   47.6600 C   0  0  0  0  0  0  0  0  0  0  0  0
   45.0600   25.8880   48.6910 C   0  0  0  0  0  0  0  0  0  0  0  0
   43.6000   25.8660   48.9070 C   0  0  0  0  0  0  0  0  0  0  0  0
   45.9060   25.1760   49.4980 C   0  0  0  0  0  0  0  0  0  0  0  0
   45.4510   24.4840   50.4460 O   0  0  0  0  0  0  0  0  0  0  0  0
   47.2410   25.2390   49.2460 N   0  0  0  0  0  0  0  0  0  0  0  0
   47.7520   25.9790   48.2280 C   0  0  0  0  0  0  0  0  0  0  0  0
   48.9880   26.0360   47.9980 O   0  0  0  0  0  0  0  0  0  0  0  0
   44.1267   35.5678   46.3887 H   0  0  0  0  0  0  0  0  0  0  0  0
   44.0014   37.1066   44.4243 H   0  0  0  0  0  0  0  0  0  0  0  0
   45.2498   36.4754   42.3379 H   0  0  0  0  0  0  0  0  0  0  0  0
   48.3269   33.1776   42.8094 H   0  0  0  0  0  0  0  0  0  0  0  0
   44.9580   27.2132   47.0036 H   0  0  0  0  0  0  0  0  0  0  0  0
   43.3891   25.8628   49.9866 H   0  0  0  0  0  0  0  0  0  0  0  0
   43.1479   26.7574   48.4477 H   0  0  0  0  0  0  0  0  0  0  0  0
   43.1750   24.9613   48.4477 H   0  0  0  0  0  0  0  0  0  0  0  0
   47.8865   24.7075   49.8475 H   0  0  0  0  0  0  0  0  0  0  0  0
  2  1  2  0
  3  2  1  0
  4  3  2  0
  4  5  1  0
  5  6  2  0
  6  1  1  0
  7  5  1  0
  7 11  1  0
  8  9  2  0
  8  7  1  0
  9 10  1  0
 10 11  2  0
 10 12  1  0
 12 16  1  0
 13 12  2  0
 13 14  1  0
 14 15  1  0
 15 17  1  0
 16 15  2  0
 17 18  1  0
 17 24  1  0
 18 19  2  0
 19 20  1  0
 19 21  1  0
 21 22  2  0
 23 21  1  0
 24 23  1  0
 25 24  2  0
  1 26  1  0
  2 27  1  0
  3 28  1  0
  8 29  1  0
 18 30  1  0
 20 31  1  0
 20 32  1  0
 20 33  1  0
 23 34  1  0
M  ISO  8  26  14  27  14  28  14  29  14  30  14  31   8  32   8  33   8
M  ISO  1  34   9
M  END
>  <minimizedAffinity>  (1) 
-5.46196413

>  <minimizedRMSD>  (1) 
2.79516149

$$$$
