
     RDKit          3D

 35 39  0  0  0  0  0  0  0  0999 V2000
   44.5720   35.8880   44.8610 C   0  0  0  0  0  0  0  0  0  0  0  0
   44.8590   36.5080   43.6390 C   0  0  0  0  0  0  0  0  0  0  0  0
   45.6790   35.8410   42.7380 C   0  0  0  0  0  0  0  0  0  0  0  0
   46.1400   34.6170   43.1280 N   0  0  0  0  0  0  0  0  0  0  0  0
   45.8600   34.0380   44.2920 C   0  0  0  0  0  0  0  0  0  0  0  0
   45.0800   34.6690   45.1560 N   0  0  0  0  0  0  0  0  0  0  0  0
   46.3700   32.7670   44.6400 N   0  0  0  0  0  0  0  0  0  0  0  0
   47.5570   32.2730   44.1780 C   0  0  0  0  0  0  0  0  0  0  0  0
   47.7650   31.0400   44.6880 N   0  0  0  0  0  0  0  0  0  0  0  0
   46.7060   30.7720   45.4640 C   0  0  0  0  0  0  0  0  0  0  0  0
   45.8800   31.8260   45.4200 N   0  0  0  0  0  0  0  0  0  0  0  0
   46.5120   29.5400   46.2170 C   0  0  0  0  0  0  0  0  0  0  0  0
   47.4320   28.7970   46.8360 N   0  0  0  0  0  0  0  0  0  0  0  0
   46.8600   27.7790   47.3910 O   0  0  0  0  0  0  0  0  0  0  0  0
   45.5690   27.7870   47.1790 C   0  0  0  0  0  0  0  0  0  0  0  0
   45.3590   28.9060   46.4340 N   0  0  0  0  0  0  0  0  0  0  0  0
   44.4810   26.8940   47.5710 C   0  0  0  0  0  0  0  0  0  0  0  0
   44.3550   26.0750   48.6900 C   0  0  0  0  0  0  0  0  0  0  0  0
   43.1740   25.4460   48.6060 N   0  0  0  0  0  0  0  0  0  0  0  0
   42.5190   25.8070   47.4970 C   0  0  0  0  0  0  0  0  0  0  0  0
   41.2730   25.4010   47.0230 C   0  0  0  0  0  0  0  0  0  0  0  0
   40.8750   25.9720   45.8220 C   0  0  0  0  0  0  0  0  0  0  0  0
   41.6190   26.8850   45.1010 C   0  0  0  0  0  0  0  0  0  0  0  0
   42.8430   27.2480   45.6200 C   0  0  0  0  0  0  0  0  0  0  0  0
   43.3160   26.7250   46.8130 C   0  0  0  0  0  0  0  0  0  0  0  0
   43.9256   36.3981   45.5903 H   0  0  0  0  0  0  0  0  0  0  0  0
   44.4455   37.4985   43.3985 H   0  0  0  0  0  0  0  0  0  0  0  0
   45.9427   36.2758   41.7626 H   0  0  0  0  0  0  0  0  0  0  0  0
   48.2395   32.7995   43.4946 H   0  0  0  0  0  0  0  0  0  0  0  0
   45.0926   25.9639   49.4984 H   0  0  0  0  0  0  0  0  0  0  0  0
   42.8188   24.7749   49.3020 H   0  0  0  0  0  0  0  0  0  0  0  0
   40.6468   24.6765   47.5643 H   0  0  0  0  0  0  0  0  0  0  0  0
   39.8967   25.6760   45.4154 H   0  0  0  0  0  0  0  0  0  0  0  0
   41.2505   27.3045   44.1532 H   0  0  0  0  0  0  0  0  0  0  0  0
   43.4620   27.9734   45.0718 H   0  0  0  0  0  0  0  0  0  0  0  0
  1  6  2  0
  2  1  1  0
  3  4  1  0
  3  2  2  0
  4  5  2  0
  5  7  1  0
  5  6  1  0
  7 11  1  0
  8  7  1  0
  8  9  2  0
  9 10  1  0
 10 12  1  0
 11 10  2  0
 12 16  1  0
 12 13  2  0
 13 14  1  0
 15 14  1  0
 15 17  1  0
 16 15  2  0
 17 18  2  0
 19 18  1  0
 20 19  1  0
 21 20  2  0
 22 21  1  0
 23 24  1  0
 23 22  2  0
 24 25  2  0
 25 20  1  0
 25 17  1  0
  1 26  1  0
  2 27  1  0
  3 28  1  0
  8 29  1  0
 18 30  1  0
 19 31  1  0
 21 32  1  0
 22 33  1  0
 23 34  1  0
 24 35  1  0
M  ISO  8  26  14  27  14  28  14  29  14  30  14  31   9  32  14  33  14
M  ISO  2  34  14  35  14
M  END
>  <minimizedAffinity>  (1) 
-5.88879728

>  <minimizedRMSD>  (1) 
1.43227565

$$$$
