
     RDKit          3D

 28 31  0  0  0  0  0  0  0  0999 V2000
   44.5840   35.8150   44.9420 C   0  0  0  0  0  0  0  0  0  0  0  0
   44.8110   36.4300   43.6880 C   0  0  0  0  0  0  0  0  0  0  0  0
   45.5880   35.7690   42.7630 C   0  0  0  0  0  0  0  0  0  0  0  0
   46.0890   34.5500   43.1310 N   0  0  0  0  0  0  0  0  0  0  0  0
   45.8650   33.9870   44.3130 C   0  0  0  0  0  0  0  0  0  0  0  0
   45.1130   34.5970   45.2440 N   0  0  0  0  0  0  0  0  0  0  0  0
   46.4020   32.7270   44.6540 N   0  0  0  0  0  0  0  0  0  0  0  0
   47.5360   32.2120   44.1220 C   0  0  0  0  0  0  0  0  0  0  0  0
   47.8040   31.0060   44.6310 N   0  0  0  0  0  0  0  0  0  0  0  0
   46.8190   30.7430   45.5060 C   0  0  0  0  0  0  0  0  0  0  0  0
   46.0130   31.7930   45.4850 N   0  0  0  0  0  0  0  0  0  0  0  0
   46.6970   29.5290   46.3040 C   0  0  0  0  0  0  0  0  0  0  0  0
   47.6770   28.7880   46.8340 N   0  0  0  0  0  0  0  0  0  0  0  0
   47.1540   27.7920   47.4740 O   0  0  0  0  0  0  0  0  0  0  0  0
   45.8360   27.8250   47.4010 C   0  0  0  0  0  0  0  0  0  0  0  0
   45.5430   28.9210   46.6630 N   0  0  0  0  0  0  0  0  0  0  0  0
   44.8250   26.9740   47.9270 N   0  0  0  0  0  0  0  0  0  0  0  0
   44.5120   26.5420   49.1390 N   0  0  0  0  0  0  0  0  0  0  0  0
   43.4260   25.7310   49.0630 C   0  0  0  0  0  0  0  0  0  0  0  0
   43.0420   25.6510   47.7400 C   0  0  0  0  0  0  0  0  0  0  0  0
   43.9500   26.4520   47.0440 C   0  0  0  0  0  0  0  0  0  0  0  0
   43.9659   36.3328   45.6903 H   0  0  0  0  0  0  0  0  0  0  0  0
   44.3766   37.4139   43.4573 H   0  0  0  0  0  0  0  0  0  0  0  0
   45.7965   36.2013   41.7732 H   0  0  0  0  0  0  0  0  0  0  0  0
   48.1558   32.7204   43.3688 H   0  0  0  0  0  0  0  0  0  0  0  0
   42.9372   25.2255   49.9089 H   0  0  0  0  0  0  0  0  0  0  0  0
   42.2005   25.0786   47.3227 H   0  0  0  0  0  0  0  0  0  0  0  0
   43.9511   26.6275   45.9581 H   0  0  0  0  0  0  0  0  0  0  0  0
  1  6  2  0
  2  1  1  0
  3  4  1  0
  3  2  2  0
  4  5  2  0
  5  7  1  0
  5  6  1  0
  7 11  1  0
  8  9  2  0
  8  7  1  0
  9 10  1  0
 10 12  1  0
 11 10  2  0
 12 16  1  0
 12 13  2  0
 13 14  1  0
 15 14  1  0
 15 17  1  0
 16 15  2  0
 17 18  1  0
 19 18  2  0
 20 19  1  0
 21 20  2  0
 21 17  1  0
  1 22  1  0
  2 23  1  0
  3 24  1  0
  8 25  1  0
 19 26  1  0
 20 27  1  0
 21 28  1  0
M  ISO  7  22  14  23  14  24  14  25  14  26  14  27  14  28  14
M  END
>  <minimizedAffinity>  (1) 
-4.87431622

>  <minimizedRMSD>  (1) 
0.935625076

$$$$
