
     RDKit          3D

 40 42  0  0  0  0  0  0  0  0999 V2000
   47.8240   34.8530   41.6230 C   0  0  0  0  0  0  0  0  0  0  0  0
   47.4690   34.3300   40.2870 C   0  0  0  0  0  0  0  0  0  0  0  0
   48.2780   34.4640   39.1810 C   0  0  0  0  0  0  0  0  0  0  0  0
   48.0060   33.9940   37.9090 C   0  0  0  0  0  0  0  0  0  0  0  0
   46.8060   33.3350   37.7810 N   0  0  0  0  0  0  0  0  0  0  0  0
   45.9980   33.1960   38.8700 C   0  0  0  0  0  0  0  0  0  0  0  0
   46.2940   33.6680   40.0990 N   0  0  0  0  0  0  0  0  0  0  0  0
   44.7400   32.4610   38.5660 C   0  0  0  0  0  0  0  0  0  0  0  0
   44.4080   31.4870   39.6280 C   0  0  0  0  0  0  0  0  0  0  0  0
   43.0630   31.5300   40.2390 C   0  0  0  0  0  0  0  0  0  0  0  0
   42.2960   32.8030   40.0680 C   0  0  0  0  0  0  0  0  0  0  0  0
   42.2900   33.0560   38.5550 C   0  0  0  0  0  0  0  0  0  0  0  0
   43.7010   33.4820   38.2450 C   0  0  0  0  0  0  0  0  0  0  0  0
   47.3910   33.8560   42.6690 C   0  0  0  0  0  0  0  0  0  0  0  0
   44.6890   36.0090   44.2220 C   0  0  0  0  0  0  0  0  0  0  0  0
   45.6230   35.5330   43.2970 C   0  0  0  0  0  0  0  0  0  0  0  0
   46.3820   34.4180   43.5980 C   0  0  0  0  0  0  0  0  0  0  0  0
   46.1810   33.8240   44.8060 N   0  0  0  0  0  0  0  0  0  0  0  0
   45.2650   34.3090   45.6900 C   0  0  0  0  0  0  0  0  0  0  0  0
   44.5380   35.3850   45.3890 N   0  0  0  0  0  0  0  0  0  0  0  0
   47.3119   35.8117   41.7923 H   0  0  0  0  0  0  0  0  0  0  0  0
   48.9110   35.0098   41.6850 H   0  0  0  0  0  0  0  0  0  0  0  0
   49.2308   34.9951   39.3224 H   0  0  0  0  0  0  0  0  0  0  0  0
   48.6965   34.1364   37.0647 H   0  0  0  0  0  0  0  0  0  0  0  0
   44.8347   31.8121   37.6829 H   0  0  0  0  0  0  0  0  0  0  0  0
   44.5352   30.4830   39.1970 H   0  0  0  0  0  0  0  0  0  0  0  0
   45.0837   31.7538   40.4540 H   0  0  0  0  0  0  0  0  0  0  0  0
   42.4677   30.7183   39.7955 H   0  0  0  0  0  0  0  0  0  0  0  0
   43.2303   31.4324   41.3218 H   0  0  0  0  0  0  0  0  0  0  0  0
   41.2692   32.6906   40.4463 H   0  0  0  0  0  0  0  0  0  0  0  0
   42.7454   33.6371   40.6269 H   0  0  0  0  0  0  0  0  0  0  0  0
   42.0305   32.1381   38.0072 H   0  0  0  0  0  0  0  0  0  0  0  0
   41.5474   33.8110   38.2574 H   0  0  0  0  0  0  0  0  0  0  0  0
   43.7631   33.7093   37.1705 H   0  0  0  0  0  0  0  0  0  0  0  0
   43.9117   34.3537   38.8819 H   0  0  0  0  0  0  0  0  0  0  0  0
   46.9581   32.9795   42.1646 H   0  0  0  0  0  0  0  0  0  0  0  0
   48.2772   33.5821   43.2602 H   0  0  0  0  0  0  0  0  0  0  0  0
   44.0813   36.8953   43.9870 H   0  0  0  0  0  0  0  0  0  0  0  0
   45.7534   36.0447   42.3320 H   0  0  0  0  0  0  0  0  0  0  0  0
   45.1242   33.8089   46.6596 H   0  0  0  0  0  0  0  0  0  0  0  0
  1 14  1  0
  2  1  1  0
  3  2  2  0
  4  3  1  0
  5  4  2  0
  5  6  1  0
  6  7  2  0
  7  2  1  0
  8  6  1  0
  8  9  1  0
  9 10  1  0
 11 10  1  0
 12 11  1  0
 13 12  1  0
 13  8  1  0
 14 17  1  0
 15 20  2  0
 16 17  2  0
 16 15  1  0
 17 18  1  0
 18 19  2  0
 20 19  1  0
  1 21  1  0
  1 22  1  0
  3 23  1  0
  4 24  1  0
  8 25  1  0
  9 26  1  0
  9 27  1  0
 10 28  1  0
 10 29  1  0
 11 30  1  0
 11 31  1  0
 12 32  1  0
 12 33  1  0
 13 34  1  0
 13 35  1  0
 14 36  1  0
 14 37  1  0
 15 38  1  0
 16 39  1  0
 19 40  1  0
M  ISO  8  21   8  22   8  23  14  24  14  25  13  26  13  27  13  28  13
M  ISO  8  29  13  30  13  31  13  32  13  33  13  34  13  35  13  36   8
M  ISO  4  37   8  38  14  39  14  40  14
M  END
>  <minimizedAffinity>  (1) 
-4.79453182

>  <minimizedRMSD>  (1) 
0.496183485

$$$$
