
     RDKit          3D

 30 32  0  0  0  0  0  0  0  0999 V2000
   44.5970   35.4810   45.3850 C   0  0  0  0  0  0  0  0  0  0  0  0
   44.8440   36.1060   44.1390 C   0  0  0  0  0  0  0  0  0  0  0  0
   45.5890   35.4100   43.1830 C   0  0  0  0  0  0  0  0  0  0  0  0
   46.0200   34.1640   43.5430 N   0  0  0  0  0  0  0  0  0  0  0  0
   45.7760   33.5950   44.7210 C   0  0  0  0  0  0  0  0  0  0  0  0
   45.0720   34.2460   45.6310 N   0  0  0  0  0  0  0  0  0  0  0  0
   46.2520   32.2980   45.0320 N   0  0  0  0  0  0  0  0  0  0  0  0
   47.3740   31.7490   44.4800 C   0  0  0  0  0  0  0  0  0  0  0  0
   47.5550   30.5130   44.9810 N   0  0  0  0  0  0  0  0  0  0  0  0
   46.5530   30.2890   45.8410 C   0  0  0  0  0  0  0  0  0  0  0  0
   45.7680   31.3810   45.8640 N   0  0  0  0  0  0  0  0  0  0  0  0
   46.3600   29.0690   46.6100 C   0  0  0  0  0  0  0  0  0  0  0  0
   47.3030   28.1970   47.0110 N   0  0  0  0  0  0  0  0  0  0  0  0
   46.7380   27.2430   47.6690 O   0  0  0  0  0  0  0  0  0  0  0  0
   45.4270   27.4280   47.7350 C   0  0  0  0  0  0  0  0  0  0  0  0
   45.1820   28.5840   47.0660 N   0  0  0  0  0  0  0  0  0  0  0  0
   44.3660   26.6190   48.3740 C   0  0  0  0  0  0  0  0  0  0  0  0
   43.4600   26.0320   47.3420 C   0  0  0  0  0  0  0  0  0  0  0  0
   45.0950   25.5300   49.1700 C   0  0  0  0  0  0  0  0  0  0  0  0
   44.0143   36.0071   46.1555 H   0  0  0  0  0  0  0  0  0  0  0  0
   44.4590   37.1147   43.9284 H   0  0  0  0  0  0  0  0  0  0  0  0
   45.8157   35.8407   42.1965 H   0  0  0  0  0  0  0  0  0  0  0  0
   48.0265   32.2394   43.7426 H   0  0  0  0  0  0  0  0  0  0  0  0
   43.7270   27.2258   49.0324 H   0  0  0  0  0  0  0  0  0  0  0  0
   42.6361   25.4982   47.8383 H   0  0  0  0  0  0  0  0  0  0  0  0
   43.0499   26.8365   46.7138 H   0  0  0  0  0  0  0  0  0  0  0  0
   44.0266   25.3290   46.7138 H   0  0  0  0  0  0  0  0  0  0  0  0
   44.9698   25.7170   50.2467 H   0  0  0  0  0  0  0  0  0  0  0  0
   44.6727   24.5463   48.9172 H   0  0  0  0  0  0  0  0  0  0  0  0
   46.1654   25.5455   48.9172 H   0  0  0  0  0  0  0  0  0  0  0  0
  1  6  2  0
  2  1  1  0
  3  4  1  0
  3  2  2  0
  4  5  2  0
  5  7  1  0
  5  6  1  0
  7 11  1  0
  8  9  2  0
  8  7  1  0
  9 10  1  0
 10 11  2  0
 10 12  1  0
 12 13  2  0
 12 16  1  0
 13 14  1  0
 14 15  1  0
 15 17  1  0
 16 15  2  0
 17 19  1  0
 18 17  1  0
  1 20  1  0
  2 21  1  0
  3 22  1  0
  8 23  1  0
 17 24  1  0
 18 25  1  0
 18 26  1  0
 18 27  1  0
 19 28  1  0
 19 29  1  0
 19 30  1  0
M  ISO  8  20  14  21  14  22  14  23  14  24   8  25   8  26   8  27   8
M  ISO  3  28   8  29   8  30   8
M  END
>  <minimizedAffinity>  (1) 
-4.52286148

>  <minimizedRMSD>  (1) 
0.654790282

$$$$
