
     RDKit          3D

 27 30  0  0  0  0  0  0  0  0999 V2000
   44.6190   35.4320   45.4010 C   0  0  0  0  0  0  0  0  0  0  0  0
   44.6770   36.2360   44.2610 C   0  0  0  0  0  0  0  0  0  0  0  0
   45.3830   35.7710   43.1680 C   0  0  0  0  0  0  0  0  0  0  0  0
   45.9850   34.5400   43.2780 N   0  0  0  0  0  0  0  0  0  0  0  0
   45.9110   33.7950   44.3820 C   0  0  0  0  0  0  0  0  0  0  0  0
   45.2310   34.2230   45.4580 N   0  0  0  0  0  0  0  0  0  0  0  0
   46.5360   32.5320   44.4760 N   0  0  0  0  0  0  0  0  0  0  0  0
   47.6710   32.2060   43.7790 C   0  0  0  0  0  0  0  0  0  0  0  0
   48.0410   30.9360   44.0660 N   0  0  0  0  0  0  0  0  0  0  0  0
   47.1260   30.4830   44.9440 C   0  0  0  0  0  0  0  0  0  0  0  0
   46.2340   31.4510   45.1770 N   0  0  0  0  0  0  0  0  0  0  0  0
   47.1400   29.1460   45.5230 C   0  0  0  0  0  0  0  0  0  0  0  0
   47.8630   28.0860   45.1630 N   0  0  0  0  0  0  0  0  0  0  0  0
   47.5800   27.0930   45.9300 O   0  0  0  0  0  0  0  0  0  0  0  0
   46.6780   27.4140   46.8270 C   0  0  0  0  0  0  0  0  0  0  0  0
   46.4140   28.7140   46.5520 N   0  0  0  0  0  0  0  0  0  0  0  0
   46.0790   26.5780   47.8900 C   0  0  0  0  0  0  0  0  0  0  0  0
   46.8070   25.5160   48.4600 C   0  0  0  0  0  0  0  0  0  0  0  0
   45.5680   24.8510   49.7050 S   0  0  0  0  0  0  0  0  0  0  0  0
   44.3060   26.1690   49.1830 C   0  0  0  0  0  0  0  0  0  0  0  0
   44.8640   26.7370   48.3820 N   0  0  0  0  0  0  0  0  0  0  0  0
   44.0606   35.7896   46.2787 H   0  0  0  0  0  0  0  0  0  0  0  0
   44.1739   37.2138   44.2337 H   0  0  0  0  0  0  0  0  0  0  0  0
   45.4604   36.3636   42.2445 H   0  0  0  0  0  0  0  0  0  0  0  0
   48.2024   32.8775   43.0885 H   0  0  0  0  0  0  0  0  0  0  0  0
   47.8267   25.1693   48.2364 H   0  0  0  0  0  0  0  0  0  0  0  0
   43.2880   26.3372   49.5644 H   0  0  0  0  0  0  0  0  0  0  0  0
  1  6  2  0
  2  1  1  0
  3  4  1  0
  3  2  2  0
  4  5  2  0
  5  7  1  0
  5  6  1  0
  7 11  1  0
  8  9  2  0
  8  7  1  0
  9 10  1  0
 10 11  2  0
 10 12  1  0
 12 16  1  0
 13 12  2  0
 13 14  1  0
 14 15  1  0
 15 17  1  0
 16 15  2  0
 17 21  1  0
 17 18  2  0
 18 19  1  0
 20 19  1  0
 21 20  2  0
  1 22  1  0
  2 23  1  0
  3 24  1  0
  8 25  1  0
 18 26  1  0
 20 27  1  0
M  ISO  6  22  14  23  14  24  14  25  14  26  14  27  14
M  END
>  <minimizedAffinity>  (1) 
-4.45774317

>  <minimizedRMSD>  (1) 
1.73811924

$$$$
