
     RDKit          3D

 42 47  0  0  0  0  0  0  0  0999 V2000
   48.2160   29.4160   44.7370 C   0  0  0  0  0  0  0  0  0  0  0  0
   49.2570   28.6370   44.4020 N   0  0  0  0  0  0  0  0  0  0  0  0
   49.1420   27.4980   45.0190 O   0  0  0  0  0  0  0  0  0  0  0  0
   48.0700   27.4670   45.7570 C   0  0  0  0  0  0  0  0  0  0  0  0
   47.4620   28.6740   45.5960 N   0  0  0  0  0  0  0  0  0  0  0  0
   44.7150   35.1650   45.5470 C   0  0  0  0  0  0  0  0  0  0  0  0
   44.5220   36.0660   44.4920 C   0  0  0  0  0  0  0  0  0  0  0  0
   45.1690   35.8320   43.2860 C   0  0  0  0  0  0  0  0  0  0  0  0
   45.9710   34.7160   43.1970 N   0  0  0  0  0  0  0  0  0  0  0  0
   46.1420   33.8670   44.2200 C   0  0  0  0  0  0  0  0  0  0  0  0
   45.5170   34.0990   45.3750 N   0  0  0  0  0  0  0  0  0  0  0  0
   46.9730   32.7260   44.1010 N   0  0  0  0  0  0  0  0  0  0  0  0
   48.0280   32.6510   43.2600 C   0  0  0  0  0  0  0  0  0  0  0  0
   48.6080   31.4460   43.3830 N   0  0  0  0  0  0  0  0  0  0  0  0
   47.9070   30.7690   44.3090 C   0  0  0  0  0  0  0  0  0  0  0  0
   46.9370   31.5690   44.7150 N   0  0  0  0  0  0  0  0  0  0  0  0
   47.6560   26.3380   46.5720 C   0  0  0  0  0  0  0  0  0  0  0  0
   47.0900   25.1960   46.0210 C   0  0  0  0  0  0  0  0  0  0  0  0
   46.8260   24.3480   47.0880 C   0  0  0  0  0  0  0  0  0  0  0  0
   47.2440   25.0180   48.2150 C   0  0  0  0  0  0  0  0  0  0  0  0
   47.7190   26.1710   47.8550 O   0  0  0  0  0  0  0  0  0  0  0  0
   47.0960   24.3750   49.5160 C   0  0  0  0  0  0  0  0  0  0  0  0
   45.8970   24.1740   50.0880 N   0  0  0  0  0  0  0  0  0  0  0  0
   45.6980   23.5890   51.2780 C   0  0  0  0  0  0  0  0  0  0  0  0
   46.7180   23.1370   52.0270 N   0  0  0  0  0  0  0  0  0  0  0  0
   47.9610   23.2920   51.5390 C   0  0  0  0  0  0  0  0  0  0  0  0
   49.0360   22.8420   52.2750 C   0  0  0  0  0  0  0  0  0  0  0  0
   50.3320   22.9790   51.8160 C   0  0  0  0  0  0  0  0  0  0  0  0
   50.5010   23.5910   50.5770 C   0  0  0  0  0  0  0  0  0  0  0  0
   49.4080   24.0240   49.8750 C   0  0  0  0  0  0  0  0  0  0  0  0
   48.1120   23.9000   50.3130 C   0  0  0  0  0  0  0  0  0  0  0  0
   44.2129   35.3285   46.5119 H   0  0  0  0  0  0  0  0  0  0  0  0
   43.8698   36.9429   44.6167 H   0  0  0  0  0  0  0  0  0  0  0  0
   45.0454   36.5139   42.4318 H   0  0  0  0  0  0  0  0  0  0  0  0
   48.3595   33.4509   42.5816 H   0  0  0  0  0  0  0  0  0  0  0  0
   46.8914   25.0027   44.9565 H   0  0  0  0  0  0  0  0  0  0  0  0
   46.3750   23.3457   47.0420 H   0  0  0  0  0  0  0  0  0  0  0  0
   44.6698   23.4758   51.6520 H   0  0  0  0  0  0  0  0  0  0  0  0
   48.8582   22.3633   53.2493 H   0  0  0  0  0  0  0  0  0  0  0  0
   51.1909   22.6209   52.4026 H   0  0  0  0  0  0  0  0  0  0  0  0
   51.5109   23.7265   50.1627 H   0  0  0  0  0  0  0  0  0  0  0  0
   49.5786   24.5013   48.8987 H   0  0  0  0  0  0  0  0  0  0  0  0
  1  5  1  0
  2  1  2  0
  2  3  1  0
  3  4  1  0
  4 17  1  0
  5  4  2  0
  7  6  2  0
  8  7  1  0
  9  8  2  0
  9 10  1  0
 10 11  2  0
 11  6  1  0
 12 10  1  0
 12 16  1  0
 13 14  2  0
 13 12  1  0
 14 15  1  0
 15 16  2  0
 15  1  1  0
 17 21  1  0
 18 17  2  0
 18 19  1  0
 19 20  2  0
 20 22  1  0
 21 20  1  0
 22 23  2  0
 22 31  1  0
 23 24  1  0
 24 25  2  0
 26 25  1  0
 26 27  2  0
 28 27  1  0
 29 28  2  0
 30 31  2  0
 30 29  1  0
 31 26  1  0
  6 32  1  0
  7 33  1  0
  8 34  1  0
 13 35  1  0
 18 36  1  0
 19 37  1  0
 24 38  1  0
 27 39  1  0
 28 40  1  0
 29 41  1  0
 30 42  1  0
M  ISO  8  32  14  33  14  34  14  35  14  36  14  37  14  38  14  39  14
M  ISO  3  40  14  41  14  42  14
M  END
>  <minimizedAffinity>  (1) 
-5.72362614

>  <minimizedRMSD>  (1) 
2.08647251

$$$$
