
     RDKit          3D

 35 39  0  0  0  0  0  0  0  0999 V2000
   46.8390   29.4220   45.2430 C   0  0  0  0  0  0  0  0  0  0  0  0
   47.4650   28.3010   44.8010 N   0  0  0  0  0  0  0  0  0  0  0  0
   47.0930   27.3260   45.5690 O   0  0  0  0  0  0  0  0  0  0  0  0
   46.2550   27.7190   46.5020 C   0  0  0  0  0  0  0  0  0  0  0  0
   46.0850   29.0440   46.3090 N   0  0  0  0  0  0  0  0  0  0  0  0
   44.5660   35.7970   45.0110 C   0  0  0  0  0  0  0  0  0  0  0  0
   44.7470   36.6070   43.9000 C   0  0  0  0  0  0  0  0  0  0  0  0
   45.5480   36.1330   42.8480 C   0  0  0  0  0  0  0  0  0  0  0  0
   46.0940   34.8860   43.0120 N   0  0  0  0  0  0  0  0  0  0  0  0
   45.9010   34.1270   44.0950 C   0  0  0  0  0  0  0  0  0  0  0  0
   45.1430   34.5830   45.0840 N   0  0  0  0  0  0  0  0  0  0  0  0
   46.4880   32.8480   44.2140 N   0  0  0  0  0  0  0  0  0  0  0  0
   47.6810   32.4970   43.6440 C   0  0  0  0  0  0  0  0  0  0  0  0
   47.9540   31.2210   43.9440 N   0  0  0  0  0  0  0  0  0  0  0  0
   46.9440   30.7650   44.6980 C   0  0  0  0  0  0  0  0  0  0  0  0
   46.0730   31.7670   44.8460 N   0  0  0  0  0  0  0  0  0  0  0  0
   45.6790   26.8380   47.4980 C   0  0  0  0  0  0  0  0  0  0  0  0
   44.3170   26.7070   47.6520 C   0  0  0  0  0  0  0  0  0  0  0  0
   44.1430   25.7860   48.6910 C   0  0  0  0  0  0  0  0  0  0  0  0
   45.4260   25.4080   49.1110 C   0  0  0  0  0  0  0  0  0  0  0  0
   46.2800   26.0640   48.3670 O   0  0  0  0  0  0  0  0  0  0  0  0
   45.7240   24.4600   50.1780 C   0  0  0  0  0  0  0  0  0  0  0  0
   46.8870   23.7470   50.3210 C   0  0  0  0  0  0  0  0  0  0  0  0
   46.7810   22.9880   51.4190 N   0  0  0  0  0  0  0  0  0  0  0  0
   45.5810   23.1940   51.9870 C   0  0  0  0  0  0  0  0  0  0  0  0
   44.9370   24.0950   51.2260 N   0  0  0  0  0  0  0  0  0  0  0  0
   43.9420   36.1516   45.8446 H   0  0  0  0  0  0  0  0  0  0  0  0
   44.2739   37.5985   43.8439 H   0  0  0  0  0  0  0  0  0  0  0  0
   45.7275   36.7299   41.9416 H   0  0  0  0  0  0  0  0  0  0  0  0
   48.3155   33.1583   43.0356 H   0  0  0  0  0  0  0  0  0  0  0  0
   43.5304   27.2191   47.0784 H   0  0  0  0  0  0  0  0  0  0  0  0
   43.1860   25.4283   49.0988 H   0  0  0  0  0  0  0  0  0  0  0  0
   47.7570   23.7911   49.6493 H   0  0  0  0  0  0  0  0  0  0  0  0
   45.1985   22.7161   52.9010 H   0  0  0  0  0  0  0  0  0  0  0  0
   43.9895   24.4553   51.4087 H   0  0  0  0  0  0  0  0  0  0  0  0
  1  5  1  0
  2  1  2  0
  2  3  1  0
  3  4  1  0
  4 17  1  0
  5  4  2  0
  6 11  2  0
  7  6  1  0
  8  9  1  0
  8  7  2  0
  9 10  2  0
 10 12  1  0
 10 11  1  0
 12 16  1  0
 13 14  2  0
 13 12  1  0
 14 15  1  0
 15 16  2  0
 15  1  1  0
 17 18  2  0
 17 21  1  0
 18 19  1  0
 19 20  2  0
 20 22  1  0
 21 20  1  0
 22 23  2  0
 22 26  1  0
 23 24  1  0
 24 25  2  0
 26 25  1  0
  6 27  1  0
  7 28  1  0
  8 29  1  0
 13 30  1  0
 18 31  1  0
 19 32  1  0
 23 33  1  0
 25 34  1  0
 26 35  1  0
M  ISO  8  27  14  28  14  29  14  30  14  31  14  32  14  33  14  34  14
M  ISO  1  35   9
M  END
>  <minimizedAffinity>  (1) 
-5.61704445

>  <minimizedRMSD>  (1) 
0.649914086

$$$$
