
     RDKit          3D

 31 34  0  0  0  0  0  0  0  0999 V2000
   46.9830   29.1800   45.8000 C   0  0  0  0  0  0  0  0  0  0  0  0
   47.7850   28.1160   45.5280 N   0  0  0  0  0  0  0  0  0  0  0  0
   47.4320   27.1490   46.3220 O   0  0  0  0  0  0  0  0  0  0  0  0
   46.4450   27.5060   47.1040 C   0  0  0  0  0  0  0  0  0  0  0  0
   46.1470   28.7970   46.7840 N   0  0  0  0  0  0  0  0  0  0  0  0
   44.6130   35.4960   45.3220 C   0  0  0  0  0  0  0  0  0  0  0  0
   44.7050   36.2320   44.1460 C   0  0  0  0  0  0  0  0  0  0  0  0
   45.4260   35.7080   43.0700 C   0  0  0  0  0  0  0  0  0  0  0  0
   45.9950   34.4780   43.2750 N   0  0  0  0  0  0  0  0  0  0  0  0
   45.9000   33.7810   44.4060 C   0  0  0  0  0  0  0  0  0  0  0  0
   45.2100   34.2960   45.4170 N   0  0  0  0  0  0  0  0  0  0  0  0
   46.5070   32.5160   44.5620 N   0  0  0  0  0  0  0  0  0  0  0  0
   47.6390   32.1330   43.9110 C   0  0  0  0  0  0  0  0  0  0  0  0
   47.9490   30.8880   44.2770 N   0  0  0  0  0  0  0  0  0  0  0  0
   47.0200   30.4800   45.1540 C   0  0  0  0  0  0  0  0  0  0  0  0
   46.1700   31.4900   45.2990 N   0  0  0  0  0  0  0  0  0  0  0  0
   45.8220   26.6480   48.1060 C   0  0  0  0  0  0  0  0  0  0  0  0
   44.5160   26.7930   48.4910 C   0  0  0  0  0  0  0  0  0  0  0  0
   44.2630   25.8200   49.4500 C   0  0  0  0  0  0  0  0  0  0  0  0
   45.4500   25.1290   49.5930 C   0  0  0  0  0  0  0  0  0  0  0  0
   46.3370   25.6670   48.7700 O   0  0  0  0  0  0  0  0  0  0  0  0
   45.8640   23.9960   50.4300 C   0  0  0  0  0  0  0  0  0  0  0  0
   46.8050   23.1940   50.1990 O   0  0  0  0  0  0  0  0  0  0  0  0
   45.0750   23.8690   51.5830 O   0  0  0  0  0  0  0  0  0  0  0  0
   44.0497   35.8974   46.1773 H   0  0  0  0  0  0  0  0  0  0  0  0
   44.2165   37.2141   44.0638 H   0  0  0  0  0  0  0  0  0  0  0  0
   45.5305   36.2488   42.1178 H   0  0  0  0  0  0  0  0  0  0  0  0
   48.2064   32.7498   43.1986 H   0  0  0  0  0  0  0  0  0  0  0  0
   43.8018   27.5391   48.1124 H   0  0  0  0  0  0  0  0  0  0  0  0
   43.3177   25.6386   49.9824 H   0  0  0  0  0  0  0  0  0  0  0  0
   45.2559   23.1408   52.2289 H   0  0  0  0  0  0  0  0  0  0  0  0
  1  5  1  0
  2  1  2  0
  2  3  1  0
  3  4  1  0
  4 17  1  0
  5  4  2  0
  6 11  2  0
  7  6  1  0
  8  9  1  0
  8  7  2  0
  9 10  2  0
 10 12  1  0
 10 11  1  0
 12 16  1  0
 13 14  2  0
 13 12  1  0
 14 15  1  0
 15 16  2  0
 15  1  1  0
 17 18  2  0
 17 21  1  0
 18 19  1  0
 19 20  2  0
 20 22  1  0
 21 20  1  0
 22 24  1  0
 23 22  2  0
  6 25  1  0
  7 26  1  0
  8 27  1  0
 13 28  1  0
 18 29  1  0
 19 30  1  0
 24 31  1  0
M  ISO  7  25  14  26  14  27  14  28  14  29  14  30  14  31   3
M  END
>  <minimizedAffinity>  (1) 
-5.53921318

>  <minimizedRMSD>  (1) 
0.220086753

$$$$
