
     RDKit          3D

 41 46  0  0  0  0  0  0  0  0999 V2000
   48.8810   29.9340   43.7260 C   0  0  0  0  0  0  0  0  0  0  0  0
   49.7730   29.2160   43.0130 N   0  0  0  0  0  0  0  0  0  0  0  0
   49.8810   28.0380   43.5490 O   0  0  0  0  0  0  0  0  0  0  0  0
   49.1060   27.9230   44.5940 C   0  0  0  0  0  0  0  0  0  0  0  0
   48.4620   29.1190   44.7210 N   0  0  0  0  0  0  0  0  0  0  0  0
   44.7970   35.0890   45.3440 C   0  0  0  0  0  0  0  0  0  0  0  0
   44.5040   36.1000   44.4390 C   0  0  0  0  0  0  0  0  0  0  0  0
   45.1660   36.1280   43.2160 C   0  0  0  0  0  0  0  0  0  0  0  0
   46.0870   35.1330   42.9710 N   0  0  0  0  0  0  0  0  0  0  0  0
   46.3470   34.1700   43.8670 C   0  0  0  0  0  0  0  0  0  0  0  0
   45.7130   34.1580   45.0180 N   0  0  0  0  0  0  0  0  0  0  0  0
   47.3040   33.1600   43.5780 N   0  0  0  0  0  0  0  0  0  0  0  0
   48.3610   33.3190   42.7500 C   0  0  0  0  0  0  0  0  0  0  0  0
   49.0610   32.1800   42.6990 N   0  0  0  0  0  0  0  0  0  0  0  0
   48.4450   31.2940   43.4980 C   0  0  0  0  0  0  0  0  0  0  0  0
   47.3890   31.9170   44.0130 N   0  0  0  0  0  0  0  0  0  0  0  0
   48.9870   26.7310   45.4240 C   0  0  0  0  0  0  0  0  0  0  0  0
   49.6390   25.5460   45.1080 C   0  0  0  0  0  0  0  0  0  0  0  0
   49.2750   24.6610   46.1350 C   0  0  0  0  0  0  0  0  0  0  0  0
   48.4270   25.3570   47.0070 C   0  0  0  0  0  0  0  0  0  0  0  0
   48.2990   26.5750   46.5270 O   0  0  0  0  0  0  0  0  0  0  0  0
   47.8650   24.7590   48.1680 N   0  0  0  0  0  0  0  0  0  0  0  0
   48.3830   23.7520   48.9020 C   0  0  0  0  0  0  0  0  0  0  0  0
   47.5900   23.4300   49.9360 N   0  0  0  0  0  0  0  0  0  0  0  0
   46.5360   24.2520   49.8640 C   0  0  0  0  0  0  0  0  0  0  0  0
   45.4150   24.3450   50.6900 C   0  0  0  0  0  0  0  0  0  0  0  0
   44.5040   25.2920   50.3530 N   0  0  0  0  0  0  0  0  0  0  0  0
   44.6550   26.1020   49.2890 C   0  0  0  0  0  0  0  0  0  0  0  0
   45.7550   25.9990   48.4930 N   0  0  0  0  0  0  0  0  0  0  0  0
   46.7080   25.0790   48.7620 C   0  0  0  0  0  0  0  0  0  0  0  0
   45.2100   23.5230   51.8120 N   0  0  0  0  0  0  0  0  0  0  0  0
   44.2860   35.0491   46.3173 H   0  0  0  0  0  0  0  0  0  0  0  0
   43.7576   36.8694   44.6860 H   0  0  0  0  0  0  0  0  0  0  0  0
   44.9622   36.9137   42.4736 H   0  0  0  0  0  0  0  0  0  0  0  0
   48.6071   34.2413   42.2034 H   0  0  0  0  0  0  0  0  0  0  0  0
   50.2934   25.3460   44.2467 H   0  0  0  0  0  0  0  0  0  0  0  0
   49.5963   23.6139   46.2366 H   0  0  0  0  0  0  0  0  0  0  0  0
   49.3390   23.2553   48.6799 H   0  0  0  0  0  0  0  0  0  0  0  0
   43.8842   26.8528   49.0606 H   0  0  0  0  0  0  0  0  0  0  0  0
   44.3624   23.6370   52.3860 H   0  0  0  0  0  0  0  0  0  0  0  0
   45.9074   22.8068   52.0600 H   0  0  0  0  0  0  0  0  0  0  0  0
  1  5  1  0
  2  3  1  0
  2  1  2  0
  3  4  1  0
  4  5  2  0
  4 17  1  0
  7  6  2  0
  8  7  1  0
  9  8  2  0
  9 10  1  0
 10 11  2  0
 11  6  1  0
 12 10  1  0
 12 16  1  0
 13 12  1  0
 14 13  2  0
 14 15  1  0
 15  1  1  0
 15 16  2  0
 17 21  1  0
 18 17  2  0
 18 19  1  0
 19 20  2  0
 20 22  1  0
 21 20  1  0
 22 30  1  0
 22 23  1  0
 23 24  2  0
 25 24  1  0
 25 26  2  0
 26 31  1  0
 27 26  1  0
 28 27  2  0
 29 30  2  0
 29 28  1  0
 30 25  1  0
  6 32  1  0
  7 33  1  0
  8 34  1  0
 13 35  1  0
 18 36  1  0
 19 37  1  0
 23 38  1  0
 28 39  1  0
 31 40  1  0
 31 41  1  0
M  ISO  8  32  14  33  14  34  14  35  14  36  14  37  14  38  14  39  14
M  END
>  <minimizedAffinity>  (1) 
-5.46506214

>  <minimizedRMSD>  (1) 
3.19461942

$$$$
