
     RDKit          3D

 43 47  0  0  0  0  0  0  0  0999 V2000
   47.3790   29.2210   45.4670 C   0  0  0  0  0  0  0  0  0  0  0  0
   48.2370   28.2360   45.1450 N   0  0  0  0  0  0  0  0  0  0  0  0
   47.9880   27.2090   45.9020 O   0  0  0  0  0  0  0  0  0  0  0  0
   47.0050   27.4510   46.7190 C   0  0  0  0  0  0  0  0  0  0  0  0
   46.5980   28.7290   46.4620 N   0  0  0  0  0  0  0  0  0  0  0  0
   44.6140   35.3980   45.4700 C   0  0  0  0  0  0  0  0  0  0  0  0
   44.6130   36.2050   44.3460 C   0  0  0  0  0  0  0  0  0  0  0  0
   45.3080   35.7910   43.2200 C   0  0  0  0  0  0  0  0  0  0  0  0
   45.9560   34.5910   43.3110 N   0  0  0  0  0  0  0  0  0  0  0  0
   45.9490   33.8170   44.4080 C   0  0  0  0  0  0  0  0  0  0  0  0
   45.2800   34.2290   45.4710 N   0  0  0  0  0  0  0  0  0  0  0  0
   46.6360   32.5820   44.4450 N   0  0  0  0  0  0  0  0  0  0  0  0
   47.7250   32.2960   43.7040 C   0  0  0  0  0  0  0  0  0  0  0  0
   48.1400   31.0470   43.9700 N   0  0  0  0  0  0  0  0  0  0  0  0
   47.2990   30.5510   44.8870 C   0  0  0  0  0  0  0  0  0  0  0  0
   46.4050   31.4990   45.1520 N   0  0  0  0  0  0  0  0  0  0  0  0
   46.4760   26.5170   47.7020 C   0  0  0  0  0  0  0  0  0  0  0  0
   45.1590   26.5800   48.1450 C   0  0  0  0  0  0  0  0  0  0  0  0
   45.0130   25.5490   49.0720 C   0  0  0  0  0  0  0  0  0  0  0  0
   46.2470   24.9330   49.1280 C   0  0  0  0  0  0  0  0  0  0  0  0
   47.1030   25.5280   48.3010 O   0  0  0  0  0  0  0  0  0  0  0  0
   46.3810   23.8330   50.0110 N   0  0  0  0  0  0  0  0  0  0  0  0
   45.8680   23.5790   51.3640 C   0  0  0  0  0  0  0  0  0  0  0  0
   47.0190   22.8410   52.0670 C   0  0  0  0  0  0  0  0  0  0  0  0
   48.3690   23.3420   51.5510 C   0  0  0  0  0  0  0  0  0  0  0  0
   48.5800   22.9560   50.0970 C   0  0  0  0  0  0  0  0  0  0  0  0
   47.1840   22.7080   49.5100 C   0  0  0  0  0  0  0  0  0  0  0  0
   44.0660   35.7147   46.3697 H   0  0  0  0  0  0  0  0  0  0  0  0
   44.0688   37.1610   44.3458 H   0  0  0  0  0  0  0  0  0  0  0  0
   45.3364   36.3963   42.3019 H   0  0  0  0  0  0  0  0  0  0  0  0
   48.2020   32.9825   42.9890 H   0  0  0  0  0  0  0  0  0  0  0  0
   44.3884   27.2981   47.8280 H   0  0  0  0  0  0  0  0  0  0  0  0
   44.1079   25.2832   49.6378 H   0  0  0  0  0  0  0  0  0  0  0  0
   45.6376   24.5237   51.8783 H   0  0  0  0  0  0  0  0  0  0  0  0
   44.9335   22.9987   51.3599 H   0  0  0  0  0  0  0  0  0  0  0  0
   46.9561   23.0203   53.1505 H   0  0  0  0  0  0  0  0  0  0  0  0
   46.9339   21.7648   51.8559 H   0  0  0  0  0  0  0  0  0  0  0  0
   48.4025   24.4379   51.6396 H   0  0  0  0  0  0  0  0  0  0  0  0
   49.1650   22.8792   52.1529 H   0  0  0  0  0  0  0  0  0  0  0  0
   49.0815   23.7716   49.5554 H   0  0  0  0  0  0  0  0  0  0  0  0
   49.2152   22.0623   50.0088 H   0  0  0  0  0  0  0  0  0  0  0  0
   46.7764   21.7492   49.8629 H   0  0  0  0  0  0  0  0  0  0  0  0
   47.1914   22.6499   48.4116 H   0  0  0  0  0  0  0  0  0  0  0  0
  1  5  1  0
  2  1  2  0
  2  3  1  0
  3  4  1  0
  4 17  1  0
  5  4  2  0
  6 11  2  0
  7  6  1  0
  8  9  1  0
  8  7  2  0
  9 10  2  0
 10 12  1  0
 10 11  1  0
 12 16  1  0
 13 14  2  0
 13 12  1  0
 14 15  1  0
 15 16  2  0
 15  1  1  0
 17 18  2  0
 17 21  1  0
 18 19  1  0
 19 20  2  0
 20 22  1  0
 21 20  1  0
 22 23  1  0
 23 24  1  0
 25 24  1  0
 26 25  1  0
 27 22  1  0
 27 26  1  0
  6 28  1  0
  7 29  1  0
  8 30  1  0
 13 31  1  0
 18 32  1  0
 19 33  1  0
 23 34  1  0
 23 35  1  0
 24 36  1  0
 24 37  1  0
 25 38  1  0
 25 39  1  0
 26 40  1  0
 26 41  1  0
 27 42  1  0
 27 43  1  0
M  ISO  8  28  14  29  14  30  14  31  14  32  14  33  14  34  13  35  13
M  ISO  8  36  13  37  13  38  13  39  13  40  13  41  13  42  13  43  13
M  END
>  <minimizedAffinity>  (1) 
-5.21736717

>  <minimizedRMSD>  (1) 
0.649695992

$$$$
