
     RDKit          3D

 35 39  0  0  0  0  0  0  0  0999 V2000
   44.6020   35.4760   45.4030 C   0  0  0  0  0  0  0  0  0  0  0  0
   44.6390   36.2410   44.2270 C   0  0  0  0  0  0  0  0  0  0  0  0
   45.3510   35.7580   43.1110 C   0  0  0  0  0  0  0  0  0  0  0  0
   45.9620   34.5430   43.2810 N   0  0  0  0  0  0  0  0  0  0  0  0
   45.9190   33.8260   44.4000 C   0  0  0  0  0  0  0  0  0  0  0  0
   45.2440   34.2990   45.4400 N   0  0  0  0  0  0  0  0  0  0  0  0
   46.5670   32.5800   44.5210 N   0  0  0  0  0  0  0  0  0  0  0  0
   47.6700   32.2310   43.7950 C   0  0  0  0  0  0  0  0  0  0  0  0
   48.0550   30.9910   44.1280 N   0  0  0  0  0  0  0  0  0  0  0  0
   47.1950   30.5570   45.0640 C   0  0  0  0  0  0  0  0  0  0  0  0
   46.3260   31.5380   45.2660 N   0  0  0  0  0  0  0  0  0  0  0  0
   47.2410   29.2590   45.7070 C   0  0  0  0  0  0  0  0  0  0  0  0
   48.1900   28.3090   45.5680 N   0  0  0  0  0  0  0  0  0  0  0  0
   47.8530   27.2970   46.3180 O   0  0  0  0  0  0  0  0  0  0  0  0
   46.7290   27.5200   46.9520 C   0  0  0  0  0  0  0  0  0  0  0  0
   46.3310   28.7560   46.5760 N   0  0  0  0  0  0  0  0  0  0  0  0
   46.0910   26.5760   47.8690 C   0  0  0  0  0  0  0  0  0  0  0  0
   44.8450   26.8330   48.4190 C   0  0  0  0  0  0  0  0  0  0  0  0
   44.5880   25.7100   49.2260 C   0  0  0  0  0  0  0  0  0  0  0  0
   45.6880   24.8600   49.1080 C   0  0  0  0  0  0  0  0  0  0  0  0
   46.5540   25.4300   48.2850 O   0  0  0  0  0  0  0  0  0  0  0  0
   45.8790   23.5400   49.7810 C   0  0  0  0  0  0  0  0  0  0  0  0
   47.1020   23.4620   50.6420 C   0  0  0  0  0  0  0  0  0  0  0  0
   45.7570   23.5200   51.2720 C   0  0  0  0  0  0  0  0  0  0  0  0
   44.0526   35.8377   46.2846 H   0  0  0  0  0  0  0  0  0  0  0  0
   44.1173   37.2081   44.1769 H   0  0  0  0  0  0  0  0  0  0  0  0
   45.4123   36.3186   42.1666 H   0  0  0  0  0  0  0  0  0  0  0  0
   48.1668   32.8703   43.0503 H   0  0  0  0  0  0  0  0  0  0  0  0
   44.2043   27.7130   48.2607 H   0  0  0  0  0  0  0  0  0  0  0  0
   43.6891   25.5349   49.8353 H   0  0  0  0  0  0  0  0  0  0  0  0
   45.4381   22.9459   48.9670 H   0  0  0  0  0  0  0  0  0  0  0  0
   47.6877   22.5317   50.6816 H   0  0  0  0  0  0  0  0  0  0  0  0
   48.0277   24.0495   50.7315 H   0  0  0  0  0  0  0  0  0  0  0  0
   45.4409   24.4262   51.8094 H   0  0  0  0  0  0  0  0  0  0  0  0
   45.2125   22.8982   51.9979 H   0  0  0  0  0  0  0  0  0  0  0  0
  1  6  2  0
  2  1  1  0
  3  4  1  0
  3  2  2  0
  4  5  2  0
  5  7  1  0
  5  6  1  0
  7 11  1  0
  8  9  2  0
  8  7  1  0
  9 10  1  0
 10 11  2  0
 10 12  1  0
 12 16  1  0
 13 12  2  0
 13 14  1  0
 14 15  1  0
 15 17  1  0
 16 15  2  0
 17 21  1  0
 17 18  2  0
 18 19  1  0
 20 19  2  0
 20 22  1  0
 21 20  1  0
 22 23  1  0
 22 24  1  0
 23 24  1  0
  1 25  1  0
  2 26  1  0
  3 27  1  0
  8 28  1  0
 18 29  1  0
 19 30  1  0
 22 31  1  0
 23 32  1  0
 23 33  1  0
 24 34  1  0
 24 35  1  0
M  ISO  8  25  14  26  14  27  14  28  14  29  14  30  14  31  13  32  13
M  ISO  3  33  13  34  13  35  13
M  END
>  <minimizedAffinity>  (1) 
-5.15023422

>  <minimizedRMSD>  (1) 
0.334070951

$$$$
