
     RDKit          3D

 31 33  0  0  0  0  0  0  0  0999 V2000
   47.6700   34.6850   41.5010 C   0  0  0  0  0  0  0  0  0  0  0  0
   47.3680   34.2370   40.1220 C   0  0  0  0  0  0  0  0  0  0  0  0
   48.2470   34.3030   39.0700 C   0  0  0  0  0  0  0  0  0  0  0  0
   48.0420   33.9110   37.7800 C   0  0  0  0  0  0  0  0  0  0  0  0
   46.8100   33.4000   37.5390 N   0  0  0  0  0  0  0  0  0  0  0  0
   45.9070   33.3160   38.5470 C   0  0  0  0  0  0  0  0  0  0  0  0
   46.1600   33.7150   39.8060 N   0  0  0  0  0  0  0  0  0  0  0  0
   44.5230   32.7330   38.2460 C   0  0  0  0  0  0  0  0  0  0  0  0
   43.3760   33.2000   38.7200 C   0  0  0  0  0  0  0  0  0  0  0  0
   42.1970   32.6000   38.3840 C   0  0  0  0  0  0  0  0  0  0  0  0
   42.3190   31.4870   37.5230 C   0  0  0  0  0  0  0  0  0  0  0  0
   44.1960   31.4020   37.2640 S   0  0  0  0  0  0  0  0  0  0  0  0
   47.0720   33.6980   42.4670 C   0  0  0  0  0  0  0  0  0  0  0  0
   44.6820   36.0590   44.1950 C   0  0  0  0  0  0  0  0  0  0  0  0
   45.5000   35.4980   43.2070 C   0  0  0  0  0  0  0  0  0  0  0  0
   46.1880   34.3300   43.4660 C   0  0  0  0  0  0  0  0  0  0  0  0
   46.0420   33.7600   44.6870 N   0  0  0  0  0  0  0  0  0  0  0  0
   45.2360   34.3240   45.6410 C   0  0  0  0  0  0  0  0  0  0  0  0
   44.5730   35.4630   45.3740 N   0  0  0  0  0  0  0  0  0  0  0  0
   47.2346   35.6807   41.6711 H   0  0  0  0  0  0  0  0  0  0  0  0
   48.7586   34.7430   41.6479 H   0  0  0  0  0  0  0  0  0  0  0  0
   49.2382   34.7236   39.2949 H   0  0  0  0  0  0  0  0  0  0  0  0
   48.8123   34.0020   37.0001 H   0  0  0  0  0  0  0  0  0  0  0  0
   43.3747   34.0748   39.3869 H   0  0  0  0  0  0  0  0  0  0  0  0
   41.2250   32.9564   38.7558 H   0  0  0  0  0  0  0  0  0  0  0  0
   41.5315   30.8391   37.1106 H   0  0  0  0  0  0  0  0  0  0  0  0
   46.4865   32.9612   41.8975 H   0  0  0  0  0  0  0  0  0  0  0  0
   47.9031   33.2289   43.0139 H   0  0  0  0  0  0  0  0  0  0  0  0
   44.1322   36.9902   43.9938 H   0  0  0  0  0  0  0  0  0  0  0  0
   45.5942   35.9872   42.2263 H   0  0  0  0  0  0  0  0  0  0  0  0
   45.1313   33.8448   46.6256 H   0  0  0  0  0  0  0  0  0  0  0  0
  1 13  1  0
  2  1  1  0
  3  2  2  0
  4  3  1  0
  5  4  2  0
  5  6  1  0
  6  7  2  0
  7  2  1  0
  8  6  1  0
  8  9  2  0
 10  9  1  0
 11 10  2  0
 12 11  1  0
 12  8  1  0
 13 16  1  0
 14 19  2  0
 15 16  2  0
 15 14  1  0
 16 17  1  0
 17 18  2  0
 19 18  1  0
  1 20  1  0
  1 21  1  0
  3 22  1  0
  4 23  1  0
  9 24  1  0
 10 25  1  0
 11 26  1  0
 13 27  1  0
 13 28  1  0
 14 29  1  0
 15 30  1  0
 18 31  1  0
M  ISO  8  20   8  21   8  22  14  23  14  24  14  25  14  26  14  27   8
M  ISO  4  28   8  29  14  30  14  31  14
M  END
>  <minimizedAffinity>  (1) 
-4.65860128

>  <minimizedRMSD>  (1) 
0.825590134

$$$$
