
     RDKit          3D

 30 33  0  0  0  0  0  0  0  0999 V2000
   44.5970   35.5050   45.3330 C   0  0  0  0  0  0  0  0  0  0  0  0
   44.7150   36.2520   44.1480 C   0  0  0  0  0  0  0  0  0  0  0  0
   45.4570   35.7310   43.0720 C   0  0  0  0  0  0  0  0  0  0  0  0
   46.0130   34.5020   43.2900 N   0  0  0  0  0  0  0  0  0  0  0  0
   45.8980   33.7990   44.4130 C   0  0  0  0  0  0  0  0  0  0  0  0
   45.1980   34.3130   45.4030 N   0  0  0  0  0  0  0  0  0  0  0  0
   46.4970   32.5340   44.5780 N   0  0  0  0  0  0  0  0  0  0  0  0
   47.6230   32.1430   43.9210 C   0  0  0  0  0  0  0  0  0  0  0  0
   47.9390   30.8960   44.2890 N   0  0  0  0  0  0  0  0  0  0  0  0
   47.0150   30.4990   45.1770 C   0  0  0  0  0  0  0  0  0  0  0  0
   46.1760   31.5060   45.3180 N   0  0  0  0  0  0  0  0  0  0  0  0
   46.9810   29.2020   45.8340 C   0  0  0  0  0  0  0  0  0  0  0  0
   47.8200   28.1580   45.6240 N   0  0  0  0  0  0  0  0  0  0  0  0
   47.4520   27.1860   46.4070 O   0  0  0  0  0  0  0  0  0  0  0  0
   46.4190   27.5230   47.1240 C   0  0  0  0  0  0  0  0  0  0  0  0
   46.0920   28.8040   46.7810 N   0  0  0  0  0  0  0  0  0  0  0  0
   45.7550   26.6670   48.1020 C   0  0  0  0  0  0  0  0  0  0  0  0
   44.4830   26.9270   48.5700 C   0  0  0  0  0  0  0  0  0  0  0  0
   44.1920   25.9100   49.4730 C   0  0  0  0  0  0  0  0  0  0  0  0
   45.3050   25.0920   49.5000 C   0  0  0  0  0  0  0  0  0  0  0  0
   46.2170   25.5780   48.6670 O   0  0  0  0  0  0  0  0  0  0  0  0
   45.5830   23.9040   50.2340 N   0  0  0  0  0  0  0  0  0  0  0  0
   44.0214   35.8937   46.1860 H   0  0  0  0  0  0  0  0  0  0  0  0
   44.2310   37.2361   44.0626 H   0  0  0  0  0  0  0  0  0  0  0  0
   45.5806   36.2741   42.1234 H   0  0  0  0  0  0  0  0  0  0  0  0
   48.1849   32.7558   43.2007 H   0  0  0  0  0  0  0  0  0  0  0  0
   43.8321   27.7672   48.2866 H   0  0  0  0  0  0  0  0  0  0  0  0
   43.2636   25.7827   50.0491 H   0  0  0  0  0  0  0  0  0  0  0  0
   46.4881   23.4264   50.1173 H   0  0  0  0  0  0  0  0  0  0  0  0
   44.8790   23.5222   50.8817 H   0  0  0  0  0  0  0  0  0  0  0  0
  1  6  2  0
  2  1  1  0
  3  4  1  0
  3  2  2  0
  4  5  2  0
  5  7  1  0
  5  6  1  0
  7 11  1  0
  8  9  2  0
  8  7  1  0
  9 10  1  0
 10 11  2  0
 10 12  1  0
 12 16  1  0
 13 12  2  0
 13 14  1  0
 14 15  1  0
 15 17  1  0
 16 15  2  0
 17 18  2  0
 17 21  1  0
 18 19  1  0
 19 20  2  0
 20 22  1  0
 21 20  1  0
  1 23  1  0
  2 24  1  0
  3 25  1  0
  8 26  1  0
 18 27  1  0
 19 28  1  0
 22 29  1  0
 22 30  1  0
M  ISO  6  23  14  24  14  25  14  26  14  27  14  28  14
M  END
>  <minimizedAffinity>  (1) 
-5.08824921

>  <minimizedRMSD>  (1) 
0.121057384

$$$$
