
     RDKit          3D

 29 32  0  0  0  0  0  0  0  0999 V2000
   44.6010   35.5000   45.3180 C   0  0  0  0  0  0  0  0  0  0  0  0
   44.7070   36.2890   44.1610 C   0  0  0  0  0  0  0  0  0  0  0  0
   45.4490   35.7990   43.0920 C   0  0  0  0  0  0  0  0  0  0  0  0
   46.0160   34.5700   43.2760 N   0  0  0  0  0  0  0  0  0  0  0  0
   45.9080   33.8330   44.3760 C   0  0  0  0  0  0  0  0  0  0  0  0
   45.2040   34.3070   45.3790 N   0  0  0  0  0  0  0  0  0  0  0  0
   46.5240   32.5670   44.4950 N   0  0  0  0  0  0  0  0  0  0  0  0
   47.6340   32.1950   43.7900 C   0  0  0  0  0  0  0  0  0  0  0  0
   47.9730   30.9430   44.1250 N   0  0  0  0  0  0  0  0  0  0  0  0
   47.0840   30.5290   45.0310 C   0  0  0  0  0  0  0  0  0  0  0  0
   46.2340   31.5280   45.2260 N   0  0  0  0  0  0  0  0  0  0  0  0
   47.0800   29.2190   45.6660 C   0  0  0  0  0  0  0  0  0  0  0  0
   47.8840   28.1710   45.4040 N   0  0  0  0  0  0  0  0  0  0  0  0
   47.5540   27.1950   46.1940 O   0  0  0  0  0  0  0  0  0  0  0  0
   46.5550   27.5420   46.9830 C   0  0  0  0  0  0  0  0  0  0  0  0
   46.2460   28.8130   46.6630 N   0  0  0  0  0  0  0  0  0  0  0  0
   45.9470   26.6670   47.9900 C   0  0  0  0  0  0  0  0  0  0  0  0
   44.6440   26.8170   48.3810 C   0  0  0  0  0  0  0  0  0  0  0  0
   44.4580   25.8020   49.3420 C   0  0  0  0  0  0  0  0  0  0  0  0
   45.6510   25.1160   49.4630 C   0  0  0  0  0  0  0  0  0  0  0  0
   46.5010   25.6710   48.6370 O   0  0  0  0  0  0  0  0  0  0  0  0
   45.9700   23.7180   50.5550 S   0  0  0  0  0  0  0  0  0  0  0  0
   44.0197   35.8643   46.1779 H   0  0  0  0  0  0  0  0  0  0  0  0
   44.2149   37.2710   44.1019 H   0  0  0  0  0  0  0  0  0  0  0  0
   45.5717   36.3654   42.1570 H   0  0  0  0  0  0  0  0  0  0  0  0
   48.1658   32.8249   43.0616 H   0  0  0  0  0  0  0  0  0  0  0  0
   43.9116   27.5577   48.0275 H   0  0  0  0  0  0  0  0  0  0  0  0
   43.5304   25.5940   49.8954 H   0  0  0  0  0  0  0  0  0  0  0  0
   45.8767   24.1267   51.8593 H   0  0  0  0  0  0  0  0  0  0  0  0
  1  6  2  0
  2  1  1  0
  3  4  1  0
  3  2  2  0
  4  5  2  0
  5  7  1  0
  5  6  1  0
  7 11  1  0
  8  9  2  0
  8  7  1  0
  9 10  1  0
 10 11  2  0
 10 12  1  0
 12 16  1  0
 13 12  2  0
 13 14  1  0
 14 15  1  0
 15 17  1  0
 16 15  2  0
 17 18  2  0
 17 21  1  0
 18 19  1  0
 19 20  2  0
 20 22  1  0
 21 20  1  0
  1 23  1  0
  2 24  1  0
  3 25  1  0
  8 26  1  0
 18 27  1  0
 19 28  1  0
 22 29  1  0
M  ISO  7  23  14  24  14  25  14  26  14  27  14  28  14  29  11
M  END
>  <minimizedAffinity>  (1) 
-4.92922688

>  <minimizedRMSD>  (1) 
0.102190822

$$$$
