
     RDKit          3D

 30 33  0  0  0  0  0  0  0  0999 V2000
   44.6140   35.3640   45.4840 C   0  0  0  0  0  0  0  0  0  0  0  0
   44.7090   36.1680   44.3410 C   0  0  0  0  0  0  0  0  0  0  0  0
   45.4230   35.6910   43.2310 C   0  0  0  0  0  0  0  0  0  0  0  0
   45.9910   34.4370   43.3570 N   0  0  0  0  0  0  0  0  0  0  0  0
   45.8800   33.6990   44.4630 C   0  0  0  0  0  0  0  0  0  0  0  0
   45.2000   34.1580   45.5130 N   0  0  0  0  0  0  0  0  0  0  0  0
   46.4770   32.4160   44.5550 N   0  0  0  0  0  0  0  0  0  0  0  0
   47.6140   32.0650   43.9000 C   0  0  0  0  0  0  0  0  0  0  0  0
   47.9190   30.7880   44.1940 N   0  0  0  0  0  0  0  0  0  0  0  0
   46.9680   30.3420   45.0320 C   0  0  0  0  0  0  0  0  0  0  0  0
   46.1240   31.3430   45.2250 N   0  0  0  0  0  0  0  0  0  0  0  0
   46.9240   29.0040   45.5930 C   0  0  0  0  0  0  0  0  0  0  0  0
   47.5040   27.8820   45.1130 N   0  0  0  0  0  0  0  0  0  0  0  0
   47.2170   26.9000   45.9140 O   0  0  0  0  0  0  0  0  0  0  0  0
   46.4690   27.3120   46.9160 C   0  0  0  0  0  0  0  0  0  0  0  0
   46.2770   28.6400   46.7240 N   0  0  0  0  0  0  0  0  0  0  0  0
   45.9770   26.4570   47.9870 C   0  0  0  0  0  0  0  0  0  0  0  0
   44.7520   26.6490   48.5770 C   0  0  0  0  0  0  0  0  0  0  0  0
   44.6280   25.6470   49.5510 C   0  0  0  0  0  0  0  0  0  0  0  0
   45.7970   24.9120   49.4800 C   0  0  0  0  0  0  0  0  0  0  0  0
   46.5460   25.4360   48.5450 O   0  0  0  0  0  0  0  0  0  0  0  0
   46.0630   23.7660   50.3390 C   0  0  0  0  0  0  0  0  0  0  0  0
   45.4790   23.7300   51.4640 O   0  0  0  0  0  0  0  0  0  0  0  0
   44.0564   35.7232   46.3615 H   0  0  0  0  0  0  0  0  0  0  0  0
   44.2311   37.1584   44.3138 H   0  0  0  0  0  0  0  0  0  0  0  0
   45.5252   36.2834   42.3098 H   0  0  0  0  0  0  0  0  0  0  0  0
   48.1939   32.7212   43.2343 H   0  0  0  0  0  0  0  0  0  0  0  0
   44.0166   27.4304   48.3349 H   0  0  0  0  0  0  0  0  0  0  0  0
   43.7783   25.4808   50.2295 H   0  0  0  0  0  0  0  0  0  0  0  0
   46.7446   22.9623   50.0237 H   0  0  0  0  0  0  0  0  0  0  0  0
  1  6  2  0
  2  1  1  0
  3  4  1  0
  3  2  2  0
  4  5  2  0
  5  7  1  0
  5  6  1  0
  7 11  1  0
  8  9  2  0
  8  7  1  0
  9 10  1  0
 10 11  2  0
 10 12  1  0
 12 16  1  0
 13 12  2  0
 13 14  1  0
 14 15  1  0
 15 17  1  0
 16 15  2  0
 17 21  1  0
 17 18  2  0
 18 19  1  0
 20 19  2  0
 20 22  1  0
 21 20  1  0
 22 23  2  0
  1 24  1  0
  2 25  1  0
  3 26  1  0
  8 27  1  0
 18 28  1  0
 19 29  1  0
 22 30  1  0
M  ISO  7  24  14  25  14  26  14  27  14  28  14  29  14  30   6
M  END
>  <minimizedAffinity>  (1) 
-4.87394238

>  <minimizedRMSD>  (1) 
0.359662652

$$$$
