
     RDKit          3D

 35 39  0  0  0  0  0  0  0  0999 V2000
   47.2990   29.2880   44.9660 C   0  0  0  0  0  0  0  0  0  0  0  0
   48.0230   28.2690   44.4590 N   0  0  0  0  0  0  0  0  0  0  0  0
   47.7620   27.2070   45.1680 O   0  0  0  0  0  0  0  0  0  0  0  0
   46.9040   27.4640   46.1190 C   0  0  0  0  0  0  0  0  0  0  0  0
   46.5950   28.7900   46.0070 N   0  0  0  0  0  0  0  0  0  0  0  0
   44.6080   35.4980   45.2970 C   0  0  0  0  0  0  0  0  0  0  0  0
   44.6470   36.3710   44.2150 C   0  0  0  0  0  0  0  0  0  0  0  0
   45.3810   36.0160   43.0680 C   0  0  0  0  0  0  0  0  0  0  0  0
   46.0180   34.8010   43.1130 N   0  0  0  0  0  0  0  0  0  0  0  0
   45.9700   33.9780   44.1560 C   0  0  0  0  0  0  0  0  0  0  0  0
   45.2700   34.3290   45.2350 N   0  0  0  0  0  0  0  0  0  0  0  0
   46.6400   32.7320   44.1690 N   0  0  0  0  0  0  0  0  0  0  0  0
   47.8080   32.5090   43.5020 C   0  0  0  0  0  0  0  0  0  0  0  0
   48.1950   31.2420   43.7030 N   0  0  0  0  0  0  0  0  0  0  0  0
   47.2640   30.6670   44.5010 C   0  0  0  0  0  0  0  0  0  0  0  0
   46.3470   31.5970   44.7580 N   0  0  0  0  0  0  0  0  0  0  0  0
   46.4080   26.4870   47.0830 C   0  0  0  0  0  0  0  0  0  0  0  0
   45.1040   26.0270   47.0500 C   0  0  0  0  0  0  0  0  0  0  0  0
   45.0010   25.1190   48.1100 C   0  0  0  0  0  0  0  0  0  0  0  0
   46.2610   25.0940   48.7170 C   0  0  0  0  0  0  0  0  0  0  0  0
   47.0320   25.9210   48.0610 O   0  0  0  0  0  0  0  0  0  0  0  0
   46.6820   24.3150   49.8610 C   0  0  0  0  0  0  0  0  0  0  0  0
   45.9200   23.8750   50.8820 C   0  0  0  0  0  0  0  0  0  0  0  0
   46.4410   23.1500   51.8980 C   0  0  0  0  0  0  0  0  0  0  0  0
   47.8560   22.8990   51.7900 C   0  0  0  0  0  0  0  0  0  0  0  0
   48.3010   23.7630   50.1780 S   0  0  0  0  0  0  0  0  0  0  0  0
   44.0380   35.7626   46.1998 H   0  0  0  0  0  0  0  0  0  0  0  0
   44.1093   37.3298   44.2554 H   0  0  0  0  0  0  0  0  0  0  0  0
   45.4407   36.6731   42.1878 H   0  0  0  0  0  0  0  0  0  0  0  0
   48.3471   33.2514   42.8952 H   0  0  0  0  0  0  0  0  0  0  0  0
   44.3143   26.3143   46.3402 H   0  0  0  0  0  0  0  0  0  0  0  0
   44.1116   24.5431   48.4053 H   0  0  0  0  0  0  0  0  0  0  0  0
   44.8458   24.1118   50.8891 H   0  0  0  0  0  0  0  0  0  0  0  0
   45.8341   22.7819   52.7383 H   0  0  0  0  0  0  0  0  0  0  0  0
   48.5110   22.3427   52.4766 H   0  0  0  0  0  0  0  0  0  0  0  0
  1  5  1  0
  2  1  2  0
  2  3  1  0
  3  4  1  0
  4 17  1  0
  5  4  2  0
  7  6  2  0
  8  9  2  0
  8  7  1  0
  9 10  1  0
 10 12  1  0
 10 11  2  0
 11  6  1  0
 12 16  1  0
 13 14  2  0
 13 12  1  0
 14 15  1  0
 15 16  2  0
 15  1  1  0
 17 21  1  0
 18 17  2  0
 18 19  1  0
 19 20  2  0
 20 22  1  0
 21 20  1  0
 22 26  1  0
 22 23  2  0
 23 24  1  0
 25 24  2  0
 26 25  1  0
  6 27  1  0
  7 28  1  0
  8 29  1  0
 13 30  1  0
 18 31  1  0
 19 32  1  0
 23 33  1  0
 24 34  1  0
 25 35  1  0
M  ISO  8  27  14  28  14  29  14  30  14  31  14  32  14  33  14  34  14
M  ISO  1  35  14
M  END
>  <minimizedAffinity>  (1) 
-4.91458035

>  <minimizedRMSD>  (1) 
1.04087853

$$$$
