
     RDKit          3D

 40 43  0  0  0  0  0  0  0  0999 V2000
   47.6360   29.1390   45.4760 C   0  0  0  0  0  0  0  0  0  0  0  0
   48.5160   28.1860   45.0930 N   0  0  0  0  0  0  0  0  0  0  0  0
   48.3200   27.1490   45.8500 O   0  0  0  0  0  0  0  0  0  0  0  0
   47.3570   27.3530   46.7190 C   0  0  0  0  0  0  0  0  0  0  0  0
   46.9170   28.6200   46.4860 N   0  0  0  0  0  0  0  0  0  0  0  0
   44.6700   35.2260   45.6420 C   0  0  0  0  0  0  0  0  0  0  0  0
   44.5440   36.0110   44.5060 C   0  0  0  0  0  0  0  0  0  0  0  0
   45.1710   35.6050   43.3130 C   0  0  0  0  0  0  0  0  0  0  0  0
   45.8760   34.4280   43.3790 N   0  0  0  0  0  0  0  0  0  0  0  0
   45.9780   33.6890   44.4980 C   0  0  0  0  0  0  0  0  0  0  0  0
   45.3850   34.0870   45.6020 N   0  0  0  0  0  0  0  0  0  0  0  0
   46.7200   32.4810   44.5080 N   0  0  0  0  0  0  0  0  0  0  0  0
   47.8080   32.2490   43.7260 C   0  0  0  0  0  0  0  0  0  0  0  0
   48.2770   31.0170   43.9740 N   0  0  0  0  0  0  0  0  0  0  0  0
   47.4890   30.4780   44.9060 C   0  0  0  0  0  0  0  0  0  0  0  0
   46.5520   31.3810   45.2150 N   0  0  0  0  0  0  0  0  0  0  0  0
   46.9070   26.3810   47.6980 C   0  0  0  0  0  0  0  0  0  0  0  0
   45.5980   26.3270   48.1340 C   0  0  0  0  0  0  0  0  0  0  0  0
   45.5690   25.2730   49.0610 C   0  0  0  0  0  0  0  0  0  0  0  0
   46.8650   24.7530   49.1290 C   0  0  0  0  0  0  0  0  0  0  0  0
   47.5980   25.4540   48.3010 O   0  0  0  0  0  0  0  0  0  0  0  0
   47.3520   23.6310   49.9610 C   0  0  0  0  0  0  0  0  0  0  0  0
   48.7530   23.8740   50.5130 C   0  0  0  0  0  0  0  0  0  0  0  0
   47.4120   22.3320   49.1760 C   0  0  0  0  0  0  0  0  0  0  0  0
   46.4250   23.3730   51.1440 C   0  0  0  0  0  0  0  0  0  0  0  0
   44.1838   35.5355   46.5789 H   0  0  0  0  0  0  0  0  0  0  0  0
   43.9595   36.9423   44.5368 H   0  0  0  0  0  0  0  0  0  0  0  0
   45.1008   36.1933   42.3862 H   0  0  0  0  0  0  0  0  0  0  0  0
   48.2361   32.9597   43.0038 H   0  0  0  0  0  0  0  0  0  0  0  0
   44.7609   26.9693   47.8230 H   0  0  0  0  0  0  0  0  0  0  0  0
   44.6929   24.9228   49.6265 H   0  0  0  0  0  0  0  0  0  0  0  0
   48.7200   23.8683   51.6125 H   0  0  0  0  0  0  0  0  0  0  0  0
   49.4282   23.0796   50.1623 H   0  0  0  0  0  0  0  0  0  0  0  0
   49.1212   24.8494   50.1623 H   0  0  0  0  0  0  0  0  0  0  0  0
   47.4512   21.4830   49.8744 H   0  0  0  0  0  0  0  0  0  0  0  0
   46.5169   22.2447   48.5426 H   0  0  0  0  0  0  0  0  0  0  0  0
   48.3113   22.3276   48.5426 H   0  0  0  0  0  0  0  0  0  0  0  0
   46.9772   23.5267   52.0829 H   0  0  0  0  0  0  0  0  0  0  0  0
   45.5737   24.0684   51.1012 H   0  0  0  0  0  0  0  0  0  0  0  0
   46.0554   22.3378   51.1012 H   0  0  0  0  0  0  0  0  0  0  0  0
  1  5  1  0
  2  1  2  0
  2  3  1  0
  3  4  1  0
  4 17  1  0
  5  4  2  0
  7  6  2  0
  8  9  2  0
  8  7  1  0
  9 10  1  0
 10 12  1  0
 10 11  2  0
 11  6  1  0
 12 16  1  0
 13 14  2  0
 13 12  1  0
 14 15  1  0
 15 16  2  0
 15  1  1  0
 17 18  2  0
 17 21  1  0
 18 19  1  0
 19 20  2  0
 20 22  1  0
 21 20  1  0
 22 23  1  0
 22 25  1  0
 24 22  1  0
  6 26  1  0
  7 27  1  0
  8 28  1  0
 13 29  1  0
 18 30  1  0
 19 31  1  0
 23 32  1  0
 23 33  1  0
 23 34  1  0
 24 35  1  0
 24 36  1  0
 24 37  1  0
 25 38  1  0
 25 39  1  0
 25 40  1  0
M  ISO  8  26  14  27  14  28  14  29  14  30  14  31  14  32   8  33   8
M  ISO  7  34   8  35   8  36   8  37   8  38   8  39   8  40   8
M  END
>  <minimizedAffinity>  (1) 
-4.75404739

>  <minimizedRMSD>  (1) 
1.03562129

$$$$
