
     RDKit          3D

 47 51  0  0  0  0  0  0  0  0999 V2000
   46.7150   29.3070   44.9580 C   0  0  0  0  0  0  0  0  0  0  0  0
   47.1300   28.1780   44.3250 N   0  0  0  0  0  0  0  0  0  0  0  0
   46.8510   27.1630   45.0960 O   0  0  0  0  0  0  0  0  0  0  0  0
   46.2700   27.5610   46.2140 C   0  0  0  0  0  0  0  0  0  0  0  0
   46.1720   28.9200   46.1520 N   0  0  0  0  0  0  0  0  0  0  0  0
   44.5330   35.6910   45.1670 C   0  0  0  0  0  0  0  0  0  0  0  0
   44.7430   36.5940   44.1080 C   0  0  0  0  0  0  0  0  0  0  0  0
   45.5340   36.1830   43.0420 C   0  0  0  0  0  0  0  0  0  0  0  0
   46.0540   34.9140   43.1020 N   0  0  0  0  0  0  0  0  0  0  0  0
   45.8510   34.0730   44.1030 C   0  0  0  0  0  0  0  0  0  0  0  0
   45.1010   34.4900   45.0940 N   0  0  0  0  0  0  0  0  0  0  0  0
   46.4030   32.7770   44.1270 N   0  0  0  0  0  0  0  0  0  0  0  0
   47.5450   32.4320   43.4840 C   0  0  0  0  0  0  0  0  0  0  0  0
   47.7910   31.1390   43.7080 N   0  0  0  0  0  0  0  0  0  0  0  0
   46.8120   30.6700   44.4880 C   0  0  0  0  0  0  0  0  0  0  0  0
   46.0060   31.6820   44.7140 N   0  0  0  0  0  0  0  0  0  0  0  0
   45.8310   26.6710   47.2950 C   0  0  0  0  0  0  0  0  0  0  0  0
   44.8360   27.0320   48.1690 C   0  0  0  0  0  0  0  0  0  0  0  0
   44.7000   25.9470   49.0370 C   0  0  0  0  0  0  0  0  0  0  0  0
   45.6150   24.9960   48.6430 C   0  0  0  0  0  0  0  0  0  0  0  0
   46.2650   25.4830   47.5950 O   0  0  0  0  0  0  0  0  0  0  0  0
   45.8990   23.6470   49.2130 C   0  0  0  0  0  0  0  0  0  0  0  0
   47.1320   23.6830   50.0820 C   0  0  0  0  0  0  0  0  0  0  0  0
   48.2250   24.5610   49.5410 C   0  0  0  0  0  0  0  0  0  0  0  0
   49.3650   23.7980   48.9000 C   0  0  0  0  0  0  0  0  0  0  0  0
   49.8030   22.5970   49.6750 C   0  0  0  0  0  0  0  0  0  0  0  0
   48.5900   21.6550   49.6960 C   0  0  0  0  0  0  0  0  0  0  0  0
   47.5630   22.3300   50.5360 C   0  0  0  0  0  0  0  0  0  0  0  0
   43.9151   35.9710   46.0329 H   0  0  0  0  0  0  0  0  0  0  0  0
   44.2932   37.5977   44.1238 H   0  0  0  0  0  0  0  0  0  0  0  0
   45.7347   36.8457   42.1873 H   0  0  0  0  0  0  0  0  0  0  0  0
   48.1670   33.1065   42.8772 H   0  0  0  0  0  0  0  0  0  0  0  0
   44.2679   27.9738   48.1826 H   0  0  0  0  0  0  0  0  0  0  0  0
   43.9948   25.8668   49.8774 H   0  0  0  0  0  0  0  0  0  0  0  0
   45.0399   23.3229   49.8187 H   0  0  0  0  0  0  0  0  0  0  0  0
   46.0704   22.9428   48.3855 H   0  0  0  0  0  0  0  0  0  0  0  0
   46.8388   24.1938   51.0110 H   0  0  0  0  0  0  0  0  0  0  0  0
   47.7888   25.2311   48.7855 H   0  0  0  0  0  0  0  0  0  0  0  0
   48.6482   25.1075   50.3967 H   0  0  0  0  0  0  0  0  0  0  0  0
   49.0420   23.4670   47.9019 H   0  0  0  0  0  0  0  0  0  0  0  0
   50.2248   24.4830   48.8607 H   0  0  0  0  0  0  0  0  0  0  0  0
   50.6577   22.1118   49.1809 H   0  0  0  0  0  0  0  0  0  0  0  0
   50.1287   22.8644   50.6911 H   0  0  0  0  0  0  0  0  0  0  0  0
   48.2083   21.5000   48.6760 H   0  0  0  0  0  0  0  0  0  0  0  0
   48.8540   20.6659   50.0984 H   0  0  0  0  0  0  0  0  0  0  0  0
   47.9727   22.4308   51.5519 H   0  0  0  0  0  0  0  0  0  0  0  0
   46.6658   21.6967   50.4725 H   0  0  0  0  0  0  0  0  0  0  0  0
  1  5  1  0
  2  1  2  0
  2  3  1  0
  3  4  1  0
  4 17  1  0
  5  4  2  0
  7  6  2  0
  8  9  2  0
  8  7  1  0
  9 10  1  0
 10 12  1  0
 10 11  2  0
 11  6  1  0
 12 16  1  0
 13 14  2  0
 13 12  1  0
 14 15  1  0
 15 16  2  0
 15  1  1  0
 17 21  1  0
 17 18  2  0
 18 19  1  0
 20 19  2  0
 20 22  1  0
 21 20  1  0
 22 23  1  0
 23 28  1  0
 24 23  1  0
 25 24  1  0
 25 26  1  0
 26 27  1  0
 27 28  1  0
  6 29  1  0
  7 30  1  0
  8 31  1  0
 13 32  1  0
 18 33  1  0
 19 34  1  0
 22 35  1  0
 22 36  1  0
 23 37  1  0
 24 38  1  0
 24 39  1  0
 25 40  1  0
 25 41  1  0
 26 42  1  0
 26 43  1  0
 27 44  1  0
 27 45  1  0
 28 46  1  0
 28 47  1  0
M  ISO  8  29  14  30  14  31  14  32  14  33  14  34  14  35   8  36   8
M  ISO  8  37  13  38  13  39  13  40  13  41  13  42  13  43  13  44  13
M  ISO  3  45  13  46  13  47  13
M  END
>  <minimizedAffinity>  (1) 
-4.82756758

>  <minimizedRMSD>  (1) 
2.57590389

$$$$
