
     RDKit          3D

 39 43  0  0  0  0  0  0  0  0999 V2000
   47.0400   29.2600   45.7550 C   0  0  0  0  0  0  0  0  0  0  0  0
   47.9260   28.2380   45.5910 N   0  0  0  0  0  0  0  0  0  0  0  0
   47.5440   27.2580   46.3500 O   0  0  0  0  0  0  0  0  0  0  0  0
   46.4460   27.5630   47.0200 C   0  0  0  0  0  0  0  0  0  0  0  0
   46.1260   28.8250   46.6470 N   0  0  0  0  0  0  0  0  0  0  0  0
   44.6050   35.5390   45.3060 C   0  0  0  0  0  0  0  0  0  0  0  0
   44.6910   36.2920   44.1320 C   0  0  0  0  0  0  0  0  0  0  0  0
   45.4220   35.7770   43.0430 C   0  0  0  0  0  0  0  0  0  0  0  0
   45.9960   34.5500   43.2490 N   0  0  0  0  0  0  0  0  0  0  0  0
   45.9060   33.8430   44.3730 C   0  0  0  0  0  0  0  0  0  0  0  0
   45.2180   34.3540   45.3630 N   0  0  0  0  0  0  0  0  0  0  0  0
   46.5140   32.5880   44.5310 N   0  0  0  0  0  0  0  0  0  0  0  0
   47.6540   32.2120   43.8720 C   0  0  0  0  0  0  0  0  0  0  0  0
   47.9760   30.9660   44.2380 N   0  0  0  0  0  0  0  0  0  0  0  0
   47.0590   30.5530   45.1160 C   0  0  0  0  0  0  0  0  0  0  0  0
   46.2020   31.5570   45.2620 N   0  0  0  0  0  0  0  0  0  0  0  0
   45.7720   26.6700   47.9550 C   0  0  0  0  0  0  0  0  0  0  0  0
   44.4030   26.5810   48.0180 C   0  0  0  0  0  0  0  0  0  0  0  0
   44.1160   25.6430   49.0090 C   0  0  0  0  0  0  0  0  0  0  0  0
   45.3510   25.2170   49.4900 C   0  0  0  0  0  0  0  0  0  0  0  0
   46.2890   25.8610   48.8270 O   0  0  0  0  0  0  0  0  0  0  0  0
   45.6450   24.2090   50.5680 C   0  0  0  0  0  0  0  0  0  0  0  0
   46.7470   23.3660   50.0040 C   0  0  0  0  0  0  0  0  0  0  0  0
   47.8610   23.0660   50.7300 C   0  0  0  0  0  0  0  0  0  0  0  0
   48.8790   22.2820   50.1980 C   0  0  0  0  0  0  0  0  0  0  0  0
   48.7290   21.8280   48.9320 N   0  0  0  0  0  0  0  0  0  0  0  0
   47.6320   22.1220   48.2110 C   0  0  0  0  0  0  0  0  0  0  0  0
   46.6500   22.8840   48.7420 N   0  0  0  0  0  0  0  0  0  0  0  0
   44.0403   35.9170   46.1710 H   0  0  0  0  0  0  0  0  0  0  0  0
   44.1958   37.2715   44.0591 H   0  0  0  0  0  0  0  0  0  0  0  0
   45.5247   36.3223   42.0932 H   0  0  0  0  0  0  0  0  0  0  0  0
   48.2140   32.8334   43.1577 H   0  0  0  0  0  0  0  0  0  0  0  0
   43.6772   27.1388   47.4080 H   0  0  0  0  0  0  0  0  0  0  0  0
   43.1218   25.3094   49.3412 H   0  0  0  0  0  0  0  0  0  0  0  0
   45.9727   24.7108   51.4904 H   0  0  0  0  0  0  0  0  0  0  0  0
   44.7595   23.6142   50.8367 H   0  0  0  0  0  0  0  0  0  0  0  0
   47.9565   23.4513   51.7559 H   0  0  0  0  0  0  0  0  0  0  0  0
   49.7760   22.0391   50.7865 H   0  0  0  0  0  0  0  0  0  0  0  0
   47.5337   21.7403   47.1840 H   0  0  0  0  0  0  0  0  0  0  0  0
  1  5  1  0
  2  1  2  0
  2  3  1  0
  3  4  1  0
  4 17  1  0
  5  4  2  0
  6 11  2  0
  7  6  1  0
  8  9  1  0
  8  7  2  0
  9 10  2  0
 10 12  1  0
 10 11  1  0
 12 16  1  0
 13 14  2  0
 13 12  1  0
 14 15  1  0
 15 16  2  0
 15  1  1  0
 17 18  2  0
 17 21  1  0
 18 19  1  0
 19 20  2  0
 20 22  1  0
 21 20  1  0
 23 22  1  0
 23 24  2  0
 25 24  1  0
 26 25  2  0
 27 28  2  0
 27 26  1  0
 28 23  1  0
  6 29  1  0
  7 30  1  0
  8 31  1  0
 13 32  1  0
 18 33  1  0
 19 34  1  0
 22 35  1  0
 22 36  1  0
 24 37  1  0
 25 38  1  0
 27 39  1  0
M  ISO  8  29  14  30  14  31  14  32  14  33  14  34  14  35   8  36   8
M  ISO  3  37  14  38  14  39  14
M  END
>  <minimizedAffinity>  (1) 
-5.2678957

>  <minimizedRMSD>  (1) 
1.55884695

$$$$
