
     RDKit          3D

 29 31  0  0  0  0  0  0  0  0999 V2000
   47.8760   34.5650   42.7870 C   0  0  0  0  0  0  0  0  0  0  0  0
   46.6630   35.0190   42.2950 C   0  0  0  0  0  0  0  0  0  0  0  0
   45.4980   34.3820   42.7150 C   0  0  0  0  0  0  0  0  0  0  0  0
   45.6070   33.3530   43.5770 N   0  0  0  0  0  0  0  0  0  0  0  0
   46.7880   32.9250   44.0410 C   0  0  0  0  0  0  0  0  0  0  0  0
   47.8840   33.5410   43.6340 N   0  0  0  0  0  0  0  0  0  0  0  0
   47.0830   31.8250   44.9730 C   0  0  0  0  0  0  0  0  0  0  0  0
   47.8630   30.7160   44.6210 C   0  0  0  0  0  0  0  0  0  0  0  0
   48.1550   29.6800   45.4600 C   0  0  0  0  0  0  0  0  0  0  0  0
   47.6740   29.6780   46.7460 C   0  0  0  0  0  0  0  0  0  0  0  0
   46.9020   30.7320   47.1620 C   0  0  0  0  0  0  0  0  0  0  0  0
   46.4320   30.7040   48.4540 C   0  0  0  0  0  0  0  0  0  0  0  0
   45.6500   31.7270   48.9380 C   0  0  0  0  0  0  0  0  0  0  0  0
   45.3680   32.7720   48.0580 C   0  0  0  0  0  0  0  0  0  0  0  0
   45.8630   32.7470   46.7840 C   0  0  0  0  0  0  0  0  0  0  0  0
   46.6430   31.7460   46.2710 C   0  0  0  0  0  0  0  0  0  0  0  0
   49.1140   35.2140   42.3840 C   0  0  0  0  0  0  0  0  0  0  0  0
   49.1010   35.9020   41.3230 O   0  0  0  0  0  0  0  0  0  0  0  0
   50.2560   35.0760   43.1460 O   0  0  0  0  0  0  0  0  0  0  0  0
   46.6212   35.8621   41.5898 H   0  0  0  0  0  0  0  0  0  0  0  0
   44.5133   34.7111   42.3517 H   0  0  0  0  0  0  0  0  0  0  0  0
   48.2677   30.6776   43.5989 H   0  0  0  0  0  0  0  0  0  0  0  0
   48.7769   28.8449   45.1053 H   0  0  0  0  0  0  0  0  0  0  0  0
   47.9035   28.8470   47.4292 H   0  0  0  0  0  0  0  0  0  0  0  0
   46.6838   29.8553   49.1069 H   0  0  0  0  0  0  0  0  0  0  0  0
   45.2658   31.7213   49.9687 H   0  0  0  0  0  0  0  0  0  0  0  0
   44.7467   33.6170   48.3896 H   0  0  0  0  0  0  0  0  0  0  0  0
   45.6169   33.5918   46.1239 H   0  0  0  0  0  0  0  0  0  0  0  0
   51.0949   35.5206   42.8655 H   0  0  0  0  0  0  0  0  0  0  0  0
  1  6  2  0
  2  3  2  0
  2  1  1  0
  3  4  1  0
  4  5  2  0
  5  7  1  0
  6  5  1  0
  7 16  1  0
  8  7  2  0
  8  9  1  0
  9 10  2  0
 10 11  1  0
 11 12  2  0
 12 13  1  0
 14 13  2  0
 15 14  1  0
 16 15  2  0
 16 11  1  0
 17  1  1  0
 17 19  1  0
 18 17  2  0
  2 20  1  0
  3 21  1  0
  8 22  1  0
  9 23  1  0
 10 24  1  0
 12 25  1  0
 13 26  1  0
 14 27  1  0
 15 28  1  0
 19 29  1  0
M  ISO  8  20  14  21  14  22  14  23  14  24  14  25  14  26  14  27  14
M  ISO  2  28  14  29   3
M  END
>  <minimizedAffinity>  (1) 
-5.96592379

>  <minimizedRMSD>  (1) 
2.43197417

$$$$
