
     RDKit          3D

 44 48  0  0  0  0  0  0  0  0999 V2000
   46.7680   29.3660   44.8010 C   0  0  0  0  0  0  0  0  0  0  0  0
   47.3380   28.2630   44.2770 N   0  0  0  0  0  0  0  0  0  0  0  0
   47.0040   27.2330   45.0130 O   0  0  0  0  0  0  0  0  0  0  0  0
   46.2410   27.5950   46.0010 C   0  0  0  0  0  0  0  0  0  0  0  0
   46.0660   28.9520   45.9020 N   0  0  0  0  0  0  0  0  0  0  0  0
   44.5380   35.7570   45.0500 C   0  0  0  0  0  0  0  0  0  0  0  0
   44.7580   36.6620   43.9880 C   0  0  0  0  0  0  0  0  0  0  0  0
   45.5610   36.2600   42.9120 C   0  0  0  0  0  0  0  0  0  0  0  0
   46.0770   34.9890   42.9850 N   0  0  0  0  0  0  0  0  0  0  0  0
   45.8660   34.1410   43.9870 C   0  0  0  0  0  0  0  0  0  0  0  0
   45.1040   34.5490   44.9890 N   0  0  0  0  0  0  0  0  0  0  0  0
   46.4210   32.8500   44.0070 N   0  0  0  0  0  0  0  0  0  0  0  0
   47.5780   32.5100   43.3670 C   0  0  0  0  0  0  0  0  0  0  0  0
   47.8300   31.2120   43.5840 N   0  0  0  0  0  0  0  0  0  0  0  0
   46.8420   30.7430   44.3520 C   0  0  0  0  0  0  0  0  0  0  0  0
   46.0220   31.7500   44.5820 N   0  0  0  0  0  0  0  0  0  0  0  0
   45.6860   26.6950   47.0190 C   0  0  0  0  0  0  0  0  0  0  0  0
   44.4190   26.1320   46.8780 C   0  0  0  0  0  0  0  0  0  0  0  0
   44.2740   25.3520   48.0500 C   0  0  0  0  0  0  0  0  0  0  0  0
   45.4350   25.5000   48.7940 C   0  0  0  0  0  0  0  0  0  0  0  0
   46.2740   26.3170   48.1480 O   0  0  0  0  0  0  0  0  0  0  0  0
   45.7340   24.8750   50.0930 C   0  0  0  0  0  0  0  0  0  0  0  0
   45.9470   23.4680   49.9800 N   0  0  0  0  0  0  0  0  0  0  0  0
   46.3710   22.9830   51.3030 C   0  0  0  0  0  0  0  0  0  0  0  0
   47.8600   22.9320   51.4460 C   0  0  0  0  0  0  0  0  0  0  0  0
   48.5180   23.8600   50.6620 O   0  0  0  0  0  0  0  0  0  0  0  0
   48.2970   23.6990   49.3130 C   0  0  0  0  0  0  0  0  0  0  0  0
   46.9620   23.0750   49.0560 C   0  0  0  0  0  0  0  0  0  0  0  0
   43.9133   36.0414   45.9096 H   0  0  0  0  0  0  0  0  0  0  0  0
   44.3068   37.6651   44.0052 H   0  0  0  0  0  0  0  0  0  0  0  0
   45.7661   36.9235   42.0589 H   0  0  0  0  0  0  0  0  0  0  0  0
   48.2021   33.1912   42.7700 H   0  0  0  0  0  0  0  0  0  0  0  0
   43.7030   26.2626   46.0532 H   0  0  0  0  0  0  0  0  0  0  0  0
   43.4007   24.7406   48.3211 H   0  0  0  0  0  0  0  0  0  0  0  0
   46.6413   25.3381   50.5081 H   0  0  0  0  0  0  0  0  0  0  0  0
   44.8663   25.0327   50.7504 H   0  0  0  0  0  0  0  0  0  0  0  0
   45.9659   23.6571   52.0721 H   0  0  0  0  0  0  0  0  0  0  0  0
   45.9892   21.9581   51.4208 H   0  0  0  0  0  0  0  0  0  0  0  0
   48.1160   23.1208   52.4990 H   0  0  0  0  0  0  0  0  0  0  0  0
   48.1847   21.9356   51.1118 H   0  0  0  0  0  0  0  0  0  0  0  0
   48.3337   24.6832   48.8231 H   0  0  0  0  0  0  0  0  0  0  0  0
   49.0759   23.0360   48.9083 H   0  0  0  0  0  0  0  0  0  0  0  0
   46.6369   23.3592   48.0443 H   0  0  0  0  0  0  0  0  0  0  0  0
   47.0922   21.9888   49.1711 H   0  0  0  0  0  0  0  0  0  0  0  0
  1  5  1  0
  2  1  2  0
  2  3  1  0
  3  4  1  0
  4 17  1  0
  5  4  2  0
  7  6  2  0
  8  9  2  0
  8  7  1  0
  9 10  1  0
 10 12  1  0
 10 11  2  0
 11  6  1  0
 12 16  1  0
 13 14  2  0
 13 12  1  0
 14 15  1  0
 15 16  2  0
 15  1  1  0
 17 21  1  0
 18 17  2  0
 18 19  1  0
 19 20  2  0
 20 22  1  0
 21 20  1  0
 23 22  1  0
 23 24  1  0
 24 25  1  0
 26 25  1  0
 27 26  1  0
 28 27  1  0
 28 23  1  0
  6 29  1  0
  7 30  1  0
  8 31  1  0
 13 32  1  0
 18 33  1  0
 19 34  1  0
 22 35  1  0
 22 36  1  0
 24 37  1  0
 24 38  1  0
 25 39  1  0
 25 40  1  0
 27 41  1  0
 27 42  1  0
 28 43  1  0
 28 44  1  0
M  ISO  8  29  14  30  14  31  14  32  14  33  14  34  14  35   8  36   8
M  ISO  8  37  13  38  13  39  13  40  13  41  13  42  13  43  13  44  13
M  END
>  <minimizedAffinity>  (1) 
-4.72648811

>  <minimizedRMSD>  (1) 
1.00343573

$$$$
