
     RDKit          3D

 27 29  0  0  0  0  0  0  0  0999 V2000
   47.8560   34.5610   42.7840 C   0  0  0  0  0  0  0  0  0  0  0  0
   46.6380   35.0160   42.3020 C   0  0  0  0  0  0  0  0  0  0  0  0
   45.4790   34.3690   42.7420 C   0  0  0  0  0  0  0  0  0  0  0  0
   45.6040   33.3440   43.6050 N   0  0  0  0  0  0  0  0  0  0  0  0
   46.7860   32.9180   44.0600 C   0  0  0  0  0  0  0  0  0  0  0  0
   47.8710   33.5400   43.6340 N   0  0  0  0  0  0  0  0  0  0  0  0
   47.1240   31.8270   44.9920 C   0  0  0  0  0  0  0  0  0  0  0  0
   47.9120   30.7700   44.6690 N   0  0  0  0  0  0  0  0  0  0  0  0
   48.2210   29.7800   45.5060 C   0  0  0  0  0  0  0  0  0  0  0  0
   47.7730   29.7370   46.7700 N   0  0  0  0  0  0  0  0  0  0  0  0
   46.9840   30.7400   47.1810 C   0  0  0  0  0  0  0  0  0  0  0  0
   46.5160   30.7070   48.4760 C   0  0  0  0  0  0  0  0  0  0  0  0
   45.7020   31.7080   48.9580 C   0  0  0  0  0  0  0  0  0  0  0  0
   45.3810   32.7440   48.0720 C   0  0  0  0  0  0  0  0  0  0  0  0
   45.8720   32.7250   46.8060 C   0  0  0  0  0  0  0  0  0  0  0  0
   46.6860   31.7440   46.2920 C   0  0  0  0  0  0  0  0  0  0  0  0
   49.1000   35.2060   42.3660 C   0  0  0  0  0  0  0  0  0  0  0  0
   49.0860   35.8580   41.3050 O   0  0  0  0  0  0  0  0  0  0  0  0
   50.2440   35.0720   43.1550 O   0  0  0  0  0  0  0  0  0  0  0  0
   46.5852   35.8584   41.5966 H   0  0  0  0  0  0  0  0  0  0  0  0
   44.4875   34.6906   42.3906 H   0  0  0  0  0  0  0  0  0  0  0  0
   48.8684   28.9666   45.1466 H   0  0  0  0  0  0  0  0  0  0  0  0
   46.7959   29.8707   49.1335 H   0  0  0  0  0  0  0  0  0  0  0  0
   45.3219   31.6944   49.9902 H   0  0  0  0  0  0  0  0  0  0  0  0
   44.7334   33.5703   48.4004 H   0  0  0  0  0  0  0  0  0  0  0  0
   45.5975   33.5577   46.1417 H   0  0  0  0  0  0  0  0  0  0  0  0
   51.0898   35.5059   42.8783 H   0  0  0  0  0  0  0  0  0  0  0  0
  1  6  2  0
  2  3  2  0
  2  1  1  0
  3  4  1  0
  4  5  2  0
  5  7  1  0
  6  5  1  0
  7 16  1  0
  8  7  2  0
  8  9  1  0
  9 10  2  0
 10 11  1  0
 11 12  2  0
 12 13  1  0
 14 13  2  0
 15 14  1  0
 16 15  2  0
 16 11  1  0
 17  1  1  0
 17 19  1  0
 18 17  2  0
  2 20  1  0
  3 21  1  0
  9 22  1  0
 12 23  1  0
 13 24  1  0
 14 25  1  0
 15 26  1  0
 19 27  1  0
M  ISO  8  20  14  21  14  22  14  23  14  24  14  25  14  26  14  27   3
M  END
>  <minimizedAffinity>  (1) 
-5.82544708

>  <minimizedRMSD>  (1) 
2.44082117

$$$$
