
     RDKit          3D

 23 24  0  0  0  0  0  0  0  0999 V2000
   47.8180   34.6720   42.4530 C   0  0  0  0  0  0  0  0  0  0  0  0
   46.8770   34.6310   41.4250 C   0  0  0  0  0  0  0  0  0  0  0  0
   45.6610   33.9940   41.6710 C   0  0  0  0  0  0  0  0  0  0  0  0
   45.4510   33.4400   42.9040 N   0  0  0  0  0  0  0  0  0  0  0  0
   46.3950   33.5040   43.8740 C   0  0  0  0  0  0  0  0  0  0  0  0
   47.5530   34.1150   43.6330 N   0  0  0  0  0  0  0  0  0  0  0  0
   46.1110   32.8920   45.1810 C   0  0  0  0  0  0  0  0  0  0  0  0
   46.4120   31.5510   45.3580 C   0  0  0  0  0  0  0  0  0  0  0  0
   46.1430   30.9950   46.5800 C   0  0  0  0  0  0  0  0  0  0  0  0
   45.5860   31.7360   47.6230 C   0  0  0  0  0  0  0  0  0  0  0  0
   45.2950   33.0790   47.4190 C   0  0  0  0  0  0  0  0  0  0  0  0
   45.5660   33.6400   46.1860 C   0  0  0  0  0  0  0  0  0  0  0  0
   49.0890   35.3360   42.2060 C   0  0  0  0  0  0  0  0  0  0  0  0
   49.1950   36.0990   41.2020 O   0  0  0  0  0  0  0  0  0  0  0  0
   50.1600   35.1210   43.0750 O   0  0  0  0  0  0  0  0  0  0  0  0
   47.0879   35.0884   40.4471 H   0  0  0  0  0  0  0  0  0  0  0  0
   44.8877   33.9383   40.8907 H   0  0  0  0  0  0  0  0  0  0  0  0
   46.8516   30.9541   44.5453 H   0  0  0  0  0  0  0  0  0  0  0  0
   46.3729   29.9320   46.7445 H   0  0  0  0  0  0  0  0  0  0  0  0
   45.3800   31.2627   48.5944 H   0  0  0  0  0  0  0  0  0  0  0  0
   44.8564   33.6852   48.2253 H   0  0  0  0  0  0  0  0  0  0  0  0
   45.3401   34.7023   46.0112 H   0  0  0  0  0  0  0  0  0  0  0  0
   51.0273   35.5699   42.9123 H   0  0  0  0  0  0  0  0  0  0  0  0
  1  6  2  0
  2  3  2  0
  2  1  1  0
  3  4  1  0
  4  5  2  0
  5  7  1  0
  6  5  1  0
  7  8  2  0
  7 12  1  0
  8  9  1  0
  9 10  2  0
 11 10  1  0
 12 11  2  0
 13  1  1  0
 13 15  1  0
 14 13  2  0
  2 16  1  0
  3 17  1  0
  8 18  1  0
  9 19  1  0
 10 20  1  0
 11 21  1  0
 12 22  1  0
 15 23  1  0
M  ISO  8  16  14  17  14  18  14  19  14  20  14  21  14  22  14  23   3
M  END
>  <minimizedAffinity>  (1) 
-4.95051193

>  <minimizedRMSD>  (1) 
0.715312183

$$$$
