
     RDKit          3D

 28 29  0  0  0  0  0  0  0  0999 V2000
   47.8850   34.6390   42.3810 C   0  0  0  0  0  0  0  0  0  0  0  0
   47.0170   34.5370   41.2900 C   0  0  0  0  0  0  0  0  0  0  0  0
   45.8240   33.8300   41.4720 C   0  0  0  0  0  0  0  0  0  0  0  0
   45.5640   33.2770   42.6960 N   0  0  0  0  0  0  0  0  0  0  0  0
   46.4360   33.4090   43.7060 C   0  0  0  0  0  0  0  0  0  0  0  0
   47.5880   34.0780   43.5700 N   0  0  0  0  0  0  0  0  0  0  0  0
   46.0930   32.8050   44.9480 N   0  0  0  0  0  0  0  0  0  0  0  0
   45.6430   33.6560   46.0470 C   0  0  0  0  0  0  0  0  0  0  0  0
   45.5640   32.7820   47.2920 C   0  0  0  0  0  0  0  0  0  0  0  0
   46.8870   32.0900   47.4480 C   0  0  0  0  0  0  0  0  0  0  0  0
   47.0750   31.0730   46.3470 C   0  0  0  0  0  0  0  0  0  0  0  0
   46.1650   31.3780   45.1900 C   0  0  0  0  0  0  0  0  0  0  0  0
   49.1350   35.3740   42.2040 C   0  0  0  0  0  0  0  0  0  0  0  0
   49.2490   36.1930   41.2650 O   0  0  0  0  0  0  0  0  0  0  0  0
   50.1860   35.1570   43.0780 O   0  0  0  0  0  0  0  0  0  0  0  0
   47.2637   34.9969   40.3217 H   0  0  0  0  0  0  0  0  0  0  0  0
   45.1070   33.7205   40.6450 H   0  0  0  0  0  0  0  0  0  0  0  0
   46.3595   34.4752   46.2067 H   0  0  0  0  0  0  0  0  0  0  0  0
   44.6628   34.1005   45.8198 H   0  0  0  0  0  0  0  0  0  0  0  0
   45.3608   33.4054   48.1752 H   0  0  0  0  0  0  0  0  0  0  0  0
   44.7528   32.0454   47.1950 H   0  0  0  0  0  0  0  0  0  0  0  0
   47.6951   32.8346   47.3971 H   0  0  0  0  0  0  0  0  0  0  0  0
   46.9116   31.5761   48.4203 H   0  0  0  0  0  0  0  0  0  0  0  0
   48.1196   31.1000   46.0033 H   0  0  0  0  0  0  0  0  0  0  0  0
   46.8313   30.0744   46.7387 H   0  0  0  0  0  0  0  0  0  0  0  0
   45.1569   31.0001   45.4159 H   0  0  0  0  0  0  0  0  0  0  0  0
   46.5669   30.8898   44.2899 H   0  0  0  0  0  0  0  0  0  0  0  0
   51.0356   35.6521   42.9632 H   0  0  0  0  0  0  0  0  0  0  0  0
  1  6  2  0
  2  3  2  0
  2  1  1  0
  3  4  1  0
  4  5  2  0
  5  7  1  0
  6  5  1  0
  7 12  1  0
  7  8  1  0
  8  9  1  0
  9 10  1  0
 11 10  1  0
 12 11  1  0
 13  1  1  0
 13 15  1  0
 14 13  2  0
  2 16  1  0
  3 17  1  0
  8 18  1  0
  8 19  1  0
  9 20  1  0
  9 21  1  0
 10 22  1  0
 10 23  1  0
 11 24  1  0
 11 25  1  0
 12 26  1  0
 12 27  1  0
 15 28  1  0
M  ISO  8  16  14  17  14  18  13  19  13  20  13  21  13  22  13  23  13
M  ISO  5  24  13  25  13  26  13  27  13  28   3
M  END
>  <minimizedAffinity>  (1) 
-5.17409992

>  <minimizedRMSD>  (1) 
0.499520987

$$$$
