
     RDKit          3D

 20 21  0  0  0  0  0  0  0  0999 V2000
   47.8240   34.6850   42.3800 C   0  0  0  0  0  0  0  0  0  0  0  0
   46.9300   34.6440   41.3120 C   0  0  0  0  0  0  0  0  0  0  0  0
   45.7070   33.9910   41.4810 C   0  0  0  0  0  0  0  0  0  0  0  0
   45.4400   33.4200   42.6870 N   0  0  0  0  0  0  0  0  0  0  0  0
   46.3340   33.4800   43.7000 C   0  0  0  0  0  0  0  0  0  0  0  0
   47.5120   34.1030   43.5550 N   0  0  0  0  0  0  0  0  0  0  0  0
   46.1140   32.8950   45.0040 C   0  0  0  0  0  0  0  0  0  0  0  0
   45.7840   33.4570   46.1930 C   0  0  0  0  0  0  0  0  0  0  0  0
   45.6300   32.6730   47.3080 C   0  0  0  0  0  0  0  0  0  0  0  0
   45.8300   31.3070   47.1230 C   0  0  0  0  0  0  0  0  0  0  0  0
   46.2450   31.1760   45.3180 S   0  0  0  0  0  0  0  0  0  0  0  0
   49.0980   35.3640   42.2060 C   0  0  0  0  0  0  0  0  0  0  0  0
   49.2420   36.1650   41.2590 O   0  0  0  0  0  0  0  0  0  0  0  0
   50.1310   35.1030   43.1070 O   0  0  0  0  0  0  0  0  0  0  0  0
   47.1831   35.1179   40.3521 H   0  0  0  0  0  0  0  0  0  0  0  0
   44.9775   33.9395   40.6593 H   0  0  0  0  0  0  0  0  0  0  0  0
   45.6393   34.5451   46.2637 H   0  0  0  0  0  0  0  0  0  0  0  0
   45.3649   33.0969   48.2878 H   0  0  0  0  0  0  0  0  0  0  0  0
   45.7591   30.5000   47.8672 H   0  0  0  0  0  0  0  0  0  0  0  0
   51.0048   35.5566   43.0032 H   0  0  0  0  0  0  0  0  0  0  0  0
  1  6  2  0
  2  3  2  0
  2  1  1  0
  3  4  1  0
  4  5  2  0
  5  7  1  0
  6  5  1  0
  7 11  1  0
  7  8  2  0
  8  9  1  0
 10  9  2  0
 11 10  1  0
 12  1  1  0
 12 14  1  0
 13 12  2  0
  2 15  1  0
  3 16  1  0
  8 17  1  0
  9 18  1  0
 10 19  1  0
 14 20  1  0
M  ISO  6  15  14  16  14  17  14  18  14  19  14  20   3
M  END
>  <minimizedAffinity>  (1) 
-4.66097832

>  <minimizedRMSD>  (1) 
0.81626296

$$$$
