
     RDKit          3D

 22 23  0  0  0  0  0  0  0  0999 V2000
   47.8480   34.6390   42.4590 C   0  0  0  0  0  0  0  0  0  0  0  0
   46.9290   34.6720   41.4120 C   0  0  0  0  0  0  0  0  0  0  0  0
   45.7110   34.0150   41.6020 C   0  0  0  0  0  0  0  0  0  0  0  0
   45.4900   33.3860   42.7810 N   0  0  0  0  0  0  0  0  0  0  0  0
   46.4090   33.3790   43.7690 C   0  0  0  0  0  0  0  0  0  0  0  0
   47.5870   34.0090   43.6000 N   0  0  0  0  0  0  0  0  0  0  0  0
   46.1580   32.6930   45.0440 C   0  0  0  0  0  0  0  0  0  0  0  0
   45.7610   33.4810   46.1320 C   0  0  0  0  0  0  0  0  0  0  0  0
   45.5180   32.8570   47.3420 C   0  0  0  0  0  0  0  0  0  0  0  0
   45.6930   31.4890   47.3680 C   0  0  0  0  0  0  0  0  0  0  0  0
   46.0900   30.6920   46.2880 C   0  0  0  0  0  0  0  0  0  0  0  0
   46.3050   31.3660   45.1580 N   0  0  0  0  0  0  0  0  0  0  0  0
   49.1310   35.3230   42.2790 C   0  0  0  0  0  0  0  0  0  0  0  0
   49.2580   36.1400   41.3220 O   0  0  0  0  0  0  0  0  0  0  0  0
   50.1840   35.0720   43.1520 O   0  0  0  0  0  0  0  0  0  0  0  0
   47.1542   35.1957   40.4713 H   0  0  0  0  0  0  0  0  0  0  0  0
   44.9472   34.0086   40.8105 H   0  0  0  0  0  0  0  0  0  0  0  0
   45.6453   34.5698   46.0265 H   0  0  0  0  0  0  0  0  0  0  0  0
   45.2030   33.4197   48.2332 H   0  0  0  0  0  0  0  0  0  0  0  0
   45.5035   30.9784   48.3237 H   0  0  0  0  0  0  0  0  0  0  0  0
   46.2141   29.6017   46.3651 H   0  0  0  0  0  0  0  0  0  0  0  0
   51.0503   35.5352   43.0288 H   0  0  0  0  0  0  0  0  0  0  0  0
  1  6  2  0
  2  3  2  0
  2  1  1  0
  3  4  1  0
  4  5  2  0
  5  7  1  0
  6  5  1  0
  7 12  1  0
  7  8  2  0
  8  9  1  0
  9 10  2  0
 11 10  1  0
 12 11  2  0
 13  1  1  0
 13 15  1  0
 14 13  2  0
  2 16  1  0
  3 17  1  0
  8 18  1  0
  9 19  1  0
 10 20  1  0
 11 21  1  0
 15 22  1  0
M  ISO  7  16  14  17  14  18  14  19  14  20  14  21  14  22   3
M  END
>  <minimizedAffinity>  (1) 
-4.85975838

>  <minimizedRMSD>  (1) 
0.918874264

$$$$
