
     RDKit          3D

 20 21  0  0  0  0  0  0  0  0999 V2000
   47.8840   34.6360   42.4030 C   0  0  0  0  0  0  0  0  0  0  0  0
   46.9850   34.5630   41.3450 C   0  0  0  0  0  0  0  0  0  0  0  0
   45.7850   33.8570   41.5610 C   0  0  0  0  0  0  0  0  0  0  0  0
   45.5890   33.2940   42.7950 N   0  0  0  0  0  0  0  0  0  0  0  0
   46.4950   33.3970   43.7800 C   0  0  0  0  0  0  0  0  0  0  0  0
   47.6360   34.0640   43.5870 N   0  0  0  0  0  0  0  0  0  0  0  0
   46.2330   32.7870   45.0460 N   0  0  0  0  0  0  0  0  0  0  0  0
   46.3470   31.4960   45.3800 N   0  0  0  0  0  0  0  0  0  0  0  0
   46.0000   31.3670   46.6730 C   0  0  0  0  0  0  0  0  0  0  0  0
   45.6560   32.6010   47.1840 C   0  0  0  0  0  0  0  0  0  0  0  0
   45.8110   33.4870   46.1370 C   0  0  0  0  0  0  0  0  0  0  0  0
   49.1360   35.3710   42.1830 C   0  0  0  0  0  0  0  0  0  0  0  0
   49.2460   36.1670   41.2290 O   0  0  0  0  0  0  0  0  0  0  0  0
   50.2060   35.1710   43.0500 O   0  0  0  0  0  0  0  0  0  0  0  0
   47.2021   35.0380   40.3769 H   0  0  0  0  0  0  0  0  0  0  0  0
   45.0309   33.7609   40.7660 H   0  0  0  0  0  0  0  0  0  0  0  0
   45.9918   30.4223   47.2365 H   0  0  0  0  0  0  0  0  0  0  0  0
   45.3278   32.8304   48.2085 H   0  0  0  0  0  0  0  0  0  0  0  0
   45.6260   34.5706   46.1762 H   0  0  0  0  0  0  0  0  0  0  0  0
   51.0545   35.6616   42.9105 H   0  0  0  0  0  0  0  0  0  0  0  0
  1  6  2  0
  2  3  2  0
  2  1  1  0
  3  4  1  0
  4  5  2  0
  5  7  1  0
  6  5  1  0
  7  8  1  0
  7 11  1  0
  8  9  2  0
  9 10  1  0
 11 10  2  0
 12  1  1  0
 12 14  1  0
 13 12  2  0
  2 15  1  0
  3 16  1  0
  9 17  1  0
 10 18  1  0
 11 19  1  0
 14 20  1  0
M  ISO  6  15  14  16  14  17  14  18  14  19  14  20   3
M  END
>  <minimizedAffinity>  (1) 
-4.80094862

>  <minimizedRMSD>  (1) 
0.592105448

$$$$
