
     RDKit          3D

 25 26  0  0  0  0  0  0  0  0999 V2000
   47.9560   34.6820   42.3770 C   0  0  0  0  0  0  0  0  0  0  0  0
   47.1350   34.5550   41.2380 C   0  0  0  0  0  0  0  0  0  0  0  0
   45.9340   33.8410   41.4090 C   0  0  0  0  0  0  0  0  0  0  0  0
   45.6270   33.3190   42.6370 N   0  0  0  0  0  0  0  0  0  0  0  0
   46.4570   33.4780   43.6790 C   0  0  0  0  0  0  0  0  0  0  0  0
   47.5980   34.1470   43.5480 N   0  0  0  0  0  0  0  0  0  0  0  0
   46.0800   32.9110   44.9270 N   0  0  0  0  0  0  0  0  0  0  0  0
   45.5820   33.7010   46.0390 C   0  0  0  0  0  0  0  0  0  0  0  0
   45.5550   32.7640   47.2270 C   0  0  0  0  0  0  0  0  0  0  0  0
   46.5590   31.7130   46.8010 C   0  0  0  0  0  0  0  0  0  0  0  0
   46.0990   31.5220   45.3510 C   0  0  0  0  0  0  0  0  0  0  0  0
   49.2050   35.4210   42.2100 C   0  0  0  0  0  0  0  0  0  0  0  0
   49.3230   36.2700   41.2990 O   0  0  0  0  0  0  0  0  0  0  0  0
   50.2500   35.1460   43.0990 O   0  0  0  0  0  0  0  0  0  0  0  0
   47.4176   34.9903   40.2681 H   0  0  0  0  0  0  0  0  0  0  0  0
   45.2465   33.7033   40.5614 H   0  0  0  0  0  0  0  0  0  0  0  0
   46.2519   34.5510   46.2360 H   0  0  0  0  0  0  0  0  0  0  0  0
   44.5861   34.1174   45.8275 H   0  0  0  0  0  0  0  0  0  0  0  0
   45.8724   33.2736   48.1487 H   0  0  0  0  0  0  0  0  0  0  0  0
   44.5575   32.3642   47.4620 H   0  0  0  0  0  0  0  0  0  0  0  0
   47.5937   32.0816   46.8611 H   0  0  0  0  0  0  0  0  0  0  0  0
   46.5815   30.8012   47.4159 H   0  0  0  0  0  0  0  0  0  0  0  0
   45.1022   31.0605   45.2931 H   0  0  0  0  0  0  0  0  0  0  0  0
   46.7255   30.8529   44.7429 H   0  0  0  0  0  0  0  0  0  0  0  0
   51.1107   35.6279   43.0154 H   0  0  0  0  0  0  0  0  0  0  0  0
  1  6  2  0
  2  3  2  0
  2  1  1  0
  3  4  1  0
  4  5  2  0
  5  7  1  0
  6  5  1  0
  7 11  1  0
  7  8  1  0
  8  9  1  0
 10  9  1  0
 11 10  1  0
 12  1  1  0
 12 14  1  0
 13 12  2  0
  2 15  1  0
  3 16  1  0
  8 17  1  0
  8 18  1  0
  9 19  1  0
  9 20  1  0
 10 21  1  0
 10 22  1  0
 11 23  1  0
 11 24  1  0
 14 25  1  0
M  ISO  8  15  14  16  14  17  13  18  13  19  13  20  13  21  13  22  13
M  ISO  3  23  13  24  13  25   3
M  END
>  <minimizedAffinity>  (1) 
-4.86427069

>  <minimizedRMSD>  (1) 
0.405425698

$$$$
