
     RDKit          3D

 25 27  0  0  0  0  0  0  0  0999 V2000
   47.2860   34.6140   42.7920 C   0  0  0  0  0  0  0  0  0  0  0  0
   46.1140   35.3050   42.5340 C   0  0  0  0  0  0  0  0  0  0  0  0
   45.0210   35.0860   43.3710 C   0  0  0  0  0  0  0  0  0  0  0  0
   45.1680   34.1960   44.4040 N   0  0  0  0  0  0  0  0  0  0  0  0
   46.3270   33.5530   44.6080 C   0  0  0  0  0  0  0  0  0  0  0  0
   47.3810   33.7570   43.8100 N   0  0  0  0  0  0  0  0  0  0  0  0
   46.4480   32.6310   45.6950 N   0  0  0  0  0  0  0  0  0  0  0  0
   45.9380   31.3880   45.7830 C   0  0  0  0  0  0  0  0  0  0  0  0
   46.2770   30.8420   46.9770 N   0  0  0  0  0  0  0  0  0  0  0  0
   47.0040   31.7900   47.5980 C   0  0  0  0  0  0  0  0  0  0  0  0
   47.0920   32.8470   46.8150 N   0  0  0  0  0  0  0  0  0  0  0  0
   48.4390   34.8390   41.9170 C   0  0  0  0  0  0  0  0  0  0  0  0
   48.8990   35.9980   41.7910 O   0  0  0  0  0  0  0  0  0  0  0  0
   49.0180   33.7830   41.2370 O   0  0  0  0  0  0  0  0  0  0  0  0
   48.3990   33.2850   40.0950 C   0  0  0  0  0  0  0  0  0  0  0  0
   47.9890   31.9670   39.9440 C   0  0  0  0  0  0  0  0  0  0  0  0
   47.2450   31.9470   38.2120 S   0  0  0  0  0  0  0  0  0  0  0  0
   47.6630   33.7930   38.0540 C   0  0  0  0  0  0  0  0  0  0  0  0
   48.1480   34.0490   39.0320 N   0  0  0  0  0  0  0  0  0  0  0  0
   46.0473   36.0082   41.6908 H   0  0  0  0  0  0  0  0  0  0  0  0
   44.0686   35.6116   43.2077 H   0  0  0  0  0  0  0  0  0  0  0  0
   45.3384   30.8917   45.0057 H   0  0  0  0  0  0  0  0  0  0  0  0
   47.4525   31.6974   48.5981 H   0  0  0  0  0  0  0  0  0  0  0  0
   48.0769   31.1369   40.6604 H   0  0  0  0  0  0  0  0  0  0  0  0
   47.4729   34.4585   37.1990 H   0  0  0  0  0  0  0  0  0  0  0  0
  1  6  1  0
  2  1  2  0
  2  3  1  0
  3  4  2  0
  4  5  1  0
  5  7  1  0
  6  5  2  0
  7  8  1  0
  7 11  1  0
  8  9  2  0
  9 10  1  0
 11 10  2  0
 12  1  1  0
 13 12  2  0
 14 12  1  0
 15 14  1  0
 16 15  2  0
 17 16  1  0
 18 17  1  0
 18 19  2  0
 19 15  1  0
  2 20  1  0
  3 21  1  0
  8 22  1  0
 10 23  1  0
 16 24  1  0
 18 25  1  0
M  ISO  6  20  14  21  14  22  14  23  14  24  14  25  14
M  END
>  <minimizedAffinity>  (1) 
-4.5243845

>  <minimizedRMSD>  (1) 
3.67254376

$$$$
