
     RDKit          3D

 26 28  0  0  0  0  0  0  0  0999 V2000
   46.2890   34.5380   41.9220 C   0  0  0  0  0  0  0  0  0  0  0  0
   47.2420   34.6630   42.9310 C   0  0  0  0  0  0  0  0  0  0  0  0
   48.5760   34.4660   42.5980 C   0  0  0  0  0  0  0  0  0  0  0  0
   48.8890   34.1580   41.2980 N   0  0  0  0  0  0  0  0  0  0  0  0
   47.9260   34.0500   40.3610 C   0  0  0  0  0  0  0  0  0  0  0  0
   46.6340   34.2380   40.6660 N   0  0  0  0  0  0  0  0  0  0  0  0
   48.2800   33.7280   39.0100 N   0  0  0  0  0  0  0  0  0  0  0  0
   48.6570   32.5130   38.5410 C   0  0  0  0  0  0  0  0  0  0  0  0
   48.9110   32.6170   37.2060 N   0  0  0  0  0  0  0  0  0  0  0  0
   48.6770   33.9000   36.9110 C   0  0  0  0  0  0  0  0  0  0  0  0
   48.3030   34.5400   38.0050 N   0  0  0  0  0  0  0  0  0  0  0  0
   44.8800   34.7440   42.2560 C   0  0  0  0  0  0  0  0  0  0  0  0
   44.3550   34.0100   43.1350 O   0  0  0  0  0  0  0  0  0  0  0  0
   44.1420   35.7210   41.6220 O   0  0  0  0  0  0  0  0  0  0  0  0
   42.8770   35.3660   41.1280 C   0  0  0  0  0  0  0  0  0  0  0  0
   42.5870   34.8760   39.8540 C   0  0  0  0  0  0  0  0  0  0  0  0
   41.2040   34.6970   39.9120 C   0  0  0  0  0  0  0  0  0  0  0  0
   40.7410   35.0670   41.1530 C   0  0  0  0  0  0  0  0  0  0  0  0
   41.7700   35.4530   41.8280 O   0  0  0  0  0  0  0  0  0  0  0  0
   46.9464   34.9105   43.9612 H   0  0  0  0  0  0  0  0  0  0  0  0
   49.3644   34.5550   43.3599 H   0  0  0  0  0  0  0  0  0  0  0  0
   48.7436   31.5942   39.1396 H   0  0  0  0  0  0  0  0  0  0  0  0
   48.7798   34.3521   35.9135 H   0  0  0  0  0  0  0  0  0  0  0  0
   43.2736   34.6806   39.0171 H   0  0  0  0  0  0  0  0  0  0  0  0
   40.5793   34.3176   39.0900 H   0  0  0  0  0  0  0  0  0  0  0  0
   39.6980   35.0392   41.5014 H   0  0  0  0  0  0  0  0  0  0  0  0
  1 12  1  0
  1  2  2  0
  3  2  1  0
  4  3  2  0
  5  6  2  0
  5  4  1  0
  6  1  1  0
  7  5  1  0
  8  7  1  0
  9  8  2  0
 10  9  1  0
 10 11  2  0
 11  7  1  0
 12 13  2  0
 14 12  1  0
 15 14  1  0
 15 19  1  0
 16 17  1  0
 16 15  2  0
 17 18  2  0
 18 19  1  0
  2 20  1  0
  3 21  1  0
  8 22  1  0
 10 23  1  0
 16 24  1  0
 17 25  1  0
 18 26  1  0
M  ISO  7  20  14  21  14  22  14  23  14  24  14  25  14  26  14
M  END
>  <minimizedAffinity>  (1) 
-4.76680517

>  <minimizedRMSD>  (1) 
7.66890955

$$$$
