
     RDKit          3D

 31 32  0  0  0  0  0  0  0  0999 V2000
   47.7160   34.7520   42.6880 C   0  0  0  0  0  0  0  0  0  0  0  0
   46.6040   35.3560   42.1370 C   0  0  0  0  0  0  0  0  0  0  0  0
   45.3440   35.0610   42.6870 C   0  0  0  0  0  0  0  0  0  0  0  0
   45.2790   34.1930   43.7390 N   0  0  0  0  0  0  0  0  0  0  0  0
   46.4070   33.6280   44.2400 C   0  0  0  0  0  0  0  0  0  0  0  0
   47.5870   33.9070   43.7220 N   0  0  0  0  0  0  0  0  0  0  0  0
   46.3000   32.7240   45.3410 N   0  0  0  0  0  0  0  0  0  0  0  0
   45.8510   31.4510   45.3310 C   0  0  0  0  0  0  0  0  0  0  0  0
   45.9140   30.9470   46.5890 N   0  0  0  0  0  0  0  0  0  0  0  0
   46.4020   31.9290   47.3380 C   0  0  0  0  0  0  0  0  0  0  0  0
   46.6250   32.9800   46.5750 N   0  0  0  0  0  0  0  0  0  0  0  0
   46.6520   31.8390   48.8150 C   0  0  0  0  0  0  0  0  0  0  0  0
   45.4040   31.2710   49.4830 C   0  0  0  0  0  0  0  0  0  0  0  0
   47.8240   30.9420   49.1420 C   0  0  0  0  0  0  0  0  0  0  0  0
   49.0350   35.0470   42.1290 C   0  0  0  0  0  0  0  0  0  0  0  0
   49.1320   35.9920   41.3080 O   0  0  0  0  0  0  0  0  0  0  0  0
   50.1360   34.2920   42.5090 O   0  0  0  0  0  0  0  0  0  0  0  0
   50.3530   33.0500   41.8890 C   0  0  0  0  0  0  0  0  0  0  0  0
   49.5000   33.0600   40.7710 F   0  0  0  0  0  0  0  0  0  0  0  0
   49.8570   32.0350   42.7060 F   0  0  0  0  0  0  0  0  0  0  0  0
   51.6510   32.8140   41.5510 F   0  0  0  0  0  0  0  0  0  0  0  0
   46.7010   36.0503   41.2894 H   0  0  0  0  0  0  0  0  0  0  0  0
   44.4311   35.5193   42.2789 H   0  0  0  0  0  0  0  0  0  0  0  0
   45.4913   30.9087   44.4441 H   0  0  0  0  0  0  0  0  0  0  0  0
   46.8856   32.8490   49.1829 H   0  0  0  0  0  0  0  0  0  0  0  0
   45.5174   31.3226   50.5759 H   0  0  0  0  0  0  0  0  0  0  0  0
   44.5252   31.8578   49.1774 H   0  0  0  0  0  0  0  0  0  0  0  0
   45.2693   30.2229   49.1774 H   0  0  0  0  0  0  0  0  0  0  0  0
   47.9301   30.8608   50.2339 H   0  0  0  0  0  0  0  0  0  0  0  0
   47.6515   29.9430   48.7150 H   0  0  0  0  0  0  0  0  0  0  0  0
   48.7432   31.3695   48.7150 H   0  0  0  0  0  0  0  0  0  0  0  0
  1  6  2  0
  2  3  2  0
  2  1  1  0
  3  4  1  0
  4  5  2  0
  5  7  1  0
  6  5  1  0
  7 11  1  0
  8  7  1  0
  8  9  2  0
  9 10  1  0
 10 12  1  0
 11 10  2  0
 12 14  1  0
 12 13  1  0
 15 17  1  0
 15  1  1  0
 16 15  2  0
 18 17  1  0
 18 20  1  0
 19 18  1  0
 21 18  1  0
  2 22  1  0
  3 23  1  0
  8 24  1  0
 12 25  1  0
 13 26  1  0
 13 27  1  0
 13 28  1  0
 14 29  1  0
 14 30  1  0
 14 31  1  0
M  ISO  8  22  14  23  14  24  14  25   8  26   8  27   8  28   8  29   8
M  ISO  2  30   8  31   8
M  END
>  <minimizedAffinity>  (1) 
-5.64390707

>  <minimizedRMSD>  (1) 
0.382274896

$$$$
