
     RDKit          3D

 25 26  0  0  0  0  0  0  0  0999 V2000
   47.7970   34.5660   42.8700 C   0  0  0  0  0  0  0  0  0  0  0  0
   46.7070   35.1960   42.2970 C   0  0  0  0  0  0  0  0  0  0  0  0
   45.4260   34.8810   42.7870 C   0  0  0  0  0  0  0  0  0  0  0  0
   45.3110   33.9730   43.8010 N   0  0  0  0  0  0  0  0  0  0  0  0
   46.4160   33.3820   44.3300 C   0  0  0  0  0  0  0  0  0  0  0  0
   47.6170   33.6880   43.8580 N   0  0  0  0  0  0  0  0  0  0  0  0
   46.2720   32.4400   45.3820 N   0  0  0  0  0  0  0  0  0  0  0  0
   45.8310   31.1710   45.3100 C   0  0  0  0  0  0  0  0  0  0  0  0
   45.8450   30.6080   46.5400 N   0  0  0  0  0  0  0  0  0  0  0  0
   46.3060   31.5750   47.3520 C   0  0  0  0  0  0  0  0  0  0  0  0
   46.5530   32.6510   46.6400 N   0  0  0  0  0  0  0  0  0  0  0  0
   49.1230   34.8860   42.3690 C   0  0  0  0  0  0  0  0  0  0  0  0
   49.2820   35.9450   41.7060 O   0  0  0  0  0  0  0  0  0  0  0  0
   50.1840   34.0220   42.6300 O   0  0  0  0  0  0  0  0  0  0  0  0
   50.3510   32.8900   41.8320 C   0  0  0  0  0  0  0  0  0  0  0  0
   49.5020   33.0810   40.7390 F   0  0  0  0  0  0  0  0  0  0  0  0
   49.8220   31.7740   42.4950 F   0  0  0  0  0  0  0  0  0  0  0  0
   51.6480   32.6620   41.4680 F   0  0  0  0  0  0  0  0  0  0  0  0
   46.5460   31.5730   48.7920 C   0  0  0  0  0  0  0  0  0  0  0  0
   47.5410   31.0840   49.3900 O   0  0  0  0  0  0  0  0  0  0  0  0
   45.6770   32.1300   49.7230 O   0  0  0  0  0  0  0  0  0  0  0  0
   46.8378   35.9226   41.4815 H   0  0  0  0  0  0  0  0  0  0  0  0
   44.5316   35.3584   42.3603 H   0  0  0  0  0  0  0  0  0  0  0  0
   45.5071   30.6662   44.3879 H   0  0  0  0  0  0  0  0  0  0  0  0
   45.8971   32.0963   50.6876 H   0  0  0  0  0  0  0  0  0  0  0  0
  1  6  2  0
  2  3  2  0
  2  1  1  0
  3  4  1  0
  4  5  2  0
  5  7  1  0
  6  5  1  0
  7 11  1  0
  8  7  1  0
  8  9  2  0
  9 10  1  0
 10 19  1  0
 11 10  2  0
 12 14  1  0
 12  1  1  0
 13 12  2  0
 15 17  1  0
 15 14  1  0
 16 15  1  0
 18 15  1  0
 19 20  2  0
 19 21  1  0
  2 22  1  0
  3 23  1  0
  8 24  1  0
 21 25  1  0
M  ISO  4  22  14  23  14  24  14  25   3
M  END
>  <minimizedAffinity>  (1) 
-5.52326107

>  <minimizedRMSD>  (1) 
0.46430999

$$$$
