
     RDKit          3D

 35 37  0  0  0  0  0  0  0  0999 V2000
   47.2270   34.6480   42.7880 C   0  0  0  0  0  0  0  0  0  0  0  0
   46.1600   35.5090   42.8520 C   0  0  0  0  0  0  0  0  0  0  0  0
   45.1600   35.2690   43.8110 C   0  0  0  0  0  0  0  0  0  0  0  0
   45.2970   34.1900   44.6350 N   0  0  0  0  0  0  0  0  0  0  0  0
   46.3680   33.3680   44.5350 C   0  0  0  0  0  0  0  0  0  0  0  0
   47.3030   33.6030   43.6280 N   0  0  0  0  0  0  0  0  0  0  0  0
   46.4820   32.2530   45.4070 N   0  0  0  0  0  0  0  0  0  0  0  0
   45.8160   31.0850   45.3680 C   0  0  0  0  0  0  0  0  0  0  0  0
   46.2360   30.2940   46.4000 N   0  0  0  0  0  0  0  0  0  0  0  0
   47.1570   31.0130   47.0420 C   0  0  0  0  0  0  0  0  0  0  0  0
   47.2830   32.1680   46.4350 N   0  0  0  0  0  0  0  0  0  0  0  0
   47.8770   30.5330   48.2320 C   0  0  0  0  0  0  0  0  0  0  0  0
   48.7090   31.6410   48.8900 C   0  0  0  0  0  0  0  0  0  0  0  0
   49.3310   30.7800   49.9990 C   0  0  0  0  0  0  0  0  0  0  0  0
   49.7360   29.5090   49.2450 C   0  0  0  0  0  0  0  0  0  0  0  0
   48.9240   29.5020   47.9720 C   0  0  0  0  0  0  0  0  0  0  0  0
   48.2780   34.8830   41.7970 C   0  0  0  0  0  0  0  0  0  0  0  0
   48.8610   36.0030   41.8080 O   0  0  0  0  0  0  0  0  0  0  0  0
   48.6080   33.8890   40.8780 O   0  0  0  0  0  0  0  0  0  0  0  0
   48.0070   33.9100   39.6220 C   0  0  0  0  0  0  0  0  0  0  0  0
   48.4710   35.0860   38.9970 F   0  0  0  0  0  0  0  0  0  0  0  0
   46.6310   34.1210   39.7750 F   0  0  0  0  0  0  0  0  0  0  0  0
   48.2360   32.7960   38.8750 F   0  0  0  0  0  0  0  0  0  0  0  0
   46.0887   36.3677   42.1683 H   0  0  0  0  0  0  0  0  0  0  0  0
   44.2885   35.9349   43.8949 H   0  0  0  0  0  0  0  0  0  0  0  0
   45.0542   30.8102   44.6235 H   0  0  0  0  0  0  0  0  0  0  0  0
   47.0487   30.1404   48.8401 H   0  0  0  0  0  0  0  0  0  0  0  0
   49.4648   32.0595   48.2091 H   0  0  0  0  0  0  0  0  0  0  0  0
   48.1622   32.5388   49.2140 H   0  0  0  0  0  0  0  0  0  0  0  0
   50.2074   31.2754   50.4424 H   0  0  0  0  0  0  0  0  0  0  0  0
   48.6496   30.5914   50.8417 H   0  0  0  0  0  0  0  0  0  0  0  0
   50.8109   29.5291   49.0123 H   0  0  0  0  0  0  0  0  0  0  0  0
   49.5487   28.6074   49.8466 H   0  0  0  0  0  0  0  0  0  0  0  0
   48.4712   28.5147   47.7980 H   0  0  0  0  0  0  0  0  0  0  0  0
   49.5248   29.7129   47.0750 H   0  0  0  0  0  0  0  0  0  0  0  0
  1  2  2  0
  1  6  1  0
  2  3  1  0
  3  4  2  0
  5  4  1  0
  5  7  1  0
  6  5  2  0
  7 11  1  0
  8  7  1  0
  8  9  2  0
  9 10  1  0
 10 12  1  0
 11 10  2  0
 12 13  1  0
 13 14  1  0
 15 14  1  0
 16 12  1  0
 16 15  1  0
 17 18  2  0
 17  1  1  0
 19 17  1  0
 20 22  1  0
 20 19  1  0
 21 20  1  0
 23 20  1  0
  2 24  1  0
  3 25  1  0
  8 26  1  0
 12 27  1  0
 13 28  1  0
 13 29  1  0
 14 30  1  0
 14 31  1  0
 15 32  1  0
 15 33  1  0
 16 34  1  0
 16 35  1  0
M  ISO  8  24  14  25  14  26  14  27  13  28  13  29  13  30  13  31  13
M  ISO  4  32  13  33  13  34  13  35  13
M  END
>  <minimizedAffinity>  (1) 
-5.58653831

>  <minimizedRMSD>  (1) 
2.07095504

$$$$
