
     RDKit          3D

 34 35  0  0  0  0  0  0  0  0999 V2000
   47.7890   34.5460   42.7370 C   0  0  0  0  0  0  0  0  0  0  0  0
   46.7370   35.1980   42.1300 C   0  0  0  0  0  0  0  0  0  0  0  0
   45.4360   34.8370   42.5060 C   0  0  0  0  0  0  0  0  0  0  0  0
   45.2660   33.8630   43.4470 N   0  0  0  0  0  0  0  0  0  0  0  0
   46.3280   33.2570   44.0100 C   0  0  0  0  0  0  0  0  0  0  0  0
   47.5680   33.6010   43.6530 N   0  0  0  0  0  0  0  0  0  0  0  0
   46.1290   32.2460   44.9890 N   0  0  0  0  0  0  0  0  0  0  0  0
   45.7220   30.9700   44.8050 C   0  0  0  0  0  0  0  0  0  0  0  0
   45.6640   30.3420   46.0110 N   0  0  0  0  0  0  0  0  0  0  0  0
   46.0430   31.2670   46.9110 C   0  0  0  0  0  0  0  0  0  0  0  0
   46.3140   32.3890   46.2790 N   0  0  0  0  0  0  0  0  0  0  0  0
   46.1350   31.0370   48.3780 C   0  0  0  0  0  0  0  0  0  0  0  0
   45.1880   29.9690   48.8650 C   0  0  0  0  0  0  0  0  0  0  0  0
   45.7270   32.3130   49.1270 C   0  0  0  0  0  0  0  0  0  0  0  0
   47.5270   30.7030   48.8370 C   0  0  0  0  0  0  0  0  0  0  0  0
   49.1670   34.9030   42.3660 C   0  0  0  0  0  0  0  0  0  0  0  0
   49.3580   35.9920   41.7730 O   0  0  0  0  0  0  0  0  0  0  0  0
   50.2140   34.0550   42.6640 O   0  0  0  0  0  0  0  0  0  0  0  0
   50.4130   32.9200   41.8590 C   0  0  0  0  0  0  0  0  0  0  0  0
   49.5610   33.0960   40.7500 F   0  0  0  0  0  0  0  0  0  0  0  0
   49.8960   31.7930   42.5060 F   0  0  0  0  0  0  0  0  0  0  0  0
   51.7070   32.7090   41.4910 F   0  0  0  0  0  0  0  0  0  0  0  0
   46.9132   35.9774   41.3740 H   0  0  0  0  0  0  0  0  0  0  0  0
   44.5654   35.3309   42.0498 H   0  0  0  0  0  0  0  0  0  0  0  0
   45.4768   30.5124   43.8352 H   0  0  0  0  0  0  0  0  0  0  0  0
   45.1799   29.9599   49.9649 H   0  0  0  0  0  0  0  0  0  0  0  0
   44.1747   30.1799   48.4926 H   0  0  0  0  0  0  0  0  0  0  0  0
   45.5187   28.9882   48.4926 H   0  0  0  0  0  0  0  0  0  0  0  0
   45.7837   32.1358   50.2111 H   0  0  0  0  0  0  0  0  0  0  0  0
   46.4079   33.1324   48.8533 H   0  0  0  0  0  0  0  0  0  0  0  0
   44.6970   32.5853   48.8533 H   0  0  0  0  0  0  0  0  0  0  0  0
   47.5586   30.6954   49.9365 H   0  0  0  0  0  0  0  0  0  0  0  0
   47.8109   29.7112   48.4552 H   0  0  0  0  0  0  0  0  0  0  0  0
   48.2300   31.4579   48.4552 H   0  0  0  0  0  0  0  0  0  0  0  0
  1  6  2  0
  2  3  2  0
  2  1  1  0
  3  4  1  0
  4  5  2  0
  5  7  1  0
  6  5  1  0
  7 11  1  0
  8  7  1  0
  8  9  2  0
  9 10  1  0
 10 12  1  0
 11 10  2  0
 12 15  1  0
 12 13  1  0
 12 14  1  0
 16 18  1  0
 16  1  1  0
 17 16  2  0
 19 21  1  0
 19 18  1  0
 20 19  1  0
 22 19  1  0
  2 23  1  0
  3 24  1  0
  8 25  1  0
 13 26  1  0
 13 27  1  0
 13 28  1  0
 14 29  1  0
 14 30  1  0
 14 31  1  0
 15 32  1  0
 15 33  1  0
 15 34  1  0
M  ISO  8  23  14  24  14  25  14  26   8  27   8  28   8  29   8  30   8
M  ISO  4  31   8  32   8  33   8  34   8
M  END
>  <minimizedAffinity>  (1) 
-5.40967417

>  <minimizedRMSD>  (1) 
0.891928375

$$$$
