
     RDKit          3D

 25 26  0  0  0  0  0  0  0  0999 V2000
   47.7740   34.6290   42.7830 C   0  0  0  0  0  0  0  0  0  0  0  0
   46.6570   35.2360   42.2620 C   0  0  0  0  0  0  0  0  0  0  0  0
   45.4030   34.9360   42.8250 C   0  0  0  0  0  0  0  0  0  0  0  0
   45.3580   34.0560   43.8620 N   0  0  0  0  0  0  0  0  0  0  0  0
   46.4820   33.4800   44.3450 C   0  0  0  0  0  0  0  0  0  0  0  0
   47.6610   33.7750   43.8010 N   0  0  0  0  0  0  0  0  0  0  0  0
   46.3990   32.5670   45.4260 N   0  0  0  0  0  0  0  0  0  0  0  0
   45.9710   31.2840   45.4070 C   0  0  0  0  0  0  0  0  0  0  0  0
   46.0550   30.7710   46.6550 N   0  0  0  0  0  0  0  0  0  0  0  0
   46.5330   31.7490   47.4170 C   0  0  0  0  0  0  0  0  0  0  0  0
   46.7340   32.8190   46.6640 N   0  0  0  0  0  0  0  0  0  0  0  0
   49.0710   34.9390   42.2010 C   0  0  0  0  0  0  0  0  0  0  0  0
   49.1720   35.9190   41.4240 O   0  0  0  0  0  0  0  0  0  0  0  0
   50.1750   34.1450   42.5160 O   0  0  0  0  0  0  0  0  0  0  0  0
   50.3550   32.9400   41.8130 C   0  0  0  0  0  0  0  0  0  0  0  0
   49.5040   33.0360   40.7010 F   0  0  0  0  0  0  0  0  0  0  0  0
   49.8220   31.8780   42.5510 F   0  0  0  0  0  0  0  0  0  0  0  0
   51.6520   32.6980   41.4680 F   0  0  0  0  0  0  0  0  0  0  0  0
   46.8090   31.6810   48.8900 C   0  0  0  0  0  0  0  0  0  0  0  0
   46.7413   35.9417   41.4224 H   0  0  0  0  0  0  0  0  0  0  0  0
   44.4841   35.4001   42.4375 H   0  0  0  0  0  0  0  0  0  0  0  0
   45.6120   30.7443   44.5182 H   0  0  0  0  0  0  0  0  0  0  0  0
   45.8877   31.9080   49.4465 H   0  0  0  0  0  0  0  0  0  0  0  0
   47.1560   30.6705   49.1518 H   0  0  0  0  0  0  0  0  0  0  0  0
   47.5857   32.4146   49.1518 H   0  0  0  0  0  0  0  0  0  0  0  0
  1  6  2  0
  2  1  1  0
  2  3  2  0
  3  4  1  0
  4  5  2  0
  5  7  1  0
  6  5  1  0
  7 11  1  0
  8  7  1  0
  8  9  2  0
  9 10  1  0
 10 19  1  0
 11 10  2  0
 12 14  1  0
 12  1  1  0
 13 12  2  0
 15 14  1  0
 15 17  1  0
 16 15  1  0
 18 15  1  0
  2 20  1  0
  3 21  1  0
  8 22  1  0
 19 23  1  0
 19 24  1  0
 19 25  1  0
M  ISO  6  20  14  21  14  22  14  23   8  24   8  25   8
M  END
>  <minimizedAffinity>  (1) 
-4.98841572

>  <minimizedRMSD>  (1) 
0.204349488

$$$$
