
     RDKit          3D

 27 29  0  0  0  0  0  0  0  0999 V2000
   47.3660   34.6500   42.5980 C   0  0  0  0  0  0  0  0  0  0  0  0
   46.4090   35.6530   42.6070 C   0  0  0  0  0  0  0  0  0  0  0  0
   45.1240   35.3440   43.0560 C   0  0  0  0  0  0  0  0  0  0  0  0
   44.8610   34.0660   43.4670 N   0  0  0  0  0  0  0  0  0  0  0  0
   45.8230   33.1280   43.4400 C   0  0  0  0  0  0  0  0  0  0  0  0
   47.0490   33.4300   43.0100 N   0  0  0  0  0  0  0  0  0  0  0  0
   45.5280   31.8040   43.8730 N   0  0  0  0  0  0  0  0  0  0  0  0
   44.8100   30.8590   43.2290 C   0  0  0  0  0  0  0  0  0  0  0  0
   44.7640   29.7270   43.9890 N   0  0  0  0  0  0  0  0  0  0  0  0
   45.4630   30.0210   45.0810 C   0  0  0  0  0  0  0  0  0  0  0  0
   45.9120   31.2570   45.0000 N   0  0  0  0  0  0  0  0  0  0  0  0
   45.6570   29.0600   46.1630 C   0  0  0  0  0  0  0  0  0  0  0  0
   46.6880   28.3200   46.6130 N   0  0  0  0  0  0  0  0  0  0  0  0
   46.2820   27.6150   47.6450 O   0  0  0  0  0  0  0  0  0  0  0  0
   45.0080   27.8820   47.8750 C   0  0  0  0  0  0  0  0  0  0  0  0
   44.5790   28.7930   46.9550 N   0  0  0  0  0  0  0  0  0  0  0  0
   48.7090   34.9590   42.1330 C   0  0  0  0  0  0  0  0  0  0  0  0
   48.8530   35.8010   41.2070 O   0  0  0  0  0  0  0  0  0  0  0  0
   49.8130   34.3310   42.7090 O   0  0  0  0  0  0  0  0  0  0  0  0
   50.3150   33.1740   42.0990 C   0  0  0  0  0  0  0  0  0  0  0  0
   49.6010   33.0400   40.8950 F   0  0  0  0  0  0  0  0  0  0  0  0
   49.9230   32.0420   42.8310 F   0  0  0  0  0  0  0  0  0  0  0  0
   51.6590   33.1730   41.8950 F   0  0  0  0  0  0  0  0  0  0  0  0
   46.6568   36.6697   42.2679 H   0  0  0  0  0  0  0  0  0  0  0  0
   44.3380   36.1132   43.0789 H   0  0  0  0  0  0  0  0  0  0  0  0
   44.3357   30.9827   42.2442 H   0  0  0  0  0  0  0  0  0  0  0  0
   44.3953   27.4423   48.6758 H   0  0  0  0  0  0  0  0  0  0  0  0
  1  2  2  0
  1  6  1  0
  2  3  1  0
  3  4  2  0
  5  4  1  0
  5  7  1  0
  6  5  2  0
  7 11  1  0
  8  7  1  0
  8  9  2  0
  9 10  1  0
 10 12  1  0
 11 10  2  0
 12 13  2  0
 12 16  1  0
 13 14  1  0
 14 15  1  0
 16 15  2  0
 17  1  1  0
 17 19  1  0
 18 17  2  0
 20 19  1  0
 20 22  1  0
 21 20  1  0
 23 20  1  0
  2 24  1  0
  3 25  1  0
  8 26  1  0
 15 27  1  0
M  ISO  4  24  14  25  14  26  14  27  14
M  END
>  <minimizedAffinity>  (1) 
-4.49481535

>  <minimizedRMSD>  (1) 
2.68943191

$$$$
