
     RDKit          3D

 48 52  0  0  1  0  0  0  0  0999 V2000
   47.4000   34.5700   42.6750 C   0  0  0  0  0  0  0  0  0  0  0  0
   46.4200   35.5540   42.5500 C   0  0  0  0  0  0  0  0  0  0  0  0
   45.0870   35.2210   42.8560 C   0  0  0  0  0  0  0  0  0  0  0  0
   44.8110   33.9540   43.2600 N   0  0  0  0  0  0  0  0  0  0  0  0
   45.8070   33.0250   43.3660 C   0  0  0  0  0  0  0  0  0  0  0  0
   47.0590   33.3450   43.0770 N   0  0  0  0  0  0  0  0  0  0  0  0
   45.4800   31.7070   43.7940 N   0  0  0  0  0  0  0  0  0  0  0  0
   44.8600   30.7350   43.1020 C   0  0  0  0  0  0  0  0  0  0  0  0
   44.7480   29.6320   43.8950 N   0  0  0  0  0  0  0  0  0  0  0  0
   45.3010   29.9510   45.0540 C   0  0  0  0  0  0  0  0  0  0  0  0
   45.7260   31.1940   44.9600 N   0  0  0  0  0  0  0  0  0  0  0  0
   45.3530   29.0190   46.1240 N   0  0  0  0  0  0  0  0  0  0  0  0
   46.5120   28.7750   46.9700 C   0  0  0  0  0  0  0  0  0  0  0  0
   46.3130   27.4190   47.5420 C   0  0  0  0  0  0  0  0  0  0  0  0
   44.8160   27.2510   47.5200 C   0  0  0  0  0  0  0  0  0  0  0  0
   44.2550   28.1920   46.5170 C   0  0  2  0  0  0  0  0  0  0  0  0
   43.5020   27.5440   45.4410 C   0  0  0  0  0  0  0  0  0  0  0  0
   43.8490   26.3790   44.7670 C   0  0  0  0  0  0  0  0  0  0  0  0
   42.8710   26.1540   43.8800 N   0  0  0  0  0  0  0  0  0  0  0  0
   41.9290   27.1230   43.9670 C   0  0  0  0  0  0  0  0  0  0  0  0
   40.7850   27.2260   43.2120 C   0  0  0  0  0  0  0  0  0  0  0  0
   39.9330   28.2830   43.4230 C   0  0  0  0  0  0  0  0  0  0  0  0
   40.2770   29.1960   44.3960 C   0  0  0  0  0  0  0  0  0  0  0  0
   41.4280   29.0810   45.1480 C   0  0  0  0  0  0  0  0  0  0  0  0
   42.3060   28.0320   44.9620 C   0  0  0  0  0  0  0  0  0  0  0  0
   48.7830   34.8970   42.3630 C   0  0  0  0  0  0  0  0  0  0  0  0
   49.0130   35.8900   41.6180 O   0  0  0  0  0  0  0  0  0  0  0  0
   49.8100   34.1280   42.8770 O   0  0  0  0  0  0  0  0  0  0  0  0
   50.3220   33.0730   42.1040 C   0  0  0  0  0  0  0  0  0  0  0  0
   49.5760   33.0860   40.9090 F   0  0  0  0  0  0  0  0  0  0  0  0
   49.9730   31.8410   42.6830 F   0  0  0  0  0  0  0  0  0  0  0  0
   51.6610   33.1430   41.8730 F   0  0  0  0  0  0  0  0  0  0  0  0
   46.6831   36.5695   42.2191 H   0  0  0  0  0  0  0  0  0  0  0  0
   44.2864   35.9705   42.7698 H   0  0  0  0  0  0  0  0  0  0  0  0
   44.5017   30.8166   42.0652 H   0  0  0  0  0  0  0  0  0  0  0  0
   47.4359   28.8081   46.3739 H   0  0  0  0  0  0  0  0  0  0  0  0
   46.6084   29.5376   47.7568 H   0  0  0  0  0  0  0  0  0  0  0  0
   46.8047   26.6540   46.9231 H   0  0  0  0  0  0  0  0  0  0  0  0
   46.7443   27.3081   48.5478 H   0  0  0  0  0  0  0  0  0  0  0  0
   44.5619   26.2173   47.2429 H   0  0  0  0  0  0  0  0  0  0  0  0
   44.3965   27.4632   48.5145 H   0  0  0  0  0  0  0  0  0  0  0  0
   43.4572   28.8206   46.9394 H   0  0  0  0  0  0  0  0  0  0  0  0
   44.7470   25.7648   44.9295 H   0  0  0  0  0  0  0  0  0  0  0  0
   42.8399   25.3588   43.2261 H   0  0  0  0  0  0  0  0  0  0  0  0
   40.5541   26.4701   42.4469 H   0  0  0  0  0  0  0  0  0  0  0  0
   39.0095   28.3963   42.8363 H   0  0  0  0  0  0  0  0  0  0  0  0
   39.6081   30.0496   44.5803 H   0  0  0  0  0  0  0  0  0  0  0  0
   41.6507   29.8409   45.9116 H   0  0  0  0  0  0  0  0  0  0  0  0
  1  6  2  0
  2  1  1  0
  2  3  2  0
  3  4  1  0
  4  5  2  0
  5  7  1  0
  6  5  1  0
  7 11  1  0
  8  7  1  0
  8  9  2  0
  9 10  1  0
 10 12  1  0
 11 10  2  0
 12 16  1  0
 12 13  1  0
 13 14  1  0
 15 14  1  0
 16 15  1  0
 17 16  1  0
 18 17  2  0
 19 20  1  0
 19 18  1  0
 20 25  2  0
 21 22  2  0
 21 20  1  0
 22 23  1  0
 23 24  2  0
 25 24  1  0
 25 17  1  0
 26  1  1  0
 26 28  1  0
 27 26  2  0
 29 31  1  0
 29 28  1  0
 30 29  1  0
 32 29  1  0
  2 33  1  0
  3 34  1  0
  8 35  1  0
 13 36  1  0
 13 37  1  0
 14 38  1  0
 14 39  1  0
 15 40  1  0
 15 41  1  0
 16 42  1  1
 18 43  1  0
 19 44  1  0
 21 45  1  0
 22 46  1  0
 23 47  1  0
 24 48  1  0
M  ISO  8  33  14  34  14  35  14  36  13  37  13  38  13  39  13  40  13
M  ISO  8  41  13  42  13  43  14  44   9  45  14  46  14  47  14  48  14
M  END
>  <minimizedAffinity>  (1) 
-5.54343891

>  <minimizedRMSD>  (1) 
0.705274224

$$$$
