
     RDKit          3D

 25 26  0  0  0  0  0  0  0  0999 V2000
   47.8470   34.8650   41.6120 C   0  0  0  0  0  0  0  0  0  0  0  0
   47.5780   34.3790   40.2400 C   0  0  0  0  0  0  0  0  0  0  0  0
   48.4010   34.6670   39.1680 C   0  0  0  0  0  0  0  0  0  0  0  0
   48.2200   34.2390   37.8750 C   0  0  0  0  0  0  0  0  0  0  0  0
   47.1250   33.4680   37.6660 N   0  0  0  0  0  0  0  0  0  0  0  0
   46.2930   33.1680   38.7110 C   0  0  0  0  0  0  0  0  0  0  0  0
   46.4780   33.5930   39.9840 N   0  0  0  0  0  0  0  0  0  0  0  0
   44.8250   32.1590   38.5400 S   0  0  0  0  0  0  0  0  0  0  0  0
   47.3440   33.8440   42.5970 C   0  0  0  0  0  0  0  0  0  0  0  0
   44.6900   36.0150   44.2010 C   0  0  0  0  0  0  0  0  0  0  0  0
   45.6030   35.5280   43.2580 C   0  0  0  0  0  0  0  0  0  0  0  0
   46.3550   34.4060   43.5470 C   0  0  0  0  0  0  0  0  0  0  0  0
   46.1760   33.8090   44.7560 N   0  0  0  0  0  0  0  0  0  0  0  0
   45.2750   34.3090   45.6550 C   0  0  0  0  0  0  0  0  0  0  0  0
   44.5560   35.3850   45.3760 N   0  0  0  0  0  0  0  0  0  0  0  0
   47.3280   35.8213   41.7736 H   0  0  0  0  0  0  0  0  0  0  0  0
   48.9280   35.0152   41.7495 H   0  0  0  0  0  0  0  0  0  0  0  0
   49.2810   35.2960   39.3680 H   0  0  0  0  0  0  0  0  0  0  0  0
   48.9158   34.5038   37.0652 H   0  0  0  0  0  0  0  0  0  0  0  0
   44.3487   31.8316   39.7821 H   0  0  0  0  0  0  0  0  0  0  0  0
   46.8701   33.0218   42.0408 H   0  0  0  0  0  0  0  0  0  0  0  0
   48.2066   33.4939   43.1830 H   0  0  0  0  0  0  0  0  0  0  0  0
   44.0873   36.9080   43.9790 H   0  0  0  0  0  0  0  0  0  0  0  0
   45.7211   36.0372   42.2901 H   0  0  0  0  0  0  0  0  0  0  0  0
   45.1455   33.8088   46.6261 H   0  0  0  0  0  0  0  0  0  0  0  0
  1  9  1  0
  2  1  1  0
  3  2  2  0
  4  3  1  0
  5  4  2  0
  5  6  1  0
  6  7  2  0
  7  2  1  0
  8  6  1  0
  9 12  1  0
 10 15  2  0
 11 12  2  0
 11 10  1  0
 12 13  1  0
 13 14  2  0
 15 14  1  0
  1 16  1  0
  1 17  1  0
  3 18  1  0
  4 19  1  0
  8 20  1  0
  9 21  1  0
  9 22  1  0
 10 23  1  0
 11 24  1  0
 14 25  1  0
M  ISO  8  16   8  17   8  18  14  19  14  20  11  21   8  22   8  23  14
M  ISO  2  24  14  25  14
M  END
>  <minimizedAffinity>  (1) 
-4.3632021

>  <minimizedRMSD>  (1) 
0.0332314894

$$$$
