
     RDKit          3D

 50 53  0  0  1  0  0  0  0  0999 V2000
   47.3050   34.5960   42.5740 C   0  0  0  0  0  0  0  0  0  0  0  0
   46.3040   35.5420   42.3980 C   0  0  0  0  0  0  0  0  0  0  0  0
   44.9730   35.1640   42.6620 C   0  0  0  0  0  0  0  0  0  0  0  0
   44.7240   33.8940   43.0760 N   0  0  0  0  0  0  0  0  0  0  0  0
   45.7240   33.0090   43.2320 C   0  0  0  0  0  0  0  0  0  0  0  0
   46.9830   33.3740   42.9800 N   0  0  0  0  0  0  0  0  0  0  0  0
   45.4440   31.6840   43.6660 N   0  0  0  0  0  0  0  0  0  0  0  0
   44.9110   30.6560   42.9440 C   0  0  0  0  0  0  0  0  0  0  0  0
   44.8160   29.5540   43.7480 N   0  0  0  0  0  0  0  0  0  0  0  0
   45.2890   29.9410   44.9250 C   0  0  0  0  0  0  0  0  0  0  0  0
   45.6620   31.2100   44.8710 N   0  0  0  0  0  0  0  0  0  0  0  0
   45.3250   29.0300   46.0190 N   0  0  0  0  0  0  0  0  0  0  0  0
   46.4740   28.8190   46.8910 C   0  0  0  0  0  0  0  0  0  0  0  0
   46.2880   27.4770   47.4950 C   0  0  0  0  0  0  0  0  0  0  0  0
   44.8010   27.2850   47.4460 C   0  0  0  0  0  0  0  0  0  0  0  0
   44.2420   28.1910   46.4310 C   0  0  2  0  0  0  0  0  0  0  0  0
   43.3290   27.6560   45.4010 C   0  0  0  0  0  0  0  0  0  0  0  0
   42.8660   26.2040   45.6560 C   0  0  0  0  0  0  0  0  0  0  0  0
   42.1390   25.8000   44.3640 C   0  0  0  0  0  0  0  0  0  0  0  0
   40.9610   26.6440   44.0440 C   0  0  0  0  0  0  0  0  0  0  0  0
   41.2430   28.1310   44.2060 C   0  0  0  0  0  0  0  0  0  0  0  0
   41.9650   28.3970   45.4850 C   0  0  0  0  0  0  0  0  0  0  0  0
   48.6740   34.9790   42.3030 C   0  0  0  0  0  0  0  0  0  0  0  0
   48.9020   35.9500   41.5310 O   0  0  0  0  0  0  0  0  0  0  0  0
   49.7160   34.2750   42.8950 O   0  0  0  0  0  0  0  0  0  0  0  0
   50.3060   33.2160   42.1790 C   0  0  0  0  0  0  0  0  0  0  0  0
   49.6260   33.1630   40.9540 F   0  0  0  0  0  0  0  0  0  0  0  0
   49.9840   31.9990   42.8010 F   0  0  0  0  0  0  0  0  0  0  0  0
   51.6580   33.3410   42.0260 F   0  0  0  0  0  0  0  0  0  0  0  0
   46.5444   36.5611   42.0609 H   0  0  0  0  0  0  0  0  0  0  0  0
   44.1506   35.8835   42.5354 H   0  0  0  0  0  0  0  0  0  0  0  0
   44.6074   30.7057   41.8879 H   0  0  0  0  0  0  0  0  0  0  0  0
   47.4066   28.8501   46.3086 H   0  0  0  0  0  0  0  0  0  0  0  0
   46.5443   29.6012   47.6612 H   0  0  0  0  0  0  0  0  0  0  0  0
   46.8055   26.7044   46.9075 H   0  0  0  0  0  0  0  0  0  0  0  0
   46.7007   27.3994   48.5117 H   0  0  0  0  0  0  0  0  0  0  0  0
   44.5709   26.2430   47.1791 H   0  0  0  0  0  0  0  0  0  0  0  0
   44.3617   27.5073   48.4297 H   0  0  0  0  0  0  0  0  0  0  0  0
   43.4428   28.7945   46.8861 H   0  0  0  0  0  0  0  0  0  0  0  0
   43.8991   27.7588   44.4659 H   0  0  0  0  0  0  0  0  0  0  0  0
   43.7291   25.5469   45.8383 H   0  0  0  0  0  0  0  0  0  0  0  0
   42.2208   26.1202   46.5429 H   0  0  0  0  0  0  0  0  0  0  0  0
   42.8521   25.8709   43.5294 H   0  0  0  0  0  0  0  0  0  0  0  0
   41.7650   24.7768   44.5164 H   0  0  0  0  0  0  0  0  0  0  0  0
   40.1361   26.3668   44.7169 H   0  0  0  0  0  0  0  0  0  0  0  0
   40.7022   26.4676   42.9895 H   0  0  0  0  0  0  0  0  0  0  0  0
   41.8621   28.4745   43.3641 H   0  0  0  0  0  0  0  0  0  0  0  0
   40.2853   28.6719   44.2225 H   0  0  0  0  0  0  0  0  0  0  0  0
   41.3800   28.0159   46.3351 H   0  0  0  0  0  0  0  0  0  0  0  0
   42.1139   29.4767   45.6339 H   0  0  0  0  0  0  0  0  0  0  0  0
  1  6  2  0
  2  1  1  0
  2  3  2  0
  3  4  1  0
  4  5  2  0
  5  7  1  0
  6  5  1  0
  7 11  1  0
  8  7  1  0
  8  9  2  0
  9 10  1  0
 10 12  1  0
 11 10  2  0
 12 16  1  0
 12 13  1  0
 13 14  1  0
 15 14  1  0
 16 15  1  0
 17 22  1  0
 17 18  1  0
 17 16  1  0
 19 18  1  0
 20 21  1  0
 20 19  1  0
 21 22  1  0
 23  1  1  0
 23 25  1  0
 24 23  2  0
 26 28  1  0
 26 25  1  0
 27 26  1  0
 29 26  1  0
  2 30  1  0
  3 31  1  0
  8 32  1  0
 13 33  1  0
 13 34  1  0
 14 35  1  0
 14 36  1  0
 15 37  1  0
 15 38  1  0
 16 39  1  1
 17 40  1  0
 18 41  1  0
 18 42  1  0
 19 43  1  0
 19 44  1  0
 20 45  1  0
 20 46  1  0
 21 47  1  0
 21 48  1  0
 22 49  1  0
 22 50  1  0
M  ISO  8  30  14  31  14  32  14  33  13  34  13  35  13  36  13  37  13
M  ISO  8  38  13  39  13  40  13  41  13  42  13  43  13  44  13  45  13
M  ISO  5  46  13  47  13  48  13  49  13  50  13
M  END
>  <minimizedAffinity>  (1) 
-5.24807072

>  <minimizedRMSD>  (1) 
0.475715458

$$$$
