
     RDKit          3D

 41 44  0  0  1  0  0  0  0  0999 V2000
   47.3720   34.6220   42.6370 C   0  0  0  0  0  0  0  0  0  0  0  0
   46.4180   35.6360   42.6540 C   0  0  0  0  0  0  0  0  0  0  0  0
   45.1340   35.3420   43.1400 C   0  0  0  0  0  0  0  0  0  0  0  0
   44.8830   34.0800   43.5740 N   0  0  0  0  0  0  0  0  0  0  0  0
   45.8410   33.1280   43.5400 C   0  0  0  0  0  0  0  0  0  0  0  0
   47.0580   33.4120   43.0760 N   0  0  0  0  0  0  0  0  0  0  0  0
   45.5480   31.8100   44.0020 N   0  0  0  0  0  0  0  0  0  0  0  0
   44.8100   30.8530   43.3770 C   0  0  0  0  0  0  0  0  0  0  0  0
   44.7830   29.7420   44.1690 N   0  0  0  0  0  0  0  0  0  0  0  0
   45.5030   30.0470   45.2570 C   0  0  0  0  0  0  0  0  0  0  0  0
   45.9380   31.2770   45.1210 N   0  0  0  0  0  0  0  0  0  0  0  0
   45.6860   29.1040   46.3100 N   0  0  0  0  0  0  0  0  0  0  0  0
   46.9360   28.8060   46.9570 C   0  0  0  0  0  0  0  0  0  0  0  0
   46.7550   27.4150   47.5050 C   0  0  0  0  0  0  0  0  0  0  0  0
   45.2810   27.3260   47.7440 C   0  0  0  0  0  0  0  0  0  0  0  0
   44.5840   28.3190   46.8510 C   0  0  2  0  0  0  0  0  0  0  0  0
   43.9020   27.5380   45.7460 C   0  0  0  0  0  0  0  0  0  0  0  0
   42.8890   26.5550   46.2440 C   0  0  0  0  0  0  0  0  0  0  0  0
   42.4870   27.7180   45.4070 C   0  0  0  0  0  0  0  0  0  0  0  0
   48.7000   34.9220   42.1340 C   0  0  0  0  0  0  0  0  0  0  0  0
   48.8210   35.7540   41.1940 O   0  0  0  0  0  0  0  0  0  0  0  0
   49.8060   34.2950   42.6900 O   0  0  0  0  0  0  0  0  0  0  0  0
   50.3080   33.1340   42.0760 C   0  0  0  0  0  0  0  0  0  0  0  0
   49.5930   33.0100   40.8800 F   0  0  0  0  0  0  0  0  0  0  0  0
   49.9210   32.0140   42.8260 F   0  0  0  0  0  0  0  0  0  0  0  0
   51.6540   33.1540   41.8810 F   0  0  0  0  0  0  0  0  0  0  0  0
   46.6650   36.6458   42.2944 H   0  0  0  0  0  0  0  0  0  0  0  0
   44.3512   36.1143   43.1685 H   0  0  0  0  0  0  0  0  0  0  0  0
   44.3182   30.9572   42.3986 H   0  0  0  0  0  0  0  0  0  0  0  0
   47.7645   28.8342   46.2339 H   0  0  0  0  0  0  0  0  0  0  0  0
   47.1851   29.5355   47.7417 H   0  0  0  0  0  0  0  0  0  0  0  0
   47.0819   26.6590   46.7759 H   0  0  0  0  0  0  0  0  0  0  0  0
   47.3492   27.2299   48.4120 H   0  0  0  0  0  0  0  0  0  0  0  0
   44.9295   26.3098   47.5121 H   0  0  0  0  0  0  0  0  0  0  0  0
   45.0588   27.5504   48.7977 H   0  0  0  0  0  0  0  0  0  0  0  0
   43.8285   28.9438   47.3499 H   0  0  0  0  0  0  0  0  0  0  0  0
   44.8043   27.5520   45.1170 H   0  0  0  0  0  0  0  0  0  0  0  0
   42.8555   25.5368   45.8290 H   0  0  0  0  0  0  0  0  0  0  0  0
   42.5981   26.1586   47.2280 H   0  0  0  0  0  0  0  0  0  0  0  0
   41.9173   28.5449   45.8560 H   0  0  0  0  0  0  0  0  0  0  0  0
   41.9266   27.8372   44.4680 H   0  0  0  0  0  0  0  0  0  0  0  0
  1  2  2  0
  1  6  1  0
  2  3  1  0
  3  4  2  0
  5  4  1  0
  5  7  1  0
  6  5  2  0
  7 11  1  0
  8  7  1  0
  8  9  2  0
  9 10  1  0
 10 12  1  0
 11 10  2  0
 12 16  1  0
 12 13  1  0
 13 14  1  0
 14 15  1  0
 16 15  1  0
 17 18  1  0
 17 16  1  0
 19 17  1  0
 19 18  1  0
 20  1  1  0
 20 22  1  0
 21 20  2  0
 23 22  1  0
 23 25  1  0
 24 23  1  0
 26 23  1  0
  2 27  1  0
  3 28  1  0
  8 29  1  0
 13 30  1  0
 13 31  1  0
 14 32  1  0
 14 33  1  0
 15 34  1  0
 15 35  1  0
 16 36  1  1
 17 37  1  0
 18 38  1  0
 18 39  1  0
 19 40  1  0
 19 41  1  0
M  ISO  8  27  14  28  14  29  14  30  13  31  13  32  13  33  13  34  13
M  ISO  7  35  13  36  13  37  13  38  13  39  13  40  13  41  13
M  END
>  <minimizedAffinity>  (1) 
-5.11782789

>  <minimizedRMSD>  (1) 
0.550456226

$$$$
