
     RDKit          3D

 37 39  0  0  1  0  0  0  0  0999 V2000
   47.3550   34.1930   42.9890 C   0  0  0  0  0  0  0  0  0  0  0  0
   46.2600   35.0220   43.1070 C   0  0  0  0  0  0  0  0  0  0  0  0
   45.0770   34.4860   43.6530 C   0  0  0  0  0  0  0  0  0  0  0  0
   45.0710   33.1850   44.0350 N   0  0  0  0  0  0  0  0  0  0  0  0
   46.1650   32.4110   43.9020 C   0  0  0  0  0  0  0  0  0  0  0  0
   47.2830   32.9300   43.3830 N   0  0  0  0  0  0  0  0  0  0  0  0
   46.1330   31.0470   44.3120 N   0  0  0  0  0  0  0  0  0  0  0  0
   45.5330   30.0030   43.6860 C   0  0  0  0  0  0  0  0  0  0  0  0
   45.7530   28.8800   44.4230 N   0  0  0  0  0  0  0  0  0  0  0  0
   46.4830   29.2620   45.4810 C   0  0  0  0  0  0  0  0  0  0  0  0
   46.6850   30.5580   45.3750 N   0  0  0  0  0  0  0  0  0  0  0  0
   46.8910   28.3130   46.4660 N   0  0  0  0  0  0  0  0  0  0  0  0
   48.2010   28.2420   47.0640 C   0  0  0  0  0  0  0  0  0  0  0  0
   48.3070   26.8360   47.5720 C   0  0  0  0  0  0  0  0  0  0  0  0
   46.8690   26.4930   47.8980 C   0  0  0  0  0  0  0  0  0  0  0  0
   45.9970   27.2930   46.9800 C   0  0  1  0  0  0  0  0  0  0  0  0
   44.7850   27.8710   47.6610 C   0  0  0  0  0  0  0  0  0  0  0  0
   44.3730   27.0780   48.7270 F   0  0  0  0  0  0  0  0  0  0  0  0
   43.7710   27.9540   46.7260 F   0  0  0  0  0  0  0  0  0  0  0  0
   45.0170   29.1560   48.1270 F   0  0  0  0  0  0  0  0  0  0  0  0
   48.5900   34.7330   42.4240 C   0  0  0  0  0  0  0  0  0  0  0  0
   48.5090   35.6460   41.5520 O   0  0  0  0  0  0  0  0  0  0  0  0
   49.8180   34.2520   42.8410 O   0  0  0  0  0  0  0  0  0  0  0  0
   50.4070   33.1880   42.1360 C   0  0  0  0  0  0  0  0  0  0  0  0
   49.6610   33.0740   40.9590 F   0  0  0  0  0  0  0  0  0  0  0  0
   50.1570   31.9790   42.8070 F   0  0  0  0  0  0  0  0  0  0  0  0
   51.7410   33.3500   41.9050 F   0  0  0  0  0  0  0  0  0  0  0  0
   46.3085   36.0724   42.7840 H   0  0  0  0  0  0  0  0  0  0  0  0
   44.1778   35.1093   43.7669 H   0  0  0  0  0  0  0  0  0  0  0  0
   44.9662   30.0554   42.7447 H   0  0  0  0  0  0  0  0  0  0  0  0
   48.9813   28.4447   46.3157 H   0  0  0  0  0  0  0  0  0  0  0  0
   48.3367   28.9862   47.8626 H   0  0  0  0  0  0  0  0  0  0  0  0
   48.7102   26.1642   46.7999 H   0  0  0  0  0  0  0  0  0  0  0  0
   48.9870   26.7312   48.4302 H   0  0  0  0  0  0  0  0  0  0  0  0
   46.6941   25.4184   47.7407 H   0  0  0  0  0  0  0  0  0  0  0  0
   46.6432   26.7268   48.9489 H   0  0  0  0  0  0  0  0  0  0  0  0
   45.5565   26.6741   46.1844 H   0  0  0  0  0  0  0  0  0  0  0  0
  1  2  2  0
  1  6  1  0
  2  3  1  0
  3  4  2  0
  5  4  1  0
  5  7  1  0
  6  5  2  0
  7 11  1  0
  8  7  1  0
  8  9  2  0
  9 10  1  0
 10 12  1  0
 11 10  2  0
 12 16  1  0
 12 13  1  0
 13 14  1  0
 14 15  1  0
 16 17  1  0
 16 15  1  0
 17 20  1  0
 17 18  1  0
 19 17  1  0
 21 23  1  0
 21  1  1  0
 22 21  2  0
 24 26  1  0
 24 23  1  0
 25 24  1  0
 27 24  1  0
  2 28  1  0
  3 29  1  0
  8 30  1  0
 13 31  1  0
 13 32  1  0
 14 33  1  0
 14 34  1  0
 15 35  1  0
 15 36  1  0
 16 37  1  6
M  ISO  8  28  14  29  14  30  14  31  13  32  13  33  13  34  13  35  13
M  ISO  2  36  13  37  13
M  END
>  <minimizedAffinity>  (1) 
-4.89335299

>  <minimizedRMSD>  (1) 
1.21562052

$$$$
