
     RDKit          3D

 37 39  0  0  1  0  0  0  0  0999 V2000
   47.3640   34.6370   42.5960 C   0  0  0  0  0  0  0  0  0  0  0  0
   46.4280   35.6490   42.6170 C   0  0  0  0  0  0  0  0  0  0  0  0
   45.1390   35.3530   43.1020 C   0  0  0  0  0  0  0  0  0  0  0  0
   44.8750   34.0890   43.5240 N   0  0  0  0  0  0  0  0  0  0  0  0
   45.8330   33.1380   43.4790 C   0  0  0  0  0  0  0  0  0  0  0  0
   47.0480   33.4240   43.0210 N   0  0  0  0  0  0  0  0  0  0  0  0
   45.5290   31.8120   43.9300 N   0  0  0  0  0  0  0  0  0  0  0  0
   44.8180   30.8540   43.3100 C   0  0  0  0  0  0  0  0  0  0  0  0
   44.7800   29.7440   44.1050 N   0  0  0  0  0  0  0  0  0  0  0  0
   45.4840   30.0660   45.2060 C   0  0  0  0  0  0  0  0  0  0  0  0
   45.9170   31.3020   45.0740 N   0  0  0  0  0  0  0  0  0  0  0  0
   45.6480   29.1230   46.2580 N   0  0  0  0  0  0  0  0  0  0  0  0
   46.8950   28.8320   46.9400 C   0  0  0  0  0  0  0  0  0  0  0  0
   46.7300   27.4800   47.5320 C   0  0  0  0  0  0  0  0  0  0  0  0
   45.2530   27.3340   47.7010 C   0  0  0  0  0  0  0  0  0  0  0  0
   44.5740   28.3170   46.7970 C   0  0  2  0  0  0  0  0  0  0  0  0
   48.7010   34.9320   42.0960 C   0  0  0  0  0  0  0  0  0  0  0  0
   48.8240   35.7580   41.1430 O   0  0  0  0  0  0  0  0  0  0  0  0
   49.8090   34.3060   42.6720 O   0  0  0  0  0  0  0  0  0  0  0  0
   50.3050   33.1360   42.0670 C   0  0  0  0  0  0  0  0  0  0  0  0
   49.5940   33.0010   40.8720 F   0  0  0  0  0  0  0  0  0  0  0  0
   49.9200   32.0210   42.8230 F   0  0  0  0  0  0  0  0  0  0  0  0
   51.6620   33.1490   41.8850 F   0  0  0  0  0  0  0  0  0  0  0  0
   43.8210   27.5830   45.6910 C   0  0  0  0  0  0  0  0  0  0  0  0
   46.6808   36.6599   42.2647 H   0  0  0  0  0  0  0  0  0  0  0  0
   44.3614   36.1302   43.1383 H   0  0  0  0  0  0  0  0  0  0  0  0
   44.3436   30.9488   42.3221 H   0  0  0  0  0  0  0  0  0  0  0  0
   47.7318   28.8374   46.2260 H   0  0  0  0  0  0  0  0  0  0  0  0
   47.1193   29.5851   47.7098 H   0  0  0  0  0  0  0  0  0  0  0  0
   47.1240   26.7069   46.8559 H   0  0  0  0  0  0  0  0  0  0  0  0
   47.2768   27.3644   48.4794 H   0  0  0  0  0  0  0  0  0  0  0  0
   44.9478   26.3115   47.4340 H   0  0  0  0  0  0  0  0  0  0  0  0
   44.9716   27.5256   48.7470 H   0  0  0  0  0  0  0  0  0  0  0  0
   43.8285   28.9329   47.3214 H   0  0  0  0  0  0  0  0  0  0  0  0
   43.1019   26.8820   46.1399 H   0  0  0  0  0  0  0  0  0  0  0  0
   43.2823   28.3121   45.0680 H   0  0  0  0  0  0  0  0  0  0  0  0
   44.5361   27.0258   45.0680 H   0  0  0  0  0  0  0  0  0  0  0  0
  1  2  2  0
  1  6  1  0
  2  3  1  0
  3  4  2  0
  5  4  1  0
  5  7  1  0
  6  5  2  0
  7 11  1  0
  8  7  1  0
  8  9  2  0
  9 10  1  0
 10 12  1  0
 11 10  2  0
 12 16  1  0
 12 13  1  0
 13 14  1  0
 14 15  1  0
 16 15  1  0
 17  1  1  0
 17 19  1  0
 18 17  2  0
 20 19  1  0
 20 22  1  0
 21 20  1  0
 23 20  1  0
 24 16  1  0
  2 25  1  0
  3 26  1  0
  8 27  1  0
 13 28  1  0
 13 29  1  0
 14 30  1  0
 14 31  1  0
 15 32  1  0
 15 33  1  0
 16 34  1  1
 24 35  1  0
 24 36  1  0
 24 37  1  0
M  ISO  8  25  14  26  14  27  14  28  13  29  13  30  13  31  13  32  13
M  ISO  5  33  13  34  13  35   8  36   8  37   8
M  END
>  <minimizedAffinity>  (1) 
-4.87365007

>  <minimizedRMSD>  (1) 
0.0367321074

$$$$
