
     RDKit          3D

 39 42  0  0  1  0  0  0  0  0999 V2000
   47.3790   34.6310   42.6180 C   0  0  0  0  0  0  0  0  0  0  0  0
   46.4420   35.6520   42.6440 C   0  0  0  0  0  0  0  0  0  0  0  0
   45.1580   35.3600   43.1510 C   0  0  0  0  0  0  0  0  0  0  0  0
   44.8930   34.1040   43.5890 N   0  0  0  0  0  0  0  0  0  0  0  0
   45.8470   33.1410   43.5420 C   0  0  0  0  0  0  0  0  0  0  0  0
   47.0600   33.4310   43.0590 N   0  0  0  0  0  0  0  0  0  0  0  0
   45.5540   31.8360   44.0030 N   0  0  0  0  0  0  0  0  0  0  0  0
   44.8140   30.8730   43.3960 C   0  0  0  0  0  0  0  0  0  0  0  0
   44.7910   29.7670   44.1920 N   0  0  0  0  0  0  0  0  0  0  0  0
   45.5180   30.0780   45.2670 C   0  0  0  0  0  0  0  0  0  0  0  0
   45.9490   31.3010   45.1200 N   0  0  0  0  0  0  0  0  0  0  0  0
   45.6960   29.1200   46.3130 N   0  0  0  0  0  0  0  0  0  0  0  0
   46.9600   28.8290   46.9660 C   0  0  0  0  0  0  0  0  0  0  0  0
   46.7870   27.4630   47.5470 C   0  0  0  0  0  0  0  0  0  0  0  0
   45.3180   27.3770   47.7980 C   0  0  0  0  0  0  0  0  0  0  0  0
   44.6180   28.3170   46.8510 C   0  0  2  0  0  0  0  0  0  0  0  0
   44.0860   27.4870   45.7340 C   0  0  0  0  0  0  0  0  0  0  0  0
   44.6680   26.6100   44.9040 N   0  0  0  0  0  0  0  0  0  0  0  0
   43.7680   26.1580   44.1090 O   0  0  0  0  0  0  0  0  0  0  0  0
   42.5780   26.6950   44.3640 C   0  0  0  0  0  0  0  0  0  0  0  0
   42.7850   27.5350   45.3950 N   0  0  0  0  0  0  0  0  0  0  0  0
   48.7110   34.9250   42.0940 C   0  0  0  0  0  0  0  0  0  0  0  0
   48.8200   35.7450   41.1450 O   0  0  0  0  0  0  0  0  0  0  0  0
   49.8170   34.2970   42.6520 O   0  0  0  0  0  0  0  0  0  0  0  0
   50.3080   33.1190   42.0620 C   0  0  0  0  0  0  0  0  0  0  0  0
   49.5910   32.9930   40.8710 F   0  0  0  0  0  0  0  0  0  0  0  0
   49.9120   32.0080   42.8250 F   0  0  0  0  0  0  0  0  0  0  0  0
   51.6560   33.1140   41.8620 F   0  0  0  0  0  0  0  0  0  0  0  0
   46.6918   36.6596   42.2803 H   0  0  0  0  0  0  0  0  0  0  0  0
   44.3831   36.1397   43.1905 H   0  0  0  0  0  0  0  0  0  0  0  0
   44.3145   30.9697   42.4207 H   0  0  0  0  0  0  0  0  0  0  0  0
   47.7835   28.8380   46.2367 H   0  0  0  0  0  0  0  0  0  0  0  0
   47.2117   29.5764   47.7329 H   0  0  0  0  0  0  0  0  0  0  0  0
   47.1107   26.6889   46.8357 H   0  0  0  0  0  0  0  0  0  0  0  0
   47.3877   27.3032   48.4545 H   0  0  0  0  0  0  0  0  0  0  0  0
   44.9710   26.3478   47.6240 H   0  0  0  0  0  0  0  0  0  0  0  0
   45.0955   27.6542   48.8390 H   0  0  0  0  0  0  0  0  0  0  0  0
   43.8147   28.9075   47.3157 H   0  0  0  0  0  0  0  0  0  0  0  0
   41.6293   26.4955   43.8443 H   0  0  0  0  0  0  0  0  0  0  0  0
  1  2  2  0
  1  6  1  0
  2  3  1  0
  3  4  2  0
  5  4  1  0
  5  7  1  0
  6  5  2  0
  7 11  1  0
  8  7  1  0
  8  9  2  0
  9 10  1  0
 10 12  1  0
 11 10  2  0
 12 16  1  0
 12 13  1  0
 13 14  1  0
 14 15  1  0
 16 15  1  0
 17 16  1  0
 18 17  2  0
 19 20  1  0
 19 18  1  0
 20 21  2  0
 21 17  1  0
 22  1  1  0
 22 24  1  0
 23 22  2  0
 25 24  1  0
 25 27  1  0
 26 25  1  0
 28 25  1  0
  2 29  1  0
  3 30  1  0
  8 31  1  0
 13 32  1  0
 13 33  1  0
 14 34  1  0
 14 35  1  0
 15 36  1  0
 15 37  1  0
 16 38  1  1
 20 39  1  0
M  ISO  8  29  14  30  14  31  14  32  13  33  13  34  13  35  13  36  13
M  ISO  3  37  13  38  13  39  14
M  END
>  <minimizedAffinity>  (1) 
-4.91850281

>  <minimizedRMSD>  (1) 
0.375037432

$$$$
