
     RDKit          3D

 46 48  0  0  1  0  0  0  0  0999 V2000
   47.3420   34.1210   42.9620 C   0  0  0  0  0  0  0  0  0  0  0  0
   46.1720   34.8700   42.9940 C   0  0  0  0  0  0  0  0  0  0  0  0
   44.9800   34.2480   43.4430 C   0  0  0  0  0  0  0  0  0  0  0  0
   45.0350   32.9410   43.8230 N   0  0  0  0  0  0  0  0  0  0  0  0
   46.2010   32.2520   43.7740 C   0  0  0  0  0  0  0  0  0  0  0  0
   47.3200   32.8550   43.3480 N   0  0  0  0  0  0  0  0  0  0  0  0
   46.2300   30.8860   44.1780 N   0  0  0  0  0  0  0  0  0  0  0  0
   45.7750   29.8120   43.5020 C   0  0  0  0  0  0  0  0  0  0  0  0
   46.0020   28.6990   44.2560 N   0  0  0  0  0  0  0  0  0  0  0  0
   46.5980   29.1340   45.3830 C   0  0  0  0  0  0  0  0  0  0  0  0
   46.7180   30.4430   45.3010 N   0  0  0  0  0  0  0  0  0  0  0  0
   46.9720   28.2030   46.3920 N   0  0  0  0  0  0  0  0  0  0  0  0
   48.2340   28.2200   47.1020 C   0  0  0  0  0  0  0  0  0  0  0  0
   48.4090   26.8240   47.6110 C   0  0  0  0  0  0  0  0  0  0  0  0
   46.9940   26.3170   47.7510 C   0  0  0  0  0  0  0  0  0  0  0  0
   46.1280   27.1230   46.8310 C   0  0  1  0  0  0  0  0  0  0  0  0
   44.8970   27.5350   47.5700 C   0  0  0  0  0  0  0  0  0  0  0  0
   44.9410   28.9750   48.0440 C   0  0  0  0  0  0  0  0  0  0  0  0
   44.5130   26.6650   48.7180 C   0  0  0  0  0  0  0  0  0  0  0  0
   43.7560   27.4850   46.5550 C   0  0  0  0  0  0  0  0  0  0  0  0
   48.5660   34.7580   42.5020 C   0  0  0  0  0  0  0  0  0  0  0  0
   48.4810   35.7430   41.7200 O   0  0  0  0  0  0  0  0  0  0  0  0
   49.7980   34.2580   42.9410 O   0  0  0  0  0  0  0  0  0  0  0  0
   50.4200   33.2680   42.1810 C   0  0  0  0  0  0  0  0  0  0  0  0
   49.6870   33.1900   40.9980 F   0  0  0  0  0  0  0  0  0  0  0  0
   50.2330   32.0170   42.7930 F   0  0  0  0  0  0  0  0  0  0  0  0
   51.7560   33.4920   41.9640 F   0  0  0  0  0  0  0  0  0  0  0  0
   46.1708   35.9235   42.6775 H   0  0  0  0  0  0  0  0  0  0  0  0
   44.0336   34.8071   43.4836 H   0  0  0  0  0  0  0  0  0  0  0  0
   45.3007   29.8305   42.5097 H   0  0  0  0  0  0  0  0  0  0  0  0
   49.0563   28.4902   46.4231 H   0  0  0  0  0  0  0  0  0  0  0  0
   48.2414   28.9609   47.9150 H   0  0  0  0  0  0  0  0  0  0  0  0
   48.9760   26.2126   46.8936 H   0  0  0  0  0  0  0  0  0  0  0  0
   48.9737   26.7806   48.5540 H   0  0  0  0  0  0  0  0  0  0  0  0
   46.9478   25.2537   47.4731 H   0  0  0  0  0  0  0  0  0  0  0  0
   46.6498   26.4178   48.7909 H   0  0  0  0  0  0  0  0  0  0  0  0
   45.7538   26.5858   45.9470 H   0  0  0  0  0  0  0  0  0  0  0  0
   44.9417   28.9992   49.1437 H   0  0  0  0  0  0  0  0  0  0  0  0
   45.8543   29.4577   47.6660 H   0  0  0  0  0  0  0  0  0  0  0  0
   44.0589   29.5126   47.6660 H   0  0  0  0  0  0  0  0  0  0  0  0
   44.7410   27.1817   49.6620 H   0  0  0  0  0  0  0  0  0  0  0  0
   43.4356   26.4483   48.6696 H   0  0  0  0  0  0  0  0  0  0  0  0
   45.0790   25.7230   48.6696 H   0  0  0  0  0  0  0  0  0  0  0  0
   42.7939   27.4428   47.0866 H   0  0  0  0  0  0  0  0  0  0  0  0
   43.7870   28.3854   45.9238 H   0  0  0  0  0  0  0  0  0  0  0  0
   43.8656   26.5908   45.9238 H   0  0  0  0  0  0  0  0  0  0  0  0
  1  2  2  0
  1  6  1  0
  2  3  1  0
  3  4  2  0
  5  4  1  0
  5  7  1  0
  6  5  2  0
  7 11  1  0
  8  7  1  0
  8  9  2  0
  9 10  1  0
 10 12  1  0
 11 10  2  0
 12 16  1  0
 12 13  1  0
 13 14  1  0
 14 15  1  0
 16 17  1  0
 16 15  1  0
 17 18  1  0
 17 19  1  0
 20 17  1  0
 21 23  1  0
 21  1  1  0
 22 21  2  0
 24 26  1  0
 24 23  1  0
 25 24  1  0
 27 24  1  0
  2 28  1  0
  3 29  1  0
  8 30  1  0
 13 31  1  0
 13 32  1  0
 14 33  1  0
 14 34  1  0
 15 35  1  0
 15 36  1  0
 16 37  1  6
 18 38  1  0
 18 39  1  0
 18 40  1  0
 19 41  1  0
 19 42  1  0
 19 43  1  0
 20 44  1  0
 20 45  1  0
 20 46  1  0
M  ISO  8  28  14  29  14  30  14  31  13  32  13  33  13  34  13  35  13
M  ISO  8  36  13  37  13  38   8  39   8  40   8  41   8  42   8  43   8
M  ISO  3  44   8  45   8  46   8
M  END
>  <minimizedAffinity>  (1) 
-4.77413845

>  <minimizedRMSD>  (1) 
1.37256622

$$$$
