
     RDKit          3D

 35 37  0  0  1  0  0  0  0  0999 V2000
   47.3770   34.6400   42.6210 C   0  0  0  0  0  0  0  0  0  0  0  0
   46.4230   35.6360   42.6180 C   0  0  0  0  0  0  0  0  0  0  0  0
   45.1200   35.3350   43.0900 C   0  0  0  0  0  0  0  0  0  0  0  0
   44.8710   34.0700   43.5250 N   0  0  0  0  0  0  0  0  0  0  0  0
   45.8430   33.1270   43.5060 C   0  0  0  0  0  0  0  0  0  0  0  0
   47.0570   33.4280   43.0620 N   0  0  0  0  0  0  0  0  0  0  0  0
   45.5500   31.8090   43.9690 N   0  0  0  0  0  0  0  0  0  0  0  0
   44.8310   30.8530   43.3380 C   0  0  0  0  0  0  0  0  0  0  0  0
   44.7930   29.7380   44.1320 N   0  0  0  0  0  0  0  0  0  0  0  0
   45.4960   30.0540   45.2290 C   0  0  0  0  0  0  0  0  0  0  0  0
   45.9240   31.2820   45.0950 N   0  0  0  0  0  0  0  0  0  0  0  0
   45.6640   29.1130   46.2820 N   0  0  0  0  0  0  0  0  0  0  0  0
   46.8930   28.8340   46.9750 C   0  0  0  0  0  0  0  0  0  0  0  0
   46.7370   27.4540   47.5300 C   0  0  0  0  0  0  0  0  0  0  0  0
   45.2490   27.3300   47.7150 C   0  0  0  0  0  0  0  0  0  0  0  0
   44.5760   28.3000   46.7920 C   0  0  2  0  0  0  0  0  0  0  0  0
   48.7130   34.9420   42.1400 C   0  0  0  0  0  0  0  0  0  0  0  0
   48.8410   35.7860   41.2170 O   0  0  0  0  0  0  0  0  0  0  0  0
   49.8140   34.2950   42.7090 O   0  0  0  0  0  0  0  0  0  0  0  0
   50.3120   33.1440   42.0900 C   0  0  0  0  0  0  0  0  0  0  0  0
   49.5850   33.0300   40.8850 F   0  0  0  0  0  0  0  0  0  0  0  0
   49.9230   32.0090   42.8240 F   0  0  0  0  0  0  0  0  0  0  0  0
   51.6620   33.1620   41.8900 F   0  0  0  0  0  0  0  0  0  0  0  0
   43.7230   27.4590   45.4380 S   0  0  0  0  0  0  0  0  0  0  0  0
   46.6683   36.6454   42.2561 H   0  0  0  0  0  0  0  0  0  0  0  0
   44.3325   36.1029   43.1041 H   0  0  0  0  0  0  0  0  0  0  0  0
   44.3558   30.9543   42.3511 H   0  0  0  0  0  0  0  0  0  0  0  0
   47.7439   28.8741   46.2791 H   0  0  0  0  0  0  0  0  0  0  0  0
   47.0903   29.5715   47.7670 H   0  0  0  0  0  0  0  0  0  0  0  0
   47.1119   26.6989   46.8233 H   0  0  0  0  0  0  0  0  0  0  0  0
   47.3042   27.2935   48.4587 H   0  0  0  0  0  0  0  0  0  0  0  0
   44.9288   26.3054   47.4751 H   0  0  0  0  0  0  0  0  0  0  0  0
   44.9778   27.5500   48.7581 H   0  0  0  0  0  0  0  0  0  0  0  0
   43.8021   28.8875   47.3077 H   0  0  0  0  0  0  0  0  0  0  0  0
   42.8186   26.5674   45.9518 H   0  0  0  0  0  0  0  0  0  0  0  0
  1  6  2  0
  2  1  1  0
  2  3  2  0
  3  4  1  0
  5  4  2  0
  5  7  1  0
  6  5  1  0
  7 11  1  0
  8  7  1  0
  8  9  2  0
  9 10  1  0
 10 12  1  0
 11 10  2  0
 12 16  1  0
 12 13  1  0
 13 14  1  0
 14 15  1  0
 16 15  1  0
 17  1  1  0
 17 19  1  0
 18 17  2  0
 20 19  1  0
 20 22  1  0
 21 20  1  0
 23 20  1  0
 24 16  1  0
  2 25  1  0
  3 26  1  0
  8 27  1  0
 13 28  1  0
 13 29  1  0
 14 30  1  0
 14 31  1  0
 15 32  1  0
 15 33  1  0
 16 34  1  1
 24 35  1  0
M  ISO  8  25  14  26  14  27  14  28  13  29  13  30  13  31  13  32  13
M  ISO  3  33  13  34  13  35  11
M  END
>  <minimizedAffinity>  (1) 
-4.83496904

>  <minimizedRMSD>  (1) 
0.0128281172

$$$$
