
     RDKit          3D

 32 33  0  0  0  0  0  0  0  0999 V2000
   44.6940   34.7340   42.0690 C   0  0  0  0  0  0  0  0  0  0  0  0
   44.9060   34.5200   43.5370 C   0  0  0  0  0  0  0  0  0  0  0  0
   45.6160   33.3560   43.8490 C   0  0  0  0  0  0  0  0  0  0  0  0
   45.8650   33.0700   45.2090 C   0  0  0  0  0  0  0  0  0  0  0  0
   45.3970   33.9430   46.1310 N   0  0  0  0  0  0  0  0  0  0  0  0
   44.7050   35.0720   45.7940 C   0  0  0  0  0  0  0  0  0  0  0  0
   44.4720   35.3410   44.5090 N   0  0  0  0  0  0  0  0  0  0  0  0
   45.9680   34.4440   41.2760 C   0  0  0  0  0  0  0  0  0  0  0  0
   44.3620   36.1870   41.8720 C   0  0  0  0  0  0  0  0  0  0  0  0
   43.6110   33.8460   41.5490 C   0  0  0  0  0  0  0  0  0  0  0  0
   42.5640   34.5260   40.7890 C   0  0  0  0  0  0  0  0  0  0  0  0
   41.4590   35.0290   41.4480 C   0  0  0  0  0  0  0  0  0  0  0  0
   40.3820   35.6950   40.8960 C   0  0  0  0  0  0  0  0  0  0  0  0
   40.4410   35.8670   39.5090 C   0  0  0  0  0  0  0  0  0  0  0  0
   41.5270   35.3820   38.8070 C   0  0  0  0  0  0  0  0  0  0  0  0
   42.5830   34.7190   39.4230 C   0  0  0  0  0  0  0  0  0  0  0  0
   45.9709   32.6814   43.0559 H   0  0  0  0  0  0  0  0  0  0  0  0
   46.4201   32.1689   45.5087 H   0  0  0  0  0  0  0  0  0  0  0  0
   44.3427   35.7541   46.5772 H   0  0  0  0  0  0  0  0  0  0  0  0
   46.7983   34.2550   41.9723 H   0  0  0  0  0  0  0  0  0  0  0  0
   45.8120   33.5584   40.6425 H   0  0  0  0  0  0  0  0  0  0  0  0
   46.2106   35.3099   40.6425 H   0  0  0  0  0  0  0  0  0  0  0  0
   44.2508   36.6738   42.8521 H   0  0  0  0  0  0  0  0  0  0  0  0
   45.1717   36.6752   41.3099 H   0  0  0  0  0  0  0  0  0  0  0  0
   43.4206   36.2751   41.3099 H   0  0  0  0  0  0  0  0  0  0  0  0
   44.0730   33.0926   40.8941 H   0  0  0  0  0  0  0  0  0  0  0  0
   43.1176   33.4146   42.4324 H   0  0  0  0  0  0  0  0  0  0  0  0
   41.4338   34.8823   42.5379 H   0  0  0  0  0  0  0  0  0  0  0  0
   39.5407   36.0627   41.5019 H   0  0  0  0  0  0  0  0  0  0  0  0
   39.6273   36.3854   38.9806 H   0  0  0  0  0  0  0  0  0  0  0  0
   41.5580   35.5259   37.7169 H   0  0  0  0  0  0  0  0  0  0  0  0
   43.4290   34.3504   38.8243 H   0  0  0  0  0  0  0  0  0  0  0  0
  1  2  1  0
  2  3  2  0
  2  7  1  0
  3  4  1  0
  4  5  2  0
  6  5  1  0
  7  6  2  0
  8  1  1  0
  9  1  1  0
 10  1  1  0
 11 12  2  0
 11 10  1  0
 13 12  1  0
 14 13  2  0
 15 16  2  0
 15 14  1  0
 16 11  1  0
  3 17  1  0
  4 18  1  0
  6 19  1  0
  8 20  1  0
  8 21  1  0
  8 22  1  0
  9 23  1  0
  9 24  1  0
  9 25  1  0
 10 26  1  0
 10 27  1  0
 12 28  1  0
 13 29  1  0
 14 30  1  0
 15 31  1  0
 16 32  1  0
M  ISO  8  17  14  18  14  19  14  20   8  21   8  22   8  23   8  24   8
M  ISO  8  25   8  26   8  27   8  28  14  29  14  30  14  31  14  32  14
M  END
>  <minimizedAffinity>  (1) 
-4.67960453

>  <minimizedRMSD>  (1) 
6.0878005

$$$$
