
     RDKit          3D

 36 38  0  0  0  0  0  0  0  0999 V2000
   47.3776   34.7358   42.5008 C   0  0  0  0  0  0  0  0  0  0  0  0
   47.5050   33.7789   43.5047 C   0  0  0  0  0  0  0  0  0  0  0  0
   46.4959   33.6672   44.4748 C   0  0  0  0  0  0  0  0  0  0  0  0
   45.4417   34.5111   44.3740 N   0  0  0  0  0  0  0  0  0  0  0  0
   45.3365   35.4367   43.3880 C   0  0  0  0  0  0  0  0  0  0  0  0
   46.2943   35.5400   42.4703 N   0  0  0  0  0  0  0  0  0  0  0  0
   48.4968   34.7813   41.5170 C   0  0  0  0  0  0  0  0  0  0  0  0
   48.0518   34.4986   40.1300 C   0  0  0  0  0  0  0  0  0  0  0  0
   49.5654   33.7364   41.8734 C   0  0  0  0  0  0  0  0  0  0  0  0
   49.1420   36.1430   41.6321 C   0  0  0  0  0  0  0  0  0  0  0  0
   48.3094   33.0718   43.6547 H   0  0  0  0  0  0  0  0  0  0  0  0
   46.5369   32.9542   45.2678 H   0  0  0  0  0  0  0  0  0  0  0  0
   44.4591   36.0516   43.4054 H   0  0  0  0  0  0  0  0  0  0  0  0
   47.6420   33.4463   40.1369 H   0  0  0  0  0  0  0  0  0  0  0  0
   47.2227   35.1378   39.7764 H   0  0  0  0  0  0  0  0  0  0  0  0
   50.4304   33.8888   41.2144 H   0  0  0  0  0  0  0  0  0  0  0  0
   49.1788   32.7102   41.8455 H   0  0  0  0  0  0  0  0  0  0  0  0
   49.9366   34.0381   42.8968 H   0  0  0  0  0  0  0  0  0  0  0  0
   48.8597   36.8066   40.7737 H   0  0  0  0  0  0  0  0  0  0  0  0
   48.8237   36.6616   42.5814 H   0  0  0  0  0  0  0  0  0  0  0  0
   50.2486   36.0738   41.6844 H   0  0  0  0  0  0  0  0  0  0  0  0
   49.0758   34.5247   39.1257 N   0  0  0  0  0  0  0  0  0  0  0  0
   49.1965   35.2972   38.0279 C   0  0  0  0  0  0  0  0  0  0  0  0
   50.3148   35.0076   37.3362 N   0  0  0  0  0  0  0  0  0  0  0  0
   50.9634   34.0255   37.9715 C   0  0  0  0  0  0  0  0  0  0  0  0
   52.1333   33.3620   37.7070 C   0  0  0  0  0  0  0  0  0  0  0  0
   52.8421   33.6191   36.7079 O   0  0  0  0  0  0  0  0  0  0  0  0
   52.5756   32.3892   38.5261 N   0  0  0  0  0  0  0  0  0  0  0  0
   51.8134   32.1132   39.6000 C   0  0  0  0  0  0  0  0  0  0  0  0
   52.1125   31.1225   40.5779 N   0  0  0  0  0  0  0  0  0  0  0  0
   50.6614   32.7423   39.8915 N   0  0  0  0  0  0  0  0  0  0  0  0
   50.1873   33.7320   39.0810 C   0  0  0  0  0  0  0  0  0  0  0  0
   48.5067   36.0551   37.7171 H   0  0  0  0  0  0  0  0  0  0  0  0
   53.4397   31.8491   38.3945 H   0  0  0  0  0  0  0  0  0  0  0  0
   51.8743   30.1641   40.9098 H   0  0  0  0  0  0  0  0  0  0  0  0
   51.5052   30.2863   40.4025 H   0  0  0  0  0  0  0  0  0  0  0  0
  1  2  2  0
  2  3  1  0
  4  3  2  0
  5  4  1  0
  6  1  1  0
  6  5  2  0
  7 10  1  0
  7  9  1  0
  7  1  1  0
  8  7  1  0
  2 11  1  0
  3 12  1  0
  5 13  1  0
  8 14  1  0
  8 15  1  0
  9 16  1  0
  9 17  1  0
  9 18  1  0
 10 19  1  0
 10 20  1  0
 10 21  1  0
 22 23  1  0
 23 24  2  0
 24 25  1  0
 25 26  1  0
 26 27  2  0
 26 28  1  0
 28 29  1  0
 29 30  1  0
 29 31  2  0
 31 32  1  0
 32 22  1  0
 32 25  2  0
 23 33  1  0
 28 34  1  0
 30 35  1  0
 30 36  1  0
  8 22  1  0
M  END
>  <DihAtoms>  (1) 
6,7,21,22

>  <DihDeg>  (1) 
-89.98762125620053

$$$$
