
     RDKit          3D

 23 23  0  0  0  0  0  0  0  0999 V2000
   48.5970   34.5920   41.7220 C   0  0  0  0  0  0  0  0  0  0  0  0
   47.4300   34.6010   42.6460 C   0  0  0  0  0  0  0  0  0  0  0  0
   47.4810   33.6370   43.6510 C   0  0  0  0  0  0  0  0  0  0  0  0
   46.4010   33.5860   44.5680 C   0  0  0  0  0  0  0  0  0  0  0  0
   45.3890   34.4760   44.4120 N   0  0  0  0  0  0  0  0  0  0  0  0
   45.3770   35.4050   43.4140 C   0  0  0  0  0  0  0  0  0  0  0  0
   46.3840   35.4670   42.5420 N   0  0  0  0  0  0  0  0  0  0  0  0
   49.7810   33.8520   42.3250 C   0  0  0  0  0  0  0  0  0  0  0  0
   49.0270   36.0100   41.5000 C   0  0  0  0  0  0  0  0  0  0  0  0
   48.2800   33.9340   40.4090 C   0  0  0  0  0  0  0  0  0  0  0  0
   47.0360   34.3300   39.9190 O   0  0  0  0  0  0  0  0  0  0  0  0
   48.3288   32.9406   43.7300 H   0  0  0  0  0  0  0  0  0  0  0  0
   46.3841   32.8465   45.3821 H   0  0  0  0  0  0  0  0  0  0  0  0
   44.5336   36.1059   43.3279 H   0  0  0  0  0  0  0  0  0  0  0  0
   49.7178   33.8915   43.4225 H   0  0  0  0  0  0  0  0  0  0  0  0
   49.7648   32.8030   41.9943 H   0  0  0  0  0  0  0  0  0  0  0  0
   50.7168   34.3263   41.9943 H   0  0  0  0  0  0  0  0  0  0  0  0
   49.1768   36.5041   42.4713 H   0  0  0  0  0  0  0  0  0  0  0  0
   49.9694   36.0229   40.9328 H   0  0  0  0  0  0  0  0  0  0  0  0
   48.2504   36.5441   40.9328 H   0  0  0  0  0  0  0  0  0  0  0  0
   49.0545   34.2075   39.6774 H   0  0  0  0  0  0  0  0  0  0  0  0
   48.2543   32.8460   40.5689 H   0  0  0  0  0  0  0  0  0  0  0  0
   46.4291   34.5232   40.6769 H   0  0  0  0  0  0  0  0  0  0  0  0
  1  8  1  0
  1  2  1  0
  2  3  2  0
  3  4  1  0
  5  4  2  0
  6  5  1  0
  7  2  1  0
  7  6  2  0
  9  1  1  0
 10  1  1  0
 11 10  1  0
  3 12  1  0
  4 13  1  0
  6 14  1  0
  8 15  1  0
  8 16  1  0
  8 17  1  0
  9 18  1  0
  9 19  1  0
  9 20  1  0
 10 21  1  0
 10 22  1  0
 11 23  1  0
M  ISO  8  12  14  13  14  14  14  15   8  16   8  17   8  18   8  19   8
M  ISO  4  20   8  21   8  22   8  23   3
M  END
>  <minimizedAffinity>  (1) 
-3.92217517

>  <minimizedRMSD>  (1) 
0.451122969

$$$$
