
     RDKit          3D

 32 34  0  0  0  0  0  0  0  0999 V2000
   47.6580   34.6820   41.5220 C   0  0  0  0  0  0  0  0  0  0  0  0
   47.2970   34.2140   40.1640 C   0  0  0  0  0  0  0  0  0  0  0  0
   48.1880   34.1970   39.1120 C   0  0  0  0  0  0  0  0  0  0  0  0
   47.9250   33.7700   37.8300 C   0  0  0  0  0  0  0  0  0  0  0  0
   46.6430   33.3270   37.6240 N   0  0  0  0  0  0  0  0  0  0  0  0
   45.7510   33.3350   38.6460 C   0  0  0  0  0  0  0  0  0  0  0  0
   46.0280   33.7590   39.9010 N   0  0  0  0  0  0  0  0  0  0  0  0
   44.4090   32.8460   38.3470 C   0  0  0  0  0  0  0  0  0  0  0  0
   43.2880   33.5550   38.7720 C   0  0  0  0  0  0  0  0  0  0  0  0
   42.0270   33.1000   38.4910 C   0  0  0  0  0  0  0  0  0  0  0  0
   41.8530   31.9780   37.8120 N   0  0  0  0  0  0  0  0  0  0  0  0
   42.9530   31.2970   37.4030 C   0  0  0  0  0  0  0  0  0  0  0  0
   44.2250   31.7170   37.6630 N   0  0  0  0  0  0  0  0  0  0  0  0
   47.1200   33.6960   42.5290 C   0  0  0  0  0  0  0  0  0  0  0  0
   44.6820   36.0410   44.2290 C   0  0  0  0  0  0  0  0  0  0  0  0
   45.5210   35.4900   43.2550 C   0  0  0  0  0  0  0  0  0  0  0  0
   46.2180   34.3270   43.5190 C   0  0  0  0  0  0  0  0  0  0  0  0
   46.0570   33.7540   44.7420 N   0  0  0  0  0  0  0  0  0  0  0  0
   45.2280   34.3170   45.6740 C   0  0  0  0  0  0  0  0  0  0  0  0
   44.5620   35.4350   45.4110 N   0  0  0  0  0  0  0  0  0  0  0  0
   47.2169   35.6735   41.7018 H   0  0  0  0  0  0  0  0  0  0  0  0
   48.7515   34.7565   41.6158 H   0  0  0  0  0  0  0  0  0  0  0  0
   49.2063   34.5592   39.3166 H   0  0  0  0  0  0  0  0  0  0  0  0
   48.6833   33.7830   37.0332 H   0  0  0  0  0  0  0  0  0  0  0  0
   43.4166   34.4890   39.3386 H   0  0  0  0  0  0  0  0  0  0  0  0
   41.1519   33.6722   38.8327 H   0  0  0  0  0  0  0  0  0  0  0  0
   42.8131   30.3646   36.8364 H   0  0  0  0  0  0  0  0  0  0  0  0
   46.5624   32.9139   41.9929 H   0  0  0  0  0  0  0  0  0  0  0  0
   47.9775   33.2796   43.0780 H   0  0  0  0  0  0  0  0  0  0  0  0
   44.1255   36.9669   44.0218 H   0  0  0  0  0  0  0  0  0  0  0  0
   45.6259   35.9834   42.2775 H   0  0  0  0  0  0  0  0  0  0  0  0
   45.1117   33.8358   46.6563 H   0  0  0  0  0  0  0  0  0  0  0  0
  1 14  1  0
  2  1  1  0
  3  2  2  0
  4  3  1  0
  5  4  2  0
  5  6  1  0
  6  7  2  0
  7  2  1  0
  8  6  1  0
  8  9  2  0
 10  9  1  0
 11 10  2  0
 12 13  2  0
 12 11  1  0
 13  8  1  0
 14 17  1  0
 15 20  2  0
 16 17  2  0
 16 15  1  0
 17 18  1  0
 18 19  2  0
 20 19  1  0
  1 21  1  0
  1 22  1  0
  3 23  1  0
  4 24  1  0
  9 25  1  0
 10 26  1  0
 12 27  1  0
 14 28  1  0
 14 29  1  0
 15 30  1  0
 16 31  1  0
 19 32  1  0
M  ISO  8  21   8  22   8  23  14  24  14  25  14  26  14  27  14  28   8
M  ISO  4  29   8  30  14  31  14  32  14
M  END
>  <minimizedAffinity>  (1) 
-4.75688696

>  <minimizedRMSD>  (1) 
0.788426757

$$$$
