
     RDKit          3D

 28 29  0  0  0  0  0  0  0  0999 V2000
   47.8580   34.3080   41.4210 C   0  0  0  0  0  0  0  0  0  0  0  0
   46.9490   34.4590   42.5940 C   0  0  0  0  0  0  0  0  0  0  0  0
   47.1820   33.5280   43.6200 C   0  0  0  0  0  0  0  0  0  0  0  0
   46.3790   33.5820   44.7720 C   0  0  0  0  0  0  0  0  0  0  0  0
   45.4120   34.5490   44.8150 N   0  0  0  0  0  0  0  0  0  0  0  0
   45.2130   35.4340   43.8030 C   0  0  0  0  0  0  0  0  0  0  0  0
   45.9730   35.3870   42.7060 N   0  0  0  0  0  0  0  0  0  0  0  0
   48.8270   33.1470   41.6050 C   0  0  0  0  0  0  0  0  0  0  0  0
   48.6730   35.5720   41.3130 C   0  0  0  0  0  0  0  0  0  0  0  0
   47.1050   34.0730   40.1590 C   0  0  0  0  0  0  0  0  0  0  0  0
   47.9200   33.6670   39.0490 N   0  0  0  0  0  0  0  0  0  0  0  0
   48.5210   32.4980   38.7590 C   0  0  0  0  0  0  0  0  0  0  0  0
   49.1770   32.6240   37.5920 N   0  0  0  0  0  0  0  0  0  0  0  0
   48.9960   33.8810   37.1290 C   0  0  0  0  0  0  0  0  0  0  0  0
   48.2280   34.4780   38.0450 N   0  0  0  0  0  0  0  0  0  0  0  0
   47.9761   32.7729   43.5237 H   0  0  0  0  0  0  0  0  0  0  0  0
   46.5218   32.8767   45.6039 H   0  0  0  0  0  0  0  0  0  0  0  0
   44.4215   36.1932   43.8880 H   0  0  0  0  0  0  0  0  0  0  0  0
   48.9800   32.9637   42.6788 H   0  0  0  0  0  0  0  0  0  0  0  0
   48.4108   32.2440   41.1345 H   0  0  0  0  0  0  0  0  0  0  0  0
   49.7899   33.3950   41.1345 H   0  0  0  0  0  0  0  0  0  0  0  0
   48.9114   35.9418   42.3212 H   0  0  0  0  0  0  0  0  0  0  0  0
   49.6059   35.3615   40.7695 H   0  0  0  0  0  0  0  0  0  0  0  0
   48.0962   36.3349   40.7695 H   0  0  0  0  0  0  0  0  0  0  0  0
   46.3596   33.2857   40.3447 H   0  0  0  0  0  0  0  0  0  0  0  0
   46.6516   35.0356   39.8801 H   0  0  0  0  0  0  0  0  0  0  0  0
   48.4819   31.5881   39.3760 H   0  0  0  0  0  0  0  0  0  0  0  0
   49.3940   34.3171   36.2009 H   0  0  0  0  0  0  0  0  0  0  0  0
  1  8  1  0
  1  2  1  0
  2  7  1  0
  2  3  2  0
  3  4  1  0
  4  5  2  0
  6  5  1  0
  7  6  2  0
  9  1  1  0
 10  1  1  0
 11 10  1  0
 12 11  1  0
 13 12  2  0
 14 13  1  0
 14 15  2  0
 15 11  1  0
  3 16  1  0
  4 17  1  0
  6 18  1  0
  8 19  1  0
  8 20  1  0
  8 21  1  0
  9 22  1  0
  9 23  1  0
  9 24  1  0
 10 25  1  0
 10 26  1  0
 12 27  1  0
 14 28  1  0
M  ISO  8  16  14  17  14  18  14  19   8  20   8  21   8  22   8  23   8
M  ISO  5  24   8  25   8  26   8  27  14  28  14
M  END
>  <minimizedAffinity>  (1) 
-4.19887066

>  <minimizedRMSD>  (1) 
1.26174903

$$$$
