
     RDKit          3D

 43 45  0  0  1  0  0  0  0  0999 V2000
   47.6890   33.6940   41.9540 C   0  0  2  0  0  0  0  0  0  0  0  0
   47.4590   32.9000   40.6320 C   0  0  0  0  0  0  0  0  0  0  0  0
   46.9360   31.6300   40.5130 C   0  0  0  0  0  0  0  0  0  0  0  0
   46.8740   31.2640   39.2230 N   0  0  0  0  0  0  0  0  0  0  0  0
   47.3500   32.2730   38.4780 C   0  0  0  0  0  0  0  0  0  0  0  0
   47.5300   32.4310   37.1210 C   0  0  0  0  0  0  0  0  0  0  0  0
   48.0660   33.5680   36.5520 C   0  0  0  0  0  0  0  0  0  0  0  0
   48.4300   34.5770   37.4190 C   0  0  0  0  0  0  0  0  0  0  0  0
   48.2490   34.4140   38.7710 C   0  0  0  0  0  0  0  0  0  0  0  0
   47.7130   33.2820   39.3360 C   0  0  0  0  0  0  0  0  0  0  0  0
   48.9380   33.0880   42.3450 N   0  0  0  0  0  0  0  0  0  0  0  0
   50.0170   33.9300   42.6130 C   0  0  0  0  0  0  0  0  0  0  0  0
   50.0210   35.1840   42.8070 N   0  0  0  0  0  0  0  0  0  0  0  0
   51.3510   33.4090   42.6720 N   0  0  0  0  0  0  0  0  0  0  0  0
   49.1430   35.7450   42.7930 H   0  0  0  0  0  0  0  0  0  0  0  0
   46.5650   33.2320   42.8050 C   0  0  0  0  0  0  0  0  0  0  0  0
   45.2530   33.7930   42.3450 C   0  0  0  0  0  0  0  0  0  0  0  0
   45.1850   35.1600   42.2310 C   0  0  0  0  0  0  0  0  0  0  0  0
   43.9580   35.6940   41.7670 C   0  0  0  0  0  0  0  0  0  0  0  0
   42.9420   34.8500   41.4670 N   0  0  0  0  0  0  0  0  0  0  0  0
   43.0500   33.5010   41.5940 C   0  0  0  0  0  0  0  0  0  0  0  0
   44.1950   33.0020   42.0270 N   0  0  0  0  0  0  0  0  0  0  0  0
   46.5770   31.7340   42.8940 C   0  0  0  0  0  0  0  0  0  0  0  0
   46.7190   33.7440   44.2530 C   0  0  0  0  0  0  0  0  0  0  0  0
   47.7237   34.7934   41.9568 H   0  0  0  0  0  0  0  0  0  0  0  0
   46.6142   31.0035   41.3579 H   0  0  0  0  0  0  0  0  0  0  0  0
   46.5218   30.3640   38.8667 H   0  0  0  0  0  0  0  0  0  0  0  0
   47.2306   31.6073   36.4563 H   0  0  0  0  0  0  0  0  0  0  0  0
   48.1962   33.6646   35.4640 H   0  0  0  0  0  0  0  0  0  0  0  0
   48.8640   35.5095   37.0290 H   0  0  0  0  0  0  0  0  0  0  0  0
   48.5498   35.2352   39.4382 H   0  0  0  0  0  0  0  0  0  0  0  0
   49.0302   32.0652   42.4239 H   0  0  0  0  0  0  0  0  0  0  0  0
   52.1415   34.0387   42.8706 H   0  0  0  0  0  0  0  0  0  0  0  0
   51.5191   32.4049   42.5158 H   0  0  0  0  0  0  0  0  0  0  0  0
   46.0381   35.8057   42.4865 H   0  0  0  0  0  0  0  0  0  0  0  0
   43.8317   36.7806   41.6517 H   0  0  0  0  0  0  0  0  0  0  0  0
   42.2062   32.8414   41.3429 H   0  0  0  0  0  0  0  0  0  0  0  0
   46.5794   31.4295   43.9510 H   0  0  0  0  0  0  0  0  0  0  0  0
   45.6821   31.3300   42.3981 H   0  0  0  0  0  0  0  0  0  0  0  0
   47.4783   31.3444   42.3981 H   0  0  0  0  0  0  0  0  0  0  0  0
   46.4754   32.9340   44.9562 H   0  0  0  0  0  0  0  0  0  0  0  0
   47.7558   34.0728   44.4174 H   0  0  0  0  0  0  0  0  0  0  0  0
   46.0356   34.5902   44.4174 H   0  0  0  0  0  0  0  0  0  0  0  0
  1 11  1  0
  1 16  1  0
  2  1  1  0
  3  2  2  0
  4  3  1  0
  5  4  1  0
  5 10  2  0
  6  5  1  0
  7  6  2  0
  7  8  1  0
  8  9  2  0
  9 10  1  0
 10  2  1  0
 11 12  1  0
 12 14  1  0
 12 13  2  0
 15 13  1  0
 16 23  1  0
 16 24  1  0
 17 16  1  0
 18 17  2  0
 19 18  1  0
 20 21  1  0
 20 19  2  0
 21 22  2  0
 22 17  1  0
  1 25  1  6
  3 26  1  0
  4 27  1  0
  6 28  1  0
  7 29  1  0
  8 30  1  0
  9 31  1  0
 11 32  1  0
 14 33  1  0
 14 34  1  0
 18 35  1  0
 19 36  1  0
 21 37  1  0
 23 38  1  0
 23 39  1  0
 23 40  1  0
 24 41  1  0
 24 42  1  0
 24 43  1  0
M  ISO  8  25   8  26  14  27   9  28  14  29  14  30  14  31  14  35  14
M  ISO  8  36  14  37  14  38   8  39   8  40   8  41   8  42   8  43   8
M  END
>  <minimizedAffinity>  (1) 
-5.58890772

>  <minimizedRMSD>  (1) 
0.856631756

$$$$
