
     RDKit          3D

 39 40  0  0  1  0  0  0  0  0999 V2000
   47.7430   34.0000   42.1790 C   0  0  2  0  0  0  0  0  0  0  0  0
   47.6950   33.8080   40.6960 N   0  0  0  0  0  0  0  0  0  0  0  0
   47.1350   32.7660   40.0620 C   0  0  0  0  0  0  0  0  0  0  0  0
   47.1050   32.6020   38.6970 C   0  0  0  0  0  0  0  0  0  0  0  0
   47.6940   33.5770   37.9220 C   0  0  0  0  0  0  0  0  0  0  0  0
   47.6730   33.4370   36.6730 O   0  0  0  0  0  0  0  0  0  0  0  0
   48.2590   34.6240   38.5390 N   0  0  0  0  0  0  0  0  0  0  0  0
   48.2510   34.7220   39.8790 C   0  0  0  0  0  0  0  0  0  0  0  0
   48.8330   35.7710   40.2620 O   0  0  0  0  0  0  0  0  0  0  0  0
   48.9510   33.2130   42.4300 N   0  0  0  0  0  0  0  0  0  0  0  0
   50.1250   33.9220   42.6670 C   0  0  0  0  0  0  0  0  0  0  0  0
   50.2560   35.1450   43.0030 N   0  0  0  0  0  0  0  0  0  0  0  0
   51.3910   33.2730   42.5270 N   0  0  0  0  0  0  0  0  0  0  0  0
   49.4350   35.7490   43.2290 H   0  0  0  0  0  0  0  0  0  0  0  0
   46.5840   33.3330   42.8250 C   0  0  0  0  0  0  0  0  0  0  0  0
   45.2820   33.9470   42.3980 C   0  0  0  0  0  0  0  0  0  0  0  0
   45.1990   35.3170   42.4630 C   0  0  0  0  0  0  0  0  0  0  0  0
   43.9980   35.9050   42.0120 C   0  0  0  0  0  0  0  0  0  0  0  0
   43.0100   35.1060   41.5500 N   0  0  0  0  0  0  0  0  0  0  0  0
   43.1270   33.7590   41.5020 C   0  0  0  0  0  0  0  0  0  0  0  0
   44.2450   33.2050   41.9220 N   0  0  0  0  0  0  0  0  0  0  0  0
   46.6330   31.8540   42.6470 C   0  0  0  0  0  0  0  0  0  0  0  0
   46.6250   33.5650   44.3570 C   0  0  0  0  0  0  0  0  0  0  0  0
   47.7309   35.0398   42.5377 H   0  0  0  0  0  0  0  0  0  0  0  0
   46.6656   31.9860   40.6795 H   0  0  0  0  0  0  0  0  0  0  0  0
   46.6273   31.7229   38.2398 H   0  0  0  0  0  0  0  0  0  0  0  0
   48.7055   35.3637   37.9783 H   0  0  0  0  0  0  0  0  0  0  0  0
   48.9332   32.1832   42.4312 H   0  0  0  0  0  0  0  0  0  0  0  0
   52.2604   33.7968   42.7022 H   0  0  0  0  0  0  0  0  0  0  0  0
   51.4338   32.2816   42.2510 H   0  0  0  0  0  0  0  0  0  0  0  0
   46.0295   35.9267   42.8484 H   0  0  0  0  0  0  0  0  0  0  0  0
   43.8676   36.9970   42.0360 H   0  0  0  0  0  0  0  0  0  0  0  0
   42.3034   33.1383   41.1192 H   0  0  0  0  0  0  0  0  0  0  0  0
   46.6492   31.3664   43.6329 H   0  0  0  0  0  0  0  0  0  0  0  0
   45.7454   31.5223   42.0884 H   0  0  0  0  0  0  0  0  0  0  0  0
   47.5407   31.5818   42.0884 H   0  0  0  0  0  0  0  0  0  0  0  0
   46.4563   32.6105   44.8770 H   0  0  0  0  0  0  0  0  0  0  0  0
   47.6083   33.9683   44.6406 H   0  0  0  0  0  0  0  0  0  0  0  0
   45.8395   34.2809   44.6406 H   0  0  0  0  0  0  0  0  0  0  0  0
  1 10  1  0
  1 15  1  0
  2  1  1  0
  3  2  1  0
  4  3  2  0
  5  7  1  0
  5  4  1  0
  6  5  2  0
  7  8  1  0
  8  9  2  0
  8  2  1  0
 10 11  1  0
 11 12  2  0
 12 14  1  0
 13 11  1  0
 15 23  1  0
 16 17  2  0
 16 15  1  0
 18 17  1  0
 19 18  2  0
 20 19  1  0
 20 21  2  0
 21 16  1  0
 22 15  1  0
  1 24  1  6
  3 25  1  0
  4 26  1  0
  7 27  1  0
 10 28  1  0
 13 29  1  0
 13 30  1  0
 17 31  1  0
 18 32  1  0
 20 33  1  0
 22 34  1  0
 22 35  1  0
 22 36  1  0
 23 37  1  0
 23 38  1  0
 23 39  1  0
M  ISO  8  24   8  25  14  26  14  27   9  31  14  32  14  33  14  34   8
M  ISO  5  35   8  36   8  37   8  38   8  39   8
M  END
>  <minimizedAffinity>  (1) 
-5.81979036

>  <minimizedRMSD>  (1) 
0.393550158

$$$$
