
     RDKit          3D

 35 36  0  0  1  0  0  0  0  0999 V2000
   46.6590   33.3500   42.5430 C   0  0  0  0  0  0  0  0  0  0  0  0
   45.3230   33.9720   42.2410 C   0  0  0  0  0  0  0  0  0  0  0  0
   45.2290   35.3390   42.3740 C   0  0  0  0  0  0  0  0  0  0  0  0
   43.9910   35.9230   42.0390 C   0  0  0  0  0  0  0  0  0  0  0  0
   42.9810   35.1260   41.6120 N   0  0  0  0  0  0  0  0  0  0  0  0
   43.1070   33.7730   41.4930 C   0  0  0  0  0  0  0  0  0  0  0  0
   44.2680   33.2330   41.8080 N   0  0  0  0  0  0  0  0  0  0  0  0
   46.7280   31.8850   42.2570 C   0  0  0  0  0  0  0  0  0  0  0  0
   46.8370   33.5300   44.0570 C   0  0  0  0  0  0  0  0  0  0  0  0
   47.7490   34.0610   41.7990 C   0  0  1  0  0  0  0  0  0  0  0  0
   49.0100   33.3650   41.9600 N   0  0  0  0  0  0  0  0  0  0  0  0
   50.1170   34.0760   42.4390 C   0  0  0  0  0  0  0  0  0  0  0  0
   50.1130   35.2220   42.9870 N   0  0  0  0  0  0  0  0  0  0  0  0
   51.4240   33.5180   42.3200 N   0  0  0  0  0  0  0  0  0  0  0  0
   49.2340   35.7400   43.2000 H   0  0  0  0  0  0  0  0  0  0  0  0
   47.4470   33.7030   40.3640 N   0  0  0  0  0  0  0  0  0  0  0  0
   48.0450   34.3640   39.3210 C   0  0  0  0  0  0  0  0  0  0  0  0
   47.6550   33.8960   38.1470 N   0  0  0  0  0  0  0  0  0  0  0  0
   46.7910   32.9200   38.3980 C   0  0  0  0  0  0  0  0  0  0  0  0
   46.6970   32.8390   39.7180 N   0  0  0  0  0  0  0  0  0  0  0  0
   46.0776   35.9450   42.7242 H   0  0  0  0  0  0  0  0  0  0  0  0
   43.8463   37.0102   42.1228 H   0  0  0  0  0  0  0  0  0  0  0  0
   42.2676   33.1527   41.1456 H   0  0  0  0  0  0  0  0  0  0  0  0
   46.7543   31.3272   43.2047 H   0  0  0  0  0  0  0  0  0  0  0  0
   45.8431   31.5824   41.6779 H   0  0  0  0  0  0  0  0  0  0  0  0
   47.6374   31.6669   41.6779 H   0  0  0  0  0  0  0  0  0  0  0  0
   46.1603   32.8457   44.5897 H   0  0  0  0  0  0  0  0  0  0  0  0
   47.8778   33.3051   44.3331 H   0  0  0  0  0  0  0  0  0  0  0  0
   46.6005   34.5682   44.3331 H   0  0  0  0  0  0  0  0  0  0  0  0
   47.7996   35.1169   42.1031 H   0  0  0  0  0  0  0  0  0  0  0  0
   49.0904   32.3651   41.7262 H   0  0  0  0  0  0  0  0  0  0  0  0
   52.2402   34.0387   42.6715 H   0  0  0  0  0  0  0  0  0  0  0  0
   51.5517   32.5943   41.8826 H   0  0  0  0  0  0  0  0  0  0  0  0
   48.7644   35.1866   39.4464 H   0  0  0  0  0  0  0  0  0  0  0  0
   46.2596   32.3023   37.6590 H   0  0  0  0  0  0  0  0  0  0  0  0
  1  9  1  0
  2  3  2  0
  2  1  1  0
  4  3  1  0
  5  4  2  0
  6  5  1  0
  6  7  2  0
  7  2  1  0
  8  1  1  0
 10 11  1  0
 10  1  1  0
 11 12  1  0
 12 13  2  0
 13 15  1  0
 14 12  1  0
 16 10  1  0
 17 16  1  0
 18 19  1  0
 18 17  2  0
 19 20  2  0
 20 16  1  0
  3 21  1  0
  4 22  1  0
  6 23  1  0
  8 24  1  0
  8 25  1  0
  8 26  1  0
  9 27  1  0
  9 28  1  0
  9 29  1  0
 10 30  1  6
 11 31  1  0
 14 32  1  0
 14 33  1  0
 17 34  1  0
 19 35  1  0
M  ISO  8  21  14  22  14  23  14  24   8  25   8  26   8  27   8  28   8
M  ISO  4  29   8  30   8  34  14  35  14
M  END
>  <minimizedAffinity>  (1) 
-4.96269608

>  <minimizedRMSD>  (1) 
0.273068756

$$$$
