
     RDKit          3D

 45 46  0  0  1  0  0  0  0  0999 V2000
   46.7110   33.3480   42.4760 C   0  0  0  0  0  0  0  0  0  0  0  0
   45.3940   34.0530   42.3250 C   0  0  0  0  0  0  0  0  0  0  0  0
   45.3620   35.3990   42.5790 C   0  0  0  0  0  0  0  0  0  0  0  0
   44.1180   36.0430   42.3500 C   0  0  0  0  0  0  0  0  0  0  0  0
   43.0660   35.3200   41.9100 N   0  0  0  0  0  0  0  0  0  0  0  0
   43.1380   33.9920   41.6750 C   0  0  0  0  0  0  0  0  0  0  0  0
   44.2920   33.3840   41.8850 N   0  0  0  0  0  0  0  0  0  0  0  0
   46.6980   31.8930   42.2280 C   0  0  0  0  0  0  0  0  0  0  0  0
   46.9870   33.4780   44.0250 C   0  0  0  0  0  0  0  0  0  0  0  0
   47.7910   34.0520   41.7540 C   0  0  1  0  0  0  0  0  0  0  0  0
   49.0420   33.3080   41.9410 N   0  0  0  0  0  0  0  0  0  0  0  0
   50.1320   34.0050   42.4420 C   0  0  0  0  0  0  0  0  0  0  0  0
   50.1180   35.1060   43.0830 N   0  0  0  0  0  0  0  0  0  0  0  0
   51.4520   33.4910   42.2560 N   0  0  0  0  0  0  0  0  0  0  0  0
   49.2270   35.5670   43.3740 H   0  0  0  0  0  0  0  0  0  0  0  0
   47.6260   33.9720   40.2460 C   0  0  0  0  0  0  0  0  0  0  0  0
   46.3680   33.4430   39.6990 C   0  0  0  0  0  0  0  0  0  0  0  0
   46.5200   32.9750   38.2560 C   0  0  0  0  0  0  0  0  0  0  0  0
   47.4390   31.8230   38.0680 C   0  0  0  0  0  0  0  0  0  0  0  0
   48.2760   31.7120   39.3200 C   0  0  0  0  0  0  0  0  0  0  0  0
   48.7490   33.0880   39.6580 C   0  0  0  0  0  0  0  0  0  0  0  0
   46.2458   35.9467   42.9382 H   0  0  0  0  0  0  0  0  0  0  0  0
   44.0118   37.1230   42.5297 H   0  0  0  0  0  0  0  0  0  0  0  0
   42.2606   33.4324   41.3188 H   0  0  0  0  0  0  0  0  0  0  0  0
   46.6932   31.3573   43.1887 H   0  0  0  0  0  0  0  0  0  0  0  0
   45.7974   31.6267   41.6552 H   0  0  0  0  0  0  0  0  0  0  0  0
   47.5937   31.6107   41.6552 H   0  0  0  0  0  0  0  0  0  0  0  0
   46.1306   33.0746   44.5852 H   0  0  0  0  0  0  0  0  0  0  0  0
   47.8941   32.9125   44.2846 H   0  0  0  0  0  0  0  0  0  0  0  0
   47.1287   34.5375   44.2846 H   0  0  0  0  0  0  0  0  0  0  0  0
   47.7781   35.0857   42.1298 H   0  0  0  0  0  0  0  0  0  0  0  0
   49.1083   32.3066   41.7092 H   0  0  0  0  0  0  0  0  0  0  0  0
   52.2626   34.0069   42.6271 H   0  0  0  0  0  0  0  0  0  0  0  0
   51.5931   32.6046   41.7508 H   0  0  0  0  0  0  0  0  0  0  0  0
   47.6506   35.0329   39.9562 H   0  0  0  0  0  0  0  0  0  0  0  0
   46.0438   32.5916   40.3154 H   0  0  0  0  0  0  0  0  0  0  0  0
   45.6251   34.2540   39.7148 H   0  0  0  0  0  0  0  0  0  0  0  0
   45.5264   32.6843   37.8841 H   0  0  0  0  0  0  0  0  0  0  0  0
   46.9615   33.8168   37.7024 H   0  0  0  0  0  0  0  0  0  0  0  0
   46.8604   30.8996   37.9182 H   0  0  0  0  0  0  0  0  0  0  0  0
   48.0761   31.9714   37.1837 H   0  0  0  0  0  0  0  0  0  0  0  0
   47.6695   31.3088   40.1444 H   0  0  0  0  0  0  0  0  0  0  0  0
   49.1276   31.0340   39.1617 H   0  0  0  0  0  0  0  0  0  0  0  0
   49.5603   33.0106   40.3967 H   0  0  0  0  0  0  0  0  0  0  0  0
   49.0938   33.5611   38.7267 H   0  0  0  0  0  0  0  0  0  0  0  0
  1  9  1  0
  2  1  1  0
  2  3  2  0
  4  3  1  0
  5  4  2  0
  6  7  2  0
  6  5  1  0
  7  2  1  0
  8  1  1  0
 10 11  1  0
 10  1  1  0
 11 12  1  0
 12 13  2  0
 13 15  1  0
 14 12  1  0
 16 10  1  0
 17 16  1  0
 18 17  1  0
 19 18  1  0
 19 20  1  0
 20 21  1  0
 21 16  1  0
  3 22  1  0
  4 23  1  0
  6 24  1  0
  8 25  1  0
  8 26  1  0
  8 27  1  0
  9 28  1  0
  9 29  1  0
  9 30  1  0
 10 31  1  1
 11 32  1  0
 14 33  1  0
 14 34  1  0
 16 35  1  0
 17 36  1  0
 17 37  1  0
 18 38  1  0
 18 39  1  0
 19 40  1  0
 19 41  1  0
 20 42  1  0
 20 43  1  0
 21 44  1  0
 21 45  1  0
M  ISO  8  22  14  23  14  24  14  25   8  26   8  27   8  28   8  29   8
M  ISO  8  30   8  31   8  35  13  36  13  37  13  38  13  39  13  40  13
M  ISO  5  41  13  42  13  43  13  44  13  45  13
M  END
>  <minimizedAffinity>  (1) 
-4.99003744

>  <minimizedRMSD>  (1) 
0.556861639

$$$$
