
     RDKit          3D

 49 51  0  0  1  0  0  0  0  0999 V2000
   47.8610   34.0980   41.4220 C   0  0  2  0  0  0  0  0  0  0  0  0
   47.8190   34.0170   39.8800 C   0  0  0  0  0  0  0  0  0  0  0  0
   48.4970   34.9210   39.0960 N   0  0  0  0  0  0  0  0  0  0  0  0
   48.3180   34.6620   37.8390 O   0  0  0  0  0  0  0  0  0  0  0  0
   47.5390   33.6080   37.7270 C   0  0  0  0  0  0  0  0  0  0  0  0
   47.2460   33.2290   38.9680 N   0  0  0  0  0  0  0  0  0  0  0  0
   46.9670   32.8230   36.6850 N   0  0  0  0  0  0  0  0  0  0  0  0
   45.5170   32.7490   36.7490 C   0  0  0  0  0  0  0  0  0  0  0  0
   45.0120   31.7970   35.6930 C   0  0  0  0  0  0  0  0  0  0  0  0
   45.6400   32.2510   34.3860 C   0  0  0  0  0  0  0  0  0  0  0  0
   47.0900   31.8280   34.4160 C   0  0  0  0  0  0  0  0  0  0  0  0
   47.8000   32.1710   35.6940 C   0  0  0  0  0  0  0  0  0  0  0  0
   49.1020   33.3750   41.6280 N   0  0  0  0  0  0  0  0  0  0  0  0
   50.1420   34.0100   42.3270 C   0  0  0  0  0  0  0  0  0  0  0  0
   50.0650   35.0660   43.0460 N   0  0  0  0  0  0  0  0  0  0  0  0
   51.4610   33.4910   42.2860 N   0  0  0  0  0  0  0  0  0  0  0  0
   49.1660   35.5410   43.2170 H   0  0  0  0  0  0  0  0  0  0  0  0
   46.6950   33.3050   41.8170 C   0  0  0  0  0  0  0  0  0  0  0  0
   45.4120   34.0820   41.5810 C   0  0  0  0  0  0  0  0  0  0  0  0
   45.2420   35.2220   42.3360 C   0  0  0  0  0  0  0  0  0  0  0  0
   44.0460   35.9410   42.0900 C   0  0  0  0  0  0  0  0  0  0  0  0
   43.1720   35.5010   41.1750 N   0  0  0  0  0  0  0  0  0  0  0  0
   43.3840   34.3640   40.4490 C   0  0  0  0  0  0  0  0  0  0  0  0
   44.4880   33.6740   40.6570 N   0  0  0  0  0  0  0  0  0  0  0  0
   46.7080   32.0020   41.1210 C   0  0  0  0  0  0  0  0  0  0  0  0
   46.7000   33.0300   43.3220 C   0  0  0  0  0  0  0  0  0  0  0  0
   47.8327   35.0668   41.9422 H   0  0  0  0  0  0  0  0  0  0  0  0
   45.2123   32.3887   37.7427 H   0  0  0  0  0  0  0  0  0  0  0  0
   45.0920   33.7483   36.5735 H   0  0  0  0  0  0  0  0  0  0  0  0
   45.3198   30.7674   35.9277 H   0  0  0  0  0  0  0  0  0  0  0  0
   43.9135   31.8037   35.6362 H   0  0  0  0  0  0  0  0  0  0  0  0
   45.5684   33.3448   34.2935 H   0  0  0  0  0  0  0  0  0  0  0  0
   45.1202   31.8023   33.5266 H   0  0  0  0  0  0  0  0  0  0  0  0
   47.1352   30.7377   34.2771 H   0  0  0  0  0  0  0  0  0  0  0  0
   47.5990   32.3790   33.6114 H   0  0  0  0  0  0  0  0  0  0  0  0
   48.1904   31.2402   36.1313 H   0  0  0  0  0  0  0  0  0  0  0  0
   48.5930   32.8864   35.4305 H   0  0  0  0  0  0  0  0  0  0  0  0
   49.2180   32.4165   41.2693 H   0  0  0  0  0  0  0  0  0  0  0  0
   52.2167   33.9638   42.8019 H   0  0  0  0  0  0  0  0  0  0  0  0
   51.6633   32.6412   41.7403 H   0  0  0  0  0  0  0  0  0  0  0  0
   45.9837   35.5513   43.0786 H   0  0  0  0  0  0  0  0  0  0  0  0
   43.8347   36.8628   42.6518 H   0  0  0  0  0  0  0  0  0  0  0  0
   42.6469   34.0298   39.7040 H   0  0  0  0  0  0  0  0  0  0  0  0
   46.7161   31.1900   41.8630 H   0  0  0  0  0  0  0  0  0  0  0  0
   45.8107   31.9139   40.4909 H   0  0  0  0  0  0  0  0  0  0  0  0
   47.6069   31.9318   40.4909 H   0  0  0  0  0  0  0  0  0  0  0  0
   46.6827   33.9841   43.8691 H   0  0  0  0  0  0  0  0  0  0  0  0
   45.8125   32.4378   43.5895 H   0  0  0  0  0  0  0  0  0  0  0  0
   47.6085   32.4704   43.5895 H   0  0  0  0  0  0  0  0  0  0  0  0
  1 13  1  0
  1 18  1  0
  2  1  1  0
  3  2  2  0
  4  3  1  0
  5  4  1  0
  5  6  2  0
  6  2  1  0
  7  8  1  0
  7  5  1  0
  9  8  1  0
 10 11  1  0
 10  9  1  0
 11 12  1  0
 12  7  1  0
 13 14  1  0
 14 15  2  0
 15 17  1  0
 16 14  1  0
 18 26  1  0
 19 18  1  0
 19 20  2  0
 21 20  1  0
 22 21  2  0
 23 24  2  0
 23 22  1  0
 24 19  1  0
 25 18  1  0
  1 27  1  6
  8 28  1  0
  8 29  1  0
  9 30  1  0
  9 31  1  0
 10 32  1  0
 10 33  1  0
 11 34  1  0
 11 35  1  0
 12 36  1  0
 12 37  1  0
 13 38  1  0
 16 39  1  0
 16 40  1  0
 20 41  1  0
 21 42  1  0
 23 43  1  0
 25 44  1  0
 25 45  1  0
 25 46  1  0
 26 47  1  0
 26 48  1  0
 26 49  1  0
M  ISO  8  27   8  28  13  29  13  30  13  31  13  32  13  33  13  34  13
M  ISO  8  35  13  36  13  37  13  41  14  42  14  43  14  44   8  45   8
M  ISO  4  46   8  47   8  48   8  49   8
M  END
>  <minimizedAffinity>  (1) 
-6.06340027

>  <minimizedRMSD>  (1) 
0.952776134

$$$$
