
     RDKit          3D

 41 43  0  0  1  0  0  0  0  0999 V2000
   47.7620   34.0740   41.6470 C   0  0  2  0  0  0  0  0  0  0  0  0
   47.7260   34.0230   40.1010 C   0  0  0  0  0  0  0  0  0  0  0  0
   48.5130   34.8560   39.3390 N   0  0  0  0  0  0  0  0  0  0  0  0
   48.3190   34.6430   38.0760 O   0  0  0  0  0  0  0  0  0  0  0  0
   47.4220   33.6910   37.9370 C   0  0  0  0  0  0  0  0  0  0  0  0
   47.0730   33.3250   39.1720 N   0  0  0  0  0  0  0  0  0  0  0  0
   46.8250   33.0500   36.8200 N   0  0  0  0  0  0  0  0  0  0  0  0
   45.5170   32.8230   36.5980 C   0  0  0  0  0  0  0  0  0  0  0  0
   45.4810   32.1740   35.3780 C   0  0  0  0  0  0  0  0  0  0  0  0
   46.7460   32.0310   34.9020 N   0  0  0  0  0  0  0  0  0  0  0  0
   47.5680   32.5760   35.8020 C   0  0  0  0  0  0  0  0  0  0  0  0
   49.0140   33.3650   41.8460 N   0  0  0  0  0  0  0  0  0  0  0  0
   50.0950   34.0620   42.4140 C   0  0  0  0  0  0  0  0  0  0  0  0
   50.0690   35.1580   43.0320 N   0  0  0  0  0  0  0  0  0  0  0  0
   51.4140   33.5240   42.3200 N   0  0  0  0  0  0  0  0  0  0  0  0
   49.1800   35.6700   43.2160 H   0  0  0  0  0  0  0  0  0  0  0  0
   46.6060   33.2530   42.0220 C   0  0  0  0  0  0  0  0  0  0  0  0
   45.3150   34.0140   41.7880 C   0  0  0  0  0  0  0  0  0  0  0  0
   45.2240   35.2570   42.3810 C   0  0  0  0  0  0  0  0  0  0  0  0
   44.0230   35.9630   42.1460 C   0  0  0  0  0  0  0  0  0  0  0  0
   43.0570   35.4100   41.3830 N   0  0  0  0  0  0  0  0  0  0  0  0
   43.1870   34.1770   40.8150 C   0  0  0  0  0  0  0  0  0  0  0  0
   44.3000   33.5190   41.0310 N   0  0  0  0  0  0  0  0  0  0  0  0
   46.6490   31.9640   41.3020 C   0  0  0  0  0  0  0  0  0  0  0  0
   46.6140   32.9540   43.5240 C   0  0  0  0  0  0  0  0  0  0  0  0
   47.7172   35.0325   42.1848 H   0  0  0  0  0  0  0  0  0  0  0  0
   44.6676   33.0932   37.2425 H   0  0  0  0  0  0  0  0  0  0  0  0
   44.5689   31.8267   34.8705 H   0  0  0  0  0  0  0  0  0  0  0  0
   48.6640   32.6287   35.7250 H   0  0  0  0  0  0  0  0  0  0  0  0
   49.1077   32.3751   41.5774 H   0  0  0  0  0  0  0  0  0  0  0  0
   52.2082   34.0320   42.7350 H   0  0  0  0  0  0  0  0  0  0  0  0
   51.5715   32.6279   41.8372 H   0  0  0  0  0  0  0  0  0  0  0  0
   46.0351   35.6717   42.9975 H   0  0  0  0  0  0  0  0  0  0  0  0
   43.8757   36.9612   42.5840 H   0  0  0  0  0  0  0  0  0  0  0  0
   42.3846   33.7489   40.1962 H   0  0  0  0  0  0  0  0  0  0  0  0
   46.6765   31.1388   42.0288 H   0  0  0  0  0  0  0  0  0  0  0  0
   45.7536   31.8667   40.6705 H   0  0  0  0  0  0  0  0  0  0  0  0
   47.5489   31.9266   40.6705 H   0  0  0  0  0  0  0  0  0  0  0  0
   46.5887   33.8992   44.0862 H   0  0  0  0  0  0  0  0  0  0  0  0
   45.7317   32.3500   43.7823 H   0  0  0  0  0  0  0  0  0  0  0  0
   47.5273   32.3981   43.7823 H   0  0  0  0  0  0  0  0  0  0  0  0
  1 12  1  0
  1 17  1  0
  2  1  1  0
  3  2  2  0
  4  3  1  0
  5  4  1  0
  5  6  2  0
  6  2  1  0
  7  5  1  0
  8  7  1  0
  9  8  2  0
 10  9  1  0
 10 11  2  0
 11  7  1  0
 12 13  1  0
 13 14  2  0
 14 16  1  0
 15 13  1  0
 17 25  1  0
 18 17  1  0
 18 19  2  0
 20 19  1  0
 21 20  2  0
 22 23  2  0
 22 21  1  0
 23 18  1  0
 24 17  1  0
  1 26  1  6
  8 27  1  0
  9 28  1  0
 11 29  1  0
 12 30  1  0
 15 31  1  0
 15 32  1  0
 19 33  1  0
 20 34  1  0
 22 35  1  0
 24 36  1  0
 24 37  1  0
 24 38  1  0
 25 39  1  0
 25 40  1  0
 25 41  1  0
M  ISO  8  26   8  27  14  28  14  29  14  33  14  34  14  35  14  36   8
M  ISO  5  37   8  38   8  39   8  40   8  41   8
M  END
>  <minimizedAffinity>  (1) 
-5.83376646

>  <minimizedRMSD>  (1) 
0.765060425

$$$$
