
     RDKit          3D

 41 43  0  0  1  0  0  0  0  0999 V2000
   47.7200   34.0080   41.9610 C   0  0  1  0  0  0  0  0  0  0  0  0
   48.9440   33.2570   42.1940 N   0  0  0  0  0  0  0  0  0  0  0  0
   50.0950   33.9490   42.5740 C   0  0  0  0  0  0  0  0  0  0  0  0
   50.1700   35.1470   43.0270 N   0  0  0  0  0  0  0  0  0  0  0  0
   51.3680   33.3270   42.4840 N   0  0  0  0  0  0  0  0  0  0  0  0
   49.3240   35.7180   43.2180 H   0  0  0  0  0  0  0  0  0  0  0  0
   47.7280   33.9920   40.4170 C   0  0  0  0  0  0  0  0  0  0  0  0
   48.4160   34.9170   39.6890 N   0  0  0  0  0  0  0  0  0  0  0  0
   48.2660   34.7070   38.4210 O   0  0  0  0  0  0  0  0  0  0  0  0
   47.5010   33.6740   38.2540 C   0  0  0  0  0  0  0  0  0  0  0  0
   47.1670   33.2290   39.4680 N   0  0  0  0  0  0  0  0  0  0  0  0
   47.0560   33.0670   37.0080 C   0  0  0  0  0  0  0  0  0  0  0  0
   45.8320   32.7820   36.5690 C   0  0  0  0  0  0  0  0  0  0  0  0
   45.6270   32.2090   35.3650 C   0  0  0  0  0  0  0  0  0  0  0  0
   46.8210   31.9400   34.6160 C   0  0  0  0  0  0  0  0  0  0  0  0
   48.1670   32.5650   35.7690 S   0  0  0  0  0  0  0  0  0  0  0  0
   46.5340   33.2070   42.2980 C   0  0  0  0  0  0  0  0  0  0  0  0
   45.2680   33.9840   41.9920 C   0  0  0  0  0  0  0  0  0  0  0  0
   45.2110   35.2750   42.4590 C   0  0  0  0  0  0  0  0  0  0  0  0
   44.0300   35.9890   42.1500 C   0  0  0  0  0  0  0  0  0  0  0  0
   43.0520   35.3910   41.4380 N   0  0  0  0  0  0  0  0  0  0  0  0
   43.1490   34.1060   40.9930 C   0  0  0  0  0  0  0  0  0  0  0  0
   44.2440   33.4340   41.2750 N   0  0  0  0  0  0  0  0  0  0  0  0
   46.5950   31.9010   41.6130 C   0  0  0  0  0  0  0  0  0  0  0  0
   46.4660   32.9500   43.8100 C   0  0  0  0  0  0  0  0  0  0  0  0
   47.6844   34.9632   42.5054 H   0  0  0  0  0  0  0  0  0  0  0  0
   48.9609   32.2334   42.0806 H   0  0  0  0  0  0  0  0  0  0  0  0
   52.2141   33.8424   42.7658 H   0  0  0  0  0  0  0  0  0  0  0  0
   51.4455   32.3603   42.1369 H   0  0  0  0  0  0  0  0  0  0  0  0
   44.9658   33.0197   37.2040 H   0  0  0  0  0  0  0  0  0  0  0  0
   44.6228   31.9669   34.9869 H   0  0  0  0  0  0  0  0  0  0  0  0
   46.9226   31.4839   33.6202 H   0  0  0  0  0  0  0  0  0  0  0  0
   46.0320   35.7247   43.0367 H   0  0  0  0  0  0  0  0  0  0  0  0
   43.9090   37.0285   42.4889 H   0  0  0  0  0  0  0  0  0  0  0  0
   42.3350   33.6445   40.4148 H   0  0  0  0  0  0  0  0  0  0  0  0
   46.6326   31.0958   42.3615 H   0  0  0  0  0  0  0  0  0  0  0  0
   45.7018   31.7750   40.9835 H   0  0  0  0  0  0  0  0  0  0  0  0
   47.4961   31.8589   40.9835 H   0  0  0  0  0  0  0  0  0  0  0  0
   46.7110   33.8761   44.3507 H   0  0  0  0  0  0  0  0  0  0  0  0
   45.4509   32.6246   44.0813 H   0  0  0  0  0  0  0  0  0  0  0  0
   47.1874   32.1652   44.0813 H   0  0  0  0  0  0  0  0  0  0  0  0
  1  2  1  0
  1 17  1  0
  2  3  1  0
  3  4  2  0
  4  6  1  0
  5  3  1  0
  7  1  1  0
  8  7  2  0
  9  8  1  0
 10  9  1  0
 10 11  2  0
 11  7  1  0
 12 10  1  0
 13 12  2  0
 14 13  1  0
 15 14  2  0
 15 16  1  0
 16 12  1  0
 17 25  1  0
 18 17  1  0
 18 19  2  0
 20 19  1  0
 21 20  2  0
 22 23  2  0
 22 21  1  0
 23 18  1  0
 24 17  1  0
  1 26  1  6
  2 27  1  0
  5 28  1  0
  5 29  1  0
 13 30  1  0
 14 31  1  0
 15 32  1  0
 19 33  1  0
 20 34  1  0
 22 35  1  0
 24 36  1  0
 24 37  1  0
 24 38  1  0
 25 39  1  0
 25 40  1  0
 25 41  1  0
M  ISO  8  26   8  30  14  31  14  32  14  33  14  34  14  35  14  36   8
M  ISO  5  37   8  38   8  39   8  40   8  41   8
M  END
>  <minimizedAffinity>  (1) 
-5.60409451

>  <minimizedRMSD>  (1) 
0.801644683

$$$$
