
     RDKit          3D

 37 38  0  0  1  0  0  0  0  0999 V2000
   47.7810   34.0390   41.6830 C   0  0  1  0  0  0  0  0  0  0  0  0
   49.0420   33.3320   41.8470 N   0  0  0  0  0  0  0  0  0  0  0  0
   50.1290   34.0110   42.4010 C   0  0  0  0  0  0  0  0  0  0  0  0
   50.1070   35.1160   43.0480 N   0  0  0  0  0  0  0  0  0  0  0  0
   51.4380   33.4900   42.2860 N   0  0  0  0  0  0  0  0  0  0  0  0
   49.2070   35.5890   43.3050 H   0  0  0  0  0  0  0  0  0  0  0  0
   47.6700   33.9510   40.1380 C   0  0  0  0  0  0  0  0  0  0  0  0
   48.4020   34.7480   39.3190 N   0  0  0  0  0  0  0  0  0  0  0  0
   48.1400   34.5070   38.0760 O   0  0  0  0  0  0  0  0  0  0  0  0
   47.2350   33.5540   38.0120 C   0  0  0  0  0  0  0  0  0  0  0  0
   46.9500   33.2170   39.2800 N   0  0  0  0  0  0  0  0  0  0  0  0
   46.5440   32.8570   36.8970 C   0  0  0  0  0  0  0  0  0  0  0  0
   47.3630   32.7660   35.7850 F   0  0  0  0  0  0  0  0  0  0  0  0
   45.4070   33.5480   36.4960 F   0  0  0  0  0  0  0  0  0  0  0  0
   46.1300   31.5960   37.2490 F   0  0  0  0  0  0  0  0  0  0  0  0
   46.6520   33.2210   42.1440 C   0  0  0  0  0  0  0  0  0  0  0  0
   45.3500   33.9900   42.0030 C   0  0  0  0  0  0  0  0  0  0  0  0
   45.3350   35.2680   42.5200 C   0  0  0  0  0  0  0  0  0  0  0  0
   44.1230   35.9790   42.3690 C   0  0  0  0  0  0  0  0  0  0  0  0
   43.0770   35.3970   41.7490 N   0  0  0  0  0  0  0  0  0  0  0  0
   43.1340   34.1280   41.2510 C   0  0  0  0  0  0  0  0  0  0  0  0
   44.2570   33.4630   41.3880 N   0  0  0  0  0  0  0  0  0  0  0  0
   46.6350   31.9310   41.4330 C   0  0  0  0  0  0  0  0  0  0  0  0
   46.7640   32.9410   43.6460 C   0  0  0  0  0  0  0  0  0  0  0  0
   47.7576   35.0157   42.1885 H   0  0  0  0  0  0  0  0  0  0  0  0
   49.1313   32.3471   41.5592 H   0  0  0  0  0  0  0  0  0  0  0  0
   52.2329   33.9989   42.6984 H   0  0  0  0  0  0  0  0  0  0  0  0
   51.5969   32.6015   41.7899 H   0  0  0  0  0  0  0  0  0  0  0  0
   46.2117   35.7069   43.0189 H   0  0  0  0  0  0  0  0  0  0  0  0
   44.0334   37.0046   42.7564 H   0  0  0  0  0  0  0  0  0  0  0  0
   42.2652   33.6762   40.7500 H   0  0  0  0  0  0  0  0  0  0  0  0
   46.6242   31.1094   42.1643 H   0  0  0  0  0  0  0  0  0  0  0  0
   45.7360   31.8720   40.8019 H   0  0  0  0  0  0  0  0  0  0  0  0
   47.5321   31.8483   40.8019 H   0  0  0  0  0  0  0  0  0  0  0  0
   46.4132   33.8181   44.2096 H   0  0  0  0  0  0  0  0  0  0  0  0
   46.1457   32.0684   43.9034 H   0  0  0  0  0  0  0  0  0  0  0  0
   47.8135   32.7355   43.9034 H   0  0  0  0  0  0  0  0  0  0  0  0
  1  2  1  0
  1 16  1  0
  2  3  1  0
  3  4  2  0
  4  6  1  0
  5  3  1  0
  7  1  1  0
  8  7  2  0
  9  8  1  0
 10  9  1  0
 10 11  2  0
 11  7  1  0
 12 15  1  0
 12 10  1  0
 13 12  1  0
 14 12  1  0
 16 24  1  0
 17 16  1  0
 17 18  2  0
 19 18  1  0
 20 19  2  0
 21 22  2  0
 21 20  1  0
 22 17  1  0
 23 16  1  0
  1 25  1  6
  2 26  1  0
  5 27  1  0
  5 28  1  0
 18 29  1  0
 19 30  1  0
 21 31  1  0
 23 32  1  0
 23 33  1  0
 23 34  1  0
 24 35  1  0
 24 36  1  0
 24 37  1  0
M  ISO  8  25   8  29  14  30  14  31  14  32   8  33   8  34   8  35   8
M  ISO  2  36   8  37   8
M  END
>  <minimizedAffinity>  (1) 
-5.39424896

>  <minimizedRMSD>  (1) 
0.546820939

$$$$
