
     RDKit          3D

 41 43  0  0  1  0  0  0  0  0999 V2000
   47.8000   34.0260   41.6990 C   0  0  1  0  0  0  0  0  0  0  0  0
   49.0580   33.3170   41.8730 N   0  0  0  0  0  0  0  0  0  0  0  0
   50.1470   34.0070   42.4170 C   0  0  0  0  0  0  0  0  0  0  0  0
   50.1220   35.1160   43.0520 N   0  0  0  0  0  0  0  0  0  0  0  0
   51.4600   33.4810   42.2930 N   0  0  0  0  0  0  0  0  0  0  0  0
   49.2380   35.6070   43.2790 H   0  0  0  0  0  0  0  0  0  0  0  0
   47.7390   33.9960   40.1480 C   0  0  0  0  0  0  0  0  0  0  0  0
   48.4760   34.8370   39.3820 N   0  0  0  0  0  0  0  0  0  0  0  0
   48.2620   34.6380   38.1270 O   0  0  0  0  0  0  0  0  0  0  0  0
   47.3820   33.6670   37.9970 C   0  0  0  0  0  0  0  0  0  0  0  0
   47.0620   33.2740   39.2430 N   0  0  0  0  0  0  0  0  0  0  0  0
   46.7790   33.0350   36.8470 C   0  0  0  0  0  0  0  0  0  0  0  0
   45.4690   32.8290   36.4650 C   0  0  0  0  0  0  0  0  0  0  0  0
   45.4570   32.1630   35.2600 C   0  0  0  0  0  0  0  0  0  0  0  0
   46.7900   31.9960   34.9670 C   0  0  0  0  0  0  0  0  0  0  0  0
   47.5240   32.5110   35.9050 O   0  0  0  0  0  0  0  0  0  0  0  0
   46.6570   33.1930   42.0940 C   0  0  0  0  0  0  0  0  0  0  0  0
   45.3620   33.9750   41.9610 C   0  0  0  0  0  0  0  0  0  0  0  0
   45.3450   35.2310   42.5120 C   0  0  0  0  0  0  0  0  0  0  0  0
   44.1400   35.9550   42.3700 C   0  0  0  0  0  0  0  0  0  0  0  0
   43.0980   35.3960   41.7210 N   0  0  0  0  0  0  0  0  0  0  0  0
   43.1550   34.1450   41.1880 C   0  0  0  0  0  0  0  0  0  0  0  0
   44.2720   33.4720   41.3200 N   0  0  0  0  0  0  0  0  0  0  0  0
   46.6540   31.9360   41.3200 C   0  0  0  0  0  0  0  0  0  0  0  0
   46.7310   32.8460   43.5830 C   0  0  0  0  0  0  0  0  0  0  0  0
   47.7580   34.9816   42.2421 H   0  0  0  0  0  0  0  0  0  0  0  0
   49.1455   32.3273   41.6014 H   0  0  0  0  0  0  0  0  0  0  0  0
   52.2594   33.9915   42.6946 H   0  0  0  0  0  0  0  0  0  0  0  0
   51.6131   32.5889   41.8014 H   0  0  0  0  0  0  0  0  0  0  0  0
   44.5800   33.1451   37.0306 H   0  0  0  0  0  0  0  0  0  0  0  0
   44.5861   31.8405   34.6705 H   0  0  0  0  0  0  0  0  0  0  0  0
   47.1784   31.4974   34.0667 H   0  0  0  0  0  0  0  0  0  0  0  0
   46.2181   35.6499   43.0337 H   0  0  0  0  0  0  0  0  0  0  0  0
   44.0521   36.9693   42.7866 H   0  0  0  0  0  0  0  0  0  0  0  0
   42.2907   33.7123   40.6629 H   0  0  0  0  0  0  0  0  0  0  0  0
   46.6520   31.0800   42.0109 H   0  0  0  0  0  0  0  0  0  0  0  0
   45.7558   31.8978   40.6862 H   0  0  0  0  0  0  0  0  0  0  0  0
   47.5520   31.8935   40.6862 H   0  0  0  0  0  0  0  0  0  0  0  0
   46.5383   33.7495   44.1801 H   0  0  0  0  0  0  0  0  0  0  0  0
   45.9755   32.0822   43.8195 H   0  0  0  0  0  0  0  0  0  0  0  0
   47.7323   32.4569   43.8195 H   0  0  0  0  0  0  0  0  0  0  0  0
  1  2  1  0
  1 17  1  0
  2  3  1  0
  3  4  2  0
  4  6  1  0
  5  3  1  0
  7  1  1  0
  8  7  2  0
  9  8  1  0
 10  9  1  0
 10 11  2  0
 11  7  1  0
 12 10  1  0
 13 12  2  0
 14 13  1  0
 15 14  2  0
 15 16  1  0
 16 12  1  0
 17 25  1  0
 18 17  1  0
 18 19  2  0
 20 19  1  0
 21 20  2  0
 22 23  2  0
 22 21  1  0
 23 18  1  0
 24 17  1  0
  1 26  1  1
  2 27  1  0
  5 28  1  0
  5 29  1  0
 13 30  1  0
 14 31  1  0
 15 32  1  0
 19 33  1  0
 20 34  1  0
 22 35  1  0
 24 36  1  0
 24 37  1  0
 24 38  1  0
 25 39  1  0
 25 40  1  0
 25 41  1  0
M  ISO  8  26   8  30  14  31  14  32  14  33  14  34  14  35  14  36   8
M  ISO  5  37   8  38   8  39   8  40   8  41   8
M  END
>  <minimizedAffinity>  (1) 
-5.58851767

>  <minimizedRMSD>  (1) 
0.741297364

$$$$
