
     RDKit          3D

 21 22  0  0  0  0  0  0  0  0999 V2000
   46.1600   33.9530   44.6610 C   0  0  0  0  0  0  0  0  0  0  0  0
   46.6400   34.4080   43.4280 C   0  0  0  0  0  0  0  0  0  0  0  0
   45.9650   35.5270   42.8960 C   0  0  0  0  0  0  0  0  0  0  0  0
   44.9350   36.1030   43.5470 N   0  0  0  0  0  0  0  0  0  0  0  0
   44.5110   35.6190   44.7440 C   0  0  0  0  0  0  0  0  0  0  0  0
   45.1240   34.5710   45.2660 N   0  0  0  0  0  0  0  0  0  0  0  0
   47.7640   33.8390   42.6640 C   0  0  0  0  0  0  0  0  0  0  0  0
   47.7850   32.8840   41.7340 N   0  0  0  0  0  0  0  0  0  0  0  0
   48.9940   32.7150   41.3390 O   0  0  0  0  0  0  0  0  0  0  0  0
   49.7660   33.5360   41.9870 C   0  0  0  0  0  0  0  0  0  0  0  0
   49.0290   34.2640   42.8330 N   0  0  0  0  0  0  0  0  0  0  0  0
   46.8190   32.7650   45.2190 C   0  0  0  0  0  0  0  0  0  0  0  0
   46.7190   32.6950   46.7090 C   0  0  0  0  0  0  0  0  0  0  0  0
   46.2867   35.9386   41.9280 H   0  0  0  0  0  0  0  0  0  0  0  0
   43.6696   36.0928   45.2709 H   0  0  0  0  0  0  0  0  0  0  0  0
   50.8554   33.6190   41.8594 H   0  0  0  0  0  0  0  0  0  0  0  0
   46.3468   31.8678   44.7922 H   0  0  0  0  0  0  0  0  0  0  0  0
   47.8865   32.8255   44.9605 H   0  0  0  0  0  0  0  0  0  0  0  0
   47.5413   33.2706   47.1591 H   0  0  0  0  0  0  0  0  0  0  0  0
   45.7560   33.1172   47.0321 H   0  0  0  0  0  0  0  0  0  0  0  0
   46.7861   31.6457   47.0321 H   0  0  0  0  0  0  0  0  0  0  0  0
  1 12  1  0
  1  6  2  0
  2  1  1  0
  3  2  2  0
  3  4  1  0
  4  5  2  0
  5  6  1  0
  7 11  1  0
  7  2  1  0
  8  7  2  0
  9  8  1  0
  9 10  1  0
 10 11  2  0
 12 13  1  0
  3 14  1  0
  5 15  1  0
 10 16  1  0
 12 17  1  0
 12 18  1  0
 13 19  1  0
 13 20  1  0
 13 21  1  0
M  ISO  8  14  14  15  14  16  14  17   8  18   8  19   8  20   8  21   8
M  END
>  <minimizedAffinity>  (1) 
-3.92020154

>  <minimizedRMSD>  (1) 
4.36866379

$$$$
