
     RDKit          3D

 23 24  0  0  0  0  0  0  0  0999 V2000
   46.1310   33.9950   44.5470 C   0  0  0  0  0  0  0  0  0  0  0  0
   46.5550   34.5450   43.3310 C   0  0  0  0  0  0  0  0  0  0  0  0
   45.8760   35.7030   42.8820 C   0  0  0  0  0  0  0  0  0  0  0  0
   44.8620   36.2060   43.6520 N   0  0  0  0  0  0  0  0  0  0  0  0
   44.4980   35.6210   44.8290 C   0  0  0  0  0  0  0  0  0  0  0  0
   45.1390   34.5330   45.2470 N   0  0  0  0  0  0  0  0  0  0  0  0
   46.9070   32.7880   44.9170 C   0  0  0  0  0  0  0  0  0  0  0  0
   46.8480   32.4890   46.3840 C   0  0  0  0  0  0  0  0  0  0  0  0
   47.6330   34.0080   42.5200 C   0  0  0  0  0  0  0  0  0  0  0  0
   48.0490   34.7190   41.2730 C   0  0  0  0  0  0  0  0  0  0  0  0
   48.9360   34.6580   42.5090 C   0  0  0  0  0  0  0  0  0  0  0  0
   46.1569   36.1879   41.9354 H   0  0  0  0  0  0  0  0  0  0  0  0
   43.6797   36.0461   45.4287 H   0  0  0  0  0  0  0  0  0  0  0  0
   46.5017   31.9266   44.3658 H   0  0  0  0  0  0  0  0  0  0  0  0
   47.9593   32.9779   44.6590 H   0  0  0  0  0  0  0  0  0  0  0  0
   47.0301   33.4120   46.9539 H   0  0  0  0  0  0  0  0  0  0  0  0
   45.8541   32.0916   46.6375 H   0  0  0  0  0  0  0  0  0  0  0  0
   47.6164   31.7439   46.6375 H   0  0  0  0  0  0  0  0  0  0  0  0
   47.2924   32.9863   42.7441 H   0  0  0  0  0  0  0  0  0  0  0  0
   47.5639   35.6625   40.9825 H   0  0  0  0  0  0  0  0  0  0  0  0
   48.1542   34.4560   40.2101 H   0  0  0  0  0  0  0  0  0  0  0  0
   49.8530   34.0506   42.4978 H   0  0  0  0  0  0  0  0  0  0  0  0
   49.4372   35.4042   43.1430 H   0  0  0  0  0  0  0  0  0  0  0  0
  1  7  1  0
  1  6  2  0
  2  1  1  0
  3  2  2  0
  3  4  1  0
  4  5  2  0
  5  6  1  0
  7  8  1  0
  9  2  1  0
 10 11  1  0
 10  9  1  0
 11  9  1  0
  3 12  1  0
  5 13  1  0
  7 14  1  0
  7 15  1  0
  8 16  1  0
  8 17  1  0
  8 18  1  0
  9 19  1  0
 10 20  1  0
 10 21  1  0
 11 22  1  0
 11 23  1  0
M  ISO  8  12  14  13  14  14   8  15   8  16   8  17   8  18   8  19  13
M  ISO  4  20  13  21  13  22  13  23  13
M  END
>  <minimizedAffinity>  (1) 
-3.88623476

>  <minimizedRMSD>  (1) 
3.55557203

$$$$
