
     RDKit          3D

 17 17  0  0  0  0  0  0  0  0999 V2000
   46.0170   34.7590   43.3110 C   0  0  0  0  0  0  0  0  0  0  0  0
   45.0890   35.7610   43.6820 C   0  0  0  0  0  0  0  0  0  0  0  0
   44.5190   35.7550   44.9480 C   0  0  0  0  0  0  0  0  0  0  0  0
   44.8900   34.7640   45.7850 N   0  0  0  0  0  0  0  0  0  0  0  0
   45.7840   33.8090   45.4100 C   0  0  0  0  0  0  0  0  0  0  0  0
   46.3350   33.8040   44.2040 N   0  0  0  0  0  0  0  0  0  0  0  0
   46.5210   34.9240   41.9420 C   0  0  0  0  0  0  0  0  0  0  0  0
   48.0120   35.2360   41.9510 C   0  0  0  0  0  0  0  0  0  0  0  0
   44.6940   36.7850   42.8430 O   0  0  0  0  0  0  0  0  0  0  0  0
   43.7961   36.5250   45.2554 H   0  0  0  0  0  0  0  0  0  0  0  0
   46.0568   33.0202   46.1265 H   0  0  0  0  0  0  0  0  0  0  0  0
   45.9821   35.7506   41.4560 H   0  0  0  0  0  0  0  0  0  0  0  0
   46.3593   33.9862   41.3902 H   0  0  0  0  0  0  0  0  0  0  0  0
   48.3649   35.3098   42.9902 H   0  0  0  0  0  0  0  0  0  0  0  0
   48.5578   34.4326   41.4346 H   0  0  0  0  0  0  0  0  0  0  0  0
   48.1899   36.1908   41.4346 H   0  0  0  0  0  0  0  0  0  0  0  0
   44.0404   37.4586   43.1578 H   0  0  0  0  0  0  0  0  0  0  0  0
  1  2  2  0
  1  6  1  0
  2  3  1  0
  3  4  2  0
  5  4  1  0
  6  5  2  0
  7  8  1  0
  7  1  1  0
  9  2  1  0
  3 10  1  0
  5 11  1  0
  7 12  1  0
  7 13  1  0
  8 14  1  0
  8 15  1  0
  8 16  1  0
  9 17  1  0
M  ISO  8  10  14  11  14  12   8  13   8  14   8  15   8  16   8  17   3
M  END
>  <minimizedAffinity>  (1) 
-3.70658183

>  <minimizedRMSD>  (1) 
1.1979816

$$$$
