
     RDKit          3D

 24 25  0  0  0  0  0  0  0  0999 V2000
   46.0310   31.2350   46.7210 C   0  0  0  0  0  0  0  0  0  0  0  0
   45.9470   31.4880   45.3600 C   0  0  0  0  0  0  0  0  0  0  0  0
   45.5410   30.3740   44.5920 C   0  0  0  0  0  0  0  0  0  0  0  0
   45.2660   29.1870   45.1670 N   0  0  0  0  0  0  0  0  0  0  0  0
   45.3620   28.9970   46.4960 C   0  0  0  0  0  0  0  0  0  0  0  0
   45.7400   30.0220   47.2280 N   0  0  0  0  0  0  0  0  0  0  0  0
   46.2110   32.6360   44.5570 C   0  0  0  0  0  0  0  0  0  0  0  0
   47.3650   33.0450   43.9530 C   0  0  0  0  0  0  0  0  0  0  0  0
   47.5420   34.1890   43.2220 C   0  0  0  0  0  0  0  0  0  0  0  0
   46.5030   35.0020   43.0690 N   0  0  0  0  0  0  0  0  0  0  0  0
   45.3470   34.6630   43.6330 C   0  0  0  0  0  0  0  0  0  0  0  0
   45.2400   33.5340   44.3330 N   0  0  0  0  0  0  0  0  0  0  0  0
   46.4970   32.3540   47.5700 C   0  0  0  0  0  0  0  0  0  0  0  0
   45.9030   32.3090   48.9520 C   0  0  0  0  0  0  0  0  0  0  0  0
   45.4474   30.4779   43.5009 H   0  0  0  0  0  0  0  0  0  0  0  0
   45.1332   28.0225   46.9520 H   0  0  0  0  0  0  0  0  0  0  0  0
   48.2410   32.3892   44.0650 H   0  0  0  0  0  0  0  0  0  0  0  0
   48.5177   34.4282   42.7738 H   0  0  0  0  0  0  0  0  0  0  0  0
   44.4720   35.3201   43.5207 H   0  0  0  0  0  0  0  0  0  0  0  0
   47.5925   32.3016   47.6541 H   0  0  0  0  0  0  0  0  0  0  0  0
   46.1746   33.2927   47.0958 H   0  0  0  0  0  0  0  0  0  0  0  0
   46.7079   32.3700   49.6992 H   0  0  0  0  0  0  0  0  0  0  0  0
   45.2156   33.1576   49.0835 H   0  0  0  0  0  0  0  0  0  0  0  0
   45.3513   31.3665   49.0835 H   0  0  0  0  0  0  0  0  0  0  0  0
  1  6  2  0
  1 13  1  0
  2  1  1  0
  3  4  1  0
  3  2  2  0
  4  5  2  0
  5  6  1  0
  7  2  1  0
  8  7  2  0
  9  8  1  0
 10  9  2  0
 10 11  1  0
 11 12  2  0
 12  7  1  0
 13 14  1  0
  3 15  1  0
  5 16  1  0
  8 17  1  0
  9 18  1  0
 11 19  1  0
 13 20  1  0
 13 21  1  0
 14 22  1  0
 14 23  1  0
 14 24  1  0
M  ISO  8  15  14  16  14  17  14  18  14  19  14  20   8  21   8  22   8
M  ISO  2  23   8  24   8
M  END
>  <minimizedAffinity>  (1) 
-3.4179821

>  <minimizedRMSD>  (1) 
5.52587986

$$$$
