
     RDKit          3D

 43 47  0  0  0  0  0  0  0  0999 V2000
   45.9480   34.0900   40.9010 C   0  0  0  0  0  0  0  0  0  0  0  0
   46.4690   34.8310   41.9970 C   0  0  0  0  0  0  0  0  0  0  0  0
   47.7720   35.3080   41.9450 C   0  0  0  0  0  0  0  0  0  0  0  0
   48.4910   35.0360   40.8350 N   0  0  0  0  0  0  0  0  0  0  0  0
   47.9670   34.3220   39.7960 C   0  0  0  0  0  0  0  0  0  0  0  0
   46.7190   33.8720   39.8590 N   0  0  0  0  0  0  0  0  0  0  0  0
   45.7450   35.1330   43.1810 N   0  0  0  0  0  0  0  0  0  0  0  0
   44.9020   36.1020   43.5780 C   0  0  0  0  0  0  0  0  0  0  0  0
   44.5040   35.8790   44.8550 N   0  0  0  0  0  0  0  0  0  0  0  0
   45.1010   34.7510   45.2830 C   0  0  0  0  0  0  0  0  0  0  0  0
   44.9650   34.1790   46.5150 C   0  0  0  0  0  0  0  0  0  0  0  0
   45.6760   33.0300   46.7110 N   0  0  0  0  0  0  0  0  0  0  0  0
   46.4450   32.5450   45.7110 C   0  0  0  0  0  0  0  0  0  0  0  0
   46.5350   33.1610   44.5140 N   0  0  0  0  0  0  0  0  0  0  0  0
   45.8620   34.3010   44.2450 C   0  0  0  0  0  0  0  0  0  0  0  0
   44.5570   33.6490   41.1140 C   0  0  0  0  0  0  0  0  0  0  0  0
   43.7400   33.8080   39.8380 C   0  0  0  0  0  0  0  0  0  0  0  0
   42.4250   34.4150   40.0350 C   0  0  0  0  0  0  0  0  0  0  0  0
   42.3580   35.4520   40.9580 C   0  0  0  0  0  0  0  0  0  0  0  0
   41.1660   36.1080   41.2580 C   0  0  0  0  0  0  0  0  0  0  0  0
   39.9790   35.7320   40.6210 C   0  0  0  0  0  0  0  0  0  0  0  0
   40.0400   34.6970   39.6960 C   0  0  0  0  0  0  0  0  0  0  0  0
   38.8830   34.3310   39.0520 C   0  0  0  0  0  0  0  0  0  0  0  0
   38.9660   33.3130   38.1230 C   0  0  0  0  0  0  0  0  0  0  0  0
   40.1570   32.6750   37.8420 C   0  0  0  0  0  0  0  0  0  0  0  0
   41.3020   33.0670   38.5070 C   0  0  0  0  0  0  0  0  0  0  0  0
   41.2310   34.0820   39.4360 C   0  0  0  0  0  0  0  0  0  0  0  0
   48.2021   35.8855   42.7765 H   0  0  0  0  0  0  0  0  0  0  0  0
   48.5795   34.1191   38.9051 H   0  0  0  0  0  0  0  0  0  0  0  0
   44.5817   36.9519   42.9574 H   0  0  0  0  0  0  0  0  0  0  0  0
   44.3257   34.6144   47.2971 H   0  0  0  0  0  0  0  0  0  0  0  0
   47.0152   31.6193   45.8782 H   0  0  0  0  0  0  0  0  0  0  0  0
   44.5557   32.5907   41.4140 H   0  0  0  0  0  0  0  0  0  0  0  0
   44.1061   34.2698   41.9022 H   0  0  0  0  0  0  0  0  0  0  0  0
   43.5961   32.8114   39.3951 H   0  0  0  0  0  0  0  0  0  0  0  0
   44.3059   34.4894   39.1856 H   0  0  0  0  0  0  0  0  0  0  0  0
   43.2794   35.7662   41.4702 H   0  0  0  0  0  0  0  0  0  0  0  0
   41.1585   36.9228   41.9969 H   0  0  0  0  0  0  0  0  0  0  0  0
   39.0287   36.2388   40.8449 H   0  0  0  0  0  0  0  0  0  0  0  0
   37.9269   34.8300   39.2683 H   0  0  0  0  0  0  0  0  0  0  0  0
   38.0553   33.0011   37.5908 H   0  0  0  0  0  0  0  0  0  0  0  0
   40.1937   31.8652   37.0984 H   0  0  0  0  0  0  0  0  0  0  0  0
   42.2623   32.5733   38.2969 H   0  0  0  0  0  0  0  0  0  0  0  0
  1 16  1  0
  1  2  1  0
  2  7  1  0
  3  2  2  0
  4  3  1  0
  5  6  1  0
  5  4  2  0
  6  1  2  0
  7  8  1  0
  7 15  1  0
  8  9  2  0
  9 10  1  0
 10 11  2  0
 11 12  1  0
 13 12  2  0
 14 13  1  0
 15 14  2  0
 15 10  1  0
 17 18  1  0
 17 16  1  0
 18 19  2  0
 19 20  1  0
 21 20  2  0
 22 21  1  0
 23 22  2  0
 24 23  1  0
 25 24  2  0
 25 26  1  0
 26 27  2  0
 27 22  1  0
 27 18  1  0
  3 28  1  0
  5 29  1  0
  8 30  1  0
 11 31  1  0
 13 32  1  0
 16 33  1  0
 16 34  1  0
 17 35  1  0
 17 36  1  0
 19 37  1  0
 20 38  1  0
 21 39  1  0
 23 40  1  0
 24 41  1  0
 25 42  1  0
 26 43  1  0
M  ISO  8  28  14  29  14  30  14  31  14  32  14  33   8  34   8  35   8
M  ISO  8  36   8  37  14  38  14  39  14  40  14  41  14  42  14  43  14
M  END
>  <minimizedAffinity>  (1) 
-7.43132067

>  <minimizedRMSD>  (1) 
1.42007327

$$$$
