
     RDKit          3D

 38 41  0  0  0  0  0  0  0  0999 V2000
   45.9090   34.1810   40.9640 C   0  0  0  0  0  0  0  0  0  0  0  0
   46.4570   34.8460   42.0700 C   0  0  0  0  0  0  0  0  0  0  0  0
   47.7830   35.2700   42.0470 C   0  0  0  0  0  0  0  0  0  0  0  0
   48.5020   35.0110   40.9210 N   0  0  0  0  0  0  0  0  0  0  0  0
   47.9500   34.3620   39.8530 C   0  0  0  0  0  0  0  0  0  0  0  0
   46.6780   33.9640   39.8980 N   0  0  0  0  0  0  0  0  0  0  0  0
   45.7440   35.1350   43.2640 N   0  0  0  0  0  0  0  0  0  0  0  0
   44.9110   36.0970   43.6910 C   0  0  0  0  0  0  0  0  0  0  0  0
   44.5240   35.8510   44.9640 N   0  0  0  0  0  0  0  0  0  0  0  0
   45.1160   34.7140   45.3660 C   0  0  0  0  0  0  0  0  0  0  0  0
   44.9830   34.1180   46.5960 C   0  0  0  0  0  0  0  0  0  0  0  0
   45.6880   32.9670   46.7610 N   0  0  0  0  0  0  0  0  0  0  0  0
   46.4570   32.4820   45.7410 C   0  0  0  0  0  0  0  0  0  0  0  0
   46.5380   33.1240   44.5580 N   0  0  0  0  0  0  0  0  0  0  0  0
   45.8580   34.2870   44.3200 C   0  0  0  0  0  0  0  0  0  0  0  0
   44.5000   33.7950   41.1360 C   0  0  0  0  0  0  0  0  0  0  0  0
   43.5790   34.7930   40.4980 C   0  0  0  0  0  0  0  0  0  0  0  0
   42.2010   34.4190   40.5220 N   0  0  0  0  0  0  0  0  0  0  0  0
   41.3300   35.2440   39.8960 C   0  0  0  0  0  0  0  0  0  0  0  0
   39.9740   34.9510   39.8770 C   0  0  0  0  0  0  0  0  0  0  0  0
   39.4930   33.8020   40.5010 C   0  0  0  0  0  0  0  0  0  0  0  0
   38.1070   33.4560   40.5090 N   0  0  0  0  0  0  0  0  0  0  0  0
   40.4080   33.0040   41.1180 N   0  0  0  0  0  0  0  0  0  0  0  0
   41.7180   33.3150   41.1220 C   0  0  0  0  0  0  0  0  0  0  0  0
   42.5660   32.5600   41.7020 O   0  0  0  0  0  0  0  0  0  0  0  0
   48.2313   35.7932   42.9044 H   0  0  0  0  0  0  0  0  0  0  0  0
   48.5552   34.1676   38.9553 H   0  0  0  0  0  0  0  0  0  0  0  0
   44.5891   36.9615   43.0919 H   0  0  0  0  0  0  0  0  0  0  0  0
   44.3514   34.5414   47.3909 H   0  0  0  0  0  0  0  0  0  0  0  0
   47.0213   31.5492   45.8878 H   0  0  0  0  0  0  0  0  0  0  0  0
   44.3389   32.8109   40.6716 H   0  0  0  0  0  0  0  0  0  0  0  0
   44.2793   33.7582   42.2130 H   0  0  0  0  0  0  0  0  0  0  0  0
   43.8832   34.9210   39.4487 H   0  0  0  0  0  0  0  0  0  0  0  0
   43.6644   35.7203   41.0836 H   0  0  0  0  0  0  0  0  0  0  0  0
   41.6995   36.1530   39.3989 H   0  0  0  0  0  0  0  0  0  0  0  0
   39.2749   35.6296   39.3664 H   0  0  0  0  0  0  0  0  0  0  0  0
   37.7934   32.5966   40.9824 H   0  0  0  0  0  0  0  0  0  0  0  0
   37.4212   34.0659   40.0414 H   0  0  0  0  0  0  0  0  0  0  0  0
  1 16  1  0
  1  2  1  0
  2  7  1  0
  3  2  2  0
  4  3  1  0
  5  6  1  0
  5  4  2  0
  6  1  2  0
  7  8  1  0
  7 15  1  0
  8  9  2  0
  9 10  1  0
 10 11  2  0
 11 12  1  0
 13 12  2  0
 14 13  1  0
 15 14  2  0
 15 10  1  0
 17 18  1  0
 17 16  1  0
 18 24  1  0
 19 18  1  0
 20 19  2  0
 20 21  1  0
 21 22  1  0
 21 23  2  0
 23 24  1  0
 24 25  2  0
  3 26  1  0
  5 27  1  0
  8 28  1  0
 11 29  1  0
 13 30  1  0
 16 31  1  0
 16 32  1  0
 17 33  1  0
 17 34  1  0
 19 35  1  0
 20 36  1  0
 22 37  1  0
 22 38  1  0
M  ISO  8  26  14  27  14  28  14  29  14  30  14  31   8  32   8  33   8
M  ISO  3  34   8  35  14  36  14
M  END
>  <minimizedAffinity>  (1) 
-6.71240187

>  <minimizedRMSD>  (1) 
0.322283447

$$$$
