
     RDKit          3D

 42 45  0  0  0  0  0  0  0  0999 V2000
   46.0280   34.0440   40.9010 C   0  0  0  0  0  0  0  0  0  0  0  0
   46.5070   34.8000   41.9920 C   0  0  0  0  0  0  0  0  0  0  0  0
   47.7950   35.3380   41.9360 C   0  0  0  0  0  0  0  0  0  0  0  0
   48.5360   35.1130   40.8390 N   0  0  0  0  0  0  0  0  0  0  0  0
   48.0380   34.3700   39.7950 C   0  0  0  0  0  0  0  0  0  0  0  0
   46.8120   33.8640   39.8580 N   0  0  0  0  0  0  0  0  0  0  0  0
   45.7730   35.0770   43.1830 N   0  0  0  0  0  0  0  0  0  0  0  0
   44.8920   35.9930   43.5910 C   0  0  0  0  0  0  0  0  0  0  0  0
   44.5140   35.7520   44.8620 N   0  0  0  0  0  0  0  0  0  0  0  0
   45.1660   34.6560   45.2820 C   0  0  0  0  0  0  0  0  0  0  0  0
   45.0660   34.0590   46.5170 C   0  0  0  0  0  0  0  0  0  0  0  0
   45.8190   32.9510   46.7010 N   0  0  0  0  0  0  0  0  0  0  0  0
   46.6090   32.4960   45.6940 C   0  0  0  0  0  0  0  0  0  0  0  0
   46.6690   33.1210   44.5030 N   0  0  0  0  0  0  0  0  0  0  0  0
   45.9370   34.2460   44.2430 C   0  0  0  0  0  0  0  0  0  0  0  0
   44.6610   33.5550   41.1140 C   0  0  0  0  0  0  0  0  0  0  0  0
   43.6970   34.0940   40.0880 C   0  0  0  0  0  0  0  0  0  0  0  0
   42.3920   34.2360   40.6780 N   0  0  0  0  0  0  0  0  0  0  0  0
   41.3890   33.5280   40.0150 C   0  0  0  0  0  0  0  0  0  0  0  0
   39.9790   33.9510   40.2820 C   0  0  0  0  0  0  0  0  0  0  0  0
   39.8830   35.4470   40.0630 C   0  0  0  0  0  0  0  0  0  0  0  0
   40.7470   36.0460   41.1440 C   0  0  0  0  0  0  0  0  0  0  0  0
   42.1220   35.5310   41.1900 C   0  0  0  0  0  0  0  0  0  0  0  0
   48.1931   35.9324   42.7716 H   0  0  0  0  0  0  0  0  0  0  0  0
   48.6579   34.1939   38.9035 H   0  0  0  0  0  0  0  0  0  0  0  0
   44.5256   36.8280   42.9758 H   0  0  0  0  0  0  0  0  0  0  0  0
   44.4132   34.4586   47.3070 H   0  0  0  0  0  0  0  0  0  0  0  0
   47.2158   31.5929   45.8559 H   0  0  0  0  0  0  0  0  0  0  0  0
   44.6644   32.4566   41.0543 H   0  0  0  0  0  0  0  0  0  0  0  0
   44.3290   33.9011   42.1039 H   0  0  0  0  0  0  0  0  0  0  0  0
   43.6405   33.3982   39.2379 H   0  0  0  0  0  0  0  0  0  0  0  0
   44.0480   35.0760   39.7380 H   0  0  0  0  0  0  0  0  0  0  0  0
   41.4803   32.4707   40.3045 H   0  0  0  0  0  0  0  0  0  0  0  0
   41.5530   33.7274   38.9457 H   0  0  0  0  0  0  0  0  0  0  0  0
   39.2974   33.4296   39.5939 H   0  0  0  0  0  0  0  0  0  0  0  0
   39.6965   33.6997   41.3150 H   0  0  0  0  0  0  0  0  0  0  0  0
   40.2629   35.7188   39.0671 H   0  0  0  0  0  0  0  0  0  0  0  0
   38.8455   35.8096   40.1094 H   0  0  0  0  0  0  0  0  0  0  0  0
   40.7940   37.1329   40.9815 H   0  0  0  0  0  0  0  0  0  0  0  0
   40.2809   35.7700   42.1013 H   0  0  0  0  0  0  0  0  0  0  0  0
   42.4300   35.5300   42.2460 H   0  0  0  0  0  0  0  0  0  0  0  0
   42.6755   36.2005   40.5152 H   0  0  0  0  0  0  0  0  0  0  0  0
  1 16  1  0
  1  2  1  0
  2  7  1  0
  3  2  2  0
  4  3  1  0
  5  6  1  0
  5  4  2  0
  6  1  2  0
  7  8  1  0
  7 15  1  0
  8  9  2  0
  9 10  1  0
 10 11  2  0
 11 12  1  0
 13 12  2  0
 14 13  1  0
 15 14  2  0
 15 10  1  0
 17 18  1  0
 17 16  1  0
 18 23  1  0
 19 20  1  0
 19 18  1  0
 21 20  1  0
 21 22  1  0
 22 23  1  0
  3 24  1  0
  5 25  1  0
  8 26  1  0
 11 27  1  0
 13 28  1  0
 16 29  1  0
 16 30  1  0
 17 31  1  0
 17 32  1  0
 19 33  1  0
 19 34  1  0
 20 35  1  0
 20 36  1  0
 21 37  1  0
 21 38  1  0
 22 39  1  0
 22 40  1  0
 23 41  1  0
 23 42  1  0
M  ISO  8  24  14  25  14  26  14  27  14  28  14  29   8  30   8  31   8
M  ISO  8  32   8  33  13  34  13  35  13  36  13  37  13  38  13  39  13
M  ISO  3  40  13  41  13  42  13
M  END
>  <minimizedAffinity>  (1) 
-6.19385433

>  <minimizedRMSD>  (1) 
0.917978346

$$$$
