
     RDKit          3D

 40 43  0  0  0  0  0  0  0  0999 V2000
   45.6540   34.2820   41.0840 C   0  0  0  0  0  0  0  0  0  0  0  0
   46.2840   34.7960   42.2450 C   0  0  0  0  0  0  0  0  0  0  0  0
   47.6630   35.0210   42.2340 C   0  0  0  0  0  0  0  0  0  0  0  0
   48.3390   34.7340   41.1030 N   0  0  0  0  0  0  0  0  0  0  0  0
   47.6970   34.2380   39.9990 C   0  0  0  0  0  0  0  0  0  0  0  0
   46.3770   34.0260   40.0170 N   0  0  0  0  0  0  0  0  0  0  0  0
   45.6240   35.1120   43.4510 N   0  0  0  0  0  0  0  0  0  0  0  0
   44.8680   36.1250   43.9080 C   0  0  0  0  0  0  0  0  0  0  0  0
   44.4940   35.8880   45.1860 N   0  0  0  0  0  0  0  0  0  0  0  0
   45.0150   34.7080   45.5630 C   0  0  0  0  0  0  0  0  0  0  0  0
   44.8800   34.0890   46.7860 C   0  0  0  0  0  0  0  0  0  0  0  0
   45.5090   32.8950   46.9160 N   0  0  0  0  0  0  0  0  0  0  0  0
   46.2120   32.3840   45.8750 C   0  0  0  0  0  0  0  0  0  0  0  0
   46.3060   33.0420   44.6990 N   0  0  0  0  0  0  0  0  0  0  0  0
   45.7070   34.2380   44.4950 C   0  0  0  0  0  0  0  0  0  0  0  0
   44.2020   34.1050   41.2650 C   0  0  0  0  0  0  0  0  0  0  0  0
   43.4350   35.2530   40.6730 C   0  0  0  0  0  0  0  0  0  0  0  0
   42.0290   34.9130   40.3090 C   0  0  0  0  0  0  0  0  0  0  0  0
   41.7120   35.1810   38.8560 C   0  0  0  0  0  0  0  0  0  0  0  0
   40.2050   34.9000   38.8500 C   0  0  0  0  0  0  0  0  0  0  0  0
   39.7380   35.2630   40.2540 C   0  0  0  0  0  0  0  0  0  0  0  0
   40.9880   35.7470   40.9950 C   0  0  0  0  0  0  0  0  0  0  0  0
   48.1804   35.4193   43.1192 H   0  0  0  0  0  0  0  0  0  0  0  0
   48.2728   34.0121   39.0894 H   0  0  0  0  0  0  0  0  0  0  0  0
   44.5932   37.0176   43.3268 H   0  0  0  0  0  0  0  0  0  0  0  0
   44.2983   34.5354   47.6059 H   0  0  0  0  0  0  0  0  0  0  0  0
   46.7163   31.4133   45.9907 H   0  0  0  0  0  0  0  0  0  0  0  0
   43.8902   33.1729   40.7711 H   0  0  0  0  0  0  0  0  0  0  0  0
   43.9887   34.0638   42.3433 H   0  0  0  0  0  0  0  0  0  0  0  0
   43.4149   36.0721   41.4070 H   0  0  0  0  0  0  0  0  0  0  0  0
   43.9480   35.5351   39.7417 H   0  0  0  0  0  0  0  0  0  0  0  0
   41.9862   33.8520   40.5961 H   0  0  0  0  0  0  0  0  0  0  0  0
   41.9334   36.2215   38.5760 H   0  0  0  0  0  0  0  0  0  0  0  0
   42.2952   34.5843   38.1392 H   0  0  0  0  0  0  0  0  0  0  0  0
   39.6972   35.5232   38.0991 H   0  0  0  0  0  0  0  0  0  0  0  0
   39.9777   33.8549   38.5931 H   0  0  0  0  0  0  0  0  0  0  0  0
   38.9834   36.0622   40.2124 H   0  0  0  0  0  0  0  0  0  0  0  0
   39.2723   34.4052   40.7612 H   0  0  0  0  0  0  0  0  0  0  0  0
   40.9347   35.5305   42.0722 H   0  0  0  0  0  0  0  0  0  0  0  0
   41.1612   36.8326   40.9563 H   0  0  0  0  0  0  0  0  0  0  0  0
  1 16  1  0
  1  2  1  0
  2  7  1  0
  3  2  2  0
  4  3  1  0
  5  6  1  0
  5  4  2  0
  6  1  2  0
  7  8  1  0
  7 15  1  0
  8  9  2  0
  9 10  1  0
 10 11  2  0
 11 12  1  0
 13 12  2  0
 14 13  1  0
 15 14  2  0
 15 10  1  0
 17 16  1  0
 18 17  1  0
 18 22  1  0
 19 18  1  0
 20 19  1  0
 20 21  1  0
 21 22  1  0
  3 23  1  0
  5 24  1  0
  8 25  1  0
 11 26  1  0
 13 27  1  0
 16 28  1  0
 16 29  1  0
 17 30  1  0
 17 31  1  0
 18 32  1  0
 19 33  1  0
 19 34  1  0
 20 35  1  0
 20 36  1  0
 21 37  1  0
 21 38  1  0
 22 39  1  0
 22 40  1  0
M  ISO  8  23  14  24  14  25  14  26  14  27  14  28   8  29   8  30   8
M  ISO  8  31   8  32  13  33  13  34  13  35  13  36  13  37  13  38  13
M  ISO  2  39  13  40  13
M  END
>  <minimizedAffinity>  (1) 
-6.11881256

>  <minimizedRMSD>  (1) 
0.756165624

$$$$
