
     RDKit          3D

 46 50  0  0  0  0  0  0  0  0999 V2000
   47.7320   33.7420   41.8790 C   0  0  0  0  0  0  0  0  0  0  0  0
   45.0110   35.8160   43.4610 C   0  0  0  0  0  0  0  0  0  0  0  0
   45.9480   35.3230   42.5450 C   0  0  0  0  0  0  0  0  0  0  0  0
   46.7490   34.2530   42.8400 C   0  0  0  0  0  0  0  0  0  0  0  0
   46.6130   33.6690   44.0600 N   0  0  0  0  0  0  0  0  0  0  0  0
   45.6830   34.1730   44.9440 C   0  0  0  0  0  0  0  0  0  0  0  0
   44.9140   35.2030   44.6540 N   0  0  0  0  0  0  0  0  0  0  0  0
   45.5860   33.5010   46.2350 C   0  0  0  0  0  0  0  0  0  0  0  0
   44.8540   33.8870   47.3410 C   0  0  0  0  0  0  0  0  0  0  0  0
   45.0220   32.9990   48.3550 N   0  0  0  0  0  0  0  0  0  0  0  0
   45.8600   32.0570   47.8840 C   0  0  0  0  0  0  0  0  0  0  0  0
   46.3950   30.9120   48.4460 C   0  0  0  0  0  0  0  0  0  0  0  0
   47.2650   30.0500   47.7730 C   0  0  0  0  0  0  0  0  0  0  0  0
   47.6070   30.3720   46.4590 C   0  0  0  0  0  0  0  0  0  0  0  0
   47.0850   31.5100   45.8770 C   0  0  0  0  0  0  0  0  0  0  0  0
   46.2300   32.3300   46.5840 C   0  0  0  0  0  0  0  0  0  0  0  0
   48.2160   34.7410   40.8780 C   0  0  0  0  0  0  0  0  0  0  0  0
   47.7920   34.2940   39.5230 C   0  0  0  0  0  0  0  0  0  0  0  0
   48.5950   34.4730   38.4110 C   0  0  0  0  0  0  0  0  0  0  0  0
   48.2790   34.0860   37.1230 C   0  0  0  0  0  0  0  0  0  0  0  0
   47.0560   33.4810   36.9830 N   0  0  0  0  0  0  0  0  0  0  0  0
   46.2690   33.3050   38.0660 C   0  0  0  0  0  0  0  0  0  0  0  0
   46.5790   33.6830   39.3330 N   0  0  0  0  0  0  0  0  0  0  0  0
   44.9790   32.6500   37.8430 C   0  0  0  0  0  0  0  0  0  0  0  0
   43.8500   33.0550   38.5420 C   0  0  0  0  0  0  0  0  0  0  0  0
   42.6430   32.4420   38.3350 C   0  0  0  0  0  0  0  0  0  0  0  0
   42.5320   31.4450   37.4570 N   0  0  0  0  0  0  0  0  0  0  0  0
   43.6410   31.0660   36.7880 C   0  0  0  0  0  0  0  0  0  0  0  0
   44.8580   31.6540   36.9700 N   0  0  0  0  0  0  0  0  0  0  0  0
   48.6022   33.3755   42.4434 H   0  0  0  0  0  0  0  0  0  0  0  0
   47.2203   32.9553   41.3052 H   0  0  0  0  0  0  0  0  0  0  0  0
   44.3741   36.6778   43.2126 H   0  0  0  0  0  0  0  0  0  0  0  0
   46.0430   35.8083   41.5624 H   0  0  0  0  0  0  0  0  0  0  0  0
   44.2237   34.7870   47.3932 H   0  0  0  0  0  0  0  0  0  0  0  0
   44.5957   33.0384   49.2918 H   0  0  0  0  0  0  0  0  0  0  0  0
   46.1199   30.6658   49.4822 H   0  0  0  0  0  0  0  0  0  0  0  0
   47.6659   29.1497   48.2616 H   0  0  0  0  0  0  0  0  0  0  0  0
   48.2887   29.7227   45.8900 H   0  0  0  0  0  0  0  0  0  0  0  0
   47.3530   31.7649   44.8411 H   0  0  0  0  0  0  0  0  0  0  0  0
   47.7801   35.7270   41.0969 H   0  0  0  0  0  0  0  0  0  0  0  0
   49.3122   34.8199   40.9234 H   0  0  0  0  0  0  0  0  0  0  0  0
   49.5668   34.9648   38.5652 H   0  0  0  0  0  0  0  0  0  0  0  0
   48.9576   34.2508   36.2731 H   0  0  0  0  0  0  0  0  0  0  0  0
   43.9257   33.8766   39.2695 H   0  0  0  0  0  0  0  0  0  0  0  0
   41.7583   32.7748   38.8975 H   0  0  0  0  0  0  0  0  0  0  0  0
   43.5595   30.2440   36.0616 H   0  0  0  0  0  0  0  0  0  0  0  0
  1  4  1  0
  2  7  2  0
  3  4  2  0
  3  2  1  0
  4  5  1  0
  5  6  2  0
  6  8  1  0
  7  6  1  0
  8 16  1  0
  8  9  2  0
  9 10  1  0
 11 10  1  0
 11 12  2  0
 13 12  1  0
 14 13  2  0
 15 14  1  0
 15 16  2  0
 16 11  1  0
 17  1  1  0
 18 17  1  0
 19 18  2  0
 20 19  1  0
 21 20  2  0
 21 22  1  0
 22 23  2  0
 23 18  1  0
 24 22  1  0
 24 25  2  0
 26 25  1  0
 27 26  2  0
 28 29  2  0
 28 27  1  0
 29 24  1  0
  1 30  1  0
  1 31  1  0
  2 32  1  0
  3 33  1  0
  9 34  1  0
 10 35  1  0
 12 36  1  0
 13 37  1  0
 14 38  1  0
 15 39  1  0
 17 40  1  0
 17 41  1  0
 19 42  1  0
 20 43  1  0
 25 44  1  0
 26 45  1  0
 28 46  1  0
M  ISO  8  30   8  31   8  32  14  33  14  34  14  35   9  36  14  37  14
M  ISO  8  38  14  39  14  40   8  41   8  42  14  43  14  44  14  45  14
M  ISO  1  46  14
M  END
>  <minimizedAffinity>  (1) 
-6.39604568

>  <minimizedRMSD>  (1) 
0.87470907

$$$$
