
     RDKit          3D

 37 40  0  0  0  0  0  0  0  0999 V2000
   45.8670   34.2030   40.9750 C   0  0  0  0  0  0  0  0  0  0  0  0
   46.4320   34.8280   42.0940 C   0  0  0  0  0  0  0  0  0  0  0  0
   47.7720   35.2030   42.0780 C   0  0  0  0  0  0  0  0  0  0  0  0
   48.4810   34.9380   40.9530 N   0  0  0  0  0  0  0  0  0  0  0  0
   47.9060   34.3270   39.8740 C   0  0  0  0  0  0  0  0  0  0  0  0
   46.6180   33.9780   39.9130 N   0  0  0  0  0  0  0  0  0  0  0  0
   45.7270   35.1230   43.2920 N   0  0  0  0  0  0  0  0  0  0  0  0
   44.9070   36.0850   43.7260 C   0  0  0  0  0  0  0  0  0  0  0  0
   44.5210   35.8550   44.9940 N   0  0  0  0  0  0  0  0  0  0  0  0
   45.1060   34.7130   45.3960 C   0  0  0  0  0  0  0  0  0  0  0  0
   44.9770   34.1140   46.6290 C   0  0  0  0  0  0  0  0  0  0  0  0
   45.6770   32.9570   46.7840 N   0  0  0  0  0  0  0  0  0  0  0  0
   46.4350   32.4660   45.7650 C   0  0  0  0  0  0  0  0  0  0  0  0
   46.5160   33.1040   44.5800 N   0  0  0  0  0  0  0  0  0  0  0  0
   45.8450   34.2700   44.3440 C   0  0  0  0  0  0  0  0  0  0  0  0
   44.4390   33.8650   41.1380 C   0  0  0  0  0  0  0  0  0  0  0  0
   43.5550   34.8800   40.4540 C   0  0  0  0  0  0  0  0  0  0  0  0
   42.1180   34.5310   40.5390 C   0  0  0  0  0  0  0  0  0  0  0  0
   41.2520   35.4210   39.9190 C   0  0  0  0  0  0  0  0  0  0  0  0
   39.8830   35.2740   39.8880 C   0  0  0  0  0  0  0  0  0  0  0  0
   39.3870   34.1480   40.5300 C   0  0  0  0  0  0  0  0  0  0  0  0
   40.2050   33.2130   41.1720 C   0  0  0  0  0  0  0  0  0  0  0  0
   41.5620   33.4510   41.1480 C   0  0  0  0  0  0  0  0  0  0  0  0
   48.2379   35.6953   42.9443 H   0  0  0  0  0  0  0  0  0  0  0  0
   48.5043   34.1229   38.9738 H   0  0  0  0  0  0  0  0  0  0  0  0
   44.5897   36.9504   43.1257 H   0  0  0  0  0  0  0  0  0  0  0  0
   44.3541   34.5392   47.4298 H   0  0  0  0  0  0  0  0  0  0  0  0
   46.9929   31.5294   45.9116 H   0  0  0  0  0  0  0  0  0  0  0  0
   44.2528   32.8737   40.6992 H   0  0  0  0  0  0  0  0  0  0  0  0
   44.2020   33.8650   42.2122 H   0  0  0  0  0  0  0  0  0  0  0  0
   43.8413   34.9392   39.3936 H   0  0  0  0  0  0  0  0  0  0  0  0
   43.6953   35.8435   40.9657 H   0  0  0  0  0  0  0  0  0  0  0  0
   41.6869   36.2999   39.4206 H   0  0  0  0  0  0  0  0  0  0  0  0
   39.2263   36.0008   39.3876 H   0  0  0  0  0  0  0  0  0  0  0  0
   38.2994   33.9833   40.5340 H   0  0  0  0  0  0  0  0  0  0  0  0
   39.7846   32.3285   41.6730 H   0  0  0  0  0  0  0  0  0  0  0  0
   42.2280   32.7313   41.6464 H   0  0  0  0  0  0  0  0  0  0  0  0
  1 16  1  0
  1  2  1  0
  2  7  1  0
  3  2  2  0
  4  3  1  0
  5  6  1  0
  5  4  2  0
  6  1  2  0
  7  8  1  0
  7 15  1  0
  8  9  2  0
  9 10  1  0
 10 11  2  0
 11 12  1  0
 13 12  2  0
 14 13  1  0
 15 14  2  0
 15 10  1  0
 17 18  1  0
 17 16  1  0
 18 23  1  0
 19 18  2  0
 20 19  1  0
 20 21  2  0
 21 22  1  0
 23 22  2  0
  3 24  1  0
  5 25  1  0
  8 26  1  0
 11 27  1  0
 13 28  1  0
 16 29  1  0
 16 30  1  0
 17 31  1  0
 17 32  1  0
 19 33  1  0
 20 34  1  0
 21 35  1  0
 22 36  1  0
 23 37  1  0
M  ISO  8  24  14  25  14  26  14  27  14  28  14  29   8  30   8  31   8
M  ISO  6  32   8  33  14  34  14  35  14  36  14  37  14
M  END
>  <minimizedAffinity>  (1) 
-6.2626009

>  <minimizedRMSD>  (1) 
0.602027178

$$$$
