
     RDKit          3D

 34 37  0  0  0  0  0  0  0  0999 V2000
   45.9100   34.1420   40.9170 C   0  0  0  0  0  0  0  0  0  0  0  0
   46.4480   34.8380   42.0130 C   0  0  0  0  0  0  0  0  0  0  0  0
   47.7660   35.2680   41.9800 C   0  0  0  0  0  0  0  0  0  0  0  0
   48.4900   34.9900   40.8620 N   0  0  0  0  0  0  0  0  0  0  0  0
   47.9500   34.3150   39.8120 C   0  0  0  0  0  0  0  0  0  0  0  0
   46.6750   33.9050   39.8590 N   0  0  0  0  0  0  0  0  0  0  0  0
   45.7240   35.1480   43.1990 N   0  0  0  0  0  0  0  0  0  0  0  0
   44.8880   36.1060   43.6040 C   0  0  0  0  0  0  0  0  0  0  0  0
   44.4940   35.8880   44.8730 N   0  0  0  0  0  0  0  0  0  0  0  0
   45.0820   34.7690   45.3010 C   0  0  0  0  0  0  0  0  0  0  0  0
   44.9560   34.1790   46.5410 C   0  0  0  0  0  0  0  0  0  0  0  0
   45.6640   33.0410   46.7240 N   0  0  0  0  0  0  0  0  0  0  0  0
   46.4390   32.5420   45.7220 C   0  0  0  0  0  0  0  0  0  0  0  0
   46.5200   33.1660   44.5320 N   0  0  0  0  0  0  0  0  0  0  0  0
   45.8440   34.3110   44.2620 C   0  0  0  0  0  0  0  0  0  0  0  0
   44.4970   33.7470   41.0970 C   0  0  0  0  0  0  0  0  0  0  0  0
   43.6720   34.0850   39.8820 C   0  0  0  0  0  0  0  0  0  0  0  0
   42.3560   34.5060   40.3010 N   0  0  0  0  0  0  0  0  0  0  0  0
   41.6650   34.2030   41.4100 N   0  0  0  0  0  0  0  0  0  0  0  0
   40.4790   34.8140   41.3940 C   0  0  0  0  0  0  0  0  0  0  0  0
   40.3460   35.5690   40.2280 C   0  0  0  0  0  0  0  0  0  0  0  0
   41.5490   35.3390   39.5840 C   0  0  0  0  0  0  0  0  0  0  0  0
   48.2096   35.8134   42.8260 H   0  0  0  0  0  0  0  0  0  0  0  0
   48.5613   34.1051   38.9219 H   0  0  0  0  0  0  0  0  0  0  0  0
   44.5651   36.9569   42.9861 H   0  0  0  0  0  0  0  0  0  0  0  0
   44.3205   34.6063   47.3307 H   0  0  0  0  0  0  0  0  0  0  0  0
   47.0075   31.6149   45.8874 H   0  0  0  0  0  0  0  0  0  0  0  0
   44.4483   32.6621   41.2721 H   0  0  0  0  0  0  0  0  0  0  0  0
   44.0899   34.3000   41.9564 H   0  0  0  0  0  0  0  0  0  0  0  0
   43.5861   33.1976   39.2377 H   0  0  0  0  0  0  0  0  0  0  0  0
   44.1576   34.8972   39.3211 H   0  0  0  0  0  0  0  0  0  0  0  0
   39.7177   34.7343   42.1840 H   0  0  0  0  0  0  0  0  0  0  0  0
   39.4985   36.1903   39.9028 H   0  0  0  0  0  0  0  0  0  0  0  0
   41.8212   35.7753   38.6116 H   0  0  0  0  0  0  0  0  0  0  0  0
  1 16  1  0
  1  2  1  0
  2  7  1  0
  3  2  2  0
  4  3  1  0
  5  6  1  0
  5  4  2  0
  6  1  2  0
  7  8  1  0
  7 15  1  0
  8  9  2  0
  9 10  1  0
 10 11  2  0
 11 12  1  0
 13 12  2  0
 14 13  1  0
 15 14  2  0
 15 10  1  0
 17 18  1  0
 17 16  1  0
 18 19  1  0
 20 19  2  0
 21 20  1  0
 22 21  2  0
 22 18  1  0
  3 23  1  0
  5 24  1  0
  8 25  1  0
 11 26  1  0
 13 27  1  0
 16 28  1  0
 16 29  1  0
 17 30  1  0
 17 31  1  0
 20 32  1  0
 21 33  1  0
 22 34  1  0
M  ISO  8  23  14  24  14  25  14  26  14  27  14  28   8  29   8  30   8
M  ISO  4  31   8  32  14  33  14  34  14
M  END
>  <minimizedAffinity>  (1) 
-5.75032139

>  <minimizedRMSD>  (1) 
0.701040149

$$$$
