
     RDKit          3D

 42 45  0  0  0  0  0  0  0  0999 V2000
   47.6270   34.7950   41.6510 C   0  0  0  0  0  0  0  0  0  0  0  0
   47.2370   34.2480   40.3180 C   0  0  0  0  0  0  0  0  0  0  0  0
   48.1430   34.0900   39.2880 C   0  0  0  0  0  0  0  0  0  0  0  0
   47.8730   33.5940   38.0400 C   0  0  0  0  0  0  0  0  0  0  0  0
   46.5700   33.2320   37.8340 N   0  0  0  0  0  0  0  0  0  0  0  0
   45.6610   33.3800   38.8370 C   0  0  0  0  0  0  0  0  0  0  0  0
   45.9460   33.8730   40.0650 N   0  0  0  0  0  0  0  0  0  0  0  0
   44.2940   32.9740   38.5410 C   0  0  0  0  0  0  0  0  0  0  0  0
   43.2260   33.7440   38.9840 C   0  0  0  0  0  0  0  0  0  0  0  0
   41.9380   33.3660   38.7090 C   0  0  0  0  0  0  0  0  0  0  0  0
   41.6930   32.2560   38.0140 N   0  0  0  0  0  0  0  0  0  0  0  0
   42.7450   31.5140   37.5880 C   0  0  0  0  0  0  0  0  0  0  0  0
   44.0320   31.8690   37.8490 N   0  0  0  0  0  0  0  0  0  0  0  0
   47.5450   33.6870   42.6460 C   0  0  0  0  0  0  0  0  0  0  0  0
   44.8490   35.1720   44.8270 C   0  0  0  0  0  0  0  0  0  0  0  0
   45.6990   34.9220   43.7460 C   0  0  0  0  0  0  0  0  0  0  0  0
   46.6530   33.9430   43.7830 C   0  0  0  0  0  0  0  0  0  0  0  0
   46.7560   33.1970   44.9270 N   0  0  0  0  0  0  0  0  0  0  0  0
   45.9050   33.4680   45.9690 C   0  0  0  0  0  0  0  0  0  0  0  0
   44.9900   34.4130   45.9300 N   0  0  0  0  0  0  0  0  0  0  0  0
   46.0790   32.6180   47.1690 C   0  0  0  0  0  0  0  0  0  0  0  0
   47.3590   32.2140   47.5090 C   0  0  0  0  0  0  0  0  0  0  0  0
   47.5340   31.4110   48.6420 C   0  0  0  0  0  0  0  0  0  0  0  0
   46.3820   31.0890   49.3310 C   0  0  0  0  0  0  0  0  0  0  0  0
   45.0920   31.4690   49.0290 C   0  0  0  0  0  0  0  0  0  0  0  0
   44.9540   32.2720   47.8900 C   0  0  0  0  0  0  0  0  0  0  0  0
   46.9405   35.6054   41.9373 H   0  0  0  0  0  0  0  0  0  0  0  0
   48.6490   35.2000   41.6136 H   0  0  0  0  0  0  0  0  0  0  0  0
   49.1816   34.3915   39.4890 H   0  0  0  0  0  0  0  0  0  0  0  0
   48.6450   33.4944   37.2628 H   0  0  0  0  0  0  0  0  0  0  0  0
   43.4154   34.6625   39.5589 H   0  0  0  0  0  0  0  0  0  0  0  0
   41.1001   33.9835   39.0647 H   0  0  0  0  0  0  0  0  0  0  0  0
   42.5516   30.5962   37.0133 H   0  0  0  0  0  0  0  0  0  0  0  0
   47.1862   32.7865   42.1260 H   0  0  0  0  0  0  0  0  0  0  0  0
   48.5554   33.5735   43.0657 H   0  0  0  0  0  0  0  0  0  0  0  0
   44.0880   35.9648   44.7780 H   0  0  0  0  0  0  0  0  0  0  0  0
   45.5973   35.5322   42.8365 H   0  0  0  0  0  0  0  0  0  0  0  0
   48.2227   32.5186   46.8997 H   0  0  0  0  0  0  0  0  0  0  0  0
   48.5256   31.0592   48.9627 H   0  0  0  0  0  0  0  0  0  0  0  0
   46.5079   30.4572   50.2226 H   0  0  0  0  0  0  0  0  0  0  0  0
   44.2304   31.1627   49.6404 H   0  0  0  0  0  0  0  0  0  0  0  0
   43.9606   32.6229   47.5736 H   0  0  0  0  0  0  0  0  0  0  0  0
  1 14  1  0
  2  1  1  0
  3  2  2  0
  4  3  1  0
  5  4  2  0
  5  6  1  0
  6  7  2  0
  7  2  1  0
  8  6  1  0
  8  9  2  0
 10  9  1  0
 11 10  2  0
 12 13  2  0
 12 11  1  0
 13  8  1  0
 14 17  1  0
 15 20  2  0
 16 17  2  0
 16 15  1  0
 17 18  1  0
 18 19  2  0
 19 21  1  0
 20 19  1  0
 21 22  2  0
 21 26  1  0
 22 23  1  0
 23 24  2  0
 25 24  1  0
 26 25  2  0
  1 27  1  0
  1 28  1  0
  3 29  1  0
  4 30  1  0
  9 31  1  0
 10 32  1  0
 12 33  1  0
 14 34  1  0
 14 35  1  0
 15 36  1  0
 16 37  1  0
 22 38  1  0
 23 39  1  0
 24 40  1  0
 25 41  1  0
 26 42  1  0
M  ISO  8  27   8  28   8  29  14  30  14  31  14  32  14  33  14  34   8
M  ISO  8  35   8  36  14  37  14  38  14  39  14  40  14  41  14  42  14
M  END
>  <minimizedAffinity>  (1) 
-6.25690937

>  <minimizedRMSD>  (1) 
1.18103254

$$$$
