
     RDKit          3D

 34 37  0  0  0  0  0  0  0  0999 V2000
   45.9170   34.1570   40.9490 C   0  0  0  0  0  0  0  0  0  0  0  0
   46.4520   34.8330   42.0530 C   0  0  0  0  0  0  0  0  0  0  0  0
   47.7720   35.2550   42.0160 C   0  0  0  0  0  0  0  0  0  0  0  0
   48.4960   34.9940   40.9070 N   0  0  0  0  0  0  0  0  0  0  0  0
   47.9490   34.3320   39.8440 C   0  0  0  0  0  0  0  0  0  0  0  0
   46.6790   33.9300   39.8850 N   0  0  0  0  0  0  0  0  0  0  0  0
   45.7340   35.1300   43.2410 N   0  0  0  0  0  0  0  0  0  0  0  0
   44.8930   36.0870   43.6570 C   0  0  0  0  0  0  0  0  0  0  0  0
   44.5020   35.8630   44.9200 N   0  0  0  0  0  0  0  0  0  0  0  0
   45.1000   34.7330   45.3410 C   0  0  0  0  0  0  0  0  0  0  0  0
   44.9710   34.1440   46.5780 C   0  0  0  0  0  0  0  0  0  0  0  0
   45.6820   33.0000   46.7580 N   0  0  0  0  0  0  0  0  0  0  0  0
   46.4540   32.5150   45.7480 C   0  0  0  0  0  0  0  0  0  0  0  0
   46.5370   33.1440   44.5540 N   0  0  0  0  0  0  0  0  0  0  0  0
   45.8550   34.2880   44.3030 C   0  0  0  0  0  0  0  0  0  0  0  0
   44.5130   33.7650   41.1140 C   0  0  0  0  0  0  0  0  0  0  0  0
   43.5670   34.6990   40.3950 C   0  0  0  0  0  0  0  0  0  0  0  0
   42.2440   34.4330   40.9130 N   0  0  0  0  0  0  0  0  0  0  0  0
   41.6430   33.2080   40.8910 C   0  0  0  0  0  0  0  0  0  0  0  0
   40.3720   33.2970   41.4690 C   0  0  0  0  0  0  0  0  0  0  0  0
   40.2400   34.5760   41.8230 N   0  0  0  0  0  0  0  0  0  0  0  0
   41.3670   35.2650   41.4900 C   0  0  0  0  0  0  0  0  0  0  0  0
   48.2179   35.7887   42.8683 H   0  0  0  0  0  0  0  0  0  0  0  0
   48.5591   34.1302   38.9512 H   0  0  0  0  0  0  0  0  0  0  0  0
   44.5674   36.9410   43.0449 H   0  0  0  0  0  0  0  0  0  0  0  0
   44.3352   34.5705   47.3679 H   0  0  0  0  0  0  0  0  0  0  0  0
   47.0248   31.5882   45.9068 H   0  0  0  0  0  0  0  0  0  0  0  0
   44.3800   32.7495   40.7128 H   0  0  0  0  0  0  0  0  0  0  0  0
   44.2762   33.8078   42.1874 H   0  0  0  0  0  0  0  0  0  0  0  0
   43.5954   34.5072   39.3122 H   0  0  0  0  0  0  0  0  0  0  0  0
   43.8505   35.7495   40.5566 H   0  0  0  0  0  0  0  0  0  0  0  0
   42.0899   32.2902   40.4812 H   0  0  0  0  0  0  0  0  0  0  0  0
   39.6398   32.4870   41.6026 H   0  0  0  0  0  0  0  0  0  0  0  0
   41.5313   36.3381   41.6674 H   0  0  0  0  0  0  0  0  0  0  0  0
  1 16  1  0
  1  2  1  0
  2  7  1  0
  3  2  2  0
  4  3  1  0
  5  6  1  0
  5  4  2  0
  6  1  2  0
  7  8  1  0
  7 15  1  0
  8  9  2  0
  9 10  1  0
 10 11  2  0
 11 12  1  0
 13 12  2  0
 14 13  1  0
 15 14  2  0
 15 10  1  0
 17 18  1  0
 17 16  1  0
 18 22  1  0
 19 18  1  0
 19 20  2  0
 20 21  1  0
 22 21  2  0
  3 23  1  0
  5 24  1  0
  8 25  1  0
 11 26  1  0
 13 27  1  0
 16 28  1  0
 16 29  1  0
 17 30  1  0
 17 31  1  0
 19 32  1  0
 20 33  1  0
 22 34  1  0
M  ISO  8  23  14  24  14  25  14  26  14  27  14  28   8  29   8  30   8
M  ISO  4  31   8  32  14  33  14  34  14
M  END
>  <minimizedAffinity>  (1) 
-5.63876438

>  <minimizedRMSD>  (1) 
0.491261423

$$$$
