
     RDKit          3D

 33 36  0  0  0  0  0  0  0  0999 V2000
   46.0170   34.0850   40.9040 C   0  0  0  0  0  0  0  0  0  0  0  0
   46.5170   34.8190   42.0120 C   0  0  0  0  0  0  0  0  0  0  0  0
   47.8050   35.3260   41.9780 C   0  0  0  0  0  0  0  0  0  0  0  0
   48.5440   35.0950   40.8640 N   0  0  0  0  0  0  0  0  0  0  0  0
   48.0430   34.3880   39.8140 C   0  0  0  0  0  0  0  0  0  0  0  0
   46.7980   33.9060   39.8650 N   0  0  0  0  0  0  0  0  0  0  0  0
   45.7760   35.0860   43.2000 N   0  0  0  0  0  0  0  0  0  0  0  0
   44.8850   36.0040   43.6090 C   0  0  0  0  0  0  0  0  0  0  0  0
   44.5000   35.7640   44.8710 N   0  0  0  0  0  0  0  0  0  0  0  0
   45.1450   34.6700   45.2990 C   0  0  0  0  0  0  0  0  0  0  0  0
   45.0460   34.0720   46.5320 C   0  0  0  0  0  0  0  0  0  0  0  0
   45.8120   32.9600   46.7260 N   0  0  0  0  0  0  0  0  0  0  0  0
   46.6130   32.5110   45.7170 C   0  0  0  0  0  0  0  0  0  0  0  0
   46.6720   33.1350   44.5260 N   0  0  0  0  0  0  0  0  0  0  0  0
   45.9310   34.2570   44.2640 C   0  0  0  0  0  0  0  0  0  0  0  0
   44.6460   33.6220   41.1030 C   0  0  0  0  0  0  0  0  0  0  0  0
   43.6460   34.4850   40.3660 C   0  0  0  0  0  0  0  0  0  0  0  0
   42.3110   34.3300   40.8720 N   0  0  0  0  0  0  0  0  0  0  0  0
   41.6400   35.3500   41.4550 C   0  0  0  0  0  0  0  0  0  0  0  0
   40.4130   34.8850   41.8230 N   0  0  0  0  0  0  0  0  0  0  0  0
   40.3420   33.5770   41.4610 C   0  0  0  0  0  0  0  0  0  0  0  0
   41.5240   33.2680   40.8790 N   0  0  0  0  0  0  0  0  0  0  0  0
   48.2148   35.8962   42.8247 H   0  0  0  0  0  0  0  0  0  0  0  0
   48.6638   34.2134   38.9228 H   0  0  0  0  0  0  0  0  0  0  0  0
   44.5206   36.8391   42.9927 H   0  0  0  0  0  0  0  0  0  0  0  0
   44.3863   34.4676   47.3183 H   0  0  0  0  0  0  0  0  0  0  0  0
   47.2278   31.6138   45.8815 H   0  0  0  0  0  0  0  0  0  0  0  0
   44.5629   32.5886   40.7354 H   0  0  0  0  0  0  0  0  0  0  0  0
   44.4194   33.6803   42.1778 H   0  0  0  0  0  0  0  0  0  0  0  0
   43.6551   34.2060   39.3020 H   0  0  0  0  0  0  0  0  0  0  0  0
   43.9393   35.5354   40.5099 H   0  0  0  0  0  0  0  0  0  0  0  0
   42.0175   36.3722   41.6052 H   0  0  0  0  0  0  0  0  0  0  0  0
   39.4883   32.9000   41.6120 H   0  0  0  0  0  0  0  0  0  0  0  0
  1 16  1  0
  1  2  1  0
  2  7  1  0
  3  2  2  0
  4  3  1  0
  5  6  1  0
  5  4  2  0
  6  1  2  0
  7  8  1  0
  7 15  1  0
  8  9  2  0
  9 10  1  0
 10 11  2  0
 11 12  1  0
 13 12  2  0
 14 13  1  0
 15 14  2  0
 15 10  1  0
 17 18  1  0
 17 16  1  0
 18 22  1  0
 18 19  1  0
 19 20  2  0
 21 20  1  0
 22 21  2  0
  3 23  1  0
  5 24  1  0
  8 25  1  0
 11 26  1  0
 13 27  1  0
 16 28  1  0
 16 29  1  0
 17 30  1  0
 17 31  1  0
 19 32  1  0
 21 33  1  0
M  ISO  8  23  14  24  14  25  14  26  14  27  14  28   8  29   8  30   8
M  ISO  3  31   8  32  14  33  14
M  END
>  <minimizedAffinity>  (1) 
-5.63249922

>  <minimizedRMSD>  (1) 
0.557032585

$$$$
