
     RDKit          3D

 36 38  0  0  1  0  0  0  0  0999 V2000
   40.4460   33.5540   40.9500 C   0  0  2  0  0  0  0  0  0  0  0  0
   39.1700   33.8150   40.1030 C   0  0  0  0  0  0  0  0  0  0  0  0
   39.2710   35.3460   40.0490 C   0  0  0  0  0  0  0  0  0  0  0  0
   40.7320   35.5470   39.7770 C   0  0  0  0  0  0  0  0  0  0  0  0
   41.4010   34.2280   40.0730 C   0  0  1  0  0  0  0  0  0  0  0  0
   42.7350   34.4110   40.5760 N   0  0  0  0  0  0  0  0  0  0  0  0
   42.9160   35.0070   41.7900 C   0  0  0  0  0  0  0  0  0  0  0  0
   44.2010   35.1900   42.2880 C   0  0  0  0  0  0  0  0  0  0  0  0
   44.5150   35.8190   43.5810 C   0  0  0  0  0  0  0  0  0  0  0  0
   45.2750   34.7590   41.5340 C   0  0  0  0  0  0  0  0  0  0  0  0
   46.4810   34.8850   41.9100 O   0  0  0  0  0  0  0  0  0  0  0  0
   45.0790   34.1700   40.3350 N   0  0  0  0  0  0  0  0  0  0  0  0
   43.8080   34.0010   39.8640 C   0  0  0  0  0  0  0  0  0  0  0  0
   43.5820   33.4560   38.7500 O   0  0  0  0  0  0  0  0  0  0  0  0
   40.3800   31.6660   42.5080 C   0  0  0  0  0  0  0  0  0  0  0  0
   40.6620   32.1310   41.1990 C   0  0  0  0  0  0  0  0  0  0  0  0
   41.1530   31.2220   40.2190 C   0  0  0  0  0  0  0  0  0  0  0  0
   41.3260   29.9380   40.6010 N   0  0  0  0  0  0  0  0  0  0  0  0
   41.0510   29.5050   41.8640 C   0  0  0  0  0  0  0  0  0  0  0  0
   40.5830   30.3530   42.8110 N   0  0  0  0  0  0  0  0  0  0  0  0
   40.4672   33.9209   41.9868 H   0  0  0  0  0  0  0  0  0  0  0  0
   39.2295   33.3565   39.1049 H   0  0  0  0  0  0  0  0  0  0  0  0
   38.2303   33.4033   40.4997 H   0  0  0  0  0  0  0  0  0  0  0  0
   38.6521   35.7600   39.2394 H   0  0  0  0  0  0  0  0  0  0  0  0
   38.9139   35.8486   40.9600 H   0  0  0  0  0  0  0  0  0  0  0  0
   40.8890   35.8264   38.7247 H   0  0  0  0  0  0  0  0  0  0  0  0
   41.1475   36.3550   40.3970 H   0  0  0  0  0  0  0  0  0  0  0  0
   41.5981   33.5973   39.1936 H   0  0  0  0  0  0  0  0  0  0  0  0
   42.0462   35.3423   42.3740 H   0  0  0  0  0  0  0  0  0  0  0  0
   44.1863   35.1605   44.3985 H   0  0  0  0  0  0  0  0  0  0  0  0
   45.6003   35.9822   43.6554 H   0  0  0  0  0  0  0  0  0  0  0  0
   43.9931   36.7845   43.6554 H   0  0  0  0  0  0  0  0  0  0  0  0
   45.8841   33.8496   39.7781 H   0  0  0  0  0  0  0  0  0  0  0  0
   40.0004   32.3593   43.2730 H   0  0  0  0  0  0  0  0  0  0  0  0
   41.3816   31.5514   39.1947 H   0  0  0  0  0  0  0  0  0  0  0  0
   41.2122   28.4472   42.1189 H   0  0  0  0  0  0  0  0  0  0  0  0
  1 16  1  0
  2  1  1  0
  3  2  1  0
  4  3  1  0
  4  5  1  0
  5  6  1  0
  5  1  1  0
  6  7  1  0
  7  8  2  0
  8  9  1  0
 10 11  2  0
 10  8  1  0
 12 10  1  0
 13 12  1  0
 13  6  1  0
 14 13  2  0
 15 20  2  0
 16 15  1  0
 17 18  1  0
 17 16  2  0
 18 19  2  0
 19 20  1  0
  1 21  1  1
  2 22  1  0
  2 23  1  0
  3 24  1  0
  3 25  1  0
  4 26  1  0
  4 27  1  0
  5 28  1  6
  7 29  1  0
  9 30  1  0
  9 31  1  0
  9 32  1  0
 12 33  1  0
 15 34  1  0
 17 35  1  0
 19 36  1  0
M  ISO  8  21  13  22  13  23  13  24  13  25  13  26  13  27  13  28  13
M  ISO  8  29  14  30   8  31   8  32   8  33   9  34  14  35  14  36  14
M  END
>  <minimizedAffinity>  (1) 
-5.15898371

>  <minimizedRMSD>  (1) 
4.74325943

$$$$
