
     RDKit          3D

 26 27  0  0  1  0  0  0  0  0999 V2000
   46.8430   34.7470   41.7080 C   0  0  2  0  0  0  0  0  0  0  0  0
   46.2440   33.6550   40.7820 C   0  0  0  0  0  0  0  0  0  0  0  0
   47.2060   33.8600   39.6000 C   0  0  0  0  0  0  0  0  0  0  0  0
   48.5300   33.8800   40.3220 C   0  0  0  0  0  0  0  0  0  0  0  0
   48.2400   34.3020   41.7510 C   0  0  1  0  0  0  0  0  0  0  0  0
   45.2950   35.9710   43.1490 C   0  0  0  0  0  0  0  0  0  0  0  0
   46.1370   34.8610   42.9680 C   0  0  0  0  0  0  0  0  0  0  0  0
   46.2720   33.9300   44.0390 C   0  0  0  0  0  0  0  0  0  0  0  0
   45.5830   34.1520   45.1900 N   0  0  0  0  0  0  0  0  0  0  0  0
   44.7770   35.2440   45.3230 C   0  0  0  0  0  0  0  0  0  0  0  0
   44.6290   36.1490   44.3150 N   0  0  0  0  0  0  0  0  0  0  0  0
   49.2070   35.3690   42.1390 C   0  0  0  0  0  0  0  0  0  0  0  0
   49.3370   36.5070   41.6160 O   0  0  0  0  0  0  0  0  0  0  0  0
   50.0600   35.0730   43.1990 O   0  0  0  0  0  0  0  0  0  0  0  0
   46.7541   35.7895   41.3685 H   0  0  0  0  0  0  0  0  0  0  0  0
   46.3203   32.6473   41.2163 H   0  0  0  0  0  0  0  0  0  0  0  0
   45.1694   33.7337   40.5605 H   0  0  0  0  0  0  0  0  0  0  0  0
   47.0131   34.8097   39.0796 H   0  0  0  0  0  0  0  0  0  0  0  0
   47.1274   33.1002   38.8085 H   0  0  0  0  0  0  0  0  0  0  0  0
   48.9853   32.8787   40.3072 H   0  0  0  0  0  0  0  0  0  0  0  0
   49.2340   34.5738   39.8392 H   0  0  0  0  0  0  0  0  0  0  0  0
   48.3603   33.5129   42.5078 H   0  0  0  0  0  0  0  0  0  0  0  0
   45.1755   36.7024   42.3362 H   0  0  0  0  0  0  0  0  0  0  0  0
   46.9216   33.0483   43.9362 H   0  0  0  0  0  0  0  0  0  0  0  0
   44.2332   35.3980   46.2667 H   0  0  0  0  0  0  0  0  0  0  0  0
   50.7237   35.7422   43.5020 H   0  0  0  0  0  0  0  0  0  0  0  0
  1  5  1  0
  1  7  1  0
  2  1  1  0
  3  4  1  0
  3  2  1  0
  4  5  1  0
  5 12  1  0
  6 11  2  0
  7  6  1  0
  7  8  2  0
  8  9  1  0
  9 10  2  0
 11 10  1  0
 12 14  1  0
 13 12  2  0
  1 15  1  6
  2 16  1  0
  2 17  1  0
  3 18  1  0
  3 19  1  0
  4 20  1  0
  4 21  1  0
  5 22  1  1
  6 23  1  0
  8 24  1  0
 10 25  1  0
 14 26  1  0
M  ISO  8  15  13  16  13  17  13  18  13  19  13  20  13  21  13  22  13
M  ISO  4  23  14  24  14  25  14  26   3
M  END
>  <minimizedAffinity>  (1) 
-5.47411871

>  <minimizedRMSD>  (1) 
3.44307804

$$$$
