
     RDKit          3D

 35 37  0  0  1  0  0  0  0  0999 V2000
   45.5840   34.2590   41.4880 C   0  0  2  0  0  0  0  0  0  0  0  0
   44.5010   33.3590   40.8270 C   0  0  0  0  0  0  0  0  0  0  0  0
   45.1390   33.3270   39.4240 C   0  0  0  0  0  0  0  0  0  0  0  0
   46.5490   32.9480   39.7850 C   0  0  0  0  0  0  0  0  0  0  0  0
   46.7540   33.4230   41.2120 C   0  0  1  0  0  0  0  0  0  0  0  0
   44.8370   35.8550   43.1860 C   0  0  0  0  0  0  0  0  0  0  0  0
   45.2950   34.5410   42.8920 C   0  0  0  0  0  0  0  0  0  0  0  0
   45.4670   33.6030   43.9510 C   0  0  0  0  0  0  0  0  0  0  0  0
   45.1800   34.0230   45.2050 N   0  0  0  0  0  0  0  0  0  0  0  0
   44.7420   35.2860   45.4660 C   0  0  0  0  0  0  0  0  0  0  0  0
   44.5710   36.1950   44.4750 N   0  0  0  0  0  0  0  0  0  0  0  0
   48.0290   33.9870   41.4770 N   0  0  0  0  0  0  0  0  0  0  0  0
   48.7880   33.4850   42.5500 C   0  0  0  0  0  0  0  0  0  0  0  0
   49.9110   34.5260   42.6490 C   0  0  0  0  0  0  0  0  0  0  0  0
   49.4440   35.7290   41.8530 C   0  0  0  0  0  0  0  0  0  0  0  0
   48.0060   35.4130   41.4930 C   0  0  0  0  0  0  0  0  0  0  0  0
   45.6862   35.2884   41.1139 H   0  0  0  0  0  0  0  0  0  0  0  0
   44.4403   32.3619   41.2875 H   0  0  0  0  0  0  0  0  0  0  0  0
   43.4584   33.7036   40.8928 H   0  0  0  0  0  0  0  0  0  0  0  0
   45.0939   34.3102   38.9328 H   0  0  0  0  0  0  0  0  0  0  0  0
   44.6476   32.6523   38.7076 H   0  0  0  0  0  0  0  0  0  0  0  0
   46.6804   31.8577   39.7219 H   0  0  0  0  0  0  0  0  0  0  0  0
   47.2783   33.4032   39.0987 H   0  0  0  0  0  0  0  0  0  0  0  0
   46.7993   32.5905   41.9295 H   0  0  0  0  0  0  0  0  0  0  0  0
   44.6994   36.5889   42.3783 H   0  0  0  0  0  0  0  0  0  0  0  0
   45.8188   32.5790   43.7569 H   0  0  0  0  0  0  0  0  0  0  0  0
   44.5221   35.5749   46.5043 H   0  0  0  0  0  0  0  0  0  0  0  0
   48.1957   33.4445   43.4760 H   0  0  0  0  0  0  0  0  0  0  0  0
   49.1450   32.4551   42.4018 H   0  0  0  0  0  0  0  0  0  0  0  0
   50.0800   34.8059   43.6993 H   0  0  0  0  0  0  0  0  0  0  0  0
   50.8599   34.1304   42.2579 H   0  0  0  0  0  0  0  0  0  0  0  0
   49.5001   36.6434   42.4619 H   0  0  0  0  0  0  0  0  0  0  0  0
   50.0670   35.9093   40.9645 H   0  0  0  0  0  0  0  0  0  0  0  0
   47.7382   35.8225   40.5078 H   0  0  0  0  0  0  0  0  0  0  0  0
   47.2641   35.8439   42.1814 H   0  0  0  0  0  0  0  0  0  0  0  0
  1  7  1  0
  2  1  1  0
  3  4  1  0
  3  2  1  0
  4  5  1  0
  5 12  1  0
  5  1  1  0
  6 11  2  0
  7  6  1  0
  7  8  2  0
  8  9  1  0
  9 10  2  0
 11 10  1  0
 12 16  1  0
 12 13  1  0
 13 14  1  0
 15 14  1  0
 16 15  1  0
  1 17  1  6
  2 18  1  0
  2 19  1  0
  3 20  1  0
  3 21  1  0
  4 22  1  0
  4 23  1  0
  5 24  1  1
  6 25  1  0
  8 26  1  0
 10 27  1  0
 13 28  1  0
 13 29  1  0
 14 30  1  0
 14 31  1  0
 15 32  1  0
 15 33  1  0
 16 34  1  0
 16 35  1  0
M  ISO  8  17  13  18  13  19  13  20  13  21  13  22  13  23  13  24  13
M  ISO  8  25  14  26  14  27  14  28  13  29  13  30  13  31  13  32  13
M  ISO  3  33  13  34  13  35  13
M  END
>  <minimizedAffinity>  (1) 
-4.70679712

>  <minimizedRMSD>  (1) 
2.39509845

$$$$
