
     RDKit          3D

 34 37  0  0  1  0  0  0  0  0999 V2000
   44.2680   34.8940   41.8370 C   0  0  2  0  0  0  0  0  0  0  0  0
   42.7340   34.8160   41.6030 C   0  0  0  0  0  0  0  0  0  0  0  0
   42.7510   35.1570   40.1080 C   0  0  0  0  0  0  0  0  0  0  0  0
   43.8450   34.2600   39.6140 C   0  0  0  0  0  0  0  0  0  0  0  0
   44.6890   33.9130   40.8310 C   0  0  1  0  0  0  0  0  0  0  0  0
   46.0870   33.9240   40.4840 N   0  0  0  0  0  0  0  0  0  0  0  0
   47.1160   34.6870   40.9070 C   0  0  0  0  0  0  0  0  0  0  0  0
   48.2690   34.3430   40.3040 N   0  0  0  0  0  0  0  0  0  0  0  0
   47.9880   33.3260   39.4610 C   0  0  0  0  0  0  0  0  0  0  0  0
   48.8380   32.6330   38.6220 C   0  0  0  0  0  0  0  0  0  0  0  0
   48.3080   31.6530   37.8760 N   0  0  0  0  0  0  0  0  0  0  0  0
   46.9800   31.3760   37.9670 C   0  0  0  0  0  0  0  0  0  0  0  0
   46.1980   32.0830   38.8020 N   0  0  0  0  0  0  0  0  0  0  0  0
   46.6330   33.0720   39.5780 C   0  0  0  0  0  0  0  0  0  0  0  0
   44.3890   35.6160   44.1800 C   0  0  0  0  0  0  0  0  0  0  0  0
   44.6340   34.5860   43.2250 C   0  0  0  0  0  0  0  0  0  0  0  0
   45.2200   33.3560   43.6490 C   0  0  0  0  0  0  0  0  0  0  0  0
   45.5140   33.2390   44.9600 N   0  0  0  0  0  0  0  0  0  0  0  0
   45.2760   34.2250   45.8530 C   0  0  0  0  0  0  0  0  0  0  0  0
   44.7170   35.4090   45.4740 N   0  0  0  0  0  0  0  0  0  0  0  0
   44.7458   35.8780   41.7215 H   0  0  0  0  0  0  0  0  0  0  0  0
   42.3294   33.8124   41.8004 H   0  0  0  0  0  0  0  0  0  0  0  0
   42.1067   35.4525   42.2444 H   0  0  0  0  0  0  0  0  0  0  0  0
   41.7891   34.9197   39.6300 H   0  0  0  0  0  0  0  0  0  0  0  0
   42.9109   36.2235   39.8913 H   0  0  0  0  0  0  0  0  0  0  0  0
   43.4195   33.3471   39.1718 H   0  0  0  0  0  0  0  0  0  0  0  0
   44.4465   34.7517   38.8352 H   0  0  0  0  0  0  0  0  0  0  0  0
   44.5446   32.8979   41.2295 H   0  0  0  0  0  0  0  0  0  0  0  0
   47.0241   35.4907   41.6524 H   0  0  0  0  0  0  0  0  0  0  0  0
   49.9095   32.8758   38.5677 H   0  0  0  0  0  0  0  0  0  0  0  0
   46.5442   30.5717   37.3562 H   0  0  0  0  0  0  0  0  0  0  0  0
   43.9378   36.5689   43.8665 H   0  0  0  0  0  0  0  0  0  0  0  0
   45.4227   32.5406   42.9391 H   0  0  0  0  0  0  0  0  0  0  0  0
   45.5393   34.0686   46.9095 H   0  0  0  0  0  0  0  0  0  0  0  0
  1 16  1  0
  2  1  1  0
  3  2  1  0
  4  3  1  0
  4  5  1  0
  5  1  1  0
  6  5  1  0
  6  7  1  0
  8  7  2  0
  9 14  2  0
  9  8  1  0
 10  9  1  0
 11 12  1  0
 11 10  2  0
 12 13  2  0
 13 14  1  0
 14  6  1  0
 15 20  2  0
 16 17  2  0
 16 15  1  0
 17 18  1  0
 18 19  2  0
 20 19  1  0
  1 21  1  6
  2 22  1  0
  2 23  1  0
  3 24  1  0
  3 25  1  0
  4 26  1  0
  4 27  1  0
  5 28  1  1
  7 29  1  0
 10 30  1  0
 12 31  1  0
 15 32  1  0
 17 33  1  0
 19 34  1  0
M  ISO  8  21  13  22  13  23  13  24  13  25  13  26  13  27  13  28  13
M  ISO  6  29  14  30  14  31  14  32  14  33  14  34  14
M  END
>  <minimizedAffinity>  (1) 
-4.74577904

>  <minimizedRMSD>  (1) 
0.892974198

$$$$
