
     RDKit          3D

 36 38  0  0  1  0  0  0  0  0999 V2000
   43.7210   34.7930   41.3750 C   0  0  2  0  0  0  0  0  0  0  0  0
   42.1970   35.0560   41.4560 C   0  0  0  0  0  0  0  0  0  0  0  0
   41.9300   35.2400   39.9660 C   0  0  0  0  0  0  0  0  0  0  0  0
   42.6600   34.0400   39.3980 C   0  0  0  0  0  0  0  0  0  0  0  0
   43.7600   33.7020   40.3990 C   0  0  1  0  0  0  0  0  0  0  0  0
   44.4170   35.6040   43.5790 C   0  0  0  0  0  0  0  0  0  0  0  0
   44.3130   34.5040   42.6880 C   0  0  0  0  0  0  0  0  0  0  0  0
   44.7940   33.2250   43.0870 C   0  0  0  0  0  0  0  0  0  0  0  0
   45.3380   33.1210   44.3240 N   0  0  0  0  0  0  0  0  0  0  0  0
   45.4290   34.1910   45.1650 C   0  0  0  0  0  0  0  0  0  0  0  0
   44.9740   35.4220   44.8030 N   0  0  0  0  0  0  0  0  0  0  0  0
   47.3980   33.3510   38.1070 C   0  0  0  0  0  0  0  0  0  0  0  0
   46.1740   33.0050   37.5770 C   0  0  0  0  0  0  0  0  0  0  0  0
   45.0440   33.1290   38.3320 C   0  0  0  0  0  0  0  0  0  0  0  0
   45.0390   33.5990   39.6480 C   0  0  0  0  0  0  0  0  0  0  0  0
   46.2840   33.9340   40.1390 C   0  0  0  0  0  0  0  0  0  0  0  0
   47.4320   33.8140   39.3900 C   0  0  0  0  0  0  0  0  0  0  0  0
   48.9350   33.2540   37.2830 S   0  0  0  0  0  0  0  0  0  0  0  0
   48.7860   33.0350   35.8150 O   0  0  0  0  0  0  0  0  0  0  0  0
   49.7330   32.1540   37.9320 O   0  0  0  0  0  0  0  0  0  0  0  0
   44.3366   35.6501   41.0645 H   0  0  0  0  0  0  0  0  0  0  0  0
   41.6486   34.1991   41.8742 H   0  0  0  0  0  0  0  0  0  0  0  0
   41.8858   35.8863   42.1069 H   0  0  0  0  0  0  0  0  0  0  0  0
   40.8541   35.2040   39.7398 H   0  0  0  0  0  0  0  0  0  0  0  0
   42.2588   36.2080   39.5599 H   0  0  0  0  0  0  0  0  0  0  0  0
   41.9700   33.1904   39.2875 H   0  0  0  0  0  0  0  0  0  0  0  0
   43.0749   34.2560   38.4024 H   0  0  0  0  0  0  0  0  0  0  0  0
   43.6401   32.7445   40.9271 H   0  0  0  0  0  0  0  0  0  0  0  0
   44.0489   36.5964   43.2796 H   0  0  0  0  0  0  0  0  0  0  0  0
   44.7268   32.3549   42.4174 H   0  0  0  0  0  0  0  0  0  0  0  0
   45.8806   34.0561   46.1589 H   0  0  0  0  0  0  0  0  0  0  0  0
   46.1078   32.6289   36.5454 H   0  0  0  0  0  0  0  0  0  0  0  0
   44.0832   32.8429   37.8793 H   0  0  0  0  0  0  0  0  0  0  0  0
   46.3619   34.3117   41.1692 H   0  0  0  0  0  0  0  0  0  0  0  0
   48.3973   34.0973   39.8349 H   0  0  0  0  0  0  0  0  0  0  0  0
   49.5906   34.4511   37.4016 H   0  0  0  0  0  0  0  0  0  0  0  0
  1  2  1  0
  1  7  1  0
  3  2  1  0
  4  3  1  0
  4  5  1  0
  5  1  1  0
  6 11  2  0
  7  8  2  0
  7  6  1  0
  8  9  1  0
  9 10  2  0
 11 10  1  0
 12 17  2  0
 13 12  1  0
 13 14  2  0
 14 15  1  0
 15 16  2  0
 15  5  1  0
 17 16  1  0
 18 20  2  0
 18 12  1  0
 19 18  2  0
  1 21  1  6
  2 22  1  0
  2 23  1  0
  3 24  1  0
  3 25  1  0
  4 26  1  0
  4 27  1  0
  5 28  1  1
  6 29  1  0
  8 30  1  0
 10 31  1  0
 13 32  1  0
 14 33  1  0
 16 34  1  0
 17 35  1  0
 18 36  1  0
M  ISO  8  21  13  22  13  23  13  24  13  25  13  26  13  27  13  28  13
M  ISO  8  29  14  30  14  31  14  32  14  33  14  34  14  35  14  36  11
M  END
>  <minimizedAffinity>  (1) 
-4.75016928

>  <minimizedRMSD>  (1) 
0.877400994

$$$$
