
     RDKit          3D

 31 33  0  0  1  0  0  0  0  0999 V2000
   44.0520   34.9380   41.6660 C   0  0  2  0  0  0  0  0  0  0  0  0
   42.5030   34.8620   41.5110 C   0  0  0  0  0  0  0  0  0  0  0  0
   42.4250   35.1700   40.0250 C   0  0  0  0  0  0  0  0  0  0  0  0
   43.5150   34.2940   39.4790 C   0  0  0  0  0  0  0  0  0  0  0  0
   44.4000   33.9340   40.6690 C   0  0  1  0  0  0  0  0  0  0  0  0
   44.3060   35.7570   43.9680 C   0  0  0  0  0  0  0  0  0  0  0  0
   44.4740   34.6870   43.0420 C   0  0  0  0  0  0  0  0  0  0  0  0
   45.0510   33.4570   43.4810 C   0  0  0  0  0  0  0  0  0  0  0  0
   45.4150   33.3730   44.7810 N   0  0  0  0  0  0  0  0  0  0  0  0
   45.2460   34.4080   45.6520 C   0  0  0  0  0  0  0  0  0  0  0  0
   44.6980   35.5900   45.2520 N   0  0  0  0  0  0  0  0  0  0  0  0
   45.7920   33.8710   40.2160 C   0  0  0  0  0  0  0  0  0  0  0  0
   45.9940   33.0850   39.1040 C   0  0  0  0  0  0  0  0  0  0  0  0
   47.2400   32.9000   38.5300 C   0  0  0  0  0  0  0  0  0  0  0  0
   48.3440   33.5030   39.0560 N   0  0  0  0  0  0  0  0  0  0  0  0
   48.1160   34.2760   40.1580 C   0  0  0  0  0  0  0  0  0  0  0  0
   46.9120   34.4440   40.6970 N   0  0  0  0  0  0  0  0  0  0  0  0
   44.5478   35.9054   41.4978 H   0  0  0  0  0  0  0  0  0  0  0  0
   42.1085   33.8636   41.7510 H   0  0  0  0  0  0  0  0  0  0  0  0
   41.9185   35.5189   42.1719 H   0  0  0  0  0  0  0  0  0  0  0  0
   41.4440   34.8968   39.6092 H   0  0  0  0  0  0  0  0  0  0  0  0
   42.5429   36.2362   39.7816 H   0  0  0  0  0  0  0  0  0  0  0  0
   43.0869   33.3847   39.0320 H   0  0  0  0  0  0  0  0  0  0  0  0
   44.0872   34.8059   38.6913 H   0  0  0  0  0  0  0  0  0  0  0  0
   44.2525   32.9433   41.1236 H   0  0  0  0  0  0  0  0  0  0  0  0
   43.8620   36.7092   43.6421 H   0  0  0  0  0  0  0  0  0  0  0  0
   45.1936   32.6126   42.7906 H   0  0  0  0  0  0  0  0  0  0  0  0
   45.5585   34.2866   46.6997 H   0  0  0  0  0  0  0  0  0  0  0  0
   45.1269   32.5817   38.6515 H   0  0  0  0  0  0  0  0  0  0  0  0
   47.3404   32.2603   37.6408 H   0  0  0  0  0  0  0  0  0  0  0  0
   48.9721   34.7860   40.6239 H   0  0  0  0  0  0  0  0  0  0  0  0
  1  7  1  0
  2  1  1  0
  3  2  1  0
  4  3  1  0
  4  5  1  0
  5  1  1  0
  6 11  2  0
  7  8  2  0
  7  6  1  0
  8  9  1  0
  9 10  2  0
 11 10  1  0
 12  5  1  0
 12 17  1  0
 13 12  2  0
 14 15  2  0
 14 13  1  0
 15 16  1  0
 16 17  2  0
  1 18  1  6
  2 19  1  0
  2 20  1  0
  3 21  1  0
  3 22  1  0
  4 23  1  0
  4 24  1  0
  5 25  1  1
  6 26  1  0
  8 27  1  0
 10 28  1  0
 13 29  1  0
 14 30  1  0
 16 31  1  0
M  ISO  8  18  13  19  13  20  13  21  13  22  13  23  13  24  13  25  13
M  ISO  6  26  14  27  14  28  14  29  14  30  14  31  14
M  END
>  <minimizedAffinity>  (1) 
-4.53103352

>  <minimizedRMSD>  (1) 
0.607835412

$$$$
