
     RDKit          3D

 47 50  0  0  0  0  0  0  0  0999 V2000
   47.7020   34.6870   41.4770 C   0  0  0  0  0  0  0  0  0  0  0  0
   47.3780   34.2300   40.0950 C   0  0  0  0  0  0  0  0  0  0  0  0
   48.2710   34.3270   39.0540 C   0  0  0  0  0  0  0  0  0  0  0  0
   48.0510   33.9290   37.7590 C   0  0  0  0  0  0  0  0  0  0  0  0
   46.8120   33.3910   37.5270 N   0  0  0  0  0  0  0  0  0  0  0  0
   45.9250   33.2880   38.5360 C   0  0  0  0  0  0  0  0  0  0  0  0
   46.1520   33.6830   39.8040 N   0  0  0  0  0  0  0  0  0  0  0  0
   44.6180   32.7010   38.2140 C   0  0  0  0  0  0  0  0  0  0  0  0
   43.4470   33.2830   38.6830 C   0  0  0  0  0  0  0  0  0  0  0  0
   42.2320   32.7260   38.3770 C   0  0  0  0  0  0  0  0  0  0  0  0
   42.1550   31.6250   37.6300 N   0  0  0  0  0  0  0  0  0  0  0  0
   43.3030   31.0750   37.1840 C   0  0  0  0  0  0  0  0  0  0  0  0
   44.5390   31.5920   37.4620 N   0  0  0  0  0  0  0  0  0  0  0  0
   47.4400   33.5540   42.4160 C   0  0  0  0  0  0  0  0  0  0  0  0
   44.8700   35.2200   44.6200 C   0  0  0  0  0  0  0  0  0  0  0  0
   45.6680   34.8900   43.5160 C   0  0  0  0  0  0  0  0  0  0  0  0
   46.6070   33.8950   43.5760 C   0  0  0  0  0  0  0  0  0  0  0  0
   46.7300   33.2430   44.7520 N   0  0  0  0  0  0  0  0  0  0  0  0
   45.9470   33.5730   45.8210 C   0  0  0  0  0  0  0  0  0  0  0  0
   45.0470   34.5340   45.7500 N   0  0  0  0  0  0  0  0  0  0  0  0
   46.1120   32.8580   47.0400 N   0  0  0  0  0  0  0  0  0  0  0  0
   47.3580   32.2690   47.4890 C   0  0  0  0  0  0  0  0  0  0  0  0
   47.1090   30.7750   47.5420 C   0  0  0  0  0  0  0  0  0  0  0  0
   46.1630   30.5260   48.6870 C   0  0  0  0  0  0  0  0  0  0  0  0
   45.2520   31.6550   49.0070 C   0  0  0  0  0  0  0  0  0  0  0  0
   45.0220   32.6590   47.9440 C   0  0  0  0  0  0  0  0  0  0  0  0
   47.0685   35.5458   41.7435 H   0  0  0  0  0  0  0  0  0  0  0  0
   48.7560   34.9958   41.5382 H   0  0  0  0  0  0  0  0  0  0  0  0
   49.2544   34.7648   39.2804 H   0  0  0  0  0  0  0  0  0  0  0  0
   48.8096   34.0336   36.9693 H   0  0  0  0  0  0  0  0  0  0  0  0
   43.4946   34.1919   39.3007 H   0  0  0  0  0  0  0  0  0  0  0  0
   41.3098   33.1935   38.7526 H   0  0  0  0  0  0  0  0  0  0  0  0
   43.2426   30.1665   36.5667 H   0  0  0  0  0  0  0  0  0  0  0  0
   46.9341   32.7546   41.8548 H   0  0  0  0  0  0  0  0  0  0  0  0
   48.4188   33.2512   42.8163 H   0  0  0  0  0  0  0  0  0  0  0  0
   44.1194   36.0216   44.5563 H   0  0  0  0  0  0  0  0  0  0  0  0
   45.5364   35.4454   42.5757 H   0  0  0  0  0  0  0  0  0  0  0  0
   48.1678   32.4981   46.7807 H   0  0  0  0  0  0  0  0  0  0  0  0
   47.6647   32.6647   48.4684 H   0  0  0  0  0  0  0  0  0  0  0  0
   46.6581   30.4336   46.5985 H   0  0  0  0  0  0  0  0  0  0  0  0
   48.0510   30.2251   47.6847 H   0  0  0  0  0  0  0  0  0  0  0  0
   45.5460   29.6507   48.4355 H   0  0  0  0  0  0  0  0  0  0  0  0
   46.7914   30.3768   49.5774 H   0  0  0  0  0  0  0  0  0  0  0  0
   44.2749   31.2265   49.2748 H   0  0  0  0  0  0  0  0  0  0  0  0
   45.7557   32.2065   49.8146 H   0  0  0  0  0  0  0  0  0  0  0  0
   44.8034   33.6219   48.4287 H   0  0  0  0  0  0  0  0  0  0  0  0
   44.1918   32.2706   47.3358 H   0  0  0  0  0  0  0  0  0  0  0  0
  1 14  1  0
  2  1  1  0
  3  2  2  0
  4  3  1  0
  5  4  2  0
  5  6  1  0
  6  7  2  0
  7  2  1  0
  8  6  1  0
  8  9  2  0
 10  9  1  0
 11 10  2  0
 12 13  2  0
 12 11  1  0
 13  8  1  0
 14 17  1  0
 15 20  2  0
 16 17  2  0
 16 15  1  0
 17 18  1  0
 18 19  2  0
 19 21  1  0
 20 19  1  0
 21 22  1  0
 21 26  1  0
 22 23  1  0
 23 24  1  0
 24 25  1  0
 26 25  1  0
  1 27  1  0
  1 28  1  0
  3 29  1  0
  4 30  1  0
  9 31  1  0
 10 32  1  0
 12 33  1  0
 14 34  1  0
 14 35  1  0
 15 36  1  0
 16 37  1  0
 22 38  1  0
 22 39  1  0
 23 40  1  0
 23 41  1  0
 24 42  1  0
 24 43  1  0
 25 44  1  0
 25 45  1  0
 26 46  1  0
 26 47  1  0
M  ISO  8  27   8  28   8  29  14  30  14  31  14  32  14  33  14  34   8
M  ISO  8  35   8  36  14  37  14  38  13  39  13  40  13  41  13  42  13
M  ISO  5  43  13  44  13  45  13  46  13  47  13
M  END
>  <minimizedAffinity>  (1) 
-6.17283392

>  <minimizedRMSD>  (1) 
0.949496806

$$$$
