
     RDKit          3D

 30 32  0  0  1  0  0  0  0  0999 V2000
   44.1130   34.9050   41.7180 C   0  0  2  0  0  0  0  0  0  0  0  0
   42.5780   34.7830   41.5180 C   0  0  0  0  0  0  0  0  0  0  0  0
   42.5310   35.0960   40.0290 C   0  0  0  0  0  0  0  0  0  0  0  0
   43.6430   34.2340   39.5190 C   0  0  0  0  0  0  0  0  0  0  0  0
   44.5400   33.9280   40.7200 C   0  0  1  0  0  0  0  0  0  0  0  0
   44.3070   35.7280   44.0190 C   0  0  0  0  0  0  0  0  0  0  0  0
   44.5090   34.6570   43.1020 C   0  0  0  0  0  0  0  0  0  0  0  0
   45.0920   33.4420   43.5560 C   0  0  0  0  0  0  0  0  0  0  0  0
   45.4330   33.3640   44.8620 N   0  0  0  0  0  0  0  0  0  0  0  0
   45.2320   34.4010   45.7260 C   0  0  0  0  0  0  0  0  0  0  0  0
   44.6750   35.5740   45.3160 N   0  0  0  0  0  0  0  0  0  0  0  0
   45.8790   33.9240   40.3010 C   0  0  0  0  0  0  0  0  0  0  0  0
   47.1920   34.5510   40.8270 C   0  0  0  0  0  0  0  0  0  0  0  0
   48.2550   34.2460   40.0320 C   0  0  0  0  0  0  0  0  0  0  0  0
   48.1850   33.4550   38.8710 C   0  0  0  0  0  0  0  0  0  0  0  0
   46.4070   33.0090   38.7620 S   0  0  0  0  0  0  0  0  0  0  0  0
   44.5714   35.8942   41.5721 H   0  0  0  0  0  0  0  0  0  0  0  0
   42.2079   33.7718   41.7428 H   0  0  0  0  0  0  0  0  0  0  0  0
   41.9556   35.4193   42.1643 H   0  0  0  0  0  0  0  0  0  0  0  0
   41.5646   34.8117   39.5870 H   0  0  0  0  0  0  0  0  0  0  0  0
   42.6384   36.1637   39.7872 H   0  0  0  0  0  0  0  0  0  0  0  0
   43.2389   33.3012   39.0989 H   0  0  0  0  0  0  0  0  0  0  0  0
   44.2054   34.7405   38.7208 H   0  0  0  0  0  0  0  0  0  0  0  0
   44.4530   32.9326   41.1800 H   0  0  0  0  0  0  0  0  0  0  0  0
   43.8565   36.6720   43.6787 H   0  0  0  0  0  0  0  0  0  0  0  0
   45.2592   32.5979   42.8708 H   0  0  0  0  0  0  0  0  0  0  0  0
   45.5272   34.2865   46.7795 H   0  0  0  0  0  0  0  0  0  0  0  0
   47.2590   35.1691   41.7344 H   0  0  0  0  0  0  0  0  0  0  0  0
   49.2385   34.6469   40.3183 H   0  0  0  0  0  0  0  0  0  0  0  0
   49.0011   33.1711   38.1903 H   0  0  0  0  0  0  0  0  0  0  0  0
  1  7  1  0
  2  1  1  0
  3  2  1  0
  4  3  1  0
  4  5  1  0
  5  1  1  0
  6 11  2  0
  7  8  2  0
  7  6  1  0
  8  9  1  0
  9 10  2  0
 11 10  1  0
 12  5  1  0
 12 13  2  0
 14 13  1  0
 15 14  2  0
 16 15  1  0
 16 12  1  0
  1 17  1  6
  2 18  1  0
  2 19  1  0
  3 20  1  0
  3 21  1  0
  4 22  1  0
  4 23  1  0
  5 24  1  1
  6 25  1  0
  8 26  1  0
 10 27  1  0
 13 28  1  0
 14 29  1  0
 15 30  1  0
M  ISO  8  17  13  18  13  19  13  20  13  21  13  22  13  23  13  24  13
M  ISO  6  25  14  26  14  27  14  28  14  29  14  30  14
M  END
>  <minimizedAffinity>  (1) 
-4.51702309

>  <minimizedRMSD>  (1) 
0.613622367

$$$$
