
     RDKit          3D

 24 25  0  0  1  0  0  0  0  0999 V2000
   44.1540   34.6470   41.4240 C   0  0  2  0  0  0  0  0  0  0  0  0
   42.8200   35.3740   41.2170 C   0  0  0  0  0  0  0  0  0  0  0  0
   42.7200   35.2670   39.7010 C   0  0  0  0  0  0  0  0  0  0  0  0
   43.2180   33.8710   39.4250 C   0  0  0  0  0  0  0  0  0  0  0  0
   43.8770   33.3970   40.7030 C   0  0  2  0  0  0  0  0  0  0  0  0
   44.1900   35.5780   43.6800 C   0  0  0  0  0  0  0  0  0  0  0  0
   44.5450   34.5320   42.8120 C   0  0  0  0  0  0  0  0  0  0  0  0
   45.2770   33.4460   43.3200 C   0  0  0  0  0  0  0  0  0  0  0  0
   45.6190   33.4490   44.6410 N   0  0  0  0  0  0  0  0  0  0  0  0
   45.2620   34.4780   45.4660 C   0  0  0  0  0  0  0  0  0  0  0  0
   44.5500   35.5440   44.9960 N   0  0  0  0  0  0  0  0  0  0  0  0
   42.5680   32.4360   41.5550 S   0  0  0  0  0  0  0  0  0  0  0  0
   45.0480   35.1642   41.0454 H   0  0  0  0  0  0  0  0  0  0  0  0
   41.9884   34.8608   41.7220 H   0  0  0  0  0  0  0  0  0  0  0  0
   42.7711   36.3954   41.6224 H   0  0  0  0  0  0  0  0  0  0  0  0
   41.6801   35.3895   39.3639 H   0  0  0  0  0  0  0  0  0  0  0  0
   43.2931   36.0435   39.1733 H   0  0  0  0  0  0  0  0  0  0  0  0
   42.3778   33.2115   39.1619 H   0  0  0  0  0  0  0  0  0  0  0  0
   43.9235   33.8567   38.5812 H   0  0  0  0  0  0  0  0  0  0  0  0
   44.7883   32.7901   40.5975 H   0  0  0  0  0  0  0  0  0  0  0  0
   43.6158   36.4335   43.2949 H   0  0  0  0  0  0  0  0  0  0  0  0
   45.5685   32.6105   42.6665 H   0  0  0  0  0  0  0  0  0  0  0  0
   45.5530   34.4471   46.5264 H   0  0  0  0  0  0  0  0  0  0  0  0
   42.7258   32.5518   42.9109 H   0  0  0  0  0  0  0  0  0  0  0  0
  1  7  1  0
  2  1  1  0
  3  2  1  0
  4  3  1  0
  4  5  1  0
  5  1  1  0
  5 12  1  0
  6 11  2  0
  7  8  2  0
  7  6  1  0
  8  9  1  0
  9 10  2  0
 11 10  1  0
  1 13  1  6
  2 14  1  0
  2 15  1  0
  3 16  1  0
  3 17  1  0
  4 18  1  0
  4 19  1  0
  5 20  1  6
  6 21  1  0
  8 22  1  0
 10 23  1  0
 12 24  1  0
M  ISO  8  13  13  14  13  15  13  16  13  17  13  18  13  19  13  20  13
M  ISO  4  21  14  22  14  23  14  24  11
M  END
>  <minimizedAffinity>  (1) 
-3.51702142

>  <minimizedRMSD>  (1) 
0.339743018

$$$$
