
     RDKit          3D

 25 26  0  0  1  0  0  0  0  0999 V2000
   44.2570   34.8510   41.8030 C   0  0  2  0  0  0  0  0  0  0  0  0
   42.7220   34.9230   41.5810 C   0  0  0  0  0  0  0  0  0  0  0  0
   42.7390   35.2070   40.0910 C   0  0  0  0  0  0  0  0  0  0  0  0
   43.7400   34.1620   39.6220 C   0  0  0  0  0  0  0  0  0  0  0  0
   44.5820   33.8130   40.8240 C   0  0  1  0  0  0  0  0  0  0  0  0
   44.3420   35.6310   44.1200 C   0  0  0  0  0  0  0  0  0  0  0  0
   44.6100   34.6010   43.2000 C   0  0  0  0  0  0  0  0  0  0  0  0
   45.2250   33.3920   43.6420 C   0  0  0  0  0  0  0  0  0  0  0  0
   45.5270   33.2920   44.9630 N   0  0  0  0  0  0  0  0  0  0  0  0
   45.2560   34.3060   45.8350 C   0  0  0  0  0  0  0  0  0  0  0  0
   44.6710   35.4650   45.4290 N   0  0  0  0  0  0  0  0  0  0  0  0
   46.0020   33.7610   40.3990 C   0  0  0  0  0  0  0  0  0  0  0  0
   46.9440   34.4880   40.6600 O   0  0  0  0  0  0  0  0  0  0  0  0
   44.8371   35.7721   41.6447 H   0  0  0  0  0  0  0  0  0  0  0  0
   42.2213   33.9728   41.8186 H   0  0  0  0  0  0  0  0  0  0  0  0
   42.1768   35.6466   42.2048 H   0  0  0  0  0  0  0  0  0  0  0  0
   41.7489   35.0538   39.6369 H   0  0  0  0  0  0  0  0  0  0  0  0
   42.9977   36.2423   39.8243 H   0  0  0  0  0  0  0  0  0  0  0  0
   43.2139   33.2691   39.2532 H   0  0  0  0  0  0  0  0  0  0  0  0
   44.3595   34.5436   38.7970 H   0  0  0  0  0  0  0  0  0  0  0  0
   44.3893   32.8282   41.2746 H   0  0  0  0  0  0  0  0  0  0  0  0
   43.8691   36.5651   43.7825 H   0  0  0  0  0  0  0  0  0  0  0  0
   45.4459   32.5734   42.9413 H   0  0  0  0  0  0  0  0  0  0  0  0
   45.5180   34.1827   46.8962 H   0  0  0  0  0  0  0  0  0  0  0  0
   46.2469   32.9206   39.7329 H   0  0  0  0  0  0  0  0  0  0  0  0
  1  7  1  0
  2  1  1  0
  3  2  1  0
  4  3  1  0
  4  5  1  0
  5  1  1  0
  6 11  2  0
  7  8  2  0
  7  6  1  0
  8  9  1  0
  9 10  2  0
 11 10  1  0
 12 13  2  0
 12  5  1  0
  1 14  1  6
  2 15  1  0
  2 16  1  0
  3 17  1  0
  3 18  1  0
  4 19  1  0
  4 20  1  0
  5 21  1  1
  6 22  1  0
  8 23  1  0
 10 24  1  0
 12 25  1  0
M  ISO  8  14  13  15  13  16  13  17  13  18  13  19  13  20  13  21  13
M  ISO  4  22  14  23  14  24  14  25   6
M  END
>  <minimizedAffinity>  (1) 
-3.77734303

>  <minimizedRMSD>  (1) 
0.417169482

$$$$
