
     RDKit          3D

 26 27  0  0  1  0  0  0  0  0999 V2000
   44.4250   34.7920   41.8640 C   0  0  2  0  0  0  0  0  0  0  0  0
   42.9050   34.9840   41.6080 C   0  0  0  0  0  0  0  0  0  0  0  0
   42.9920   35.2040   40.1000 C   0  0  0  0  0  0  0  0  0  0  0  0
   43.8130   34.0000   39.7320 C   0  0  0  0  0  0  0  0  0  0  0  0
   44.7400   33.7310   40.9150 C   0  0  1  0  0  0  0  0  0  0  0  0
   44.3810   35.5760   44.1880 C   0  0  0  0  0  0  0  0  0  0  0  0
   44.7260   34.5390   43.2690 C   0  0  0  0  0  0  0  0  0  0  0  0
   45.3520   33.3540   43.7600 C   0  0  0  0  0  0  0  0  0  0  0  0
   45.5910   33.2670   45.0950 N   0  0  0  0  0  0  0  0  0  0  0  0
   45.2440   34.2820   45.9390 C   0  0  0  0  0  0  0  0  0  0  0  0
   44.6550   35.4110   45.5100 N   0  0  0  0  0  0  0  0  0  0  0  0
   46.1400   33.7270   40.3460 C   0  0  0  0  0  0  0  0  0  0  0  0
   46.8830   34.8130   40.7750 F   0  0  0  0  0  0  0  0  0  0  0  0
   46.8560   32.6160   40.8170 F   0  0  0  0  0  0  0  0  0  0  0  0
   46.1560   33.5750   38.9740 F   0  0  0  0  0  0  0  0  0  0  0  0
   45.0575   35.6762   41.6965 H   0  0  0  0  0  0  0  0  0  0  0  0
   42.3189   34.0905   41.8691 H   0  0  0  0  0  0  0  0  0  0  0  0
   42.4049   35.7716   42.1907 H   0  0  0  0  0  0  0  0  0  0  0  0
   42.0008   35.1883   39.6233 H   0  0  0  0  0  0  0  0  0  0  0  0
   43.4080   36.1731   39.7872 H   0  0  0  0  0  0  0  0  0  0  0  0
   43.1591   33.1331   39.5565 H   0  0  0  0  0  0  0  0  0  0  0  0
   44.3855   34.1752   38.8092 H   0  0  0  0  0  0  0  0  0  0  0  0
   44.6304   32.7741   41.4463 H   0  0  0  0  0  0  0  0  0  0  0  0
   43.8990   36.4980   43.8308 H   0  0  0  0  0  0  0  0  0  0  0  0
   45.6322   32.5367   43.0792 H   0  0  0  0  0  0  0  0  0  0  0  0
   45.4549   34.1714   47.0129 H   0  0  0  0  0  0  0  0  0  0  0  0
  1  7  1  0
  2  1  1  0
  3  2  1  0
  4  3  1  0
  4  5  1  0
  5  1  1  0
  6 11  2  0
  7  8  2  0
  7  6  1  0
  8  9  1  0
  9 10  2  0
 11 10  1  0
 12 13  1  0
 12 14  1  0
 12  5  1  0
 15 12  1  0
  1 16  1  6
  2 17  1  0
  2 18  1  0
  3 19  1  0
  3 20  1  0
  4 21  1  0
  4 22  1  0
  5 23  1  1
  6 24  1  0
  8 25  1  0
 10 26  1  0
M  ISO  8  16  13  17  13  18  13  19  13  20  13  21  13  22  13  23  13
M  ISO  3  24  14  25  14  26  14
M  END
>  <minimizedAffinity>  (1) 
-4.1913414

>  <minimizedRMSD>  (1) 
0.702769458

$$$$
