
     RDKit          3D

 41 44  0  0  0  0  0  0  0  0999 V2000
   47.6790   34.8060   41.5490 C   0  0  0  0  0  0  0  0  0  0  0  0
   47.2660   34.2500   40.2310 C   0  0  0  0  0  0  0  0  0  0  0  0
   48.1570   34.0820   39.1930 C   0  0  0  0  0  0  0  0  0  0  0  0
   47.8470   33.5750   37.9480 C   0  0  0  0  0  0  0  0  0  0  0  0
   46.5390   33.2190   37.7670 N   0  0  0  0  0  0  0  0  0  0  0  0
   45.6540   33.3790   38.7810 C   0  0  0  0  0  0  0  0  0  0  0  0
   45.9660   33.8800   40.0020 N   0  0  0  0  0  0  0  0  0  0  0  0
   44.2800   32.9820   38.5200 C   0  0  0  0  0  0  0  0  0  0  0  0
   43.2170   33.7700   38.9650 C   0  0  0  0  0  0  0  0  0  0  0  0
   41.9210   33.3930   38.7190 C   0  0  0  0  0  0  0  0  0  0  0  0
   41.6610   32.2840   38.0570 N   0  0  0  0  0  0  0  0  0  0  0  0
   42.7020   31.5200   37.6240 C   0  0  0  0  0  0  0  0  0  0  0  0
   44.0120   31.8510   37.8460 N   0  0  0  0  0  0  0  0  0  0  0  0
   47.6130   33.7060   42.5590 C   0  0  0  0  0  0  0  0  0  0  0  0
   44.8900   35.1730   44.7170 C   0  0  0  0  0  0  0  0  0  0  0  0
   45.7470   34.9300   43.6390 C   0  0  0  0  0  0  0  0  0  0  0  0
   46.7120   33.9620   43.6920 C   0  0  0  0  0  0  0  0  0  0  0  0
   46.8060   33.2450   44.8320 N   0  0  0  0  0  0  0  0  0  0  0  0
   45.9650   33.4880   45.8820 C   0  0  0  0  0  0  0  0  0  0  0  0
   45.0390   34.4230   45.8200 N   0  0  0  0  0  0  0  0  0  0  0  0
   46.1250   32.6730   47.0850 C   0  0  0  0  0  0  0  0  0  0  0  0
   45.0490   32.3550   47.8930 C   0  0  0  0  0  0  0  0  0  0  0  0
   45.2590   31.5840   49.0140 C   0  0  0  0  0  0  0  0  0  0  0  0
   46.4830   31.1160   49.3670 C   0  0  0  0  0  0  0  0  0  0  0  0
   47.5330   31.4530   48.5380 C   0  0  0  0  0  0  0  0  0  0  0  0
   47.3560   32.2150   47.4210 N   0  0  0  0  0  0  0  0  0  0  0  0
   46.9989   35.6202   41.8397 H   0  0  0  0  0  0  0  0  0  0  0  0
   48.7014   35.2075   41.4895 H   0  0  0  0  0  0  0  0  0  0  0  0
   49.2016   34.3765   39.3721 H   0  0  0  0  0  0  0  0  0  0  0  0
   48.6008   33.4646   37.1546 H   0  0  0  0  0  0  0  0  0  0  0  0
   43.4199   34.6997   39.5168 H   0  0  0  0  0  0  0  0  0  0  0  0
   41.0925   34.0216   39.0773 H   0  0  0  0  0  0  0  0  0  0  0  0
   42.4804   30.5953   37.0710 H   0  0  0  0  0  0  0  0  0  0  0  0
   47.2706   32.7934   42.0491 H   0  0  0  0  0  0  0  0  0  0  0  0
   48.6240   33.6136   42.9824 H   0  0  0  0  0  0  0  0  0  0  0  0
   44.1178   35.9545   44.6626 H   0  0  0  0  0  0  0  0  0  0  0  0
   45.6424   35.5328   42.7249 H   0  0  0  0  0  0  0  0  0  0  0  0
   44.0393   32.7131   47.6436 H   0  0  0  0  0  0  0  0  0  0  0  0
   44.3973   31.3365   49.6513 H   0  0  0  0  0  0  0  0  0  0  0  0
   46.6301   30.5004   50.2667 H   0  0  0  0  0  0  0  0  0  0  0  0
   48.5437   31.0962   48.7855 H   0  0  0  0  0  0  0  0  0  0  0  0
  1 14  1  0
  2  1  1  0
  3  2  2  0
  4  3  1  0
  5  4  2  0
  5  6  1  0
  6  7  2  0
  7  2  1  0
  8  6  1  0
  8  9  2  0
 10  9  1  0
 11 10  2  0
 12 13  2  0
 12 11  1  0
 13  8  1  0
 14 17  1  0
 15 20  2  0
 16 17  2  0
 16 15  1  0
 17 18  1  0
 18 19  2  0
 19 21  1  0
 20 19  1  0
 21 26  1  0
 21 22  2  0
 22 23  1  0
 23 24  2  0
 25 24  1  0
 26 25  2  0
  1 27  1  0
  1 28  1  0
  3 29  1  0
  4 30  1  0
  9 31  1  0
 10 32  1  0
 12 33  1  0
 14 34  1  0
 14 35  1  0
 15 36  1  0
 16 37  1  0
 22 38  1  0
 23 39  1  0
 24 40  1  0
 25 41  1  0
M  ISO  8  27   8  28   8  29  14  30  14  31  14  32  14  33  14  34   8
M  ISO  7  35   8  36  14  37  14  38  14  39  14  40  14  41  14
M  END
>  <minimizedAffinity>  (1) 
-6.08919382

>  <minimizedRMSD>  (1) 
1.168046

$$$$
