
     RDKit          3D

 39 42  0  0  0  0  0  0  0  0999 V2000
   47.6540   34.7300   41.5390 C   0  0  0  0  0  0  0  0  0  0  0  0
   47.2910   34.2350   40.1820 C   0  0  0  0  0  0  0  0  0  0  0  0
   48.1900   34.2010   39.1380 C   0  0  0  0  0  0  0  0  0  0  0  0
   47.9410   33.7580   37.8660 C   0  0  0  0  0  0  0  0  0  0  0  0
   46.6550   33.3140   37.6510 N   0  0  0  0  0  0  0  0  0  0  0  0
   45.7680   33.3430   38.6630 C   0  0  0  0  0  0  0  0  0  0  0  0
   46.0260   33.7840   39.9200 N   0  0  0  0  0  0  0  0  0  0  0  0
   44.4220   32.8540   38.3630 C   0  0  0  0  0  0  0  0  0  0  0  0
   43.2980   33.5700   38.7870 C   0  0  0  0  0  0  0  0  0  0  0  0
   42.0370   33.1060   38.5050 C   0  0  0  0  0  0  0  0  0  0  0  0
   41.8620   31.9790   37.8290 N   0  0  0  0  0  0  0  0  0  0  0  0
   42.9650   31.2980   37.4250 C   0  0  0  0  0  0  0  0  0  0  0  0
   44.2440   31.7140   37.6790 N   0  0  0  0  0  0  0  0  0  0  0  0
   47.3750   33.6420   42.5240 C   0  0  0  0  0  0  0  0  0  0  0  0
   44.7710   35.4140   44.6000 C   0  0  0  0  0  0  0  0  0  0  0  0
   45.6010   35.0400   43.5310 C   0  0  0  0  0  0  0  0  0  0  0  0
   46.5090   34.0220   43.6440 C   0  0  0  0  0  0  0  0  0  0  0  0
   46.5810   33.3780   44.8290 N   0  0  0  0  0  0  0  0  0  0  0  0
   45.7560   33.7590   45.8670 C   0  0  0  0  0  0  0  0  0  0  0  0
   44.8870   34.7420   45.7480 N   0  0  0  0  0  0  0  0  0  0  0  0
   45.9920   32.9500   47.0350 N   0  0  0  0  0  0  0  0  0  0  0  0
   45.0370   32.6030   47.9090 N   0  0  0  0  0  0  0  0  0  0  0  0
   45.5940   31.8510   48.8750 C   0  0  0  0  0  0  0  0  0  0  0  0
   46.9550   31.7290   48.5820 C   0  0  0  0  0  0  0  0  0  0  0  0
   47.1830   32.4410   47.4020 C   0  0  0  0  0  0  0  0  0  0  0  0
   47.0525   35.6176   41.7846 H   0  0  0  0  0  0  0  0  0  0  0  0
   48.7183   35.0063   41.5700 H   0  0  0  0  0  0  0  0  0  0  0  0
   49.2068   34.5652   39.3466 H   0  0  0  0  0  0  0  0  0  0  0  0
   48.7082   33.7569   37.0777 H   0  0  0  0  0  0  0  0  0  0  0  0
   43.4246   34.5076   39.3481 H   0  0  0  0  0  0  0  0  0  0  0  0
   41.1602   33.6769   38.8445 H   0  0  0  0  0  0  0  0  0  0  0  0
   42.8232   30.3625   36.8639 H   0  0  0  0  0  0  0  0  0  0  0  0
   46.8925   32.8121   41.9870 H   0  0  0  0  0  0  0  0  0  0  0  0
   48.3459   33.3735   42.9659 H   0  0  0  0  0  0  0  0  0  0  0  0
   44.0472   36.2356   44.4949 H   0  0  0  0  0  0  0  0  0  0  0  0
   45.5193   35.5801   42.5762 H   0  0  0  0  0  0  0  0  0  0  0  0
   45.0731   31.4119   49.7386 H   0  0  0  0  0  0  0  0  0  0  0  0
   47.7041   31.1773   49.1689 H   0  0  0  0  0  0  0  0  0  0  0  0
   48.1427   32.5615   46.8781 H   0  0  0  0  0  0  0  0  0  0  0  0
  1 14  1  0
  2  1  1  0
  3  2  2  0
  4  3  1  0
  5  4  2  0
  5  6  1  0
  6  7  2  0
  7  2  1  0
  8  6  1  0
  8  9  2  0
 10  9  1  0
 11 10  2  0
 12 13  2  0
 12 11  1  0
 13  8  1  0
 14 17  1  0
 15 20  2  0
 16 17  2  0
 16 15  1  0
 17 18  1  0
 18 19  2  0
 19 21  1  0
 20 19  1  0
 21 25  1  0
 21 22  1  0
 22 23  2  0
 24 23  1  0
 25 24  2  0
  1 26  1  0
  1 27  1  0
  3 28  1  0
  4 29  1  0
  9 30  1  0
 10 31  1  0
 12 32  1  0
 14 33  1  0
 14 34  1  0
 15 35  1  0
 16 36  1  0
 23 37  1  0
 24 38  1  0
 25 39  1  0
M  ISO  8  26   8  27   8  28  14  29  14  30  14  31  14  32  14  33   8
M  ISO  6  34   8  35  14  36  14  37  14  38  14  39  14
M  END
>  <minimizedAffinity>  (1) 
-6.07591152

>  <minimizedRMSD>  (1) 
0.63771987

$$$$
