
     RDKit          3D

 49 53  0  0  1  0  0  0  0  0999 V2000
   43.8670   34.4380   40.5310 C   0  0  2  0  0  0  0  0  0  0  0  0
   42.3190   34.5830   40.5060 C   0  0  0  0  0  0  0  0  0  0  0  0
   42.1900   34.9980   39.0320 C   0  0  0  0  0  0  0  0  0  0  0  0
   43.1160   34.0540   38.3630 C   0  0  0  0  0  0  0  0  0  0  0  0
   44.0380   33.4860   39.4510 C   0  0  1  0  0  0  0  0  0  0  0  0
   45.3570   33.3020   38.9130 N   0  0  0  0  0  0  0  0  0  0  0  0
   46.4960   33.3100   39.6450 C   0  0  0  0  0  0  0  0  0  0  0  0
   47.5600   33.1190   38.8640 N   0  0  0  0  0  0  0  0  0  0  0  0
   47.0780   32.9890   37.6130 C   0  0  0  0  0  0  0  0  0  0  0  0
   47.7750   32.7800   36.4450 C   0  0  0  0  0  0  0  0  0  0  0  0
   49.0380   32.6780   36.4370 O   0  0  0  0  0  0  0  0  0  0  0  0
   47.0600   32.6870   35.3100 N   0  0  0  0  0  0  0  0  0  0  0  0
   45.6950   32.7960   35.3170 C   0  0  0  0  0  0  0  0  0  0  0  0
   45.0570   32.6890   34.0410 N   0  0  0  0  0  0  0  0  0  0  0  0
   45.0400   33.0020   36.4860 N   0  0  0  0  0  0  0  0  0  0  0  0
   45.7010   33.1010   37.6360 C   0  0  0  0  0  0  0  0  0  0  0  0
   45.0500   35.0690   42.5980 C   0  0  0  0  0  0  0  0  0  0  0  0
   44.3790   34.0670   41.8550 C   0  0  0  0  0  0  0  0  0  0  0  0
   44.2410   32.7700   42.3840 C   0  0  0  0  0  0  0  0  0  0  0  0
   44.7700   32.5250   43.6170 N   0  0  0  0  0  0  0  0  0  0  0  0
   45.4110   33.5090   44.3100 C   0  0  0  0  0  0  0  0  0  0  0  0
   45.5510   34.7610   43.8170 N   0  0  0  0  0  0  0  0  0  0  0  0
   45.9280   33.1520   45.5860 N   0  0  0  0  0  0  0  0  0  0  0  0
   45.3320   33.5410   46.8500 C   0  0  0  0  0  0  0  0  0  0  0  0
   45.5840   32.4030   47.8000 C   0  0  0  0  0  0  0  0  0  0  0  0
   46.8790   31.8390   47.3070 C   0  0  0  0  0  0  0  0  0  0  0  0
   47.0950   32.3680   45.9340 C   0  0  0  0  0  0  0  0  0  0  0  0
   44.4587   35.3517   40.3727 H   0  0  0  0  0  0  0  0  0  0  0  0
   41.8046   33.6351   40.7223 H   0  0  0  0  0  0  0  0  0  0  0  0
   41.8776   35.2642   41.2484 H   0  0  0  0  0  0  0  0  0  0  0  0
   41.1592   34.8707   38.6698 H   0  0  0  0  0  0  0  0  0  0  0  0
   42.4263   36.0563   38.8473 H   0  0  0  0  0  0  0  0  0  0  0  0
   42.5483   33.2413   37.8863 H   0  0  0  0  0  0  0  0  0  0  0  0
   43.6980   34.5622   37.5801 H   0  0  0  0  0  0  0  0  0  0  0  0
   43.8140   32.4782   39.8306 H   0  0  0  0  0  0  0  0  0  0  0  0
   46.5380   33.4543   40.7347 H   0  0  0  0  0  0  0  0  0  0  0  0
   47.5490   32.5306   34.4171 H   0  0  0  0  0  0  0  0  0  0  0  0
   44.0320   32.7614   33.9700 H   0  0  0  0  0  0  0  0  0  0  0  0
   45.6227   32.5395   33.1933 H   0  0  0  0  0  0  0  0  0  0  0  0
   45.1624   36.0842   42.1896 H   0  0  0  0  0  0  0  0  0  0  0  0
   43.7232   31.9794   41.8211 H   0  0  0  0  0  0  0  0  0  0  0  0
   45.8013   34.4623   47.2255 H   0  0  0  0  0  0  0  0  0  0  0  0
   44.2560   33.7417   46.7411 H   0  0  0  0  0  0  0  0  0  0  0  0
   45.6777   32.7642   48.8348 H   0  0  0  0  0  0  0  0  0  0  0  0
   44.7683   31.6654   47.8215 H   0  0  0  0  0  0  0  0  0  0  0  0
   47.7020   32.1533   47.9657 H   0  0  0  0  0  0  0  0  0  0  0  0
   46.8490   30.7394   47.3015 H   0  0  0  0  0  0  0  0  0  0  0  0
   47.2148   31.5359   45.2245 H   0  0  0  0  0  0  0  0  0  0  0  0
   48.0049   32.9848   45.8930 H   0  0  0  0  0  0  0  0  0  0  0  0
  1 18  1  0
  2  1  1  0
  3  2  1  0
  4  3  1  0
  4  5  1  0
  5  1  1  0
  6  5  1  0
  6  7  1  0
  8  7  2  0
  9 16  2  0
  9  8  1  0
 10  9  1  0
 11 10  2  0
 12 13  1  0
 12 10  1  0
 13 15  2  0
 14 13  1  0
 15 16  1  0
 16  6  1  0
 17 22  2  0
 18 19  2  0
 18 17  1  0
 19 20  1  0
 20 21  2  0
 21 23  1  0
 22 21  1  0
 23 27  1  0
 23 24  1  0
 24 25  1  0
 26 25  1  0
 27 26  1  0
  1 28  1  6
  2 29  1  0
  2 30  1  0
  3 31  1  0
  3 32  1  0
  4 33  1  0
  4 34  1  0
  5 35  1  1
  7 36  1  0
 12 37  1  0
 14 38  1  0
 14 39  1  0
 17 40  1  0
 19 41  1  0
 24 42  1  0
 24 43  1  0
 25 44  1  0
 25 45  1  0
 26 46  1  0
 26 47  1  0
 27 48  1  0
 27 49  1  0
M  ISO  8  28  13  29  13  30  13  31  13  32  13  33  13  34  13  35  13
M  ISO  8  36  14  37   9  40  14  41  14  42  13  43  13  44  13  45  13
M  ISO  4  46  13  47  13  48  13  49  13
M  END
>  <minimizedAffinity>  (1) 
-6.8066802

>  <minimizedRMSD>  (1) 
0.337945521

$$$$
