
     RDKit          3D

 51 55  0  0  1  0  0  0  0  0999 V2000
   43.9790   34.1600   40.7400 C   0  0  2  0  0  0  0  0  0  0  0  0
   42.4260   34.3240   40.7670 C   0  0  0  0  0  0  0  0  0  0  0  0
   42.2690   34.9500   39.3710 C   0  0  0  0  0  0  0  0  0  0  0  0
   43.1770   34.1210   38.5540 C   0  0  0  0  0  0  0  0  0  0  0  0
   44.1060   33.3750   39.5270 C   0  0  1  0  0  0  0  0  0  0  0  0
   45.4210   33.2670   38.9440 N   0  0  0  0  0  0  0  0  0  0  0  0
   46.5850   33.3490   39.6320 C   0  0  0  0  0  0  0  0  0  0  0  0
   47.6250   33.2170   38.8150 N   0  0  0  0  0  0  0  0  0  0  0  0
   47.1080   33.0490   37.5820 C   0  0  0  0  0  0  0  0  0  0  0  0
   47.7710   32.8740   36.3900 C   0  0  0  0  0  0  0  0  0  0  0  0
   49.0380   32.8480   36.3380 O   0  0  0  0  0  0  0  0  0  0  0  0
   47.0180   32.7310   35.2830 N   0  0  0  0  0  0  0  0  0  0  0  0
   45.6570   32.7570   35.3340 C   0  0  0  0  0  0  0  0  0  0  0  0
   44.9840   32.6040   34.0900 N   0  0  0  0  0  0  0  0  0  0  0  0
   45.0340   32.9320   36.5330 N   0  0  0  0  0  0  0  0  0  0  0  0
   45.7350   33.0810   37.6630 C   0  0  0  0  0  0  0  0  0  0  0  0
   45.1460   34.4640   42.8820 C   0  0  0  0  0  0  0  0  0  0  0  0
   44.5060   33.5990   41.9790 C   0  0  0  0  0  0  0  0  0  0  0  0
   44.4040   32.2260   42.2920 C   0  0  0  0  0  0  0  0  0  0  0  0
   44.9390   31.8040   43.4660 N   0  0  0  0  0  0  0  0  0  0  0  0
   45.5510   32.6610   44.3190 C   0  0  0  0  0  0  0  0  0  0  0  0
   45.6560   33.9790   44.0330 N   0  0  0  0  0  0  0  0  0  0  0  0
   46.0870   32.1420   45.5320 N   0  0  0  0  0  0  0  0  0  0  0  0
   46.7460   33.0450   46.4560 C   0  0  0  0  0  0  0  0  0  0  0  0
   47.1780   32.2330   47.6490 C   0  0  0  0  0  0  0  0  0  0  0  0
   45.9890   31.5870   48.1720 N   0  0  0  0  0  0  0  0  0  0  0  0
   45.4560   30.6100   47.2640 C   0  0  0  0  0  0  0  0  0  0  0  0
   45.9820   30.7330   45.8520 C   0  0  0  0  0  0  0  0  0  0  0  0
   44.5875   35.0757   40.7061 H   0  0  0  0  0  0  0  0  0  0  0  0
   41.9041   33.3597   40.8551 H   0  0  0  0  0  0  0  0  0  0  0  0
   42.0097   34.8966   41.6089 H   0  0  0  0  0  0  0  0  0  0  0  0
   41.2311   34.8748   39.0145 H   0  0  0  0  0  0  0  0  0  0  0  0
   42.5035   36.0243   39.3397 H   0  0  0  0  0  0  0  0  0  0  0  0
   42.5970   33.4005   37.9586 H   0  0  0  0  0  0  0  0  0  0  0  0
   43.7577   34.7449   37.8586 H   0  0  0  0  0  0  0  0  0  0  0  0
   43.8631   32.3252   39.7481 H   0  0  0  0  0  0  0  0  0  0  0  0
   46.6593   33.5037   40.7185 H   0  0  0  0  0  0  0  0  0  0  0  0
   47.4833   32.5985   34.3737 H   0  0  0  0  0  0  0  0  0  0  0  0
   43.9546   32.6143   34.0567 H   0  0  0  0  0  0  0  0  0  0  0  0
   45.5262   32.4830   33.2226 H   0  0  0  0  0  0  0  0  0  0  0  0
   45.2313   35.5360   42.6508 H   0  0  0  0  0  0  0  0  0  0  0  0
   43.9078   31.5221   41.6077 H   0  0  0  0  0  0  0  0  0  0  0  0
   47.6233   33.5014   45.9743 H   0  0  0  0  0  0  0  0  0  0  0  0
   46.0647   33.8526   46.7621 H   0  0  0  0  0  0  0  0  0  0  0  0
   47.9165   31.4767   47.3445 H   0  0  0  0  0  0  0  0  0  0  0  0
   47.6465   32.8724   48.4117 H   0  0  0  0  0  0  0  0  0  0  0  0
   46.2284   31.1199   49.0582 H   0  0  0  0  0  0  0  0  0  0  0  0
   45.7120   29.6095   47.6428 H   0  0  0  0  0  0  0  0  0  0  0  0
   44.3701   30.7789   47.2155 H   0  0  0  0  0  0  0  0  0  0  0  0
   45.2896   30.2423   45.1521 H   0  0  0  0  0  0  0  0  0  0  0  0
   46.9662   30.2488   45.7684 H   0  0  0  0  0  0  0  0  0  0  0  0
  1  2  1  0
  1 18  1  0
  3  2  1  0
  4  3  1  0
  4  5  1  0
  5  1  1  0
  6  5  1  0
  6  7  1  0
  8  7  2  0
  9 16  2  0
  9  8  1  0
 10  9  1  0
 11 10  2  0
 12 13  1  0
 12 10  1  0
 13 15  2  0
 14 13  1  0
 15 16  1  0
 16  6  1  0
 17 22  2  0
 18 19  2  0
 18 17  1  0
 19 20  1  0
 20 21  2  0
 21 23  1  0
 22 21  1  0
 23 28  1  0
 23 24  1  0
 24 25  1  0
 25 26  1  0
 27 26  1  0
 28 27  1  0
  1 29  1  6
  2 30  1  0
  2 31  1  0
  3 32  1  0
  3 33  1  0
  4 34  1  0
  4 35  1  0
  5 36  1  1
  7 37  1  0
 12 38  1  0
 14 39  1  0
 14 40  1  0
 17 41  1  0
 19 42  1  0
 24 43  1  0
 24 44  1  0
 25 45  1  0
 25 46  1  0
 26 47  1  0
 27 48  1  0
 27 49  1  0
 28 50  1  0
 28 51  1  0
M  ISO  8  29  13  30  13  31  13  32  13  33  13  34  13  35  13  36  13
M  ISO  8  37  14  38   9  41  14  42  14  43  13  44  13  45  13  46  13
M  ISO  5  47   5  48  13  49  13  50  13  51  13
M  END
>  <minimizedAffinity>  (1) 
-6.78544331

>  <minimizedRMSD>  (1) 
0.965013087

$$$$
