
     RDKit          3D

 44 48  0  0  1  0  0  0  0  0999 V2000
   44.0630   34.2850   40.7310 C   0  0  2  0  0  0  0  0  0  0  0  0
   42.5340   34.4640   40.7820 C   0  0  0  0  0  0  0  0  0  0  0  0
   42.3250   34.9460   39.3480 C   0  0  0  0  0  0  0  0  0  0  0  0
   43.2220   34.0590   38.5700 C   0  0  0  0  0  0  0  0  0  0  0  0
   44.1950   33.4260   39.5710 C   0  0  1  0  0  0  0  0  0  0  0  0
   45.4990   33.2830   38.9780 N   0  0  0  0  0  0  0  0  0  0  0  0
   46.6600   33.3280   39.6490 C   0  0  0  0  0  0  0  0  0  0  0  0
   47.6900   33.1690   38.8140 N   0  0  0  0  0  0  0  0  0  0  0  0
   47.1490   33.0220   37.5880 C   0  0  0  0  0  0  0  0  0  0  0  0
   47.7940   32.8330   36.3870 C   0  0  0  0  0  0  0  0  0  0  0  0
   49.0620   32.7700   36.3190 O   0  0  0  0  0  0  0  0  0  0  0  0
   47.0310   32.7170   35.2890 N   0  0  0  0  0  0  0  0  0  0  0  0
   45.6670   32.7840   35.3610 C   0  0  0  0  0  0  0  0  0  0  0  0
   44.9710   32.6580   34.1200 N   0  0  0  0  0  0  0  0  0  0  0  0
   45.0650   32.9710   36.5630 N   0  0  0  0  0  0  0  0  0  0  0  0
   45.7710   33.0930   37.6830 C   0  0  0  0  0  0  0  0  0  0  0  0
   45.3820   34.7330   42.7690 C   0  0  0  0  0  0  0  0  0  0  0  0
   44.6140   33.8170   42.0010 C   0  0  0  0  0  0  0  0  0  0  0  0
   44.4440   32.4920   42.4530 C   0  0  0  0  0  0  0  0  0  0  0  0
   45.0350   32.1200   43.6340 N   0  0  0  0  0  0  0  0  0  0  0  0
   45.7730   33.0390   44.3420 C   0  0  0  0  0  0  0  0  0  0  0  0
   45.9490   34.3210   43.9310 N   0  0  0  0  0  0  0  0  0  0  0  0
   46.3820   32.5770   45.5940 C   0  0  0  0  0  0  0  0  0  0  0  0
   46.7770   31.2500   45.7710 C   0  0  0  0  0  0  0  0  0  0  0  0
   47.3070   31.1500   47.0430 C   0  0  0  0  0  0  0  0  0  0  0  0
   47.2080   32.4350   47.5860 C   0  0  0  0  0  0  0  0  0  0  0  0
   46.6550   33.2450   46.6890 O   0  0  0  0  0  0  0  0  0  0  0  0
   44.6645   35.1985   40.6142 H   0  0  0  0  0  0  0  0  0  0  0  0
   42.0107   33.5176   40.9833 H   0  0  0  0  0  0  0  0  0  0  0  0
   42.1529   35.1266   41.5730 H   0  0  0  0  0  0  0  0  0  0  0  0
   41.2773   34.8216   39.0368 H   0  0  0  0  0  0  0  0  0  0  0  0
   42.5440   36.0153   39.2115 H   0  0  0  0  0  0  0  0  0  0  0  0
   42.6363   33.2769   38.0647 H   0  0  0  0  0  0  0  0  0  0  0  0
   43.7630   34.6243   37.7969 H   0  0  0  0  0  0  0  0  0  0  0  0
   43.9891   32.3888   39.8739 H   0  0  0  0  0  0  0  0  0  0  0  0
   46.7508   33.4753   40.7353 H   0  0  0  0  0  0  0  0  0  0  0  0
   47.4817   32.5747   34.3739 H   0  0  0  0  0  0  0  0  0  0  0  0
   43.9420   32.6992   34.1001 H   0  0  0  0  0  0  0  0  0  0  0  0
   45.4981   32.5259   33.2450 H   0  0  0  0  0  0  0  0  0  0  0  0
   45.5160   35.7689   42.4241 H   0  0  0  0  0  0  0  0  0  0  0  0
   43.8501   31.7719   41.8710 H   0  0  0  0  0  0  0  0  0  0  0  0
   46.6839   30.4369   45.0361 H   0  0  0  0  0  0  0  0  0  0  0  0
   47.7189   30.2514   47.5256 H   0  0  0  0  0  0  0  0  0  0  0  0
   47.5355   32.7284   48.5943 H   0  0  0  0  0  0  0  0  0  0  0  0
  1  2  1  0
  1 18  1  0
  3  2  1  0
  4  3  1  0
  4  5  1  0
  5  1  1  0
  6  5  1  0
  6  7  1  0
  8  7  2  0
  9 16  2  0
  9  8  1  0
 10  9  1  0
 11 10  2  0
 12 13  1  0
 12 10  1  0
 13 15  2  0
 14 13  1  0
 15 16  1  0
 16  6  1  0
 17 22  2  0
 18 19  2  0
 18 17  1  0
 19 20  1  0
 20 21  2  0
 21 23  1  0
 22 21  1  0
 23 24  2  0
 23 27  1  0
 24 25  1  0
 25 26  2  0
 27 26  1  0
  1 28  1  6
  2 29  1  0
  2 30  1  0
  3 31  1  0
  3 32  1  0
  4 33  1  0
  4 34  1  0
  5 35  1  1
  7 36  1  0
 12 37  1  0
 14 38  1  0
 14 39  1  0
 17 40  1  0
 19 41  1  0
 24 42  1  0
 25 43  1  0
 26 44  1  0
M  ISO  8  28  13  29  13  30  13  31  13  32  13  33  13  34  13  35  13
M  ISO  7  36  14  37   9  40  14  41  14  42  14  43  14  44  14
M  END
>  <minimizedAffinity>  (1) 
-6.48679304

>  <minimizedRMSD>  (1) 
0.5990417

$$$$
