
     RDKit          3D

 42 46  0  0  1  0  0  0  0  0999 V2000
   43.8370   34.5240   40.6410 C   0  0  2  0  0  0  0  0  0  0  0  0
   42.2800   34.6680   40.6090 C   0  0  0  0  0  0  0  0  0  0  0  0
   42.1510   35.0990   39.1400 C   0  0  0  0  0  0  0  0  0  0  0  0
   43.0790   34.1670   38.4630 C   0  0  0  0  0  0  0  0  0  0  0  0
   43.9970   33.5810   39.5500 C   0  0  1  0  0  0  0  0  0  0  0  0
   45.3330   33.4110   39.0250 N   0  0  0  0  0  0  0  0  0  0  0  0
   46.4660   33.4650   39.7520 C   0  0  0  0  0  0  0  0  0  0  0  0
   47.5340   33.2770   38.9660 N   0  0  0  0  0  0  0  0  0  0  0  0
   47.0460   33.1020   37.7230 C   0  0  0  0  0  0  0  0  0  0  0  0
   47.7500   32.8780   36.5550 C   0  0  0  0  0  0  0  0  0  0  0  0
   49.0120   32.8060   36.5470 O   0  0  0  0  0  0  0  0  0  0  0  0
   47.0340   32.7400   35.4280 N   0  0  0  0  0  0  0  0  0  0  0  0
   45.6660   32.8180   35.4330 C   0  0  0  0  0  0  0  0  0  0  0  0
   45.0320   32.6670   34.1650 N   0  0  0  0  0  0  0  0  0  0  0  0
   45.0110   33.0400   36.6000 N   0  0  0  0  0  0  0  0  0  0  0  0
   45.6730   33.1830   37.7430 C   0  0  0  0  0  0  0  0  0  0  0  0
   44.8480   35.1700   42.7860 C   0  0  0  0  0  0  0  0  0  0  0  0
   44.3380   34.1480   41.9590 C   0  0  0  0  0  0  0  0  0  0  0  0
   44.3380   32.8150   42.4140 C   0  0  0  0  0  0  0  0  0  0  0  0
   44.8330   32.5490   43.6480 N   0  0  0  0  0  0  0  0  0  0  0  0
   45.3240   33.5650   44.4330 C   0  0  0  0  0  0  0  0  0  0  0  0
   45.3310   34.8690   44.0040 N   0  0  0  0  0  0  0  0  0  0  0  0
   45.8250   33.1330   45.7360 C   0  0  0  0  0  0  0  0  0  0  0  0
   45.4630   33.2040   47.0400 N   0  0  0  0  0  0  0  0  0  0  0  0
   46.3500   32.6110   47.7600 O   0  0  0  0  0  0  0  0  0  0  0  0
   47.2990   32.1380   46.9970 C   0  0  0  0  0  0  0  0  0  0  0  0
   46.9750   32.4620   45.7490 N   0  0  0  0  0  0  0  0  0  0  0  0
   44.4405   35.4321   40.4954 H   0  0  0  0  0  0  0  0  0  0  0  0
   41.7668   33.7167   40.8133 H   0  0  0  0  0  0  0  0  0  0  0  0
   41.8364   35.3421   41.3565 H   0  0  0  0  0  0  0  0  0  0  0  0
   41.1209   34.9724   38.7754 H   0  0  0  0  0  0  0  0  0  0  0  0
   42.3839   36.1601   38.9672 H   0  0  0  0  0  0  0  0  0  0  0  0
   42.5140   33.3617   37.9708 H   0  0  0  0  0  0  0  0  0  0  0  0
   43.6654   34.6870   37.6912 H   0  0  0  0  0  0  0  0  0  0  0  0
   43.7557   32.5674   39.9026 H   0  0  0  0  0  0  0  0  0  0  0  0
   46.5079   33.6389   40.8374 H   0  0  0  0  0  0  0  0  0  0  0  0
   47.5246   32.5714   34.5382 H   0  0  0  0  0  0  0  0  0  0  0  0
   44.0056   32.7144   34.0935 H   0  0  0  0  0  0  0  0  0  0  0  0
   45.6004   32.5105   33.3204 H   0  0  0  0  0  0  0  0  0  0  0  0
   44.8506   36.2125   42.4349 H   0  0  0  0  0  0  0  0  0  0  0  0
   43.9444   32.0061   41.7810 H   0  0  0  0  0  0  0  0  0  0  0  0
   48.1902   31.5815   47.3228 H   0  0  0  0  0  0  0  0  0  0  0  0
  1 18  1  0
  2  1  1  0
  3  2  1  0
  4  3  1  0
  4  5  1  0
  5  1  1  0
  6  5  1  0
  6  7  1  0
  8  7  2  0
  9 16  2  0
  9  8  1  0
 10  9  1  0
 11 10  2  0
 12 13  1  0
 12 10  1  0
 13 15  2  0
 14 13  1  0
 15 16  1  0
 16  6  1  0
 17 22  2  0
 18 19  2  0
 18 17  1  0
 19 20  1  0
 20 21  2  0
 21 23  1  0
 22 21  1  0
 23 27  1  0
 23 24  2  0
 24 25  1  0
 26 25  1  0
 27 26  2  0
  1 28  1  6
  2 29  1  0
  2 30  1  0
  3 31  1  0
  3 32  1  0
  4 33  1  0
  4 34  1  0
  5 35  1  1
  7 36  1  0
 12 37  1  0
 14 38  1  0
 14 39  1  0
 17 40  1  0
 19 41  1  0
 26 42  1  0
M  ISO  8  28  13  29  13  30  13  31  13  32  13  33  13  34  13  35  13
M  ISO  5  36  14  37   9  40  14  41  14  42  14
M  END
>  <minimizedAffinity>  (1) 
-6.51711082

>  <minimizedRMSD>  (1) 
0.378130138

$$$$
