
     RDKit          3D

 39 42  0  0  1  0  0  0  0  0999 V2000
   44.2260   34.3500   40.6200 C   0  0  2  0  0  0  0  0  0  0  0  0
   42.6730   34.4410   40.7200 C   0  0  0  0  0  0  0  0  0  0  0  0
   42.3950   34.7800   39.2510 C   0  0  0  0  0  0  0  0  0  0  0  0
   43.3020   33.8610   38.5360 C   0  0  0  0  0  0  0  0  0  0  0  0
   44.3290   33.3750   39.5520 C   0  0  1  0  0  0  0  0  0  0  0  0
   45.6070   33.2050   38.9160 N   0  0  0  0  0  0  0  0  0  0  0  0
   46.7970   33.1980   39.5630 C   0  0  0  0  0  0  0  0  0  0  0  0
   47.7940   33.0210   38.6950 N   0  0  0  0  0  0  0  0  0  0  0  0
   47.2130   32.9150   37.4830 C   0  0  0  0  0  0  0  0  0  0  0  0
   47.8250   32.7230   36.2650 C   0  0  0  0  0  0  0  0  0  0  0  0
   49.0860   32.6200   36.1550 O   0  0  0  0  0  0  0  0  0  0  0  0
   47.0240   32.6510   35.1900 N   0  0  0  0  0  0  0  0  0  0  0  0
   45.6700   32.7620   35.3010 C   0  0  0  0  0  0  0  0  0  0  0  0
   44.9380   32.6770   34.0730 N   0  0  0  0  0  0  0  0  0  0  0  0
   45.1100   32.9490   36.5210 N   0  0  0  0  0  0  0  0  0  0  0  0
   45.8520   33.0290   37.6230 C   0  0  0  0  0  0  0  0  0  0  0  0
   45.7070   34.9930   42.4720 C   0  0  0  0  0  0  0  0  0  0  0  0
   44.8520   34.0280   41.9080 C   0  0  0  0  0  0  0  0  0  0  0  0
   44.6380   32.8070   42.5780 C   0  0  0  0  0  0  0  0  0  0  0  0
   45.2760   32.6060   43.7570 N   0  0  0  0  0  0  0  0  0  0  0  0
   46.1000   33.5610   44.2820 C   0  0  0  0  0  0  0  0  0  0  0  0
   46.3190   34.7540   43.6430 N   0  0  0  0  0  0  0  0  0  0  0  0
   46.7640   33.3370   45.5210 N   0  0  0  0  0  0  0  0  0  0  0  0
   44.7786   35.2736   40.3929 H   0  0  0  0  0  0  0  0  0  0  0  0
   42.2167   33.4870   41.0228 H   0  0  0  0  0  0  0  0  0  0  0  0
   42.2737   35.1442   41.4657 H   0  0  0  0  0  0  0  0  0  0  0  0
   41.3444   34.5854   38.9897 H   0  0  0  0  0  0  0  0  0  0  0  0
   42.5603   35.8395   39.0058 H   0  0  0  0  0  0  0  0  0  0  0  0
   42.7360   33.0084   38.1325 H   0  0  0  0  0  0  0  0  0  0  0  0
   43.7920   34.3683   37.6919 H   0  0  0  0  0  0  0  0  0  0  0  0
   44.1638   32.3746   39.9786 H   0  0  0  0  0  0  0  0  0  0  0  0
   46.9230   33.3207   40.6488 H   0  0  0  0  0  0  0  0  0  0  0  0
   47.4424   32.5086   34.2596 H   0  0  0  0  0  0  0  0  0  0  0  0
   43.9108   32.7525   34.0795 H   0  0  0  0  0  0  0  0  0  0  0  0
   45.4388   32.5404   33.1833 H   0  0  0  0  0  0  0  0  0  0  0  0
   45.8747   35.9473   41.9512 H   0  0  0  0  0  0  0  0  0  0  0  0
   43.9725   32.0392   42.1565 H   0  0  0  0  0  0  0  0  0  0  0  0
   47.3839   34.0611   45.9114 H   0  0  0  0  0  0  0  0  0  0  0  0
   46.6246   32.4509   46.0272 H   0  0  0  0  0  0  0  0  0  0  0  0
  1  2  1  0
  1 18  1  0
  3  2  1  0
  4  3  1  0
  4  5  1  0
  5  1  1  0
  6  5  1  0
  6  7  1  0
  8  7  2  0
  9 16  2  0
  9  8  1  0
 10  9  1  0
 11 10  2  0
 12 13  1  0
 12 10  1  0
 13 15  2  0
 14 13  1  0
 15 16  1  0
 16  6  1  0
 17 22  2  0
 18 17  1  0
 18 19  2  0
 19 20  1  0
 20 21  2  0
 21 23  1  0
 22 21  1  0
  1 24  1  6
  2 25  1  0
  2 26  1  0
  3 27  1  0
  3 28  1  0
  4 29  1  0
  4 30  1  0
  5 31  1  1
  7 32  1  0
 12 33  1  0
 14 34  1  0
 14 35  1  0
 17 36  1  0
 19 37  1  0
 23 38  1  0
 23 39  1  0
M  ISO  8  24  13  25  13  26  13  27  13  28  13  29  13  30  13  31  13
M  ISO  4  32  14  33   9  36  14  37  14
M  END
>  <minimizedAffinity>  (1) 
-6.14513063

>  <minimizedRMSD>  (1) 
0.298331439

$$$$
