
     RDKit          3D

 26 27  0  0  1  0  0  0  0  0999 V2000
   43.8490   33.3530   40.5880 C   0  0  2  0  0  0  0  0  0  0  0  0
   43.6670   33.3800   39.1340 C   0  0  0  0  0  0  0  0  0  0  0  0
   42.6770   34.5010   38.8110 C   0  0  0  0  0  0  0  0  0  0  0  0
   42.3630   35.2080   40.1040 C   0  0  2  0  0  0  0  0  0  0  0  0
   42.6520   34.1780   41.1360 C   0  0  0  0  0  0  0  0  0  0  0  0
   45.0560   33.9910   41.1330 C   0  0  0  0  0  0  0  0  0  0  0  0
   46.2600   33.9100   40.4100 C   0  0  0  0  0  0  0  0  0  0  0  0
   47.4050   34.5290   40.9050 C   0  0  0  0  0  0  0  0  0  0  0  0
   47.2760   35.1970   42.1010 N   0  0  0  0  0  0  0  0  0  0  0  0
   46.1020   35.2580   42.7740 C   0  0  0  0  0  0  0  0  0  0  0  0
   45.0050   34.6590   42.2900 N   0  0  0  0  0  0  0  0  0  0  0  0
   40.9360   35.6980   40.1510 C   0  0  0  0  0  0  0  0  0  0  0  0
   40.8330   36.5940   41.2130 F   0  0  0  0  0  0  0  0  0  0  0  0
   40.0910   34.6530   40.4670 F   0  0  0  0  0  0  0  0  0  0  0  0
   40.5460   36.3190   39.0070 F   0  0  0  0  0  0  0  0  0  0  0  0
   43.9282   32.2946   40.8771 H   0  0  0  0  0  0  0  0  0  0  0  0
   44.6297   33.5761   38.6393 H   0  0  0  0  0  0  0  0  0  0  0  0
   43.2852   32.4129   38.7750 H   0  0  0  0  0  0  0  0  0  0  0  0
   43.1266   35.2059   38.0962 H   0  0  0  0  0  0  0  0  0  0  0  0
   41.7614   34.0933   38.3578 H   0  0  0  0  0  0  0  0  0  0  0  0
   42.9558   36.1232   40.2490 H   0  0  0  0  0  0  0  0  0  0  0  0
   41.7763   33.5293   41.2854 H   0  0  0  0  0  0  0  0  0  0  0  0
   42.8869   34.6347   42.1088 H   0  0  0  0  0  0  0  0  0  0  0  0
   46.2969   33.3602   39.4580 H   0  0  0  0  0  0  0  0  0  0  0  0
   48.3637   34.4861   40.3673 H   0  0  0  0  0  0  0  0  0  0  0  0
   46.0484   35.8045   43.7271 H   0  0  0  0  0  0  0  0  0  0  0  0
  1  6  1  0
  1  5  1  0
  2  1  1  0
  3  2  1  0
  3  4  1  0
  4 12  1  0
  4  5  1  0
  6 11  2  0
  7  8  2  0
  7  6  1  0
  8  9  1  0
  9 10  2  0
 11 10  1  0
 12 14  1  0
 12 13  1  0
 15 12  1  0
  1 16  1  1
  2 17  1  0
  2 18  1  0
  3 19  1  0
  3 20  1  0
  4 21  1  1
  5 22  1  0
  5 23  1  0
  7 24  1  0
  8 25  1  0
 10 26  1  0
M  ISO  8  16  13  17  13  18  13  19  13  20  13  21  13  22  13  23  13
M  ISO  3  24  14  25  14  26  14
M  END
>  <minimizedAffinity>  (1) 
-4.21423578

>  <minimizedRMSD>  (1) 
5.98882484

$$$$
