
     RDKit          3D

 45 48  0  0  1  0  0  0  0  0999 V2000
   46.5120   35.0950   42.6860 C   0  0  2  0  0  0  0  0  0  0  0  0
   45.5560   36.0570   43.1700 C   0  0  0  0  0  0  0  0  0  0  0  0
   44.2230   35.8030   42.4380 C   0  0  0  0  0  0  0  0  0  0  0  0
   44.4320   34.6090   41.5720 C   0  0  2  0  0  0  0  0  0  0  0  0
   45.8870   34.5600   41.3460 C   0  0  0  0  0  0  0  0  0  0  0  0
   46.8110   33.8870   43.4600 C   0  0  0  0  0  0  0  0  0  0  0  0
   46.2540   33.7830   44.7610 C   0  0  0  0  0  0  0  0  0  0  0  0
   46.4870   32.6380   45.5100 C   0  0  0  0  0  0  0  0  0  0  0  0
   47.2570   31.6750   44.9170 N   0  0  0  0  0  0  0  0  0  0  0  0
   47.7760   31.7860   43.6910 C   0  0  0  0  0  0  0  0  0  0  0  0
   47.5470   32.9000   42.9650 N   0  0  0  0  0  0  0  0  0  0  0  0
   43.5610   34.5390   40.3840 C   0  0  1  0  0  0  0  0  0  0  0  0
   43.1760   33.1120   40.0820 C   0  0  0  0  0  0  0  0  0  0  0  0
   42.2880   35.2800   40.7030 C   0  0  0  0  0  0  0  0  0  0  0  0
   41.3240   34.9690   39.6180 N   0  0  0  0  0  0  0  0  0  0  0  0
   41.3620   35.4140   38.3450 C   0  0  0  0  0  0  0  0  0  0  0  0
   40.3180   34.9120   37.6600 N   0  0  0  0  0  0  0  0  0  0  0  0
   39.6060   34.1420   38.4860 C   0  0  0  0  0  0  0  0  0  0  0  0
   38.4600   33.4070   38.2940 C   0  0  0  0  0  0  0  0  0  0  0  0
   37.9380   32.7060   39.3280 N   0  0  0  0  0  0  0  0  0  0  0  0
   38.5580   32.7390   40.5440 C   0  0  0  0  0  0  0  0  0  0  0  0
   39.6770   33.4710   40.6860 N   0  0  0  0  0  0  0  0  0  0  0  0
   40.2330   34.1840   39.6900 C   0  0  0  0  0  0  0  0  0  0  0  0
   37.8110   33.3670   37.0400 N   0  0  0  0  0  0  0  0  0  0  0  0
   47.4638   35.6462   42.6726 H   0  0  0  0  0  0  0  0  0  0  0  0
   45.4172   35.9342   44.2543 H   0  0  0  0  0  0  0  0  0  0  0  0
   45.9104   37.0810   42.9804 H   0  0  0  0  0  0  0  0  0  0  0  0
   43.4217   35.6080   43.1660 H   0  0  0  0  0  0  0  0  0  0  0  0
   43.9259   36.6780   41.8412 H   0  0  0  0  0  0  0  0  0  0  0  0
   44.1011   33.6798   42.0589 H   0  0  0  0  0  0  0  0  0  0  0  0
   46.2152   33.5289   41.1484 H   0  0  0  0  0  0  0  0  0  0  0  0
   46.1950   35.1554   40.4739 H   0  0  0  0  0  0  0  0  0  0  0  0
   45.6440   34.6012   45.1715 H   0  0  0  0  0  0  0  0  0  0  0  0
   46.0761   32.5120   46.5225 H   0  0  0  0  0  0  0  0  0  0  0  0
   48.3879   30.9721   43.2749 H   0  0  0  0  0  0  0  0  0  0  0  0
   44.0970   34.9671   39.5241 H   0  0  0  0  0  0  0  0  0  0  0  0
   43.0283   32.5647   41.0247 H   0  0  0  0  0  0  0  0  0  0  0  0
   42.2423   33.0993   39.5005 H   0  0  0  0  0  0  0  0  0  0  0  0
   43.9766   32.6314   39.5005 H   0  0  0  0  0  0  0  0  0  0  0  0
   41.8882   34.9453   41.6716 H   0  0  0  0  0  0  0  0  0  0  0  0
   42.4692   36.3629   40.7699 H   0  0  0  0  0  0  0  0  0  0  0  0
   42.1290   36.0846   37.9303 H   0  0  0  0  0  0  0  0  0  0  0  0
   38.1482   32.1751   41.3949 H   0  0  0  0  0  0  0  0  0  0  0  0
   36.9535   32.8088   36.9215 H   0  0  0  0  0  0  0  0  0  0  0  0
   38.1952   33.8960   36.2441 H   0  0  0  0  0  0  0  0  0  0  0  0
  1  2  1  0
  1  6  1  0
  3  2  1  0
  4  3  1  0
  5  4  1  0
  5  1  1  0
  6  7  2  0
  7  8  1  0
  9  8  2  0
 10  9  1  0
 11  6  1  0
 11 10  2  0
 12 14  1  0
 12  4  1  0
 13 12  1  0
 15 23  1  0
 15 14  1  0
 16 15  1  0
 17 16  2  0
 17 18  1  0
 18 23  2  0
 19 18  1  0
 19 20  2  0
 20 21  1  0
 21 22  2  0
 23 22  1  0
 24 19  1  0
  1 25  1  6
  2 26  1  0
  2 27  1  0
  3 28  1  0
  3 29  1  0
  4 30  1  1
  5 31  1  0
  5 32  1  0
  7 33  1  0
  8 34  1  0
 10 35  1  0
 12 36  1  6
 13 37  1  0
 13 38  1  0
 13 39  1  0
 14 40  1  0
 14 41  1  0
 16 42  1  0
 21 43  1  0
 24 44  1  0
 24 45  1  0
M  ISO  8  25  13  26  13  27  13  28  13  29  13  30  13  31  13  32  13
M  ISO  8  33  14  34  14  35  14  36   8  37   8  38   8  39   8  40   8
M  ISO  3  41   8  42  14  43  14
M  END
>  <minimizedAffinity>  (1) 
-5.89362764

>  <minimizedRMSD>  (1) 
1.43889546

$$$$
