
     RDKit          3D

 46 49  0  0  1  0  0  0  0  0999 V2000
   43.4900   34.5420   40.4000 C   0  0  1  0  0  0  0  0  0  0  0  0
   46.3970   35.1870   42.7330 C   0  0  2  0  0  0  0  0  0  0  0  0
   45.4220   36.1480   43.1790 C   0  0  0  0  0  0  0  0  0  0  0  0
   44.0940   35.8530   42.4440 C   0  0  0  0  0  0  0  0  0  0  0  0
   44.3380   34.6490   41.6040 C   0  0  2  0  0  0  0  0  0  0  0  0
   45.7960   34.6170   41.3990 C   0  0  0  0  0  0  0  0  0  0  0  0
   46.7000   34.0050   43.5430 C   0  0  0  0  0  0  0  0  0  0  0  0
   46.1240   33.9210   44.8360 C   0  0  0  0  0  0  0  0  0  0  0  0
   46.3680   32.7980   45.6120 C   0  0  0  0  0  0  0  0  0  0  0  0
   47.1640   31.8350   45.0580 N   0  0  0  0  0  0  0  0  0  0  0  0
   47.7050   31.9330   43.8250 C   0  0  0  0  0  0  0  0  0  0  0  0
   47.4640   33.0240   43.0780 N   0  0  0  0  0  0  0  0  0  0  0  0
   43.1650   33.0980   40.1030 C   0  0  0  0  0  0  0  0  0  0  0  0
   42.1790   35.2250   40.7060 C   0  0  0  0  0  0  0  0  0  0  0  0
   41.2600   34.9770   39.5630 N   0  0  0  0  0  0  0  0  0  0  0  0
   41.3990   35.5310   38.3250 C   0  0  0  0  0  0  0  0  0  0  0  0
   40.3910   35.0770   37.5490 N   0  0  0  0  0  0  0  0  0  0  0  0
   39.6120   34.2370   38.2880 C   0  0  0  0  0  0  0  0  0  0  0  0
   38.4730   33.5250   37.9650 C   0  0  0  0  0  0  0  0  0  0  0  0
   37.9550   33.5580   36.8350 O   0  0  0  0  0  0  0  0  0  0  0  0
   37.9480   32.7810   38.9570 N   0  0  0  0  0  0  0  0  0  0  0  0
   38.4630   32.7030   40.2030 C   0  0  0  0  0  0  0  0  0  0  0  0
   37.8820   31.9070   41.2300 N   0  0  0  0  0  0  0  0  0  0  0  0
   39.5730   33.4180   40.4610 N   0  0  0  0  0  0  0  0  0  0  0  0
   40.1680   34.1890   39.5340 C   0  0  0  0  0  0  0  0  0  0  0  0
   44.0194   34.9905   39.5464 H   0  0  0  0  0  0  0  0  0  0  0  0
   47.3446   35.7453   42.7183 H   0  0  0  0  0  0  0  0  0  0  0  0
   45.2764   36.0561   44.2654 H   0  0  0  0  0  0  0  0  0  0  0  0
   45.7630   37.1704   42.9591 H   0  0  0  0  0  0  0  0  0  0  0  0
   43.2928   35.6539   43.1709 H   0  0  0  0  0  0  0  0  0  0  0  0
   43.7783   36.7100   41.8309 H   0  0  0  0  0  0  0  0  0  0  0  0
   44.0131   33.7265   42.1075 H   0  0  0  0  0  0  0  0  0  0  0  0
   46.1413   33.5869   41.2267 H   0  0  0  0  0  0  0  0  0  0  0  0
   46.1062   35.2002   40.5194 H   0  0  0  0  0  0  0  0  0  0  0  0
   45.4919   34.7360   45.2184 H   0  0  0  0  0  0  0  0  0  0  0  0
   45.9431   32.6880   46.6207 H   0  0  0  0  0  0  0  0  0  0  0  0
   48.3397   31.1242   43.4338 H   0  0  0  0  0  0  0  0  0  0  0  0
   43.0413   32.5482   41.0477 H   0  0  0  0  0  0  0  0  0  0  0  0
   42.2322   33.0440   39.5225 H   0  0  0  0  0  0  0  0  0  0  0  0
   43.9847   32.6496   39.5225 H   0  0  0  0  0  0  0  0  0  0  0  0
   41.7479   34.8111   41.6295 H   0  0  0  0  0  0  0  0  0  0  0  0
   42.3323   36.3049   40.8488 H   0  0  0  0  0  0  0  0  0  0  0  0
   42.1927   36.2257   38.0129 H   0  0  0  0  0  0  0  0  0  0  0  0
   37.0984   32.2359   38.7522 H   0  0  0  0  0  0  0  0  0  0  0  0
   38.3117   31.8797   42.1657 H   0  0  0  0  0  0  0  0  0  0  0  0
   37.0319   31.3583   41.0375 H   0  0  0  0  0  0  0  0  0  0  0  0
  1 14  1  0
  1  5  1  0
  2  3  1  0
  2  7  1  0
  4  3  1  0
  5  4  1  0
  6  5  1  0
  6  2  1  0
  7  8  2  0
  8  9  1  0
 10  9  2  0
 11 10  1  0
 12  7  1  0
 12 11  2  0
 13  1  1  0
 15 14  1  0
 16 15  1  0
 17 18  1  0
 17 16  2  0
 18 25  2  0
 19 18  1  0
 19 21  1  0
 20 19  2  0
 21 22  1  0
 22 24  2  0
 22 23  1  0
 25 15  1  0
 25 24  1  0
  1 26  1  6
  2 27  1  6
  3 28  1  0
  3 29  1  0
  4 30  1  0
  4 31  1  0
  5 32  1  1
  6 33  1  0
  6 34  1  0
  8 35  1  0
  9 36  1  0
 11 37  1  0
 13 38  1  0
 13 39  1  0
 13 40  1  0
 14 41  1  0
 14 42  1  0
 16 43  1  0
 21 44  1  0
 23 45  1  0
 23 46  1  0
M  ISO  8  26   8  27  13  28  13  29  13  30  13  31  13  32  13  33  13
M  ISO  8  34  13  35  14  36  14  37  14  38   8  39   8  40   8  41   8
M  ISO  3  42   8  43  14  44   9
M  END
>  <minimizedAffinity>  (1) 
-6.42470074

>  <minimizedRMSD>  (1) 
1.25032544

$$$$
