
     RDKit          3D

 44 47  0  0  0  0  0  0  0  0999 V2000
   47.5290   34.8530   41.9880 C   0  0  0  0  0  0  0  0  0  0  0  0
   47.2570   34.3420   40.6140 C   0  0  0  0  0  0  0  0  0  0  0  0
   48.2360   34.3160   39.6340 C   0  0  0  0  0  0  0  0  0  0  0  0
   48.0670   33.8590   38.3500 C   0  0  0  0  0  0  0  0  0  0  0  0
   46.8070   33.3990   38.0550 N   0  0  0  0  0  0  0  0  0  0  0  0
   45.8500   33.4210   39.0060 C   0  0  0  0  0  0  0  0  0  0  0  0
   46.0220   33.8720   40.2680 N   0  0  0  0  0  0  0  0  0  0  0  0
   44.5300   32.9150   38.6250 C   0  0  0  0  0  0  0  0  0  0  0  0
   43.3780   33.4970   39.1400 C   0  0  0  0  0  0  0  0  0  0  0  0
   42.1440   33.0180   38.7790 C   0  0  0  0  0  0  0  0  0  0  0  0
   42.0270   31.9980   37.9390 N   0  0  0  0  0  0  0  0  0  0  0  0
   43.1600   31.4420   37.4450 C   0  0  0  0  0  0  0  0  0  0  0  0
   44.4110   31.8840   37.7740 N   0  0  0  0  0  0  0  0  0  0  0  0
   47.5290   33.6950   42.9260 C   0  0  0  0  0  0  0  0  0  0  0  0
   44.8760   34.9690   45.2810 C   0  0  0  0  0  0  0  0  0  0  0  0
   45.7110   34.8240   44.1650 C   0  0  0  0  0  0  0  0  0  0  0  0
   46.6550   33.8370   44.0920 C   0  0  0  0  0  0  0  0  0  0  0  0
   46.7540   32.9890   45.1540 N   0  0  0  0  0  0  0  0  0  0  0  0
   45.9270   33.1490   46.2310 C   0  0  0  0  0  0  0  0  0  0  0  0
   45.0230   34.1030   46.2930 N   0  0  0  0  0  0  0  0  0  0  0  0
   46.0710   32.2350   47.3150 N   0  0  0  0  0  0  0  0  0  0  0  0
   45.8080   32.5060   48.7150 C   0  0  0  0  0  0  0  0  0  0  0  0
   45.2160   31.2050   49.2560 C   0  0  0  0  0  0  0  0  0  0  0  0
   45.3810   30.2000   48.1200 C   0  0  0  0  0  0  0  0  0  0  0  0
   46.4990   30.8480   47.3200 C   0  0  0  0  0  0  0  0  0  0  0  0
   46.7465   35.5686   42.2804 H   0  0  0  0  0  0  0  0  0  0  0  0
   48.5026   35.3641   42.0166 H   0  0  0  0  0  0  0  0  0  0  0  0
   49.2325   34.6931   39.9074 H   0  0  0  0  0  0  0  0  0  0  0  0
   48.8820   33.8612   37.6112 H   0  0  0  0  0  0  0  0  0  0  0  0
   43.4556   34.3433   39.8384 H   0  0  0  0  0  0  0  0  0  0  0  0
   41.2386   33.4866   39.1921 H   0  0  0  0  0  0  0  0  0  0  0  0
   43.0687   30.5964   36.7474 H   0  0  0  0  0  0  0  0  0  0  0  0
   47.2079   32.8040   42.3666 H   0  0  0  0  0  0  0  0  0  0  0  0
   48.5535   33.6212   43.3197 H   0  0  0  0  0  0  0  0  0  0  0  0
   44.1227   35.7694   45.3250 H   0  0  0  0  0  0  0  0  0  0  0  0
   45.6041   35.5242   43.3234 H   0  0  0  0  0  0  0  0  0  0  0  0
   46.7394   32.7578   49.2433 H   0  0  0  0  0  0  0  0  0  0  0  0
   45.1306   33.3615   48.8538 H   0  0  0  0  0  0  0  0  0  0  0  0
   45.7635   30.8724   50.1502 H   0  0  0  0  0  0  0  0  0  0  0  0
   44.1648   31.3212   49.5583 H   0  0  0  0  0  0  0  0  0  0  0  0
   45.6755   29.2093   48.4966 H   0  0  0  0  0  0  0  0  0  0  0  0
   44.4626   30.0108   47.5449 H   0  0  0  0  0  0  0  0  0  0  0  0
   46.5549   30.4392   46.3003 H   0  0  0  0  0  0  0  0  0  0  0  0
   47.5048   30.6862   47.7349 H   0  0  0  0  0  0  0  0  0  0  0  0
  1 14  1  0
  2  1  1  0
  3  2  2  0
  4  3  1  0
  5  4  2  0
  5  6  1  0
  6  7  2  0
  7  2  1  0
  8  6  1  0
  8  9  2  0
 10  9  1  0
 11 10  2  0
 12 13  2  0
 12 11  1  0
 13  8  1  0
 14 17  1  0
 15 20  2  0
 16 15  1  0
 17 16  2  0
 17 18  1  0
 18 19  2  0
 19 20  1  0
 19 21  1  0
 21 25  1  0
 21 22  1  0
 22 23  1  0
 24 23  1  0
 25 24  1  0
  1 26  1  0
  1 27  1  0
  3 28  1  0
  4 29  1  0
  9 30  1  0
 10 31  1  0
 12 32  1  0
 14 33  1  0
 14 34  1  0
 15 35  1  0
 16 36  1  0
 22 37  1  0
 22 38  1  0
 23 39  1  0
 23 40  1  0
 24 41  1  0
 24 42  1  0
 25 43  1  0
 25 44  1  0
M  ISO  8  26   8  27   8  28  14  29  14  30  14  31  14  32  14  33   8
M  ISO  8  34   8  35  14  36  14  37  13  38  13  39  13  40  13  41  13
M  ISO  3  42  13  43  13  44  13
M  END
>  <minimizedAffinity>  (1) 
-5.95213938

>  <minimizedRMSD>  (1) 
1.21185458

$$$$
