
     RDKit          3D

 47 49  0  0  1  0  0  0  0  0999 V2000
   45.9880   35.2660   42.7540 C   0  0  2  0  0  0  0  0  0  0  0  0
   44.8810   36.1830   42.8590 C   0  0  0  0  0  0  0  0  0  0  0  0
   43.7280   35.6320   41.9980 C   0  0  0  0  0  0  0  0  0  0  0  0
   44.1880   34.3240   41.4510 C   0  0  2  0  0  0  0  0  0  0  0  0
   45.6580   34.4040   41.4750 C   0  0  0  0  0  0  0  0  0  0  0  0
   46.2330   34.2820   43.8150 C   0  0  0  0  0  0  0  0  0  0  0  0
   45.4930   34.4030   45.0100 C   0  0  0  0  0  0  0  0  0  0  0  0
   45.6700   33.4750   46.0290 C   0  0  0  0  0  0  0  0  0  0  0  0
   46.5850   32.4820   45.7770 N   0  0  0  0  0  0  0  0  0  0  0  0
   47.2820   32.3820   44.6340 C   0  0  0  0  0  0  0  0  0  0  0  0
   47.0990   33.2900   43.6530 N   0  0  0  0  0  0  0  0  0  0  0  0
   43.5640   33.9160   40.1810 C   0  0  1  0  0  0  0  0  0  0  0  0
   43.0510   32.4970   40.2640 C   0  0  0  0  0  0  0  0  0  0  0  0
   42.3330   34.7910   39.9860 C   0  0  0  0  0  0  0  0  0  0  0  0
   41.1660   33.9910   39.6030 N   0  0  0  0  0  0  0  0  0  0  0  0
   40.9910   34.0900   38.1800 C   0  0  0  0  0  0  0  0  0  0  0  0
   39.5890   34.5590   37.8190 C   0  0  0  0  0  0  0  0  0  0  0  0
   38.5160   33.8280   38.5570 C   0  0  0  0  0  0  0  0  0  0  0  0
   38.7640   33.7940   40.0290 C   0  0  0  0  0  0  0  0  0  0  0  0
   40.0490   34.5200   40.3590 C   0  0  0  0  0  0  0  0  0  0  0  0
   46.8820   35.9067   42.7707 H   0  0  0  0  0  0  0  0  0  0  0  0
   44.5595   36.2625   43.9079 H   0  0  0  0  0  0  0  0  0  0  0  0
   45.1768   37.1832   42.5095 H   0  0  0  0  0  0  0  0  0  0  0  0
   42.8287   35.4894   42.6153 H   0  0  0  0  0  0  0  0  0  0  0  0
   43.4705   36.3306   41.1882 H   0  0  0  0  0  0  0  0  0  0  0  0
   43.8453   33.4804   42.0682 H   0  0  0  0  0  0  0  0  0  0  0  0
   46.1003   33.4003   41.5583 H   0  0  0  0  0  0  0  0  0  0  0  0
   46.0669   34.8480   40.5554 H   0  0  0  0  0  0  0  0  0  0  0  0
   44.7780   35.2296   45.1347 H   0  0  0  0  0  0  0  0  0  0  0  0
   45.1134   33.5319   46.9761 H   0  0  0  0  0  0  0  0  0  0  0  0
   48.0012   31.5610   44.4975 H   0  0  0  0  0  0  0  0  0  0  0  0
   44.3052   34.0054   39.3731 H   0  0  0  0  0  0  0  0  0  0  0  0
   42.9459   32.2063   41.3197 H   0  0  0  0  0  0  0  0  0  0  0  0
   42.0722   32.4313   39.7664 H   0  0  0  0  0  0  0  0  0  0  0  0
   43.7615   31.8206   39.7664 H   0  0  0  0  0  0  0  0  0  0  0  0
   42.1140   35.3163   40.9274 H   0  0  0  0  0  0  0  0  0  0  0  0
   42.5417   35.5089   39.1791 H   0  0  0  0  0  0  0  0  0  0  0  0
   41.7217   34.8081   37.7796 H   0  0  0  0  0  0  0  0  0  0  0  0
   41.1423   33.0913   37.7446 H   0  0  0  0  0  0  0  0  0  0  0  0
   39.5074   35.6305   38.0541 H   0  0  0  0  0  0  0  0  0  0  0  0
   39.4432   34.3590   36.7472 H   0  0  0  0  0  0  0  0  0  0  0  0
   37.5545   34.3292   38.3716 H   0  0  0  0  0  0  0  0  0  0  0  0
   38.5042   32.7899   38.1933 H   0  0  0  0  0  0  0  0  0  0  0  0
   37.9269   34.2819   40.5499 H   0  0  0  0  0  0  0  0  0  0  0  0
   38.8496   32.7468   40.3545 H   0  0  0  0  0  0  0  0  0  0  0  0
   40.2582   34.4064   41.4329 H   0  0  0  0  0  0  0  0  0  0  0  0
   39.9243   35.5805   40.0948 H   0  0  0  0  0  0  0  0  0  0  0  0
  1  2  1  0
  1  6  1  0
  3  2  1  0
  4  5  1  0
  4  3  1  0
  5  1  1  0
  6  7  2  0
  7  8  1  0
  9  8  2  0
 10  9  1  0
 11  6  1  0
 11 10  2  0
 12 13  1  0
 12  4  1  0
 14 12  1  0
 15 14  1  0
 15 20  1  0
 16 15  1  0
 17 16  1  0
 17 18  1  0
 18 19  1  0
 19 20  1  0
  1 21  1  6
  2 22  1  0
  2 23  1  0
  3 24  1  0
  3 25  1  0
  4 26  1  1
  5 27  1  0
  5 28  1  0
  7 29  1  0
  8 30  1  0
 10 31  1  0
 12 32  1  6
 13 33  1  0
 13 34  1  0
 13 35  1  0
 14 36  1  0
 14 37  1  0
 16 38  1  0
 16 39  1  0
 17 40  1  0
 17 41  1  0
 18 42  1  0
 18 43  1  0
 19 44  1  0
 19 45  1  0
 20 46  1  0
 20 47  1  0
M  ISO  8  21  13  22  13  23  13  24  13  25  13  26  13  27  13  28  13
M  ISO  8  29  14  30  14  31  14  32   8  33   8  34   8  35   8  36   8
M  ISO  8  37   8  38  13  39  13  40  13  41  13  42  13  43  13  44  13
M  ISO  3  45  13  46  13  47  13
M  END
>  <minimizedAffinity>  (1) 
-5.65221071

>  <minimizedRMSD>  (1) 
1.3621906

$$$$
