
     RDKit          3D

 41 43  0  0  1  0  0  0  0  0999 V2000
   46.0520   35.0370   42.8520 C   0  0  2  0  0  0  0  0  0  0  0  0
   45.1900   36.1550   43.1490 C   0  0  0  0  0  0  0  0  0  0  0  0
   43.7860   35.8410   42.5940 C   0  0  0  0  0  0  0  0  0  0  0  0
   43.8560   34.4650   42.0300 C   0  0  2  0  0  0  0  0  0  0  0  0
   45.2820   34.2450   41.7290 C   0  0  0  0  0  0  0  0  0  0  0  0
   46.3310   34.0270   43.8770 C   0  0  0  0  0  0  0  0  0  0  0  0
   45.7050   34.1770   45.1300 C   0  0  0  0  0  0  0  0  0  0  0  0
   45.9150   33.2280   46.1330 C   0  0  0  0  0  0  0  0  0  0  0  0
   46.7490   32.1910   45.7900 N   0  0  0  0  0  0  0  0  0  0  0  0
   47.3360   32.0620   44.5990 C   0  0  0  0  0  0  0  0  0  0  0  0
   47.1220   32.9870   43.6440 N   0  0  0  0  0  0  0  0  0  0  0  0
   42.9070   34.1780   40.9310 C   0  0  1  0  0  0  0  0  0  0  0  0
   42.5220   32.7150   40.9380 C   0  0  0  0  0  0  0  0  0  0  0  0
   41.6430   34.9620   41.2200 C   0  0  0  0  0  0  0  0  0  0  0  0
   40.7450   34.7480   40.0220 C   0  0  0  0  0  0  0  0  0  0  0  0
   39.4640   34.2280   40.2330 C   0  0  0  0  0  0  0  0  0  0  0  0
   38.5660   33.9940   39.2120 C   0  0  0  0  0  0  0  0  0  0  0  0
   38.9650   34.2940   37.9260 C   0  0  0  0  0  0  0  0  0  0  0  0
   40.2320   34.8050   37.7360 C   0  0  0  0  0  0  0  0  0  0  0  0
   41.0870   35.0230   38.7490 N   0  0  0  0  0  0  0  0  0  0  0  0
   47.0310   35.4925   42.6420 H   0  0  0  0  0  0  0  0  0  0  0  0
   45.1354   36.3044   44.2374 H   0  0  0  0  0  0  0  0  0  0  0  0
   45.5847   37.0724   42.6878 H   0  0  0  0  0  0  0  0  0  0  0  0
   43.0395   35.8841   43.4007 H   0  0  0  0  0  0  0  0  0  0  0  0
   43.4870   36.5716   41.8280 H   0  0  0  0  0  0  0  0  0  0  0  0
   43.4984   33.7210   42.7571 H   0  0  0  0  0  0  0  0  0  0  0  0
   45.5271   33.1735   41.7719 H   0  0  0  0  0  0  0  0  0  0  0  0
   45.5524   34.5853   40.7185 H   0  0  0  0  0  0  0  0  0  0  0  0
   45.0510   35.0412   45.3184 H   0  0  0  0  0  0  0  0  0  0  0  0
   45.4468   33.3050   47.1254 H   0  0  0  0  0  0  0  0  0  0  0  0
   47.9927   31.2028   44.3977 H   0  0  0  0  0  0  0  0  0  0  0  0
   43.3670   34.4409   39.9670 H   0  0  0  0  0  0  0  0  0  0  0  0
   42.4299   32.3651   41.9768 H   0  0  0  0  0  0  0  0  0  0  0  0
   41.5595   32.5867   40.4212 H   0  0  0  0  0  0  0  0  0  0  0  0
   43.2966   32.1295   40.4212 H   0  0  0  0  0  0  0  0  0  0  0  0
   41.1593   34.5863   42.1337 H   0  0  0  0  0  0  0  0  0  0  0  0
   41.8555   36.0290   41.3823 H   0  0  0  0  0  0  0  0  0  0  0  0
   39.1574   33.9942   41.2632 H   0  0  0  0  0  0  0  0  0  0  0  0
   37.5666   33.5825   39.4164 H   0  0  0  0  0  0  0  0  0  0  0  0
   38.2896   34.1298   37.0734 H   0  0  0  0  0  0  0  0  0  0  0  0
   40.5559   35.0440   36.7123 H   0  0  0  0  0  0  0  0  0  0  0  0
  1  2  1  0
  1  6  1  0
  3  2  1  0
  4  3  1  0
  5  4  1  0
  5  1  1  0
  6  7  2  0
  7  8  1  0
  9  8  2  0
 10  9  1  0
 11  6  1  0
 11 10  2  0
 12 13  1  0
 12 14  1  0
 12  4  1  0
 15 16  2  0
 15 14  1  0
 17 16  1  0
 18 17  2  0
 19 18  1  0
 19 20  2  0
 20 15  1  0
  1 21  1  6
  2 22  1  0
  2 23  1  0
  3 24  1  0
  3 25  1  0
  4 26  1  1
  5 27  1  0
  5 28  1  0
  7 29  1  0
  8 30  1  0
 10 31  1  0
 12 32  1  6
 13 33  1  0
 13 34  1  0
 13 35  1  0
 14 36  1  0
 14 37  1  0
 16 38  1  0
 17 39  1  0
 18 40  1  0
 19 41  1  0
M  ISO  8  21  13  22  13  23  13  24  13  25  13  26  13  27  13  28  13
M  ISO  8  29  14  30  14  31  14  32   8  33   8  34   8  35   8  36   8
M  ISO  5  37   8  38  14  39  14  40  14  41  14
M  END
>  <minimizedAffinity>  (1) 
-5.51964617

>  <minimizedRMSD>  (1) 
1.63894236

$$$$
