
     RDKit          3D

 38 40  0  0  1  0  0  0  0  0999 V2000
   46.0930   35.2660   42.8330 C   0  0  2  0  0  0  0  0  0  0  0  0
   44.9460   36.1300   42.9420 C   0  0  0  0  0  0  0  0  0  0  0  0
   43.8550   35.6030   41.9790 C   0  0  0  0  0  0  0  0  0  0  0  0
   44.4060   34.3670   41.3560 C   0  0  2  0  0  0  0  0  0  0  0  0
   45.8740   34.4980   41.4800 C   0  0  0  0  0  0  0  0  0  0  0  0
   46.3180   34.2040   43.8200 C   0  0  0  0  0  0  0  0  0  0  0  0
   45.5990   34.2720   45.0410 C   0  0  0  0  0  0  0  0  0  0  0  0
   45.7610   33.2700   45.9890 C   0  0  0  0  0  0  0  0  0  0  0  0
   46.6320   32.2690   45.6510 N   0  0  0  0  0  0  0  0  0  0  0  0
   47.3060   32.2140   44.4990 C   0  0  0  0  0  0  0  0  0  0  0  0
   47.1420   33.1930   43.5810 N   0  0  0  0  0  0  0  0  0  0  0  0
   43.8890   34.0430   40.0100 C   0  0  1  0  0  0  0  0  0  0  0  0
   44.6330   32.8560   39.4310 C   0  0  0  0  0  0  0  0  0  0  0  0
   42.4530   33.5760   40.1940 C   0  0  0  0  0  0  0  0  0  0  0  0
   41.6760   34.2700   39.1370 N   0  0  0  0  0  0  0  0  0  0  0  0
   40.5610   33.8840   38.4890 C   0  0  0  0  0  0  0  0  0  0  0  0
   40.2240   34.8490   37.6130 N   0  0  0  0  0  0  0  0  0  0  0  0
   41.1210   35.8490   37.7030 C   0  0  0  0  0  0  0  0  0  0  0  0
   41.9880   35.4700   38.6330 N   0  0  0  0  0  0  0  0  0  0  0  0
   46.9536   35.9398   42.9570 H   0  0  0  0  0  0  0  0  0  0  0  0
   44.5682   36.1199   43.9750 H   0  0  0  0  0  0  0  0  0  0  0  0
   45.2199   37.1626   42.6797 H   0  0  0  0  0  0  0  0  0  0  0  0
   42.9354   35.3708   42.5363 H   0  0  0  0  0  0  0  0  0  0  0  0
   43.5989   36.3538   41.2170 H   0  0  0  0  0  0  0  0  0  0  0  0
   44.0548   33.4672   41.8822 H   0  0  0  0  0  0  0  0  0  0  0  0
   46.3503   33.5071   41.5149 H   0  0  0  0  0  0  0  0  0  0  0  0
   46.3184   35.0274   40.6243 H   0  0  0  0  0  0  0  0  0  0  0  0
   44.9174   35.1131   45.2357 H   0  0  0  0  0  0  0  0  0  0  0  0
   45.2244   33.2799   46.9492 H   0  0  0  0  0  0  0  0  0  0  0  0
   47.9907   31.3768   44.2983 H   0  0  0  0  0  0  0  0  0  0  0  0
   43.9931   34.9207   39.3551 H   0  0  0  0  0  0  0  0  0  0  0  0
   45.0233   32.2332   40.2494 H   0  0  0  0  0  0  0  0  0  0  0  0
   43.9468   32.2597   38.8117 H   0  0  0  0  0  0  0  0  0  0  0  0
   45.4688   33.2137   38.8117 H   0  0  0  0  0  0  0  0  0  0  0  0
   42.3838   32.4853   40.0695 H   0  0  0  0  0  0  0  0  0  0  0  0
   42.0729   33.8067   41.2001 H   0  0  0  0  0  0  0  0  0  0  0  0
   40.0178   32.9408   38.6482 H   0  0  0  0  0  0  0  0  0  0  0  0
   41.1326   36.7853   37.1257 H   0  0  0  0  0  0  0  0  0  0  0  0
  1  2  1  0
  1  6  1  0
  3  2  1  0
  4  5  1  0
  4  3  1  0
  5  1  1  0
  6  7  2  0
  7  8  1  0
  9  8  2  0
 10  9  1  0
 11  6  1  0
 11 10  2  0
 12 14  1  0
 12  4  1  0
 13 12  1  0
 15 14  1  0
 16 15  1  0
 17 18  1  0
 17 16  2  0
 18 19  2  0
 19 15  1  0
  1 20  1  6
  2 21  1  0
  2 22  1  0
  3 23  1  0
  3 24  1  0
  4 25  1  1
  5 26  1  0
  5 27  1  0
  7 28  1  0
  8 29  1  0
 10 30  1  0
 12 31  1  6
 13 32  1  0
 13 33  1  0
 13 34  1  0
 14 35  1  0
 14 36  1  0
 16 37  1  0
 18 38  1  0
M  ISO  8  20  13  21  13  22  13  23  13  24  13  25  13  26  13  27  13
M  ISO  8  28  14  29  14  30  14  31   8  32   8  33   8  34   8  35   8
M  ISO  3  36   8  37  14  38  14
M  END
>  <minimizedAffinity>  (1) 
-4.94669342

>  <minimizedRMSD>  (1) 
0.904877126

$$$$
