
     RDKit          3D

 34 35  0  0  1  0  0  0  0  0999 V2000
   46.0040   35.2890   42.7460 C   0  0  2  0  0  0  0  0  0  0  0  0
   44.8450   36.1430   42.8270 C   0  0  0  0  0  0  0  0  0  0  0  0
   43.7700   35.5690   41.8820 C   0  0  0  0  0  0  0  0  0  0  0  0
   44.3290   34.3070   41.3130 C   0  0  2  0  0  0  0  0  0  0  0  0
   45.7910   34.4590   41.4250 C   0  0  0  0  0  0  0  0  0  0  0  0
   46.2480   34.2680   43.7680 C   0  0  0  0  0  0  0  0  0  0  0  0
   45.5220   34.3720   44.9810 C   0  0  0  0  0  0  0  0  0  0  0  0
   45.6920   33.4140   45.9750 C   0  0  0  0  0  0  0  0  0  0  0  0
   46.5850   32.4130   45.6820 N   0  0  0  0  0  0  0  0  0  0  0  0
   47.2640   32.3240   44.5380 C   0  0  0  0  0  0  0  0  0  0  0  0
   47.0860   33.2560   43.5890 N   0  0  0  0  0  0  0  0  0  0  0  0
   43.7960   33.9340   39.9880 C   0  0  1  0  0  0  0  0  0  0  0  0
   43.1290   32.5810   40.0520 C   0  0  0  0  0  0  0  0  0  0  0  0
   42.7150   34.9280   39.6320 C   0  0  0  0  0  0  0  0  0  0  0  0
   42.4180   34.6250   38.2080 N   0  0  0  0  0  0  0  0  0  0  0  0
   46.8524   35.9828   42.8396 H   0  0  0  0  0  0  0  0  0  0  0  0
   44.4649   36.1612   43.8591 H   0  0  0  0  0  0  0  0  0  0  0  0
   45.1041   37.1714   42.5349 H   0  0  0  0  0  0  0  0  0  0  0  0
   42.8474   35.3564   42.4420 H   0  0  0  0  0  0  0  0  0  0  0  0
   43.5198   36.2854   41.0857 H   0  0  0  0  0  0  0  0  0  0  0  0
   44.0022   33.4196   41.8749 H   0  0  0  0  0  0  0  0  0  0  0  0
   46.2789   33.4761   41.5010 H   0  0  0  0  0  0  0  0  0  0  0  0
   46.2274   34.9552   40.5456 H   0  0  0  0  0  0  0  0  0  0  0  0
   44.8253   35.2090   45.1360 H   0  0  0  0  0  0  0  0  0  0  0  0
   45.1483   33.4555   46.9303 H   0  0  0  0  0  0  0  0  0  0  0  0
   47.9651   31.4925   44.3732 H   0  0  0  0  0  0  0  0  0  0  0  0
   44.6197   33.9191   39.2591 H   0  0  0  0  0  0  0  0  0  0  0  0
   42.9865   32.2919   41.1037 H   0  0  0  0  0  0  0  0  0  0  0  0
   42.1517   32.6298   39.5495 H   0  0  0  0  0  0  0  0  0  0  0  0
   43.7629   31.8356   39.5495 H   0  0  0  0  0  0  0  0  0  0  0  0
   41.8235   34.7804   40.2593 H   0  0  0  0  0  0  0  0  0  0  0  0
   43.0240   35.9715   39.7918 H   0  0  0  0  0  0  0  0  0  0  0  0
   41.6979   33.8904   38.1563 H   0  0  0  0  0  0  0  0  0  0  0  0
   42.0745   35.4760   37.7403 H   0  0  0  0  0  0  0  0  0  0  0  0
  1  2  1  0
  1  6  1  0
  3  2  1  0
  4  5  1  0
  4  3  1  0
  5  1  1  0
  6  7  2  0
  7  8  1  0
  9  8  2  0
 10  9  1  0
 11  6  1  0
 11 10  2  0
 12 13  1  0
 12  4  1  0
 14 12  1  0
 15 14  1  0
  1 16  1  6
  2 17  1  0
  2 18  1  0
  3 19  1  0
  3 20  1  0
  4 21  1  1
  5 22  1  0
  5 23  1  0
  7 24  1  0
  8 25  1  0
 10 26  1  0
 12 27  1  6
 13 28  1  0
 13 29  1  0
 13 30  1  0
 14 31  1  0
 14 32  1  0
 15 33  1  0
 15 34  1  0
M  ISO  8  16  13  17  13  18  13  19  13  20  13  21  13  22  13  23  13
M  ISO  8  24  14  25  14  26  14  27   8  28   8  29   8  30   8  31   8
M  ISO  3  32   8  33   5  34   5
M  END
>  <minimizedAffinity>  (1) 
-4.21393204

>  <minimizedRMSD>  (1) 
0.181500897

$$$$
