
     RDKit          3D

 28 31  0  0  1  0  0  0  0  0999 V2000
   47.2250   34.6960   41.7190 C   0  0  1  0  0  0  0  0  0  0  0  0
   48.5150   35.4470   41.6550 C   0  0  0  0  0  0  0  0  0  0  0  0
   48.4510   33.9350   41.8600 C   0  0  2  0  0  0  0  0  0  0  0  0
   48.9520   33.1350   40.7350 N   0  0  0  0  0  0  0  0  0  0  0  0
   49.8860   32.1790   40.9060 C   0  0  0  0  0  0  0  0  0  0  0  0
   50.1230   31.6350   39.6780 N   0  0  0  0  0  0  0  0  0  0  0  0
   49.3350   32.2600   38.7640 C   0  0  0  0  0  0  0  0  0  0  0  0
   49.1260   32.1600   37.3980 C   0  0  0  0  0  0  0  0  0  0  0  0
   48.2350   32.9630   36.7790 N   0  0  0  0  0  0  0  0  0  0  0  0
   47.5170   33.8870   37.4480 C   0  0  0  0  0  0  0  0  0  0  0  0
   47.7050   34.0040   38.7870 N   0  0  0  0  0  0  0  0  0  0  0  0
   48.5950   33.2090   39.4400 C   0  0  0  0  0  0  0  0  0  0  0  0
   45.4630   35.9680   42.9830 C   0  0  0  0  0  0  0  0  0  0  0  0
   46.3460   34.8800   42.9300 C   0  0  0  0  0  0  0  0  0  0  0  0
   46.3730   33.9620   44.0190 C   0  0  0  0  0  0  0  0  0  0  0  0
   45.5330   34.1950   45.0590 N   0  0  0  0  0  0  0  0  0  0  0  0
   44.6970   35.2550   45.0740 C   0  0  0  0  0  0  0  0  0  0  0  0
   44.6700   36.1330   44.0340 N   0  0  0  0  0  0  0  0  0  0  0  0
   46.3521   34.6186   41.0541 H   0  0  0  0  0  0  0  0  0  0  0  0
   48.8694   35.8655   40.7015 H   0  0  0  0  0  0  0  0  0  0  0  0
   48.9627   36.3009   42.1846 H   0  0  0  0  0  0  0  0  0  0  0  0
   48.7980   33.2072   42.6083 H   0  0  0  0  0  0  0  0  0  0  0  0
   50.3652   31.8924   41.8538 H   0  0  0  0  0  0  0  0  0  0  0  0
   49.6912   31.4197   36.8128 H   0  0  0  0  0  0  0  0  0  0  0  0
   46.7965   34.5303   36.9217 H   0  0  0  0  0  0  0  0  0  0  0  0
   45.4276   36.6867   42.1510 H   0  0  0  0  0  0  0  0  0  0  0  0
   47.0505   33.0954   44.0169 H   0  0  0  0  0  0  0  0  0  0  0  0
   44.0309   35.4108   45.9354 H   0  0  0  0  0  0  0  0  0  0  0  0
  1  3  1  0
  1 14  1  0
  2  1  1  0
  2  3  1  0
  4  5  1  0
  4  3  1  0
  6  5  2  0
  7 12  2  0
  7  6  1  0
  8  7  1  0
  9  8  2  0
  9 10  1  0
 10 11  2  0
 11 12  1  0
 12  4  1  0
 13 18  2  0
 14 13  1  0
 14 15  2  0
 15 16  1  0
 16 17  2  0
 18 17  1  0
  1 19  1  6
  2 20  1  0
  2 21  1  0
  3 22  1  1
  5 23  1  0
  8 24  1  0
 10 25  1  0
 13 26  1  0
 15 27  1  0
 17 28  1  0
M  ISO  8  19  13  20  13  21  13  22  13  23  14  24  14  25  14  26  14
M  ISO  2  27  14  28  14
M  END
>  <minimizedAffinity>  (1) 
-5.15162563

>  <minimizedRMSD>  (1) 
1.21733153

$$$$
