
     RDKit          3D

 30 32  0  0  1  0  0  0  0  0999 V2000
   47.3660   35.0160   41.4770 C   0  0  1  0  0  0  0  0  0  0  0  0
   48.7760   35.4790   41.4780 C   0  0  0  0  0  0  0  0  0  0  0  0
   48.4030   34.0500   41.1520 C   0  0  2  0  0  0  0  0  0  0  0  0
   45.5280   35.6600   43.0240 C   0  0  0  0  0  0  0  0  0  0  0  0
   46.6360   34.8410   42.7690 C   0  0  0  0  0  0  0  0  0  0  0  0
   46.9890   33.8720   43.7280 C   0  0  0  0  0  0  0  0  0  0  0  0
   46.2420   33.7840   44.8440 N   0  0  0  0  0  0  0  0  0  0  0  0
   45.1720   34.5830   45.0800 C   0  0  0  0  0  0  0  0  0  0  0  0
   44.8130   35.5280   44.1610 N   0  0  0  0  0  0  0  0  0  0  0  0
   48.3540   32.7140   37.1340 C   0  0  0  0  0  0  0  0  0  0  0  0
   48.1440   34.0440   37.4160 C   0  0  0  0  0  0  0  0  0  0  0  0
   48.1660   34.4560   38.7410 C   0  0  0  0  0  0  0  0  0  0  0  0
   48.3900   33.5650   39.7610 C   0  0  0  0  0  0  0  0  0  0  0  0
   48.5970   32.2270   39.4300 C   0  0  0  0  0  0  0  0  0  0  0  0
   48.5830   31.7810   38.1230 C   0  0  0  0  0  0  0  0  0  0  0  0
   48.3540   32.0510   35.5010 S   0  0  0  0  0  0  0  0  0  0  0  0
   46.9580   31.5640   35.1950 O   0  0  0  0  0  0  0  0  0  0  0  0
   48.8380   33.0270   34.4920 O   0  0  0  0  0  0  0  0  0  0  0  0
   46.4551   35.3801   40.9793 H   0  0  0  0  0  0  0  0  0  0  0  0
   49.1401   36.1520   40.6877 H   0  0  0  0  0  0  0  0  0  0  0  0
   49.4429   35.9759   42.1980 H   0  0  0  0  0  0  0  0  0  0  0  0
   48.7622   33.0829   41.5337 H   0  0  0  0  0  0  0  0  0  0  0  0
   45.2365   36.4221   42.2863 H   0  0  0  0  0  0  0  0  0  0  0  0
   47.8503   33.2064   43.5695 H   0  0  0  0  0  0  0  0  0  0  0  0
   44.5944   34.4705   46.0094 H   0  0  0  0  0  0  0  0  0  0  0  0
   47.9622   34.7668   36.6070 H   0  0  0  0  0  0  0  0  0  0  0  0
   48.0007   35.5172   38.9786 H   0  0  0  0  0  0  0  0  0  0  0  0
   48.7776   31.5017   40.2371 H   0  0  0  0  0  0  0  0  0  0  0  0
   48.7484   30.7210   37.8801 H   0  0  0  0  0  0  0  0  0  0  0  0
   49.2355   31.0043   35.4357 H   0  0  0  0  0  0  0  0  0  0  0  0
  1  2  1  0
  1  5  1  0
  3  1  1  0
  3  2  1  0
  4  9  2  0
  5  4  1  0
  5  6  2  0
  6  7  1  0
  7  8  2  0
  9  8  1  0
 10 11  2  0
 10 15  1  0
 11 12  1  0
 12 13  2  0
 13  3  1  0
 14 13  1  0
 15 14  2  0
 16 10  1  0
 17 16  2  0
 18 16  2  0
  1 19  1  6
  2 20  1  0
  2 21  1  0
  3 22  1  1
  4 23  1  0
  6 24  1  0
  8 25  1  0
 11 26  1  0
 12 27  1  0
 14 28  1  0
 15 29  1  0
 16 30  1  0
M  ISO  8  19  13  20  13  21  13  22  13  23  14  24  14  25  14  26  14
M  ISO  4  27  14  28  14  29  14  30  11
M  END
>  <minimizedAffinity>  (1) 
-5.10489082

>  <minimizedRMSD>  (1) 
1.53095567

$$$$
