
     RDKit          3D

 25 27  0  0  1  0  0  0  0  0999 V2000
   46.7180   35.1550   41.8290 C   0  0  1  0  0  0  0  0  0  0  0  0
   48.1930   35.2950   41.6760 C   0  0  0  0  0  0  0  0  0  0  0  0
   47.4210   34.0670   41.1870 C   0  0  2  0  0  0  0  0  0  0  0  0
   45.1390   35.8240   43.6460 C   0  0  0  0  0  0  0  0  0  0  0  0
   46.1440   34.9640   43.1830 C   0  0  0  0  0  0  0  0  0  0  0  0
   46.5450   33.9070   44.0260 C   0  0  0  0  0  0  0  0  0  0  0  0
   45.9330   33.7810   45.2400 N   0  0  0  0  0  0  0  0  0  0  0  0
   44.9640   34.6340   45.6540 C   0  0  0  0  0  0  0  0  0  0  0  0
   44.5700   35.6610   44.8450 N   0  0  0  0  0  0  0  0  0  0  0  0
   47.2960   33.8710   39.6990 C   0  0  0  0  0  0  0  0  0  0  0  0
   46.2100   33.1990   39.1710 C   0  0  0  0  0  0  0  0  0  0  0  0
   46.0750   33.0100   37.8140 C   0  0  0  0  0  0  0  0  0  0  0  0
   47.0380   33.5010   37.0110 N   0  0  0  0  0  0  0  0  0  0  0  0
   48.1080   34.1610   37.4970 C   0  0  0  0  0  0  0  0  0  0  0  0
   48.2160   34.3320   38.8190 N   0  0  0  0  0  0  0  0  0  0  0  0
   45.8578   35.7767   41.5398 H   0  0  0  0  0  0  0  0  0  0  0  0
   48.6133   36.0126   40.9560 H   0  0  0  0  0  0  0  0  0  0  0  0
   49.0464   35.4821   42.3444 H   0  0  0  0  0  0  0  0  0  0  0  0
   47.4705   32.9815   41.3580 H   0  0  0  0  0  0  0  0  0  0  0  0
   44.8094   36.6555   43.0058 H   0  0  0  0  0  0  0  0  0  0  0  0
   47.3301   33.2026   43.7138 H   0  0  0  0  0  0  0  0  0  0  0  0
   44.4959   34.4990   46.6402 H   0  0  0  0  0  0  0  0  0  0  0  0
   45.4375   32.8070   39.8489 H   0  0  0  0  0  0  0  0  0  0  0  0
   45.2081   32.4750   37.3990 H   0  0  0  0  0  0  0  0  0  0  0  0
   48.8795   34.5524   36.8176 H   0  0  0  0  0  0  0  0  0  0  0  0
  1  5  1  0
  2  1  1  0
  3  2  1  0
  3  1  1  0
  4  9  2  0
  5  4  1  0
  5  6  2  0
  6  7  1  0
  7  8  2  0
  9  8  1  0
 10  3  1  0
 11 10  2  0
 12 11  1  0
 13 14  1  0
 13 12  2  0
 14 15  2  0
 15 10  1  0
  1 16  1  6
  2 17  1  0
  2 18  1  0
  3 19  1  1
  4 20  1  0
  6 21  1  0
  8 22  1  0
 11 23  1  0
 12 24  1  0
 14 25  1  0
M  ISO  8  16  13  17  13  18  13  19  13  20  14  21  14  22  14  23  14
M  ISO  2  24  14  25  14
M  END
>  <minimizedAffinity>  (1) 
-4.76843405

>  <minimizedRMSD>  (1) 
2.39922667

$$$$
