
     RDKit          3D

 26 28  0  0  1  0  0  0  0  0999 V2000
   47.4910   34.5040   42.0620 C   0  0  1  0  0  0  0  0  0  0  0  0
   48.4850   35.5610   41.7300 C   0  0  0  0  0  0  0  0  0  0  0  0
   48.8720   34.2520   42.4140 C   0  0  2  0  0  0  0  0  0  0  0  0
   45.6350   35.8590   43.0520 C   0  0  0  0  0  0  0  0  0  0  0  0
   46.5000   34.7570   43.1650 C   0  0  0  0  0  0  0  0  0  0  0  0
   46.3900   33.9050   44.3020 C   0  0  0  0  0  0  0  0  0  0  0  0
   45.4420   34.2190   45.2150 N   0  0  0  0  0  0  0  0  0  0  0  0
   44.6180   35.2880   45.0860 C   0  0  0  0  0  0  0  0  0  0  0  0
   44.7230   36.1030   43.9980 N   0  0  0  0  0  0  0  0  0  0  0  0
   49.6020   33.2390   41.5880 C   0  0  0  0  0  0  0  0  0  0  0  0
   50.8770   32.8030   41.8890 C   0  0  0  0  0  0  0  0  0  0  0  0
   51.5600   31.8700   41.1350 C   0  0  0  0  0  0  0  0  0  0  0  0
   50.9570   31.3300   40.0180 C   0  0  0  0  0  0  0  0  0  0  0  0
   49.6860   31.7660   39.7200 C   0  0  0  0  0  0  0  0  0  0  0  0
   49.0550   32.6750   40.4780 N   0  0  0  0  0  0  0  0  0  0  0  0
   46.7402   33.9551   41.4747 H   0  0  0  0  0  0  0  0  0  0  0  0
   48.7703   35.7489   40.6844 H   0  0  0  0  0  0  0  0  0  0  0  0
   48.6040   36.6333   41.9446 H   0  0  0  0  0  0  0  0  0  0  0  0
   49.4073   33.9882   43.3380 H   0  0  0  0  0  0  0  0  0  0  0  0
   45.7091   36.5248   42.1795 H   0  0  0  0  0  0  0  0  0  0  0  0
   47.0461   33.0316   44.4316 H   0  0  0  0  0  0  0  0  0  0  0  0
   43.8645   35.4978   45.8594 H   0  0  0  0  0  0  0  0  0  0  0  0
   51.3747   33.2211   42.7764 H   0  0  0  0  0  0  0  0  0  0  0  0
   52.5756   31.5600   41.4222 H   0  0  0  0  0  0  0  0  0  0  0  0
   51.4694   30.5838   39.3930 H   0  0  0  0  0  0  0  0  0  0  0  0
   49.1738   31.3579   38.8362 H   0  0  0  0  0  0  0  0  0  0  0  0
  1  3  1  0
  1  5  1  0
  2  1  1  0
  2  3  1  0
  4  5  2  0
  4  9  1  0
  5  6  1  0
  6  7  2  0
  8  7  1  0
  9  8  2  0
 10 11  2  0
 10  3  1  0
 12 11  1  0
 13 12  2  0
 14 13  1  0
 14 15  2  0
 15 10  1  0
  1 16  1  6
  2 17  1  0
  2 18  1  0
  3 19  1  1
  4 20  1  0
  6 21  1  0
  8 22  1  0
 11 23  1  0
 12 24  1  0
 13 25  1  0
 14 26  1  0
M  ISO  8  16  13  17  13  18  13  19  13  20  14  21  14  22  14  23  14
M  ISO  3  24  14  25  14  26  14
M  END
>  <minimizedAffinity>  (1) 
-4.80723619

>  <minimizedRMSD>  (1) 
1.38670516

$$$$
