
     RDKit          3D

 30 32  0  0  1  0  0  0  0  0999 V2000
   47.3760   34.4920   42.0950 C   0  0  1  0  0  0  0  0  0  0  0  0
   48.3090   35.5470   41.6210 C   0  0  0  0  0  0  0  0  0  0  0  0
   48.7900   34.3440   42.4020 C   0  0  2  0  0  0  0  0  0  0  0  0
   45.5830   35.8870   43.1160 C   0  0  0  0  0  0  0  0  0  0  0  0
   46.4270   34.7730   43.2000 C   0  0  0  0  0  0  0  0  0  0  0  0
   46.3200   33.9360   44.3200 C   0  0  0  0  0  0  0  0  0  0  0  0
   45.3890   34.2590   45.2690 N   0  0  0  0  0  0  0  0  0  0  0  0
   44.5850   35.3470   45.1550 C   0  0  0  0  0  0  0  0  0  0  0  0
   44.6850   36.1680   44.0670 N   0  0  0  0  0  0  0  0  0  0  0  0
   49.5120   33.2300   41.7510 C   0  0  0  0  0  0  0  0  0  0  0  0
   49.0010   31.8480   41.9840 C   0  0  0  0  0  0  0  0  0  0  0  0
   50.0880   31.0200   41.2900 C   0  0  0  0  0  0  0  0  0  0  0  0
   51.3510   31.8680   41.3560 C   0  0  0  0  0  0  0  0  0  0  0  0
   50.9540   33.0640   42.2100 C   0  0  0  0  0  0  0  0  0  0  0  0
   46.6223   33.8659   41.5950 H   0  0  0  0  0  0  0  0  0  0  0  0
   48.5410   35.6429   40.5500 H   0  0  0  0  0  0  0  0  0  0  0  0
   48.3852   36.6392   41.7276 H   0  0  0  0  0  0  0  0  0  0  0  0
   49.4095   34.2331   43.3042 H   0  0  0  0  0  0  0  0  0  0  0  0
   45.6606   36.5508   42.2423 H   0  0  0  0  0  0  0  0  0  0  0  0
   46.9625   33.0502   44.4317 H   0  0  0  0  0  0  0  0  0  0  0  0
   43.8494   35.5688   45.9422 H   0  0  0  0  0  0  0  0  0  0  0  0
   49.3771   33.5571   40.7095 H   0  0  0  0  0  0  0  0  0  0  0  0
   48.9379   31.6152   43.0572 H   0  0  0  0  0  0  0  0  0  0  0  0
   47.9826   31.6693   41.6085 H   0  0  0  0  0  0  0  0  0  0  0  0
   49.8117   30.8230   40.2437 H   0  0  0  0  0  0  0  0  0  0  0  0
   50.2275   30.0424   41.7746 H   0  0  0  0  0  0  0  0  0  0  0  0
   52.1726   31.3081   41.8267 H   0  0  0  0  0  0  0  0  0  0  0  0
   51.7127   32.1632   40.3600 H   0  0  0  0  0  0  0  0  0  0  0  0
   51.5624   33.9516   41.9819 H   0  0  0  0  0  0  0  0  0  0  0  0
   51.0891   32.9320   43.2937 H   0  0  0  0  0  0  0  0  0  0  0  0
  1  3  1  0
  1  5  1  0
  2  1  1  0
  2  3  1  0
  4  5  2  0
  4  9  1  0
  5  6  1  0
  6  7  2  0
  8  7  1  0
  9  8  2  0
 10 11  1  0
 10 14  1  0
 10  3  1  0
 12 13  1  0
 12 11  1  0
 13 14  1  0
  1 15  1  6
  2 16  1  0
  2 17  1  0
  3 18  1  1
  4 19  1  0
  6 20  1  0
  8 21  1  0
 10 22  1  0
 11 23  1  0
 11 24  1  0
 12 25  1  0
 12 26  1  0
 13 27  1  0
 13 28  1  0
 14 29  1  0
 14 30  1  0
M  ISO  8  15  13  16  13  17  13  18  13  19  14  20  14  21  14  22  13
M  ISO  8  23  13  24  13  25  13  26  13  27  13  28  13  29  13  30  13
M  END
>  <minimizedAffinity>  (1) 
-4.60830212

>  <minimizedRMSD>  (1) 
1.40859437

$$$$
