
     RDKit          3D

 24 26  0  0  1  0  0  0  0  0999 V2000
   47.0020   35.0890   41.6510 C   0  0  1  0  0  0  0  0  0  0  0  0
   48.4660   35.3810   41.7080 C   0  0  0  0  0  0  0  0  0  0  0  0
   47.9000   34.0050   41.3300 C   0  0  2  0  0  0  0  0  0  0  0  0
   45.3050   36.0600   43.2340 C   0  0  0  0  0  0  0  0  0  0  0  0
   46.2420   35.0650   42.9390 C   0  0  0  0  0  0  0  0  0  0  0  0
   46.4300   34.0240   43.8970 C   0  0  0  0  0  0  0  0  0  0  0  0
   45.6970   34.0490   45.0390 N   0  0  0  0  0  0  0  0  0  0  0  0
   44.8020   35.0370   45.2750 C   0  0  0  0  0  0  0  0  0  0  0  0
   44.6240   36.0190   44.3740 N   0  0  0  0  0  0  0  0  0  0  0  0
   48.2590   33.6100   39.9700 C   0  0  0  0  0  0  0  0  0  0  0  0
   48.0240   34.1240   38.7480 C   0  0  0  0  0  0  0  0  0  0  0  0
   48.5220   33.4810   37.6630 C   0  0  0  0  0  0  0  0  0  0  0  0
   49.2540   32.3200   37.8430 C   0  0  0  0  0  0  0  0  0  0  0  0
   49.2280   32.1410   39.6520 S   0  0  0  0  0  0  0  0  0  0  0  0
   46.1472   35.5355   41.1220 H   0  0  0  0  0  0  0  0  0  0  0  0
   48.9382   36.0189   40.9464 H   0  0  0  0  0  0  0  0  0  0  0  0
   49.1704   35.7732   42.4564 H   0  0  0  0  0  0  0  0  0  0  0  0
   47.9057   32.9622   41.6801 H   0  0  0  0  0  0  0  0  0  0  0  0
   45.1312   36.8788   42.5203 H   0  0  0  0  0  0  0  0  0  0  0  0
   47.1548   33.2172   43.7134 H   0  0  0  0  0  0  0  0  0  0  0  0
   44.2183   35.0364   46.2073 H   0  0  0  0  0  0  0  0  0  0  0  0
   47.4390   35.0483   38.6320 H   0  0  0  0  0  0  0  0  0  0  0  0
   48.3464   33.8772   36.6520 H   0  0  0  0  0  0  0  0  0  0  0  0
   49.7276   31.6745   37.0887 H   0  0  0  0  0  0  0  0  0  0  0  0
  1  2  1  0
  1  5  1  0
  3  1  1  0
  3  2  1  0
  4  9  2  0
  5  4  1  0
  5  6  2  0
  6  7  1  0
  7  8  2  0
  9  8  1  0
 10  3  1  0
 11 10  2  0
 12 13  2  0
 12 11  1  0
 13 14  1  0
 14 10  1  0
  1 15  1  6
  2 16  1  0
  2 17  1  0
  3 18  1  1
  4 19  1  0
  6 20  1  0
  8 21  1  0
 11 22  1  0
 12 23  1  0
 13 24  1  0
M  ISO  8  15  13  16  13  17  13  18  13  19  14  20  14  21  14  22  14
M  ISO  2  23  14  24  14
M  END
>  <minimizedAffinity>  (1) 
-4.52431345

>  <minimizedRMSD>  (1) 
1.34564638

$$$$
