
     RDKit          3D

 26 27  0  0  1  0  0  0  0  0999 V2000
   47.4230   34.3830   42.1310 C   0  0  1  0  0  0  0  0  0  0  0  0
   48.3230   35.4420   41.5960 C   0  0  0  0  0  0  0  0  0  0  0  0
   48.8260   34.2840   42.4670 C   0  0  2  0  0  0  0  0  0  0  0  0
   45.6310   35.8760   43.0260 C   0  0  0  0  0  0  0  0  0  0  0  0
   46.4410   34.7430   43.1810 C   0  0  0  0  0  0  0  0  0  0  0  0
   46.2570   33.9580   44.3500 C   0  0  0  0  0  0  0  0  0  0  0  0
   45.3080   34.3480   45.2490 N   0  0  0  0  0  0  0  0  0  0  0  0
   44.5450   35.4500   45.0600 C   0  0  0  0  0  0  0  0  0  0  0  0
   44.7140   36.2120   43.9420 N   0  0  0  0  0  0  0  0  0  0  0  0
   49.5960   33.1700   41.7640 C   0  0  0  0  0  0  0  0  0  0  0  0
   51.0160   33.0920   42.2590 C   0  0  0  0  0  0  0  0  0  0  0  0
   48.8360   31.8810   42.0860 C   0  0  0  0  0  0  0  0  0  0  0  0
   46.7054   33.6862   41.6734 H   0  0  0  0  0  0  0  0  0  0  0  0
   48.5647   35.4791   40.5235 H   0  0  0  0  0  0  0  0  0  0  0  0
   48.3665   36.5405   41.6327 H   0  0  0  0  0  0  0  0  0  0  0  0
   49.4107   34.2152   43.3962 H   0  0  0  0  0  0  0  0  0  0  0  0
   45.7513   36.5040   42.1309 H   0  0  0  0  0  0  0  0  0  0  0  0
   46.8645   33.0580   44.5262 H   0  0  0  0  0  0  0  0  0  0  0  0
   43.7889   35.7307   45.8081 H   0  0  0  0  0  0  0  0  0  0  0  0
   49.6591   33.3476   40.6803 H   0  0  0  0  0  0  0  0  0  0  0  0
   51.0214   33.0917   43.3590 H   0  0  0  0  0  0  0  0  0  0  0  0
   51.4827   32.1669   41.8898 H   0  0  0  0  0  0  0  0  0  0  0  0
   51.5812   33.9605   41.8898 H   0  0  0  0  0  0  0  0  0  0  0  0
   48.7648   31.7602   43.1770 H   0  0  0  0  0  0  0  0  0  0  0  0
   47.8249   31.9344   41.6562 H   0  0  0  0  0  0  0  0  0  0  0  0
   49.3722   31.0221   41.6562 H   0  0  0  0  0  0  0  0  0  0  0  0
  1  3  1  0
  1  5  1  0
  2  1  1  0
  2  3  1  0
  4  5  2  0
  4  9  1  0
  5  6  1  0
  6  7  2  0
  8  7  1  0
  9  8  2  0
 10 12  1  0
 10 11  1  0
 10  3  1  0
  1 13  1  6
  2 14  1  0
  2 15  1  0
  3 16  1  1
  4 17  1  0
  6 18  1  0
  8 19  1  0
 10 20  1  0
 11 21  1  0
 11 22  1  0
 11 23  1  0
 12 24  1  0
 12 25  1  0
 12 26  1  0
M  ISO  8  13  13  14  13  15  13  16  13  17  14  18  14  19  14  20   8
M  ISO  6  21   8  22   8  23   8  24   8  25   8  26   8
M  END
>  <minimizedAffinity>  (1) 
-4.24036455

>  <minimizedRMSD>  (1) 
1.19902956

$$$$
