
     RDKit          3D

 19 20  0  0  1  0  0  0  0  0999 V2000
   47.7480   34.9180   41.5440 C   0  0  1  0  0  0  0  0  0  0  0  0
   48.8020   35.9770   41.5280 C   0  0  0  0  0  0  0  0  0  0  0  0
   49.1190   34.4920   41.7010 C   0  0  1  0  0  0  0  0  0  0  0  0
   45.6990   35.7710   42.7750 C   0  0  0  0  0  0  0  0  0  0  0  0
   46.7960   34.8760   42.6890 C   0  0  0  0  0  0  0  0  0  0  0  0
   46.9500   33.9340   43.7170 C   0  0  0  0  0  0  0  0  0  0  0  0
   46.0620   33.9180   44.7330 N   0  0  0  0  0  0  0  0  0  0  0  0
   45.0270   34.7930   44.7750 C   0  0  0  0  0  0  0  0  0  0  0  0
   44.8560   35.7070   43.8010 N   0  0  0  0  0  0  0  0  0  0  0  0
   49.7600   34.1540   42.9260 N   0  0  0  0  0  0  0  0  0  0  0  0
   46.9441   34.6128   40.8580 H   0  0  0  0  0  0  0  0  0  0  0  0
   49.0567   36.4966   40.5925 H   0  0  0  0  0  0  0  0  0  0  0  0
   49.0063   36.9033   42.0851 H   0  0  0  0  0  0  0  0  0  0  0  0
   49.6731   33.6846   41.1999 H   0  0  0  0  0  0  0  0  0  0  0  0
   45.5447   36.5232   41.9874 H   0  0  0  0  0  0  0  0  0  0  0  0
   47.7842   33.2173   43.6952 H   0  0  0  0  0  0  0  0  0  0  0  0
   44.3181   34.7557   45.6153 H   0  0  0  0  0  0  0  0  0  0  0  0
   49.1753   34.4623   43.7159 H   0  0  0  0  0  0  0  0  0  0  0  0
   49.8920   33.1336   42.9743 H   0  0  0  0  0  0  0  0  0  0  0  0
  1  3  1  0
  1  5  1  0
  2  1  1  0
  2  3  1  0
  3 10  1  0
  4  9  2  0
  5  4  1  0
  5  6  2  0
  6  7  1  0
  7  8  2  0
  9  8  1  0
  1 11  1  6
  2 12  1  0
  2 13  1  0
  3 14  1  6
  4 15  1  0
  6 16  1  0
  8 17  1  0
 10 18  1  0
 10 19  1  0
M  ISO  8  11  13  12  13  13  13  14  13  15  14  16  14  17  14  18   5
M  ISO  1  19   5
M  END
>  <minimizedAffinity>  (1) 
-3.95143747

>  <minimizedRMSD>  (1) 
0.204435542

$$$$
