
     RDKit          3D

 39 43  0  0  1  0  0  0  0  0999 V2000
   45.8630   33.9930   43.9520 N   0  0  0  0  0  0  0  0  0  0  0  0
   45.0860   34.9120   44.5850 C   0  0  0  0  0  0  0  0  0  0  0  0
   44.9340   34.6050   45.8910 N   0  0  0  0  0  0  0  0  0  0  0  0
   45.5990   33.4950   46.1350 C   0  0  0  0  0  0  0  0  0  0  0  0
   45.7950   32.7400   47.2820 C   0  0  0  0  0  0  0  0  0  0  0  0
   46.5460   31.6390   47.2260 N   0  0  0  0  0  0  0  0  0  0  0  0
   47.1200   31.2400   46.0790 C   0  0  0  0  0  0  0  0  0  0  0  0
   46.9250   31.9790   44.9620 N   0  0  0  0  0  0  0  0  0  0  0  0
   46.1690   33.1140   44.9550 C   0  0  0  0  0  0  0  0  0  0  0  0
   45.6670   34.0890   41.3750 C   0  0  1  0  0  0  0  0  0  0  0  0
   46.4990   35.1800   41.9220 C   0  0  0  0  0  0  0  0  0  0  0  0
   46.3420   33.8360   42.6280 C   0  0  1  0  0  0  0  0  0  0  0  0
   43.5650   35.4890   41.2170 C   0  0  0  0  0  0  0  0  0  0  0  0
   44.2100   34.2350   41.2480 C   0  0  0  0  0  0  0  0  0  0  0  0
   43.4080   33.1130   41.1460 C   0  0  0  0  0  0  0  0  0  0  0  0
   42.0590   33.2690   41.0220 N   0  0  0  0  0  0  0  0  0  0  0  0
   41.4770   34.4850   40.9950 C   0  0  0  0  0  0  0  0  0  0  0  0
   42.2380   35.6020   41.0950 N   0  0  0  0  0  0  0  0  0  0  0  0
   47.9390   30.0310   46.0340 C   0  0  0  0  0  0  0  0  0  0  0  0
   48.6000   29.7090   44.8650 C   0  0  0  0  0  0  0  0  0  0  0  0
   49.3720   28.5690   44.8260 C   0  0  0  0  0  0  0  0  0  0  0  0
   49.4250   27.8270   45.9770 C   0  0  0  0  0  0  0  0  0  0  0  0
   48.7600   28.1510   47.1550 C   0  0  0  0  0  0  0  0  0  0  0  0
   48.0180   29.2750   47.1450 N   0  0  0  0  0  0  0  0  0  0  0  0
   45.2120   33.1200   48.5220 N   0  0  0  0  0  0  0  0  0  0  0  0
   44.6396   35.7908   44.0968 H   0  0  0  0  0  0  0  0  0  0  0  0
   45.6348   33.5401   40.4223 H   0  0  0  0  0  0  0  0  0  0  0  0
   47.4513   35.4485   41.4414 H   0  0  0  0  0  0  0  0  0  0  0  0
   46.3457   36.2366   42.1869 H   0  0  0  0  0  0  0  0  0  0  0  0
   46.8869   32.9309   42.9344 H   0  0  0  0  0  0  0  0  0  0  0  0
   44.1725   36.4027   41.2956 H   0  0  0  0  0  0  0  0  0  0  0  0
   43.8528   32.1071   41.1647 H   0  0  0  0  0  0  0  0  0  0  0  0
   40.3852   34.5704   40.8919 H   0  0  0  0  0  0  0  0  0  0  0  0
   48.5113   30.3535   43.9780 H   0  0  0  0  0  0  0  0  0  0  0  0
   49.9173   28.2699   43.9187 H   0  0  0  0  0  0  0  0  0  0  0  0
   50.0356   26.9121   45.9687 H   0  0  0  0  0  0  0  0  0  0  0  0
   48.8365   27.5192   48.0522 H   0  0  0  0  0  0  0  0  0  0  0  0
   45.3695   32.5459   49.3625 H   0  0  0  0  0  0  0  0  0  0  0  0
   44.6322   33.9694   48.5797 H   0  0  0  0  0  0  0  0  0  0  0  0
  1  2  1  0
  1  9  1  0
  2  3  2  0
  3  4  1  0
  4  5  2  0
  5 25  1  0
  6  5  1  0
  7  6  2  0
  8  7  1  0
  9  8  2  0
  9  4  1  0
 10 11  1  0
 10 12  1  0
 11 12  1  0
 12  1  1  0
 13 14  2  0
 14 10  1  0
 15 14  1  0
 16 15  2  0
 17 16  1  0
 17 18  2  0
 18 13  1  0
 19  7  1  0
 19 24  1  0
 20 19  2  0
 21 20  1  0
 21 22  2  0
 22 23  1  0
 24 23  2  0
  2 26  1  0
 10 27  1  6
 11 28  1  0
 11 29  1  0
 12 30  1  6
 13 31  1  0
 15 32  1  0
 17 33  1  0
 20 34  1  0
 21 35  1  0
 22 36  1  0
 23 37  1  0
 25 38  1  0
 25 39  1  0
M  ISO  8  26  14  27  13  28  13  29  13  30  13  31  14  32  14  33  14
M  ISO  4  34  14  35  14  36  14  37  14
M  END
>  <minimizedAffinity>  (1) 
-5.6792655

>  <minimizedRMSD>  (1) 
0.214421093

$$$$
