
     RDKit          3D

 31 34  0  0  1  0  0  0  0  0999 V2000
   45.5490   34.1270   41.3770 C   0  0  1  0  0  0  0  0  0  0  0  0
   46.4040   35.2010   41.9260 C   0  0  0  0  0  0  0  0  0  0  0  0
   46.2650   33.8320   42.5980 C   0  0  1  0  0  0  0  0  0  0  0  0
   45.8430   33.9500   43.9470 N   0  0  0  0  0  0  0  0  0  0  0  0
   45.0860   34.8590   44.6320 C   0  0  0  0  0  0  0  0  0  0  0  0
   44.9950   34.5210   45.9350 N   0  0  0  0  0  0  0  0  0  0  0  0
   45.6770   33.4060   46.1250 C   0  0  0  0  0  0  0  0  0  0  0  0
   45.9320   32.6290   47.2380 C   0  0  0  0  0  0  0  0  0  0  0  0
   46.6910   31.5240   47.1360 N   0  0  0  0  0  0  0  0  0  0  0  0
   47.2040   31.1690   45.9470 C   0  0  0  0  0  0  0  0  0  0  0  0
   46.9550   31.9280   44.8610 N   0  0  0  0  0  0  0  0  0  0  0  0
   46.1940   33.0580   44.9120 C   0  0  0  0  0  0  0  0  0  0  0  0
   45.3940   32.9830   48.5150 N   0  0  0  0  0  0  0  0  0  0  0  0
   48.2200   29.7080   45.7520 S   0  0  0  0  0  0  0  0  0  0  0  0
   43.4500   35.5470   41.2970 C   0  0  0  0  0  0  0  0  0  0  0  0
   44.0870   34.2860   41.3180 C   0  0  0  0  0  0  0  0  0  0  0  0
   43.2750   33.1650   41.2680 C   0  0  0  0  0  0  0  0  0  0  0  0
   41.9240   33.3300   41.2000 N   0  0  0  0  0  0  0  0  0  0  0  0
   41.3470   34.5470   41.1810 C   0  0  0  0  0  0  0  0  0  0  0  0
   42.1190   35.6590   41.2300 N   0  0  0  0  0  0  0  0  0  0  0  0
   45.4830   33.6081   40.4093 H   0  0  0  0  0  0  0  0  0  0  0  0
   47.3400   35.4811   41.4206 H   0  0  0  0  0  0  0  0  0  0  0  0
   46.2643   36.2498   42.2270 H   0  0  0  0  0  0  0  0  0  0  0  0
   46.8112   32.9129   42.8565 H   0  0  0  0  0  0  0  0  0  0  0  0
   44.6151   35.7455   44.1821 H   0  0  0  0  0  0  0  0  0  0  0  0
   45.5912   32.3955   49.3377 H   0  0  0  0  0  0  0  0  0  0  0  0
   44.8093   33.8254   48.6119 H   0  0  0  0  0  0  0  0  0  0  0  0
   48.5595   29.2198   46.9862 H   0  0  0  0  0  0  0  0  0  0  0  0
   44.0638   36.4589   41.3367 H   0  0  0  0  0  0  0  0  0  0  0  0
   43.7141   32.1566   41.2830 H   0  0  0  0  0  0  0  0  0  0  0  0
   40.2521   34.6376   41.1259 H   0  0  0  0  0  0  0  0  0  0  0  0
  1  2  1  0
  1  3  1  0
  2  3  1  0
  3  4  1  0
  4  5  1  0
  4 12  1  0
  5  6  2  0
  6  7  1  0
  7  8  2  0
  8 13  1  0
  9  8  1  0
 10  9  2  0
 11 12  2  0
 11 10  1  0
 12  7  1  0
 14 10  1  0
 15 16  2  0
 16  1  1  0
 17 16  1  0
 18 17  2  0
 19 18  1  0
 19 20  2  0
 20 15  1  0
  1 21  1  6
  2 22  1  0
  2 23  1  0
  3 24  1  6
  5 25  1  0
 13 26  1  0
 13 27  1  0
 14 28  1  0
 15 29  1  0
 17 30  1  0
 19 31  1  0
M  ISO  8  21  13  22  13  23  13  24  13  25  14  28  11  29  14  30  14
M  ISO  1  31  14
M  END
>  <minimizedAffinity>  (1) 
-5.45883512

>  <minimizedRMSD>  (1) 
0.0420893766

$$$$
