
     RDKit          3D

 30 32  0  0  0  0  0  0  0  0999 V2000
   46.5620   34.3880   41.6290 N   0  0  0  0  0  0  0  0  0  0  0  0
   45.9750   33.7880   40.5860 C   0  0  0  0  0  0  0  0  0  0  0  0
   46.5910   33.6070   39.3730 C   0  0  0  0  0  0  0  0  0  0  0  0
   47.8880   34.1040   39.3140 C   0  0  0  0  0  0  0  0  0  0  0  0
   48.5380   33.9830   38.2310 O   0  0  0  0  0  0  0  0  0  0  0  0
   48.5130   34.7190   40.3570 N   0  0  0  0  0  0  0  0  0  0  0  0
   47.8340   34.8580   41.5250 C   0  0  0  0  0  0  0  0  0  0  0  0
   48.4590   35.4270   42.4350 O   0  0  0  0  0  0  0  0  0  0  0  0
   44.6550   36.0540   44.3170 C   0  0  0  0  0  0  0  0  0  0  0  0
   45.2440   35.7700   43.0620 C   0  0  0  0  0  0  0  0  0  0  0  0
   46.0050   34.6110   42.8990 C   0  0  0  0  0  0  0  0  0  0  0  0
   46.1450   33.7890   43.9880 N   0  0  0  0  0  0  0  0  0  0  0  0
   45.5680   34.0920   45.1690 C   0  0  0  0  0  0  0  0  0  0  0  0
   44.8340   35.1980   45.3530 N   0  0  0  0  0  0  0  0  0  0  0  0
   45.7780   33.1590   46.2530 C   0  0  0  0  0  0  0  0  0  0  0  0
   45.2390   33.0590   47.4780 C   0  0  0  0  0  0  0  0  0  0  0  0
   45.5950   32.0750   48.3540 C   0  0  0  0  0  0  0  0  0  0  0  0
   46.6100   31.1680   47.8040 C   0  0  0  0  0  0  0  0  0  0  0  0
   46.9280   31.8100   46.1430 S   0  0  0  0  0  0  0  0  0  0  0  0
   45.9330   32.9440   38.2450 C   0  0  0  0  0  0  0  0  0  0  0  0
   44.9452   33.4209   40.7076 H   0  0  0  0  0  0  0  0  0  0  0  0
   49.4767   35.0699   40.2620 H   0  0  0  0  0  0  0  0  0  0  0  0
   44.0543   36.9657   44.4514 H   0  0  0  0  0  0  0  0  0  0  0  0
   45.1026   36.4604   42.2174 H   0  0  0  0  0  0  0  0  0  0  0  0
   44.4834   33.7964   47.7869 H   0  0  0  0  0  0  0  0  0  0  0  0
   45.1679   31.9726   49.3625 H   0  0  0  0  0  0  0  0  0  0  0  0
   47.0719   30.2965   48.2910 H   0  0  0  0  0  0  0  0  0  0  0  0
   45.2056   32.2111   38.6241 H   0  0  0  0  0  0  0  0  0  0  0  0
   45.4121   33.6942   37.6319 H   0  0  0  0  0  0  0  0  0  0  0  0
   46.6871   32.4288   37.6319 H   0  0  0  0  0  0  0  0  0  0  0  0
  1 11  1  0
  2  1  1  0
  3  2  2  0
  4  3  1  0
  4  6  1  0
  5  4  2  0
  6  7  1  0
  7  1  1  0
  7  8  2  0
  9 14  2  0
 10  9  1  0
 11 10  2  0
 11 12  1  0
 12 13  2  0
 13 14  1  0
 13 15  1  0
 15 16  2  0
 16 17  1  0
 18 17  2  0
 19 15  1  0
 19 18  1  0
 20  3  1  0
  2 21  1  0
  6 22  1  0
  9 23  1  0
 10 24  1  0
 16 25  1  0
 17 26  1  0
 18 27  1  0
 20 28  1  0
 20 29  1  0
 20 30  1  0
M  ISO  8  21  14  22   9  23  14  24  14  25  14  26  14  27  14  28   8
M  ISO  2  29   8  30   8
M  END
>  <minimizedAffinity>  (1) 
-5.9307332

>  <minimizedRMSD>  (1) 
0.26112774

$$$$
