
     RDKit          3D

 35 38  0  0  0  0  0  0  0  0999 V2000
   46.5200   34.3790   41.6800 N   0  0  0  0  0  0  0  0  0  0  0  0
   45.9130   33.7930   40.6320 C   0  0  0  0  0  0  0  0  0  0  0  0
   46.5140   33.6030   39.4200 C   0  0  0  0  0  0  0  0  0  0  0  0
   47.8270   34.0700   39.3530 C   0  0  0  0  0  0  0  0  0  0  0  0
   48.4600   33.9330   38.2620 O   0  0  0  0  0  0  0  0  0  0  0  0
   48.4730   34.6670   40.3910 N   0  0  0  0  0  0  0  0  0  0  0  0
   47.8050   34.8190   41.5620 C   0  0  0  0  0  0  0  0  0  0  0  0
   48.4420   35.3670   42.4680 O   0  0  0  0  0  0  0  0  0  0  0  0
   44.6360   36.0720   44.3610 C   0  0  0  0  0  0  0  0  0  0  0  0
   45.2150   35.7850   43.1020 C   0  0  0  0  0  0  0  0  0  0  0  0
   45.9700   34.6100   42.9520 C   0  0  0  0  0  0  0  0  0  0  0  0
   46.1120   33.7930   44.0420 N   0  0  0  0  0  0  0  0  0  0  0  0
   45.5480   34.1020   45.2130 C   0  0  0  0  0  0  0  0  0  0  0  0
   44.8150   35.2200   45.4000 N   0  0  0  0  0  0  0  0  0  0  0  0
   45.7480   33.1930   46.3050 C   0  0  0  0  0  0  0  0  0  0  0  0
   45.2090   33.0610   47.5170 C   0  0  0  0  0  0  0  0  0  0  0  0
   45.5810   32.1040   48.4020 C   0  0  0  0  0  0  0  0  0  0  0  0
   46.6290   31.2400   47.8830 C   0  0  0  0  0  0  0  0  0  0  0  0
   46.9550   31.8810   46.2290 S   0  0  0  0  0  0  0  0  0  0  0  0
   45.8370   32.9660   38.2910 C   0  0  0  0  0  0  0  0  0  0  0  0
   44.3740   32.8720   38.4180 C   0  0  0  0  0  0  0  0  0  0  0  0
   43.7240   31.7160   38.6610 N   0  0  0  0  0  0  0  0  0  0  0  0
   42.4490   31.9020   38.7260 O   0  0  0  0  0  0  0  0  0  0  0  0
   42.2560   33.2020   38.5230 C   0  0  0  0  0  0  0  0  0  0  0  0
   43.4280   33.8220   38.3310 N   0  0  0  0  0  0  0  0  0  0  0  0
   44.8761   33.4480   40.7580 H   0  0  0  0  0  0  0  0  0  0  0  0
   49.4441   34.9951   40.2904 H   0  0  0  0  0  0  0  0  0  0  0  0
   44.0404   36.9868   44.4965 H   0  0  0  0  0  0  0  0  0  0  0  0
   45.0760   36.4715   42.2539 H   0  0  0  0  0  0  0  0  0  0  0  0
   44.4197   33.7668   47.8151 H   0  0  0  0  0  0  0  0  0  0  0  0
   45.1386   31.9932   49.4030 H   0  0  0  0  0  0  0  0  0  0  0  0
   47.1129   30.3891   48.3849 H   0  0  0  0  0  0  0  0  0  0  0  0
   46.2367   31.9468   38.1839 H   0  0  0  0  0  0  0  0  0  0  0  0
   46.0301   33.6040   37.4160 H   0  0  0  0  0  0  0  0  0  0  0  0
   41.2740   33.6976   38.5140 H   0  0  0  0  0  0  0  0  0  0  0  0
  1 11  1  0
  2  1  1  0
  3  2  2  0
  4  3  1  0
  4  6  1  0
  5  4  2  0
  6  7  1  0
  7  1  1  0
  7  8  2  0
  9 14  2  0
 10  9  1  0
 11 10  2  0
 11 12  1  0
 12 13  2  0
 13 14  1  0
 13 15  1  0
 15 16  2  0
 16 17  1  0
 18 17  2  0
 19 15  1  0
 19 18  1  0
 20 21  1  0
 20  3  1  0
 21 22  2  0
 22 23  1  0
 24 23  1  0
 25 21  1  0
 25 24  2  0
  2 26  1  0
  6 27  1  0
  9 28  1  0
 10 29  1  0
 16 30  1  0
 17 31  1  0
 18 32  1  0
 20 33  1  0
 20 34  1  0
 24 35  1  0
M  ISO  8  26  14  27   9  28  14  29  14  30  14  31  14  32  14  33   8
M  ISO  2  34   8  35  14
M  END
>  <minimizedAffinity>  (1) 
-6.03861141

>  <minimizedRMSD>  (1) 
2.03549528

$$$$
