
     RDKit          3D

 44 47  0  0  0  0  0  0  0  0999 V2000
   46.5890   34.4120   41.6330 N   0  0  0  0  0  0  0  0  0  0  0  0
   46.0030   33.8390   40.5640 C   0  0  0  0  0  0  0  0  0  0  0  0
   46.6190   33.6630   39.3530 C   0  0  0  0  0  0  0  0  0  0  0  0
   47.9250   34.1360   39.3230 C   0  0  0  0  0  0  0  0  0  0  0  0
   48.5830   34.0170   38.2350 O   0  0  0  0  0  0  0  0  0  0  0  0
   48.5550   34.7200   40.3790 N   0  0  0  0  0  0  0  0  0  0  0  0
   47.8710   34.8540   41.5380 C   0  0  0  0  0  0  0  0  0  0  0  0
   48.4930   35.3940   42.4690 O   0  0  0  0  0  0  0  0  0  0  0  0
   44.6490   36.0480   44.3100 C   0  0  0  0  0  0  0  0  0  0  0  0
   45.2480   35.7800   43.0550 C   0  0  0  0  0  0  0  0  0  0  0  0
   46.0200   34.6230   42.8990 C   0  0  0  0  0  0  0  0  0  0  0  0
   46.1580   33.7980   43.9840 N   0  0  0  0  0  0  0  0  0  0  0  0
   45.5680   34.0960   45.1580 C   0  0  0  0  0  0  0  0  0  0  0  0
   44.8240   35.1900   45.3460 N   0  0  0  0  0  0  0  0  0  0  0  0
   45.7830   33.1520   46.2350 C   0  0  0  0  0  0  0  0  0  0  0  0
   45.2670   33.0230   47.4570 C   0  0  0  0  0  0  0  0  0  0  0  0
   45.6110   32.0510   48.3200 C   0  0  0  0  0  0  0  0  0  0  0  0
   46.6070   31.1580   47.7650 C   0  0  0  0  0  0  0  0  0  0  0  0
   46.9230   31.8050   46.1180 S   0  0  0  0  0  0  0  0  0  0  0  0
   45.9660   33.0370   38.2180 C   0  0  0  0  0  0  0  0  0  0  0  0
   45.9950   31.6100   38.2800 N   0  0  0  0  0  0  0  0  0  0  0  0
   44.6880   31.0310   38.2400 C   0  0  0  0  0  0  0  0  0  0  0  0
   44.2230   30.8330   36.8080 C   0  0  0  0  0  0  0  0  0  0  0  0
   45.1790   29.9410   36.1690 N   0  0  0  0  0  0  0  0  0  0  0  0
   46.4390   30.6380   36.0740 C   0  0  0  0  0  0  0  0  0  0  0  0
   46.9700   30.9680   37.4550 C   0  0  0  0  0  0  0  0  0  0  0  0
   44.9650   33.4906   40.6700 H   0  0  0  0  0  0  0  0  0  0  0  0
   49.5269   35.0511   40.2975 H   0  0  0  0  0  0  0  0  0  0  0  0
   44.0403   36.9542   44.4450 H   0  0  0  0  0  0  0  0  0  0  0  0
   45.1081   36.4732   42.2125 H   0  0  0  0  0  0  0  0  0  0  0  0
   44.5135   33.7567   47.7793 H   0  0  0  0  0  0  0  0  0  0  0  0
   45.1858   31.9463   49.3291 H   0  0  0  0  0  0  0  0  0  0  0  0
   47.0668   30.2809   48.2438 H   0  0  0  0  0  0  0  0  0  0  0  0
   46.4755   33.3592   37.2979 H   0  0  0  0  0  0  0  0  0  0  0  0
   44.9108   33.3475   38.2305 H   0  0  0  0  0  0  0  0  0  0  0  0
   44.7110   30.0559   38.7486 H   0  0  0  0  0  0  0  0  0  0  0  0
   43.9875   31.7129   38.7444 H   0  0  0  0  0  0  0  0  0  0  0  0
   43.2195   30.3825   36.7957 H   0  0  0  0  0  0  0  0  0  0  0  0
   44.1681   31.7947   36.2769 H   0  0  0  0  0  0  0  0  0  0  0  0
   45.2928   29.0871   36.7337 H   0  0  0  0  0  0  0  0  0  0  0  0
   47.1663   30.0008   35.5495 H   0  0  0  0  0  0  0  0  0  0  0  0
   46.2855   31.5753   35.5191 H   0  0  0  0  0  0  0  0  0  0  0  0
   47.2851   30.0342   37.9437 H   0  0  0  0  0  0  0  0  0  0  0  0
   47.8119   31.6649   37.3304 H   0  0  0  0  0  0  0  0  0  0  0  0
  1 11  1  0
  2  1  1  0
  3  2  2  0
  4  3  1  0
  4  6  1  0
  5  4  2  0
  6  7  1  0
  7  1  1  0
  7  8  2  0
  9 14  2  0
 10  9  1  0
 11 10  2  0
 11 12  1  0
 12 13  2  0
 13 14  1  0
 13 15  1  0
 15 16  2  0
 16 17  1  0
 18 17  2  0
 19 15  1  0
 19 18  1  0
 20 21  1  0
 20  3  1  0
 22 21  1  0
 23 22  1  0
 24 23  1  0
 25 24  1  0
 25 26  1  0
 26 21  1  0
  2 27  1  0
  6 28  1  0
  9 29  1  0
 10 30  1  0
 16 31  1  0
 17 32  1  0
 18 33  1  0
 20 34  1  0
 20 35  1  0
 22 36  1  0
 22 37  1  0
 23 38  1  0
 23 39  1  0
 24 40  1  0
 25 41  1  0
 25 42  1  0
 26 43  1  0
 26 44  1  0
M  ISO  8  27  14  28   9  29  14  30  14  31  14  32  14  33  14  34   8
M  ISO  8  35   8  36  13  37  13  38  13  39  13  40   5  41  13  42  13
M  ISO  2  43  13  44  13
M  END
>  <minimizedAffinity>  (1) 
-5.90080023

>  <minimizedRMSD>  (1) 
0.999500453

$$$$
