
     RDKit          3D

 38 41  0  0  0  0  0  0  0  0999 V2000
   46.5870   34.4060   41.6260 N   0  0  0  0  0  0  0  0  0  0  0  0
   46.0080   33.8120   40.5720 C   0  0  0  0  0  0  0  0  0  0  0  0
   46.6250   33.6460   39.3630 C   0  0  0  0  0  0  0  0  0  0  0  0
   47.9110   34.1440   39.3070 C   0  0  0  0  0  0  0  0  0  0  0  0
   48.5710   34.0400   38.2260 O   0  0  0  0  0  0  0  0  0  0  0  0
   48.5350   34.7550   40.3590 N   0  0  0  0  0  0  0  0  0  0  0  0
   47.8630   34.8830   41.5250 C   0  0  0  0  0  0  0  0  0  0  0  0
   48.4760   35.4420   42.4380 O   0  0  0  0  0  0  0  0  0  0  0  0
   44.6580   36.0460   44.3070 C   0  0  0  0  0  0  0  0  0  0  0  0
   45.2560   35.7730   43.0550 C   0  0  0  0  0  0  0  0  0  0  0  0
   46.0250   34.6150   42.8920 C   0  0  0  0  0  0  0  0  0  0  0  0
   46.1630   33.7860   43.9760 N   0  0  0  0  0  0  0  0  0  0  0  0
   45.5760   34.0880   45.1450 C   0  0  0  0  0  0  0  0  0  0  0  0
   44.8320   35.1890   45.3390 N   0  0  0  0  0  0  0  0  0  0  0  0
   45.7870   33.1480   46.2280 C   0  0  0  0  0  0  0  0  0  0  0  0
   45.2690   33.0340   47.4540 C   0  0  0  0  0  0  0  0  0  0  0  0
   45.6240   32.0560   48.3220 C   0  0  0  0  0  0  0  0  0  0  0  0
   46.6210   31.1560   47.7670 C   0  0  0  0  0  0  0  0  0  0  0  0
   46.9280   31.7980   46.1130 S   0  0  0  0  0  0  0  0  0  0  0  0
   45.9740   32.9970   38.2210 C   0  0  0  0  0  0  0  0  0  0  0  0
   46.4470   31.5730   38.1800 C   0  0  0  0  0  0  0  0  0  0  0  0
   47.0980   31.1120   37.0490 C   0  0  0  0  0  0  0  0  0  0  0  0
   47.5730   29.8070   36.9180 C   0  0  0  0  0  0  0  0  0  0  0  0
   47.3760   28.9540   37.9660 N   0  0  0  0  0  0  0  0  0  0  0  0
   46.7370   29.4300   39.0580 C   0  0  0  0  0  0  0  0  0  0  0  0
   46.2680   30.6970   39.2040 N   0  0  0  0  0  0  0  0  0  0  0  0
   44.9800   33.4377   40.6865 H   0  0  0  0  0  0  0  0  0  0  0  0
   49.4972   35.1104   40.2651 H   0  0  0  0  0  0  0  0  0  0  0  0
   44.0521   36.9542   44.4415 H   0  0  0  0  0  0  0  0  0  0  0  0
   45.1175   36.4674   42.2132 H   0  0  0  0  0  0  0  0  0  0  0  0
   44.5173   33.7703   47.7747 H   0  0  0  0  0  0  0  0  0  0  0  0
   45.2044   31.9546   49.3338 H   0  0  0  0  0  0  0  0  0  0  0  0
   47.0831   30.2813   48.2481 H   0  0  0  0  0  0  0  0  0  0  0  0
   44.8814   33.0262   38.3454 H   0  0  0  0  0  0  0  0  0  0  0  0
   46.2274   33.5160   37.2848 H   0  0  0  0  0  0  0  0  0  0  0  0
   47.2483   31.8094   36.2117 H   0  0  0  0  0  0  0  0  0  0  0  0
   48.0877   29.4770   36.0036 H   0  0  0  0  0  0  0  0  0  0  0  0
   46.5842   28.7350   39.8968 H   0  0  0  0  0  0  0  0  0  0  0  0
  1 11  1  0
  2  1  1  0
  3  2  2  0
  4  3  1  0
  4  6  1  0
  5  4  2  0
  6  7  1  0
  7  1  1  0
  7  8  2  0
  9 14  2  0
 10  9  1  0
 11 10  2  0
 11 12  1  0
 12 13  2  0
 13 14  1  0
 13 15  1  0
 15 16  2  0
 16 17  1  0
 18 17  2  0
 19 15  1  0
 19 18  1  0
 20  3  1  0
 21 20  1  0
 21 26  1  0
 22 21  2  0
 23 22  1  0
 23 24  2  0
 24 25  1  0
 25 26  2  0
  2 27  1  0
  6 28  1  0
  9 29  1  0
 10 30  1  0
 16 31  1  0
 17 32  1  0
 18 33  1  0
 20 34  1  0
 20 35  1  0
 22 36  1  0
 23 37  1  0
 25 38  1  0
M  ISO  8  27  14  28   9  29  14  30  14  31  14  32  14  33  14  34   8
M  ISO  4  35   8  36  14  37  14  38  14
M  END
>  <minimizedAffinity>  (1) 
-5.70584822

>  <minimizedRMSD>  (1) 
0.113020629

$$$$
