
     RDKit          3D

 36 39  0  0  0  0  0  0  0  0999 V2000
   46.5850   34.3970   41.6320 N   0  0  0  0  0  0  0  0  0  0  0  0
   45.9940   33.8030   40.5750 C   0  0  0  0  0  0  0  0  0  0  0  0
   46.6140   33.6390   39.3770 C   0  0  0  0  0  0  0  0  0  0  0  0
   47.9170   34.1360   39.3200 C   0  0  0  0  0  0  0  0  0  0  0  0
   48.5630   34.0250   38.2320 O   0  0  0  0  0  0  0  0  0  0  0  0
   48.5340   34.7390   40.3710 N   0  0  0  0  0  0  0  0  0  0  0  0
   47.8530   34.8680   41.5400 C   0  0  0  0  0  0  0  0  0  0  0  0
   48.4740   35.4250   42.4590 O   0  0  0  0  0  0  0  0  0  0  0  0
   44.6540   36.0500   44.3140 C   0  0  0  0  0  0  0  0  0  0  0  0
   45.2500   35.7760   43.0640 C   0  0  0  0  0  0  0  0  0  0  0  0
   46.0230   34.6130   42.8970 C   0  0  0  0  0  0  0  0  0  0  0  0
   46.1560   33.7930   43.9860 N   0  0  0  0  0  0  0  0  0  0  0  0
   45.5750   34.0910   45.1530 C   0  0  0  0  0  0  0  0  0  0  0  0
   44.8300   35.1920   45.3500 N   0  0  0  0  0  0  0  0  0  0  0  0
   45.7850   33.1520   46.2410 C   0  0  0  0  0  0  0  0  0  0  0  0
   45.2610   33.0350   47.4610 C   0  0  0  0  0  0  0  0  0  0  0  0
   45.6130   32.0570   48.3310 C   0  0  0  0  0  0  0  0  0  0  0  0
   46.6160   31.1620   47.7790 C   0  0  0  0  0  0  0  0  0  0  0  0
   46.9290   31.8080   46.1280 S   0  0  0  0  0  0  0  0  0  0  0  0
   45.9550   32.9900   38.2270 C   0  0  0  0  0  0  0  0  0  0  0  0
   46.3810   31.5720   38.0250 C   0  0  0  0  0  0  0  0  0  0  0  0
   46.2680   30.5560   39.0700 C   0  0  0  0  0  0  0  0  0  0  0  0
   46.9450   29.0960   38.1410 S   0  0  0  0  0  0  0  0  0  0  0  0
   47.2430   30.0590   36.6030 C   0  0  0  0  0  0  0  0  0  0  0  0
   46.8570   31.3700   36.7950 N   0  0  0  0  0  0  0  0  0  0  0  0
   44.9636   33.4347   40.6879 H   0  0  0  0  0  0  0  0  0  0  0  0
   49.4980   35.0909   40.2829 H   0  0  0  0  0  0  0  0  0  0  0  0
   44.0477   36.9580   44.4478 H   0  0  0  0  0  0  0  0  0  0  0  0
   45.1101   36.4705   42.2225 H   0  0  0  0  0  0  0  0  0  0  0  0
   44.5051   33.7688   47.7776 H   0  0  0  0  0  0  0  0  0  0  0  0
   45.1878   31.9527   49.3401 H   0  0  0  0  0  0  0  0  0  0  0  0
   47.0789   30.2881   48.2606 H   0  0  0  0  0  0  0  0  0  0  0  0
   44.8676   33.0078   38.3920 H   0  0  0  0  0  0  0  0  0  0  0  0
   46.2466   33.5495   37.3259 H   0  0  0  0  0  0  0  0  0  0  0  0
   45.8931   30.6330   40.1013 H   0  0  0  0  0  0  0  0  0  0  0  0
   47.6646   29.6522   35.6720 H   0  0  0  0  0  0  0  0  0  0  0  0
  1 11  1  0
  2  1  1  0
  3  2  2  0
  4  3  1  0
  4  6  1  0
  5  4  2  0
  6  7  1  0
  7  1  1  0
  7  8  2  0
  9 14  2  0
 10  9  1  0
 11 10  2  0
 11 12  1  0
 12 13  2  0
 13 14  1  0
 13 15  1  0
 15 16  2  0
 16 17  1  0
 18 17  2  0
 19 15  1  0
 19 18  1  0
 20  3  1  0
 21 20  1  0
 21 22  2  0
 23 22  1  0
 24 25  2  0
 24 23  1  0
 25 21  1  0
  2 26  1  0
  6 27  1  0
  9 28  1  0
 10 29  1  0
 16 30  1  0
 17 31  1  0
 18 32  1  0
 20 33  1  0
 20 34  1  0
 22 35  1  0
 24 36  1  0
M  ISO  8  26  14  27   9  28  14  29  14  30  14  31  14  32  14  33   8
M  ISO  3  34   8  35  14  36  14
M  END
>  <minimizedAffinity>  (1) 
-5.72446966

>  <minimizedRMSD>  (1) 
0.144461438

$$$$
