
     RDKit          3D

 23 23  0  0  0  0  0  0  0  0999 V2000
   45.1550   34.9250   43.5620 C   0  0  0  0  0  0  0  0  0  0  0  0
   46.0110   33.8680   43.8790 C   0  0  0  0  0  0  0  0  0  0  0  0
   46.0970   33.5090   45.2190 C   0  0  0  0  0  0  0  0  0  0  0  0
   45.3510   34.1950   46.1420 N   0  0  0  0  0  0  0  0  0  0  0  0
   44.5360   35.2110   45.7970 C   0  0  0  0  0  0  0  0  0  0  0  0
   44.4410   35.5680   44.5230 N   0  0  0  0  0  0  0  0  0  0  0  0
   44.9440   35.4220   42.2380 N   0  0  0  0  0  0  0  0  0  0  0  0
   43.6480   35.4230   41.6130 C   0  0  0  0  0  0  0  0  0  0  0  0
   42.5970   35.3980   42.4010 N   0  0  0  0  0  0  0  0  0  0  0  0
   43.4970   35.4470   40.1770 N   0  0  0  0  0  0  0  0  0  0  0  0
   41.6690   35.4000   41.9320 H   0  0  0  0  0  0  0  0  0  0  0  0
   46.7440   33.2060   42.8360 C   0  0  0  0  0  0  0  0  0  0  0  0
   48.2120   33.6590   42.9150 C   0  0  0  0  0  0  0  0  0  0  0  0
   46.7547   32.6857   45.5345 H   0  0  0  0  0  0  0  0  0  0  0  0
   43.9540   35.7403   46.5658 H   0  0  0  0  0  0  0  0  0  0  0  0
   45.7488   35.7927   41.7127 H   0  0  0  0  0  0  0  0  0  0  0  0
   42.5561   35.4471   39.7580 H   0  0  0  0  0  0  0  0  0  0  0  0
   44.3302   35.4640   39.5718 H   0  0  0  0  0  0  0  0  0  0  0  0
   46.3234   33.4767   41.8563 H   0  0  0  0  0  0  0  0  0  0  0  0
   46.6769   32.1150   42.9593 H   0  0  0  0  0  0  0  0  0  0  0  0
   48.5110   33.7513   43.9696 H   0  0  0  0  0  0  0  0  0  0  0  0
   48.8522   32.9166   42.4160 H   0  0  0  0  0  0  0  0  0  0  0  0
   48.3225   34.6330   42.4160 H   0  0  0  0  0  0  0  0  0  0  0  0
  1  2  2  0
  1  6  1  0
  2  3  1  0
  3  4  2  0
  5  4  1  0
  6  5  2  0
  7  1  1  0
  8  7  1  0
  8  9  2  0
 10  8  1  0
 11  9  1  0
 12 13  1  0
 12  2  1  0
  3 14  1  0
  5 15  1  0
  7 16  1  0
 10 17  1  0
 10 18  1  0
 12 19  1  0
 12 20  1  0
 13 21  1  0
 13 22  1  0
 13 23  1  0
M  ISO  7  14  14  15  14  19   8  20   8  21   8  22   8  23   8
M  END
>  <minimizedAffinity>  (1) 
-4.34854221

>  <minimizedRMSD>  (1) 
1.71985006

$$$$
