
     RDKit          3D

 37 40  0  0  0  0  0  0  0  0999 V2000
   46.5810   34.4080   41.6260 N   0  0  0  0  0  0  0  0  0  0  0  0
   45.9920   33.8130   40.5730 C   0  0  0  0  0  0  0  0  0  0  0  0
   46.6250   33.6500   39.3560 C   0  0  0  0  0  0  0  0  0  0  0  0
   47.9090   34.1450   39.3020 C   0  0  0  0  0  0  0  0  0  0  0  0
   48.5700   34.0410   38.2230 O   0  0  0  0  0  0  0  0  0  0  0  0
   48.5350   34.7540   40.3570 N   0  0  0  0  0  0  0  0  0  0  0  0
   47.8620   34.8850   41.5290 C   0  0  0  0  0  0  0  0  0  0  0  0
   48.4710   35.4420   42.4480 O   0  0  0  0  0  0  0  0  0  0  0  0
   44.6560   36.0490   44.3140 C   0  0  0  0  0  0  0  0  0  0  0  0
   45.2520   35.7730   43.0610 C   0  0  0  0  0  0  0  0  0  0  0  0
   46.0190   34.6190   42.8970 C   0  0  0  0  0  0  0  0  0  0  0  0
   46.1640   33.7880   43.9760 N   0  0  0  0  0  0  0  0  0  0  0  0
   45.5750   34.0910   45.1550 C   0  0  0  0  0  0  0  0  0  0  0  0
   44.8340   35.1900   45.3460 N   0  0  0  0  0  0  0  0  0  0  0  0
   45.7890   33.1450   46.2330 C   0  0  0  0  0  0  0  0  0  0  0  0
   45.2600   33.0370   47.4620 C   0  0  0  0  0  0  0  0  0  0  0  0
   45.6150   32.0540   48.3140 C   0  0  0  0  0  0  0  0  0  0  0  0
   46.6060   31.1520   47.7650 C   0  0  0  0  0  0  0  0  0  0  0  0
   46.9360   31.7840   46.1010 S   0  0  0  0  0  0  0  0  0  0  0  0
   45.9570   32.9940   38.2330 C   0  0  0  0  0  0  0  0  0  0  0  0
   46.4840   31.5850   38.1880 C   0  0  0  0  0  0  0  0  0  0  0  0
   47.1290   30.9990   37.1520 C   0  0  0  0  0  0  0  0  0  0  0  0
   47.5370   29.6970   37.3030 C   0  0  0  0  0  0  0  0  0  0  0  0
   47.2860   29.0500   38.4690 C   0  0  0  0  0  0  0  0  0  0  0  0
   46.3890   30.3520   39.4850 S   0  0  0  0  0  0  0  0  0  0  0  0
   44.9631   33.4406   40.6858 H   0  0  0  0  0  0  0  0  0  0  0  0
   49.4984   35.1061   40.2631 H   0  0  0  0  0  0  0  0  0  0  0  0
   44.0506   36.9574   44.4496 H   0  0  0  0  0  0  0  0  0  0  0  0
   45.1112   36.4661   42.2185 H   0  0  0  0  0  0  0  0  0  0  0  0
   44.5115   33.7755   47.7850 H   0  0  0  0  0  0  0  0  0  0  0  0
   45.1940   31.9479   49.3247 H   0  0  0  0  0  0  0  0  0  0  0  0
   47.0586   30.2756   48.2519 H   0  0  0  0  0  0  0  0  0  0  0  0
   44.8682   32.9879   38.3892 H   0  0  0  0  0  0  0  0  0  0  0  0
   46.1531   33.5230   37.2887 H   0  0  0  0  0  0  0  0  0  0  0  0
   47.3201   31.5488   36.2186 H   0  0  0  0  0  0  0  0  0  0  0  0
   48.0631   29.1824   36.4854 H   0  0  0  0  0  0  0  0  0  0  0  0
   47.5438   28.0183   38.7501 H   0  0  0  0  0  0  0  0  0  0  0  0
  1 11  1  0
  2  1  1  0
  3  2  2  0
  4  3  1  0
  4  6  1  0
  5  4  2  0
  6  7  1  0
  7  1  1  0
  7  8  2  0
  9 14  2  0
 10  9  1  0
 11 10  2  0
 11 12  1  0
 12 13  2  0
 13 14  1  0
 13 15  1  0
 15 16  2  0
 16 17  1  0
 18 17  2  0
 19 15  1  0
 19 18  1  0
 20  3  1  0
 21 20  1  0
 21 25  1  0
 22 23  1  0
 22 21  2  0
 23 24  2  0
 24 25  1  0
  2 26  1  0
  6 27  1  0
  9 28  1  0
 10 29  1  0
 16 30  1  0
 17 31  1  0
 18 32  1  0
 20 33  1  0
 20 34  1  0
 22 35  1  0
 23 36  1  0
 24 37  1  0
M  ISO  8  26  14  27   9  28  14  29  14  30  14  31  14  32  14  33   8
M  ISO  4  34   8  35  14  36  14  37  14
M  END
>  <minimizedAffinity>  (1) 
-5.65758657

>  <minimizedRMSD>  (1) 
0.0544758923

$$$$
