
     RDKit          3D

 35 37  0  0  0  0  0  0  0  0999 V2000
   47.2690   34.2480   40.2180 C   0  0  0  0  0  0  0  0  0  0  0  0
   48.1790   34.1970   39.1840 C   0  0  0  0  0  0  0  0  0  0  0  0
   47.9470   33.7440   37.9150 C   0  0  0  0  0  0  0  0  0  0  0  0
   46.6660   33.3070   37.6910 N   0  0  0  0  0  0  0  0  0  0  0  0
   45.7580   33.3470   38.6870 C   0  0  0  0  0  0  0  0  0  0  0  0
   46.0060   33.8000   39.9430 N   0  0  0  0  0  0  0  0  0  0  0  0
   44.4080   32.8630   38.3780 C   0  0  0  0  0  0  0  0  0  0  0  0
   43.2860   33.5680   38.7840 C   0  0  0  0  0  0  0  0  0  0  0  0
   42.0350   33.0990   38.4840 C   0  0  0  0  0  0  0  0  0  0  0  0
   41.8660   31.9780   37.8110 N   0  0  0  0  0  0  0  0  0  0  0  0
   42.9720   31.2980   37.4200 C   0  0  0  0  0  0  0  0  0  0  0  0
   44.2410   31.7220   37.6930 N   0  0  0  0  0  0  0  0  0  0  0  0
   47.6180   34.7570   41.5690 C   0  0  0  0  0  0  0  0  0  0  0  0
   47.2620   33.7130   42.5810 C   0  0  0  0  0  0  0  0  0  0  0  0
   44.7100   35.6960   44.5250 C   0  0  0  0  0  0  0  0  0  0  0  0
   45.5600   35.2750   43.4930 C   0  0  0  0  0  0  0  0  0  0  0  0
   46.3620   34.1750   43.6480 C   0  0  0  0  0  0  0  0  0  0  0  0
   46.2900   33.5300   44.8310 N   0  0  0  0  0  0  0  0  0  0  0  0
   45.4650   33.9380   45.8310 C   0  0  0  0  0  0  0  0  0  0  0  0
   44.6970   35.0000   45.6680 N   0  0  0  0  0  0  0  0  0  0  0  0
   45.3990   33.2130   47.1290 C   0  0  0  0  0  0  0  0  0  0  0  0
   49.1952   34.5574   39.4019 H   0  0  0  0  0  0  0  0  0  0  0  0
   48.7244   33.7310   37.1368 H   0  0  0  0  0  0  0  0  0  0  0  0
   43.4006   34.5055   39.3479 H   0  0  0  0  0  0  0  0  0  0  0  0
   41.1530   33.6692   38.8112 H   0  0  0  0  0  0  0  0  0  0  0  0
   42.8410   30.3620   36.8572 H   0  0  0  0  0  0  0  0  0  0  0  0
   48.6965   34.9678   41.6181 H   0  0  0  0  0  0  0  0  0  0  0  0
   47.0633   35.6842   41.7754 H   0  0  0  0  0  0  0  0  0  0  0  0
   46.7721   32.8796   42.0561 H   0  0  0  0  0  0  0  0  0  0  0  0
   48.2024   33.4215   43.0715 H   0  0  0  0  0  0  0  0  0  0  0  0
   44.0673   36.5797   44.3981 H   0  0  0  0  0  0  0  0  0  0  0  0
   45.5835   35.8350   42.5465 H   0  0  0  0  0  0  0  0  0  0  0  0
   45.4647   33.9352   47.9561 H   0  0  0  0  0  0  0  0  0  0  0  0
   44.4473   32.6654   47.1951 H   0  0  0  0  0  0  0  0  0  0  0  0
   46.2362   32.5025   47.1951 H   0  0  0  0  0  0  0  0  0  0  0  0
  1 13  1  0
  2  1  2  0
  3  2  1  0
  4  3  2  0
  4  5  1  0
  5  6  2  0
  6  1  1  0
  7  5  1  0
  7  8  2  0
  9  8  1  0
 10  9  2  0
 11 12  2  0
 11 10  1  0
 12  7  1  0
 13 14  1  0
 14 17  1  0
 15 20  2  0
 16 17  2  0
 16 15  1  0
 17 18  1  0
 18 19  2  0
 19 21  1  0
 20 19  1  0
  2 22  1  0
  3 23  1  0
  8 24  1  0
  9 25  1  0
 11 26  1  0
 13 27  1  0
 13 28  1  0
 14 29  1  0
 14 30  1  0
 15 31  1  0
 16 32  1  0
 21 33  1  0
 21 34  1  0
 21 35  1  0
M  ISO  8  22  14  23  14  24  14  25  14  26  14  27   8  28   8  29   8
M  ISO  6  30   8  31  14  32  14  33   8  34   8  35   8
M  END
>  <minimizedAffinity>  (1) 
-4.89065456

>  <minimizedRMSD>  (1) 
0.265552133

$$$$
