
     RDKit          3D

 30 32  0  0  0  0  0  0  0  0999 V2000
   46.0390   34.8880   43.4020 C   0  0  0  0  0  0  0  0  0  0  0  0
   46.2630   33.9290   44.3910 C   0  0  0  0  0  0  0  0  0  0  0  0
   45.5420   34.0370   45.5880 C   0  0  0  0  0  0  0  0  0  0  0  0
   44.6400   35.0720   45.7490 N   0  0  0  0  0  0  0  0  0  0  0  0
   44.4610   35.9600   44.7660 C   0  0  0  0  0  0  0  0  0  0  0  0
   45.1510   35.8260   43.6740 N   0  0  0  0  0  0  0  0  0  0  0  0
   46.8040   34.7960   42.1630 C   0  0  0  0  0  0  0  0  0  0  0  0
   47.9920   35.3420   41.9510 N   0  0  0  0  0  0  0  0  0  0  0  0
   48.6950   35.2660   40.8410 C   0  0  0  0  0  0  0  0  0  0  0  0
   48.2520   34.5970   39.7660 N   0  0  0  0  0  0  0  0  0  0  0  0
   47.0500   33.9950   39.8550 C   0  0  0  0  0  0  0  0  0  0  0  0
   46.6060   33.3120   38.7510 C   0  0  0  0  0  0  0  0  0  0  0  0
   45.3870   32.6810   38.7960 C   0  0  0  0  0  0  0  0  0  0  0  0
   44.6420   32.7580   39.9660 C   0  0  0  0  0  0  0  0  0  0  0  0
   45.1630   33.4630   41.0220 C   0  0  0  0  0  0  0  0  0  0  0  0
   46.3720   34.1170   41.0470 C   0  0  0  0  0  0  0  0  0  0  0  0
   47.0600   32.7950   44.2740 C   0  0  0  0  0  0  0  0  0  0  0  0
   46.9610   31.8940   45.5070 C   0  0  0  0  0  0  0  0  0  0  0  0
   45.6928   33.3034   46.3936 H   0  0  0  0  0  0  0  0  0  0  0  0
   43.7444   36.7868   44.8796 H   0  0  0  0  0  0  0  0  0  0  0  0
   49.6739   35.7654   40.7934 H   0  0  0  0  0  0  0  0  0  0  0  0
   47.2200   33.2702   37.8393 H   0  0  0  0  0  0  0  0  0  0  0  0
   45.0087   32.1266   37.9245 H   0  0  0  0  0  0  0  0  0  0  0  0
   43.6607   32.2670   40.0440 H   0  0  0  0  0  0  0  0  0  0  0  0
   44.5542   33.5092   41.9370 H   0  0  0  0  0  0  0  0  0  0  0  0
   46.7378   32.2243   43.3905 H   0  0  0  0  0  0  0  0  0  0  0  0
   48.1053   33.1234   44.1766 H   0  0  0  0  0  0  0  0  0  0  0  0
   47.0285   32.5087   46.4167 H   0  0  0  0  0  0  0  0  0  0  0  0
   45.9989   31.3609   45.4953 H   0  0  0  0  0  0  0  0  0  0  0  0
   47.7844   31.1647   45.4953 H   0  0  0  0  0  0  0  0  0  0  0  0
  1  6  1  0
  1  2  2  0
  2  3  1  0
  3  4  2  0
  5  4  1  0
  6  5  2  0
  7  1  1  0
  8  7  2  0
  9  8  1  0
 10 11  1  0
 10  9  2  0
 11 16  2  0
 12 13  2  0
 12 11  1  0
 13 14  1  0
 14 15  2  0
 15 16  1  0
 16  7  1  0
 17  2  1  0
 17 18  1  0
  3 19  1  0
  5 20  1  0
  9 21  1  0
 12 22  1  0
 13 23  1  0
 14 24  1  0
 15 25  1  0
 17 26  1  0
 17 27  1  0
 18 28  1  0
 18 29  1  0
 18 30  1  0
M  ISO  8  19  14  20  14  21  14  22  14  23  14  24  14  25  14  26   8
M  ISO  4  27   8  28   8  29   8  30   8
M  END
>  <minimizedAffinity>  (1) 
-5.18199539

>  <minimizedRMSD>  (1) 
4.05213022

$$$$
