
     RDKit          3D

 23 24  0  0  0  0  0  0  0  0999 V2000
   47.3970   33.9460   42.6960 C   0  0  0  0  0  0  0  0  0  0  0  0
   46.6460   34.3600   41.5860 C   0  0  0  0  0  0  0  0  0  0  0  0
   45.3480   34.7950   41.8370 C   0  0  0  0  0  0  0  0  0  0  0  0
   44.8960   34.7920   43.1260 N   0  0  0  0  0  0  0  0  0  0  0  0
   45.6510   34.3860   44.1610 C   0  0  0  0  0  0  0  0  0  0  0  0
   46.8980   33.9650   43.9390 N   0  0  0  0  0  0  0  0  0  0  0  0
   48.7360   33.4810   42.5560 N   0  0  0  0  0  0  0  0  0  0  0  0
   49.7720   34.3630   42.5860 C   0  0  0  0  0  0  0  0  0  0  0  0
   50.9210   33.5970   42.4250 C   0  0  0  0  0  0  0  0  0  0  0  0
   50.5890   32.2980   42.3020 N   0  0  0  0  0  0  0  0  0  0  0  0
   49.2480   32.2310   42.3830 C   0  0  0  0  0  0  0  0  0  0  0  0
   47.2390   34.3160   40.2650 C   0  0  0  0  0  0  0  0  0  0  0  0
   46.5080   33.2750   39.4400 C   0  0  0  0  0  0  0  0  0  0  0  0
   44.7001   35.1339   41.0152 H   0  0  0  0  0  0  0  0  0  0  0  0
   45.2445   34.4005   45.1830 H   0  0  0  0  0  0  0  0  0  0  0  0
   49.7127   35.4542   42.7114 H   0  0  0  0  0  0  0  0  0  0  0  0
   51.9471   33.9927   42.4016 H   0  0  0  0  0  0  0  0  0  0  0  0
   48.6549   31.3068   42.3192 H   0  0  0  0  0  0  0  0  0  0  0  0
   47.1466   35.3012   39.7845 H   0  0  0  0  0  0  0  0  0  0  0  0
   48.3048   34.0545   40.3405 H   0  0  0  0  0  0  0  0  0  0  0  0
   46.0069   32.5614   40.1106 H   0  0  0  0  0  0  0  0  0  0  0  0
   45.7583   33.7703   38.8054 H   0  0  0  0  0  0  0  0  0  0  0  0
   47.2284   32.7380   38.8054 H   0  0  0  0  0  0  0  0  0  0  0  0
  1  6  2  0
  2  3  2  0
  2  1  1  0
  3  4  1  0
  4  5  2  0
  6  5  1  0
  7  8  1  0
  7  1  1  0
  9  8  2  0
 10 11  2  0
 10  9  1  0
 11  7  1  0
 12  2  1  0
 13 12  1  0
  3 14  1  0
  5 15  1  0
  8 16  1  0
  9 17  1  0
 11 18  1  0
 12 19  1  0
 12 20  1  0
 13 21  1  0
 13 22  1  0
 13 23  1  0
M  ISO  8  14  14  15  14  16  14  17  14  18  14  19   8  20   8  21   8
M  ISO  2  22   8  23   8
M  END
>  <minimizedAffinity>  (1) 
-3.49202752

>  <minimizedRMSD>  (1) 
5.13516808

$$$$
