
     RDKit          3D

 37 38  0  0  0  0  0  0  0  0999 V2000
   45.0910   34.8950   43.6630 C   0  0  0  0  0  0  0  0  0  0  0  0
   45.7990   33.7550   44.0120 C   0  0  0  0  0  0  0  0  0  0  0  0
   45.8330   33.4180   45.3630 C   0  0  0  0  0  0  0  0  0  0  0  0
   45.1780   34.2130   46.2710 N   0  0  0  0  0  0  0  0  0  0  0  0
   44.4960   35.3200   45.8850 C   0  0  0  0  0  0  0  0  0  0  0  0
   44.4540   35.6540   44.5960 N   0  0  0  0  0  0  0  0  0  0  0  0
   44.9510   35.3850   42.3260 N   0  0  0  0  0  0  0  0  0  0  0  0
   43.6790   35.3760   41.6420 C   0  0  0  0  0  0  0  0  0  0  0  0
   42.5940   35.3650   42.3700 N   0  0  0  0  0  0  0  0  0  0  0  0
   43.6070   35.3790   40.1940 N   0  0  0  0  0  0  0  0  0  0  0  0
   41.6950   35.3760   41.8470 H   0  0  0  0  0  0  0  0  0  0  0  0
   46.4580   32.9720   43.0190 C   0  0  0  0  0  0  0  0  0  0  0  0
   47.9790   33.0080   43.2720 C   0  0  0  0  0  0  0  0  0  0  0  0
   48.6280   33.4050   42.0600 N   0  0  0  0  0  0  0  0  0  0  0  0
   49.5600   34.4830   42.2390 C   0  0  0  0  0  0  0  0  0  0  0  0
   49.0950   35.7910   41.6490 C   0  0  0  0  0  0  0  0  0  0  0  0
   48.9230   35.6120   40.2450 N   0  0  0  0  0  0  0  0  0  0  0  0
   48.2530   34.4230   39.8530 C   0  0  0  0  0  0  0  0  0  0  0  0
   47.7420   33.5470   40.9400 C   0  0  0  0  0  0  0  0  0  0  0  0
   46.3790   32.5242   45.6991 H   0  0  0  0  0  0  0  0  0  0  0  0
   43.9797   35.9395   46.6331 H   0  0  0  0  0  0  0  0  0  0  0  0
   45.7797   35.7541   41.8382 H   0  0  0  0  0  0  0  0  0  0  0  0
   42.6906   35.3725   39.7239 H   0  0  0  0  0  0  0  0  0  0  0  0
   44.4723   35.3877   39.6354 H   0  0  0  0  0  0  0  0  0  0  0  0
   46.2410   33.3834   42.0222 H   0  0  0  0  0  0  0  0  0  0  0  0
   46.0994   31.9333   43.0693 H   0  0  0  0  0  0  0  0  0  0  0  0
   48.2062   33.7309   44.0694 H   0  0  0  0  0  0  0  0  0  0  0  0
   48.3344   32.0148   43.5839 H   0  0  0  0  0  0  0  0  0  0  0  0
   49.7219   34.6266   43.3175 H   0  0  0  0  0  0  0  0  0  0  0  0
   50.4824   34.2016   41.7099 H   0  0  0  0  0  0  0  0  0  0  0  0
   48.1392   36.0865   42.1063 H   0  0  0  0  0  0  0  0  0  0  0  0
   49.8370   36.5796   41.8427 H   0  0  0  0  0  0  0  0  0  0  0  0
   48.3820   36.4124   39.8879 H   0  0  0  0  0  0  0  0  0  0  0  0
   47.3941   34.7156   39.2311 H   0  0  0  0  0  0  0  0  0  0  0  0
   49.0159   33.8221   39.3364 H   0  0  0  0  0  0  0  0  0  0  0  0
   46.7940   33.9697   41.3041 H   0  0  0  0  0  0  0  0  0  0  0  0
   47.6281   32.5436   40.5038 H   0  0  0  0  0  0  0  0  0  0  0  0
  1  2  2  0
  1  6  1  0
  2  3  1  0
  3  4  2  0
  5  4  1  0
  6  5  2  0
  7  1  1  0
  8  7  1  0
  8  9  2  0
 10  8  1  0
 11  9  1  0
 12 13  1  0
 12  2  1  0
 14 15  1  0
 14 13  1  0
 16 15  1  0
 17 16  1  0
 18 17  1  0
 18 19  1  0
 19 14  1  0
  3 20  1  0
  5 21  1  0
  7 22  1  0
 10 23  1  0
 10 24  1  0
 12 25  1  0
 12 26  1  0
 13 27  1  0
 13 28  1  0
 15 29  1  0
 15 30  1  0
 16 31  1  0
 16 32  1  0
 17 33  1  0
 18 34  1  0
 18 35  1  0
 19 36  1  0
 19 37  1  0
M  ISO  8  20  14  21  14  25   8  26   8  27   8  28   8  29  13  30  13
M  ISO  7  31  13  32  13  33   5  34  13  35  13  36  13  37  13
M  END
>  <minimizedAffinity>  (1) 
-5.49854517

>  <minimizedRMSD>  (1) 
1.54988658

$$$$
