
     RDKit          3D

 32 33  0  0  0  0  0  0  0  0999 V2000
   45.1340   35.0450   43.5670 C   0  0  0  0  0  0  0  0  0  0  0  0
   46.0580   34.0400   43.8180 C   0  0  0  0  0  0  0  0  0  0  0  0
   46.1930   33.6160   45.1360 C   0  0  0  0  0  0  0  0  0  0  0  0
   45.4230   34.1950   46.1090 N   0  0  0  0  0  0  0  0  0  0  0  0
   44.5300   35.1750   45.8190 C   0  0  0  0  0  0  0  0  0  0  0  0
   44.3980   35.5840   44.5670 N   0  0  0  0  0  0  0  0  0  0  0  0
   44.8720   35.5930   42.2770 N   0  0  0  0  0  0  0  0  0  0  0  0
   43.6060   35.4390   41.6210 C   0  0  0  0  0  0  0  0  0  0  0  0
   42.5520   35.1960   42.3780 N   0  0  0  0  0  0  0  0  0  0  0  0
   43.4730   35.5430   40.1800 N   0  0  0  0  0  0  0  0  0  0  0  0
   41.6420   35.1030   41.8910 H   0  0  0  0  0  0  0  0  0  0  0  0
   46.8290   33.4830   42.7380 C   0  0  0  0  0  0  0  0  0  0  0  0
   48.1740   34.2270   42.6560 C   0  0  0  0  0  0  0  0  0  0  0  0
   49.1270   33.3530   41.9460 C   0  0  0  0  0  0  0  0  0  0  0  0
   50.4480   33.1730   42.3060 C   0  0  0  0  0  0  0  0  0  0  0  0
   51.2540   32.3310   41.5740 C   0  0  0  0  0  0  0  0  0  0  0  0
   50.6690   31.7070   40.4990 C   0  0  0  0  0  0  0  0  0  0  0  0
   49.3560   31.8820   40.1360 C   0  0  0  0  0  0  0  0  0  0  0  0
   48.5970   32.7140   40.8750 N   0  0  0  0  0  0  0  0  0  0  0  0
   46.9111   32.8236   45.3939 H   0  0  0  0  0  0  0  0  0  0  0  0
   43.9215   35.6253   46.6171 H   0  0  0  0  0  0  0  0  0  0  0  0
   45.6184   36.1180   41.7994 H   0  0  0  0  0  0  0  0  0  0  0  0
   42.5497   35.4275   39.7384 H   0  0  0  0  0  0  0  0  0  0  0  0
   44.3019   35.7324   39.5986 H   0  0  0  0  0  0  0  0  0  0  0  0
   47.0083   32.4138   42.9243 H   0  0  0  0  0  0  0  0  0  0  0  0
   46.2812   33.5941   41.7906 H   0  0  0  0  0  0  0  0  0  0  0  0
   48.0475   35.1700   42.1040 H   0  0  0  0  0  0  0  0  0  0  0  0
   48.5455   34.4639   43.6639 H   0  0  0  0  0  0  0  0  0  0  0  0
   50.8566   33.7032   43.1789 H   0  0  0  0  0  0  0  0  0  0  0  0
   52.3097   32.1666   41.8357 H   0  0  0  0  0  0  0  0  0  0  0  0
   51.2879   31.0280   39.8940 H   0  0  0  0  0  0  0  0  0  0  0  0
   48.9357   31.3570   39.2655 H   0  0  0  0  0  0  0  0  0  0  0  0
  1  2  2  0
  1  6  1  0
  2  3  1  0
  3  4  2  0
  5  4  1  0
  6  5  2  0
  7  1  1  0
  8  7  1  0
  8  9  2  0
 10  8  1  0
 11  9  1  0
 12  2  1  0
 13 12  1  0
 14 15  2  0
 14 13  1  0
 16 15  1  0
 17 16  2  0
 18 17  1  0
 18 19  2  0
 19 14  1  0
  3 20  1  0
  5 21  1  0
  7 22  1  0
 10 23  1  0
 10 24  1  0
 12 25  1  0
 12 26  1  0
 13 27  1  0
 13 28  1  0
 15 29  1  0
 16 30  1  0
 17 31  1  0
 18 32  1  0
M  ISO  8  20  14  21  14  25   8  26   8  27   8  28   8  29  14  30  14
M  ISO  2  31  14  32  14
M  END
>  <minimizedAffinity>  (1) 
-4.9815321

>  <minimizedRMSD>  (1) 
0.4577232

$$$$
