
     RDKit          3D

 24 24  0  0  0  0  0  0  0  0999 V2000
   45.1130   34.9890   43.5700 C   0  0  0  0  0  0  0  0  0  0  0  0
   45.9700   33.9290   43.8250 C   0  0  0  0  0  0  0  0  0  0  0  0
   46.0800   33.5360   45.1550 C   0  0  0  0  0  0  0  0  0  0  0  0
   45.3530   34.2000   46.1190 N   0  0  0  0  0  0  0  0  0  0  0  0
   44.5370   35.2210   45.8100 C   0  0  0  0  0  0  0  0  0  0  0  0
   44.4180   35.6120   44.5490 N   0  0  0  0  0  0  0  0  0  0  0  0
   44.8860   35.5170   42.2510 N   0  0  0  0  0  0  0  0  0  0  0  0
   43.6040   35.4350   41.5970 C   0  0  0  0  0  0  0  0  0  0  0  0
   42.5480   35.3000   42.3600 N   0  0  0  0  0  0  0  0  0  0  0  0
   43.4790   35.4960   40.1700 N   0  0  0  0  0  0  0  0  0  0  0  0
   41.6400   35.1980   41.8820 H   0  0  0  0  0  0  0  0  0  0  0  0
   46.6980   33.2820   42.7660 C   0  0  0  0  0  0  0  0  0  0  0  0
   48.0640   34.0000   42.6360 C   0  0  0  0  0  0  0  0  0  0  0  0
   48.0030   35.0530   41.7600 O   0  0  0  0  0  0  0  0  0  0  0  0
   46.7414   32.7027   45.4345 H   0  0  0  0  0  0  0  0  0  0  0  0
   43.9688   35.7316   46.6015 H   0  0  0  0  0  0  0  0  0  0  0  0
   45.6677   35.9699   41.7562 H   0  0  0  0  0  0  0  0  0  0  0  0
   42.5491   35.4347   39.7314 H   0  0  0  0  0  0  0  0  0  0  0  0
   44.3191   35.6011   39.5835 H   0  0  0  0  0  0  0  0  0  0  0  0
   46.8530   32.2207   43.0103 H   0  0  0  0  0  0  0  0  0  0  0  0
   46.1388   33.3377   41.8204 H   0  0  0  0  0  0  0  0  0  0  0  0
   48.3643   34.3763   43.6251 H   0  0  0  0  0  0  0  0  0  0  0  0
   48.7964   33.2756   42.2503 H   0  0  0  0  0  0  0  0  0  0  0  0
   47.9538   35.9018   42.2672 H   0  0  0  0  0  0  0  0  0  0  0  0
  1  2  2  0
  1  6  1  0
  2  3  1  0
  3  4  2  0
  5  4  1  0
  6  5  2  0
  7  1  1  0
  8  7  1  0
  8  9  2  0
 10  8  1  0
 11  9  1  0
 12  2  1  0
 13 12  1  0
 14 13  1  0
  3 15  1  0
  5 16  1  0
  7 17  1  0
 10 18  1  0
 10 19  1  0
 12 20  1  0
 12 21  1  0
 13 22  1  0
 13 23  1  0
 14 24  1  0
M  ISO  7  15  14  16  14  20   8  21   8  22   8  23   8  24   3
M  END
>  <minimizedAffinity>  (1) 
-4.06885242

>  <minimizedRMSD>  (1) 
0.633457422

$$$$
