
     RDKit          3D

 25 25  0  0  0  0  0  0  0  0999 V2000
   45.1240   34.9910   43.5590 C   0  0  0  0  0  0  0  0  0  0  0  0
   45.9890   33.9290   43.8370 C   0  0  0  0  0  0  0  0  0  0  0  0
   46.0880   33.5470   45.1590 C   0  0  0  0  0  0  0  0  0  0  0  0
   45.3660   34.1960   46.1110 N   0  0  0  0  0  0  0  0  0  0  0  0
   44.5380   35.2210   45.8040 C   0  0  0  0  0  0  0  0  0  0  0  0
   44.4180   35.6130   44.5510 N   0  0  0  0  0  0  0  0  0  0  0  0
   44.8890   35.5280   42.2540 N   0  0  0  0  0  0  0  0  0  0  0  0
   43.6070   35.4330   41.5970 C   0  0  0  0  0  0  0  0  0  0  0  0
   42.5510   35.2800   42.3710 N   0  0  0  0  0  0  0  0  0  0  0  0
   43.4860   35.5040   40.1630 N   0  0  0  0  0  0  0  0  0  0  0  0
   41.6400   35.2120   41.8830 H   0  0  0  0  0  0  0  0  0  0  0  0
   46.7110   33.3030   42.7630 C   0  0  0  0  0  0  0  0  0  0  0  0
   48.0880   33.9690   42.6510 C   0  0  0  0  0  0  0  0  0  0  0  0
   48.0820   35.0330   41.6890 N   0  0  0  0  0  0  0  0  0  0  0  0
   46.7515   32.7169   45.4431 H   0  0  0  0  0  0  0  0  0  0  0  0
   43.9668   35.7256   46.5972 H   0  0  0  0  0  0  0  0  0  0  0  0
   45.6631   35.9999   41.7651 H   0  0  0  0  0  0  0  0  0  0  0  0
   42.5587   35.4334   39.7203 H   0  0  0  0  0  0  0  0  0  0  0  0
   44.3268   35.6254   39.5806 H   0  0  0  0  0  0  0  0  0  0  0  0
   46.8334   32.2303   42.9735 H   0  0  0  0  0  0  0  0  0  0  0  0
   46.1581   33.4181   41.8190 H   0  0  0  0  0  0  0  0  0  0  0  0
   48.3683   34.3771   43.6333 H   0  0  0  0  0  0  0  0  0  0  0  0
   48.8121   33.2098   42.3205 H   0  0  0  0  0  0  0  0  0  0  0  0
   48.0769   35.9389   42.1791 H   0  0  0  0  0  0  0  0  0  0  0  0
   48.9234   34.9668   41.0986 H   0  0  0  0  0  0  0  0  0  0  0  0
  1  2  2  0
  1  6  1  0
  2  3  1  0
  3  4  2  0
  5  4  1  0
  6  5  2  0
  7  1  1  0
  8  7  1  0
  8  9  2  0
 10  8  1  0
 11  9  1  0
 12  2  1  0
 13 12  1  0
 14 13  1  0
  3 15  1  0
  5 16  1  0
  7 17  1  0
 10 18  1  0
 10 19  1  0
 12 20  1  0
 12 21  1  0
 13 22  1  0
 13 23  1  0
 14 24  1  0
 14 25  1  0
M  ISO  8  15  14  16  14  20   8  21   8  22   8  23   8  24   5  25   5
M  END
>  <minimizedAffinity>  (1) 
-4.07700253

>  <minimizedRMSD>  (1) 
0.334725648

$$$$
