
     RDKit          3D

 29 30  0  0  0  0  0  0  0  0999 V2000
   45.2080   34.9920   43.5650 C   0  0  0  0  0  0  0  0  0  0  0  0
   46.1700   34.0020   43.7820 C   0  0  0  0  0  0  0  0  0  0  0  0
   46.3360   33.5510   45.0780 C   0  0  0  0  0  0  0  0  0  0  0  0
   45.5640   34.0860   46.0780 N   0  0  0  0  0  0  0  0  0  0  0  0
   44.6400   35.0460   45.8300 C   0  0  0  0  0  0  0  0  0  0  0  0
   44.4700   35.4840   44.6020 N   0  0  0  0  0  0  0  0  0  0  0  0
   44.9090   35.5650   42.3030 N   0  0  0  0  0  0  0  0  0  0  0  0
   43.6420   35.4250   41.6560 C   0  0  0  0  0  0  0  0  0  0  0  0
   42.6130   35.1540   42.4230 N   0  0  0  0  0  0  0  0  0  0  0  0
   43.4740   35.5670   40.2360 N   0  0  0  0  0  0  0  0  0  0  0  0
   41.6910   35.0220   41.9510 H   0  0  0  0  0  0  0  0  0  0  0  0
   46.9350   33.4990   42.6750 C   0  0  0  0  0  0  0  0  0  0  0  0
   48.2770   34.2360   42.6250 C   0  0  0  0  0  0  0  0  0  0  0  0
   49.2870   33.3110   41.9920 C   0  0  0  0  0  0  0  0  0  0  0  0
   50.7000   33.2830   42.3120 C   0  0  0  0  0  0  0  0  0  0  0  0
   51.2270   31.9260   41.1500 S   0  0  0  0  0  0  0  0  0  0  0  0
   49.4860   31.6770   40.4860 C   0  0  0  0  0  0  0  0  0  0  0  0
   48.7010   32.5290   41.1040 N   0  0  0  0  0  0  0  0  0  0  0  0
   47.0787   32.7720   45.3050 H   0  0  0  0  0  0  0  0  0  0  0  0
   44.0353   35.4567   46.6520 H   0  0  0  0  0  0  0  0  0  0  0  0
   45.6425   36.1102   41.8280 H   0  0  0  0  0  0  0  0  0  0  0  0
   42.5407   35.4573   39.8143 H   0  0  0  0  0  0  0  0  0  0  0  0
   44.2869   35.7785   39.6398 H   0  0  0  0  0  0  0  0  0  0  0  0
   47.1102   32.4210   42.8065 H   0  0  0  0  0  0  0  0  0  0  0  0
   46.3847   33.6618   41.7365 H   0  0  0  0  0  0  0  0  0  0  0  0
   48.1791   35.1515   42.0231 H   0  0  0  0  0  0  0  0  0  0  0  0
   48.5977   34.5201   43.6381 H   0  0  0  0  0  0  0  0  0  0  0  0
   51.2847   33.8821   43.0255 H   0  0  0  0  0  0  0  0  0  0  0  0
   49.1805   30.9498   39.7192 H   0  0  0  0  0  0  0  0  0  0  0  0
  1  2  2  0
  1  6  1  0
  2  3  1  0
  3  4  2  0
  5  4  1  0
  6  5  2  0
  7  1  1  0
  8  7  1  0
  8  9  2  0
 10  8  1  0
 11  9  1  0
 12  2  1  0
 13 12  1  0
 14 15  2  0
 14 13  1  0
 16 15  1  0
 17 18  2  0
 17 16  1  0
 18 14  1  0
  3 19  1  0
  5 20  1  0
  7 21  1  0
 10 22  1  0
 10 23  1  0
 12 24  1  0
 12 25  1  0
 13 26  1  0
 13 27  1  0
 15 28  1  0
 17 29  1  0
M  ISO  8  19  14  20  14  24   8  25   8  26   8  27   8  28  14  29  14
M  END
>  <minimizedAffinity>  (1) 
-4.67471933

>  <minimizedRMSD>  (1) 
0.667279661

$$$$
