
     RDKit          3D

 48 49  0  0  1  0  0  0  0  0999 V2000
   47.7900   32.5230   43.5580 C   0  0  0  0  0  0  0  0  0  0  0  0
   48.9950   32.6620   42.7170 C   0  0  1  0  0  0  0  0  0  0  0  0
   49.6870   31.3440   42.6040 C   0  0  0  0  0  0  0  0  0  0  0  0
   50.9430   31.5230   41.7650 C   0  0  0  0  0  0  0  0  0  0  0  0
   50.5740   31.8180   40.3580 C   0  0  0  0  0  0  0  0  0  0  0  0
   49.1220   32.2610   40.2460 C   0  0  0  0  0  0  0  0  0  0  0  0
   48.7510   33.2210   41.3950 C   0  0  2  0  0  0  0  0  0  0  0  0
   48.2920   34.5310   40.9520 C   0  0  0  0  0  0  0  0  0  0  0  0
   48.2770   34.7530   39.4340 C   0  0  0  0  0  0  0  0  0  0  0  0
   48.9850   35.7690   41.4640 C   0  0  0  0  0  0  0  0  0  0  0  0
   46.5050   33.0100   42.9420 C   0  0  0  0  0  0  0  0  0  0  0  0
   45.0770   34.9120   43.5660 C   0  0  0  0  0  0  0  0  0  0  0  0
   45.8070   33.8070   43.9490 C   0  0  0  0  0  0  0  0  0  0  0  0
   45.8450   33.5180   45.3070 C   0  0  0  0  0  0  0  0  0  0  0  0
   45.1690   34.3280   46.1790 N   0  0  0  0  0  0  0  0  0  0  0  0
   44.4710   35.3930   45.7670 C   0  0  0  0  0  0  0  0  0  0  0  0
   44.4350   35.6680   44.4780 N   0  0  0  0  0  0  0  0  0  0  0  0
   44.9400   35.3220   42.2160 N   0  0  0  0  0  0  0  0  0  0  0  0
   43.6880   35.3530   41.5180 C   0  0  0  0  0  0  0  0  0  0  0  0
   42.5980   35.3670   42.2390 N   0  0  0  0  0  0  0  0  0  0  0  0
   43.6260   35.3610   40.0770 N   0  0  0  0  0  0  0  0  0  0  0  0
   41.6980   35.3340   41.7170 H   0  0  0  0  0  0  0  0  0  0  0  0
   47.6668   31.4567   43.7987 H   0  0  0  0  0  0  0  0  0  0  0  0
   47.9623   33.1613   44.4372 H   0  0  0  0  0  0  0  0  0  0  0  0
   49.6375   33.3942   43.2280 H   0  0  0  0  0  0  0  0  0  0  0  0
   49.9598   30.9821   43.6063 H   0  0  0  0  0  0  0  0  0  0  0  0
   49.0199   30.6100   42.1283 H   0  0  0  0  0  0  0  0  0  0  0  0
   51.5355   32.3571   42.1690 H   0  0  0  0  0  0  0  0  0  0  0  0
   51.5346   30.5962   41.7971 H   0  0  0  0  0  0  0  0  0  0  0  0
   51.2234   32.6206   39.9784 H   0  0  0  0  0  0  0  0  0  0  0  0
   50.7024   30.8995   39.7665 H   0  0  0  0  0  0  0  0  0  0  0  0
   48.9752   32.7755   39.2849 H   0  0  0  0  0  0  0  0  0  0  0  0
   48.4769   31.3722   40.3075 H   0  0  0  0  0  0  0  0  0  0  0  0
   47.7309   32.8096   41.4093 H   0  0  0  0  0  0  0  0  0  0  0  0
   47.2929   34.4442   41.4040 H   0  0  0  0  0  0  0  0  0  0  0  0
   48.2042   35.8298   39.2216 H   0  0  0  0  0  0  0  0  0  0  0  0
   49.2041   34.3547   38.9960 H   0  0  0  0  0  0  0  0  0  0  0  0
   47.4119   34.2336   38.9960 H   0  0  0  0  0  0  0  0  0  0  0  0
   48.9815   35.7628   42.5640 H   0  0  0  0  0  0  0  0  0  0  0  0
   50.0232   35.7848   41.1007 H   0  0  0  0  0  0  0  0  0  0  0  0
   48.4557   36.6622   41.1007 H   0  0  0  0  0  0  0  0  0  0  0  0
   46.7231   33.6286   42.0590 H   0  0  0  0  0  0  0  0  0  0  0  0
   45.8834   32.1607   42.6223 H   0  0  0  0  0  0  0  0  0  0  0  0
   46.4106   32.6500   45.6767 H   0  0  0  0  0  0  0  0  0  0  0  0
   43.9373   36.0271   46.4903 H   0  0  0  0  0  0  0  0  0  0  0  0
   45.7872   35.6139   41.7081 H   0  0  0  0  0  0  0  0  0  0  0  0
   42.7129   35.3835   39.6009 H   0  0  0  0  0  0  0  0  0  0  0  0
   44.4948   35.3443   39.5240 H   0  0  0  0  0  0  0  0  0  0  0  0
  2  1  1  0
  3  2  1  0
  4  3  1  0
  5  4  1  0
  6  5  1  0
  6  7  1  0
  7  2  1  0
  8  7  1  0
  8 10  1  0
  9  8  1  0
 11  1  1  0
 11 13  1  0
 12 13  2  0
 12 17  1  0
 13 14  1  0
 14 15  2  0
 16 15  1  0
 17 16  2  0
 18 12  1  0
 19 18  1  0
 19 20  2  0
 21 19  1  0
 22 20  1  0
  1 23  1  0
  1 24  1  0
  2 25  1  1
  3 26  1  0
  3 27  1  0
  4 28  1  0
  4 29  1  0
  5 30  1  0
  5 31  1  0
  6 32  1  0
  6 33  1  0
  7 34  1  6
  8 35  1  0
  9 36  1  0
  9 37  1  0
  9 38  1  0
 10 39  1  0
 10 40  1  0
 10 41  1  0
 11 42  1  0
 11 43  1  0
 14 44  1  0
 16 45  1  0
 18 46  1  0
 21 47  1  0
 21 48  1  0
M  ISO  8  23   8  24   8  25  13  26  13  27  13  28  13  29  13  30  13
M  ISO  8  31  13  32  13  33  13  34  13  35   8  36   8  37   8  38   8
M  ISO  7  39   8  40   8  41   8  42   8  43   8  44  14  45  14
M  END
>  <minimizedAffinity>  (1) 
-5.72788239

>  <minimizedRMSD>  (1) 
1.48461306

$$$$
