
     RDKit          3D

 42 43  0  0  1  0  0  0  0  0999 V2000
   47.8770   33.9600   42.4330 C   0  0  0  0  0  0  0  0  0  0  0  0
   48.2980   33.4720   41.0920 C   0  0  1  0  0  0  0  0  0  0  0  0
   48.0130   32.1770   40.7090 C   0  0  0  0  0  0  0  0  0  0  0  0
   48.7930   31.8980   39.4140 C   0  0  0  0  0  0  0  0  0  0  0  0
   48.6820   32.9560   38.3800 C   0  0  0  0  0  0  0  0  0  0  0  0
   48.1990   34.2850   38.9380 C   0  0  0  0  0  0  0  0  0  0  0  0
   47.4590   34.0780   40.0240 C   0  0  1  0  0  0  0  0  0  0  0  0
   46.2390   33.4510   39.4580 C   0  0  0  0  0  0  0  0  0  0  0  0
   45.2410   32.6710   39.6720 O   0  0  0  0  0  0  0  0  0  0  0  0
   45.9900   33.8030   38.1290 O   0  0  0  0  0  0  0  0  0  0  0  0
   46.7100   33.1890   42.8700 C   0  0  0  0  0  0  0  0  0  0  0  0
   45.1350   34.9360   43.5540 C   0  0  0  0  0  0  0  0  0  0  0  0
   45.9880   33.8920   43.8920 C   0  0  0  0  0  0  0  0  0  0  0  0
   46.0790   33.5560   45.2230 C   0  0  0  0  0  0  0  0  0  0  0  0
   45.3500   34.2410   46.1350 N   0  0  0  0  0  0  0  0  0  0  0  0
   44.5310   35.2470   45.7820 C   0  0  0  0  0  0  0  0  0  0  0  0
   44.4140   35.6040   44.4960 N   0  0  0  0  0  0  0  0  0  0  0  0
   44.9060   35.4670   42.2590 N   0  0  0  0  0  0  0  0  0  0  0  0
   43.6140   35.3590   41.5870 C   0  0  0  0  0  0  0  0  0  0  0  0
   42.5320   35.1820   42.3550 N   0  0  0  0  0  0  0  0  0  0  0  0
   43.4890   35.4540   40.1690 N   0  0  0  0  0  0  0  0  0  0  0  0
   41.6370   35.2030   41.8630 H   0  0  0  0  0  0  0  0  0  0  0  0
   47.6143   35.0265   42.3728 H   0  0  0  0  0  0  0  0  0  0  0  0
   48.6996   33.8338   43.1523 H   0  0  0  0  0  0  0  0  0  0  0  0
   49.3740   33.6791   41.1883 H   0  0  0  0  0  0  0  0  0  0  0  0
   48.3266   31.4747   41.4954 H   0  0  0  0  0  0  0  0  0  0  0  0
   46.9326   32.0490   40.5467 H   0  0  0  0  0  0  0  0  0  0  0  0
   49.8559   31.7829   39.6729 H   0  0  0  0  0  0  0  0  0  0  0  0
   48.3517   30.9903   38.9765 H   0  0  0  0  0  0  0  0  0  0  0  0
   47.9716   32.6203   37.6102 H   0  0  0  0  0  0  0  0  0  0  0  0
   49.6886   33.1192   37.9675 H   0  0  0  0  0  0  0  0  0  0  0  0
   49.0671   34.9071   39.2013 H   0  0  0  0  0  0  0  0  0  0  0  0
   47.5911   34.7975   38.1778 H   0  0  0  0  0  0  0  0  0  0  0  0
   47.0861   34.9213   40.6238 H   0  0  0  0  0  0  0  0  0  0  0  0
   46.6049   34.4183   37.6564 H   0  0  0  0  0  0  0  0  0  0  0  0
   46.0456   33.0215   42.0094 H   0  0  0  0  0  0  0  0  0  0  0  0
   47.0555   32.2284   43.2798 H   0  0  0  0  0  0  0  0  0  0  0  0
   46.7393   32.7368   45.5437 H   0  0  0  0  0  0  0  0  0  0  0  0
   43.9543   35.7795   46.5526 H   0  0  0  0  0  0  0  0  0  0  0  0
   45.6788   35.9461   41.7751 H   0  0  0  0  0  0  0  0  0  0  0  0
   42.5621   35.3734   39.7272 H   0  0  0  0  0  0  0  0  0  0  0  0
   44.3257   35.6032   39.5871 H   0  0  0  0  0  0  0  0  0  0  0  0
  1 11  1  0
  2  1  1  0
  3  2  1  0
  4  3  1  0
  5  6  1  0
  5  4  1  0
  6  7  1  0
  7  2  1  0
  8  9  2  0
  8  7  1  0
 10  8  1  0
 11 13  1  0
 12 13  2  0
 12 17  1  0
 13 14  1  0
 14 15  2  0
 16 15  1  0
 17 16  2  0
 18 12  1  0
 19 18  1  0
 19 20  2  0
 21 19  1  0
 22 20  1  0
  1 23  1  0
  1 24  1  0
  2 25  1  6
  3 26  1  0
  3 27  1  0
  4 28  1  0
  4 29  1  0
  5 30  1  0
  5 31  1  0
  6 32  1  0
  6 33  1  0
  7 34  1  1
 10 35  1  0
 11 36  1  0
 11 37  1  0
 14 38  1  0
 16 39  1  0
 18 40  1  0
 21 41  1  0
 21 42  1  0
M  ISO  8  23   8  24   8  25  13  26  13  27  13  28  13  29  13  30  13
M  ISO  8  31  13  32  13  33  13  34  13  35   3  36   8  37   8  38  14
M  ISO  1  39  14
M  END
>  <minimizedAffinity>  (1) 
-5.19052649

>  <minimizedRMSD>  (1) 
0.500517547

$$$$
