
     RDKit          3D

 42 43  0  0  1  0  0  0  0  0999 V2000
   47.8980   33.1950   43.1730 C   0  0  0  0  0  0  0  0  0  0  0  0
   48.5020   33.3440   41.8080 C   0  0  1  0  0  0  0  0  0  0  0  0
   48.4420   32.1290   40.9620 C   0  0  0  0  0  0  0  0  0  0  0  0
   49.1070   32.4480   39.6310 C   0  0  0  0  0  0  0  0  0  0  0  0
   48.4450   33.5950   38.9270 C   0  0  0  0  0  0  0  0  0  0  0  0
   47.3170   34.1280   39.7530 C   0  0  0  0  0  0  0  0  0  0  0  0
   47.8330   34.5020   41.1390 C   0  0  2  0  0  0  0  0  0  0  0  0
   48.9210   35.5960   40.9450 C   0  0  0  0  0  0  0  0  0  0  0  0
   46.4110   32.9330   43.1240 C   0  0  0  0  0  0  0  0  0  0  0  0
   45.0780   34.8770   43.7310 C   0  0  0  0  0  0  0  0  0  0  0  0
   45.7560   33.7380   44.1140 C   0  0  0  0  0  0  0  0  0  0  0  0
   45.7610   33.4320   45.4710 C   0  0  0  0  0  0  0  0  0  0  0  0
   45.1080   34.2570   46.3430 N   0  0  0  0  0  0  0  0  0  0  0  0
   44.4540   35.3670   45.9250 C   0  0  0  0  0  0  0  0  0  0  0  0
   44.4350   35.6800   44.6250 N   0  0  0  0  0  0  0  0  0  0  0  0
   44.9700   35.3830   42.3950 N   0  0  0  0  0  0  0  0  0  0  0  0
   43.6960   35.3630   41.6870 C   0  0  0  0  0  0  0  0  0  0  0  0
   42.5700   35.3440   42.4080 N   0  0  0  0  0  0  0  0  0  0  0  0
   43.6160   35.3750   40.2530 N   0  0  0  0  0  0  0  0  0  0  0  0
   41.6960   35.4160   41.8860 H   0  0  0  0  0  0  0  0  0  0  0  0
   48.3875   32.3534   43.6850 H   0  0  0  0  0  0  0  0  0  0  0  0
   48.0522   34.1419   43.7111 H   0  0  0  0  0  0  0  0  0  0  0  0
   49.5800   33.5194   41.9392 H   0  0  0  0  0  0  0  0  0  0  0  0
   48.9745   31.3033   41.4567 H   0  0  0  0  0  0  0  0  0  0  0  0
   47.3966   31.8257   40.8033 H   0  0  0  0  0  0  0  0  0  0  0  0
   50.1606   32.7054   39.8142 H   0  0  0  0  0  0  0  0  0  0  0  0
   49.0176   31.5602   38.9877 H   0  0  0  0  0  0  0  0  0  0  0  0
   49.1828   34.3939   38.7612 H   0  0  0  0  0  0  0  0  0  0  0  0
   48.0485   33.2433   37.9631 H   0  0  0  0  0  0  0  0  0  0  0  0
   46.8955   35.0197   39.2659 H   0  0  0  0  0  0  0  0  0  0  0  0
   46.5369   33.3583   39.8479 H   0  0  0  0  0  0  0  0  0  0  0  0
   46.9837   34.8339   41.7543 H   0  0  0  0  0  0  0  0  0  0  0  0
   49.2688   35.9457   41.9282 H   0  0  0  0  0  0  0  0  0  0  0  0
   49.7688   35.1748   40.3848 H   0  0  0  0  0  0  0  0  0  0  0  0
   48.4951   36.4414   40.3848 H   0  0  0  0  0  0  0  0  0  0  0  0
   46.0250   33.1905   42.1266 H   0  0  0  0  0  0  0  0  0  0  0  0
   46.2169   31.8693   43.3261 H   0  0  0  0  0  0  0  0  0  0  0  0
   46.2843   32.5367   45.8377 H   0  0  0  0  0  0  0  0  0  0  0  0
   43.9392   36.0102   46.6539 H   0  0  0  0  0  0  0  0  0  0  0  0
   45.8043   35.7663   41.9282 H   0  0  0  0  0  0  0  0  0  0  0  0
   42.6969   35.3601   39.7883 H   0  0  0  0  0  0  0  0  0  0  0  0
   44.4777   35.3985   39.6893 H   0  0  0  0  0  0  0  0  0  0  0  0
  2  1  1  0
  3  2  1  0
  4  3  1  0
  5  4  1  0
  5  6  1  0
  6  7  1  0
  7  2  1  0
  8  7  1  0
  9  1  1  0
  9 11  1  0
 10 11  2  0
 10 15  1  0
 11 12  1  0
 12 13  2  0
 14 13  1  0
 15 14  2  0
 16 10  1  0
 17 16  1  0
 17 18  2  0
 19 17  1  0
 20 18  1  0
  1 21  1  0
  1 22  1  0
  2 23  1  1
  3 24  1  0
  3 25  1  0
  4 26  1  0
  4 27  1  0
  5 28  1  0
  5 29  1  0
  6 30  1  0
  6 31  1  0
  7 32  1  1
  8 33  1  0
  8 34  1  0
  8 35  1  0
  9 36  1  0
  9 37  1  0
 12 38  1  0
 14 39  1  0
 16 40  1  0
 19 41  1  0
 19 42  1  0
M  ISO  8  21   8  22   8  23  13  24  13  25  13  26  13  27  13  28  13
M  ISO  8  29  13  30  13  31  13  32  13  33   8  34   8  35   8  36   8
M  ISO  3  37   8  38  14  39  14
M  END
>  <minimizedAffinity>  (1) 
-5.41950369

>  <minimizedRMSD>  (1) 
0.462606132

$$$$
