
     RDKit          3D

 23 25  0  0  0  0  0  0  0  0999 V2000
   44.4180   36.0910   44.6000 C   0  0  0  0  0  0  0  0  0  0  0  0
   45.0980   36.0210   43.3690 C   0  0  0  0  0  0  0  0  0  0  0  0
   46.0280   34.9790   43.1760 C   0  0  0  0  0  0  0  0  0  0  0  0
   46.2160   34.1000   44.1930 N   0  0  0  0  0  0  0  0  0  0  0  0
   45.5430   34.1950   45.3740 C   0  0  0  0  0  0  0  0  0  0  0  0
   44.6500   35.1960   45.5540 N   0  0  0  0  0  0  0  0  0  0  0  0
   45.8860   33.1700   46.3130 N   0  0  0  0  0  0  0  0  0  0  0  0
   45.3120   32.9280   47.4910 N   0  0  0  0  0  0  0  0  0  0  0  0
   45.9220   31.8690   48.0920 C   0  0  0  0  0  0  0  0  0  0  0  0
   46.9140   31.4650   47.2090 C   0  0  0  0  0  0  0  0  0  0  0  0
   46.8830   32.2970   46.0860 C   0  0  0  0  0  0  0  0  0  0  0  0
   46.7790   34.8010   41.9770 N   0  0  0  0  0  0  0  0  0  0  0  0
   46.5260   34.1730   40.8010 C   0  0  0  0  0  0  0  0  0  0  0  0
   47.5930   34.3080   39.9940 N   0  0  0  0  0  0  0  0  0  0  0  0
   48.4960   35.0230   40.6860 C   0  0  0  0  0  0  0  0  0  0  0  0
   47.9950   35.3350   41.9300 N   0  0  0  0  0  0  0  0  0  0  0  0
   43.6874   36.8948   44.7735 H   0  0  0  0  0  0  0  0  0  0  0  0
   44.9083   36.7610   42.5775 H   0  0  0  0  0  0  0  0  0  0  0  0
   45.6799   31.4274   49.0699 H   0  0  0  0  0  0  0  0  0  0  0  0
   47.6100   30.6279   47.3669 H   0  0  0  0  0  0  0  0  0  0  0  0
   47.5367   32.2478   45.2027 H   0  0  0  0  0  0  0  0  0  0  0  0
   45.5977   33.6395   40.5486 H   0  0  0  0  0  0  0  0  0  0  0  0
   49.4888   35.3158   40.3137 H   0  0  0  0  0  0  0  0  0  0  0  0
  1  6  2  0
  2  1  1  0
  3  2  2  0
  3  4  1  0
  4  5  2  0
  5  6  1  0
  5  7  1  0
  7  8  1  0
  8  9  2  0
 10  9  1  0
 11  7  1  0
 11 10  2  0
 12  3  1  0
 13 12  1  0
 14 15  1  0
 14 13  2  0
 15 16  2  0
 16 12  1  0
  1 17  1  0
  2 18  1  0
  9 19  1  0
 10 20  1  0
 11 21  1  0
 13 22  1  0
 15 23  1  0
M  ISO  7  17  14  18  14  19  14  20  14  21  14  22  14  23  14
M  END
>  <minimizedAffinity>  (1) 
-5.5251379

>  <minimizedRMSD>  (1) 
0.163325951

$$$$
