
     RDKit          3D

 22 24  0  0  0  0  0  0  0  0999 V2000
   44.4230   36.0580   44.6660 C   0  0  0  0  0  0  0  0  0  0  0  0
   45.0790   35.9900   43.4220 C   0  0  0  0  0  0  0  0  0  0  0  0
   46.0000   34.9440   43.2150 C   0  0  0  0  0  0  0  0  0  0  0  0
   46.2020   34.0600   44.2240 N   0  0  0  0  0  0  0  0  0  0  0  0
   45.5460   34.1620   45.4120 C   0  0  0  0  0  0  0  0  0  0  0  0
   44.6750   35.1450   45.6220 N   0  0  0  0  0  0  0  0  0  0  0  0
   45.8100   33.2000   46.4230 N   0  0  0  0  0  0  0  0  0  0  0  0
   46.7750   32.2670   46.4130 C   0  0  0  0  0  0  0  0  0  0  0  0
   46.6840   31.5570   47.5560 N   0  0  0  0  0  0  0  0  0  0  0  0
   45.6630   32.0340   48.2960 C   0  0  0  0  0  0  0  0  0  0  0  0
   45.1420   33.0510   47.5660 N   0  0  0  0  0  0  0  0  0  0  0  0
   46.7280   34.7680   42.0010 N   0  0  0  0  0  0  0  0  0  0  0  0
   46.4790   34.1700   40.8330 C   0  0  0  0  0  0  0  0  0  0  0  0
   47.5450   34.3090   40.0080 N   0  0  0  0  0  0  0  0  0  0  0  0
   48.4550   35.0080   40.7060 C   0  0  0  0  0  0  0  0  0  0  0  0
   47.9650   35.3030   41.9510 N   0  0  0  0  0  0  0  0  0  0  0  0
   43.6990   36.8636   44.8579 H   0  0  0  0  0  0  0  0  0  0  0  0
   44.8784   36.7317   42.6349 H   0  0  0  0  0  0  0  0  0  0  0  0
   47.5119   32.1090   45.6118 H   0  0  0  0  0  0  0  0  0  0  0  0
   45.3255   31.6755   49.2797 H   0  0  0  0  0  0  0  0  0  0  0  0
   45.5475   33.6432   40.5786 H   0  0  0  0  0  0  0  0  0  0  0  0
   49.4476   35.3006   40.3330 H   0  0  0  0  0  0  0  0  0  0  0  0
  1  6  2  0
  2  1  1  0
  3  2  2  0
  3  4  1  0
  4  5  2  0
  5  6  1  0
  5  7  1  0
  7 11  1  0
  8  7  1  0
  8  9  2  0
  9 10  1  0
 11 10  2  0
 12  3  1  0
 13 12  1  0
 14 15  1  0
 14 13  2  0
 15 16  2  0
 16 12  1  0
  1 17  1  0
  2 18  1  0
  8 19  1  0
 10 20  1  0
 13 21  1  0
 15 22  1  0
M  ISO  6  17  14  18  14  19  14  20  14  21  14  22  14
M  END
>  <minimizedAffinity>  (1) 
-5.57311821

>  <minimizedRMSD>  (1) 
0.149810776

$$$$
