
     RDKit          3D

 19 20  0  0  0  0  0  0  0  0999 V2000
   44.5440   35.6580   44.7490 C   0  0  0  0  0  0  0  0  0  0  0  0
   45.1760   35.7110   43.4930 C   0  0  0  0  0  0  0  0  0  0  0  0
   46.2130   34.7960   43.2360 C   0  0  0  0  0  0  0  0  0  0  0  0
   46.5480   33.9110   44.2100 N   0  0  0  0  0  0  0  0  0  0  0  0
   45.9080   33.8960   45.4130 C   0  0  0  0  0  0  0  0  0  0  0  0
   44.9240   34.7600   45.6640 N   0  0  0  0  0  0  0  0  0  0  0  0
   46.9320   34.7440   42.0080 N   0  0  0  0  0  0  0  0  0  0  0  0
   46.7010   34.1530   40.8100 C   0  0  0  0  0  0  0  0  0  0  0  0
   47.7270   34.4290   39.9710 N   0  0  0  0  0  0  0  0  0  0  0  0
   48.5740   35.1870   40.6720 C   0  0  0  0  0  0  0  0  0  0  0  0
   48.0930   35.3890   41.9320 N   0  0  0  0  0  0  0  0  0  0  0  0
   46.3070   32.9250   46.4270 C   0  0  0  0  0  0  0  0  0  0  0  0
   45.7750   31.7800   46.4480 O   0  0  0  0  0  0  0  0  0  0  0  0
   47.2690   33.2350   47.3770 O   0  0  0  0  0  0  0  0  0  0  0  0
   43.7304   36.3613   44.9802 H   0  0  0  0  0  0  0  0  0  0  0  0
   44.8683   36.4460   42.7347 H   0  0  0  0  0  0  0  0  0  0  0  0
   45.8191   33.5452   40.5592 H   0  0  0  0  0  0  0  0  0  0  0  0
   49.5228   35.5903   40.2884 H   0  0  0  0  0  0  0  0  0  0  0  0
   47.5272   32.5638   48.0573 H   0  0  0  0  0  0  0  0  0  0  0  0
  1  6  2  0
  2  1  1  0
  3  2  2  0
  3  4  1  0
  4  5  2  0
  5  6  1  0
  5 12  1  0
  7  3  1  0
  8  7  1  0
  9 10  1  0
  9  8  2  0
 10 11  2  0
 11  7  1  0
 12 13  2  0
 12 14  1  0
  1 15  1  0
  2 16  1  0
  8 17  1  0
 10 18  1  0
 14 19  1  0
M  ISO  5  15  14  16  14  17  14  18  14  19   3
M  END
>  <minimizedAffinity>  (1) 
-5.0876379

>  <minimizedRMSD>  (1) 
0.469503134

$$$$
