
     RDKit          3D

 23 25  0  0  0  0  0  0  0  0999 V2000
   44.6330   35.7480   44.7210 C   0  0  0  0  0  0  0  0  0  0  0  0
   45.3300   35.8510   43.5020 C   0  0  0  0  0  0  0  0  0  0  0  0
   46.2410   34.8400   43.1660 C   0  0  0  0  0  0  0  0  0  0  0  0
   46.4040   33.8040   44.0470 N   0  0  0  0  0  0  0  0  0  0  0  0
   45.7080   33.7480   45.2130 C   0  0  0  0  0  0  0  0  0  0  0  0
   44.8390   34.7090   45.5370 N   0  0  0  0  0  0  0  0  0  0  0  0
   47.0090   34.8170   41.9730 N   0  0  0  0  0  0  0  0  0  0  0  0
   46.8690   34.2340   40.7600 C   0  0  0  0  0  0  0  0  0  0  0  0
   47.9130   34.5430   39.9700 N   0  0  0  0  0  0  0  0  0  0  0  0
   48.7090   35.3300   40.7150 C   0  0  0  0  0  0  0  0  0  0  0  0
   48.1590   35.5050   41.9540 N   0  0  0  0  0  0  0  0  0  0  0  0
   45.9630   32.5780   46.0960 C   0  0  0  0  0  0  0  0  0  0  0  0
   46.9650   32.6730   47.2130 C   0  0  0  0  0  0  0  0  0  0  0  0
   45.5240   32.7170   47.5450 C   0  0  0  0  0  0  0  0  0  0  0  0
   43.9125   36.5293   45.0046 H   0  0  0  0  0  0  0  0  0  0  0  0
   45.1635   36.7050   42.8289 H   0  0  0  0  0  0  0  0  0  0  0  0
   46.0222   33.5981   40.4623 H   0  0  0  0  0  0  0  0  0  0  0  0
   49.6603   35.7675   40.3779 H   0  0  0  0  0  0  0  0  0  0  0  0
   45.8080   31.8710   45.2677 H   0  0  0  0  0  0  0  0  0  0  0  0
   47.5623   31.7911   47.4877 H   0  0  0  0  0  0  0  0  0  0  0  0
   47.8242   33.3269   47.4234 H   0  0  0  0  0  0  0  0  0  0  0  0
   45.0688   33.6557   47.8937 H   0  0  0  0  0  0  0  0  0  0  0  0
   44.8632   32.1471   48.2147 H   0  0  0  0  0  0  0  0  0  0  0  0
  1  6  2  0
  2  1  1  0
  3  2  2  0
  3  4  1  0
  4  5  2  0
  5  6  1  0
  5 12  1  0
  7  3  1  0
  8  7  1  0
  9 10  1  0
  9  8  2  0
 10 11  2  0
 11  7  1  0
 12 13  1  0
 12 14  1  0
 13 14  1  0
  1 15  1  0
  2 16  1  0
  8 17  1  0
 10 18  1  0
 12 19  1  0
 13 20  1  0
 13 21  1  0
 14 22  1  0
 14 23  1  0
M  ISO  8  15  14  16  14  17  14  18  14  19  13  20  13  21  13  22  13
M  ISO  1  23  13
M  END
>  <minimizedAffinity>  (1) 
-4.73690319

>  <minimizedRMSD>  (1) 
0.401157856

$$$$
