
     RDKit          3D

 28 29  0  0  0  0  0  0  0  0999 V2000
   44.4990   35.5490   45.3310 C   0  0  0  0  0  0  0  0  0  0  0  0
   45.1180   35.6030   44.0690 C   0  0  0  0  0  0  0  0  0  0  0  0
   46.0380   34.5900   43.7310 C   0  0  0  0  0  0  0  0  0  0  0  0
   46.2850   33.6060   44.6380 N   0  0  0  0  0  0  0  0  0  0  0  0
   45.6560   33.5980   45.8530 C   0  0  0  0  0  0  0  0  0  0  0  0
   44.7830   34.5530   46.1830 N   0  0  0  0  0  0  0  0  0  0  0  0
   46.7270   34.5370   42.4860 N   0  0  0  0  0  0  0  0  0  0  0  0
   46.3420   34.2800   41.2110 C   0  0  0  0  0  0  0  0  0  0  0  0
   47.4050   34.3570   40.3860 N   0  0  0  0  0  0  0  0  0  0  0  0
   48.4540   34.6660   41.1840 C   0  0  0  0  0  0  0  0  0  0  0  0
   48.0340   34.7790   42.4860 N   0  0  0  0  0  0  0  0  0  0  0  0
   46.0210   32.4630   46.7450 C   0  0  0  0  0  0  0  0  0  0  0  0
   47.3990   32.6120   47.3190 C   0  0  0  0  0  0  0  0  0  0  0  0
   45.9500   31.2120   45.8930 C   0  0  0  0  0  0  0  0  0  0  0  0
   44.9590   32.3920   47.8340 C   0  0  0  0  0  0  0  0  0  0  0  0
   43.7782   36.3278   45.6206 H   0  0  0  0  0  0  0  0  0  0  0  0
   44.8898   36.4155   43.3635 H   0  0  0  0  0  0  0  0  0  0  0  0
   45.3146   34.0438   40.8969 H   0  0  0  0  0  0  0  0  0  0  0  0
   49.4895   34.8058   40.8401 H   0  0  0  0  0  0  0  0  0  0  0  0
   47.3413   32.6058   48.4175 H   0  0  0  0  0  0  0  0  0  0  0  0
   48.0296   31.7768   46.9802 H   0  0  0  0  0  0  0  0  0  0  0  0
   47.8365   33.5627   46.9802 H   0  0  0  0  0  0  0  0  0  0  0  0
   45.8998   30.3271   46.5444 H   0  0  0  0  0  0  0  0  0  0  0  0
   45.0526   31.2513   45.2580 H   0  0  0  0  0  0  0  0  0  0  0  0
   46.8460   31.1495   45.2580 H   0  0  0  0  0  0  0  0  0  0  0  0
   45.4433   32.4244   48.8211 H   0  0  0  0  0  0  0  0  0  0  0  0
   44.2734   33.2463   47.7338 H   0  0  0  0  0  0  0  0  0  0  0  0
   44.3932   31.4540   47.7338 H   0  0  0  0  0  0  0  0  0  0  0  0
  1  6  2  0
  2  1  1  0
  3  2  2  0
  3  4  1  0
  4  5  2  0
  5  6  1  0
  5 12  1  0
  7  3  1  0
  8  7  1  0
  9 10  1  0
  9  8  2  0
 10 11  2  0
 11  7  1  0
 12 13  1  0
 12 15  1  0
 14 12  1  0
  1 16  1  0
  2 17  1  0
  8 18  1  0
 10 19  1  0
 13 20  1  0
 13 21  1  0
 13 22  1  0
 14 23  1  0
 14 24  1  0
 14 25  1  0
 15 26  1  0
 15 27  1  0
 15 28  1  0
M  ISO  8  16  14  17  14  18  14  19  14  20   8  21   8  22   8  23   8
M  ISO  5  24   8  25   8  26   8  27   8  28   8
M  END
>  <minimizedAffinity>  (1) 
-4.40185928

>  <minimizedRMSD>  (1) 
0.72519511

$$$$
