
     RDKit          3D

 31 33  0  0  0  0  0  0  0  0999 V2000
   44.4930   36.1770   44.6200 C   0  0  0  0  0  0  0  0  0  0  0  0
   44.7990   35.8970   43.2770 C   0  0  0  0  0  0  0  0  0  0  0  0
   45.3820   34.6580   42.9700 C   0  0  0  0  0  0  0  0  0  0  0  0
   45.6140   33.8020   43.9960 N   0  0  0  0  0  0  0  0  0  0  0  0
   45.3120   34.0920   45.2810 C   0  0  0  0  0  0  0  0  0  0  0  0
   44.7590   35.2670   45.5810 N   0  0  0  0  0  0  0  0  0  0  0  0
   45.5820   33.1530   46.2990 N   0  0  0  0  0  0  0  0  0  0  0  0
   46.2920   32.0210   46.1720 C   0  0  0  0  0  0  0  0  0  0  0  0
   46.3210   31.4000   47.3720 N   0  0  0  0  0  0  0  0  0  0  0  0
   45.6280   32.1380   48.2680 C   0  0  0  0  0  0  0  0  0  0  0  0
   45.1860   33.2140   47.5680 N   0  0  0  0  0  0  0  0  0  0  0  0
   45.7410   34.2530   41.6450 N   0  0  0  0  0  0  0  0  0  0  0  0
   45.0610   33.7410   40.6120 C   0  0  0  0  0  0  0  0  0  0  0  0
   45.9120   33.5420   39.5810 N   0  0  0  0  0  0  0  0  0  0  0  0
   47.1210   33.9400   40.0070 C   0  0  0  0  0  0  0  0  0  0  0  0
   47.0350   34.3920   41.3080 N   0  0  0  0  0  0  0  0  0  0  0  0
   48.3740   33.8960   39.1820 C   0  0  0  0  0  0  0  0  0  0  0  0
   48.1470   34.3220   37.7570 C   0  0  0  0  0  0  0  0  0  0  0  0
   48.9760   32.5150   39.1730 C   0  0  0  0  0  0  0  0  0  0  0  0
   44.0354   37.1405   44.8888 H   0  0  0  0  0  0  0  0  0  0  0  0
   44.5866   36.6312   42.4859 H   0  0  0  0  0  0  0  0  0  0  0  0
   46.7689   31.6603   45.2487 H   0  0  0  0  0  0  0  0  0  0  0  0
   45.4591   31.9153   49.3319 H   0  0  0  0  0  0  0  0  0  0  0  0
   43.9838   33.5182   40.6035 H   0  0  0  0  0  0  0  0  0  0  0  0
   49.0647   34.6080   39.6574 H   0  0  0  0  0  0  0  0  0  0  0  0
   47.6298   35.2927   37.7425 H   0  0  0  0  0  0  0  0  0  0  0  0
   49.1153   34.4147   37.2433 H   0  0  0  0  0  0  0  0  0  0  0  0
   47.5300   33.5700   37.2433 H   0  0  0  0  0  0  0  0  0  0  0  0
   49.1250   32.1732   40.2079 H   0  0  0  0  0  0  0  0  0  0  0  0
   48.2980   31.8228   38.6523 H   0  0  0  0  0  0  0  0  0  0  0  0
   49.9446   32.5406   38.6523 H   0  0  0  0  0  0  0  0  0  0  0  0
  1  6  2  0
  2  1  1  0
  3  2  2  0
  3  4  1  0
  4  5  2  0
  5  6  1  0
  5  7  1  0
  7 11  1  0
  8  7  1  0
  8  9  2  0
  9 10  1  0
 11 10  2  0
 12  3  1  0
 13 12  1  0
 14 15  1  0
 14 13  2  0
 15 16  2  0
 16 12  1  0
 17 15  1  0
 18 17  1  0
 19 17  1  0
  1 20  1  0
  2 21  1  0
  8 22  1  0
 10 23  1  0
 13 24  1  0
 17 25  1  0
 18 26  1  0
 18 27  1  0
 18 28  1  0
 19 29  1  0
 19 30  1  0
 19 31  1  0
M  ISO  8  20  14  21  14  22  14  23  14  24  14  25   8  26   8  27   8
M  ISO  4  28   8  29   8  30   8  31   8
M  END
>  <minimizedAffinity>  (1) 
-5.37580967

>  <minimizedRMSD>  (1) 
1.35898936

$$$$
