
     RDKit          3D

 23 25  0  0  0  0  0  0  0  0999 V2000
   44.5050   35.7350   44.8450 C   0  0  0  0  0  0  0  0  0  0  0  0
   45.1930   35.6170   43.6240 C   0  0  0  0  0  0  0  0  0  0  0  0
   46.1220   34.5580   43.4950 C   0  0  0  0  0  0  0  0  0  0  0  0
   46.2940   33.7220   44.5510 N   0  0  0  0  0  0  0  0  0  0  0  0
   45.5990   33.8850   45.7110 C   0  0  0  0  0  0  0  0  0  0  0  0
   44.7290   34.8690   45.8470 N   0  0  0  0  0  0  0  0  0  0  0  0
   45.8360   32.9660   46.7730 N   0  0  0  0  0  0  0  0  0  0  0  0
   46.7890   32.0300   46.8340 C   0  0  0  0  0  0  0  0  0  0  0  0
   46.6640   31.3810   47.9990 N   0  0  0  0  0  0  0  0  0  0  0  0
   45.6370   31.8910   48.6950 C   0  0  0  0  0  0  0  0  0  0  0  0
   45.1370   32.8780   47.9080 N   0  0  0  0  0  0  0  0  0  0  0  0
   46.8860   34.3280   42.3070 N   0  0  0  0  0  0  0  0  0  0  0  0
   47.0830   33.2980   41.4970 C   0  0  0  0  0  0  0  0  0  0  0  0
   47.9250   33.6560   40.5030 N   0  0  0  0  0  0  0  0  0  0  0  0
   48.2380   34.9330   40.7280 C   0  0  0  0  0  0  0  0  0  0  0  0
   47.5980   35.3920   41.8590 N   0  0  0  0  0  0  0  0  0  0  0  0
   49.0820   35.7760   39.9800 O   0  0  0  0  0  0  0  0  0  0  0  0
   43.7747   36.5463   44.9810 H   0  0  0  0  0  0  0  0  0  0  0  0
   45.0151   36.3227   42.7992 H   0  0  0  0  0  0  0  0  0  0  0  0
   47.5450   31.8279   46.0610 H   0  0  0  0  0  0  0  0  0  0  0  0
   45.2783   31.5780   49.6866 H   0  0  0  0  0  0  0  0  0  0  0  0
   46.6298   32.3027   41.6159 H   0  0  0  0  0  0  0  0  0  0  0  0
   49.2256   36.7128   40.2661 H   0  0  0  0  0  0  0  0  0  0  0  0
  1  6  2  0
  2  1  1  0
  3  2  2  0
  3  4  1  0
  4  5  2  0
  5  6  1  0
  5  7  1  0
  7  8  1  0
  7 11  1  0
  8  9  2  0
  9 10  1  0
 11 10  2  0
 12  3  1  0
 13 12  1  0
 14 15  1  0
 14 13  2  0
 15 16  2  0
 16 12  1  0
 17 15  1  0
  1 18  1  0
  2 19  1  0
  8 20  1  0
 10 21  1  0
 13 22  1  0
 17 23  1  0
M  ISO  6  18  14  19  14  20  14  21  14  22  14  23   3
M  END
>  <minimizedAffinity>  (1) 
-5.92785597

>  <minimizedRMSD>  (1) 
0.570595443

$$$$
