
     RDKit          3D

 36 39  0  0  0  0  0  0  0  0999 V2000
   47.3330   33.8990   42.2520 N   0  0  0  0  0  0  0  0  0  0  0  0
   48.1940   32.9130   41.9850 C   0  0  0  0  0  0  0  0  0  0  0  0
   48.7210   33.1170   40.7520 N   0  0  0  0  0  0  0  0  0  0  0  0
   48.1670   34.2290   40.2930 C   0  0  0  0  0  0  0  0  0  0  0  0
   47.2870   34.7520   41.2060 N   0  0  0  0  0  0  0  0  0  0  0  0
   44.7690   35.5010   44.4760 C   0  0  0  0  0  0  0  0  0  0  0  0
   45.5420   35.2760   43.3240 C   0  0  0  0  0  0  0  0  0  0  0  0
   46.4940   34.2190   43.3600 C   0  0  0  0  0  0  0  0  0  0  0  0
   46.5980   33.4980   44.4940 N   0  0  0  0  0  0  0  0  0  0  0  0
   45.8170   33.7630   45.5880 C   0  0  0  0  0  0  0  0  0  0  0  0
   44.9340   34.7360   45.5650 N   0  0  0  0  0  0  0  0  0  0  0  0
   45.9960   32.9460   46.7450 N   0  0  0  0  0  0  0  0  0  0  0  0
   46.9530   32.0400   46.9600 C   0  0  0  0  0  0  0  0  0  0  0  0
   46.7680   31.4960   48.1630 N   0  0  0  0  0  0  0  0  0  0  0  0
   45.6800   32.0500   48.7420 C   0  0  0  0  0  0  0  0  0  0  0  0
   45.2220   32.9510   47.8320 N   0  0  0  0  0  0  0  0  0  0  0  0
   48.3880   34.8640   39.0460 O   0  0  0  0  0  0  0  0  0  0  0  0
   47.1050   32.4700   35.9130 C   0  0  0  0  0  0  0  0  0  0  0  0
   48.4280   32.8150   35.9490 C   0  0  0  0  0  0  0  0  0  0  0  0
   48.9570   33.6010   36.9390 C   0  0  0  0  0  0  0  0  0  0  0  0
   48.1230   34.0630   37.9380 C   0  0  0  0  0  0  0  0  0  0  0  0
   46.7740   33.7230   37.9190 C   0  0  0  0  0  0  0  0  0  0  0  0
   46.2510   32.9190   36.9010 C   0  0  0  0  0  0  0  0  0  0  0  0
   46.4910   31.4640   34.6240 S   0  0  0  0  0  0  0  0  0  0  0  0
   45.1150   31.9430   34.2140 O   0  0  0  0  0  0  0  0  0  0  0  0
   47.3680   31.5570   33.4130 O   0  0  0  0  0  0  0  0  0  0  0  0
   48.4356   32.0743   42.6545 H   0  0  0  0  0  0  0  0  0  0  0  0
   44.0237   36.3100   44.4844 H   0  0  0  0  0  0  0  0  0  0  0  0
   45.4153   35.8963   42.4245 H   0  0  0  0  0  0  0  0  0  0  0  0
   47.7615   31.7844   46.2593 H   0  0  0  0  0  0  0  0  0  0  0  0
   45.2576   31.8223   49.7318 H   0  0  0  0  0  0  0  0  0  0  0  0
   49.0925   32.4476   35.1531 H   0  0  0  0  0  0  0  0  0  0  0  0
   50.0263   33.8592   36.9380 H   0  0  0  0  0  0  0  0  0  0  0  0
   46.1101   34.0913   38.7150 H   0  0  0  0  0  0  0  0  0  0  0  0
   45.1843   32.6506   36.8877 H   0  0  0  0  0  0  0  0  0  0  0  0
   46.4534   30.1744   35.0850 H   0  0  0  0  0  0  0  0  0  0  0  0
  1  8  1  0
  2  1  1  0
  3  2  2  0
  4  3  1  0
  4  5  2  0
  5  1  1  0
  6 11  2  0
  7  8  2  0
  7  6  1  0
  8  9  1  0
  9 10  2  0
 10 12  1  0
 11 10  1  0
 12 13  1  0
 12 16  1  0
 13 14  2  0
 14 15  1  0
 16 15  2  0
 17  4  1  0
 18 19  2  0
 18 23  1  0
 19 20  1  0
 20 21  2  0
 21 17  1  0
 22 21  1  0
 23 22  2  0
 24 18  1  0
 25 24  2  0
 26 24  2  0
  2 27  1  0
  6 28  1  0
  7 29  1  0
 13 30  1  0
 15 31  1  0
 19 32  1  0
 20 33  1  0
 22 34  1  0
 23 35  1  0
 24 36  1  0
M  ISO  8  27  14  28  14  29  14  30  14  31  14  32  14  33  14  34  14
M  ISO  2  35  14  36  11
M  END
>  <minimizedAffinity>  (1) 
-6.2948494

>  <minimizedRMSD>  (1) 
2.17610693

$$$$
