
     RDKit          3D

 31 34  0  0  0  0  0  0  0  0999 V2000
   44.7330   35.4610   44.5820 C   0  0  0  0  0  0  0  0  0  0  0  0
   45.5550   35.3010   43.4440 C   0  0  0  0  0  0  0  0  0  0  0  0
   46.5420   34.3030   43.5040 C   0  0  0  0  0  0  0  0  0  0  0  0
   46.6480   33.5600   44.6400 N   0  0  0  0  0  0  0  0  0  0  0  0
   45.8260   33.7630   45.6990 C   0  0  0  0  0  0  0  0  0  0  0  0
   44.8930   34.6950   45.6640 N   0  0  0  0  0  0  0  0  0  0  0  0
   46.0030   32.9340   46.8540 N   0  0  0  0  0  0  0  0  0  0  0  0
   46.9950   32.0760   47.0950 C   0  0  0  0  0  0  0  0  0  0  0  0
   46.7780   31.5060   48.2880 N   0  0  0  0  0  0  0  0  0  0  0  0
   45.6480   31.9920   48.8230 C   0  0  0  0  0  0  0  0  0  0  0  0
   45.1880   32.8790   47.9090 N   0  0  0  0  0  0  0  0  0  0  0  0
   47.4480   34.0290   42.4250 N   0  0  0  0  0  0  0  0  0  0  0  0
   48.4590   33.2090   42.2370 C   0  0  0  0  0  0  0  0  0  0  0  0
   48.9560   33.3990   40.9860 N   0  0  0  0  0  0  0  0  0  0  0  0
   48.2250   34.3520   40.4230 C   0  0  0  0  0  0  0  0  0  0  0  0
   47.2590   34.7740   41.3060 N   0  0  0  0  0  0  0  0  0  0  0  0
   48.3440   34.9010   39.1510 O   0  0  0  0  0  0  0  0  0  0  0  0
   47.9940   34.0240   38.1090 C   0  0  0  0  0  0  0  0  0  0  0  0
   48.8430   33.8080   37.0200 C   0  0  0  0  0  0  0  0  0  0  0  0
   48.4550   32.9270   36.0060 C   0  0  0  0  0  0  0  0  0  0  0  0
   47.2660   32.3070   36.1060 N   0  0  0  0  0  0  0  0  0  0  0  0
   46.4400   32.5060   37.1510 C   0  0  0  0  0  0  0  0  0  0  0  0
   46.8070   33.3630   38.1470 N   0  0  0  0  0  0  0  0  0  0  0  0
   43.9470   36.2305   44.5765 H   0  0  0  0  0  0  0  0  0  0  0  0
   45.4278   35.9300   42.5506 H   0  0  0  0  0  0  0  0  0  0  0  0
   47.8458   31.8713   46.4285 H   0  0  0  0  0  0  0  0  0  0  0  0
   45.1952   31.7284   49.7902 H   0  0  0  0  0  0  0  0  0  0  0  0
   48.8407   32.4862   42.9731 H   0  0  0  0  0  0  0  0  0  0  0  0
   49.8106   34.3279   36.9610 H   0  0  0  0  0  0  0  0  0  0  0  0
   49.1107   32.7443   35.1419 H   0  0  0  0  0  0  0  0  0  0  0  0
   45.4749   31.9805   37.2011 H   0  0  0  0  0  0  0  0  0  0  0  0
  1  6  2  0
  2  3  2  0
  2  1  1  0
  3  4  1  0
  4  5  2  0
  5  7  1  0
  6  5  1  0
  7  8  1  0
  7 11  1  0
  8  9  2  0
  9 10  1  0
 11 10  2  0
 12  3  1  0
 13 12  1  0
 14 13  2  0
 15 14  1  0
 15 16  2  0
 16 12  1  0
 17 15  1  0
 18 23  1  0
 18 17  1  0
 19 18  2  0
 20 21  2  0
 20 19  1  0
 21 22  1  0
 22 23  2  0
  1 24  1  0
  2 25  1  0
  8 26  1  0
 10 27  1  0
 13 28  1  0
 19 29  1  0
 20 30  1  0
 22 31  1  0
M  ISO  8  24  14  25  14  26  14  27  14  28  14  29  14  30  14  31  14
M  END
>  <minimizedAffinity>  (1) 
-6.1781249

>  <minimizedRMSD>  (1) 
1.7277

$$$$
