
     RDKit          3D

 30 33  0  0  0  0  0  0  0  0999 V2000
   44.7170   35.3450   44.7610 C   0  0  0  0  0  0  0  0  0  0  0  0
   45.5330   35.2210   43.6130 C   0  0  0  0  0  0  0  0  0  0  0  0
   46.5440   34.2460   43.6430 C   0  0  0  0  0  0  0  0  0  0  0  0
   46.6750   33.4860   44.7620 N   0  0  0  0  0  0  0  0  0  0  0  0
   45.8600   33.6520   45.8370 C   0  0  0  0  0  0  0  0  0  0  0  0
   44.9070   34.5620   45.8260 N   0  0  0  0  0  0  0  0  0  0  0  0
   46.0640   32.8170   46.9720 N   0  0  0  0  0  0  0  0  0  0  0  0
   47.0550   31.9420   47.1660 C   0  0  0  0  0  0  0  0  0  0  0  0
   46.8770   31.3630   48.3600 N   0  0  0  0  0  0  0  0  0  0  0  0
   45.7770   31.8550   48.9460 C   0  0  0  0  0  0  0  0  0  0  0  0
   45.2840   32.7630   48.0590 N   0  0  0  0  0  0  0  0  0  0  0  0
   47.4340   34.0190   42.5440 N   0  0  0  0  0  0  0  0  0  0  0  0
   48.4750   33.2070   42.3320 C   0  0  0  0  0  0  0  0  0  0  0  0
   48.9530   33.4160   41.0980 N   0  0  0  0  0  0  0  0  0  0  0  0
   48.1900   34.3740   40.5440 C   0  0  0  0  0  0  0  0  0  0  0  0
   47.2250   34.7660   41.4460 N   0  0  0  0  0  0  0  0  0  0  0  0
   48.2650   34.9560   39.2770 O   0  0  0  0  0  0  0  0  0  0  0  0
   48.1960   34.1430   38.1870 C   0  0  0  0  0  0  0  0  0  0  0  0
   48.8850   33.7930   37.0430 C   0  0  0  0  0  0  0  0  0  0  0  0
   48.4000   32.8710   36.1880 C   0  0  0  0  0  0  0  0  0  0  0  0
   47.1490   32.3080   36.5590 C   0  0  0  0  0  0  0  0  0  0  0  0
   46.7460   33.1770   38.1730 S   0  0  0  0  0  0  0  0  0  0  0  0
   43.9144   36.0970   44.7771 H   0  0  0  0  0  0  0  0  0  0  0  0
   45.3823   35.8621   42.7319 H   0  0  0  0  0  0  0  0  0  0  0  0
   47.8764   31.7331   46.4648 H   0  0  0  0  0  0  0  0  0  0  0  0
   45.3629   31.5846   49.9285 H   0  0  0  0  0  0  0  0  0  0  0  0
   48.8755   32.4822   43.0561 H   0  0  0  0  0  0  0  0  0  0  0  0
   49.8489   34.2762   36.8250 H   0  0  0  0  0  0  0  0  0  0  0  0
   48.9325   32.5763   35.2717 H   0  0  0  0  0  0  0  0  0  0  0  0
   46.5590   31.5464   36.0281 H   0  0  0  0  0  0  0  0  0  0  0  0
  1  6  2  0
  2  3  2  0
  2  1  1  0
  3  4  1  0
  4  5  2  0
  5  7  1  0
  6  5  1  0
  7  8  1  0
  7 11  1  0
  8  9  2  0
  9 10  1  0
 11 10  2  0
 12  3  1  0
 13 12  1  0
 14 13  2  0
 15 14  1  0
 15 16  2  0
 16 12  1  0
 17 15  1  0
 18 17  1  0
 19 18  2  0
 20 21  2  0
 20 19  1  0
 21 22  1  0
 22 18  1  0
  1 23  1  0
  2 24  1  0
  8 25  1  0
 10 26  1  0
 13 27  1  0
 19 28  1  0
 20 29  1  0
 21 30  1  0
M  ISO  8  23  14  24  14  25  14  26  14  27  14  28  14  29  14  30  14
M  END
>  <minimizedAffinity>  (1) 
-5.94730425

>  <minimizedRMSD>  (1) 
1.46381021

$$$$
