
     RDKit          3D

 26 28  0  0  0  0  0  0  0  0999 V2000
   44.7260   35.4590   44.5780 C   0  0  0  0  0  0  0  0  0  0  0  0
   45.5570   35.2920   43.4600 C   0  0  0  0  0  0  0  0  0  0  0  0
   46.5620   34.2840   43.5250 C   0  0  0  0  0  0  0  0  0  0  0  0
   46.6610   33.5450   44.6560 N   0  0  0  0  0  0  0  0  0  0  0  0
   45.8120   33.7670   45.7100 C   0  0  0  0  0  0  0  0  0  0  0  0
   44.8810   34.6880   45.6680 N   0  0  0  0  0  0  0  0  0  0  0  0
   45.9850   32.9380   46.8660 N   0  0  0  0  0  0  0  0  0  0  0  0
   46.9920   32.0790   47.1130 C   0  0  0  0  0  0  0  0  0  0  0  0
   46.7610   31.5130   48.2990 N   0  0  0  0  0  0  0  0  0  0  0  0
   45.6290   31.9890   48.8170 C   0  0  0  0  0  0  0  0  0  0  0  0
   45.1410   32.8900   47.9090 N   0  0  0  0  0  0  0  0  0  0  0  0
   47.4610   34.0270   42.4490 N   0  0  0  0  0  0  0  0  0  0  0  0
   48.4350   33.1380   42.2340 C   0  0  0  0  0  0  0  0  0  0  0  0
   48.9760   33.3520   41.0130 N   0  0  0  0  0  0  0  0  0  0  0  0
   48.3130   34.3790   40.5010 C   0  0  0  0  0  0  0  0  0  0  0  0
   47.3460   34.8360   41.3760 N   0  0  0  0  0  0  0  0  0  0  0  0
   48.4860   35.0040   39.2420 O   0  0  0  0  0  0  0  0  0  0  0  0
   48.1350   34.1840   38.1200 C   0  0  0  0  0  0  0  0  0  0  0  0
   48.0070   34.9420   36.9570 F   0  0  0  0  0  0  0  0  0  0  0  0
   49.1070   33.2430   37.8660 F   0  0  0  0  0  0  0  0  0  0  0  0
   46.9120   33.5870   38.3120 F   0  0  0  0  0  0  0  0  0  0  0  0
   43.9400   36.2284   44.5624 H   0  0  0  0  0  0  0  0  0  0  0  0
   45.4368   35.9181   42.5636 H   0  0  0  0  0  0  0  0  0  0  0  0
   47.8508   31.8797   46.4552 H   0  0  0  0  0  0  0  0  0  0  0  0
   45.1772   31.7131   49.7812 H   0  0  0  0  0  0  0  0  0  0  0  0
   48.7480   32.3545   42.9398 H   0  0  0  0  0  0  0  0  0  0  0  0
  1  6  2  0
  2  3  2  0
  2  1  1  0
  3  4  1  0
  4  5  2  0
  5  7  1  0
  6  5  1  0
  7  8  1  0
  7 11  1  0
  8  9  2  0
  9 10  1  0
 11 10  2  0
 12  3  1  0
 13 12  1  0
 14 13  2  0
 15 14  1  0
 15 16  2  0
 16 12  1  0
 17 15  1  0
 18 21  1  0
 18 17  1  0
 19 18  1  0
 20 18  1  0
  1 22  1  0
  2 23  1  0
  8 24  1  0
 10 25  1  0
 13 26  1  0
M  ISO  5  22  14  23  14  24  14  25  14  26  14
M  END
>  <minimizedAffinity>  (1) 
-5.90013885

>  <minimizedRMSD>  (1) 
1.47695923

$$$$
