
     RDKit          3D

 36 39  0  0  0  0  0  0  0  0999 V2000
   44.6390   35.3040   44.9470 C   0  0  0  0  0  0  0  0  0  0  0  0
   45.5100   35.2420   43.8340 C   0  0  0  0  0  0  0  0  0  0  0  0
   46.5520   34.3010   43.8920 C   0  0  0  0  0  0  0  0  0  0  0  0
   46.6620   33.5140   44.9960 N   0  0  0  0  0  0  0  0  0  0  0  0
   45.7920   33.6170   46.0440 C   0  0  0  0  0  0  0  0  0  0  0  0
   44.8040   34.4970   46.0060 N   0  0  0  0  0  0  0  0  0  0  0  0
   45.9660   32.7670   47.1660 N   0  0  0  0  0  0  0  0  0  0  0  0
   46.9880   31.9520   47.4060 C   0  0  0  0  0  0  0  0  0  0  0  0
   46.7760   31.3290   48.5660 N   0  0  0  0  0  0  0  0  0  0  0  0
   45.6020   31.7380   49.0890 C   0  0  0  0  0  0  0  0  0  0  0  0
   45.1130   32.6410   48.1900 N   0  0  0  0  0  0  0  0  0  0  0  0
   47.5140   34.1220   42.8430 N   0  0  0  0  0  0  0  0  0  0  0  0
   48.6790   33.5220   42.7260 C   0  0  0  0  0  0  0  0  0  0  0  0
   49.1480   33.6850   41.4640 N   0  0  0  0  0  0  0  0  0  0  0  0
   48.2290   34.4050   40.8150 C   0  0  0  0  0  0  0  0  0  0  0  0
   47.1770   34.7020   41.6570 N   0  0  0  0  0  0  0  0  0  0  0  0
   48.2370   34.8440   39.4890 O   0  0  0  0  0  0  0  0  0  0  0  0
   48.1760   33.8440   38.5030 C   0  0  0  0  0  0  0  0  0  0  0  0
   48.4640   34.4120   37.1110 C   0  0  0  0  0  0  0  0  0  0  0  0
   48.1620   33.1550   36.2910 C   0  0  0  0  0  0  0  0  0  0  0  0
   46.8900   32.6410   36.9250 C   0  0  0  0  0  0  0  0  0  0  0  0
   46.8280   33.2400   38.3150 C   0  0  0  0  0  0  0  0  0  0  0  0
   43.8106   36.0277   44.9441 H   0  0  0  0  0  0  0  0  0  0  0  0
   45.3776   35.9004   42.9628 H   0  0  0  0  0  0  0  0  0  0  0  0
   47.8641   31.8141   46.7553 H   0  0  0  0  0  0  0  0  0  0  0  0
   45.1398   31.4146   50.0334 H   0  0  0  0  0  0  0  0  0  0  0  0
   49.1934   32.9727   43.5283 H   0  0  0  0  0  0  0  0  0  0  0  0
   48.9085   33.1082   38.8663 H   0  0  0  0  0  0  0  0  0  0  0  0
   47.7930   35.2454   36.8557 H   0  0  0  0  0  0  0  0  0  0  0  0
   49.4637   34.8484   36.9688 H   0  0  0  0  0  0  0  0  0  0  0  0
   48.9747   32.4190   36.3797 H   0  0  0  0  0  0  0  0  0  0  0  0
   48.0637   33.3507   35.2130 H   0  0  0  0  0  0  0  0  0  0  0  0
   46.0170   32.9579   36.3356 H   0  0  0  0  0  0  0  0  0  0  0  0
   46.8824   31.5418   36.9655 H   0  0  0  0  0  0  0  0  0  0  0  0
   46.0427   34.0079   38.3759 H   0  0  0  0  0  0  0  0  0  0  0  0
   46.5840   32.4962   39.0878 H   0  0  0  0  0  0  0  0  0  0  0  0
  1  6  2  0
  2  3  2  0
  2  1  1  0
  3  4  1  0
  4  5  2  0
  5  7  1  0
  6  5  1  0
  7  8  1  0
  7 11  1  0
  8  9  2  0
  9 10  1  0
 11 10  2  0
 12  3  1  0
 13 12  1  0
 14 13  2  0
 15 14  1  0
 15 16  2  0
 16 12  1  0
 17 15  1  0
 18 17  1  0
 19 18  1  0
 20 21  1  0
 20 19  1  0
 21 22  1  0
 22 18  1  0
  1 23  1  0
  2 24  1  0
  8 25  1  0
 10 26  1  0
 13 27  1  0
 18 28  1  0
 19 29  1  0
 19 30  1  0
 20 31  1  0
 20 32  1  0
 21 33  1  0
 21 34  1  0
 22 35  1  0
 22 36  1  0
M  ISO  8  23  14  24  14  25  14  26  14  27  14  28  13  29  13  30  13
M  ISO  6  31  13  32  13  33  13  34  13  35  13  36  13
M  END
>  <minimizedAffinity>  (1) 
-5.99525404

>  <minimizedRMSD>  (1) 
1.63357925

$$$$
