
     RDKit          3D

 28 31  0  0  0  0  0  0  0  0999 V2000
   44.7530   35.5000   44.4900 C   0  0  0  0  0  0  0  0  0  0  0  0
   45.5450   35.3140   43.3490 C   0  0  0  0  0  0  0  0  0  0  0  0
   46.5130   34.2900   43.3800 C   0  0  0  0  0  0  0  0  0  0  0  0
   46.6210   33.5460   44.5140 N   0  0  0  0  0  0  0  0  0  0  0  0
   45.8250   33.7730   45.5930 C   0  0  0  0  0  0  0  0  0  0  0  0
   44.9140   34.7300   45.5720 N   0  0  0  0  0  0  0  0  0  0  0  0
   45.9940   32.9570   46.7450 N   0  0  0  0  0  0  0  0  0  0  0  0
   46.9580   32.0550   46.9600 C   0  0  0  0  0  0  0  0  0  0  0  0
   46.7660   31.4980   48.1630 N   0  0  0  0  0  0  0  0  0  0  0  0
   45.6830   32.0320   48.7300 C   0  0  0  0  0  0  0  0  0  0  0  0
   45.2120   32.9450   47.8260 N   0  0  0  0  0  0  0  0  0  0  0  0
   47.3910   33.9870   42.2870 N   0  0  0  0  0  0  0  0  0  0  0  0
   48.3070   33.0700   42.0400 C   0  0  0  0  0  0  0  0  0  0  0  0
   48.8320   33.2750   40.8100 N   0  0  0  0  0  0  0  0  0  0  0  0
   48.2050   34.3510   40.3140 C   0  0  0  0  0  0  0  0  0  0  0  0
   47.2930   34.8150   41.2280 N   0  0  0  0  0  0  0  0  0  0  0  0
   48.3900   34.9670   39.0720 O   0  0  0  0  0  0  0  0  0  0  0  0
   48.2290   34.1230   37.9740 C   0  0  0  0  0  0  0  0  0  0  0  0
   48.9140   33.6390   36.9270 N   0  0  0  0  0  0  0  0  0  0  0  0
   48.1420   32.8530   36.2400 O   0  0  0  0  0  0  0  0  0  0  0  0
   46.9380   32.7890   36.7990 C   0  0  0  0  0  0  0  0  0  0  0  0
   47.0190   33.5890   37.8780 N   0  0  0  0  0  0  0  0  0  0  0  0
   43.9880   36.2904   44.4960 H   0  0  0  0  0  0  0  0  0  0  0  0
   45.4155   35.9464   42.4584 H   0  0  0  0  0  0  0  0  0  0  0  0
   47.7739   31.8109   46.2638 H   0  0  0  0  0  0  0  0  0  0  0  0
   45.2585   31.7897   49.7155 H   0  0  0  0  0  0  0  0  0  0  0  0
   48.5989   32.2630   42.7282 H   0  0  0  0  0  0  0  0  0  0  0  0
   46.0679   32.2102   36.4557 H   0  0  0  0  0  0  0  0  0  0  0  0
  1  6  2  0
  2  3  2  0
  2  1  1  0
  3  4  1  0
  4  5  2  0
  5  7  1  0
  6  5  1  0
  7  8  1  0
  7 11  1  0
  8  9  2  0
  9 10  1  0
 11 10  2  0
 12  3  1  0
 13 12  1  0
 14 13  2  0
 15 14  1  0
 15 16  2  0
 16 12  1  0
 17 15  1  0
 18 17  1  0
 19 18  2  0
 20 21  1  0
 20 19  1  0
 21 22  2  0
 22 18  1  0
  1 23  1  0
  2 24  1  0
  8 25  1  0
 10 26  1  0
 13 27  1  0
 21 28  1  0
M  ISO  6  23  14  24  14  25  14  26  14  27  14  28  14
M  END
>  <minimizedAffinity>  (1) 
-5.89370298

>  <minimizedRMSD>  (1) 
1.40878427

$$$$
