
     RDKit          3D

 44 48  0  0  0  0  0  0  0  0999 V2000
   47.3960   33.7800   42.8280 C   0  0  0  0  0  0  0  0  0  0  0  0
   44.7120   35.3580   44.9280 C   0  0  0  0  0  0  0  0  0  0  0  0
   45.5930   35.0650   43.8740 C   0  0  0  0  0  0  0  0  0  0  0  0
   46.4950   34.0560   43.9420 C   0  0  0  0  0  0  0  0  0  0  0  0
   46.5210   33.3270   45.0720 N   0  0  0  0  0  0  0  0  0  0  0  0
   45.6640   33.6110   46.0960 C   0  0  0  0  0  0  0  0  0  0  0  0
   44.7920   34.5880   46.0310 N   0  0  0  0  0  0  0  0  0  0  0  0
   45.8710   32.6790   47.2450 C   0  0  0  0  0  0  0  0  0  0  0  0
   44.8540   31.9900   48.0480 C   0  0  0  0  0  0  0  0  0  0  0  0
   45.9570   31.1050   49.1850 S   0  0  0  0  0  0  0  0  0  0  0  0
   47.5430   31.7910   48.4120 C   0  0  0  0  0  0  0  0  0  0  0  0
   47.1610   32.5850   47.4190 N   0  0  0  0  0  0  0  0  0  0  0  0
   48.8120   31.3740   48.9820 N   0  0  0  0  0  0  0  0  0  0  0  0
   49.2330   30.0880   49.0610 C   0  0  0  0  0  0  0  0  0  0  0  0
   50.4480   30.0320   49.6380 N   0  0  0  0  0  0  0  0  0  0  0  0
   50.7770   31.3150   49.9190 C   0  0  0  0  0  0  0  0  0  0  0  0
   49.7680   32.1080   49.5110 N   0  0  0  0  0  0  0  0  0  0  0  0
   47.5940   34.8740   41.8460 C   0  0  0  0  0  0  0  0  0  0  0  0
   47.2880   34.3380   40.4860 C   0  0  0  0  0  0  0  0  0  0  0  0
   48.2270   34.2820   39.4770 C   0  0  0  0  0  0  0  0  0  0  0  0
   48.0520   33.8150   38.2120 C   0  0  0  0  0  0  0  0  0  0  0  0
   46.7910   33.3590   37.9520 N   0  0  0  0  0  0  0  0  0  0  0  0
   45.8360   33.3960   38.9180 C   0  0  0  0  0  0  0  0  0  0  0  0
   46.0390   33.8670   40.1690 N   0  0  0  0  0  0  0  0  0  0  0  0
   44.5160   32.8940   38.5680 C   0  0  0  0  0  0  0  0  0  0  0  0
   43.3720   33.4620   39.1160 C   0  0  0  0  0  0  0  0  0  0  0  0
   42.1350   32.9820   38.7820 C   0  0  0  0  0  0  0  0  0  0  0  0
   42.0020   31.9680   37.9320 N   0  0  0  0  0  0  0  0  0  0  0  0
   43.1240   31.4260   37.4080 C   0  0  0  0  0  0  0  0  0  0  0  0
   44.3770   31.8730   37.7120 N   0  0  0  0  0  0  0  0  0  0  0  0
   48.3803   33.5281   43.2496 H   0  0  0  0  0  0  0  0  0  0  0  0
   46.9172   32.9667   42.2629 H   0  0  0  0  0  0  0  0  0  0  0  0
   43.9868   36.1819   44.8560 H   0  0  0  0  0  0  0  0  0  0  0  0
   45.5492   35.6765   42.9607 H   0  0  0  0  0  0  0  0  0  0  0  0
   43.7562   32.0054   47.9810 H   0  0  0  0  0  0  0  0  0  0  0  0
   48.6642   29.2163   48.7052 H   0  0  0  0  0  0  0  0  0  0  0  0
   51.7082   31.6516   50.3981 H   0  0  0  0  0  0  0  0  0  0  0  0
   46.9179   35.7101   42.0780 H   0  0  0  0  0  0  0  0  0  0  0  0
   48.6306   35.2398   41.8870 H   0  0  0  0  0  0  0  0  0  0  0  0
   49.2310   34.6577   39.7237 H   0  0  0  0  0  0  0  0  0  0  0  0
   48.8569   33.8053   37.4623 H   0  0  0  0  0  0  0  0  0  0  0  0
   43.4615   34.3013   39.8214 H   0  0  0  0  0  0  0  0  0  0  0  0
   41.2379   33.4413   39.2228 H   0  0  0  0  0  0  0  0  0  0  0  0
   43.0224   30.5864   36.7046 H   0  0  0  0  0  0  0  0  0  0  0  0
  1  4  1  0
  2  7  2  0
  3  4  2  0
  3  2  1  0
  4  5  1  0
  5  6  2  0
  6  8  1  0
  7  6  1  0
  8 12  1  0
  8  9  2  0
  9 10  1  0
 11 13  1  0
 11 10  1  0
 12 11  2  0
 13 14  1  0
 13 17  1  0
 14 15  2  0
 15 16  1  0
 17 16  2  0
 18  1  1  0
 19 18  1  0
 20 19  2  0
 21 20  1  0
 22 21  2  0
 22 23  1  0
 23 24  2  0
 24 19  1  0
 25 23  1  0
 25 26  2  0
 27 26  1  0
 28 27  2  0
 29 30  2  0
 29 28  1  0
 30 25  1  0
  1 31  1  0
  1 32  1  0
  2 33  1  0
  3 34  1  0
  9 35  1  0
 14 36  1  0
 16 37  1  0
 18 38  1  0
 18 39  1  0
 20 40  1  0
 21 41  1  0
 26 42  1  0
 27 43  1  0
 29 44  1  0
M  ISO  8  31   8  32   8  33  14  34  14  35  14  36  14  37  14  38   8
M  ISO  6  39   8  40  14  41  14  42  14  43  14  44  14
M  END
>  <minimizedAffinity>  (1) 
-6.64732838

>  <minimizedRMSD>  (1) 
0.263542593

$$$$
