
     RDKit          3D

 38 39  0  0  0  0  0  0  0  0999 V2000
   44.8610   34.3060   42.1850 C   0  0  0  0  0  0  0  0  0  0  0  0
   45.4610   33.6370   43.3510 C   0  0  0  0  0  0  0  0  0  0  0  0
   45.1750   34.5130   44.5640 C   0  0  0  0  0  0  0  0  0  0  0  0
   44.3630   35.6780   44.0910 C   0  0  0  0  0  0  0  0  0  0  0  0
   44.6590   35.7550   42.6110 C   0  0  0  0  0  0  0  0  0  0  0  0
   43.5420   33.8280   41.7340 C   0  0  0  0  0  0  0  0  0  0  0  0
   43.1890   32.5010   41.9380 C   0  0  0  0  0  0  0  0  0  0  0  0
   41.9390   32.0650   41.5050 C   0  0  0  0  0  0  0  0  0  0  0  0
   41.1140   32.9610   40.9000 N   0  0  0  0  0  0  0  0  0  0  0  0
   41.4800   34.2390   40.7140 C   0  0  0  0  0  0  0  0  0  0  0  0
   42.6790   34.6550   41.1280 N   0  0  0  0  0  0  0  0  0  0  0  0
   40.4930   35.1220   40.0390 C   0  0  0  0  0  0  0  0  0  0  0  0
   39.1600   34.4820   39.8190 C   0  0  0  0  0  0  0  0  0  0  0  0
   40.4260   36.4030   40.8470 C   0  0  0  0  0  0  0  0  0  0  0  0
   45.7490   34.3120   40.9800 C   0  0  0  0  0  0  0  0  0  0  0  0
   47.1850   34.5530   41.1970 C   0  0  0  0  0  0  0  0  0  0  0  0
   45.0112   32.6427   43.4888 H   0  0  0  0  0  0  0  0  0  0  0  0
   46.5437   33.5016   43.2114 H   0  0  0  0  0  0  0  0  0  0  0  0
   44.6110   33.9418   45.3161 H   0  0  0  0  0  0  0  0  0  0  0  0
   46.1125   34.8545   45.0272 H   0  0  0  0  0  0  0  0  0  0  0  0
   43.2911   35.5042   44.2666 H   0  0  0  0  0  0  0  0  0  0  0  0
   44.6114   36.6094   44.6209 H   0  0  0  0  0  0  0  0  0  0  0  0
   45.5692   36.3446   42.4269 H   0  0  0  0  0  0  0  0  0  0  0  0
   43.8518   36.2471   42.0486 H   0  0  0  0  0  0  0  0  0  0  0  0
   43.8839   31.8064   42.4326 H   0  0  0  0  0  0  0  0  0  0  0  0
   41.6264   31.0202   41.6491 H   0  0  0  0  0  0  0  0  0  0  0  0
   40.8251   35.3384   39.0129 H   0  0  0  0  0  0  0  0  0  0  0  0
   38.6955   34.2590   40.7908 H   0  0  0  0  0  0  0  0  0  0  0  0
   38.5131   35.1677   39.2521 H   0  0  0  0  0  0  0  0  0  0  0  0
   39.2906   33.5484   39.2521 H   0  0  0  0  0  0  0  0  0  0  0  0
   40.4387   36.1608   41.9199 H   0  0  0  0  0  0  0  0  0  0  0  0
   41.2923   37.0357   40.6037 H   0  0  0  0  0  0  0  0  0  0  0  0
   39.4984   36.9419   40.6037 H   0  0  0  0  0  0  0  0  0  0  0  0
   45.3813   35.0974   40.3033 H   0  0  0  0  0  0  0  0  0  0  0  0
   45.6927   33.2871   40.5844 H   0  0  0  0  0  0  0  0  0  0  0  0
   47.3919   34.5877   42.2768 H   0  0  0  0  0  0  0  0  0  0  0  0
   47.7667   33.7399   40.7382 H   0  0  0  0  0  0  0  0  0  0  0  0
   47.4694   35.5114   40.7382 H   0  0  0  0  0  0  0  0  0  0  0  0
  1  5  1  0
  1  2  1  0
  2  3  1  0
  4  3  1  0
  5  4  1  0
  6  7  2  0
  6  1  1  0
  8  7  1  0
  9  8  2  0
 10  9  1  0
 10 11  2  0
 11  6  1  0
 12 10  1  0
 12 14  1  0
 13 12  1  0
 15 16  1  0
 15  1  1  0
  2 17  1  0
  2 18  1  0
  3 19  1  0
  3 20  1  0
  4 21  1  0
  4 22  1  0
  5 23  1  0
  5 24  1  0
  7 25  1  0
  8 26  1  0
 12 27  1  0
 13 28  1  0
 13 29  1  0
 13 30  1  0
 14 31  1  0
 14 32  1  0
 14 33  1  0
 15 34  1  0
 15 35  1  0
 16 36  1  0
 16 37  1  0
 16 38  1  0
M  ISO  8  17  13  18  13  19  13  20  13  21  13  22  13  23  13  24  13
M  ISO  8  25  14  26  14  27   8  28   8  29   8  30   8  31   8  32   8
M  ISO  6  33   8  34   8  35   8  36   8  37   8  38   8
M  END
>  <minimizedAffinity>  (1) 
-4.80965281

>  <minimizedRMSD>  (1) 
5.96971512

$$$$
