
     RDKit          3D

 45 49  0  0  0  0  0  0  0  0999 V2000
   47.2800   33.7160   42.7560 C   0  0  0  0  0  0  0  0  0  0  0  0
   44.7120   35.3690   44.9400 C   0  0  0  0  0  0  0  0  0  0  0  0
   45.5480   35.0490   43.8560 C   0  0  0  0  0  0  0  0  0  0  0  0
   46.4260   34.0140   43.8970 C   0  0  0  0  0  0  0  0  0  0  0  0
   46.4810   33.2800   45.0290 N   0  0  0  0  0  0  0  0  0  0  0  0
   45.6570   33.6020   46.0830 C   0  0  0  0  0  0  0  0  0  0  0  0
   44.8110   34.6000   46.0420 N   0  0  0  0  0  0  0  0  0  0  0  0
   45.8830   32.6670   47.2280 C   0  0  0  0  0  0  0  0  0  0  0  0
   44.8820   32.0110   48.0780 C   0  0  0  0  0  0  0  0  0  0  0  0
   46.0050   31.0960   49.1670 S   0  0  0  0  0  0  0  0  0  0  0  0
   47.5780   31.7300   48.3200 C   0  0  0  0  0  0  0  0  0  0  0  0
   47.1750   32.5350   47.3390 N   0  0  0  0  0  0  0  0  0  0  0  0
   48.8680   31.2810   48.8260 N   0  0  0  0  0  0  0  0  0  0  0  0
   49.2000   30.0290   48.5330 C   0  0  0  0  0  0  0  0  0  0  0  0
   50.4520   29.8490   49.1170 C   0  0  0  0  0  0  0  0  0  0  0  0
   50.7760   31.0170   49.7200 N   0  0  0  0  0  0  0  0  0  0  0  0
   49.7710   31.9240   49.5330 C   0  0  0  0  0  0  0  0  0  0  0  0
   47.5220   34.8210   41.7970 C   0  0  0  0  0  0  0  0  0  0  0  0
   47.2750   34.3030   40.4190 C   0  0  0  0  0  0  0  0  0  0  0  0
   48.2300   34.3330   39.4220 C   0  0  0  0  0  0  0  0  0  0  0  0
   48.1030   33.8880   38.1430 C   0  0  0  0  0  0  0  0  0  0  0  0
   46.8750   33.3580   37.8570 N   0  0  0  0  0  0  0  0  0  0  0  0
   45.9120   33.3070   38.8020 C   0  0  0  0  0  0  0  0  0  0  0  0
   46.0630   33.7580   40.0720 N   0  0  0  0  0  0  0  0  0  0  0  0
   44.6340   32.7260   38.4180 C   0  0  0  0  0  0  0  0  0  0  0  0
   43.4400   33.3530   38.7670 C   0  0  0  0  0  0  0  0  0  0  0  0
   42.2410   32.8020   38.4050 C   0  0  0  0  0  0  0  0  0  0  0  0
   42.1950   31.6580   37.7140 N   0  0  0  0  0  0  0  0  0  0  0  0
   43.3550   31.0740   37.3890 C   0  0  0  0  0  0  0  0  0  0  0  0
   44.5830   31.5740   37.7210 N   0  0  0  0  0  0  0  0  0  0  0  0
   48.2567   33.3937   43.1462 H   0  0  0  0  0  0  0  0  0  0  0  0
   46.7380   32.9497   42.1824 H   0  0  0  0  0  0  0  0  0  0  0  0
   44.0067   36.2117   44.8906 H   0  0  0  0  0  0  0  0  0  0  0  0
   45.4888   35.6586   42.9423 H   0  0  0  0  0  0  0  0  0  0  0  0
   43.7832   32.0600   48.0595 H   0  0  0  0  0  0  0  0  0  0  0  0
   48.6159   29.2963   47.9568 H   0  0  0  0  0  0  0  0  0  0  0  0
   51.0608   28.9331   49.0928 H   0  0  0  0  0  0  0  0  0  0  0  0
   49.7272   32.9621   49.8940 H   0  0  0  0  0  0  0  0  0  0  0  0
   46.8377   35.6555   42.0096 H   0  0  0  0  0  0  0  0  0  0  0  0
   48.5565   35.1838   41.8875 H   0  0  0  0  0  0  0  0  0  0  0  0
   49.2042   34.7660   39.6930 H   0  0  0  0  0  0  0  0  0  0  0  0
   48.9157   33.9490   37.4043 H   0  0  0  0  0  0  0  0  0  0  0  0
   43.4611   34.2944   39.3356 H   0  0  0  0  0  0  0  0  0  0  0  0
   41.3043   33.3058   38.6856 H   0  0  0  0  0  0  0  0  0  0  0  0
   43.3175   30.1336   36.8196 H   0  0  0  0  0  0  0  0  0  0  0  0
  1  4  1  0
  2  7  2  0
  3  4  2  0
  3  2  1  0
  4  5  1  0
  5  6  2  0
  6  8  1  0
  7  6  1  0
  8 12  1  0
  8  9  2  0
  9 10  1  0
 11 13  1  0
 11 10  1  0
 12 11  2  0
 13 17  1  0
 14 13  1  0
 14 15  2  0
 15 16  1  0
 17 16  2  0
 18  1  1  0
 19 18  1  0
 20 19  2  0
 21 20  1  0
 22 21  2  0
 22 23  1  0
 23 24  2  0
 24 19  1  0
 25 26  2  0
 25 23  1  0
 27 26  1  0
 28 27  2  0
 29 28  1  0
 29 30  2  0
 30 25  1  0
  1 31  1  0
  1 32  1  0
  2 33  1  0
  3 34  1  0
  9 35  1  0
 14 36  1  0
 15 37  1  0
 17 38  1  0
 18 39  1  0
 18 40  1  0
 20 41  1  0
 21 42  1  0
 26 43  1  0
 27 44  1  0
 29 45  1  0
M  ISO  8  31   8  32   8  33  14  34  14  35  14  36  14  37  14  38  14
M  ISO  7  39   8  40   8  41  14  42  14  43  14  44  14  45  14
M  END
>  <minimizedAffinity>  (1) 
-6.5867281

>  <minimizedRMSD>  (1) 
0.136353493

$$$$
