
     RDKit          3D

 37 38  0  0  0  0  0  0  0  0999 V2000
   46.1440   34.9270   42.5840 C   0  0  0  0  0  0  0  0  0  0  0  0
   47.4870   35.2260   42.0850 C   0  0  0  0  0  0  0  0  0  0  0  0
   48.4550   34.1990   42.6800 C   0  0  0  0  0  0  0  0  0  0  0  0
   47.6430   33.2890   43.5430 C   0  0  0  0  0  0  0  0  0  0  0  0
   46.3880   34.0870   43.8330 C   0  0  0  0  0  0  0  0  0  0  0  0
   45.2360   34.1240   41.7390 C   0  0  0  0  0  0  0  0  0  0  0  0
   45.6020   33.8330   40.4420 C   0  0  0  0  0  0  0  0  0  0  0  0
   44.7590   33.0830   39.6370 C   0  0  0  0  0  0  0  0  0  0  0  0
   43.5770   32.6560   40.1850 N   0  0  0  0  0  0  0  0  0  0  0  0
   43.2530   32.9530   41.4400 C   0  0  0  0  0  0  0  0  0  0  0  0
   44.0820   33.6770   42.1940 N   0  0  0  0  0  0  0  0  0  0  0  0
   42.0130   32.4940   41.9840 N   0  0  0  0  0  0  0  0  0  0  0  0
   41.7830   31.1300   42.3660 C   0  0  0  0  0  0  0  0  0  0  0  0
   42.8000   30.3390   42.3870 N   0  0  0  0  0  0  0  0  0  0  0  0
   40.4560   30.6930   42.7050 N   0  0  0  0  0  0  0  0  0  0  0  0
   42.6140   29.3500   42.6620 H   0  0  0  0  0  0  0  0  0  0  0  0
   45.3800   36.1330   43.0030 C   0  0  0  0  0  0  0  0  0  0  0  0
   44.7230   36.1170   44.3080 C   0  0  0  0  0  0  0  0  0  0  0  0
   43.3520   35.7920   44.2330 O   0  0  0  0  0  0  0  0  0  0  0  0
   47.5004   35.1587   40.9871 H   0  0  0  0  0  0  0  0  0  0  0  0
   47.7843   36.2440   42.3771 H   0  0  0  0  0  0  0  0  0  0  0  0
   48.9398   33.6256   41.8761 H   0  0  0  0  0  0  0  0  0  0  0  0
   49.2458   34.6938   43.2629 H   0  0  0  0  0  0  0  0  0  0  0  0
   47.4004   32.3576   43.0104 H   0  0  0  0  0  0  0  0  0  0  0  0
   48.1738   32.9854   44.4574 H   0  0  0  0  0  0  0  0  0  0  0  0
   46.5379   34.7349   44.7092 H   0  0  0  0  0  0  0  0  0  0  0  0
   45.5321   33.4346   44.0606 H   0  0  0  0  0  0  0  0  0  0  0  0
   46.5622   34.1957   40.0464 H   0  0  0  0  0  0  0  0  0  0  0  0
   45.0279   32.8397   38.5985 H   0  0  0  0  0  0  0  0  0  0  0  0
   41.2493   33.1740   42.1075 H   0  0  0  0  0  0  0  0  0  0  0  0
   40.2905   29.7141   42.9792 H   0  0  0  0  0  0  0  0  0  0  0  0
   39.6708   31.3588   42.6736 H   0  0  0  0  0  0  0  0  0  0  0  0
   46.0819   36.9800   43.0019 H   0  0  0  0  0  0  0  0  0  0  0  0
   44.5513   36.1938   42.2822 H   0  0  0  0  0  0  0  0  0  0  0  0
   45.2250   35.3728   44.9437 H   0  0  0  0  0  0  0  0  0  0  0  0
   44.7973   37.1320   44.7254 H   0  0  0  0  0  0  0  0  0  0  0  0
   42.9831   35.7045   45.1475 H   0  0  0  0  0  0  0  0  0  0  0  0
  1 17  1  0
  1  5  1  0
  2  1  1  0
  2  3  1  0
  3  4  1  0
  4  5  1  0
  6 11  1  0
  6  1  1  0
  7  6  2  0
  8  9  2  0
  8  7  1  0
  9 10  1  0
 10 12  1  0
 10 11  2  0
 12 13  1  0
 13 14  2  0
 13 15  1  0
 14 16  1  0
 17 18  1  0
 19 18  1  0
  2 20  1  0
  2 21  1  0
  3 22  1  0
  3 23  1  0
  4 24  1  0
  4 25  1  0
  5 26  1  0
  5 27  1  0
  7 28  1  0
  8 29  1  0
 12 30  1  0
 15 31  1  0
 15 32  1  0
 17 33  1  0
 17 34  1  0
 18 35  1  0
 18 36  1  0
 19 37  1  0
M  ISO  8  20  13  21  13  22  13  23  13  24  13  25  13  26  13  27  13
M  ISO  7  28  14  29  14  33   8  34   8  35   8  36   8  37   3
M  END
>  <minimizedAffinity>  (1) 
-5.31511831

>  <minimizedRMSD>  (1) 
0.275195152

$$$$
