
     RDKit          3D

 50 53  0  0  1  0  0  0  0  0999 V2000
   45.6580   35.0560   42.6040 C   0  0  0  0  0  0  0  0  0  0  0  0
   47.0890   34.9610   42.3920 C   0  0  0  0  0  0  0  0  0  0  0  0
   47.5940   33.8090   43.2810 C   0  0  0  0  0  0  0  0  0  0  0  0
   46.4260   33.2700   44.0210 C   0  0  0  0  0  0  0  0  0  0  0  0
   45.4070   34.3900   43.9370 C   0  0  0  0  0  0  0  0  0  0  0  0
   44.7360   34.3830   41.6570 C   0  0  0  0  0  0  0  0  0  0  0  0
   45.2450   33.6420   40.6230 C   0  0  0  0  0  0  0  0  0  0  0  0
   44.4020   33.0040   39.7240 C   0  0  0  0  0  0  0  0  0  0  0  0
   43.0600   33.1480   39.9180 N   0  0  0  0  0  0  0  0  0  0  0  0
   42.5860   33.8720   40.9280 C   0  0  0  0  0  0  0  0  0  0  0  0
   43.4150   34.4730   41.7750 N   0  0  0  0  0  0  0  0  0  0  0  0
   41.1680   34.0040   41.1050 N   0  0  0  0  0  0  0  0  0  0  0  0
   40.3440   32.9510   41.6260 C   0  0  0  0  0  0  0  0  0  0  0  0
   40.9400   31.9120   42.1320 N   0  0  0  0  0  0  0  0  0  0  0  0
   38.9160   33.0550   41.5830 N   0  0  0  0  0  0  0  0  0  0  0  0
   40.3260   31.1550   42.5030 H   0  0  0  0  0  0  0  0  0  0  0  0
   45.1600   36.4660   42.7100 C   0  0  0  0  0  0  0  0  0  0  0  0
   45.1130   37.0710   44.0410 C   0  0  0  0  0  0  0  0  0  0  0  0
   44.7970   38.5900   43.9430 C   0  0  2  0  0  0  0  0  0  0  0  0
   45.7840   39.4550   43.2650 C   0  0  0  0  0  0  0  0  0  0  0  0
   45.7160   39.4870   44.7640 C   0  0  1  0  0  0  0  0  0  0  0  0
   44.9820   40.5870   45.4500 C   0  0  0  0  0  0  0  0  0  0  0  0
   44.7680   40.6580   46.8220 C   0  0  0  0  0  0  0  0  0  0  0  0
   44.0520   41.8430   46.9830 C   0  0  0  0  0  0  0  0  0  0  0  0
   43.8740   42.4160   45.7210 C   0  0  0  0  0  0  0  0  0  0  0  0
   44.4540   41.6110   44.8630 O   0  0  0  0  0  0  0  0  0  0  0  0
   47.3018   34.7449   41.3346 H   0  0  0  0  0  0  0  0  0  0  0  0
   47.5899   35.9063   42.6478 H   0  0  0  0  0  0  0  0  0  0  0  0
   48.0392   33.0204   42.6566 H   0  0  0  0  0  0  0  0  0  0  0  0
   48.3629   34.1686   43.9806 H   0  0  0  0  0  0  0  0  0  0  0  0
   46.0454   32.3554   43.5429 H   0  0  0  0  0  0  0  0  0  0  0  0
   46.6677   32.9871   45.0561 H   0  0  0  0  0  0  0  0  0  0  0  0
   45.5524   35.1061   44.7593 H   0  0  0  0  0  0  0  0  0  0  0  0
   44.3764   34.0148   44.0212 H   0  0  0  0  0  0  0  0  0  0  0  0
   46.3348   33.5517   40.5040 H   0  0  0  0  0  0  0  0  0  0  0  0
   44.7997   32.4072   38.8899 H   0  0  0  0  0  0  0  0  0  0  0  0
   40.7213   34.8953   40.8463 H   0  0  0  0  0  0  0  0  0  0  0  0
   38.3327   32.2941   41.9594 H   0  0  0  0  0  0  0  0  0  0  0  0
   38.4725   33.8907   41.1757 H   0  0  0  0  0  0  0  0  0  0  0  0
   45.8140   37.0934   42.0866 H   0  0  0  0  0  0  0  0  0  0  0  0
   44.1088   36.4150   42.3899 H   0  0  0  0  0  0  0  0  0  0  0  0
   44.3300   36.5768   44.6349 H   0  0  0  0  0  0  0  0  0  0  0  0
   46.0940   36.9441   44.5221 H   0  0  0  0  0  0  0  0  0  0  0  0
   43.7117   38.4450   43.8380 H   0  0  0  0  0  0  0  0  0  0  0  0
   46.6550   39.0032   42.7679 H   0  0  0  0  0  0  0  0  0  0  0  0
   45.7225   40.2194   42.4764 H   0  0  0  0  0  0  0  0  0  0  0  0
   46.4813   39.3933   45.5486 H   0  0  0  0  0  0  0  0  0  0  0  0
   45.0883   39.9467   47.5975 H   0  0  0  0  0  0  0  0  0  0  0  0
   43.6903   42.2550   47.9366 H   0  0  0  0  0  0  0  0  0  0  0  0
   43.3509   43.3562   45.4923 H   0  0  0  0  0  0  0  0  0  0  0  0
  1 17  1  0
  1  5  1  0
  2  1  1  0
  2  3  1  0
  3  4  1  0
  5  4  1  0
  6 11  1  0
  6  1  1  0
  7  6  2  0
  8  9  2  0
  8  7  1  0
  9 10  1  0
 10 12  1  0
 10 11  2  0
 12 13  1  0
 13 14  2  0
 14 16  1  0
 15 13  1  0
 17 18  1  0
 19 18  1  0
 19 21  1  0
 20 19  1  0
 20 21  1  0
 21 22  1  0
 22 23  2  0
 23 24  1  0
 25 24  2  0
 26 22  1  0
 26 25  1  0
  2 27  1  0
  2 28  1  0
  3 29  1  0
  3 30  1  0
  4 31  1  0
  4 32  1  0
  5 33  1  0
  5 34  1  0
  7 35  1  0
  8 36  1  0
 12 37  1  0
 15 38  1  0
 15 39  1  0
 17 40  1  0
 17 41  1  0
 18 42  1  0
 18 43  1  0
 19 44  1  6
 20 45  1  0
 20 46  1  0
 21 47  1  1
 23 48  1  0
 24 49  1  0
 25 50  1  0
M  ISO  8  27  13  28  13  29  13  30  13  31  13  32  13  33  13  34  13
M  ISO  8  35  14  36  14  40   8  41   8  42   8  43   8  44  13  45  13
M  ISO  5  46  13  47  13  48  14  49  14  50  14
M  END
>  <minimizedAffinity>  (1) 
-4.96135235

>  <minimizedRMSD>  (1) 
0.87794888

$$$$
