
     RDKit          3D

 51 54  0  0  1  0  0  0  0  0999 V2000
   45.8110   35.0450   42.4580 C   0  0  0  0  0  0  0  0  0  0  0  0
   47.2310   35.0430   42.1600 C   0  0  0  0  0  0  0  0  0  0  0  0
   47.8530   33.8770   42.9360 C   0  0  0  0  0  0  0  0  0  0  0  0
   46.7660   33.2350   43.7200 C   0  0  0  0  0  0  0  0  0  0  0  0
   45.6890   34.3000   43.7670 C   0  0  0  0  0  0  0  0  0  0  0  0
   44.8670   34.3740   41.5320 C   0  0  0  0  0  0  0  0  0  0  0  0
   45.3540   33.6330   40.4900 C   0  0  0  0  0  0  0  0  0  0  0  0
   44.4950   32.9930   39.6060 C   0  0  0  0  0  0  0  0  0  0  0  0
   43.1580   33.1400   39.8290 N   0  0  0  0  0  0  0  0  0  0  0  0
   42.7070   33.8690   40.8540 C   0  0  0  0  0  0  0  0  0  0  0  0
   43.5470   34.4700   41.6840 N   0  0  0  0  0  0  0  0  0  0  0  0
   41.2910   34.0030   41.0610 N   0  0  0  0  0  0  0  0  0  0  0  0
   40.4760   32.9560   41.6000 C   0  0  0  0  0  0  0  0  0  0  0  0
   41.0810   31.9080   42.0910 N   0  0  0  0  0  0  0  0  0  0  0  0
   39.0430   33.0670   41.5920 N   0  0  0  0  0  0  0  0  0  0  0  0
   40.4690   31.1600   42.4770 H   0  0  0  0  0  0  0  0  0  0  0  0
   45.2540   36.4220   42.6690 C   0  0  0  0  0  0  0  0  0  0  0  0
   45.1670   36.9170   44.0450 C   0  0  0  0  0  0  0  0  0  0  0  0
   44.7610   38.4120   44.0680 C   0  0  2  0  0  0  0  0  0  0  0  0
   45.6110   39.3760   43.3340 C   0  0  0  0  0  0  0  0  0  0  0  0
   45.7090   39.3260   44.8310 C   0  0  1  0  0  0  0  0  0  0  0  0
   45.0550   40.4940   45.4910 C   0  0  0  0  0  0  0  0  0  0  0  0
   44.8010   40.6100   46.8570 C   0  0  0  0  0  0  0  0  0  0  0  0
   44.1870   41.7540   47.3260 C   0  0  0  0  0  0  0  0  0  0  0  0
   43.8290   42.7510   46.5060 N   0  0  0  0  0  0  0  0  0  0  0  0
   44.0740   42.6380   45.1930 C   0  0  0  0  0  0  0  0  0  0  0  0
   44.6730   41.5330   44.6990 N   0  0  0  0  0  0  0  0  0  0  0  0
   47.3897   34.9049   41.0803 H   0  0  0  0  0  0  0  0  0  0  0  0
   47.6933   35.9977   42.4511 H   0  0  0  0  0  0  0  0  0  0  0  0
   48.2911   33.1505   42.2358 H   0  0  0  0  0  0  0  0  0  0  0  0
   48.6522   34.2356   43.6014 H   0  0  0  0  0  0  0  0  0  0  0  0
   46.4006   32.3279   43.2163 H   0  0  0  0  0  0  0  0  0  0  0  0
   47.0920   32.9103   44.7191 H   0  0  0  0  0  0  0  0  0  0  0  0
   45.8561   34.9804   44.6151 H   0  0  0  0  0  0  0  0  0  0  0  0
   44.6872   33.8659   43.9011 H   0  0  0  0  0  0  0  0  0  0  0  0
   46.4414   33.5429   40.3504 H   0  0  0  0  0  0  0  0  0  0  0  0
   44.8758   32.3951   38.7648 H   0  0  0  0  0  0  0  0  0  0  0  0
   40.8409   34.8947   40.8097 H   0  0  0  0  0  0  0  0  0  0  0  0
   38.4655   32.3085   41.9820 H   0  0  0  0  0  0  0  0  0  0  0  0
   38.5936   33.9050   41.1962 H   0  0  0  0  0  0  0  0  0  0  0  0
   45.8887   37.1230   42.1070 H   0  0  0  0  0  0  0  0  0  0  0  0
   44.2095   36.3546   42.3308 H   0  0  0  0  0  0  0  0  0  0  0  0
   44.4142   36.3305   44.5922 H   0  0  0  0  0  0  0  0  0  0  0  0
   46.1536   36.8126   44.5200 H   0  0  0  0  0  0  0  0  0  0  0  0
   43.6817   38.1998   44.0750 H   0  0  0  0  0  0  0  0  0  0  0  0
   46.4466   39.0098   42.7195 H   0  0  0  0  0  0  0  0  0  0  0  0
   45.4147   40.1731   42.6019 H   0  0  0  0  0  0  0  0  0  0  0  0
   46.5036   39.1741   45.5763 H   0  0  0  0  0  0  0  0  0  0  0  0
   45.0850   39.8037   47.5492 H   0  0  0  0  0  0  0  0  0  0  0  0
   43.9861   41.8496   48.4033 H   0  0  0  0  0  0  0  0  0  0  0  0
   43.7847   43.4521   44.5122 H   0  0  0  0  0  0  0  0  0  0  0  0
  1 17  1  0
  1  5  1  0
  2  1  1  0
  2  3  1  0
  3  4  1  0
  4  5  1  0
  6 11  1  0
  6  1  1  0
  7  6  2  0
  8  9  2  0
  8  7  1  0
  9 10  1  0
 10 12  1  0
 10 11  2  0
 12 13  1  0
 13 14  2  0
 14 16  1  0
 15 13  1  0
 17 18  1  0
 18 19  1  0
 19 21  1  0
 20 19  1  0
 20 21  1  0
 21 22  1  0
 22 23  2  0
 23 24  1  0
 25 24  2  0
 26 25  1  0
 27 26  2  0
 27 22  1  0
  2 28  1  0
  2 29  1  0
  3 30  1  0
  3 31  1  0
  4 32  1  0
  4 33  1  0
  5 34  1  0
  5 35  1  0
  7 36  1  0
  8 37  1  0
 12 38  1  0
 15 39  1  0
 15 40  1  0
 17 41  1  0
 17 42  1  0
 18 43  1  0
 18 44  1  0
 19 45  1  1
 20 46  1  0
 20 47  1  0
 21 48  1  6
 23 49  1  0
 24 50  1  0
 26 51  1  0
M  ISO  8  28  13  29  13  30  13  31  13  32  13  33  13  34  13  35  13
M  ISO  8  36  14  37  14  41   8  42   8  43   8  44   8  45  13  46  13
M  ISO  5  47  13  48  13  49  14  50  14  51  14
M  END
>  <minimizedAffinity>  (1) 
-4.17121315

>  <minimizedRMSD>  (1) 
1.10903025

$$$$
