
     RDKit          3D

 52 54  0  0  1  0  0  0  0  0999 V2000
   45.4910   35.2390   42.7690 C   0  0  0  0  0  0  0  0  0  0  0  0
   46.9260   35.1050   42.6360 C   0  0  0  0  0  0  0  0  0  0  0  0
   47.3490   33.9210   43.5090 C   0  0  0  0  0  0  0  0  0  0  0  0
   46.1260   33.4060   44.1860 C   0  0  0  0  0  0  0  0  0  0  0  0
   45.1530   34.5610   44.0770 C   0  0  0  0  0  0  0  0  0  0  0  0
   44.6000   34.6150   41.7600 C   0  0  0  0  0  0  0  0  0  0  0  0
   45.1420   33.9930   40.6680 C   0  0  0  0  0  0  0  0  0  0  0  0
   44.3380   33.3980   39.7080 C   0  0  0  0  0  0  0  0  0  0  0  0
   42.9840   33.4660   39.9090 N   0  0  0  0  0  0  0  0  0  0  0  0
   42.4710   34.0780   40.9840 C   0  0  0  0  0  0  0  0  0  0  0  0
   43.2720   34.6350   41.8800 N   0  0  0  0  0  0  0  0  0  0  0  0
   41.0520   34.1310   41.1620 N   0  0  0  0  0  0  0  0  0  0  0  0
   40.2670   33.0300   41.5740 C   0  0  0  0  0  0  0  0  0  0  0  0
   40.8920   31.9830   41.9950 N   0  0  0  0  0  0  0  0  0  0  0  0
   38.8330   33.0760   41.5250 N   0  0  0  0  0  0  0  0  0  0  0  0
   40.3060   31.1660   42.2990 H   0  0  0  0  0  0  0  0  0  0  0  0
   45.0360   36.6630   42.8780 C   0  0  0  0  0  0  0  0  0  0  0  0
   45.4680   37.4320   44.0430 C   0  0  0  0  0  0  0  0  0  0  0  0
   44.8640   38.8610   44.0280 C   0  0  2  0  0  0  0  0  0  0  0  0
   45.6950   39.9640   43.5170 C   0  0  0  0  0  0  0  0  0  0  0  0
   45.4870   39.8430   44.9990 C   0  0  1  0  0  0  0  0  0  0  0  0
   44.4750   40.8100   45.6150 C   0  0  0  0  0  0  0  0  0  0  0  0
   44.6070   40.9000   47.1080 C   0  0  0  0  0  0  0  0  0  0  0  0
   44.6750   42.2120   45.0480 C   0  0  0  0  0  0  0  0  0  0  0  0
   47.1916   34.9137   41.5858 H   0  0  0  0  0  0  0  0  0  0  0  0
   47.4367   36.0268   42.9514 H   0  0  0  0  0  0  0  0  0  0  0  0
   47.7925   33.1324   42.8834 H   0  0  0  0  0  0  0  0  0  0  0  0
   48.0998   34.2337   44.2496 H   0  0  0  0  0  0  0  0  0  0  0  0
   45.7376   32.5141   43.6724 H   0  0  0  0  0  0  0  0  0  0  0  0
   46.3088   33.0946   45.2250 H   0  0  0  0  0  0  0  0  0  0  0  0
   45.2846   35.2574   44.9182 H   0  0  0  0  0  0  0  0  0  0  0  0
   44.1068   34.2226   44.1074 H   0  0  0  0  0  0  0  0  0  0  0  0
   46.2353   33.9647   40.5499 H   0  0  0  0  0  0  0  0  0  0  0  0
   44.7660   32.8958   38.8279 H   0  0  0  0  0  0  0  0  0  0  0  0
   40.5741   35.0249   40.9790 H   0  0  0  0  0  0  0  0  0  0  0  0
   38.2809   32.2618   41.8303 H   0  0  0  0  0  0  0  0  0  0  0  0
   38.3562   33.9232   41.1846 H   0  0  0  0  0  0  0  0  0  0  0  0
   45.3980   37.1918   41.9840 H   0  0  0  0  0  0  0  0  0  0  0  0
   43.9430   36.5959   42.9819 H   0  0  0  0  0  0  0  0  0  0  0  0
   45.1407   36.9138   44.9564 H   0  0  0  0  0  0  0  0  0  0  0  0
   46.5644   37.5172   44.0169 H   0  0  0  0  0  0  0  0  0  0  0  0
   43.8476   38.5064   43.8019 H   0  0  0  0  0  0  0  0  0  0  0  0
   46.6832   39.7487   43.0844 H   0  0  0  0  0  0  0  0  0  0  0  0
   45.5420   40.7666   42.7805 H   0  0  0  0  0  0  0  0  0  0  0  0
   46.1535   39.7968   45.8729 H   0  0  0  0  0  0  0  0  0  0  0  0
   43.4780   40.4176   45.3661 H   0  0  0  0  0  0  0  0  0  0  0  0
   43.7872   40.3411   47.5829 H   0  0  0  0  0  0  0  0  0  0  0  0
   45.5712   40.4704   47.4174 H   0  0  0  0  0  0  0  0  0  0  0  0
   44.5593   41.9545   47.4174 H   0  0  0  0  0  0  0  0  0  0  0  0
   44.7775   42.9306   45.8745 H   0  0  0  0  0  0  0  0  0  0  0  0
   45.5850   42.2313   44.4303 H   0  0  0  0  0  0  0  0  0  0  0  0
   43.8067   42.4850   44.4303 H   0  0  0  0  0  0  0  0  0  0  0  0
  1 17  1  0
  1  5  1  0
  2  1  1  0
  2  3  1  0
  3  4  1  0
  5  4  1  0
  6 11  1  0
  6  1  1  0
  7  6  2  0
  8  9  2  0
  8  7  1  0
  9 10  1  0
 10 12  1  0
 10 11  2  0
 12 13  1  0
 13 14  2  0
 14 16  1  0
 15 13  1  0
 17 18  1  0
 19 18  1  0
 19 21  1  0
 20 19  1  0
 20 21  1  0
 21 22  1  0
 22 23  1  0
 24 22  1  0
  2 25  1  0
  2 26  1  0
  3 27  1  0
  3 28  1  0
  4 29  1  0
  4 30  1  0
  5 31  1  0
  5 32  1  0
  7 33  1  0
  8 34  1  0
 12 35  1  0
 15 36  1  0
 15 37  1  0
 17 38  1  0
 17 39  1  0
 18 40  1  0
 18 41  1  0
 19 42  1  6
 20 43  1  0
 20 44  1  0
 21 45  1  1
 22 46  1  0
 23 47  1  0
 23 48  1  0
 23 49  1  0
 24 50  1  0
 24 51  1  0
 24 52  1  0
M  ISO  8  25  13  26  13  27  13  28  13  29  13  30  13  31  13  32  13
M  ISO  8  33  14  34  14  38   8  39   8  40   8  41   8  42  13  43  13
M  ISO  8  44  13  45  13  46   8  47   8  48   8  49   8  50   8  51   8
M  ISO  1  52   8
M  END
>  <minimizedAffinity>  (1) 
-4.08621645

>  <minimizedRMSD>  (1) 
0.555201948

$$$$
