
     RDKit          3D

 53 56  0  0  1  0  0  0  0  0999 V2000
   45.0690   34.7190   42.2580 C   0  0  0  0  0  0  0  0  0  0  0  0
   46.4910   34.7250   41.9610 C   0  0  0  0  0  0  0  0  0  0  0  0
   47.0700   33.4150   42.5110 C   0  0  0  0  0  0  0  0  0  0  0  0
   45.9580   32.6770   43.1670 C   0  0  0  0  0  0  0  0  0  0  0  0
   44.9170   33.7510   43.4070 C   0  0  0  0  0  0  0  0  0  0  0  0
   44.1080   34.2620   41.2260 C   0  0  0  0  0  0  0  0  0  0  0  0
   44.5730   33.8030   40.0240 C   0  0  0  0  0  0  0  0  0  0  0  0
   43.6990   33.3670   39.0370 C   0  0  0  0  0  0  0  0  0  0  0  0
   42.3640   33.4210   39.3310 N   0  0  0  0  0  0  0  0  0  0  0  0
   41.9320   33.8730   40.5100 C   0  0  0  0  0  0  0  0  0  0  0  0
   42.7950   34.2840   41.4360 N   0  0  0  0  0  0  0  0  0  0  0  0
   40.5250   33.9180   40.7890 N   0  0  0  0  0  0  0  0  0  0  0  0
   39.7500   32.7510   41.0820 C   0  0  0  0  0  0  0  0  0  0  0  0
   40.3840   31.6490   41.2940 N   0  0  0  0  0  0  0  0  0  0  0  0
   38.3160   32.8240   41.1340 N   0  0  0  0  0  0  0  0  0  0  0  0
   39.8020   30.8070   41.5080 H   0  0  0  0  0  0  0  0  0  0  0  0
   44.5630   36.0570   42.7170 C   0  0  0  0  0  0  0  0  0  0  0  0
   45.4950   36.9120   43.4600 C   0  0  0  0  0  0  0  0  0  0  0  0
   44.8950   38.3230   43.6740 C   0  0  2  0  0  0  0  0  0  0  0  0
   45.4940   39.4440   42.9320 C   0  0  0  0  0  0  0  0  0  0  0  0
   45.8060   39.3080   44.3950 C   0  0  1  0  0  0  0  0  0  0  0  0
   45.1490   40.3510   45.2460 C   0  0  0  0  0  0  0  0  0  0  0  0
   44.6990   41.5030   44.5940 C   0  0  0  0  0  0  0  0  0  0  0  0
   44.0830   42.4890   45.3590 C   0  0  0  0  0  0  0  0  0  0  0  0
   43.9240   42.3290   46.7290 C   0  0  0  0  0  0  0  0  0  0  0  0
   44.4050   41.1540   47.2710 C   0  0  0  0  0  0  0  0  0  0  0  0
   45.0250   40.1250   46.5930 C   0  0  0  0  0  0  0  0  0  0  0  0
   46.6496   34.7810   40.8739 H   0  0  0  0  0  0  0  0  0  0  0  0
   46.9840   35.5949   42.4195 H   0  0  0  0  0  0  0  0  0  0  0  0
   47.4867   32.8140   41.6893 H   0  0  0  0  0  0  0  0  0  0  0  0
   47.8773   33.6192   43.2297 H   0  0  0  0  0  0  0  0  0  0  0  0
   45.5656   31.8889   42.5075 H   0  0  0  0  0  0  0  0  0  0  0  0
   46.2679   32.1655   44.0902 H   0  0  0  0  0  0  0  0  0  0  0  0
   45.1014   34.2587   44.3652 H   0  0  0  0  0  0  0  0  0  0  0  0
   43.9010   33.3325   43.4583 H   0  0  0  0  0  0  0  0  0  0  0  0
   45.6566   33.7790   39.8364 H   0  0  0  0  0  0  0  0  0  0  0  0
   44.0620   32.9966   38.0669 H   0  0  0  0  0  0  0  0  0  0  0  0
   40.0510   34.8324   40.7779 H   0  0  0  0  0  0  0  0  0  0  0  0
   37.7647   31.9800   41.3455 H   0  0  0  0  0  0  0  0  0  0  0  0
   37.8393   33.7203   40.9598 H   0  0  0  0  0  0  0  0  0  0  0  0
   44.2451   36.6139   41.8233 H   0  0  0  0  0  0  0  0  0  0  0  0
   43.7619   35.8242   43.4340 H   0  0  0  0  0  0  0  0  0  0  0  0
   45.7009   36.4553   44.4393 H   0  0  0  0  0  0  0  0  0  0  0  0
   46.4244   37.0083   42.8795 H   0  0  0  0  0  0  0  0  0  0  0  0
   43.8657   37.9557   43.7989 H   0  0  0  0  0  0  0  0  0  0  0  0
   46.2785   39.2474   42.1864 H   0  0  0  0  0  0  0  0  0  0  0  0
   45.0910   40.2525   42.3044 H   0  0  0  0  0  0  0  0  0  0  0  0
   46.7006   39.2072   45.0271 H   0  0  0  0  0  0  0  0  0  0  0  0
   44.8280   41.6264   43.5086 H   0  0  0  0  0  0  0  0  0  0  0  0
   43.7179   43.4056   44.8727 H   0  0  0  0  0  0  0  0  0  0  0  0
   43.4404   43.0977   47.3496 H   0  0  0  0  0  0  0  0  0  0  0  0
   44.2810   41.0248   48.3563 H   0  0  0  0  0  0  0  0  0  0  0  0
   45.3857   39.2101   47.0859 H   0  0  0  0  0  0  0  0  0  0  0  0
  1 17  1  0
  1  5  1  0
  2  1  1  0
  2  3  1  0
  3  4  1  0
  4  5  1  0
  6 11  1  0
  6  1  1  0
  7  6  2  0
  8  9  2  0
  8  7  1  0
  9 10  1  0
 10 12  1  0
 10 11  2  0
 12 13  1  0
 13 15  1  0
 13 14  2  0
 14 16  1  0
 17 18  1  0
 18 19  1  0
 19 21  1  0
 20 19  1  0
 20 21  1  0
 21 22  1  0
 22 27  1  0
 23 22  2  0
 23 24  1  0
 24 25  2  0
 25 26  1  0
 27 26  2  0
  2 28  1  0
  2 29  1  0
  3 30  1  0
  3 31  1  0
  4 32  1  0
  4 33  1  0
  5 34  1  0
  5 35  1  0
  7 36  1  0
  8 37  1  0
 12 38  1  0
 15 39  1  0
 15 40  1  0
 17 41  1  0
 17 42  1  0
 18 43  1  0
 18 44  1  0
 19 45  1  1
 20 46  1  0
 20 47  1  0
 21 48  1  6
 23 49  1  0
 24 50  1  0
 25 51  1  0
 26 52  1  0
 27 53  1  0
M  ISO  8  28  13  29  13  30  13  31  13  32  13  33  13  34  13  35  13
M  ISO  8  36  14  37  14  41   8  42   8  43   8  44   8  45  13  46  13
M  ISO  7  47  13  48  13  49  14  50  14  51  14  52  14  53  14
M  END
>  <minimizedAffinity>  (1) 
-4.29816866

>  <minimizedRMSD>  (1) 
1.38854063

$$$$
