
     RDKit          3D

 55 58  0  0  1  0  0  0  0  0999 V2000
   45.5860   35.1140   42.6080 C   0  0  0  0  0  0  0  0  0  0  0  0
   47.0150   35.0590   42.3980 C   0  0  0  0  0  0  0  0  0  0  0  0
   47.5570   33.9060   43.2560 C   0  0  0  0  0  0  0  0  0  0  0  0
   46.4080   33.3300   43.9910 C   0  0  0  0  0  0  0  0  0  0  0  0
   45.3620   34.4250   43.9380 C   0  0  0  0  0  0  0  0  0  0  0  0
   44.6790   34.4270   41.6550 C   0  0  0  0  0  0  0  0  0  0  0  0
   45.2040   33.7030   40.6190 C   0  0  0  0  0  0  0  0  0  0  0  0
   44.3810   33.0530   39.7130 C   0  0  0  0  0  0  0  0  0  0  0  0
   43.0290   33.1710   39.9100 N   0  0  0  0  0  0  0  0  0  0  0  0
   42.5340   33.8850   40.9310 C   0  0  0  0  0  0  0  0  0  0  0  0
   43.3490   34.5000   41.7860 N   0  0  0  0  0  0  0  0  0  0  0  0
   41.1200   33.9890   41.1060 N   0  0  0  0  0  0  0  0  0  0  0  0
   40.3070   32.9410   41.6080 C   0  0  0  0  0  0  0  0  0  0  0  0
   40.9110   31.9060   42.1020 N   0  0  0  0  0  0  0  0  0  0  0  0
   38.8740   33.0320   41.5660 N   0  0  0  0  0  0  0  0  0  0  0  0
   40.3040   31.1390   42.4670 H   0  0  0  0  0  0  0  0  0  0  0  0
   45.0490   36.5070   42.7440 C   0  0  0  0  0  0  0  0  0  0  0  0
   45.3890   37.2620   43.9420 C   0  0  0  0  0  0  0  0  0  0  0  0
   44.8980   38.7330   43.8290 C   0  0  2  0  0  0  0  0  0  0  0  0
   45.8740   39.7540   43.4010 C   0  0  0  0  0  0  0  0  0  0  0  0
   45.4840   39.6880   44.8470 C   0  0  1  0  0  0  0  0  0  0  0  0
   44.5200   40.7170   45.2630 N   0  0  0  0  0  0  0  0  0  0  0  0
   44.7200   41.9520   44.5620 C   0  0  0  0  0  0  0  0  0  0  0  0
   44.5780   43.0670   45.5720 C   0  0  0  0  0  0  0  0  0  0  0  0
   43.8840   42.3490   46.7280 C   0  0  0  0  0  0  0  0  0  0  0  0
   44.6610   41.0330   46.6740 C   0  0  0  0  0  0  0  0  0  0  0  0
   47.2328   34.8729   41.3360 H   0  0  0  0  0  0  0  0  0  0  0  0
   47.4878   36.0112   42.6805 H   0  0  0  0  0  0  0  0  0  0  0  0
   48.0150   33.1403   42.6126 H   0  0  0  0  0  0  0  0  0  0  0  0
   48.3262   34.2670   43.9545 H   0  0  0  0  0  0  0  0  0  0  0  0
   46.0448   32.4165   43.4975 H   0  0  0  0  0  0  0  0  0  0  0  0
   46.6644   33.0350   45.0192 H   0  0  0  0  0  0  0  0  0  0  0  0
   45.5002   35.1328   44.7686 H   0  0  0  0  0  0  0  0  0  0  0  0
   44.3408   34.0270   44.0313 H   0  0  0  0  0  0  0  0  0  0  0  0
   46.2959   33.6360   40.5037 H   0  0  0  0  0  0  0  0  0  0  0  0
   44.7926   32.4702   38.8758 H   0  0  0  0  0  0  0  0  0  0  0  0
   40.6642   34.8773   40.8527 H   0  0  0  0  0  0  0  0  0  0  0  0
   38.2980   32.2619   41.9349 H   0  0  0  0  0  0  0  0  0  0  0  0
   38.4225   33.8674   41.1670 H   0  0  0  0  0  0  0  0  0  0  0  0
   45.4142   37.0830   41.8810 H   0  0  0  0  0  0  0  0  0  0  0  0
   43.9589   36.3738   42.8062 H   0  0  0  0  0  0  0  0  0  0  0  0
   44.9121   36.7891   44.8132 H   0  0  0  0  0  0  0  0  0  0  0  0
   46.4830   37.2646   44.0570 H   0  0  0  0  0  0  0  0  0  0  0  0
   43.8886   38.4543   43.4922 H   0  0  0  0  0  0  0  0  0  0  0  0
   46.8849   39.4488   43.0929 H   0  0  0  0  0  0  0  0  0  0  0  0
   45.8759   40.5468   42.6385 H   0  0  0  0  0  0  0  0  0  0  0  0
   46.0330   39.6086   45.7969 H   0  0  0  0  0  0  0  0  0  0  0  0
   45.7251   41.9735   44.1156 H   0  0  0  0  0  0  0  0  0  0  0  0
   43.9855   42.0640   43.7508 H   0  0  0  0  0  0  0  0  0  0  0  0
   45.5592   43.4609   45.8755 H   0  0  0  0  0  0  0  0  0  0  0  0
   44.0297   43.9435   45.1963 H   0  0  0  0  0  0  0  0  0  0  0  0
   44.0225   42.8735   47.6850 H   0  0  0  0  0  0  0  0  0  0  0  0
   42.7902   42.2623   46.6497 H   0  0  0  0  0  0  0  0  0  0  0  0
   44.2046   40.2625   47.3129 H   0  0  0  0  0  0  0  0  0  0  0  0
   45.6984   41.0913   47.0352 H   0  0  0  0  0  0  0  0  0  0  0  0
  1 17  1  0
  1  5  1  0
  2  1  1  0
  2  3  1  0
  3  4  1  0
  5  4  1  0
  6 11  1  0
  6  1  1  0
  7  6  2  0
  8  9  2  0
  8  7  1  0
  9 10  1  0
 10 12  1  0
 10 11  2  0
 12 13  1  0
 13 14  2  0
 14 16  1  0
 15 13  1  0
 17 18  1  0
 19 18  1  0
 19 21  1  0
 20 19  1  0
 20 21  1  0
 21 22  1  0
 22 23  1  0
 22 26  1  0
 23 24  1  0
 24 25  1  0
 26 25  1  0
  2 27  1  0
  2 28  1  0
  3 29  1  0
  3 30  1  0
  4 31  1  0
  4 32  1  0
  5 33  1  0
  5 34  1  0
  7 35  1  0
  8 36  1  0
 12 37  1  0
 15 38  1  0
 15 39  1  0
 17 40  1  0
 17 41  1  0
 18 42  1  0
 18 43  1  0
 19 44  1  6
 20 45  1  0
 20 46  1  0
 21 47  1  1
 23 48  1  0
 23 49  1  0
 24 50  1  0
 24 51  1  0
 25 52  1  0
 25 53  1  0
 26 54  1  0
 26 55  1  0
M  ISO  8  27  13  28  13  29  13  30  13  31  13  32  13  33  13  34  13
M  ISO  8  35  14  36  14  40   8  41   8  42   8  43   8  44  13  45  13
M  ISO  8  46  13  47  13  48  13  49  13  50  13  51  13  52  13  53  13
M  ISO  2  54  13  55  13
M  END
>  <minimizedAffinity>  (1) 
-4.03178072

>  <minimizedRMSD>  (1) 
0.886469543

$$$$
