
     RDKit          3D

 25 26  0  0  0  0  0  0  0  0999 V2000
   46.6060   35.0720   41.7500 C   0  0  0  0  0  0  0  0  0  0  0  0
   46.2520   33.6530   41.0970 C   0  0  0  0  0  0  0  0  0  0  0  0
   47.0350   33.8830   39.7960 C   0  0  0  0  0  0  0  0  0  0  0  0
   48.3500   34.4180   40.3270 C   0  0  0  0  0  0  0  0  0  0  0  0
   48.0430   35.0390   41.6910 C   0  0  0  0  0  0  0  0  0  0  0  0
   46.3410   34.1400   43.9920 C   0  0  0  0  0  0  0  0  0  0  0  0
   45.9880   35.1360   43.0830 C   0  0  0  0  0  0  0  0  0  0  0  0
   44.9750   36.0810   43.4770 C   0  0  0  0  0  0  0  0  0  0  0  0
   44.4500   35.9040   44.7240 N   0  0  0  0  0  0  0  0  0  0  0  0
   44.8240   34.9290   45.5630 C   0  0  0  0  0  0  0  0  0  0  0  0
   45.7830   34.0310   45.2000 N   0  0  0  0  0  0  0  0  0  0  0  0
   47.3000   33.1080   43.7560 C   0  0  0  0  0  0  0  0  0  0  0  0
   47.9330   32.0570   43.7580 O   0  0  0  0  0  0  0  0  0  0  0  0
   46.2285   35.9853   41.2670 H   0  0  0  0  0  0  0  0  0  0  0  0
   46.6386   32.8061   41.6829 H   0  0  0  0  0  0  0  0  0  0  0  0
   45.1875   33.3916   41.0054 H   0  0  0  0  0  0  0  0  0  0  0  0
   46.5335   34.6182   39.1495 H   0  0  0  0  0  0  0  0  0  0  0  0
   47.1361   32.9855   39.1681 H   0  0  0  0  0  0  0  0  0  0  0  0
   49.0774   33.6001   40.4362 H   0  0  0  0  0  0  0  0  0  0  0  0
   48.7863   35.1584   39.6403 H   0  0  0  0  0  0  0  0  0  0  0  0
   48.4524   34.4194   42.5025 H   0  0  0  0  0  0  0  0  0  0  0  0
   48.4920   36.0361   41.8099 H   0  0  0  0  0  0  0  0  0  0  0  0
   44.6452   36.8945   42.8141 H   0  0  0  0  0  0  0  0  0  0  0  0
   44.3528   34.8524   46.5540 H   0  0  0  0  0  0  0  0  0  0  0  0
   47.9463   33.6658   43.0623 H   0  0  0  0  0  0  0  0  0  0  0  0
  1  7  1  0
  2  1  1  0
  3  4  1  0
  3  2  1  0
  4  5  1  0
  5  1  1  0
  6 11  2  0
  7  8  2  0
  7  6  1  0
  8  9  1  0
  9 10  2  0
 11 10  1  0
 12 13  2  0
 12  6  1  0
  1 14  1  0
  2 15  1  0
  2 16  1  0
  3 17  1  0
  3 18  1  0
  4 19  1  0
  4 20  1  0
  5 21  1  0
  5 22  1  0
  8 23  1  0
 10 24  1  0
 12 25  1  0
M  ISO  8  14  13  15  13  16  13  17  13  18  13  19  13  20  13  21  13
M  ISO  4  22  13  23  14  24  14  25   6
M  END
>  <minimizedAffinity>  (1) 
-4.34748125

>  <minimizedRMSD>  (1) 
3.90753865

$$$$
