
     RDKit          3D

 38 40  0  0  0  0  0  0  0  0999 V2000
   45.9160   33.8690   40.3380 C   0  0  0  0  0  0  0  0  0  0  0  0
   46.4750   34.5110   41.4350 C   0  0  0  0  0  0  0  0  0  0  0  0
   45.6940   35.3320   42.3340 C   0  0  0  0  0  0  0  0  0  0  0  0
   44.3680   35.4400   42.0320 N   0  0  0  0  0  0  0  0  0  0  0  0
   43.8160   34.8100   40.9490 C   0  0  0  0  0  0  0  0  0  0  0  0
   44.5670   34.0390   40.1170 N   0  0  0  0  0  0  0  0  0  0  0  0
   46.6920   33.0590   39.4910 N   0  0  0  0  0  0  0  0  0  0  0  0
   42.4270   34.9500   40.6680 N   0  0  0  0  0  0  0  0  0  0  0  0
   41.9250   34.8860   39.3050 C   0  0  0  0  0  0  0  0  0  0  0  0
   40.9010   33.7460   39.4050 C   0  0  0  0  0  0  0  0  0  0  0  0
   39.8610   34.1590   40.1690 O   0  0  0  0  0  0  0  0  0  0  0  0
   40.0760   34.7410   41.3630 C   0  0  0  0  0  0  0  0  0  0  0  0
   41.4660   35.1580   41.7110 C   0  0  0  0  0  0  0  0  0  0  0  0
   47.9310   34.4100   41.5790 C   0  0  0  0  0  0  0  0  0  0  0  0
   48.2980   33.6280   42.9070 C   0  0  0  0  0  0  0  0  0  0  0  0
   49.8430   33.7580   42.7340 C   0  0  0  0  0  0  0  0  0  0  0  0
   49.9760   35.2130   42.4100 C   0  0  0  0  0  0  0  0  0  0  0  0
   48.7070   35.5830   41.6370 C   0  0  0  0  0  0  0  0  0  0  0  0
   46.1399   35.8362   43.2040 H   0  0  0  0  0  0  0  0  0  0  0  0
   46.2558   32.5924   38.6829 H   0  0  0  0  0  0  0  0  0  0  0  0
   47.6968   32.9320   39.6784 H   0  0  0  0  0  0  0  0  0  0  0  0
   42.7275   34.6432   38.5929 H   0  0  0  0  0  0  0  0  0  0  0  0
   41.5042   35.8340   38.9386 H   0  0  0  0  0  0  0  0  0  0  0  0
   40.5400   33.4841   38.3995 H   0  0  0  0  0  0  0  0  0  0  0  0
   41.3702   32.8609   39.8594 H   0  0  0  0  0  0  0  0  0  0  0  0
   39.4467   35.6424   41.4031 H   0  0  0  0  0  0  0  0  0  0  0  0
   39.8400   33.9531   42.0934 H   0  0  0  0  0  0  0  0  0  0  0  0
   41.7864   34.5840   42.5930 H   0  0  0  0  0  0  0  0  0  0  0  0
   41.4313   36.2423   41.8932 H   0  0  0  0  0  0  0  0  0  0  0  0
   48.1857   33.9141   40.6307 H   0  0  0  0  0  0  0  0  0  0  0  0
   47.9262   34.1278   43.8136 H   0  0  0  0  0  0  0  0  0  0  0  0
   47.8852   32.6158   43.0296 H   0  0  0  0  0  0  0  0  0  0  0  0
   50.3758   33.5009   43.6614 H   0  0  0  0  0  0  0  0  0  0  0  0
   50.2714   33.0851   41.9766 H   0  0  0  0  0  0  0  0  0  0  0  0
   50.0494   35.8064   43.3333 H   0  0  0  0  0  0  0  0  0  0  0  0
   50.8833   35.4168   41.8224 H   0  0  0  0  0  0  0  0  0  0  0  0
   48.9630   35.9223   40.6224 H   0  0  0  0  0  0  0  0  0  0  0  0
   48.1615   36.4026   42.1275 H   0  0  0  0  0  0  0  0  0  0  0  0
  1  2  2  0
  2 14  1  0
  2  3  1  0
  4  3  2  0
  5  4  1  0
  6  1  1  0
  6  5  2  0
  7  1  1  0
  8  5  1  0
  8 13  1  0
  9 10  1  0
  9  8  1  0
 10 11  1  0
 11 12  1  0
 12 13  1  0
 14 18  1  0
 14 15  1  0
 16 15  1  0
 17 16  1  0
 18 17  1  0
  3 19  1  0
  7 20  1  0
  7 21  1  0
  9 22  1  0
  9 23  1  0
 10 24  1  0
 10 25  1  0
 12 26  1  0
 12 27  1  0
 13 28  1  0
 13 29  1  0
 14 30  1  0
 15 31  1  0
 15 32  1  0
 16 33  1  0
 16 34  1  0
 17 35  1  0
 17 36  1  0
 18 37  1  0
 18 38  1  0
M  ISO  8  19  14  22  13  23  13  24  13  25  13  26  13  27  13  28  13
M  ISO  8  29  13  30  13  31  13  32  13  33  13  34  13  35  13  36  13
M  ISO  2  37  13  38  13
M  END
>  <minimizedAffinity>  (1) 
-5.56753731

>  <minimizedRMSD>  (1) 
6.95658588

$$$$
