
     RDKit          3D

 38 40  0  0  0  0  0  0  0  0999 V2000
   45.3610   33.7690   46.3040 C   0  0  0  0  0  0  0  0  0  0  0  0
   45.6460   33.5480   44.9660 C   0  0  0  0  0  0  0  0  0  0  0  0
   46.6880   32.6300   44.5580 C   0  0  0  0  0  0  0  0  0  0  0  0
   47.3630   32.0080   45.5560 N   0  0  0  0  0  0  0  0  0  0  0  0
   47.0840   32.2290   46.8740 C   0  0  0  0  0  0  0  0  0  0  0  0
   46.0860   33.1050   47.2550 N   0  0  0  0  0  0  0  0  0  0  0  0
   44.3200   34.6440   46.6810 N   0  0  0  0  0  0  0  0  0  0  0  0
   47.8420   31.5350   47.8590 N   0  0  0  0  0  0  0  0  0  0  0  0
   48.7680   32.1670   48.5790 C   0  0  0  0  0  0  0  0  0  0  0  0
   49.4850   31.4620   49.5270 C   0  0  0  0  0  0  0  0  0  0  0  0
   50.5390   32.0870   50.3790 C   0  0  0  0  0  0  0  0  0  0  0  0
   49.2140   30.1110   49.6970 C   0  0  0  0  0  0  0  0  0  0  0  0
   49.8670   29.4510   50.5660 O   0  0  0  0  0  0  0  0  0  0  0  0
   48.2560   29.5170   48.9330 N   0  0  0  0  0  0  0  0  0  0  0  0
   47.5650   30.2390   48.0050 C   0  0  0  0  0  0  0  0  0  0  0  0
   46.7290   29.5520   47.3930 O   0  0  0  0  0  0  0  0  0  0  0  0
   44.9290   34.3610   43.9840 C   0  0  0  0  0  0  0  0  0  0  0  0
   44.4700   33.4530   42.7630 C   0  0  0  0  0  0  0  0  0  0  0  0
   43.8070   34.6140   41.9590 C   0  0  0  0  0  0  0  0  0  0  0  0
   44.8480   35.6750   42.0460 C   0  0  0  0  0  0  0  0  0  0  0  0
   45.5760   35.4480   43.3730 C   0  0  0  0  0  0  0  0  0  0  0  0
   46.9192   32.4473   43.4982 H   0  0  0  0  0  0  0  0  0  0  0  0
   43.7781   35.1408   45.9595 H   0  0  0  0  0  0  0  0  0  0  0  0
   44.1021   34.7859   47.6776 H   0  0  0  0  0  0  0  0  0  0  0  0
   48.9597   33.2385   48.4205 H   0  0  0  0  0  0  0  0  0  0  0  0
   50.2887   31.9386   51.4398 H   0  0  0  0  0  0  0  0  0  0  0  0
   51.5107   31.6190   50.1626 H   0  0  0  0  0  0  0  0  0  0  0  0
   50.5945   33.1641   50.1626 H   0  0  0  0  0  0  0  0  0  0  0  0
   48.0518   28.5151   49.0569 H   0  0  0  0  0  0  0  0  0  0  0  0
   44.1373   34.7836   44.6200 H   0  0  0  0  0  0  0  0  0  0  0  0
   45.3156   32.9928   42.2308 H   0  0  0  0  0  0  0  0  0  0  0  0
   43.8497   32.5732   42.9894 H   0  0  0  0  0  0  0  0  0  0  0  0
   42.8648   34.9376   42.4254 H   0  0  0  0  0  0  0  0  0  0  0  0
   43.5309   34.3430   40.9293 H   0  0  0  0  0  0  0  0  0  0  0  0
   45.5518   35.5891   41.2050 H   0  0  0  0  0  0  0  0  0  0  0  0
   44.4026   36.6797   41.9989 H   0  0  0  0  0  0  0  0  0  0  0  0
   46.6351   35.2114   43.1932 H   0  0  0  0  0  0  0  0  0  0  0  0
   45.5476   36.3452   44.0088 H   0  0  0  0  0  0  0  0  0  0  0  0
  1  7  1  0
  1  6  2  0
  2  1  1  0
  3  2  2  0
  3  4  1  0
  4  5  2  0
  5  6  1  0
  5  8  1  0
  8 15  1  0
  8  9  1  0
  9 10  2  0
 10 12  1  0
 10 11  1  0
 12 13  2  0
 14 12  1  0
 15 14  1  0
 16 15  2  0
 17  2  1  0
 18 17  1  0
 19 20  1  0
 19 18  1  0
 20 21  1  0
 21 17  1  0
  3 22  1  0
  7 23  1  0
  7 24  1  0
  9 25  1  0
 11 26  1  0
 11 27  1  0
 11 28  1  0
 14 29  1  0
 17 30  1  0
 18 31  1  0
 18 32  1  0
 19 33  1  0
 19 34  1  0
 20 35  1  0
 20 36  1  0
 21 37  1  0
 21 38  1  0
M  ISO  8  22  14  25  14  26   8  27   8  28   8  29   9  30  13  31  13
M  ISO  7  32  13  33  13  34  13  35  13  36  13  37  13  38  13
M  END
>  <minimizedAffinity>  (1) 
-5.84192085

>  <minimizedRMSD>  (1) 
2.85955715

$$$$
