
     RDKit          3D

 36 38  0  0  0  0  0  0  0  0999 V2000
   44.1030   34.7326   41.6512 C   0  0  0  0  0  0  0  0  0  0  0  0
   42.5168   34.7224   41.6309 C   0  0  0  0  0  0  0  0  0  0  0  0
   42.3733   35.2031   40.1587 C   0  0  0  0  0  0  0  0  0  0  0  0
   43.3699   34.3386   39.4603 C   0  0  0  0  0  0  0  0  0  0  0  0
   44.4702   34.0397   40.4816 C   0  0  0  0  0  0  0  0  0  0  0  0
   44.8300   35.2431   43.9172 C   0  0  0  0  0  0  0  0  0  0  0  0
   44.5950   34.2827   42.9481 C   0  0  0  0  0  0  0  0  0  0  0  0
   44.9316   32.8973   43.1680 C   0  0  0  0  0  0  0  0  0  0  0  0
   45.4951   32.5778   44.3719 N   0  0  0  0  0  0  0  0  0  0  0  0
   45.7218   33.5476   45.3182 C   0  0  0  0  0  0  0  0  0  0  0  0
   45.3929   34.8761   45.0998 N   0  0  0  0  0  0  0  0  0  0  0  0
   44.4665   36.5819   43.6941 N   0  0  0  0  0  0  0  0  0  0  0  0
   44.2534   35.8489   41.5801 H   0  0  0  0  0  0  0  0  0  0  0  0
   42.1747   33.6962   41.7569 H   0  0  0  0  0  0  0  0  0  0  0  0
   42.1387   35.4682   42.3305 H   0  0  0  0  0  0  0  0  0  0  0  0
   42.6762   36.2518   40.1460 H   0  0  0  0  0  0  0  0  0  0  0  0
   41.3449   35.0510   39.7933 H   0  0  0  0  0  0  0  0  0  0  0  0
   43.7726   34.7734   38.5421 H   0  0  0  0  0  0  0  0  0  0  0  0
   42.8334   33.4098   39.1479 H   0  0  0  0  0  0  0  0  0  0  0  0
   44.6090   32.9599   40.4814 H   0  0  0  0  0  0  0  0  0  0  0  0
   45.4231   34.4602   40.0409 H   0  0  0  0  0  0  0  0  0  0  0  0
   44.7385   32.1843   42.4118 H   0  0  0  0  0  0  0  0  0  0  0  0
   45.3319   37.1256   43.4135 H   0  0  0  0  0  0  0  0  0  0  0  0
   43.4447   36.8251   43.8327 H   0  0  0  0  0  0  0  0  0  0  0  0
   46.3097   33.2225   46.5736 N   0  0  0  0  0  0  0  0  0  0  0  0
   47.0359   32.0893   46.5298 C   0  0  0  0  0  0  0  0  0  0  0  0
   47.6820   31.6155   47.6554 C   0  0  0  0  0  0  0  0  0  0  0  0
   47.5402   32.3678   48.8210 C   0  0  0  0  0  0  0  0  0  0  0  0
   48.1951   31.8999   49.9890 N   0  0  0  0  0  0  0  0  0  0  0  0
   46.8096   33.4913   48.8287 N   0  0  0  0  0  0  0  0  0  0  0  0
   46.1910   33.9282   47.7144 C   0  0  0  0  0  0  0  0  0  0  0  0
   45.4837   34.9727   47.6278 O   0  0  0  0  0  0  0  0  0  0  0  0
   47.1747   31.4676   45.6387 H   0  0  0  0  0  0  0  0  0  0  0  0
   48.2795   30.6975   47.6512 H   0  0  0  0  0  0  0  0  0  0  0  0
   49.1149   31.9343   50.4832 H   0  0  0  0  0  0  0  0  0  0  0  0
   49.1581   32.3307   49.8520 H   0  0  0  0  0  0  0  0  0  0  0  0
  1  7  1  0
  2  1  1  0
  3  2  1  0
  4  3  1  0
  4  5  1  0
  5  1  1  0
  6 11  2  0
  7  8  2  0
  7  6  1  0
  8  9  1  0
  9 10  2  0
 11 10  1  0
 12  6  1  0
  1 13  1  0
  2 14  1  0
  2 15  1  0
  3 16  1  0
  3 17  1  0
  4 18  1  0
  4 19  1  0
  5 20  1  0
  5 21  1  0
  8 22  1  0
 12 23  1  0
 12 24  1  0
 25 26  1  0
 26 27  2  0
 27 28  1  0
 28 29  1  0
 28 30  2  0
 30 31  1  0
 31 32  2  0
 31 25  1  0
 26 33  1  0
 27 34  1  0
 29 35  1  0
 29 36  1  0
 10 25  1  0
M  END
>  <DihAtoms>  (1) 
8,9,24,25

>  <DihDeg>  (1) 
53.406556492859806

$$$$
