
     RDKit          3D

 39 42  0  0  0  0  0  0  0  0999 V2000
   44.4520   35.1440   42.9500 C   0  0  0  0  0  0  0  0  0  0  0  0
   43.5860   34.4640   42.1070 C   0  0  0  0  0  0  0  0  0  0  0  0
   43.5610   33.0180   42.0610 C   0  0  0  0  0  0  0  0  0  0  0  0
   44.4300   32.3680   42.8810 N   0  0  0  0  0  0  0  0  0  0  0  0
   45.2800   33.0480   43.7020 C   0  0  0  0  0  0  0  0  0  0  0  0
   45.3030   34.4320   43.7500 N   0  0  0  0  0  0  0  0  0  0  0  0
   44.4360   36.5480   43.0060 N   0  0  0  0  0  0  0  0  0  0  0  0
   42.8000   35.2520   41.1710 C   0  0  0  0  0  0  0  0  0  0  0  0
   41.2790   35.2740   41.6060 C   0  0  0  0  0  0  0  0  0  0  0  0
   40.7950   36.1620   40.4160 C   0  0  0  0  0  0  0  0  0  0  0  0
   41.4600   35.4830   39.2650 C   0  0  0  0  0  0  0  0  0  0  0  0
   42.7580   34.8850   39.8100 C   0  0  0  0  0  0  0  0  0  0  0  0
   46.1910   32.2910   44.5560 C   0  0  0  0  0  0  0  0  0  0  0  0
   47.1900   31.4960   44.0330 C   0  0  0  0  0  0  0  0  0  0  0  0
   47.7900   30.9820   45.1470 N   0  0  0  0  0  0  0  0  0  0  0  0
   47.2080   31.4250   46.2760 C   0  0  0  0  0  0  0  0  0  0  0  0
   47.5150   31.1450   47.5730 C   0  0  0  0  0  0  0  0  0  0  0  0
   46.7450   31.7440   48.5590 C   0  0  0  0  0  0  0  0  0  0  0  0
   45.7050   32.5930   48.2420 C   0  0  0  0  0  0  0  0  0  0  0  0
   45.4110   32.8640   46.9160 C   0  0  0  0  0  0  0  0  0  0  0  0
   46.1740   32.2710   45.9310 C   0  0  0  0  0  0  0  0  0  0  0  0
   42.8744   32.4724   41.3970 H   0  0  0  0  0  0  0  0  0  0  0  0
   43.7936   37.0802   42.4019 H   0  0  0  0  0  0  0  0  0  0  0  0
   45.0666   37.0449   43.6512 H   0  0  0  0  0  0  0  0  0  0  0  0
   43.3453   36.2057   41.2273 H   0  0  0  0  0  0  0  0  0  0  0  0
   40.8206   34.2741   41.6065 H   0  0  0  0  0  0  0  0  0  0  0  0
   41.0485   35.6219   42.6238 H   0  0  0  0  0  0  0  0  0  0  0  0
   39.6995   36.1437   40.3178 H   0  0  0  0  0  0  0  0  0  0  0  0
   41.0417   37.2292   40.5170 H   0  0  0  0  0  0  0  0  0  0  0  0
   41.6803   36.2101   38.4696 H   0  0  0  0  0  0  0  0  0  0  0  0
   40.8132   34.7059   38.8316 H   0  0  0  0  0  0  0  0  0  0  0  0
   42.7495   33.7898   39.7073 H   0  0  0  0  0  0  0  0  0  0  0  0
   43.6380   35.2517   39.2613 H   0  0  0  0  0  0  0  0  0  0  0  0
   47.4417   31.3193   42.9769 H   0  0  0  0  0  0  0  0  0  0  0  0
   48.5905   30.3342   45.1254 H   0  0  0  0  0  0  0  0  0  0  0  0
   48.3435   30.4684   47.8293 H   0  0  0  0  0  0  0  0  0  0  0  0
   46.9684   31.5377   49.6161 H   0  0  0  0  0  0  0  0  0  0  0  0
   45.1089   33.0550   49.0428 H   0  0  0  0  0  0  0  0  0  0  0  0
   44.5840   33.5399   46.6528 H   0  0  0  0  0  0  0  0  0  0  0  0
  1  7  1  0
  1  6  2  0
  2  1  1  0
  3  2  2  0
  3  4  1  0
  4  5  2  0
  5  6  1  0
  5 13  1  0
  8  9  1  0
  8  2  1  0
 10  9  1  0
 11 12  1  0
 11 10  1  0
 12  8  1  0
 13 21  1  0
 14 13  2  0
 14 15  1  0
 15 16  1  0
 16 17  2  0
 17 18  1  0
 19 18  2  0
 20 19  1  0
 21 16  1  0
 21 20  2  0
  3 22  1  0
  7 23  1  0
  7 24  1  0
  8 25  1  0
  9 26  1  0
  9 27  1  0
 10 28  1  0
 10 29  1  0
 11 30  1  0
 11 31  1  0
 12 32  1  0
 12 33  1  0
 14 34  1  0
 15 35  1  0
 17 36  1  0
 18 37  1  0
 19 38  1  0
 20 39  1  0
M  ISO  8  22  14  25  13  26  13  27  13  28  13  29  13  30  13  31  13
M  ISO  8  32  13  33  13  34  14  35   9  36  14  37  14  38  14  39  14
M  END
>  <minimizedAffinity>  (1) 
-5.74699736

>  <minimizedRMSD>  (1) 
2.04438639

$$$$
