
     RDKit          3D

 31 33  0  0  0  0  0  0  0  0999 V2000
   44.9120   34.9180   44.2680 C   0  0  0  0  0  0  0  0  0  0  0  0
   44.7700   34.0590   43.1860 C   0  0  0  0  0  0  0  0  0  0  0  0
   45.1140   32.6600   43.2840 C   0  0  0  0  0  0  0  0  0  0  0  0
   45.5850   32.2260   44.4830 N   0  0  0  0  0  0  0  0  0  0  0  0
   45.7240   33.0910   45.5540 C   0  0  0  0  0  0  0  0  0  0  0  0
   45.3900   34.4280   45.4490 N   0  0  0  0  0  0  0  0  0  0  0  0
   44.5510   36.2720   44.1650 N   0  0  0  0  0  0  0  0  0  0  0  0
   44.3600   34.6470   41.9190 C   0  0  0  0  0  0  0  0  0  0  0  0
   42.7800   34.5810   41.7610 C   0  0  0  0  0  0  0  0  0  0  0  0
   42.7430   35.2500   40.3570 C   0  0  0  0  0  0  0  0  0  0  0  0
   43.8340   34.5240   39.6370 C   0  0  0  0  0  0  0  0  0  0  0  0
   44.8390   34.1050   40.7100 C   0  0  0  0  0  0  0  0  0  0  0  0
   46.2400   32.4910   46.7730 C   0  0  0  0  0  0  0  0  0  0  0  0
   47.4430   31.7160   46.9370 C   0  0  0  0  0  0  0  0  0  0  0  0
   47.3740   31.3250   48.7860 S   0  0  0  0  0  0  0  0  0  0  0  0
   45.7720   32.2670   48.9470 C   0  0  0  0  0  0  0  0  0  0  0  0
   45.4840   32.7020   47.8470 N   0  0  0  0  0  0  0  0  0  0  0  0
   45.0003   31.9777   42.4287 H   0  0  0  0  0  0  0  0  0  0  0  0
   44.1902   36.6425   43.2742 H   0  0  0  0  0  0  0  0  0  0  0  0
   44.6471   36.8941   44.9803 H   0  0  0  0  0  0  0  0  0  0  0  0
   44.8083   35.6460   42.0239 H   0  0  0  0  0  0  0  0  0  0  0  0
   42.3942   33.5509   41.7536 H   0  0  0  0  0  0  0  0  0  0  0  0
   42.1718   35.0373   42.5559 H   0  0  0  0  0  0  0  0  0  0  0  0
   41.7701   35.0969   39.8670 H   0  0  0  0  0  0  0  0  0  0  0  0
   42.8785   36.3413   40.3824 H   0  0  0  0  0  0  0  0  0  0  0  0
   43.4305   33.6384   39.1243 H   0  0  0  0  0  0  0  0  0  0  0  0
   44.3032   35.1583   38.8705 H   0  0  0  0  0  0  0  0  0  0  0  0
   44.8927   33.0083   40.7768 H   0  0  0  0  0  0  0  0  0  0  0  0
   45.8519   34.4661   40.4783 H   0  0  0  0  0  0  0  0  0  0  0  0
   48.1973   31.4293   46.1895 H   0  0  0  0  0  0  0  0  0  0  0  0
   45.1912   32.4048   49.8709 H   0  0  0  0  0  0  0  0  0  0  0  0
  1  6  2  0
  2  3  2  0
  2  1  1  0
  3  4  1  0
  4  5  2  0
  5 13  1  0
  6  5  1  0
  7  1  1  0
  8  2  1  0
  9  8  1  0
 10  9  1  0
 11 10  1  0
 11 12  1  0
 12  8  1  0
 13 14  2  0
 13 17  1  0
 14 15  1  0
 15 16  1  0
 17 16  2  0
  3 18  1  0
  7 19  1  0
  7 20  1  0
  8 21  1  0
  9 22  1  0
  9 23  1  0
 10 24  1  0
 10 25  1  0
 11 26  1  0
 11 27  1  0
 12 28  1  0
 12 29  1  0
 14 30  1  0
 16 31  1  0
M  ISO  8  18  14  21  13  22  13  23  13  24  13  25  13  26  13  27  13
M  ISO  4  28  13  29  13  30  14  31  14
M  END
>  <minimizedAffinity>  (1) 
-4.71217728

>  <minimizedRMSD>  (1) 
0.574464738

$$$$
