
     RDKit          3D

 33 35  0  0  0  0  0  0  0  0999 V2000
   44.8910   34.8970   44.2830 C   0  0  0  0  0  0  0  0  0  0  0  0
   44.7660   34.0470   43.1980 C   0  0  0  0  0  0  0  0  0  0  0  0
   45.0880   32.6440   43.3080 C   0  0  0  0  0  0  0  0  0  0  0  0
   45.5210   32.2030   44.5230 N   0  0  0  0  0  0  0  0  0  0  0  0
   45.6440   33.0640   45.5920 C   0  0  0  0  0  0  0  0  0  0  0  0
   45.3350   34.3860   45.4760 N   0  0  0  0  0  0  0  0  0  0  0  0
   44.5280   36.2570   44.1580 N   0  0  0  0  0  0  0  0  0  0  0  0
   44.4050   34.6370   41.9100 C   0  0  0  0  0  0  0  0  0  0  0  0
   42.8280   34.5760   41.7130 C   0  0  0  0  0  0  0  0  0  0  0  0
   42.8280   35.2540   40.3120 C   0  0  0  0  0  0  0  0  0  0  0  0
   43.9250   34.5000   39.6230 C   0  0  0  0  0  0  0  0  0  0  0  0
   44.9070   34.0810   40.7180 C   0  0  0  0  0  0  0  0  0  0  0  0
   46.1140   32.5220   46.8610 C   0  0  0  0  0  0  0  0  0  0  0  0
   45.2900   32.5370   47.9540 C   0  0  0  0  0  0  0  0  0  0  0  0
   45.8430   31.9960   49.1000 C   0  0  0  0  0  0  0  0  0  0  0  0
   47.0900   31.4840   49.1810 N   0  0  0  0  0  0  0  0  0  0  0  0
   47.8660   31.4960   48.0590 C   0  0  0  0  0  0  0  0  0  0  0  0
   47.3630   32.0200   46.9020 N   0  0  0  0  0  0  0  0  0  0  0  0
   44.9885   31.9621   42.4506 H   0  0  0  0  0  0  0  0  0  0  0  0
   44.1970   36.6206   43.2529 H   0  0  0  0  0  0  0  0  0  0  0  0
   44.5944   36.8847   44.9720 H   0  0  0  0  0  0  0  0  0  0  0  0
   44.8656   35.6303   42.0163 H   0  0  0  0  0  0  0  0  0  0  0  0
   42.4398   33.5470   41.6897 H   0  0  0  0  0  0  0  0  0  0  0  0
   42.2013   35.0288   42.4955 H   0  0  0  0  0  0  0  0  0  0  0  0
   41.8638   35.1205   39.7997 H   0  0  0  0  0  0  0  0  0  0  0  0
   42.9767   36.3436   40.3380 H   0  0  0  0  0  0  0  0  0  0  0  0
   43.5179   33.6128   39.1159 H   0  0  0  0  0  0  0  0  0  0  0  0
   44.4173   35.1182   38.8579 H   0  0  0  0  0  0  0  0  0  0  0  0
   44.9516   32.9846   40.7947 H   0  0  0  0  0  0  0  0  0  0  0  0
   45.9280   34.4303   40.5044 H   0  0  0  0  0  0  0  0  0  0  0  0
   44.2696   32.9467   47.9231 H   0  0  0  0  0  0  0  0  0  0  0  0
   45.2240   31.9816   50.0092 H   0  0  0  0  0  0  0  0  0  0  0  0
   48.8870   31.0876   48.0857 H   0  0  0  0  0  0  0  0  0  0  0  0
  1  6  2  0
  2  3  2  0
  2  1  1  0
  3  4  1  0
  4  5  2  0
  5 13  1  0
  6  5  1  0
  7  1  1  0
  8  2  1  0
  9  8  1  0
 10  9  1  0
 11 10  1  0
 11 12  1  0
 12  8  1  0
 13 18  1  0
 13 14  2  0
 14 15  1  0
 15 16  2  0
 17 16  1  0
 18 17  2  0
  3 19  1  0
  7 20  1  0
  7 21  1  0
  8 22  1  0
  9 23  1  0
  9 24  1  0
 10 25  1  0
 10 26  1  0
 11 27  1  0
 11 28  1  0
 12 29  1  0
 12 30  1  0
 14 31  1  0
 15 32  1  0
 17 33  1  0
M  ISO  8  19  14  22  13  23  13  24  13  25  13  26  13  27  13  28  13
M  ISO  5  29  13  30  13  31  14  32  14  33  14
M  END
>  <minimizedAffinity>  (1) 
-5.01277781

>  <minimizedRMSD>  (1) 
0.684761405

$$$$
