
     RDKit          3D

 44 47  0  0  0  0  0  0  0  0999 V2000
   47.5460   34.7510   41.7100 C   0  0  0  0  0  0  0  0  0  0  0  0
   47.2720   34.2660   40.3210 C   0  0  0  0  0  0  0  0  0  0  0  0
   48.2180   34.3440   39.3130 C   0  0  0  0  0  0  0  0  0  0  0  0
   48.0690   33.9340   38.0250 C   0  0  0  0  0  0  0  0  0  0  0  0
   46.8550   33.3980   37.7350 N   0  0  0  0  0  0  0  0  0  0  0  0
   45.9030   33.3050   38.7020 C   0  0  0  0  0  0  0  0  0  0  0  0
   46.0740   33.7220   39.9800 N   0  0  0  0  0  0  0  0  0  0  0  0
   44.6270   32.7190   38.3200 C   0  0  0  0  0  0  0  0  0  0  0  0
   43.4330   33.3010   38.7360 C   0  0  0  0  0  0  0  0  0  0  0  0
   42.2340   32.7440   38.3740 C   0  0  0  0  0  0  0  0  0  0  0  0
   42.1900   31.6430   37.6250 N   0  0  0  0  0  0  0  0  0  0  0  0
   43.3530   31.0980   37.2350 C   0  0  0  0  0  0  0  0  0  0  0  0
   44.5780   31.6080   37.5620 N   0  0  0  0  0  0  0  0  0  0  0  0
   47.2410   33.6480   42.6490 C   0  0  0  0  0  0  0  0  0  0  0  0
   44.7180   35.3400   44.8500 C   0  0  0  0  0  0  0  0  0  0  0  0
   45.5310   34.9980   43.7550 C   0  0  0  0  0  0  0  0  0  0  0  0
   46.4120   33.9670   43.8030 C   0  0  0  0  0  0  0  0  0  0  0  0
   46.4870   33.2690   44.9460 N   0  0  0  0  0  0  0  0  0  0  0  0
   45.6940   33.6020   46.0130 C   0  0  0  0  0  0  0  0  0  0  0  0
   44.8420   34.6010   45.9660 N   0  0  0  0  0  0  0  0  0  0  0  0
   45.9450   32.6960   47.1710 C   0  0  0  0  0  0  0  0  0  0  0  0
   44.9670   31.9180   47.9430 C   0  0  0  0  0  0  0  0  0  0  0  0
   46.1020   31.1400   49.1250 S   0  0  0  0  0  0  0  0  0  0  0  0
   47.6470   31.9690   48.3990 C   0  0  0  0  0  0  0  0  0  0  0  0
   47.2320   32.7250   47.3840 N   0  0  0  0  0  0  0  0  0  0  0  0
   49.0140   31.6770   49.0240 C   0  0  0  0  0  0  0  0  0  0  0  0
   48.9110   30.3520   49.7020 C   0  0  0  0  0  0  0  0  0  0  0  0
   46.9089   35.6192   41.9346 H   0  0  0  0  0  0  0  0  0  0  0  0
   48.5986   35.0553   41.8075 H   0  0  0  0  0  0  0  0  0  0  0  0
   49.1902   34.7828   39.5817 H   0  0  0  0  0  0  0  0  0  0  0  0
   48.8692   34.0290   37.2763 H   0  0  0  0  0  0  0  0  0  0  0  0
   43.4516   34.2093   39.3562 H   0  0  0  0  0  0  0  0  0  0  0  0
   41.2957   33.2122   38.7063 H   0  0  0  0  0  0  0  0  0  0  0  0
   43.3181   30.1888   36.6168 H   0  0  0  0  0  0  0  0  0  0  0  0
   46.7259   32.8608   42.0789 H   0  0  0  0  0  0  0  0  0  0  0  0
   48.2144   33.3570   43.0707 H   0  0  0  0  0  0  0  0  0  0  0  0
   44.0087   36.1790   44.7956 H   0  0  0  0  0  0  0  0  0  0  0  0
   45.4502   35.5857   42.8287 H   0  0  0  0  0  0  0  0  0  0  0  0
   43.8755   31.8328   47.8365 H   0  0  0  0  0  0  0  0  0  0  0  0
   49.7869   31.6419   48.2421 H   0  0  0  0  0  0  0  0  0  0  0  0
   49.2935   32.4634   49.7406 H   0  0  0  0  0  0  0  0  0  0  0  0
   48.9222   30.4962   50.7924 H   0  0  0  0  0  0  0  0  0  0  0  0
   47.9720   29.8610   49.4067 H   0  0  0  0  0  0  0  0  0  0  0  0
   49.7629   29.7218   49.4067 H   0  0  0  0  0  0  0  0  0  0  0  0
  1 14  1  0
  2  1  1  0
  3  2  2  0
  4  3  1  0
  5  4  2  0
  5  6  1  0
  6  7  2  0
  7  2  1  0
  8  6  1  0
  8  9  2  0
 10  9  1  0
 11 10  2  0
 12 13  2  0
 12 11  1  0
 13  8  1  0
 14 17  1  0
 15 20  2  0
 16 17  2  0
 16 15  1  0
 17 18  1  0
 18 19  2  0
 19 21  1  0
 20 19  1  0
 21 25  1  0
 21 22  2  0
 22 23  1  0
 24 26  1  0
 24 23  1  0
 25 24  2  0
 26 27  1  0
  1 28  1  0
  1 29  1  0
  3 30  1  0
  4 31  1  0
  9 32  1  0
 10 33  1  0
 12 34  1  0
 14 35  1  0
 14 36  1  0
 15 37  1  0
 16 38  1  0
 22 39  1  0
 26 40  1  0
 26 41  1  0
 27 42  1  0
 27 43  1  0
 27 44  1  0
M  ISO  8  28   8  29   8  30  14  31  14  32  14  33  14  34  14  35   8
M  ISO  8  36   8  37  14  38  14  39  14  40   8  41   8  42   8  43   8
M  ISO  1  44   8
M  END
>  <minimizedAffinity>  (1) 
-5.96043539

>  <minimizedRMSD>  (1) 
0.0996362641

$$$$
