
     RDKit          3D

 34 36  0  0  0  0  0  0  0  0999 V2000
   44.8890   34.8340   44.2140 C   0  0  0  0  0  0  0  0  0  0  0  0
   44.7440   34.0090   43.1100 C   0  0  0  0  0  0  0  0  0  0  0  0
   45.0660   32.6010   43.1730 C   0  0  0  0  0  0  0  0  0  0  0  0
   45.5200   32.1300   44.3660 N   0  0  0  0  0  0  0  0  0  0  0  0
   45.6630   32.9600   45.4590 C   0  0  0  0  0  0  0  0  0  0  0  0
   45.3520   34.3040   45.3930 N   0  0  0  0  0  0  0  0  0  0  0  0
   44.5390   36.1980   44.1410 N   0  0  0  0  0  0  0  0  0  0  0  0
   44.3580   34.6370   41.8500 C   0  0  0  0  0  0  0  0  0  0  0  0
   42.7740   34.6110   41.6920 C   0  0  0  0  0  0  0  0  0  0  0  0
   42.7540   35.2960   40.2930 C   0  0  0  0  0  0  0  0  0  0  0  0
   43.8090   34.5250   39.5690 C   0  0  0  0  0  0  0  0  0  0  0  0
   44.8330   34.1160   40.6350 C   0  0  0  0  0  0  0  0  0  0  0  0
   46.1510   32.4460   46.7340 C   0  0  0  0  0  0  0  0  0  0  0  0
   45.3470   32.5960   47.8480 C   0  0  0  0  0  0  0  0  0  0  0  0
   45.8390   32.0940   49.0570 C   0  0  0  0  0  0  0  0  0  0  0  0
   47.0750   31.4820   49.1020 C   0  0  0  0  0  0  0  0  0  0  0  0
   47.8490   31.3510   47.9640 C   0  0  0  0  0  0  0  0  0  0  0  0
   47.3470   31.8390   46.8390 N   0  0  0  0  0  0  0  0  0  0  0  0
   44.9497   31.9428   42.2993 H   0  0  0  0  0  0  0  0  0  0  0  0
   44.1918   36.5939   43.2558 H   0  0  0  0  0  0  0  0  0  0  0  0
   44.6305   36.7984   44.9729 H   0  0  0  0  0  0  0  0  0  0  0  0
   44.8311   35.6226   41.9718 H   0  0  0  0  0  0  0  0  0  0  0  0
   42.3631   33.5908   41.6741 H   0  0  0  0  0  0  0  0  0  0  0  0
   42.1769   35.0735   42.4917 H   0  0  0  0  0  0  0  0  0  0  0  0
   41.7730   35.1887   39.8070 H   0  0  0  0  0  0  0  0  0  0  0  0
   42.9319   36.3811   40.3223 H   0  0  0  0  0  0  0  0  0  0  0  0
   43.3738   33.6335   39.0938 H   0  0  0  0  0  0  0  0  0  0  0  0
   44.2724   35.1238   38.7710 H   0  0  0  0  0  0  0  0  0  0  0  0
   44.9075   33.0200   40.6925 H   0  0  0  0  0  0  0  0  0  0  0  0
   45.8362   34.4997   40.3975 H   0  0  0  0  0  0  0  0  0  0  0  0
   44.3650   33.0878   47.7865 H   0  0  0  0  0  0  0  0  0  0  0  0
   45.2392   32.1872   49.9744 H   0  0  0  0  0  0  0  0  0  0  0  0
   47.4507   31.0918   50.0594 H   0  0  0  0  0  0  0  0  0  0  0  0
   48.8352   30.8645   47.9912 H   0  0  0  0  0  0  0  0  0  0  0  0
  1  6  2  0
  2  3  2  0
  2  1  1  0
  3  4  1  0
  4  5  2  0
  5 13  1  0
  6  5  1  0
  7  1  1  0
  8  2  1  0
  9  8  1  0
 10  9  1  0
 11 10  1  0
 11 12  1  0
 12  8  1  0
 13 18  1  0
 13 14  2  0
 14 15  1  0
 15 16  2  0
 17 16  1  0
 18 17  2  0
  3 19  1  0
  7 20  1  0
  7 21  1  0
  8 22  1  0
  9 23  1  0
  9 24  1  0
 10 25  1  0
 10 26  1  0
 11 27  1  0
 11 28  1  0
 12 29  1  0
 12 30  1  0
 14 31  1  0
 15 32  1  0
 16 33  1  0
 17 34  1  0
M  ISO  8  19  14  22  13  23  13  24  13  25  13  26  13  27  13  28  13
M  ISO  6  29  13  30  13  31  14  32  14  33  14  34  14
M  END
>  <minimizedAffinity>  (1) 
-5.04763365

>  <minimizedRMSD>  (1) 
0.869055152

$$$$
