
     RDKit          3D

 39 42  0  0  0  0  0  0  0  0999 V2000
   47.5610   34.7560   41.6650 C   0  0  0  0  0  0  0  0  0  0  0  0
   47.2890   34.2710   40.2810 C   0  0  0  0  0  0  0  0  0  0  0  0
   48.2280   34.3480   39.2680 C   0  0  0  0  0  0  0  0  0  0  0  0
   48.0810   33.9370   37.9810 C   0  0  0  0  0  0  0  0  0  0  0  0
   46.8670   33.3970   37.6930 N   0  0  0  0  0  0  0  0  0  0  0  0
   45.9150   33.3030   38.6600 C   0  0  0  0  0  0  0  0  0  0  0  0
   46.0840   33.7210   39.9410 N   0  0  0  0  0  0  0  0  0  0  0  0
   44.6430   32.7150   38.2810 C   0  0  0  0  0  0  0  0  0  0  0  0
   43.4430   33.2870   38.7060 C   0  0  0  0  0  0  0  0  0  0  0  0
   42.2480   32.7260   38.3460 C   0  0  0  0  0  0  0  0  0  0  0  0
   42.2050   31.6320   37.5890 N   0  0  0  0  0  0  0  0  0  0  0  0
   43.3700   31.0970   37.1900 C   0  0  0  0  0  0  0  0  0  0  0  0
   44.5950   31.6090   37.5160 N   0  0  0  0  0  0  0  0  0  0  0  0
   47.2380   33.6590   42.6090 C   0  0  0  0  0  0  0  0  0  0  0  0
   44.7220   35.3940   44.7860 C   0  0  0  0  0  0  0  0  0  0  0  0
   45.5350   35.0380   43.6950 C   0  0  0  0  0  0  0  0  0  0  0  0
   46.4060   33.9990   43.7560 C   0  0  0  0  0  0  0  0  0  0  0  0
   46.4840   33.2950   44.8980 N   0  0  0  0  0  0  0  0  0  0  0  0
   45.6770   33.6550   45.9660 C   0  0  0  0  0  0  0  0  0  0  0  0
   44.8330   34.6620   45.9080 N   0  0  0  0  0  0  0  0  0  0  0  0
   45.9050   32.7560   47.1400 C   0  0  0  0  0  0  0  0  0  0  0  0
   44.9310   32.0520   47.9460 C   0  0  0  0  0  0  0  0  0  0  0  0
   46.0530   31.2400   49.1130 S   0  0  0  0  0  0  0  0  0  0  0  0
   47.6130   31.9770   48.3290 C   0  0  0  0  0  0  0  0  0  0  0  0
   47.1940   32.7250   47.3180 N   0  0  0  0  0  0  0  0  0  0  0  0
   48.8020   31.5950   48.9500 O   0  0  0  0  0  0  0  0  0  0  0  0
   46.9333   35.6326   41.8831 H   0  0  0  0  0  0  0  0  0  0  0  0
   48.6168   35.0475   41.7662 H   0  0  0  0  0  0  0  0  0  0  0  0
   49.1997   34.7902   39.5332 H   0  0  0  0  0  0  0  0  0  0  0  0
   48.8807   34.0336   37.2319 H   0  0  0  0  0  0  0  0  0  0  0  0
   43.4579   34.1913   39.3321 H   0  0  0  0  0  0  0  0  0  0  0  0
   41.3089   33.1860   38.6873 H   0  0  0  0  0  0  0  0  0  0  0  0
   43.3369   30.1933   36.5638 H   0  0  0  0  0  0  0  0  0  0  0  0
   46.7162   32.8748   42.0409 H   0  0  0  0  0  0  0  0  0  0  0  0
   48.2049   33.3550   43.0365 H   0  0  0  0  0  0  0  0  0  0  0  0
   44.0215   36.2398   44.7235 H   0  0  0  0  0  0  0  0  0  0  0  0
   45.4627   35.6193   42.7640 H   0  0  0  0  0  0  0  0  0  0  0  0
   43.8340   32.0196   47.8719 H   0  0  0  0  0  0  0  0  0  0  0  0
   49.6686   31.9311   48.6092 H   0  0  0  0  0  0  0  0  0  0  0  0
  1 14  1  0
  2  1  1  0
  3  2  2  0
  4  3  1  0
  5  4  2  0
  5  6  1  0
  6  7  2  0
  7  2  1  0
  8  6  1  0
  8  9  2  0
 10  9  1  0
 11 10  2  0
 12 13  2  0
 12 11  1  0
 13  8  1  0
 14 17  1  0
 15 20  2  0
 16 17  2  0
 16 15  1  0
 17 18  1  0
 18 19  2  0
 19 21  1  0
 20 19  1  0
 21 25  1  0
 21 22  2  0
 22 23  1  0
 24 26  1  0
 24 23  1  0
 25 24  2  0
  1 27  1  0
  1 28  1  0
  3 29  1  0
  4 30  1  0
  9 31  1  0
 10 32  1  0
 12 33  1  0
 14 34  1  0
 14 35  1  0
 15 36  1  0
 16 37  1  0
 22 38  1  0
 26 39  1  0
M  ISO  8  27   8  28   8  29  14  30  14  31  14  32  14  33  14  34   8
M  ISO  5  35   8  36  14  37  14  38  14  39   3
M  END
>  <minimizedAffinity>  (1) 
-5.93159199

>  <minimizedRMSD>  (1) 
0.0636591911

$$$$
