
     RDKit          3D

 47 49  0  0  0  0  0  0  0  0999 V2000
   44.5180   35.2190   42.9650 C   0  0  0  0  0  0  0  0  0  0  0  0
   43.6950   34.5390   42.0990 C   0  0  0  0  0  0  0  0  0  0  0  0
   43.6980   33.1120   42.1110 C   0  0  0  0  0  0  0  0  0  0  0  0
   44.5300   32.4750   42.9890 N   0  0  0  0  0  0  0  0  0  0  0  0
   45.3270   33.1840   43.8230 C   0  0  0  0  0  0  0  0  0  0  0  0
   45.3340   34.5760   43.8250 N   0  0  0  0  0  0  0  0  0  0  0  0
   44.4790   36.6540   42.9510 N   0  0  0  0  0  0  0  0  0  0  0  0
   42.8750   35.2660   41.1520 C   0  0  0  0  0  0  0  0  0  0  0  0
   41.3600   35.2800   41.5710 C   0  0  0  0  0  0  0  0  0  0  0  0
   40.8500   36.0410   40.3190 C   0  0  0  0  0  0  0  0  0  0  0  0
   41.5420   35.3210   39.2180 C   0  0  0  0  0  0  0  0  0  0  0  0
   42.8830   34.8610   39.7910 C   0  0  0  0  0  0  0  0  0  0  0  0
   46.2500   32.4990   44.7690 C   0  0  0  0  0  0  0  0  0  0  0  0
   46.4020   33.2400   46.0690 C   0  0  0  0  0  0  0  0  0  0  0  0
   46.6230   32.2570   47.2010 C   0  0  0  0  0  0  0  0  0  0  0  0
   45.5550   32.5040   48.2280 C   0  0  0  0  0  0  0  0  0  0  0  0
   45.4860   31.3910   49.2580 C   0  0  0  0  0  0  0  0  0  0  0  0
   45.0940   30.1480   48.4850 C   0  0  0  0  0  0  0  0  0  0  0  0
   46.2690   29.7970   47.6240 C   0  0  0  0  0  0  0  0  0  0  0  0
   46.6530   30.8720   46.6560 C   0  0  0  0  0  0  0  0  0  0  0  0
   43.0484   32.5400   41.4321 H   0  0  0  0  0  0  0  0  0  0  0  0
   43.8561   37.1459   42.2945 H   0  0  0  0  0  0  0  0  0  0  0  0
   45.0739   37.1917   43.5974 H   0  0  0  0  0  0  0  0  0  0  0  0
   43.3694   36.2475   41.2000 H   0  0  0  0  0  0  0  0  0  0  0  0
   40.9338   34.2695   41.6565 H   0  0  0  0  0  0  0  0  0  0  0  0
   41.1158   35.7110   42.5532 H   0  0  0  0  0  0  0  0  0  0  0  0
   39.7570   35.9642   40.2221 H   0  0  0  0  0  0  0  0  0  0  0  0
   41.0562   37.1213   40.3415 H   0  0  0  0  0  0  0  0  0  0  0  0
   41.7027   35.9942   38.3630 H   0  0  0  0  0  0  0  0  0  0  0  0
   40.9458   34.4702   38.8564 H   0  0  0  0  0  0  0  0  0  0  0  0
   42.9779   33.7677   39.7162 H   0  0  0  0  0  0  0  0  0  0  0  0
   43.7312   35.2955   39.2417 H   0  0  0  0  0  0  0  0  0  0  0  0
   45.8554   31.4942   44.9805 H   0  0  0  0  0  0  0  0  0  0  0  0
   47.2409   32.4545   44.2935 H   0  0  0  0  0  0  0  0  0  0  0  0
   47.2644   33.9196   46.0026 H   0  0  0  0  0  0  0  0  0  0  0  0
   45.4869   33.8180   46.2652 H   0  0  0  0  0  0  0  0  0  0  0  0
   47.5941   32.3931   47.6994 H   0  0  0  0  0  0  0  0  0  0  0  0
   45.7707   33.4516   48.7434 H   0  0  0  0  0  0  0  0  0  0  0  0
   44.5869   32.5447   47.7074 H   0  0  0  0  0  0  0  0  0  0  0  0
   46.4651   31.2515   49.7395 H   0  0  0  0  0  0  0  0  0  0  0  0
   44.7655   31.6187   50.0573 H   0  0  0  0  0  0  0  0  0  0  0  0
   44.8706   29.3236   49.1782 H   0  0  0  0  0  0  0  0  0  0  0  0
   44.1933   30.3233   47.8783 H   0  0  0  0  0  0  0  0  0  0  0  0
   47.1302   29.5960   48.2782 H   0  0  0  0  0  0  0  0  0  0  0  0
   45.9779   28.9193   47.0282 H   0  0  0  0  0  0  0  0  0  0  0  0
   45.9586   30.8266   45.8041 H   0  0  0  0  0  0  0  0  0  0  0  0
   47.6998   30.6751   46.3811 H   0  0  0  0  0  0  0  0  0  0  0  0
  1  6  2  0
  2  3  2  0
  2  1  1  0
  3  4  1  0
  4  5  2  0
  5  6  1  0
  5 13  1  0
  7  1  1  0
  8  9  1  0
  8  2  1  0
 10  9  1  0
 11 12  1  0
 11 10  1  0
 12  8  1  0
 13 14  1  0
 14 15  1  0
 15 16  1  0
 16 17  1  0
 18 17  1  0
 19 18  1  0
 20 15  1  0
 20 19  1  0
  3 21  1  0
  7 22  1  0
  7 23  1  0
  8 24  1  0
  9 25  1  0
  9 26  1  0
 10 27  1  0
 10 28  1  0
 11 29  1  0
 11 30  1  0
 12 31  1  0
 12 32  1  0
 13 33  1  0
 13 34  1  0
 14 35  1  0
 14 36  1  0
 15 37  1  0
 16 38  1  0
 16 39  1  0
 17 40  1  0
 17 41  1  0
 18 42  1  0
 18 43  1  0
 19 44  1  0
 19 45  1  0
 20 46  1  0
 20 47  1  0
M  ISO  8  21  14  24  13  25  13  26  13  27  13  28  13  29  13  30  13
M  ISO  8  31  13  32  13  33   8  34   8  35   8  36   8  37  13  38  13
M  ISO  8  39  13  40  13  41  13  42  13  43  13  44  13  45  13  46  13
M  ISO  1  47  13
M  END
>  <minimizedAffinity>  (1) 
-5.9028573

>  <minimizedRMSD>  (1) 
1.13074303

$$$$
