
     RDKit          3D

 47 50  0  0  0  0  0  0  0  0999 V2000
   44.6990   35.3970   42.9620 C   0  0  0  0  0  0  0  0  0  0  0  0
   43.8120   34.7000   42.1780 C   0  0  0  0  0  0  0  0  0  0  0  0
   43.8700   33.2690   42.1470 C   0  0  0  0  0  0  0  0  0  0  0  0
   44.8200   32.6510   42.9110 N   0  0  0  0  0  0  0  0  0  0  0  0
   45.6790   33.3720   43.6700 C   0  0  0  0  0  0  0  0  0  0  0  0
   45.6320   34.7600   43.7110 N   0  0  0  0  0  0  0  0  0  0  0  0
   44.6110   36.8260   42.9880 N   0  0  0  0  0  0  0  0  0  0  0  0
   42.8620   35.4150   41.3510 C   0  0  0  0  0  0  0  0  0  0  0  0
   41.3960   35.3050   41.9080 C   0  0  0  0  0  0  0  0  0  0  0  0
   40.7190   36.1030   40.7680 C   0  0  0  0  0  0  0  0  0  0  0  0
   41.3560   35.5060   39.5480 C   0  0  0  0  0  0  0  0  0  0  0  0
   42.7540   35.0570   39.9810 C   0  0  0  0  0  0  0  0  0  0  0  0
   46.7450   32.7450   44.5020 C   0  0  0  0  0  0  0  0  0  0  0  0
   46.7050   33.1920   45.9370 C   0  0  0  0  0  0  0  0  0  0  0  0
   46.1950   32.1710   46.8500 C   0  0  0  0  0  0  0  0  0  0  0  0
   45.2230   32.4490   47.8020 C   0  0  0  0  0  0  0  0  0  0  0  0
   44.7390   31.4680   48.6340 C   0  0  0  0  0  0  0  0  0  0  0  0
   45.1860   30.1610   48.5750 C   0  0  0  0  0  0  0  0  0  0  0  0
   46.1480   29.8660   47.6400 C   0  0  0  0  0  0  0  0  0  0  0  0
   46.6090   28.5590   47.5760 C   0  0  0  0  0  0  0  0  0  0  0  0
   47.5810   28.2050   46.6640 C   0  0  0  0  0  0  0  0  0  0  0  0
   48.0970   29.1750   45.8030 C   0  0  0  0  0  0  0  0  0  0  0  0
   47.5950   30.4360   45.9250 C   0  0  0  0  0  0  0  0  0  0  0  0
   46.6290   30.8680   46.8040 C   0  0  0  0  0  0  0  0  0  0  0  0
   43.1721   32.6861   41.5280 H   0  0  0  0  0  0  0  0  0  0  0  0
   43.9015   37.3087   42.4183 H   0  0  0  0  0  0  0  0  0  0  0  0
   45.2572   37.3711   43.5764 H   0  0  0  0  0  0  0  0  0  0  0  0
   43.2980   36.4237   41.3997 H   0  0  0  0  0  0  0  0  0  0  0  0
   41.0417   34.2652   41.9653 H   0  0  0  0  0  0  0  0  0  0  0  0
   41.2251   35.6605   42.9348 H   0  0  0  0  0  0  0  0  0  0  0  0
   39.6297   35.9501   40.7654 H   0  0  0  0  0  0  0  0  0  0  0  0
   40.8516   37.1919   40.8496 H   0  0  0  0  0  0  0  0  0  0  0  0
   41.4263   36.2567   38.7470 H   0  0  0  0  0  0  0  0  0  0  0  0
   40.7657   34.6651   39.1549 H   0  0  0  0  0  0  0  0  0  0  0  0
   42.8632   33.9693   39.8584 H   0  0  0  0  0  0  0  0  0  0  0  0
   43.5399   35.5293   39.3734 H   0  0  0  0  0  0  0  0  0  0  0  0
   46.6179   31.6528   44.4708 H   0  0  0  0  0  0  0  0  0  0  0  0
   47.7146   33.0560   44.0860 H   0  0  0  0  0  0  0  0  0  0  0  0
   47.7260   33.4586   46.2476 H   0  0  0  0  0  0  0  0  0  0  0  0
   46.0166   34.0482   45.9909 H   0  0  0  0  0  0  0  0  0  0  0  0
   44.8331   33.4736   47.8919 H   0  0  0  0  0  0  0  0  0  0  0  0
   43.9685   31.7321   49.3733 H   0  0  0  0  0  0  0  0  0  0  0  0
   44.7874   29.3888   49.2494 H   0  0  0  0  0  0  0  0  0  0  0  0
   46.1965   27.8001   48.2572 H   0  0  0  0  0  0  0  0  0  0  0  0
   47.9461   27.1685   46.6155 H   0  0  0  0  0  0  0  0  0  0  0  0
   48.8722   28.9329   45.0611 H   0  0  0  0  0  0  0  0  0  0  0  0
   48.0089   31.1940   45.2437 H   0  0  0  0  0  0  0  0  0  0  0  0
  1  7  1  0
  1  6  2  0
  2  1  1  0
  3  2  2  0
  3  4  1  0
  4  5  2  0
  5  6  1  0
  5 13  1  0
  8  9  1  0
  8  2  1  0
 10  9  1  0
 11 12  1  0
 11 10  1  0
 12  8  1  0
 13 14  1  0
 14 15  1  0
 15 16  2  0
 16 17  1  0
 18 17  2  0
 19 18  1  0
 20 19  2  0
 21 20  1  0
 22 23  1  0
 22 21  2  0
 23 24  2  0
 24 15  1  0
 24 19  1  0
  3 25  1  0
  7 26  1  0
  7 27  1  0
  8 28  1  0
  9 29  1  0
  9 30  1  0
 10 31  1  0
 10 32  1  0
 11 33  1  0
 11 34  1  0
 12 35  1  0
 12 36  1  0
 13 37  1  0
 13 38  1  0
 14 39  1  0
 14 40  1  0
 16 41  1  0
 17 42  1  0
 18 43  1  0
 20 44  1  0
 21 45  1  0
 22 46  1  0
 23 47  1  0
M  ISO  8  25  14  28  13  29  13  30  13  31  13  32  13  33  13  34  13
M  ISO  8  35  13  36  13  37   8  38   8  39   8  40   8  41  14  42  14
M  ISO  5  43  14  44  14  45  14  46  14  47  14
M  END
>  <minimizedAffinity>  (1) 
-6.26399803

>  <minimizedRMSD>  (1) 
1.52912152

$$$$
