
     RDKit          3D

 39 41  0  0  0  0  0  0  0  0999 V2000
   44.7290   35.3960   43.1130 C   0  0  0  0  0  0  0  0  0  0  0  0
   43.9100   34.6740   42.2800 C   0  0  0  0  0  0  0  0  0  0  0  0
   43.9690   33.2380   42.3170 C   0  0  0  0  0  0  0  0  0  0  0  0
   44.8480   32.6550   43.1850 N   0  0  0  0  0  0  0  0  0  0  0  0
   45.6370   33.4100   43.9860 C   0  0  0  0  0  0  0  0  0  0  0  0
   45.5880   34.8000   43.9620 N   0  0  0  0  0  0  0  0  0  0  0  0
   44.6340   36.8290   43.0640 N   0  0  0  0  0  0  0  0  0  0  0  0
   43.0310   35.3450   41.3410 C   0  0  0  0  0  0  0  0  0  0  0  0
   41.5290   35.2910   41.7960 C   0  0  0  0  0  0  0  0  0  0  0  0
   40.9570   36.0230   40.5530 C   0  0  0  0  0  0  0  0  0  0  0  0
   41.6490   35.3160   39.4420 C   0  0  0  0  0  0  0  0  0  0  0  0
   43.0120   34.9080   39.9960 C   0  0  0  0  0  0  0  0  0  0  0  0
   46.6090   32.8000   44.9300 C   0  0  0  0  0  0  0  0  0  0  0  0
   46.3800   33.2140   46.3570 C   0  0  0  0  0  0  0  0  0  0  0  0
   45.9170   32.0390   47.1420 C   0  0  0  0  0  0  0  0  0  0  0  0
   45.6510   30.7400   46.7590 C   0  0  0  0  0  0  0  0  0  0  0  0
   45.2280   29.8430   47.7110 C   0  0  0  0  0  0  0  0  0  0  0  0
   45.0780   30.2260   48.9920 N   0  0  0  0  0  0  0  0  0  0  0  0
   45.3320   31.4880   49.3830 C   0  0  0  0  0  0  0  0  0  0  0  0
   45.7500   32.3850   48.4540 N   0  0  0  0  0  0  0  0  0  0  0  0
   43.3259   32.6274   41.6662 H   0  0  0  0  0  0  0  0  0  0  0  0
   43.9753   37.2795   42.4128 H   0  0  0  0  0  0  0  0  0  0  0  0
   45.2246   37.4057   43.6801 H   0  0  0  0  0  0  0  0  0  0  0  0
   43.4838   36.3474   41.3584 H   0  0  0  0  0  0  0  0  0  0  0  0
   41.1515   34.2625   41.8947 H   0  0  0  0  0  0  0  0  0  0  0  0
   41.2879   35.7136   42.7825 H   0  0  0  0  0  0  0  0  0  0  0  0
   39.8655   35.9050   40.4852 H   0  0  0  0  0  0  0  0  0  0  0  0
   41.1206   37.1107   40.5607 H   0  0  0  0  0  0  0  0  0  0  0  0
   41.7712   35.9862   38.5783 H   0  0  0  0  0  0  0  0  0  0  0  0
   41.0744   34.4442   39.0958 H   0  0  0  0  0  0  0  0  0  0  0  0
   43.1335   33.8158   39.9469 H   0  0  0  0  0  0  0  0  0  0  0  0
   43.8334   35.3532   39.4153 H   0  0  0  0  0  0  0  0  0  0  0  0
   46.5220   31.7054   44.8642 H   0  0  0  0  0  0  0  0  0  0  0  0
   47.6114   33.1500   44.6424 H   0  0  0  0  0  0  0  0  0  0  0  0
   47.3195   33.5942   46.7845 H   0  0  0  0  0  0  0  0  0  0  0  0
   45.6163   34.0049   46.3929 H   0  0  0  0  0  0  0  0  0  0  0  0
   45.7752   30.4282   45.7114 H   0  0  0  0  0  0  0  0  0  0  0  0
   45.0104   28.8039   47.4231 H   0  0  0  0  0  0  0  0  0  0  0  0
   45.2036   31.7867   50.4338 H   0  0  0  0  0  0  0  0  0  0  0  0
  1  6  2  0
  2  3  2  0
  2  1  1  0
  3  4  1  0
  4  5  2  0
  5 13  1  0
  6  5  1  0
  7  1  1  0
  8  9  1  0
  8  2  1  0
 10  9  1  0
 11 12  1  0
 11 10  1  0
 12  8  1  0
 13 14  1  0
 14 15  1  0
 15 20  1  0
 16 15  2  0
 16 17  1  0
 17 18  2  0
 18 19  1  0
 20 19  2  0
  3 21  1  0
  7 22  1  0
  7 23  1  0
  8 24  1  0
  9 25  1  0
  9 26  1  0
 10 27  1  0
 10 28  1  0
 11 29  1  0
 11 30  1  0
 12 31  1  0
 12 32  1  0
 13 33  1  0
 13 34  1  0
 14 35  1  0
 14 36  1  0
 16 37  1  0
 17 38  1  0
 19 39  1  0
M  ISO  8  21  14  24  13  25  13  26  13  27  13  28  13  29  13  30  13
M  ISO  8  31  13  32  13  33   8  34   8  35   8  36   8  37  14  38  14
M  ISO  1  39  14
M  END
>  <minimizedAffinity>  (1) 
-5.71112537

>  <minimizedRMSD>  (1) 
1.77949762

$$$$
