
     RDKit          3D

 46 48  0  0  0  0  0  0  0  0999 V2000
   44.7990   35.4510   43.1800 C   0  0  0  0  0  0  0  0  0  0  0  0
   44.0140   34.6740   42.3420 C   0  0  0  0  0  0  0  0  0  0  0  0
   44.1170   33.2490   42.3990 C   0  0  0  0  0  0  0  0  0  0  0  0
   44.9930   32.7010   43.2780 N   0  0  0  0  0  0  0  0  0  0  0  0
   45.7570   33.5020   44.0920 C   0  0  0  0  0  0  0  0  0  0  0  0
   45.6650   34.8730   44.0480 N   0  0  0  0  0  0  0  0  0  0  0  0
   44.6650   36.8650   43.1170 N   0  0  0  0  0  0  0  0  0  0  0  0
   43.1310   35.3140   41.3900 C   0  0  0  0  0  0  0  0  0  0  0  0
   41.6250   35.2400   41.8400 C   0  0  0  0  0  0  0  0  0  0  0  0
   41.0450   35.9360   40.5810 C   0  0  0  0  0  0  0  0  0  0  0  0
   41.7550   35.2390   39.4800 C   0  0  0  0  0  0  0  0  0  0  0  0
   43.1280   34.8560   40.0480 C   0  0  0  0  0  0  0  0  0  0  0  0
   46.7260   32.9150   45.0570 C   0  0  0  0  0  0  0  0  0  0  0  0
   46.1390   31.8510   45.9030 C   0  0  0  0  0  0  0  0  0  0  0  0
   46.9760   31.2910   46.9050 N   0  0  0  0  0  0  0  0  0  0  0  0
   46.5210   30.0470   47.4610 C   0  0  0  0  0  0  0  0  0  0  0  0
   45.1880   30.1830   48.1680 C   0  0  0  0  0  0  0  0  0  0  0  0
   45.3900   31.1260   49.3370 C   0  0  0  0  0  0  0  0  0  0  0  0
   45.8240   32.4450   48.7520 C   0  0  0  0  0  0  0  0  0  0  0  0
   47.0930   32.2420   47.9940 C   0  0  0  0  0  0  0  0  0  0  0  0
   43.5012   32.6128   41.7463 H   0  0  0  0  0  0  0  0  0  0  0  0
   44.0029   37.2905   42.4525 H   0  0  0  0  0  0  0  0  0  0  0  0
   45.2300   37.4639   43.7358 H   0  0  0  0  0  0  0  0  0  0  0  0
   43.5655   36.3245   41.3935 H   0  0  0  0  0  0  0  0  0  0  0  0
   41.2668   34.2066   41.9572 H   0  0  0  0  0  0  0  0  0  0  0  0
   41.3712   35.6774   42.8169 H   0  0  0  0  0  0  0  0  0  0  0  0
   39.9572   35.7888   40.5098 H   0  0  0  0  0  0  0  0  0  0  0  0
   41.1865   37.0268   40.5758 H   0  0  0  0  0  0  0  0  0  0  0  0
   41.8711   35.9079   38.6145 H   0  0  0  0  0  0  0  0  0  0  0  0
   41.1985   34.3558   39.1331 H   0  0  0  0  0  0  0  0  0  0  0  0
   43.2657   33.7651   40.0150 H   0  0  0  0  0  0  0  0  0  0  0  0
   43.9468   35.3031   39.4652 H   0  0  0  0  0  0  0  0  0  0  0  0
   47.5665   32.4870   44.4910 H   0  0  0  0  0  0  0  0  0  0  0  0
   47.0478   33.7246   45.7286 H   0  0  0  0  0  0  0  0  0  0  0  0
   45.2571   32.2748   46.4055 H   0  0  0  0  0  0  0  0  0  0  0  0
   45.9242   31.0219   45.2128 H   0  0  0  0  0  0  0  0  0  0  0  0
   46.4162   29.3140   46.6476 H   0  0  0  0  0  0  0  0  0  0  0  0
   47.2631   29.7209   48.2046 H   0  0  0  0  0  0  0  0  0  0  0  0
   44.4366   30.5947   47.4781 H   0  0  0  0  0  0  0  0  0  0  0  0
   44.8311   29.2026   48.5166 H   0  0  0  0  0  0  0  0  0  0  0  0
   44.4492   31.2483   49.8937 H   0  0  0  0  0  0  0  0  0  0  0  0
   46.1418   30.7351   50.0384 H   0  0  0  0  0  0  0  0  0  0  0  0
   45.0448   32.8226   48.0736 H   0  0  0  0  0  0  0  0  0  0  0  0
   45.9837   33.1763   49.5581 H   0  0  0  0  0  0  0  0  0  0  0  0
   47.8603   31.8772   48.6927 H   0  0  0  0  0  0  0  0  0  0  0  0
   47.3591   33.2113   47.5471 H   0  0  0  0  0  0  0  0  0  0  0  0
  1  6  2  0
  2  3  2  0
  2  1  1  0
  3  4  1  0
  4  5  2  0
  5 13  1  0
  6  5  1  0
  7  1  1  0
  8  9  1  0
  8  2  1  0
 10  9  1  0
 11 12  1  0
 11 10  1  0
 12  8  1  0
 13 14  1  0
 14 15  1  0
 15 16  1  0
 15 20  1  0
 16 17  1  0
 17 18  1  0
 19 18  1  0
 20 19  1  0
  3 21  1  0
  7 22  1  0
  7 23  1  0
  8 24  1  0
  9 25  1  0
  9 26  1  0
 10 27  1  0
 10 28  1  0
 11 29  1  0
 11 30  1  0
 12 31  1  0
 12 32  1  0
 13 33  1  0
 13 34  1  0
 14 35  1  0
 14 36  1  0
 16 37  1  0
 16 38  1  0
 17 39  1  0
 17 40  1  0
 18 41  1  0
 18 42  1  0
 19 43  1  0
 19 44  1  0
 20 45  1  0
 20 46  1  0
M  ISO  8  21  14  24  13  25  13  26  13  27  13  28  13  29  13  30  13
M  ISO  8  31  13  32  13  33   8  34   8  35   8  36   8  37  13  38  13
M  ISO  8  39  13  40  13  41  13  42  13  43  13  44  13  45  13  46  13
M  END
>  <minimizedAffinity>  (1) 
-5.77898979

>  <minimizedRMSD>  (1) 
2.15563941

$$$$
