
     RDKit          3D

 44 46  0  0  0  0  0  0  0  0999 V2000
   44.8140   35.5620   42.8720 C   0  0  0  0  0  0  0  0  0  0  0  0
   43.9300   34.8270   42.1360 C   0  0  0  0  0  0  0  0  0  0  0  0
   44.0360   33.4090   42.1670 C   0  0  0  0  0  0  0  0  0  0  0  0
   45.0180   32.8510   42.9260 N   0  0  0  0  0  0  0  0  0  0  0  0
   45.8660   33.6210   43.6320 C   0  0  0  0  0  0  0  0  0  0  0  0
   45.7810   35.0010   43.6200 N   0  0  0  0  0  0  0  0  0  0  0  0
   44.6740   37.0000   42.8340 N   0  0  0  0  0  0  0  0  0  0  0  0
   42.9170   35.4800   41.3190 C   0  0  0  0  0  0  0  0  0  0  0  0
   41.4710   35.3230   41.9370 C   0  0  0  0  0  0  0  0  0  0  0  0
   40.7180   36.0310   40.7910 C   0  0  0  0  0  0  0  0  0  0  0  0
   41.3470   35.4320   39.5800 C   0  0  0  0  0  0  0  0  0  0  0  0
   42.7700   35.0650   39.9770 C   0  0  0  0  0  0  0  0  0  0  0  0
   46.9420   33.0130   44.4560 C   0  0  0  0  0  0  0  0  0  0  0  0
   46.5630   32.7940   45.8760 C   0  0  0  0  0  0  0  0  0  0  0  0
   46.9990   31.5550   46.4180 N   0  0  0  0  0  0  0  0  0  0  0  0
   47.6140   30.5080   45.8290 C   0  0  0  0  0  0  0  0  0  0  0  0
   47.8350   29.5270   46.7920 C   0  0  0  0  0  0  0  0  0  0  0  0
   47.3390   30.0250   47.9400 N   0  0  0  0  0  0  0  0  0  0  0  0
   46.8240   31.2640   47.7320 C   0  0  0  0  0  0  0  0  0  0  0  0
   46.1940   32.1050   48.7830 C   0  0  0  0  0  0  0  0  0  0  0  0
   45.1490   31.3400   49.5400 C   0  0  0  0  0  0  0  0  0  0  0  0
   43.3415   32.7791   41.5918 H   0  0  0  0  0  0  0  0  0  0  0  0
   43.9338   37.4304   42.2615 H   0  0  0  0  0  0  0  0  0  0  0  0
   45.3144   37.5944   43.3794 H   0  0  0  0  0  0  0  0  0  0  0  0
   43.3115   36.5068   41.3166 H   0  0  0  0  0  0  0  0  0  0  0  0
   41.1722   34.2708   42.0536 H   0  0  0  0  0  0  0  0  0  0  0  0
   41.3174   35.7167   42.9526 H   0  0  0  0  0  0  0  0  0  0  0  0
   39.6403   35.8141   40.8287 H   0  0  0  0  0  0  0  0  0  0  0  0
   40.7904   37.1280   40.8280 H   0  0  0  0  0  0  0  0  0  0  0  0
   41.3570   36.1604   38.7558 H   0  0  0  0  0  0  0  0  0  0  0  0
   40.7881   34.5505   39.2328 H   0  0  0  0  0  0  0  0  0  0  0  0
   42.9224   33.9788   39.8936 H   0  0  0  0  0  0  0  0  0  0  0  0
   43.5094   35.5484   39.3216 H   0  0  0  0  0  0  0  0  0  0  0  0
   47.2085   32.0412   44.0150 H   0  0  0  0  0  0  0  0  0  0  0  0
   47.7830   33.7221   44.4560 H   0  0  0  0  0  0  0  0  0  0  0  0
   47.0002   33.6048   46.4772 H   0  0  0  0  0  0  0  0  0  0  0  0
   45.4635   32.7797   45.9077 H   0  0  0  0  0  0  0  0  0  0  0  0
   47.8935   30.4410   44.7672 H   0  0  0  0  0  0  0  0  0  0  0  0
   48.3152   28.5483   46.6452 H   0  0  0  0  0  0  0  0  0  0  0  0
   46.9705   32.4419   49.4855 H   0  0  0  0  0  0  0  0  0  0  0  0
   45.7102   32.9645   48.2960 H   0  0  0  0  0  0  0  0  0  0  0  0
   45.3159   31.4622   50.6204 H   0  0  0  0  0  0  0  0  0  0  0  0
   44.1519   31.7232   49.2774 H   0  0  0  0  0  0  0  0  0  0  0  0
   45.2130   30.2737   49.2774 H   0  0  0  0  0  0  0  0  0  0  0  0
  1  6  2  0
  2  3  2  0
  2  1  1  0
  3  4  1  0
  4  5  2  0
  5 13  1  0
  6  5  1  0
  7  1  1  0
  8  9  1  0
  8  2  1  0
 10  9  1  0
 11 12  1  0
 11 10  1  0
 12  8  1  0
 13 14  1  0
 14 15  1  0
 15 19  1  0
 16 15  1  0
 16 17  2  0
 17 18  1  0
 19 18  2  0
 19 20  1  0
 20 21  1  0
  3 22  1  0
  7 23  1  0
  7 24  1  0
  8 25  1  0
  9 26  1  0
  9 27  1  0
 10 28  1  0
 10 29  1  0
 11 30  1  0
 11 31  1  0
 12 32  1  0
 12 33  1  0
 13 34  1  0
 13 35  1  0
 14 36  1  0
 14 37  1  0
 16 38  1  0
 17 39  1  0
 20 40  1  0
 20 41  1  0
 21 42  1  0
 21 43  1  0
 21 44  1  0
M  ISO  8  22  14  25  13  26  13  27  13  28  13  29  13  30  13  31  13
M  ISO  8  32  13  33  13  34   8  35   8  36   8  37   8  38  14  39  14
M  ISO  5  40   8  41   8  42   8  43   8  44   8
M  END
>  <minimizedAffinity>  (1) 
-5.43798971

>  <minimizedRMSD>  (1) 
1.46176875

$$$$
