
     RDKit          3D

 55 58  0  0  0  0  0  0  0  0999 V2000
   44.7320   35.3840   42.9420 C   0  0  0  0  0  0  0  0  0  0  0  0
   43.8630   34.7270   42.1340 C   0  0  0  0  0  0  0  0  0  0  0  0
   43.9510   33.3190   42.0490 C   0  0  0  0  0  0  0  0  0  0  0  0
   44.9060   32.6750   42.7820 N   0  0  0  0  0  0  0  0  0  0  0  0
   45.7480   33.3690   43.5710 C   0  0  0  0  0  0  0  0  0  0  0  0
   45.6800   34.7560   43.6710 N   0  0  0  0  0  0  0  0  0  0  0  0
   44.6180   36.8190   43.0200 N   0  0  0  0  0  0  0  0  0  0  0  0
   42.8830   35.4340   41.3530 C   0  0  0  0  0  0  0  0  0  0  0  0
   41.4130   35.3060   41.9440 C   0  0  0  0  0  0  0  0  0  0  0  0
   40.7210   36.1160   40.8290 C   0  0  0  0  0  0  0  0  0  0  0  0
   41.3400   35.5270   39.5860 C   0  0  0  0  0  0  0  0  0  0  0  0
   42.7360   35.1200   39.9880 C   0  0  0  0  0  0  0  0  0  0  0  0
   46.7950   32.6830   44.3690 C   0  0  0  0  0  0  0  0  0  0  0  0
   46.3640   32.3660   45.7760 C   0  0  0  0  0  0  0  0  0  0  0  0
   45.8370   31.0280   45.9030 N   0  0  0  0  0  0  0  0  0  0  0  0
   45.4380   30.1340   45.0070 C   0  0  0  0  0  0  0  0  0  0  0  0
   45.0190   28.9900   45.6670 C   0  0  0  0  0  0  0  0  0  0  0  0
   45.1900   29.2580   46.9800 N   0  0  0  0  0  0  0  0  0  0  0  0
   45.6890   30.4980   47.1360 C   0  0  0  0  0  0  0  0  0  0  0  0
   46.0240   31.1490   48.7860 S   0  0  0  0  0  0  0  0  0  0  0  0
   47.7660   30.8500   49.0790 C   0  0  0  0  0  0  0  0  0  0  0  0
   48.6390   32.0770   48.9620 C   0  0  0  0  0  0  0  0  0  0  0  0
   49.9700   31.7500   49.5610 C   0  0  0  0  0  0  0  0  0  0  0  0
   50.5770   30.4630   49.1370 C   0  0  0  0  0  0  0  0  0  0  0  0
   49.6260   29.3320   48.8920 C   0  0  0  0  0  0  0  0  0  0  0  0
   48.3560   29.7860   48.1910 C   0  0  0  0  0  0  0  0  0  0  0  0
   43.2629   32.7525   41.4043 H   0  0  0  0  0  0  0  0  0  0  0  0
   43.8991   37.3092   42.4689 H   0  0  0  0  0  0  0  0  0  0  0  0
   45.2555   37.3540   43.6269 H   0  0  0  0  0  0  0  0  0  0  0  0
   43.3234   36.4396   41.4221 H   0  0  0  0  0  0  0  0  0  0  0  0
   41.0634   34.2642   41.9921 H   0  0  0  0  0  0  0  0  0  0  0  0
   41.2571   35.6423   42.9796 H   0  0  0  0  0  0  0  0  0  0  0  0
   39.6314   35.9659   40.8429 H   0  0  0  0  0  0  0  0  0  0  0  0
   40.8569   37.2037   40.9204 H   0  0  0  0  0  0  0  0  0  0  0  0
   41.3742   36.2760   38.7811 H   0  0  0  0  0  0  0  0  0  0  0  0
   40.7592   34.6744   39.2043 H   0  0  0  0  0  0  0  0  0  0  0  0
   42.8734   34.0397   39.8326 H   0  0  0  0  0  0  0  0  0  0  0  0
   43.4871   35.6480   39.3821 H   0  0  0  0  0  0  0  0  0  0  0  0
   47.0568   31.7414   43.8642 H   0  0  0  0  0  0  0  0  0  0  0  0
   47.6513   33.3699   44.4392 H   0  0  0  0  0  0  0  0  0  0  0  0
   47.2329   32.4680   46.4428 H   0  0  0  0  0  0  0  0  0  0  0  0
   45.5624   33.0688   46.0471 H   0  0  0  0  0  0  0  0  0  0  0  0
   45.4397   30.2780   43.9165 H   0  0  0  0  0  0  0  0  0  0  0  0
   44.6309   28.0635   45.2186 H   0  0  0  0  0  0  0  0  0  0  0  0
   47.7693   30.5067   50.1240 H   0  0  0  0  0  0  0  0  0  0  0  0
   48.7618   32.3493   47.9033 H   0  0  0  0  0  0  0  0  0  0  0  0
   48.1795   32.9270   49.4877 H   0  0  0  0  0  0  0  0  0  0  0  0
   50.6678   32.5562   49.2906 H   0  0  0  0  0  0  0  0  0  0  0  0
   49.7921   31.6516   50.6421 H   0  0  0  0  0  0  0  0  0  0  0  0
   51.1303   30.6443   48.2038 H   0  0  0  0  0  0  0  0  0  0  0  0
   51.2052   30.1417   49.9809 H   0  0  0  0  0  0  0  0  0  0  0  0
   50.1261   28.5792   48.2649 H   0  0  0  0  0  0  0  0  0  0  0  0
   49.3399   28.9160   49.8693 H   0  0  0  0  0  0  0  0  0  0  0  0
   48.5910   30.1996   47.1991 H   0  0  0  0  0  0  0  0  0  0  0  0
   47.6564   28.9521   48.0324 H   0  0  0  0  0  0  0  0  0  0  0  0
  1  7  1  0
  1  6  2  0
  2  1  1  0
  3  2  2  0
  3  4  1  0
  4  5  2  0
  5  6  1  0
  5 13  1  0
  8  9  1  0
  8  2  1  0
 10  9  1  0
 11 12  1  0
 11 10  1  0
 12  8  1  0
 13 14  1  0
 14 15  1  0
 15 19  1  0
 16 17  2  0
 16 15  1  0
 17 18  1  0
 18 19  2  0
 19 20  1  0
 20 21  1  0
 22 21  1  0
 22 23  1  0
 24 23  1  0
 25 24  1  0
 26 25  1  0
 26 21  1  0
  3 27  1  0
  7 28  1  0
  7 29  1  0
  8 30  1  0
  9 31  1  0
  9 32  1  0
 10 33  1  0
 10 34  1  0
 11 35  1  0
 11 36  1  0
 12 37  1  0
 12 38  1  0
 13 39  1  0
 13 40  1  0
 14 41  1  0
 14 42  1  0
 16 43  1  0
 17 44  1  0
 21 45  1  0
 22 46  1  0
 22 47  1  0
 23 48  1  0
 23 49  1  0
 24 50  1  0
 24 51  1  0
 25 52  1  0
 25 53  1  0
 26 54  1  0
 26 55  1  0
M  ISO  8  27  14  30  13  31  13  32  13  33  13  34  13  35  13  36  13
M  ISO  8  37  13  38  13  39   8  40   8  41   8  42   8  43  14  44  14
M  ISO  8  45  13  46  13  47  13  48  13  49  13  50  13  51  13  52  13
M  ISO  3  53  13  54  13  55  13
M  END
>  <minimizedAffinity>  (1) 
-5.80066872

>  <minimizedRMSD>  (1) 
0.726862431

$$$$
