
     RDKit          3D

 24 26  0  0  0  0  0  0  0  0999 V2000
   46.8260   32.2150   45.0440 C   0  0  0  0  0  0  0  0  0  0  0  0
   47.6180   31.6060   44.0960 C   0  0  0  0  0  0  0  0  0  0  0  0
   48.1730   30.4650   44.5770 N   0  0  0  0  0  0  0  0  0  0  0  0
   47.7150   30.3600   45.8540 C   0  0  0  0  0  0  0  0  0  0  0  0
   46.9130   31.4120   46.1180 N   0  0  0  0  0  0  0  0  0  0  0  0
   45.7980   32.2070   49.4330 N   0  0  0  0  0  0  0  0  0  0  0  0
   46.6160   32.3430   48.4100 N   0  0  0  0  0  0  0  0  0  0  0  0
   46.2910   31.5600   47.3900 C   0  0  0  0  0  0  0  0  0  0  0  0
   45.1540   30.8730   47.8330 C   0  0  0  0  0  0  0  0  0  0  0  0
   44.8740   31.2990   49.1100 C   0  0  0  0  0  0  0  0  0  0  0  0
   44.6450   35.0350   45.8800 C   0  0  0  0  0  0  0  0  0  0  0  0
   44.6280   35.7800   44.6730 C   0  0  0  0  0  0  0  0  0  0  0  0
   45.3650   35.2930   43.6050 C   0  0  0  0  0  0  0  0  0  0  0  0
   46.0640   34.1350   43.7630 N   0  0  0  0  0  0  0  0  0  0  0  0
   46.0630   33.4390   44.9370 C   0  0  0  0  0  0  0  0  0  0  0  0
   45.3620   33.8920   45.9720 N   0  0  0  0  0  0  0  0  0  0  0  0
   47.7798   31.9945   43.0797 H   0  0  0  0  0  0  0  0  0  0  0  0
   47.9590   29.5494   46.5565 H   0  0  0  0  0  0  0  0  0  0  0  0
   45.8603   32.7135   50.3277 H   0  0  0  0  0  0  0  0  0  0  0  0
   44.5856   30.1251   47.2608 H   0  0  0  0  0  0  0  0  0  0  0  0
   44.0446   30.9561   49.7460 H   0  0  0  0  0  0  0  0  0  0  0  0
   44.0703   35.3898   46.7482 H   0  0  0  0  0  0  0  0  0  0  0  0
   44.0499   36.7119   44.5876 H   0  0  0  0  0  0  0  0  0  0  0  0
   45.3850   35.8324   42.6465 H   0  0  0  0  0  0  0  0  0  0  0  0
  1  5  1  0
  2  3  1  0
  2  1  2  0
  3  4  2  0
  4  5  1  0
  5  8  1  0
  7  6  1  0
  8  9  1  0
  8  7  2  0
  9 10  2  0
 10  6  1  0
 11 16  2  0
 12 11  1  0
 13 14  1  0
 13 12  2  0
 14 15  2  0
 15  1  1  0
 15 16  1  0
  2 17  1  0
  4 18  1  0
  6 19  1  0
  9 20  1  0
 10 21  1  0
 11 22  1  0
 12 23  1  0
 13 24  1  0
M  ISO  8  17  14  18  14  19   9  20  14  21  14  22  14  23  14  24  14
M  END
>  <minimizedAffinity>  (1) 
-5.09371042

>  <minimizedRMSD>  (1) 
3.08571935

$$$$
