
     RDKit          3D

 45 48  0  0  0  0  0  0  0  0999 V2000
   44.7520   35.4190   42.9380 C   0  0  0  0  0  0  0  0  0  0  0  0
   43.8810   34.7500   42.1440 C   0  0  0  0  0  0  0  0  0  0  0  0
   43.9670   33.3380   42.0940 C   0  0  0  0  0  0  0  0  0  0  0  0
   44.9240   32.7110   42.8440 N   0  0  0  0  0  0  0  0  0  0  0  0
   45.7580   33.4270   43.6100 C   0  0  0  0  0  0  0  0  0  0  0  0
   45.6950   34.7980   43.6780 N   0  0  0  0  0  0  0  0  0  0  0  0
   44.6300   36.8610   42.9770 N   0  0  0  0  0  0  0  0  0  0  0  0
   42.8940   35.4510   41.3460 C   0  0  0  0  0  0  0  0  0  0  0  0
   41.4270   35.2950   41.9370 C   0  0  0  0  0  0  0  0  0  0  0  0
   40.7260   36.1140   40.8190 C   0  0  0  0  0  0  0  0  0  0  0  0
   41.3280   35.4840   39.5910 C   0  0  0  0  0  0  0  0  0  0  0  0
   42.7370   35.1040   39.9950 C   0  0  0  0  0  0  0  0  0  0  0  0
   46.8110   32.7770   44.4340 C   0  0  0  0  0  0  0  0  0  0  0  0
   46.4400   32.5620   45.8570 C   0  0  0  0  0  0  0  0  0  0  0  0
   46.0210   31.2060   46.1270 N   0  0  0  0  0  0  0  0  0  0  0  0
   45.5070   30.2470   45.3460 C   0  0  0  0  0  0  0  0  0  0  0  0
   45.2770   29.1160   46.1060 C   0  0  0  0  0  0  0  0  0  0  0  0
   45.6720   29.4430   47.3590 N   0  0  0  0  0  0  0  0  0  0  0  0
   46.1280   30.7140   47.3890 C   0  0  0  0  0  0  0  0  0  0  0  0
   46.7290   31.4480   48.9180 S   0  0  0  0  0  0  0  0  0  0  0  0
   48.5120   31.1670   49.0620 C   0  0  0  0  0  0  0  0  0  0  0  0
   48.9130   29.9640   48.5960 C   0  0  0  0  0  0  0  0  0  0  0  0
   50.7110   29.9900   48.8760 S   0  0  0  0  0  0  0  0  0  0  0  0
   50.6030   31.7370   49.6220 C   0  0  0  0  0  0  0  0  0  0  0  0
   49.4910   31.9120   49.5320 N   0  0  0  0  0  0  0  0  0  0  0  0
   43.2778   32.7562   41.4643 H   0  0  0  0  0  0  0  0  0  0  0  0
   43.9097   37.3324   42.4115 H   0  0  0  0  0  0  0  0  0  0  0  0
   45.2635   37.4156   43.5703 H   0  0  0  0  0  0  0  0  0  0  0  0
   43.3259   36.4615   41.3951 H   0  0  0  0  0  0  0  0  0  0  0  0
   41.0909   34.2483   41.9737 H   0  0  0  0  0  0  0  0  0  0  0  0
   41.2638   35.6153   42.9766 H   0  0  0  0  0  0  0  0  0  0  0  0
   39.6339   35.9852   40.8465 H   0  0  0  0  0  0  0  0  0  0  0  0
   40.8710   37.2020   40.8913 H   0  0  0  0  0  0  0  0  0  0  0  0
   41.3452   36.2016   38.7574 H   0  0  0  0  0  0  0  0  0  0  0  0
   40.7486   34.6146   39.2468 H   0  0  0  0  0  0  0  0  0  0  0  0
   42.8866   34.0220   39.8648 H   0  0  0  0  0  0  0  0  0  0  0  0
   43.4751   35.6289   39.3707 H   0  0  0  0  0  0  0  0  0  0  0  0
   47.0400   31.7980   43.9877 H   0  0  0  0  0  0  0  0  0  0  0  0
   47.6713   33.4625   44.4369 H   0  0  0  0  0  0  0  0  0  0  0  0
   47.3122   32.7924   46.4864 H   0  0  0  0  0  0  0  0  0  0  0  0
   45.5895   33.2226   46.0812 H   0  0  0  0  0  0  0  0  0  0  0  0
   45.3006   30.3443   44.2699 H   0  0  0  0  0  0  0  0  0  0  0  0
   44.8619   28.1558   45.7658 H   0  0  0  0  0  0  0  0  0  0  0  0
   48.3014   29.1633   48.1546 H   0  0  0  0  0  0  0  0  0  0  0  0
   51.3938   32.3874   50.0240 H   0  0  0  0  0  0  0  0  0  0  0  0
  1  7  1  0
  1  6  2  0
  2  1  1  0
  3  2  2  0
  3  4  1  0
  4  5  2  0
  5  6  1  0
  5 13  1  0
  8  9  1  0
  8  2  1  0
 10  9  1  0
 11 12  1  0
 11 10  1  0
 12  8  1  0
 13 14  1  0
 14 15  1  0
 15 19  1  0
 16 17  2  0
 16 15  1  0
 17 18  1  0
 18 19  2  0
 19 20  1  0
 20 21  1  0
 21 25  1  0
 22 23  1  0
 22 21  2  0
 23 24  1  0
 25 24  2  0
  3 26  1  0
  7 27  1  0
  7 28  1  0
  8 29  1  0
  9 30  1  0
  9 31  1  0
 10 32  1  0
 10 33  1  0
 11 34  1  0
 11 35  1  0
 12 36  1  0
 12 37  1  0
 13 38  1  0
 13 39  1  0
 14 40  1  0
 14 41  1  0
 16 42  1  0
 17 43  1  0
 22 44  1  0
 24 45  1  0
M  ISO  8  26  14  29  13  30  13  31  13  32  13  33  13  34  13  35  13
M  ISO  8  36  13  37  13  38   8  39   8  40   8  41   8  42  14  43  14
M  ISO  2  44  14  45  14
M  END
>  <minimizedAffinity>  (1) 
-5.6030879

>  <minimizedRMSD>  (1) 
0.89700377

$$$$
