
     RDKit          3D

 54 57  0  0  0  0  0  0  0  0999 V2000
   44.7830   35.4290   43.0390 C   0  0  0  0  0  0  0  0  0  0  0  0
   43.9480   34.7180   42.2120 C   0  0  0  0  0  0  0  0  0  0  0  0
   44.0610   33.3190   42.2080 C   0  0  0  0  0  0  0  0  0  0  0  0
   44.9770   32.7090   43.0050 N   0  0  0  0  0  0  0  0  0  0  0  0
   45.7810   33.4560   43.8030 C   0  0  0  0  0  0  0  0  0  0  0  0
   45.6890   34.8290   43.8270 N   0  0  0  0  0  0  0  0  0  0  0  0
   44.6530   36.8660   43.0410 N   0  0  0  0  0  0  0  0  0  0  0  0
   43.0020   35.4000   41.3610 C   0  0  0  0  0  0  0  0  0  0  0  0
   41.5090   35.2720   41.8870 C   0  0  0  0  0  0  0  0  0  0  0  0
   40.8590   36.0440   40.7200 C   0  0  0  0  0  0  0  0  0  0  0  0
   41.5280   35.4250   39.5310 C   0  0  0  0  0  0  0  0  0  0  0  0
   42.9160   35.0150   40.0130 C   0  0  0  0  0  0  0  0  0  0  0  0
   46.7930   32.8100   44.6790 C   0  0  0  0  0  0  0  0  0  0  0  0
   46.3090   32.5140   46.0530 C   0  0  0  0  0  0  0  0  0  0  0  0
   46.0850   31.1150   46.2830 N   0  0  0  0  0  0  0  0  0  0  0  0
   45.5680   30.1640   45.4950 C   0  0  0  0  0  0  0  0  0  0  0  0
   45.5690   28.9580   46.2050 C   0  0  0  0  0  0  0  0  0  0  0  0
   46.1040   29.2450   47.4280 N   0  0  0  0  0  0  0  0  0  0  0  0
   46.4250   30.5580   47.4930 C   0  0  0  0  0  0  0  0  0  0  0  0
   47.1550   31.2480   48.9570 S   0  0  0  0  0  0  0  0  0  0  0  0
   51.1000   29.7700   49.9340 N   0  0  0  0  0  0  0  0  0  0  0  0
   50.5140   29.0070   48.8540 C   0  0  0  0  0  0  0  0  0  0  0  0
   49.3790   29.7950   48.2320 C   0  0  0  0  0  0  0  0  0  0  0  0
   48.7870   30.6480   49.3460 C   0  0  0  0  0  0  0  0  0  0  0  0
   49.7250   31.7920   49.5660 C   0  0  0  0  0  0  0  0  0  0  0  0
   51.1290   31.1850   49.6860 C   0  0  0  0  0  0  0  0  0  0  0  0
   43.4080   32.7164   41.5596 H   0  0  0  0  0  0  0  0  0  0  0  0
   43.9560   37.3209   42.4342 H   0  0  0  0  0  0  0  0  0  0  0  0
   45.2572   37.4369   43.6492 H   0  0  0  0  0  0  0  0  0  0  0  0
   43.4262   36.4138   41.4089 H   0  0  0  0  0  0  0  0  0  0  0  0
   41.1681   34.2279   41.9478 H   0  0  0  0  0  0  0  0  0  0  0  0
   41.3031   35.6350   42.9048 H   0  0  0  0  0  0  0  0  0  0  0  0
   39.7705   35.8874   40.6935 H   0  0  0  0  0  0  0  0  0  0  0  0
   40.9847   37.1350   40.7834 H   0  0  0  0  0  0  0  0  0  0  0  0
   41.6055   36.1537   38.7106 H   0  0  0  0  0  0  0  0  0  0  0  0
   40.9599   34.5663   39.1438 H   0  0  0  0  0  0  0  0  0  0  0  0
   43.0439   33.9264   39.9202 H   0  0  0  0  0  0  0  0  0  0  0  0
   43.7026   35.4948   39.4122 H   0  0  0  0  0  0  0  0  0  0  0  0
   47.1013   31.8637   44.2104 H   0  0  0  0  0  0  0  0  0  0  0  0
   47.6232   33.5241   44.7831 H   0  0  0  0  0  0  0  0  0  0  0  0
   47.0600   32.8711   46.7730 H   0  0  0  0  0  0  0  0  0  0  0  0
   45.3429   33.0251   46.1771 H   0  0  0  0  0  0  0  0  0  0  0  0
   45.2049   30.3062   44.4664 H   0  0  0  0  0  0  0  0  0  0  0  0
   45.2121   27.9797   45.8506 H   0  0  0  0  0  0  0  0  0  0  0  0
   50.5509   29.6000   50.7887 H   0  0  0  0  0  0  0  0  0  0  0  0
   51.2802   28.8045   48.0911 H   0  0  0  0  0  0  0  0  0  0  0  0
   50.1256   28.0560   49.2475 H   0  0  0  0  0  0  0  0  0  0  0  0
   49.7594   30.4361   47.4232 H   0  0  0  0  0  0  0  0  0  0  0  0
   48.6217   29.1269   47.7959 H   0  0  0  0  0  0  0  0  0  0  0  0
   48.6740   30.0361   50.2531 H   0  0  0  0  0  0  0  0  0  0  0  0
   49.6828   32.4875   48.7148 H   0  0  0  0  0  0  0  0  0  0  0  0
   49.4573   32.3587   50.4700 H   0  0  0  0  0  0  0  0  0  0  0  0
   51.6729   31.3671   48.7474 H   0  0  0  0  0  0  0  0  0  0  0  0
   51.6265   31.6632   50.5426 H   0  0  0  0  0  0  0  0  0  0  0  0
  1  7  1  0
  1  6  2  0
  2  1  1  0
  3  2  2  0
  3  4  1  0
  4  5  2  0
  5  6  1  0
  5 13  1  0
  8  9  1  0
  8  2  1  0
 10  9  1  0
 11 12  1  0
 11 10  1  0
 12  8  1  0
 13 14  1  0
 14 15  1  0
 15 19  1  0
 16 17  2  0
 16 15  1  0
 17 18  1  0
 18 19  2  0
 19 20  1  0
 20 24  1  0
 22 21  1  0
 23 22  1  0
 23 24  1  0
 24 25  1  0
 25 26  1  0
 26 21  1  0
  3 27  1  0
  7 28  1  0
  7 29  1  0
  8 30  1  0
  9 31  1  0
  9 32  1  0
 10 33  1  0
 10 34  1  0
 11 35  1  0
 11 36  1  0
 12 37  1  0
 12 38  1  0
 13 39  1  0
 13 40  1  0
 14 41  1  0
 14 42  1  0
 16 43  1  0
 17 44  1  0
 21 45  1  0
 22 46  1  0
 22 47  1  0
 23 48  1  0
 23 49  1  0
 24 50  1  0
 25 51  1  0
 25 52  1  0
 26 53  1  0
 26 54  1  0
M  ISO  8  27  14  30  13  31  13  32  13  33  13  34  13  35  13  36  13
M  ISO  8  37  13  38  13  39   8  40   8  41   8  42   8  43  14  44  14
M  ISO  8  45   5  46  13  47  13  48  13  49  13  50  13  51  13  52  13
M  ISO  2  53  13  54  13
M  END
>  <minimizedAffinity>  (1) 
-5.68404245

>  <minimizedRMSD>  (1) 
1.26214385

$$$$
