
     RDKit          3D

 42 44  0  0  0  0  0  0  0  0999 V2000
   44.7480   35.4370   42.9210 C   0  0  0  0  0  0  0  0  0  0  0  0
   43.8780   34.7500   42.1300 C   0  0  0  0  0  0  0  0  0  0  0  0
   43.9730   33.3460   42.1020 C   0  0  0  0  0  0  0  0  0  0  0  0
   44.9190   32.7150   42.8540 N   0  0  0  0  0  0  0  0  0  0  0  0
   45.7580   33.4480   43.6220 C   0  0  0  0  0  0  0  0  0  0  0  0
   45.6840   34.8380   43.6670 N   0  0  0  0  0  0  0  0  0  0  0  0
   44.6330   36.8790   42.9480 N   0  0  0  0  0  0  0  0  0  0  0  0
   42.8990   35.4440   41.3190 C   0  0  0  0  0  0  0  0  0  0  0  0
   41.4320   35.3130   41.9150 C   0  0  0  0  0  0  0  0  0  0  0  0
   40.7230   36.0860   40.7800 C   0  0  0  0  0  0  0  0  0  0  0  0
   41.3640   35.5060   39.5520 C   0  0  0  0  0  0  0  0  0  0  0  0
   42.7540   35.0810   39.9720 C   0  0  0  0  0  0  0  0  0  0  0  0
   46.8120   32.8080   44.4540 C   0  0  0  0  0  0  0  0  0  0  0  0
   46.4160   32.5790   45.8650 C   0  0  0  0  0  0  0  0  0  0  0  0
   46.0480   31.2290   46.1580 N   0  0  0  0  0  0  0  0  0  0  0  0
   45.5240   30.2790   45.3990 C   0  0  0  0  0  0  0  0  0  0  0  0
   45.3460   29.1180   46.1510 C   0  0  0  0  0  0  0  0  0  0  0  0
   45.7920   29.4350   47.3880 N   0  0  0  0  0  0  0  0  0  0  0  0
   46.2250   30.7160   47.4170 C   0  0  0  0  0  0  0  0  0  0  0  0
   46.8760   31.4550   48.9090 S   0  0  0  0  0  0  0  0  0  0  0  0
   48.6480   31.1620   49.1010 C   0  0  0  0  0  0  0  0  0  0  0  0
   49.0820   30.4380   47.9960 F   0  0  0  0  0  0  0  0  0  0  0  0
   49.3670   32.3390   49.1490 F   0  0  0  0  0  0  0  0  0  0  0  0
   48.8380   30.3950   50.2250 F   0  0  0  0  0  0  0  0  0  0  0  0
   43.2856   32.7593   41.4749 H   0  0  0  0  0  0  0  0  0  0  0  0
   43.9159   37.3492   42.3774 H   0  0  0  0  0  0  0  0  0  0  0  0
   45.2682   37.4353   43.5378 H   0  0  0  0  0  0  0  0  0  0  0  0
   43.3313   36.4550   41.3502 H   0  0  0  0  0  0  0  0  0  0  0  0
   41.0965   34.2682   41.9909 H   0  0  0  0  0  0  0  0  0  0  0  0
   41.2746   35.6753   42.9416 H   0  0  0  0  0  0  0  0  0  0  0  0
   39.6386   35.9015   40.7888 H   0  0  0  0  0  0  0  0  0  0  0  0
   40.8268   37.1783   40.8581 H   0  0  0  0  0  0  0  0  0  0  0  0
   41.4194   36.2626   38.7555 H   0  0  0  0  0  0  0  0  0  0  0  0
   40.7849   34.6590   39.1556 H   0  0  0  0  0  0  0  0  0  0  0  0
   42.8677   33.9928   39.8587 H   0  0  0  0  0  0  0  0  0  0  0  0
   43.5200   35.5647   39.3482 H   0  0  0  0  0  0  0  0  0  0  0  0
   47.0641   31.8363   44.0042 H   0  0  0  0  0  0  0  0  0  0  0  0
   47.6650   33.5023   44.4734 H   0  0  0  0  0  0  0  0  0  0  0  0
   47.2636   32.8534   46.5102 H   0  0  0  0  0  0  0  0  0  0  0  0
   45.5243   33.1967   46.0476 H   0  0  0  0  0  0  0  0  0  0  0  0
   45.2675   30.3890   44.3350 H   0  0  0  0  0  0  0  0  0  0  0  0
   44.9336   28.1560   45.8126 H   0  0  0  0  0  0  0  0  0  0  0  0
  1  7  1  0
  1  6  2  0
  2  1  1  0
  3  2  2  0
  3  4  1  0
  4  5  2  0
  5  6  1  0
  5 13  1  0
  8  9  1  0
  8  2  1  0
 10  9  1  0
 11 12  1  0
 11 10  1  0
 12  8  1  0
 13 14  1  0
 14 15  1  0
 15 19  1  0
 16 17  2  0
 16 15  1  0
 17 18  1  0
 18 19  2  0
 19 20  1  0
 20 21  1  0
 21 23  1  0
 21 24  1  0
 22 21  1  0
  3 25  1  0
  7 26  1  0
  7 27  1  0
  8 28  1  0
  9 29  1  0
  9 30  1  0
 10 31  1  0
 10 32  1  0
 11 33  1  0
 11 34  1  0
 12 35  1  0
 12 36  1  0
 13 37  1  0
 13 38  1  0
 14 39  1  0
 14 40  1  0
 16 41  1  0
 17 42  1  0
M  ISO  8  25  14  28  13  29  13  30  13  31  13  32  13  33  13  34  13
M  ISO  8  35  13  36  13  37   8  38   8  39   8  40   8  41  14  42  14
M  END
>  <minimizedAffinity>  (1) 
-5.59005117

>  <minimizedRMSD>  (1) 
0.822310448

$$$$
