
     RDKit          3D

 46 49  0  0  0  0  0  0  0  0999 V2000
   44.7680   35.4130   42.9590 C   0  0  0  0  0  0  0  0  0  0  0  0
   43.9060   34.7370   42.1530 C   0  0  0  0  0  0  0  0  0  0  0  0
   44.0000   33.3340   42.0940 C   0  0  0  0  0  0  0  0  0  0  0  0
   44.9490   32.6980   42.8430 N   0  0  0  0  0  0  0  0  0  0  0  0
   45.7820   33.4170   43.6270 C   0  0  0  0  0  0  0  0  0  0  0  0
   45.7070   34.7950   43.7010 N   0  0  0  0  0  0  0  0  0  0  0  0
   44.6400   36.8550   43.0060 N   0  0  0  0  0  0  0  0  0  0  0  0
   42.9210   35.4420   41.3570 C   0  0  0  0  0  0  0  0  0  0  0  0
   41.4540   35.2910   41.9520 C   0  0  0  0  0  0  0  0  0  0  0  0
   40.7300   36.0750   40.8360 C   0  0  0  0  0  0  0  0  0  0  0  0
   41.3610   35.5060   39.5960 C   0  0  0  0  0  0  0  0  0  0  0  0
   42.7580   35.0880   40.0090 C   0  0  0  0  0  0  0  0  0  0  0  0
   46.8320   32.7820   44.4570 C   0  0  0  0  0  0  0  0  0  0  0  0
   46.4510   32.5610   45.8790 C   0  0  0  0  0  0  0  0  0  0  0  0
   46.0090   31.2240   46.1450 N   0  0  0  0  0  0  0  0  0  0  0  0
   45.4970   30.2680   45.3550 C   0  0  0  0  0  0  0  0  0  0  0  0
   45.2270   29.1330   46.1100 C   0  0  0  0  0  0  0  0  0  0  0  0
   45.6000   29.4650   47.3640 N   0  0  0  0  0  0  0  0  0  0  0  0
   46.0780   30.7300   47.4100 C   0  0  0  0  0  0  0  0  0  0  0  0
   46.6470   31.4360   48.9400 S   0  0  0  0  0  0  0  0  0  0  0  0
   48.4470   31.2330   49.0780 C   0  0  0  0  0  0  0  0  0  0  0  0
   49.6580   31.7270   49.5550 C   0  0  0  0  0  0  0  0  0  0  0  0
   50.7680   31.0080   49.2810 C   0  0  0  0  0  0  0  0  0  0  0  0
   50.7310   29.8000   48.5420 C   0  0  0  0  0  0  0  0  0  0  0  0
   48.8950   29.6270   48.1700 S   0  0  0  0  0  0  0  0  0  0  0  0
   43.3177   32.7567   41.4527 H   0  0  0  0  0  0  0  0  0  0  0  0
   43.9218   37.3270   42.4384 H   0  0  0  0  0  0  0  0  0  0  0  0
   45.2672   37.4084   43.6071 H   0  0  0  0  0  0  0  0  0  0  0  0
   43.3558   36.4514   41.4022 H   0  0  0  0  0  0  0  0  0  0  0  0
   41.1279   34.2421   42.0116 H   0  0  0  0  0  0  0  0  0  0  0  0
   41.2984   35.6382   42.9841 H   0  0  0  0  0  0  0  0  0  0  0  0
   39.6461   35.8884   40.8548 H   0  0  0  0  0  0  0  0  0  0  0  0
   40.8300   37.1669   40.9240 H   0  0  0  0  0  0  0  0  0  0  0  0
   41.4059   36.2673   38.8033 H   0  0  0  0  0  0  0  0  0  0  0  0
   40.7833   34.6601   39.1950 H   0  0  0  0  0  0  0  0  0  0  0  0
   42.8761   34.0010   39.8889 H   0  0  0  0  0  0  0  0  0  0  0  0
   43.5132   35.5856   39.3829 H   0  0  0  0  0  0  0  0  0  0  0  0
   47.0771   31.8063   44.0122 H   0  0  0  0  0  0  0  0  0  0  0  0
   47.6834   33.4784   44.4678 H   0  0  0  0  0  0  0  0  0  0  0  0
   47.3255   32.7723   46.5119 H   0  0  0  0  0  0  0  0  0  0  0  0
   45.6086   33.2331   46.0994 H   0  0  0  0  0  0  0  0  0  0  0  0
   45.3182   30.3675   44.2742 H   0  0  0  0  0  0  0  0  0  0  0  0
   44.8043   28.1784   45.7635 H   0  0  0  0  0  0  0  0  0  0  0  0
   49.7087   32.6630   50.1305 H   0  0  0  0  0  0  0  0  0  0  0  0
   51.7387   31.3748   49.6459 H   0  0  0  0  0  0  0  0  0  0  0  0
   51.5607   29.1355   48.2590 H   0  0  0  0  0  0  0  0  0  0  0  0
  1  7  1  0
  1  6  2  0
  2  1  1  0
  3  2  2  0
  3  4  1  0
  4  5  2  0
  5  6  1  0
  5 13  1  0
  8  9  1  0
  8  2  1  0
 10  9  1  0
 11 12  1  0
 11 10  1  0
 12  8  1  0
 13 14  1  0
 14 15  1  0
 15 19  1  0
 16 17  2  0
 16 15  1  0
 17 18  1  0
 18 19  2  0
 19 20  1  0
 20 21  1  0
 21 22  2  0
 23 22  1  0
 24 23  2  0
 25 24  1  0
 25 21  1  0
  3 26  1  0
  7 27  1  0
  7 28  1  0
  8 29  1  0
  9 30  1  0
  9 31  1  0
 10 32  1  0
 10 33  1  0
 11 34  1  0
 11 35  1  0
 12 36  1  0
 12 37  1  0
 13 38  1  0
 13 39  1  0
 14 40  1  0
 14 41  1  0
 16 42  1  0
 17 43  1  0
 22 44  1  0
 23 45  1  0
 24 46  1  0
M  ISO  8  26  14  29  13  30  13  31  13  32  13  33  13  34  13  35  13
M  ISO  8  36  13  37  13  38   8  39   8  40   8  41   8  42  14  43  14
M  ISO  3  44  14  45  14  46  14
M  END
>  <minimizedAffinity>  (1) 
-5.64646864

>  <minimizedRMSD>  (1) 
0.928813696

$$$$
