
     RDKit          3D

 34 36  0  0  1  0  0  0  0  0999 V2000
   45.3680   34.8750   43.3290 C   0  0  0  0  0  0  0  0  0  0  0  0
   46.6220   35.0150   42.7420 C   0  0  0  0  0  0  0  0  0  0  0  0
   46.7600   34.6670   41.4130 C   0  0  0  0  0  0  0  0  0  0  0  0
   45.6210   34.2000   40.7680 N   0  0  0  0  0  0  0  0  0  0  0  0
   44.4300   34.0860   41.3940 C   0  0  0  0  0  0  0  0  0  0  0  0
   44.3280   34.4220   42.6470 N   0  0  0  0  0  0  0  0  0  0  0  0
   43.7110   33.5820   40.2360 C   0  0  0  0  0  0  0  0  0  0  0  0
   43.1170   33.1650   39.2810 N   0  0  0  0  0  0  0  0  0  0  0  0
   42.6930   32.6080   38.2760 C   0  0  0  0  0  0  0  0  0  0  0  0
   41.5760   33.3380   38.3600 N   0  0  0  0  0  0  0  0  0  0  0  0
   41.4510   34.2350   39.3770 C   0  0  0  0  0  0  0  0  0  0  0  0
   40.2070   34.9440   39.3360 C   0  0  0  0  0  0  0  0  0  0  0  0
   40.0070   35.8610   40.3290 C   0  0  0  0  0  0  0  0  0  0  0  0
   40.8930   36.1510   41.3410 C   0  0  0  0  0  0  0  0  0  0  0  0
   42.0370   35.3910   41.2430 C   0  0  0  0  0  0  0  0  0  0  0  0
   42.4990   34.3840   40.3350 C   0  0  0  0  0  0  0  0  0  0  0  0
   48.0700   34.7910   40.6810 C   0  0  0  0  0  0  0  0  0  0  0  0
   48.9730   35.7590   41.4260 C   0  0  0  0  0  0  0  0  0  0  0  0
   45.2378   35.1477   44.3867 H   0  0  0  0  0  0  0  0  0  0  0  0
   47.4785   35.3920   43.3201 H   0  0  0  0  0  0  0  0  0  0  0  0
   44.1741   34.3591   39.6102 H   0  0  0  0  0  0  0  0  0  0  0  0
   42.2879   32.9127   39.8377 H   0  0  0  0  0  0  0  0  0  0  0  0
   42.5348   31.5257   38.3924 H   0  0  0  0  0  0  0  0  0  0  0  0
   43.2859   32.5922   37.3496 H   0  0  0  0  0  0  0  0  0  0  0  0
   40.8226   33.2238   37.6670 H   0  0  0  0  0  0  0  0  0  0  0  0
   39.4575   34.7611   38.5519 H   0  0  0  0  0  0  0  0  0  0  0  0
   39.0566   36.4147   40.3185 H   0  0  0  0  0  0  0  0  0  0  0  0
   40.7104   36.8962   42.1292 H   0  0  0  0  0  0  0  0  0  0  0  0
   42.7602   35.6059   42.0435 H   0  0  0  0  0  0  0  0  0  0  0  0
   48.5546   33.8051   40.6259 H   0  0  0  0  0  0  0  0  0  0  0  0
   47.8886   35.1662   39.6630 H   0  0  0  0  0  0  0  0  0  0  0  0
   48.8440   35.6207   42.5096 H   0  0  0  0  0  0  0  0  0  0  0  0
   50.0212   35.5660   41.1539 H   0  0  0  0  0  0  0  0  0  0  0  0
   48.7077   36.7913   41.1539 H   0  0  0  0  0  0  0  0  0  0  0  0
  2  1  2  0
  3  2  1  0
  4  5  1  0
  4  3  2  0
  5  6  2  0
  6  1  1  0
  7 16  1  0
  7  5  1  0
  8  7  1  0
  9 10  1  0
  9  8  1  0
 10 11  1  0
 11 16  2  0
 12 11  1  0
 12 13  2  0
 13 14  1  0
 15 14  2  0
 16 15  1  0
 17  3  1  0
 17 18  1  0
  1 19  1  0
  2 20  1  0
  7 21  1  0
  8 22  1  0
  9 23  1  0
  9 24  1  0
 10 25  1  0
 12 26  1  0
 13 27  1  0
 14 28  1  0
 15 29  1  0
 17 30  1  0
 17 31  1  0
 18 32  1  0
 18 33  1  0
 18 34  1  0
M  ISO  8  19  14  20  14  21  13  22   5  23  13  24  13  26  14  27  14
M  ISO  7  28  14  29  14  30   8  31   8  32   8  33   8  34   8
M  END
>  <minimizedAffinity>  (1) 
-5.74560499

>  <minimizedRMSD>  (1) 
7.32245922

$$$$
