
     RDKit          3D

 31 32  0  0  0  0  0  0  0  0999 V2000
   44.4970   35.8620   44.7850 C   0  0  0  0  0  0  0  0  0  0  0  0
   45.0770   35.8340   43.5140 C   0  0  0  0  0  0  0  0  0  0  0  0
   45.9830   34.8020   43.2280 C   0  0  0  0  0  0  0  0  0  0  0  0
   46.2580   33.8660   44.2150 N   0  0  0  0  0  0  0  0  0  0  0  0
   45.6650   33.9550   45.4150 C   0  0  0  0  0  0  0  0  0  0  0  0
   44.8030   34.9230   45.7070 N   0  0  0  0  0  0  0  0  0  0  0  0
   45.9660   32.9810   46.4060 N   0  0  0  0  0  0  0  0  0  0  0  0
   45.3860   32.9800   47.7300 C   0  0  0  0  0  0  0  0  0  0  0  0
   44.7890   31.6420   48.0980 C   0  0  0  0  0  0  0  0  0  0  0  0
   45.6900   30.4930   47.7240 C   0  0  0  0  0  0  0  0  0  0  0  0
   46.1060   30.6070   46.2820 C   0  0  0  0  0  0  0  0  0  0  0  0
   46.8980   31.9010   46.1450 C   0  0  0  0  0  0  0  0  0  0  0  0
   46.6690   34.6620   41.9030 C   0  0  0  0  0  0  0  0  0  0  0  0
   48.0620   35.2900   41.9790 C   0  0  0  0  0  0  0  0  0  0  0  0
   43.7821   36.6588   45.0381 H   0  0  0  0  0  0  0  0  0  0  0  0
   44.8308   36.5974   42.7613 H   0  0  0  0  0  0  0  0  0  0  0  0
   46.1709   33.2289   48.4594 H   0  0  0  0  0  0  0  0  0  0  0  0
   44.5747   33.7227   47.7405 H   0  0  0  0  0  0  0  0  0  0  0  0
   44.6168   31.6179   49.1842 H   0  0  0  0  0  0  0  0  0  0  0  0
   43.8478   31.5278   47.5402 H   0  0  0  0  0  0  0  0  0  0  0  0
   46.5852   30.5103   48.3629 H   0  0  0  0  0  0  0  0  0  0  0  0
   45.1450   29.5482   47.8668 H   0  0  0  0  0  0  0  0  0  0  0  0
   46.7342   29.7487   46.0016 H   0  0  0  0  0  0  0  0  0  0  0  0
   45.2272   30.6141   45.6205 H   0  0  0  0  0  0  0  0  0  0  0  0
   47.7201   31.9230   46.8755 H   0  0  0  0  0  0  0  0  0  0  0  0
   47.3433   31.9919   45.1433 H   0  0  0  0  0  0  0  0  0  0  0  0
   46.0783   35.1735   41.1288 H   0  0  0  0  0  0  0  0  0  0  0  0
   46.7617   33.5955   41.6499 H   0  0  0  0  0  0  0  0  0  0  0  0
   48.3489   35.4193   43.0330 H   0  0  0  0  0  0  0  0  0  0  0  0
   48.7885   34.6323   41.4793 H   0  0  0  0  0  0  0  0  0  0  0  0
   48.0502   36.2699   41.4793 H   0  0  0  0  0  0  0  0  0  0  0  0
  1  6  2  0
  2  1  1  0
  3  2  2  0
  3  4  1  0
  4  5  2  0
  5  6  1  0
  5  7  1  0
  7  8  1  0
  8  9  1  0
 10  9  1  0
 11 10  1  0
 12 11  1  0
 12  7  1  0
 13 14  1  0
 13  3  1  0
  1 15  1  0
  2 16  1  0
  8 17  1  0
  8 18  1  0
  9 19  1  0
  9 20  1  0
 10 21  1  0
 10 22  1  0
 11 23  1  0
 11 24  1  0
 12 25  1  0
 12 26  1  0
 13 27  1  0
 13 28  1  0
 14 29  1  0
 14 30  1  0
 14 31  1  0
M  ISO  8  15  14  16  14  17  13  18  13  19  13  20  13  21  13  22  13
M  ISO  8  23  13  24  13  25  13  26  13  27   8  28   8  29   8  30   8
M  ISO  1  31   8
M  END
>  <minimizedAffinity>  (1) 
-5.06229448

>  <minimizedRMSD>  (1) 
0.335907876

$$$$
