
     RDKit          3D

 28 29  0  0  0  0  0  0  0  0999 V2000
   44.5680   35.7030   44.8060 C   0  0  0  0  0  0  0  0  0  0  0  0
   45.2080   35.5290   43.5800 C   0  0  0  0  0  0  0  0  0  0  0  0
   46.0950   34.4730   43.4470 C   0  0  0  0  0  0  0  0  0  0  0  0
   46.3030   33.6480   44.5230 N   0  0  0  0  0  0  0  0  0  0  0  0
   45.6640   33.8430   45.7060 C   0  0  0  0  0  0  0  0  0  0  0  0
   44.8110   34.8620   45.8280 N   0  0  0  0  0  0  0  0  0  0  0  0
   45.8970   32.9720   46.8090 N   0  0  0  0  0  0  0  0  0  0  0  0
   44.8430   32.7340   47.7810 C   0  0  0  0  0  0  0  0  0  0  0  0
   45.2100   31.5190   48.6090 C   0  0  0  0  0  0  0  0  0  0  0  0
   46.4610   31.8710   49.2700 N   0  0  0  0  0  0  0  0  0  0  0  0
   47.5110   31.8350   48.3030 C   0  0  0  0  0  0  0  0  0  0  0  0
   47.1780   32.3380   46.9460 C   0  0  0  0  0  0  0  0  0  0  0  0
   46.8610   34.1600   42.1840 C   0  0  0  0  0  0  0  0  0  0  0  0
   47.9240   35.2290   41.9550 C   0  0  0  0  0  0  0  0  0  0  0  0
   43.8593   36.5337   44.9390 H   0  0  0  0  0  0  0  0  0  0  0  0
   45.0139   36.2122   42.7400 H   0  0  0  0  0  0  0  0  0  0  0  0
   44.7394   33.6111   48.4367 H   0  0  0  0  0  0  0  0  0  0  0  0
   43.8883   32.5598   47.2631 H   0  0  0  0  0  0  0  0  0  0  0  0
   44.4271   31.3078   49.3522 H   0  0  0  0  0  0  0  0  0  0  0  0
   45.3119   30.6152   47.9903 H   0  0  0  0  0  0  0  0  0  0  0  0
   46.5692   32.1061   50.2670 H   0  0  0  0  0  0  0  0  0  0  0  0
   48.5132   31.4549   48.5501 H   0  0  0  0  0  0  0  0  0  0  0  0
   47.8703   32.2314   46.0978 H   0  0  0  0  0  0  0  0  0  0  0  0
   47.3450   33.1772   42.2829 H   0  0  0  0  0  0  0  0  0  0  0  0
   46.1680   34.1437   41.3299 H   0  0  0  0  0  0  0  0  0  0  0  0
   48.2894   35.5965   42.9253 H   0  0  0  0  0  0  0  0  0  0  0  0
   48.7616   34.7975   41.3873 H   0  0  0  0  0  0  0  0  0  0  0  0
   47.4878   36.0641   41.3873 H   0  0  0  0  0  0  0  0  0  0  0  0
  1  6  2  0
  2  1  1  0
  3  2  2  0
  3  4  1  0
  4  5  2  0
  5  6  1  0
  5  7  1  0
  7 12  1  0
  7  8  1  0
  8  9  1  0
  9 10  1  0
 11 10  1  0
 12 11  2  0
 13  3  1  0
 14 13  1  0
  1 15  1  0
  2 16  1  0
  8 17  1  0
  8 18  1  0
  9 19  1  0
  9 20  1  0
 10 21  1  0
 11 22  1  0
 12 23  1  0
 13 24  1  0
 13 25  1  0
 14 26  1  0
 14 27  1  0
 14 28  1  0
M  ISO  8  15  14  16  14  17  13  18  13  19  13  20  13  22  13  23  13
M  ISO  5  24   8  25   8  26   8  27   8  28   8
M  END
>  <minimizedAffinity>  (1) 
-5.09114695

>  <minimizedRMSD>  (1) 
0.653145969

$$$$
