
     RDKit          3D

 23 24  0  0  0  0  0  0  0  0999 V2000
   44.5010   36.0880   44.4290 C   0  0  0  0  0  0  0  0  0  0  0  0
   45.1900   35.9170   43.2300 C   0  0  0  0  0  0  0  0  0  0  0  0
   46.0650   34.8460   43.1390 C   0  0  0  0  0  0  0  0  0  0  0  0
   46.2130   34.0170   44.2150 N   0  0  0  0  0  0  0  0  0  0  0  0
   45.5210   34.2170   45.3730 C   0  0  0  0  0  0  0  0  0  0  0  0
   44.6810   35.2420   45.4630 N   0  0  0  0  0  0  0  0  0  0  0  0
   45.7450   33.2980   46.4370 N   0  0  0  0  0  0  0  0  0  0  0  0
   45.1340   33.0390   47.5720 N   0  0  0  0  0  0  0  0  0  0  0  0
   45.7530   32.0540   48.2410 C   0  0  0  0  0  0  0  0  0  0  0  0
   46.8360   31.6780   47.4480 C   0  0  0  0  0  0  0  0  0  0  0  0
   46.8060   32.4750   46.3200 C   0  0  0  0  0  0  0  0  0  0  0  0
   46.8780   34.5300   41.9090 C   0  0  0  0  0  0  0  0  0  0  0  0
   48.1640   35.3470   41.9050 C   0  0  0  0  0  0  0  0  0  0  0  0
   43.7982   36.9277   44.5336 H   0  0  0  0  0  0  0  0  0  0  0  0
   45.0447   36.6073   42.3860 H   0  0  0  0  0  0  0  0  0  0  0  0
   45.4651   31.6306   49.2146 H   0  0  0  0  0  0  0  0  0  0  0  0
   47.5743   30.8953   47.6769 H   0  0  0  0  0  0  0  0  0  0  0  0
   47.5168   32.4437   45.4811 H   0  0  0  0  0  0  0  0  0  0  0  0
   47.1279   33.4588   41.9038 H   0  0  0  0  0  0  0  0  0  0  0  0
   46.2893   34.7823   41.0147 H   0  0  0  0  0  0  0  0  0  0  0  0
   48.4758   35.5451   42.9411 H   0  0  0  0  0  0  0  0  0  0  0  0
   48.9540   34.7848   41.3855 H   0  0  0  0  0  0  0  0  0  0  0  0
   47.9907   36.3010   41.3855 H   0  0  0  0  0  0  0  0  0  0  0  0
  1  6  2  0
  2  1  1  0
  3  2  2  0
  3  4  1  0
  4  5  2  0
  5  6  1  0
  5  7  1  0
  7  8  1  0
  8  9  2  0
 10  9  1  0
 11  7  1  0
 11 10  2  0
 12  3  1  0
 13 12  1  0
  1 14  1  0
  2 15  1  0
  9 16  1  0
 10 17  1  0
 11 18  1  0
 12 19  1  0
 12 20  1  0
 13 21  1  0
 13 22  1  0
 13 23  1  0
M  ISO  8  14  14  15  14  16  14  17  14  18  14  19   8  20   8  21   8
M  ISO  2  22   8  23   8
M  END
>  <minimizedAffinity>  (1) 
-4.93110228

>  <minimizedRMSD>  (1) 
0.382448435

$$$$
