
     RDKit          3D

 19 19  0  0  0  0  0  0  0  0999 V2000
   44.5400   36.0250   44.4880 C   0  0  0  0  0  0  0  0  0  0  0  0
   45.1850   35.9570   43.2540 C   0  0  0  0  0  0  0  0  0  0  0  0
   46.0750   34.9140   43.0420 C   0  0  0  0  0  0  0  0  0  0  0  0
   46.2790   34.0070   44.0410 N   0  0  0  0  0  0  0  0  0  0  0  0
   45.6270   34.1070   45.2360 C   0  0  0  0  0  0  0  0  0  0  0  0
   44.7720   35.1020   45.4510 N   0  0  0  0  0  0  0  0  0  0  0  0
   45.8430   33.1220   46.3280 C   0  0  0  0  0  0  0  0  0  0  0  0
   47.1180   33.1700   46.8270 F   0  0  0  0  0  0  0  0  0  0  0  0
   44.9210   33.2840   47.3520 F   0  0  0  0  0  0  0  0  0  0  0  0
   45.6460   31.8160   45.8610 F   0  0  0  0  0  0  0  0  0  0  0  0
   46.8360   34.7110   41.7610 C   0  0  0  0  0  0  0  0  0  0  0  0
   48.2100   35.3500   41.8610 C   0  0  0  0  0  0  0  0  0  0  0  0
   43.8304   36.8426   44.6827 H   0  0  0  0  0  0  0  0  0  0  0  0
   44.9942   36.7072   42.4725 H   0  0  0  0  0  0  0  0  0  0  0  0
   46.2803   35.1720   40.9312 H   0  0  0  0  0  0  0  0  0  0  0  0
   46.9538   33.6324   41.5803 H   0  0  0  0  0  0  0  0  0  0  0  0
   48.4798   35.4755   42.9200 H   0  0  0  0  0  0  0  0  0  0  0  0
   48.9515   34.7043   41.3677 H   0  0  0  0  0  0  0  0  0  0  0  0
   48.1940   36.3331   41.3677 H   0  0  0  0  0  0  0  0  0  0  0  0
  1  6  2  0
  2  1  1  0
  3  2  2  0
  3  4  1  0
  4  5  2  0
  5  6  1  0
  5  7  1  0
  7  8  1  0
  7  9  1  0
 10  7  1  0
 11 12  1  0
 11  3  1  0
  1 13  1  0
  2 14  1  0
 11 15  1  0
 11 16  1  0
 12 17  1  0
 12 18  1  0
 12 19  1  0
M  ISO  7  13  14  14  14  15   8  16   8  17   8  18   8  19   8
M  END
>  <minimizedAffinity>  (1) 
-4.50352097

>  <minimizedRMSD>  (1) 
0.151958719

$$$$
