
     RDKit          3D

 19 19  0  0  0  0  0  0  0  0999 V2000
   44.5400   35.8470   44.5230 C   0  0  0  0  0  0  0  0  0  0  0  0
   45.1550   35.8420   43.2620 C   0  0  0  0  0  0  0  0  0  0  0  0
   46.1200   34.8810   43.0020 C   0  0  0  0  0  0  0  0  0  0  0  0
   46.4360   33.9690   43.9890 N   0  0  0  0  0  0  0  0  0  0  0  0
   45.8150   34.0150   45.1860 C   0  0  0  0  0  0  0  0  0  0  0  0
   44.8890   34.9320   45.4510 N   0  0  0  0  0  0  0  0  0  0  0  0
   46.8470   34.7820   41.6790 C   0  0  0  0  0  0  0  0  0  0  0  0
   48.2690   35.3490   41.8600 C   0  0  0  0  0  0  0  0  0  0  0  0
   46.2320   33.0040   46.1460 C   0  0  0  0  0  0  0  0  0  0  0  0
   45.8400   31.8270   46.0290 O   0  0  0  0  0  0  0  0  0  0  0  0
   47.0720   33.3740   47.1900 O   0  0  0  0  0  0  0  0  0  0  0  0
   43.7714   36.5988   44.7556 H   0  0  0  0  0  0  0  0  0  0  0  0
   44.8781   36.5830   42.4976 H   0  0  0  0  0  0  0  0  0  0  0  0
   46.3097   35.3639   40.9157 H   0  0  0  0  0  0  0  0  0  0  0  0
   46.8978   33.7324   41.3539 H   0  0  0  0  0  0  0  0  0  0  0  0
   48.4941   35.4388   42.9330 H   0  0  0  0  0  0  0  0  0  0  0  0
   48.9964   34.6721   41.3881 H   0  0  0  0  0  0  0  0  0  0  0  0
   48.3311   36.3407   41.3881 H   0  0  0  0  0  0  0  0  0  0  0  0
   47.3655   32.6991   47.8521 H   0  0  0  0  0  0  0  0  0  0  0  0
  1  6  2  0
  2  1  1  0
  3  2  2  0
  3  4  1  0
  4  5  2  0
  5  6  1  0
  5  9  1  0
  7  8  1  0
  7  3  1  0
  9 11  1  0
 10  9  2  0
  1 12  1  0
  2 13  1  0
  7 14  1  0
  7 15  1  0
  8 16  1  0
  8 17  1  0
  8 18  1  0
 11 19  1  0
M  ISO  8  12  14  13  14  14   8  15   8  16   8  17   8  18   8  19   3
M  END
>  <minimizedAffinity>  (1) 
-4.45721149

>  <minimizedRMSD>  (1) 
0.271674216

$$$$
