
     RDKit          3D

 35 36  0  0  0  0  0  0  0  0999 V2000
   44.6440   35.7520   44.6440 C   0  0  0  0  0  0  0  0  0  0  0  0
   45.2110   35.9150   43.3710 C   0  0  0  0  0  0  0  0  0  0  0  0
   46.1290   34.9650   42.9380 C   0  0  0  0  0  0  0  0  0  0  0  0
   46.4520   33.9030   43.7620 N   0  0  0  0  0  0  0  0  0  0  0  0
   45.8780   33.7970   44.9720 C   0  0  0  0  0  0  0  0  0  0  0  0
   44.9910   34.6980   45.4140 N   0  0  0  0  0  0  0  0  0  0  0  0
   46.7970   35.0460   41.5850 C   0  0  0  0  0  0  0  0  0  0  0  0
   48.2980   35.3460   41.7870 C   0  0  0  0  0  0  0  0  0  0  0  0
   46.2820   32.6470   45.7650 C   0  0  0  0  0  0  0  0  0  0  0  0
   45.8300   31.5230   45.5010 O   0  0  0  0  0  0  0  0  0  0  0  0
   47.1790   32.8440   46.8140 O   0  0  0  0  0  0  0  0  0  0  0  0
   46.7440   32.4580   48.1120 C   0  0  0  0  0  0  0  0  0  0  0  0
   47.4250   31.1900   48.5690 C   0  0  0  0  0  0  0  0  0  0  0  0
   46.6680   29.9530   48.1450 C   0  0  0  0  0  0  0  0  0  0  0  0
   45.2580   29.9370   48.6900 C   0  0  0  0  0  0  0  0  0  0  0  0
   44.9040   31.3270   49.1970 C   0  0  0  0  0  0  0  0  0  0  0  0
   45.2330   32.2930   48.0710 C   0  0  0  0  0  0  0  0  0  0  0  0
   43.9139   36.4856   45.0164 H   0  0  0  0  0  0  0  0  0  0  0  0
   44.9372   36.7693   42.7344 H   0  0  0  0  0  0  0  0  0  0  0  0
   46.3359   35.8502   40.9928 H   0  0  0  0  0  0  0  0  0  0  0  0
   46.6756   34.0920   41.0511 H   0  0  0  0  0  0  0  0  0  0  0  0
   48.5214   35.3907   42.8631 H   0  0  0  0  0  0  0  0  0  0  0  0
   48.8970   34.5498   41.3209 H   0  0  0  0  0  0  0  0  0  0  0  0
   48.5450   36.3113   41.3209 H   0  0  0  0  0  0  0  0  0  0  0  0
   47.0157   33.2342   48.8425 H   0  0  0  0  0  0  0  0  0  0  0  0
   48.4351   31.1538   48.1349 H   0  0  0  0  0  0  0  0  0  0  0  0
   47.4629   31.2034   49.6683 H   0  0  0  0  0  0  0  0  0  0  0  0
   46.6244   29.9226   47.0463 H   0  0  0  0  0  0  0  0  0  0  0  0
   47.1974   29.0765   48.5468 H   0  0  0  0  0  0  0  0  0  0  0  0
   44.5582   29.6466   47.8925 H   0  0  0  0  0  0  0  0  0  0  0  0
   45.1880   29.2128   49.5150 H   0  0  0  0  0  0  0  0  0  0  0  0
   43.8332   31.3806   49.4431 H   0  0  0  0  0  0  0  0  0  0  0  0
   45.4666   31.5730   50.1097 H   0  0  0  0  0  0  0  0  0  0  0  0
   44.7353   33.2601   48.2354 H   0  0  0  0  0  0  0  0  0  0  0  0
   44.8878   31.9188   47.0959 H   0  0  0  0  0  0  0  0  0  0  0  0
  1  6  2  0
  2  1  1  0
  3  2  2  0
  3  4  1  0
  4  5  2  0
  5  6  1  0
  5  9  1  0
  7  8  1  0
  7  3  1  0
  9 11  1  0
 10  9  2  0
 11 12  1  0
 12 13  1  0
 14 13  1  0
 14 15  1  0
 15 16  1  0
 17 12  1  0
 17 16  1  0
  1 18  1  0
  2 19  1  0
  7 20  1  0
  7 21  1  0
  8 22  1  0
  8 23  1  0
  8 24  1  0
 12 25  1  0
 13 26  1  0
 13 27  1  0
 14 28  1  0
 14 29  1  0
 15 30  1  0
 15 31  1  0
 16 32  1  0
 16 33  1  0
 17 34  1  0
 17 35  1  0
M  ISO  8  18  14  19  14  20   8  21   8  22   8  23   8  24   8  25  13
M  ISO  8  26  13  27  13  28  13  29  13  30  13  31  13  32  13  33  13
M  ISO  2  34  13  35  13
M  END
>  <minimizedAffinity>  (1) 
-5.31721354

>  <minimizedRMSD>  (1) 
1.01318979

$$$$
