
     RDKit          3D

 33 35  0  0  0  0  0  0  0  0999 V2000
   44.5570   35.9300   44.3220 C   0  0  0  0  0  0  0  0  0  0  0  0
   45.2640   35.8180   43.1220 C   0  0  0  0  0  0  0  0  0  0  0  0
   46.2280   34.8170   43.0010 C   0  0  0  0  0  0  0  0  0  0  0  0
   46.4350   33.9900   44.0760 N   0  0  0  0  0  0  0  0  0  0  0  0
   45.7250   34.1380   45.2200 C   0  0  0  0  0  0  0  0  0  0  0  0
   44.8040   35.0900   45.3400 N   0  0  0  0  0  0  0  0  0  0  0  0
   47.0550   34.5940   41.7580 C   0  0  0  0  0  0  0  0  0  0  0  0
   48.3400   35.4530   41.8840 C   0  0  0  0  0  0  0  0  0  0  0  0
   46.0430   33.1980   46.2750 C   0  0  0  0  0  0  0  0  0  0  0  0
   47.1500   32.6420   46.3310 O   0  0  0  0  0  0  0  0  0  0  0  0
   45.0800   32.9150   47.2490 O   0  0  0  0  0  0  0  0  0  0  0  0
   45.2490   31.7010   47.9410 C   0  0  0  0  0  0  0  0  0  0  0  0
   45.6480   31.4990   49.2660 C   0  0  0  0  0  0  0  0  0  0  0  0
   45.6660   30.1570   49.4840 N   0  0  0  0  0  0  0  0  0  0  0  0
   45.2890   29.5400   48.3260 C   0  0  0  0  0  0  0  0  0  0  0  0
   45.1460   28.1900   48.0200 C   0  0  0  0  0  0  0  0  0  0  0  0
   44.7390   27.8130   46.7380 C   0  0  0  0  0  0  0  0  0  0  0  0
   44.4740   28.7760   45.7620 C   0  0  0  0  0  0  0  0  0  0  0  0
   44.6190   30.1260   46.0770 C   0  0  0  0  0  0  0  0  0  0  0  0
   45.0210   30.4940   47.3430 C   0  0  0  0  0  0  0  0  0  0  0  0
   43.7920   36.7125   44.4336 H   0  0  0  0  0  0  0  0  0  0  0  0
   45.0641   36.5067   42.2879 H   0  0  0  0  0  0  0  0  0  0  0  0
   46.4849   34.9015   40.8689 H   0  0  0  0  0  0  0  0  0  0  0  0
   47.3127   33.5297   41.6534 H   0  0  0  0  0  0  0  0  0  0  0  0
   48.5738   35.6093   42.9475 H   0  0  0  0  0  0  0  0  0  0  0  0
   49.1780   34.9328   41.3970 H   0  0  0  0  0  0  0  0  0  0  0  0
   48.1797   36.4262   41.3970 H   0  0  0  0  0  0  0  0  0  0  0  0
   45.9006   32.2813   49.9969 H   0  0  0  0  0  0  0  0  0  0  0  0
   45.9191   29.6891   50.3660 H   0  0  0  0  0  0  0  0  0  0  0  0
   45.3521   27.4247   48.7828 H   0  0  0  0  0  0  0  0  0  0  0  0
   44.6260   26.7462   46.4947 H   0  0  0  0  0  0  0  0  0  0  0  0
   44.1539   28.4721   44.7544 H   0  0  0  0  0  0  0  0  0  0  0  0
   44.4133   30.8950   45.3179 H   0  0  0  0  0  0  0  0  0  0  0  0
  1  6  2  0
  2  1  1  0
  3  2  2  0
  3  4  1  0
  4  5  2  0
  5  6  1  0
  5  9  1  0
  7  8  1  0
  7  3  1  0
  9 10  2  0
  9 11  1  0
 11 12  1  0
 12 13  2  0
 13 14  1  0
 15 14  1  0
 16 15  2  0
 17 16  1  0
 18 19  1  0
 18 17  2  0
 19 20  2  0
 20 12  1  0
 20 15  1  0
  1 21  1  0
  2 22  1  0
  7 23  1  0
  7 24  1  0
  8 25  1  0
  8 26  1  0
  8 27  1  0
 13 28  1  0
 14 29  1  0
 16 30  1  0
 17 31  1  0
 18 32  1  0
 19 33  1  0
M  ISO  8  21  14  22  14  23   8  24   8  25   8  26   8  27   8  28  14
M  ISO  5  29   9  30  14  31  14  32  14  33  14
M  END
>  <minimizedAffinity>  (1) 
-5.52658701

>  <minimizedRMSD>  (1) 
2.53287196

$$$$
