
     RDKit          3D

 23 23  0  0  0  0  0  0  0  0999 V2000
   44.5000   35.9840   44.5010 C   0  0  0  0  0  0  0  0  0  0  0  0
   45.1520   35.8910   43.2610 C   0  0  0  0  0  0  0  0  0  0  0  0
   46.0760   34.8770   43.0810 C   0  0  0  0  0  0  0  0  0  0  0  0
   46.3230   34.0010   44.1170 N   0  0  0  0  0  0  0  0  0  0  0  0
   45.6720   34.1270   45.2970 C   0  0  0  0  0  0  0  0  0  0  0  0
   44.7800   35.0990   45.4850 N   0  0  0  0  0  0  0  0  0  0  0  0
   46.8330   34.6820   41.7940 C   0  0  0  0  0  0  0  0  0  0  0  0
   48.2120   35.3630   41.9280 C   0  0  0  0  0  0  0  0  0  0  0  0
   46.0110   33.1520   46.3100 C   0  0  0  0  0  0  0  0  0  0  0  0
   47.0490   32.4760   46.1940 O   0  0  0  0  0  0  0  0  0  0  0  0
   45.1720   32.9900   47.3940 O   0  0  0  0  0  0  0  0  0  0  0  0
   45.3730   31.9290   48.2750 C   0  0  0  0  0  0  0  0  0  0  0  0
   46.3570   31.9330   49.3050 N   0  0  0  0  0  0  0  0  0  0  0  0
   44.6370   30.8910   48.1590 O   0  0  0  0  0  0  0  0  0  0  0  0
   43.7593   36.7789   44.6728 H   0  0  0  0  0  0  0  0  0  0  0  0
   44.9339   36.6056   42.4537 H   0  0  0  0  0  0  0  0  0  0  0  0
   46.2742   35.1363   40.9625 H   0  0  0  0  0  0  0  0  0  0  0  0
   46.9612   33.6084   41.5914 H   0  0  0  0  0  0  0  0  0  0  0  0
   48.4588   35.4849   42.9930 H   0  0  0  0  0  0  0  0  0  0  0  0
   48.9776   34.7394   41.4432 H   0  0  0  0  0  0  0  0  0  0  0  0
   48.1822   36.3500   41.4432 H   0  0  0  0  0  0  0  0  0  0  0  0
   46.4567   31.1167   49.9252 H   0  0  0  0  0  0  0  0  0  0  0  0
   46.9688   32.7522   49.4296 H   0  0  0  0  0  0  0  0  0  0  0  0
  1  6  2  0
  2  1  1  0
  3  2  2  0
  3  4  1  0
  4  5  2  0
  5  6  1  0
  5  9  1  0
  7  8  1  0
  7  3  1  0
  9 11  1  0
 10  9  2  0
 11 12  1  0
 12 13  1  0
 14 12  2  0
  1 15  1  0
  2 16  1  0
  7 17  1  0
  7 18  1  0
  8 19  1  0
  8 20  1  0
  8 21  1  0
 13 22  1  0
 13 23  1  0
M  ISO  7  15  14  16  14  17   8  18   8  19   8  20   8  21   8
M  END
>  <minimizedAffinity>  (1) 
-4.78272438

>  <minimizedRMSD>  (1) 
1.22972167

$$$$
