
     RDKit          3D

 22 22  0  0  0  0  0  0  0  0999 V2000
   44.6220   35.7670   44.6610 C   0  0  0  0  0  0  0  0  0  0  0  0
   45.1960   35.8370   43.3860 C   0  0  0  0  0  0  0  0  0  0  0  0
   46.1070   34.8540   43.0190 C   0  0  0  0  0  0  0  0  0  0  0  0
   46.3910   33.8700   43.9280 N   0  0  0  0  0  0  0  0  0  0  0  0
   45.8260   33.8280   45.1420 C   0  0  0  0  0  0  0  0  0  0  0  0
   44.9480   34.7740   45.4980 N   0  0  0  0  0  0  0  0  0  0  0  0
   46.8020   34.8100   41.6720 C   0  0  0  0  0  0  0  0  0  0  0  0
   48.2470   35.3260   41.8700 C   0  0  0  0  0  0  0  0  0  0  0  0
   46.2200   32.7270   46.0060 C   0  0  0  0  0  0  0  0  0  0  0  0
   45.9100   31.5640   45.7060 O   0  0  0  0  0  0  0  0  0  0  0  0
   46.9370   33.0070   47.1510 O   0  0  0  0  0  0  0  0  0  0  0  0
   47.4410   31.9300   47.9320 C   0  0  0  0  0  0  0  0  0  0  0  0
   43.8984   36.5328   44.9773 H   0  0  0  0  0  0  0  0  0  0  0  0
   44.9326   36.6493   42.6926 H   0  0  0  0  0  0  0  0  0  0  0  0
   46.2699   35.4525   40.9550 H   0  0  0  0  0  0  0  0  0  0  0  0
   46.8107   33.7835   41.2768 H   0  0  0  0  0  0  0  0  0  0  0  0
   48.4645   35.4037   42.9455 H   0  0  0  0  0  0  0  0  0  0  0  0
   48.9540   34.6248   41.4026 H   0  0  0  0  0  0  0  0  0  0  0  0
   48.3499   36.3164   41.4026 H   0  0  0  0  0  0  0  0  0  0  0  0
   47.3296   32.1681   49.0001 H   0  0  0  0  0  0  0  0  0  0  0  0
   46.8781   31.0139   47.6999 H   0  0  0  0  0  0  0  0  0  0  0  0
   48.5050   31.7753   47.6999 H   0  0  0  0  0  0  0  0  0  0  0  0
  1  6  2  0
  2  1  1  0
  3  2  2  0
  3  4  1  0
  4  5  2  0
  5  6  1  0
  5  9  1  0
  7  8  1  0
  7  3  1  0
  9 11  1  0
 10  9  2  0
 11 12  1  0
  1 13  1  0
  2 14  1  0
  7 15  1  0
  7 16  1  0
  8 17  1  0
  8 18  1  0
  8 19  1  0
 12 20  1  0
 12 21  1  0
 12 22  1  0
M  ISO  8  13  14  14  14  15   8  16   8  17   8  18   8  19   8  20   8
M  ISO  2  21   8  22   8
M  END
>  <minimizedAffinity>  (1) 
-4.00145054

>  <minimizedRMSD>  (1) 
0.26203835

$$$$
