
     RDKit          3D

 22 22  0  0  0  0  0  0  0  0999 V2000
   44.7770   35.7900   44.2790 C   0  0  0  0  0  0  0  0  0  0  0  0
   45.4660   35.8820   43.0680 C   0  0  0  0  0  0  0  0  0  0  0  0
   46.3560   34.8750   42.7530 C   0  0  0  0  0  0  0  0  0  0  0  0
   46.5310   33.8300   43.6310 N   0  0  0  0  0  0  0  0  0  0  0  0
   45.8400   33.7920   44.7830 C   0  0  0  0  0  0  0  0  0  0  0  0
   44.9790   34.7500   45.1070 N   0  0  0  0  0  0  0  0  0  0  0  0
   47.1640   34.8590   41.4690 C   0  0  0  0  0  0  0  0  0  0  0  0
   48.5420   35.4990   41.7530 C   0  0  0  0  0  0  0  0  0  0  0  0
   46.1160   32.6310   45.6260 C   0  0  0  0  0  0  0  0  0  0  0  0
   46.0320   31.4780   45.1680 O   0  0  0  0  0  0  0  0  0  0  0  0
   46.4750   32.8540   46.9590 O   0  0  0  0  0  0  0  0  0  0  0  0
   45.4830   32.6080   47.9490 C   0  0  0  0  0  0  0  0  0  0  0  0
   44.9210   31.3510   47.7050 F   0  0  0  0  0  0  0  0  0  0  0  0
   45.9420   32.7020   49.2250 F   0  0  0  0  0  0  0  0  0  0  0  0
   44.4230   33.5090   47.8080 F   0  0  0  0  0  0  0  0  0  0  0  0
   44.0611   36.5769   44.5587 H   0  0  0  0  0  0  0  0  0  0  0  0
   45.3046   36.7302   42.3865 H   0  0  0  0  0  0  0  0  0  0  0  0
   46.6395   35.4352   40.6926 H   0  0  0  0  0  0  0  0  0  0  0  0
   47.2925   33.8253   41.1156 H   0  0  0  0  0  0  0  0  0  0  0  0
   48.6961   35.5706   42.8398 H   0  0  0  0  0  0  0  0  0  0  0  0
   49.3336   34.8764   41.3107 H   0  0  0  0  0  0  0  0  0  0  0  0
   48.5770   36.5055   41.3107 H   0  0  0  0  0  0  0  0  0  0  0  0
  1  6  2  0
  2  1  1  0
  3  2  2  0
  3  4  1  0
  4  5  2  0
  5  6  1  0
  5  9  1  0
  7  8  1  0
  7  3  1  0
  9 11  1  0
 10  9  2  0
 11 12  1  0
 12 14  1  0
 13 12  1  0
 15 12  1  0
  1 16  1  0
  2 17  1  0
  7 18  1  0
  7 19  1  0
  8 20  1  0
  8 21  1  0
  8 22  1  0
M  ISO  7  16  14  17  14  18   8  19   8  20   8  21   8  22   8
M  END
>  <minimizedAffinity>  (1) 
-4.76846695

>  <minimizedRMSD>  (1) 
1.42696321

$$$$
