
     RDKit          3D

 39 40  0  0  0  0  0  0  0  0999 V2000
   45.0300   33.9400   41.5050 C   0  0  0  0  0  0  0  0  0  0  0  0
   46.2250   34.4270   40.9590 C   0  0  0  0  0  0  0  0  0  0  0  0
   47.2410   34.8080   41.8320 C   0  0  0  0  0  0  0  0  0  0  0  0
   47.0230   34.6900   43.1910 N   0  0  0  0  0  0  0  0  0  0  0  0
   45.8550   34.2170   43.6560 C   0  0  0  0  0  0  0  0  0  0  0  0
   44.8650   33.8430   42.8350 N   0  0  0  0  0  0  0  0  0  0  0  0
   48.5520   35.3400   41.3460 C   0  0  0  0  0  0  0  0  0  0  0  0
   49.6180   35.0570   42.4410 C   0  0  0  0  0  0  0  0  0  0  0  0
   45.7400   34.1360   45.1140 C   0  0  0  0  0  0  0  0  0  0  0  0
   44.7980   34.6690   45.7000 O   0  0  0  0  0  0  0  0  0  0  0  0
   46.7160   33.4470   45.8160 O   0  0  0  0  0  0  0  0  0  0  0  0
   46.7480   32.0600   45.6460 C   0  0  0  0  0  0  0  0  0  0  0  0
   47.5930   31.6010   44.6410 C   0  0  0  0  0  0  0  0  0  0  0  0
   47.6340   30.2160   44.4610 C   0  0  0  0  0  0  0  0  0  0  0  0
   46.9060   29.3310   45.2040 N   0  0  0  0  0  0  0  0  0  0  0  0
   46.1060   29.8580   46.1650 C   0  0  0  0  0  0  0  0  0  0  0  0
   46.0240   31.1840   46.3860 N   0  0  0  0  0  0  0  0  0  0  0  0
   45.2470   29.0300   47.0620 C   0  0  0  0  0  0  0  0  0  0  0  0
   44.9920   29.7030   48.3940 C   0  0  0  0  0  0  0  0  0  0  0  0
   43.9730   28.6560   46.3770 C   0  0  0  0  0  0  0  0  0  0  0  0
   46.0520   27.7720   47.3570 C   0  0  0  0  0  0  0  0  0  0  0  0
   44.2142   33.6323   40.8344 H   0  0  0  0  0  0  0  0  0  0  0  0
   46.3571   34.5063   39.8698 H   0  0  0  0  0  0  0  0  0  0  0  0
   48.8354   34.8371   40.4097 H   0  0  0  0  0  0  0  0  0  0  0  0
   48.4790   36.4204   41.1525 H   0  0  0  0  0  0  0  0  0  0  0  0
   49.1633   35.1777   43.4353 H   0  0  0  0  0  0  0  0  0  0  0  0
   49.9922   34.0284   42.3314 H   0  0  0  0  0  0  0  0  0  0  0  0
   50.4531   35.7646   42.3314 H   0  0  0  0  0  0  0  0  0  0  0  0
   48.1929   32.2871   44.0250 H   0  0  0  0  0  0  0  0  0  0  0  0
   48.2909   29.8151   43.6751 H   0  0  0  0  0  0  0  0  0  0  0  0
   45.2535   29.0128   49.2096 H   0  0  0  0  0  0  0  0  0  0  0  0
   45.6085   30.6108   48.4701 H   0  0  0  0  0  0  0  0  0  0  0  0
   43.9287   29.9744   48.4701 H   0  0  0  0  0  0  0  0  0  0  0  0
   43.2041   28.4303   47.1306 H   0  0  0  0  0  0  0  0  0  0  0  0
   43.6355   29.4930   45.7481 H   0  0  0  0  0  0  0  0  0  0  0  0
   44.1414   27.7694   45.7481 H   0  0  0  0  0  0  0  0  0  0  0  0
   46.1376   27.6383   48.4455 H   0  0  0  0  0  0  0  0  0  0  0  0
   45.5435   26.9003   46.9193 H   0  0  0  0  0  0  0  0  0  0  0  0
   47.0566   27.8685   46.9193 H   0  0  0  0  0  0  0  0  0  0  0  0
  1  6  2  0
  2  1  1  0
  2  3  2  0
  3  4  1  0
  4  5  2  0
  5  9  1  0
  6  5  1  0
  7  3  1  0
  7  8  1  0
  9 10  2  0
  9 11  1  0
 12 11  1  0
 12 17  1  0
 13 12  2  0
 14 13  1  0
 14 15  2  0
 15 16  1  0
 16 17  2  0
 16 18  1  0
 18 21  1  0
 18 19  1  0
 20 18  1  0
  1 22  1  0
  2 23  1  0
  7 24  1  0
  7 25  1  0
  8 26  1  0
  8 27  1  0
  8 28  1  0
 13 29  1  0
 14 30  1  0
 19 31  1  0
 19 32  1  0
 19 33  1  0
 20 34  1  0
 20 35  1  0
 20 36  1  0
 21 37  1  0
 21 38  1  0
 21 39  1  0
M  ISO  8  22  14  23  14  24   8  25   8  26   8  27   8  28   8  29  14
M  ISO  8  30  14  31   8  32   8  33   8  34   8  35   8  36   8  37   8
M  ISO  2  38   8  39   8
M  END
>  <minimizedAffinity>  (1) 
-4.83571959

>  <minimizedRMSD>  (1) 
2.8199048

$$$$
