
     RDKit          3D

 29 30  0  0  0  0  0  0  0  0999 V2000
   44.3750   34.1740   41.4060 C   0  0  0  0  0  0  0  0  0  0  0  0
   45.5910   34.3280   40.7200 C   0  0  0  0  0  0  0  0  0  0  0  0
   46.7580   34.4990   41.4560 C   0  0  0  0  0  0  0  0  0  0  0  0
   46.6680   34.5110   42.8280 N   0  0  0  0  0  0  0  0  0  0  0  0
   45.4760   34.3590   43.4400 C   0  0  0  0  0  0  0  0  0  0  0  0
   44.3420   34.1930   42.7600 N   0  0  0  0  0  0  0  0  0  0  0  0
   48.0980   34.6700   40.8110 C   0  0  0  0  0  0  0  0  0  0  0  0
   48.8780   35.7610   41.5950 C   0  0  0  0  0  0  0  0  0  0  0  0
   45.5210   34.3910   44.9060 C   0  0  0  0  0  0  0  0  0  0  0  0
   44.6970   35.0750   45.5460 O   0  0  0  0  0  0  0  0  0  0  0  0
   46.4930   33.6470   45.5690 O   0  0  0  0  0  0  0  0  0  0  0  0
   46.1150   32.3950   46.0300 C   0  0  0  0  0  0  0  0  0  0  0  0
   46.0880   31.3920   45.0590 C   0  0  0  0  0  0  0  0  0  0  0  0
   45.7100   30.1320   45.5170 C   0  0  0  0  0  0  0  0  0  0  0  0
   45.3800   29.8320   46.7950 N   0  0  0  0  0  0  0  0  0  0  0  0
   45.4300   30.8690   47.6880 C   0  0  0  0  0  0  0  0  0  0  0  0
   45.7860   32.1150   47.3240 N   0  0  0  0  0  0  0  0  0  0  0  0
   45.0880   30.6400   49.0990 C   0  0  0  0  0  0  0  0  0  0  0  0
   45.1320   31.5230   49.9840 O   0  0  0  0  0  0  0  0  0  0  0  0
   43.4423   34.0369   40.8393 H   0  0  0  0  0  0  0  0  0  0  0  0
   45.6194   34.3136   39.6205 H   0  0  0  0  0  0  0  0  0  0  0  0
   48.6514   33.7199   40.8445 H   0  0  0  0  0  0  0  0  0  0  0  0
   47.9782   34.9700   39.7595 H   0  0  0  0  0  0  0  0  0  0  0  0
   48.7577   35.5927   42.6754 H   0  0  0  0  0  0  0  0  0  0  0  0
   49.9449   35.7090   41.3324 H   0  0  0  0  0  0  0  0  0  0  0  0
   48.4837   36.7537   41.3324 H   0  0  0  0  0  0  0  0  0  0  0  0
   46.3468   31.5833   44.0071 H   0  0  0  0  0  0  0  0  0  0  0  0
   45.6770   29.3152   44.7810 H   0  0  0  0  0  0  0  0  0  0  0  0
   44.7736   29.6284   49.3954 H   0  0  0  0  0  0  0  0  0  0  0  0
  1  6  2  0
  2  1  1  0
  2  3  2  0
  3  4  1  0
  4  5  2  0
  5  9  1  0
  6  5  1  0
  7  3  1  0
  7  8  1  0
  9 10  2  0
  9 11  1  0
 11 12  1  0
 12 17  2  0
 13 14  2  0
 13 12  1  0
 14 15  1  0
 15 16  2  0
 16 18  1  0
 17 16  1  0
 18 19  2  0
  1 20  1  0
  2 21  1  0
  7 22  1  0
  7 23  1  0
  8 24  1  0
  8 25  1  0
  8 26  1  0
 13 27  1  0
 14 28  1  0
 18 29  1  0
M  ISO  8  20  14  21  14  22   8  23   8  24   8  25   8  26   8  27  14
M  ISO  2  28  14  29   6
M  END
>  <minimizedAffinity>  (1) 
-4.97123623

>  <minimizedRMSD>  (1) 
1.30296171

$$$$
