
     RDKit          3D

 28 29  0  0  0  0  0  0  0  0999 V2000
   44.4890   33.9690   41.1330 C   0  0  0  0  0  0  0  0  0  0  0  0
   45.7030   34.1620   40.4850 C   0  0  0  0  0  0  0  0  0  0  0  0
   46.8120   34.4960   41.2360 C   0  0  0  0  0  0  0  0  0  0  0  0
   46.6830   34.6270   42.6030 N   0  0  0  0  0  0  0  0  0  0  0  0
   45.4730   34.4290   43.1940 C   0  0  0  0  0  0  0  0  0  0  0  0
   44.3860   34.1040   42.4820 N   0  0  0  0  0  0  0  0  0  0  0  0
   48.1740   34.7270   40.6310 C   0  0  0  0  0  0  0  0  0  0  0  0
   48.9250   35.7610   41.5140 C   0  0  0  0  0  0  0  0  0  0  0  0
   45.4500   34.5930   44.6370 C   0  0  0  0  0  0  0  0  0  0  0  0
   44.5520   35.2640   45.1710 O   0  0  0  0  0  0  0  0  0  0  0  0
   46.4440   33.9880   45.4050 O   0  0  0  0  0  0  0  0  0  0  0  0
   46.1170   32.7620   45.9870 C   0  0  0  0  0  0  0  0  0  0  0  0
   46.1250   31.6650   45.1170 C   0  0  0  0  0  0  0  0  0  0  0  0
   45.7990   30.4470   45.6980 C   0  0  0  0  0  0  0  0  0  0  0  0
   45.4840   30.2710   47.0180 N   0  0  0  0  0  0  0  0  0  0  0  0
   45.5000   31.3910   47.7940 C   0  0  0  0  0  0  0  0  0  0  0  0
   45.8070   32.5900   47.2880 N   0  0  0  0  0  0  0  0  0  0  0  0
   45.0940   31.2000   49.5290 S   0  0  0  0  0  0  0  0  0  0  0  0
   43.5978   33.7030   40.5457 H   0  0  0  0  0  0  0  0  0  0  0  0
   45.7789   34.0506   39.3933 H   0  0  0  0  0  0  0  0  0  0  0  0
   48.7355   33.7815   40.6046 H   0  0  0  0  0  0  0  0  0  0  0  0
   48.0752   35.1045   39.6025 H   0  0  0  0  0  0  0  0  0  0  0  0
   48.7558   35.5281   42.5757 H   0  0  0  0  0  0  0  0  0  0  0  0
   50.0022   35.7158   41.2958 H   0  0  0  0  0  0  0  0  0  0  0  0
   48.5488   36.7714   41.2958 H   0  0  0  0  0  0  0  0  0  0  0  0
   46.3719   31.7613   44.0494 H   0  0  0  0  0  0  0  0  0  0  0  0
   45.7935   29.5583   45.0498 H   0  0  0  0  0  0  0  0  0  0  0  0
   46.1221   31.6837   50.2945 H   0  0  0  0  0  0  0  0  0  0  0  0
  1  6  2  0
  2  1  1  0
  2  3  2  0
  3  4  1  0
  4  5  2  0
  5  9  1  0
  6  5  1  0
  7  3  1  0
  7  8  1  0
  9 10  2  0
  9 11  1  0
 11 12  1  0
 12 17  2  0
 13 14  2  0
 13 12  1  0
 14 15  1  0
 15 16  2  0
 16 18  1  0
 17 16  1  0
  1 19  1  0
  2 20  1  0
  7 21  1  0
  7 22  1  0
  8 23  1  0
  8 24  1  0
  8 25  1  0
 13 26  1  0
 14 27  1  0
 18 28  1  0
M  ISO  8  19  14  20  14  21   8  22   8  23   8  24   8  25   8  26  14
M  ISO  2  27  14  28  11
M  END
>  <minimizedAffinity>  (1) 
-4.80027914

>  <minimizedRMSD>  (1) 
1.30326033

$$$$
