
     RDKit          3D

 33 35  0  0  0  0  0  0  0  0999 V2000
   45.6830   34.2230   44.9610 C   0  0  0  0  0  0  0  0  0  0  0  0
   44.8060   34.7860   45.6330 O   0  0  0  0  0  0  0  0  0  0  0  0
   44.4360   33.9880   41.5000 C   0  0  0  0  0  0  0  0  0  0  0  0
   45.5950   34.2490   40.7850 C   0  0  0  0  0  0  0  0  0  0  0  0
   46.7570   34.4950   41.4640 C   0  0  0  0  0  0  0  0  0  0  0  0
   46.7540   34.4800   42.8450 N   0  0  0  0  0  0  0  0  0  0  0  0
   45.5940   34.2190   43.5070 C   0  0  0  0  0  0  0  0  0  0  0  0
   44.4470   33.9750   42.8620 N   0  0  0  0  0  0  0  0  0  0  0  0
   48.0750   34.7910   40.7910 C   0  0  0  0  0  0  0  0  0  0  0  0
   48.8880   35.7620   41.6800 C   0  0  0  0  0  0  0  0  0  0  0  0
   46.7720   33.5810   45.5710 O   0  0  0  0  0  0  0  0  0  0  0  0
   46.6810   32.1980   45.6920 C   0  0  0  0  0  0  0  0  0  0  0  0
   47.3440   31.4650   44.7000 C   0  0  0  0  0  0  0  0  0  0  0  0
   47.2540   30.0830   44.8190 C   0  0  0  0  0  0  0  0  0  0  0  0
   46.5710   29.4380   45.8240 N   0  0  0  0  0  0  0  0  0  0  0  0
   45.9550   30.2330   46.7450 C   0  0  0  0  0  0  0  0  0  0  0  0
   46.0130   31.5580   46.6740 N   0  0  0  0  0  0  0  0  0  0  0  0
   45.0640   29.4040   48.0570 S   0  0  0  0  0  0  0  0  0  0  0  0
   44.8950   27.6760   47.6320 C   0  0  0  0  0  0  0  0  0  0  0  0
   45.6200   26.6290   48.0260 N   0  0  0  0  0  0  0  0  0  0  0  0
   45.1710   25.5130   47.4850 O   0  0  0  0  0  0  0  0  0  0  0  0
   44.1530   25.8540   46.7410 C   0  0  0  0  0  0  0  0  0  0  0  0
   43.9530   27.1820   46.8090 N   0  0  0  0  0  0  0  0  0  0  0  0
   43.4976   33.7893   40.9615 H   0  0  0  0  0  0  0  0  0  0  0  0
   45.5804   34.2582   39.6851 H   0  0  0  0  0  0  0  0  0  0  0  0
   48.6381   33.8558   40.6556 H   0  0  0  0  0  0  0  0  0  0  0  0
   47.8952   35.2499   39.8076 H   0  0  0  0  0  0  0  0  0  0  0  0
   48.6981   35.5352   42.7395 H   0  0  0  0  0  0  0  0  0  0  0  0
   49.9606   35.6440   41.4663 H   0  0  0  0  0  0  0  0  0  0  0  0
   48.5833   36.7971   41.4663 H   0  0  0  0  0  0  0  0  0  0  0  0
   47.8981   31.9496   43.8826 H   0  0  0  0  0  0  0  0  0  0  0  0
   47.7607   29.4664   44.0620 H   0  0  0  0  0  0  0  0  0  0  0  0
   43.5469   25.1558   46.1450 H   0  0  0  0  0  0  0  0  0  0  0  0
  1 11  1  0
  1  2  2  0
  3  8  2  0
  4  5  2  0
  4  3  1  0
  5  6  1  0
  6  7  2  0
  7  1  1  0
  8  7  1  0
  9  5  1  0
  9 10  1  0
 11 12  1  0
 12 17  2  0
 13 14  2  0
 13 12  1  0
 14 15  1  0
 15 16  2  0
 16 18  1  0
 17 16  1  0
 19 20  2  0
 19 18  1  0
 21 20  1  0
 22 23  2  0
 22 21  1  0
 23 19  1  0
  3 24  1  0
  4 25  1  0
  9 26  1  0
  9 27  1  0
 10 28  1  0
 10 29  1  0
 10 30  1  0
 13 31  1  0
 14 32  1  0
 22 33  1  0
M  ISO  8  24  14  25  14  26   8  27   8  28   8  29   8  30   8  31  14
M  ISO  2  32  14  33  14
M  END
>  <minimizedAffinity>  (1) 
-4.61293125

>  <minimizedRMSD>  (1) 
1.79500175

$$$$
