
     RDKit          3D

 46 49  0  0  0  0  0  0  0  0999 V2000
   44.5375   33.9892   41.5226 C   0  0  0  0  0  0  0  0  0  0  0  0
   45.7016   34.2817   40.7989 C   0  0  0  0  0  0  0  0  0  0  0  0
   46.8727   34.4854   41.4719 C   0  0  0  0  0  0  0  0  0  0  0  0
   46.8773   34.3972   42.8536 N   0  0  0  0  0  0  0  0  0  0  0  0
   45.7272   34.1114   43.5210 C   0  0  0  0  0  0  0  0  0  0  0  0
   44.5664   33.9077   42.8804 N   0  0  0  0  0  0  0  0  0  0  0  0
   48.1580   34.8015   40.7789 C   0  0  0  0  0  0  0  0  0  0  0  0
   48.9557   35.8156   41.6551 C   0  0  0  0  0  0  0  0  0  0  0  0
   45.8365   34.0416   44.9591 C   0  0  0  0  0  0  0  0  0  0  0  0
   44.9862   34.5871   45.6826 O   0  0  0  0  0  0  0  0  0  0  0  0
   46.9223   33.3455   45.5257 O   0  0  0  0  0  0  0  0  0  0  0  0
   46.7853   31.9697   45.6319 C   0  0  0  0  0  0  0  0  0  0  0  0
   47.4406   31.2462   44.6335 C   0  0  0  0  0  0  0  0  0  0  0  0
   47.3089   29.8577   44.7313 C   0  0  0  0  0  0  0  0  0  0  0  0
   46.6115   29.2045   45.6985 N   0  0  0  0  0  0  0  0  0  0  0  0
   46.0013   29.9949   46.6361 C   0  0  0  0  0  0  0  0  0  0  0  0
   46.1062   31.3145   46.5725 N   0  0  0  0  0  0  0  0  0  0  0  0
   45.0750   29.1908   47.9248 S   0  0  0  0  0  0  0  0  0  0  0  0
   45.2207   27.3776   47.6648 C   0  0  1  0  0  0  0  0  0  0  0  0
   44.4603   26.5978   48.7379 C   0  0  0  0  0  0  0  0  0  0  0  0
   44.0188   26.6084   47.3128 C   0  0  2  0  0  0  0  0  0  0  0  0
   43.6096   33.8296   40.9605 H   0  0  0  0  0  0  0  0  0  0  0  0
   45.6863   34.3483   39.7162 H   0  0  0  0  0  0  0  0  0  0  0  0
   48.7598   33.9005   40.5907 H   0  0  0  0  0  0  0  0  0  0  0  0
   47.8906   35.3497   39.8400 H   0  0  0  0  0  0  0  0  0  0  0  0
   48.7481   36.8536   41.2966 H   0  0  0  0  0  0  0  0  0  0  0  0
   50.0351   35.5378   41.5102 H   0  0  0  0  0  0  0  0  0  0  0  0
   48.7255   35.6865   42.7176 H   0  0  0  0  0  0  0  0  0  0  0  0
   48.0031   31.6879   43.8478 H   0  0  0  0  0  0  0  0  0  0  0  0
   47.7939   29.2305   43.9861 H   0  0  0  0  0  0  0  0  0  0  0  0
   46.1963   27.0206   47.3127 H   0  0  0  0  0  0  0  0  0  0  0  0
   45.0193   25.6650   49.0370 H   0  0  0  0  0  0  0  0  0  0  0  0
   43.9099   27.1142   49.5203 H   0  0  0  0  0  0  0  0  0  0  0  0
   43.0871   27.1436   47.0784 H   0  0  0  0  0  0  0  0  0  0  0  0
   44.2116   25.3952   46.5236 N   0  0  0  0  0  0  0  0  0  0  0  0
   44.0065   25.5303   45.2006 C   0  0  0  0  0  0  0  0  0  0  0  0
   44.1865   24.3876   44.4444 C   0  0  0  0  0  0  0  0  0  0  0  0
   44.5538   23.2289   45.0973 C   0  0  0  0  0  0  0  0  0  0  0  0
   44.7230   22.0883   44.2633 N   0  0  0  0  0  0  0  0  0  0  0  0
   44.7437   23.1630   46.4336 N   0  0  0  0  0  0  0  0  0  0  0  0
   44.5695   24.2841   47.1931 C   0  0  0  0  0  0  0  0  0  0  0  0
   44.7256   24.3096   48.4411 O   0  0  0  0  0  0  0  0  0  0  0  0
   43.7235   26.4580   44.7622 H   0  0  0  0  0  0  0  0  0  0  0  0
   44.0301   24.4629   43.3832 H   0  0  0  0  0  0  0  0  0  0  0  0
   44.4825   21.1072   43.9997 H   0  0  0  0  0  0  0  0  0  0  0  0
   44.1101   21.2752   44.5308 H   0  0  0  0  0  0  0  0  0  0  0  0
  1  6  2  0
  2  3  2  0
  2  1  1  0
  3  4  1  0
  4  5  2  0
  5  9  1  0
  6  5  1  0
  7  3  1  0
  7  8  1  0
  9 11  1  0
  9 10  2  0
 11 12  1  0
 12 17  2  0
 13 14  2  0
 13 12  1  0
 14 15  1  0
 15 16  2  0
 16 18  1  0
 17 16  1  0
 19 18  1  0
 19 20  1  0
 21 19  1  0
 21 20  1  0
  1 22  1  0
  2 23  1  0
  7 24  1  0
  7 25  1  0
  8 26  1  0
  8 27  1  0
  8 28  1  0
 13 29  1  0
 14 30  1  0
 19 31  1  6
 20 32  1  0
 20 33  1  0
 21 34  1  1
 35 36  1  0
 36 37  2  0
 37 38  1  0
 38 39  1  0
 38 40  2  0
 40 41  1  0
 41 42  2  0
 41 35  1  0
 36 43  1  0
 37 44  1  0
 39 45  1  0
 39 46  1  0
 21 35  1  0
M  END
>  <DihAtoms>  (1) 
18,20,34,35

>  <DihDeg>  (1) 
111.9729786889245

$$$$
