
     RDKit          3D

 34 37  0  0  0  0  0  0  0  0999 V2000
   44.6570   35.7770   45.1180 C   0  0  0  0  0  0  0  0  0  0  0  0
   44.2150   35.7460   43.7670 C   0  0  0  0  0  0  0  0  0  0  0  0
   44.4650   34.6050   43.0300 C   0  0  0  0  0  0  0  0  0  0  0  0
   45.1170   33.5450   43.5900 N   0  0  0  0  0  0  0  0  0  0  0  0
   45.5280   33.6020   44.8860 C   0  0  0  0  0  0  0  0  0  0  0  0
   45.3010   34.6970   45.6270 N   0  0  0  0  0  0  0  0  0  0  0  0
   44.0310   34.5390   41.6600 C   0  0  0  0  0  0  0  0  0  0  0  0
   44.7620   34.0960   40.5670 C   0  0  0  0  0  0  0  0  0  0  0  0
   43.9910   34.1950   39.4640 N   0  0  0  0  0  0  0  0  0  0  0  0
   42.7630   34.6870   39.7470 C   0  0  0  0  0  0  0  0  0  0  0  0
   41.6490   34.9690   39.0060 C   0  0  0  0  0  0  0  0  0  0  0  0
   40.5200   35.4760   39.6030 C   0  0  0  0  0  0  0  0  0  0  0  0
   40.5250   35.6960   40.9650 C   0  0  0  0  0  0  0  0  0  0  0  0
   41.6640   35.4030   41.7030 C   0  0  0  0  0  0  0  0  0  0  0  0
   42.8140   34.8920   41.1170 C   0  0  0  0  0  0  0  0  0  0  0  0
   46.2200   32.4750   45.4760 C   0  0  0  0  0  0  0  0  0  0  0  0
   47.1600   31.6400   44.8640 C   0  0  0  0  0  0  0  0  0  0  0  0
   47.5820   30.7010   45.7350 N   0  0  0  0  0  0  0  0  0  0  0  0
   46.9090   30.9460   46.8920 C   0  0  0  0  0  0  0  0  0  0  0  0
   46.0870   32.0130   46.7410 N   0  0  0  0  0  0  0  0  0  0  0  0
   45.2070   32.5860   47.7370 C   0  0  0  0  0  0  0  0  0  0  0  0
   44.2300   31.6780   48.1550 F   0  0  0  0  0  0  0  0  0  0  0  0
   44.5910   33.7480   47.2790 F   0  0  0  0  0  0  0  0  0  0  0  0
   45.9300   32.8860   48.8940 F   0  0  0  0  0  0  0  0  0  0  0  0
   44.4791   36.6651   45.7423 H   0  0  0  0  0  0  0  0  0  0  0  0
   43.6901   36.6044   43.3224 H   0  0  0  0  0  0  0  0  0  0  0  0
   45.7975   33.7258   40.5950 H   0  0  0  0  0  0  0  0  0  0  0  0
   44.3007   33.9277   38.5187 H   0  0  0  0  0  0  0  0  0  0  0  0
   41.6567   34.7882   37.9210 H   0  0  0  0  0  0  0  0  0  0  0  0
   39.6257   35.7030   39.0041 H   0  0  0  0  0  0  0  0  0  0  0  0
   39.6319   36.1011   41.4633 H   0  0  0  0  0  0  0  0  0  0  0  0
   41.6548   35.5818   42.7883 H   0  0  0  0  0  0  0  0  0  0  0  0
   47.5049   31.7352   43.8238 H   0  0  0  0  0  0  0  0  0  0  0  0
   47.0167   30.3616   47.8176 H   0  0  0  0  0  0  0  0  0  0  0  0
  1  6  2  0
  2  1  1  0
  3  4  1  0
  3  2  2  0
  4  5  2  0
  5 16  1  0
  5  6  1  0
  7  3  1  0
  8  7  2  0
  9 10  1  0
  9  8  1  0
 10 15  2  0
 11 12  2  0
 11 10  1  0
 12 13  1  0
 13 14  2  0
 15  7  1  0
 15 14  1  0
 16 20  1  0
 17 16  2  0
 17 18  1  0
 18 19  2  0
 20 19  1  0
 20 21  1  0
 21 22  1  0
 21 24  1  0
 23 21  1  0
  1 25  1  0
  2 26  1  0
  8 27  1  0
  9 28  1  0
 11 29  1  0
 12 30  1  0
 13 31  1  0
 14 32  1  0
 17 33  1  0
 19 34  1  0
M  ISO  8  25  14  26  14  27  14  28   9  29  14  30  14  31  14  32  14
M  ISO  2  33  14  34  14
M  END
>  <minimizedAffinity>  (1) 
-6.99710178

>  <minimizedRMSD>  (1) 
1.31585681

$$$$
