
     RDKit          3D

 44 46  0  0  1  0  0  0  0  0999 V2000
   46.7760   32.0400   45.5740 C   0  0  0  0  0  0  0  0  0  0  0  0
   47.4800   31.3490   44.5710 C   0  0  0  0  0  0  0  0  0  0  0  0
   47.3860   29.9630   44.6230 C   0  0  0  0  0  0  0  0  0  0  0  0
   46.6770   29.2600   45.5530 N   0  0  0  0  0  0  0  0  0  0  0  0
   46.0220   30.0010   46.4910 C   0  0  0  0  0  0  0  0  0  0  0  0
   46.0850   31.3200   46.4780 N   0  0  0  0  0  0  0  0  0  0  0  0
   46.8790   33.4210   45.5100 O   0  0  0  0  0  0  0  0  0  0  0  0
   45.8090   34.0940   44.9300 C   0  0  0  0  0  0  0  0  0  0  0  0
   44.9490   34.6500   45.6450 O   0  0  0  0  0  0  0  0  0  0  0  0
   44.5130   33.9660   41.4960 C   0  0  0  0  0  0  0  0  0  0  0  0
   45.6730   34.2640   40.7600 C   0  0  0  0  0  0  0  0  0  0  0  0
   46.8490   34.4970   41.4450 C   0  0  0  0  0  0  0  0  0  0  0  0
   46.8570   34.4330   42.8220 N   0  0  0  0  0  0  0  0  0  0  0  0
   45.7070   34.1400   43.4900 C   0  0  0  0  0  0  0  0  0  0  0  0
   44.5560   33.9100   42.8450 N   0  0  0  0  0  0  0  0  0  0  0  0
   48.1350   34.8220   40.7420 C   0  0  0  0  0  0  0  0  0  0  0  0
   48.9530   35.8030   41.6330 C   0  0  0  0  0  0  0  0  0  0  0  0
   45.0860   29.1270   47.7230 S   0  0  0  0  0  0  0  0  0  0  0  0
   44.7810   27.4320   47.1190 C   0  0  1  0  0  0  0  0  0  0  0  0
   45.6240   26.4070   47.8770 C   0  0  0  0  0  0  0  0  0  0  0  0
   44.1330   26.4580   48.0120 C   0  0  2  0  0  0  0  0  0  0  0  0
   43.3180   25.3050   47.5100 C   0  0  0  0  0  0  0  0  0  0  0  0
   42.0300   25.8120   46.9080 C   0  0  0  0  0  0  0  0  0  0  0  0
   44.0390   24.3810   46.5820 C   0  0  0  0  0  0  0  0  0  0  0  0
   48.0648   31.8698   43.7985 H   0  0  0  0  0  0  0  0  0  0  0  0
   47.9248   29.3886   43.8550 H   0  0  0  0  0  0  0  0  0  0  0  0
   43.5652   33.7774   40.9706 H   0  0  0  0  0  0  0  0  0  0  0  0
   45.6444   34.3106   39.6614 H   0  0  0  0  0  0  0  0  0  0  0  0
   48.7121   33.8997   40.5796 H   0  0  0  0  0  0  0  0  0  0  0  0
   47.9240   35.2860   39.7672 H   0  0  0  0  0  0  0  0  0  0  0  0
   48.7656   35.5783   42.6934 H   0  0  0  0  0  0  0  0  0  0  0  0
   50.0254   35.6866   41.4175 H   0  0  0  0  0  0  0  0  0  0  0  0
   48.6458   36.8370   41.4175 H   0  0  0  0  0  0  0  0  0  0  0  0
   44.5789   27.7251   46.0782 H   0  0  0  0  0  0  0  0  0  0  0  0
   46.1044   25.5766   47.3388 H   0  0  0  0  0  0  0  0  0  0  0  0
   46.4798   26.4457   48.5670 H   0  0  0  0  0  0  0  0  0  0  0  0
   43.4176   26.5716   48.8398 H   0  0  0  0  0  0  0  0  0  0  0  0
   43.0963   24.6803   48.3878 H   0  0  0  0  0  0  0  0  0  0  0  0
   41.3323   26.0867   47.7128 H   0  0  0  0  0  0  0  0  0  0  0  0
   42.2385   26.6951   46.2862 H   0  0  0  0  0  0  0  0  0  0  0  0
   41.5806   25.0237   46.2862 H   0  0  0  0  0  0  0  0  0  0  0  0
   44.6119   23.6468   47.1675 H   0  0  0  0  0  0  0  0  0  0  0  0
   43.3097   23.8556   45.9478 H   0  0  0  0  0  0  0  0  0  0  0  0
   44.7259   24.9607   45.9478 H   0  0  0  0  0  0  0  0  0  0  0  0
  1  6  2  0
  2  3  2  0
  2  1  1  0
  3  4  1  0
  4  5  2  0
  5 18  1  0
  6  5  1  0
  7  1  1  0
  8  7  1  0
  8  9  2  0
 10 15  2  0
 11 12  2  0
 11 10  1  0
 12 13  1  0
 13 14  2  0
 14  8  1  0
 15 14  1  0
 16 12  1  0
 16 17  1  0
 19 18  1  0
 19 20  1  0
 19 21  1  0
 20 21  1  0
 22 21  1  0
 23 22  1  0
 24 22  1  0
  2 25  1  0
  3 26  1  0
 10 27  1  0
 11 28  1  0
 16 29  1  0
 16 30  1  0
 17 31  1  0
 17 32  1  0
 17 33  1  0
 19 34  1  6
 20 35  1  0
 20 36  1  0
 21 37  1  1
 22 38  1  0
 23 39  1  0
 23 40  1  0
 23 41  1  0
 24 42  1  0
 24 43  1  0
 24 44  1  0
M  ISO  8  25  14  26  14  27  14  28  14  29   8  30   8  31   8  32   8
M  ISO  8  33   8  34  13  35  13  36  13  37  13  38   8  39   8  40   8
M  ISO  4  41   8  42   8  43   8  44   8
M  END
>  <minimizedAffinity>  (1) 
-5.02489042

>  <minimizedRMSD>  (1) 
0.739705026

$$$$
