
     RDKit          3D

 42 45  0  0  1  0  0  0  0  0999 V2000
   46.7500   32.0290   45.6380 C   0  0  0  0  0  0  0  0  0  0  0  0
   47.4090   31.2910   44.6350 C   0  0  0  0  0  0  0  0  0  0  0  0
   47.2780   29.9210   44.7400 C   0  0  0  0  0  0  0  0  0  0  0  0
   46.5780   29.2530   45.7160 N   0  0  0  0  0  0  0  0  0  0  0  0
   45.9700   30.0550   46.6500 C   0  0  0  0  0  0  0  0  0  0  0  0
   46.0750   31.3660   46.5790 N   0  0  0  0  0  0  0  0  0  0  0  0
   46.8820   33.4060   45.5300 O   0  0  0  0  0  0  0  0  0  0  0  0
   45.8010   34.0890   44.9470 C   0  0  0  0  0  0  0  0  0  0  0  0
   44.9400   34.6430   45.6560 O   0  0  0  0  0  0  0  0  0  0  0  0
   44.5180   33.9880   41.5000 C   0  0  0  0  0  0  0  0  0  0  0  0
   45.6750   34.2680   40.7710 C   0  0  0  0  0  0  0  0  0  0  0  0
   46.8430   34.4800   41.4470 C   0  0  0  0  0  0  0  0  0  0  0  0
   46.8470   34.4130   42.8330 N   0  0  0  0  0  0  0  0  0  0  0  0
   45.7010   34.1380   43.5130 C   0  0  0  0  0  0  0  0  0  0  0  0
   44.5510   33.9290   42.8550 N   0  0  0  0  0  0  0  0  0  0  0  0
   48.1470   34.7890   40.7720 C   0  0  0  0  0  0  0  0  0  0  0  0
   48.9340   35.8090   41.6440 C   0  0  0  0  0  0  0  0  0  0  0  0
   45.0530   29.2320   47.9320 S   0  0  0  0  0  0  0  0  0  0  0  0
   45.2260   27.4350   47.7030 C   0  0  1  0  0  0  0  0  0  0  0  0
   44.4800   26.6150   48.7380 C   0  0  0  0  0  0  0  0  0  0  0  0
   44.0330   26.6360   47.3100 C   0  0  2  0  0  0  0  0  0  0  0  0
   44.3300   25.4910   46.3740 C   0  0  0  0  0  0  0  0  0  0  0  0
   43.1590   24.4990   46.2190 C   0  0  0  0  0  0  0  0  0  0  0  0
   44.4440   24.1040   46.8710 C   0  0  0  0  0  0  0  0  0  0  0  0
   47.9843   31.7703   43.8292 H   0  0  0  0  0  0  0  0  0  0  0  0
   47.7783   29.3096   43.9746 H   0  0  0  0  0  0  0  0  0  0  0  0
   43.5698   33.8134   40.9704 H   0  0  0  0  0  0  0  0  0  0  0  0
   45.6468   34.3170   39.6725 H   0  0  0  0  0  0  0  0  0  0  0  0
   48.7345   33.8655   40.6626 H   0  0  0  0  0  0  0  0  0  0  0  0
   47.9600   35.2155   39.7754 H   0  0  0  0  0  0  0  0  0  0  0  0
   48.7644   35.5892   42.7084 H   0  0  0  0  0  0  0  0  0  0  0  0
   50.0081   35.7309   41.4201 H   0  0  0  0  0  0  0  0  0  0  0  0
   48.5860   36.8282   41.4201 H   0  0  0  0  0  0  0  0  0  0  0  0
   46.2483   27.5012   47.3022 H   0  0  0  0  0  0  0  0  0  0  0  0
   44.9388   25.7086   49.1597 H   0  0  0  0  0  0  0  0  0  0  0  0
   44.0072   26.8237   49.7090 H   0  0  0  0  0  0  0  0  0  0  0  0
   43.0474   26.8156   46.8558 H   0  0  0  0  0  0  0  0  0  0  0  0
   44.9844   26.1035   45.7364 H   0  0  0  0  0  0  0  0  0  0  0  0
   42.2459   24.6201   46.8204 H   0  0  0  0  0  0  0  0  0  0  0  0
   42.5506   24.1222   45.3836 H   0  0  0  0  0  0  0  0  0  0  0  0
   45.1168   23.3984   46.3616 H   0  0  0  0  0  0  0  0  0  0  0  0
   44.7006   23.6615   47.8449 H   0  0  0  0  0  0  0  0  0  0  0  0
  1  6  2  0
  2  3  2  0
  2  1  1  0
  3  4  1  0
  4  5  2  0
  5 18  1  0
  6  5  1  0
  7  1  1  0
  8  7  1  0
  8  9  2  0
 10 15  2  0
 11 12  2  0
 11 10  1  0
 12 13  1  0
 13 14  2  0
 14  8  1  0
 15 14  1  0
 16 12  1  0
 16 17  1  0
 19 18  1  0
 19 20  1  0
 21 19  1  0
 21 20  1  0
 22 24  1  0
 22 21  1  0
 23 22  1  0
 23 24  1  0
  2 25  1  0
  3 26  1  0
 10 27  1  0
 11 28  1  0
 16 29  1  0
 16 30  1  0
 17 31  1  0
 17 32  1  0
 17 33  1  0
 19 34  1  6
 20 35  1  0
 20 36  1  0
 21 37  1  1
 22 38  1  0
 23 39  1  0
 23 40  1  0
 24 41  1  0
 24 42  1  0
M  ISO  8  25  14  26  14  27  14  28  14  29   8  30   8  31   8  32   8
M  ISO  8  33   8  34  13  35  13  36  13  37  13  38  13  39  13  40  13
M  ISO  2  41  13  42  13
M  END
>  <minimizedAffinity>  (1) 
-4.81198835

>  <minimizedRMSD>  (1) 
0.666274369

$$$$
