
     RDKit          3D

 26 26  0  0  0  0  0  0  0  0999 V2000
   45.3630   32.9760   47.2920 C   0  0  0  0  0  0  0  0  0  0  0  0
   45.7130   33.1430   45.9300 C   0  0  0  0  0  0  0  0  0  0  0  0
   46.8480   32.4460   45.5160 C   0  0  0  0  0  0  0  0  0  0  0  0
   47.5440   31.6680   46.3950 N   0  0  0  0  0  0  0  0  0  0  0  0
   47.1660   31.5460   47.6790 C   0  0  0  0  0  0  0  0  0  0  0  0
   46.0890   32.1990   48.1010 N   0  0  0  0  0  0  0  0  0  0  0  0
   44.9670   33.9590   45.0410 N   0  0  0  0  0  0  0  0  0  0  0  0
   44.6320   35.3200   45.2890 C   0  0  0  0  0  0  0  0  0  0  0  0
   44.3070   35.6000   46.5360 N   0  0  0  0  0  0  0  0  0  0  0  0
   44.6950   36.1960   44.1440 N   0  0  0  0  0  0  0  0  0  0  0  0
   44.0420   36.5590   46.8100 H   0  0  0  0  0  0  0  0  0  0  0  0
   47.9250   30.6990   48.6370 C   0  0  0  0  0  0  0  0  0  0  0  0
   48.4360   29.4330   48.0000 C   0  0  0  0  0  0  0  0  0  0  0  0
   49.0540   31.4890   49.2490 C   0  0  0  0  0  0  0  0  0  0  0  0
   44.4786   33.4946   47.6906 H   0  0  0  0  0  0  0  0  0  0  0  0
   47.1851   32.5241   44.4718 H   0  0  0  0  0  0  0  0  0  0  0  0
   44.6464   33.5385   44.1571 H   0  0  0  0  0  0  0  0  0  0  0  0
   44.4661   37.1950   44.2466 H   0  0  0  0  0  0  0  0  0  0  0  0
   44.9689   35.8223   43.2241 H   0  0  0  0  0  0  0  0  0  0  0  0
   47.2297   30.3942   49.4330 H   0  0  0  0  0  0  0  0  0  0  0  0
   48.7245   28.7182   48.7848 H   0  0  0  0  0  0  0  0  0  0  0  0
   47.6454   28.9920   47.3751 H   0  0  0  0  0  0  0  0  0  0  0  0
   49.3112   29.6644   47.3751 H   0  0  0  0  0  0  0  0  0  0  0  0
   48.9837   31.4398   50.3456 H   0  0  0  0  0  0  0  0  0  0  0  0
   50.0159   31.0659   48.9239 H   0  0  0  0  0  0  0  0  0  0  0  0
   48.9861   32.5377   48.9239 H   0  0  0  0  0  0  0  0  0  0  0  0
  1  6  2  0
  2  1  1  0
  3  2  2  0
  3  4  1  0
  4  5  2  0
  5  6  1  0
  5 12  1  0
  7  8  1  0
  7  2  1  0
  8  9  2  0
  9 11  1  0
 10  8  1  0
 12 14  1  0
 13 12  1  0
  1 15  1  0
  3 16  1  0
  7 17  1  0
 10 18  1  0
 10 19  1  0
 12 20  1  0
 13 21  1  0
 13 22  1  0
 13 23  1  0
 14 24  1  0
 14 25  1  0
 14 26  1  0
M  ISO  8  15  14  16  14  20   8  21   8  22   8  23   8  24   8  25   8
M  ISO  1  26   8
M  END
>  <minimizedAffinity>  (1) 
-4.64980507

>  <minimizedRMSD>  (1) 
1.44272697

$$$$
