
     RDKit          3D

 36 38  0  0  1  0  0  0  0  0999 V2000
   46.9010   33.3870   45.5120 O   0  0  0  0  0  0  0  0  0  0  0  0
   46.7800   31.9990   45.6030 C   0  0  0  0  0  0  0  0  0  0  0  0
   47.4220   31.2810   44.5990 C   0  0  0  0  0  0  0  0  0  0  0  0
   47.3140   29.9010   44.6720 C   0  0  0  0  0  0  0  0  0  0  0  0
   46.6340   29.2240   45.6410 N   0  0  0  0  0  0  0  0  0  0  0  0
   46.0250   30.0000   46.5990 C   0  0  0  0  0  0  0  0  0  0  0  0
   46.1170   31.3330   46.5470 N   0  0  0  0  0  0  0  0  0  0  0  0
   45.1190   29.1820   47.8980 S   0  0  0  0  0  0  0  0  0  0  0  0
   45.3800   27.3850   47.6900 C   0  0  1  0  0  0  0  0  0  0  0  0
   44.3570   26.5600   48.4640 C   0  0  0  0  0  0  0  0  0  0  0  0
   44.3680   26.5670   46.9820 C   0  0  1  0  0  0  0  0  0  0  0  0
   43.4030   27.2820   46.2700 O   0  0  0  0  0  0  0  0  0  0  0  0
   45.8210   34.0650   44.9450 C   0  0  0  0  0  0  0  0  0  0  0  0
   44.9680   34.6050   45.6600 O   0  0  0  0  0  0  0  0  0  0  0  0
   44.5060   33.9870   41.5100 C   0  0  0  0  0  0  0  0  0  0  0  0
   45.6630   34.2720   40.7710 C   0  0  0  0  0  0  0  0  0  0  0  0
   46.8390   34.4790   41.4360 C   0  0  0  0  0  0  0  0  0  0  0  0
   46.8720   34.4070   42.8220 N   0  0  0  0  0  0  0  0  0  0  0  0
   45.7150   34.1260   43.5000 C   0  0  0  0  0  0  0  0  0  0  0  0
   44.5620   33.9220   42.8630 N   0  0  0  0  0  0  0  0  0  0  0  0
   48.1360   34.7900   40.7480 C   0  0  0  0  0  0  0  0  0  0  0  0
   48.9350   35.8050   41.6360 C   0  0  0  0  0  0  0  0  0  0  0  0
   47.9825   31.7793   43.7943 H   0  0  0  0  0  0  0  0  0  0  0  0
   47.8133   29.3086   43.8912 H   0  0  0  0  0  0  0  0  0  0  0  0
   46.4721   27.4652   47.5854 H   0  0  0  0  0  0  0  0  0  0  0  0
   44.6738   25.6621   49.0149 H   0  0  0  0  0  0  0  0  0  0  0  0
   43.6092   26.7694   49.2431 H   0  0  0  0  0  0  0  0  0  0  0  0
   44.3798   25.7549   46.2401 H   0  0  0  0  0  0  0  0  0  0  0  0
   42.7925   27.7344   46.9046 H   0  0  0  0  0  0  0  0  0  0  0  0
   43.5513   33.8159   40.9911 H   0  0  0  0  0  0  0  0  0  0  0  0
   45.6248   34.3281   39.6731 H   0  0  0  0  0  0  0  0  0  0  0  0
   48.7204   33.8667   40.6215 H   0  0  0  0  0  0  0  0  0  0  0  0
   47.9434   35.2250   39.7562 H   0  0  0  0  0  0  0  0  0  0  0  0
   48.7585   35.5808   42.6983 H   0  0  0  0  0  0  0  0  0  0  0  0
   50.0093   35.7177   41.4164 H   0  0  0  0  0  0  0  0  0  0  0  0
   48.5979   36.8288   41.4164 H   0  0  0  0  0  0  0  0  0  0  0  0
  1  2  1  0
  2  7  2  0
  3  4  2  0
  3  2  1  0
  4  5  1  0
  5  6  2  0
  6  8  1  0
  7  6  1  0
  9  8  1  0
  9 10  1  0
 11  9  1  0
 11 10  1  0
 12 11  1  0
 13  1  1  0
 13 14  2  0
 15 20  2  0
 16 17  2  0
 16 15  1  0
 17 18  1  0
 18 19  2  0
 19 13  1  0
 20 19  1  0
 21 17  1  0
 21 22  1  0
  3 23  1  0
  4 24  1  0
  9 25  1  1
 10 26  1  0
 10 27  1  0
 11 28  1  6
 12 29  1  0
 15 30  1  0
 16 31  1  0
 21 32  1  0
 21 33  1  0
 22 34  1  0
 22 35  1  0
 22 36  1  0
M  ISO  8  23  14  24  14  25  13  26  13  27  13  28  13  29   3  30  14
M  ISO  6  31  14  32   8  33   8  34   8  35   8  36   8
M  END
>  <minimizedAffinity>  (1) 
-4.641366

>  <minimizedRMSD>  (1) 
0.210779443

$$$$
