
     RDKit          3D

 36 37  0  0  1  0  0  0  0  0999 V2000
   48.1110   30.9430   48.6500 C   0  0  1  0  0  0  0  0  0  0  0  0
   45.3750   33.0210   47.3340 C   0  0  0  0  0  0  0  0  0  0  0  0
   45.7030   33.1980   45.9580 C   0  0  0  0  0  0  0  0  0  0  0  0
   46.8840   32.5750   45.5210 C   0  0  0  0  0  0  0  0  0  0  0  0
   47.6480   31.8510   46.3930 N   0  0  0  0  0  0  0  0  0  0  0  0
   47.2880   31.7160   47.6930 C   0  0  0  0  0  0  0  0  0  0  0  0
   46.1660   32.3030   48.1250 N   0  0  0  0  0  0  0  0  0  0  0  0
   44.8960   33.9560   45.0620 N   0  0  0  0  0  0  0  0  0  0  0  0
   44.5920   35.3390   45.2540 C   0  0  0  0  0  0  0  0  0  0  0  0
   44.3590   35.6990   46.5060 N   0  0  0  0  0  0  0  0  0  0  0  0
   44.5830   36.1350   44.0600 N   0  0  0  0  0  0  0  0  0  0  0  0
   44.1130   36.6790   46.7290 H   0  0  0  0  0  0  0  0  0  0  0  0
   48.5500   29.6320   48.0920 C   0  0  0  0  0  0  0  0  0  0  0  0
   49.2830   31.7830   49.1170 C   0  0  0  0  0  0  0  0  0  0  0  0
   50.0030   31.2210   50.2180 N   0  0  0  0  0  0  0  0  0  0  0  0
   49.8550   29.9290   50.6410 C   0  0  0  0  0  0  0  0  0  0  0  0
   50.5670   29.4200   51.7070 C   0  0  0  0  0  0  0  0  0  0  0  0
   51.4670   30.2450   52.3790 C   0  0  0  0  0  0  0  0  0  0  0  0
   52.1450   29.8280   53.3640 O   0  0  0  0  0  0  0  0  0  0  0  0
   51.5970   31.5180   51.9440 N   0  0  0  0  0  0  0  0  0  0  0  0
   50.8910   31.9870   50.9010 C   0  0  0  0  0  0  0  0  0  0  0  0
   51.1280   33.1850   50.6250 O   0  0  0  0  0  0  0  0  0  0  0  0
   47.4851   30.7019   49.5218 H   0  0  0  0  0  0  0  0  0  0  0  0
   44.4632   33.4807   47.7430 H   0  0  0  0  0  0  0  0  0  0  0  0
   47.1958   32.6705   44.4704 H   0  0  0  0  0  0  0  0  0  0  0  0
   44.5114   33.4825   44.2321 H   0  0  0  0  0  0  0  0  0  0  0  0
   44.3726   37.1418   44.1139 H   0  0  0  0  0  0  0  0  0  0  0  0
   44.7869   35.6995   43.1492 H   0  0  0  0  0  0  0  0  0  0  0  0
   48.7812   28.9415   48.9165 H   0  0  0  0  0  0  0  0  0  0  0  0
   47.7447   29.2084   47.4739 H   0  0  0  0  0  0  0  0  0  0  0  0
   49.4480   29.7788   47.4739 H   0  0  0  0  0  0  0  0  0  0  0  0
   49.9795   31.9030   48.2741 H   0  0  0  0  0  0  0  0  0  0  0  0
   48.8680   32.7404   49.4652 H   0  0  0  0  0  0  0  0  0  0  0  0
   49.1451   29.2745   50.1140 H   0  0  0  0  0  0  0  0  0  0  0  0
   50.4262   28.3758   52.0229 H   0  0  0  0  0  0  0  0  0  0  0  0
   52.2558   32.1465   52.4255 H   0  0  0  0  0  0  0  0  0  0  0  0
  1 14  1  0
  2  7  2  0
  3  2  1  0
  4  3  2  0
  4  5  1  0
  5  6  2  0
  6  7  1  0
  6  1  1  0
  8  9  1  0
  8  3  1  0
  9 10  2  0
 10 12  1  0
 11  9  1  0
 13  1  1  0
 14 15  1  0
 15 16  1  0
 15 21  1  0
 16 17  2  0
 17 18  1  0
 18 19  2  0
 20 18  1  0
 21 20  1  0
 22 21  2  0
  1 23  1  1
  2 24  1  0
  4 25  1  0
  8 26  1  0
 11 27  1  0
 11 28  1  0
 13 29  1  0
 13 30  1  0
 13 31  1  0
 14 32  1  0
 14 33  1  0
 16 34  1  0
 17 35  1  0
 20 36  1  0
M  ISO  8  23   8  24  14  25  14  29   8  30   8  31   8  32   8  33   8
M  ISO  3  34  14  35  14  36   9
M  END
>  <minimizedAffinity>  (1) 
-6.00260496

>  <minimizedRMSD>  (1) 
0.667142928

$$$$
