
     RDKit          3D

 39 41  0  0  1  0  0  0  0  0999 V2000
   48.1260   30.8610   48.6760 C   0  0  1  0  0  0  0  0  0  0  0  0
   45.4200   32.9870   47.3530 C   0  0  0  0  0  0  0  0  0  0  0  0
   45.7480   33.1620   45.9830 C   0  0  0  0  0  0  0  0  0  0  0  0
   46.9200   32.5230   45.5520 C   0  0  0  0  0  0  0  0  0  0  0  0
   47.6610   31.7920   46.4350 N   0  0  0  0  0  0  0  0  0  0  0  0
   47.2980   31.6600   47.7330 C   0  0  0  0  0  0  0  0  0  0  0  0
   46.1930   32.2520   48.1720 N   0  0  0  0  0  0  0  0  0  0  0  0
   44.9390   33.9350   45.1100 N   0  0  0  0  0  0  0  0  0  0  0  0
   44.5940   35.2910   45.3150 C   0  0  0  0  0  0  0  0  0  0  0  0
   44.3590   35.6390   46.5590 N   0  0  0  0  0  0  0  0  0  0  0  0
   44.5480   36.1030   44.1340 N   0  0  0  0  0  0  0  0  0  0  0  0
   44.0840   36.5960   46.8120 H   0  0  0  0  0  0  0  0  0  0  0  0
   48.5560   29.5530   48.1020 C   0  0  0  0  0  0  0  0  0  0  0  0
   49.3160   31.6910   49.1390 C   0  0  0  0  0  0  0  0  0  0  0  0
   49.9740   31.0760   50.2540 N   0  0  0  0  0  0  0  0  0  0  0  0
   49.9650   29.8340   50.7710 C   0  0  0  0  0  0  0  0  0  0  0  0
   50.7750   29.7500   51.8550 N   0  0  0  0  0  0  0  0  0  0  0  0
   51.3290   30.9590   52.0580 C   0  0  0  0  0  0  0  0  0  0  0  0
   52.2170   31.4320   53.0040 C   0  0  0  0  0  0  0  0  0  0  0  0
   52.5820   32.7260   52.9240 N   0  0  0  0  0  0  0  0  0  0  0  0
   52.1100   33.5480   51.9630 C   0  0  0  0  0  0  0  0  0  0  0  0
   51.2460   33.0510   51.0580 N   0  0  0  0  0  0  0  0  0  0  0  0
   50.8280   31.7750   51.0600 C   0  0  0  0  0  0  0  0  0  0  0  0
   52.7110   30.5650   54.0130 N   0  0  0  0  0  0  0  0  0  0  0  0
   47.5013   30.6111   49.5462 H   0  0  0  0  0  0  0  0  0  0  0  0
   44.5131   33.4633   47.7537 H   0  0  0  0  0  0  0  0  0  0  0  0
   47.2415   32.6109   44.5037 H   0  0  0  0  0  0  0  0  0  0  0  0
   44.5759   33.4738   44.2636 H   0  0  0  0  0  0  0  0  0  0  0  0
   44.3039   37.1012   44.2045 H   0  0  0  0  0  0  0  0  0  0  0  0
   44.7590   35.6881   43.2152 H   0  0  0  0  0  0  0  0  0  0  0  0
   48.7863   28.8524   48.9182 H   0  0  0  0  0  0  0  0  0  0  0  0
   47.7462   29.1405   47.4823 H   0  0  0  0  0  0  0  0  0  0  0  0
   49.4526   29.7015   47.4823 H   0  0  0  0  0  0  0  0  0  0  0  0
   50.0311   31.7873   48.3088 H   0  0  0  0  0  0  0  0  0  0  0  0
   48.9503   32.6800   49.4523 H   0  0  0  0  0  0  0  0  0  0  0  0
   49.3774   28.9964   50.3671 H   0  0  0  0  0  0  0  0  0  0  0  0
   52.4245   34.6012   51.9202 H   0  0  0  0  0  0  0  0  0  0  0  0
   53.3732   30.9195   54.7177 H   0  0  0  0  0  0  0  0  0  0  0  0
   52.4073   29.5812   54.0406 H   0  0  0  0  0  0  0  0  0  0  0  0
  1 14  1  0
  2  7  2  0
  3  2  1  0
  4  3  2  0
  4  5  1  0
  5  6  2  0
  6  7  1  0
  6  1  1  0
  8  9  1  0
  8  3  1  0
  9 10  2  0
 10 12  1  0
 11  9  1  0
 13  1  1  0
 14 15  1  0
 15 16  1  0
 15 23  1  0
 16 17  2  0
 17 18  1  0
 18 19  2  0
 19 24  1  0
 20 19  1  0
 21 20  2  0
 22 23  2  0
 22 21  1  0
 23 18  1  0
  1 25  1  1
  2 26  1  0
  4 27  1  0
  8 28  1  0
 11 29  1  0
 11 30  1  0
 13 31  1  0
 13 32  1  0
 13 33  1  0
 14 34  1  0
 14 35  1  0
 16 36  1  0
 21 37  1  0
 24 38  1  0
 24 39  1  0
M  ISO  8  25   8  26  14  27  14  31   8  32   8  33   8  34   8  35   8
M  ISO  2  36  14  37  14
M  END
>  <minimizedAffinity>  (1) 
-6.33896017

>  <minimizedRMSD>  (1) 
0.624180377

$$$$
