
     RDKit          3D

 41 42  0  0  1  0  0  0  0  0999 V2000
   45.3360   32.9940   47.2680 C   0  0  0  0  0  0  0  0  0  0  0  0
   45.7030   33.1870   45.9130 C   0  0  0  0  0  0  0  0  0  0  0  0
   46.8580   32.5330   45.5090 C   0  0  0  0  0  0  0  0  0  0  0  0
   47.5710   31.7650   46.3760 N   0  0  0  0  0  0  0  0  0  0  0  0
   47.1880   31.6100   47.6460 C   0  0  0  0  0  0  0  0  0  0  0  0
   46.0750   32.2300   48.0670 N   0  0  0  0  0  0  0  0  0  0  0  0
   44.9390   33.9950   45.0300 N   0  0  0  0  0  0  0  0  0  0  0  0
   44.6150   35.3560   45.2620 C   0  0  0  0  0  0  0  0  0  0  0  0
   44.3340   35.6740   46.5040 N   0  0  0  0  0  0  0  0  0  0  0  0
   44.6370   36.2120   44.1040 N   0  0  0  0  0  0  0  0  0  0  0  0
   44.0560   36.6200   46.7750 H   0  0  0  0  0  0  0  0  0  0  0  0
   47.9400   30.7780   48.6460 C   0  0  1  0  0  0  0  0  0  0  0  0
   48.3670   29.4690   48.0150 C   0  0  0  0  0  0  0  0  0  0  0  0
   49.1410   31.5310   49.1260 C   0  0  0  0  0  0  0  0  0  0  0  0
   50.1450   30.7130   49.6190 N   0  0  0  0  0  0  0  0  0  0  0  0
   51.3660   30.6560   48.8790 C   0  0  0  0  0  0  0  0  0  0  0  0
   52.5060   31.0610   49.7640 C   0  0  0  0  0  0  0  0  0  0  0  0
   51.9630   31.8570   50.9290 C   0  0  0  0  0  0  0  0  0  0  0  0
   51.1700   30.8820   51.7730 C   0  0  0  0  0  0  0  0  0  0  0  0
   50.1490   30.1500   50.8880 C   0  0  0  0  0  0  0  0  0  0  0  0
   44.4317   33.4805   47.6624 H   0  0  0  0  0  0  0  0  0  0  0  0
   47.2030   32.6374   44.4697 H   0  0  0  0  0  0  0  0  0  0  0  0
   44.5962   33.5624   44.1603 H   0  0  0  0  0  0  0  0  0  0  0  0
   44.4119   37.2126   44.1989 H   0  0  0  0  0  0  0  0  0  0  0  0
   44.8778   35.8236   43.1809 H   0  0  0  0  0  0  0  0  0  0  0  0
   47.2837   30.5615   49.5018 H   0  0  0  0  0  0  0  0  0  0  0  0
   48.6044   28.7413   48.8050 H   0  0  0  0  0  0  0  0  0  0  0  0
   47.5495   29.0790   47.3908 H   0  0  0  0  0  0  0  0  0  0  0  0
   49.2572   29.6360   47.3908 H   0  0  0  0  0  0  0  0  0  0  0  0
   49.5468   32.1121   48.2848 H   0  0  0  0  0  0  0  0  0  0  0  0
   48.8102   32.1734   49.9554 H   0  0  0  0  0  0  0  0  0  0  0  0
   51.5286   29.6296   48.5183 H   0  0  0  0  0  0  0  0  0  0  0  0
   51.3068   31.3413   48.0206 H   0  0  0  0  0  0  0  0  0  0  0  0
   53.0201   30.1633   50.1379 H   0  0  0  0  0  0  0  0  0  0  0  0
   53.2202   31.6739   49.1946 H   0  0  0  0  0  0  0  0  0  0  0  0
   52.7887   32.2857   51.5159 H   0  0  0  0  0  0  0  0  0  0  0  0
   51.3357   32.6929   50.5859 H   0  0  0  0  0  0  0  0  0  0  0  0
   51.8538   30.1494   52.2266 H   0  0  0  0  0  0  0  0  0  0  0  0
   50.6408   31.4302   52.5663 H   0  0  0  0  0  0  0  0  0  0  0  0
   49.1470   30.2417   51.3324 H   0  0  0  0  0  0  0  0  0  0  0  0
   50.4236   29.0873   50.8155 H   0  0  0  0  0  0  0  0  0  0  0  0
  1  6  2  0
  2  1  1  0
  3  2  2  0
  3  4  1  0
  4  5  2  0
  5  6  1  0
  5 12  1  0
  7  8  1  0
  7  2  1  0
  8  9  2  0
  9 11  1  0
 10  8  1  0
 12 14  1  0
 13 12  1  0
 14 15  1  0
 15 20  1  0
 16 15  1  0
 16 17  1  0
 17 18  1  0
 18 19  1  0
 20 19  1  0
  1 21  1  0
  3 22  1  0
  7 23  1  0
 10 24  1  0
 10 25  1  0
 12 26  1  1
 13 27  1  0
 13 28  1  0
 13 29  1  0
 14 30  1  0
 14 31  1  0
 16 32  1  0
 16 33  1  0
 17 34  1  0
 17 35  1  0
 18 36  1  0
 18 37  1  0
 19 38  1  0
 19 39  1  0
 20 40  1  0
 20 41  1  0
M  ISO  8  21  14  22  14  26   8  27   8  28   8  29   8  30   8  31   8
M  ISO  8  32  13  33  13  34  13  35  13  36  13  37  13  38  13  39  13
M  ISO  2  40  13  41  13
M  END
>  <minimizedAffinity>  (1) 
-5.2440629

>  <minimizedRMSD>  (1) 
0.615628719

$$$$
