
     RDKit          3D

 27 27  0  0  1  0  0  0  0  0999 V2000
   45.4700   32.8680   47.0510 C   0  0  0  0  0  0  0  0  0  0  0  0
   45.6840   33.0170   45.6490 C   0  0  0  0  0  0  0  0  0  0  0  0
   46.6320   32.1580   45.0690 C   0  0  0  0  0  0  0  0  0  0  0  0
   47.2840   31.2490   45.8530 N   0  0  0  0  0  0  0  0  0  0  0  0
   47.0380   31.1530   47.1810 C   0  0  0  0  0  0  0  0  0  0  0  0
   46.1490   31.9530   47.7420 N   0  0  0  0  0  0  0  0  0  0  0  0
   44.9840   33.9800   44.8590 N   0  0  0  0  0  0  0  0  0  0  0  0
   44.6720   35.2940   45.3040 C   0  0  0  0  0  0  0  0  0  0  0  0
   44.3390   35.4040   46.5690 N   0  0  0  0  0  0  0  0  0  0  0  0
   44.7680   36.3220   44.2990 N   0  0  0  0  0  0  0  0  0  0  0  0
   44.0350   36.3040   46.9660 H   0  0  0  0  0  0  0  0  0  0  0  0
   47.7710   30.1570   48.0070 C   0  0  1  0  0  0  0  0  0  0  0  0
   47.6230   28.7600   47.5050 C   0  0  0  0  0  0  0  0  0  0  0  0
   49.2390   30.5540   48.1160 C   0  0  0  0  0  0  0  0  0  0  0  0
   49.6150   31.2840   49.7110 S   0  0  0  0  0  0  0  0  0  0  0  0
   44.7407   33.5117   47.5647 H   0  0  0  0  0  0  0  0  0  0  0  0
   46.8477   32.2168   43.9920 H   0  0  0  0  0  0  0  0  0  0  0  0
   44.6879   33.7063   43.9112 H   0  0  0  0  0  0  0  0  0  0  0  0
   44.5579   37.3007   44.5417 H   0  0  0  0  0  0  0  0  0  0  0  0
   45.0467   36.0782   43.3379 H   0  0  0  0  0  0  0  0  0  0  0  0
   47.3180   30.1647   49.0094 H   0  0  0  0  0  0  0  0  0  0  0  0
   47.5499   28.0696   48.3582 H   0  0  0  0  0  0  0  0  0  0  0  0
   46.7119   28.6848   46.8933 H   0  0  0  0  0  0  0  0  0  0  0  0
   48.4982   28.4955   46.8933 H   0  0  0  0  0  0  0  0  0  0  0  0
   49.8614   29.6574   47.9791 H   0  0  0  0  0  0  0  0  0  0  0  0
   49.4491   31.3036   47.3388 H   0  0  0  0  0  0  0  0  0  0  0  0
   49.1849   30.4489   50.7082 H   0  0  0  0  0  0  0  0  0  0  0  0
  1  6  2  0
  2  1  1  0
  3  2  2  0
  3  4  1  0
  4  5  2  0
  5  6  1  0
  5 12  1  0
  7  8  1  0
  7  2  1  0
  8  9  2  0
  9 11  1  0
 10  8  1  0
 12 14  1  0
 13 12  1  0
 14 15  1  0
  1 16  1  0
  3 17  1  0
  7 18  1  0
 10 19  1  0
 10 20  1  0
 12 21  1  1
 13 22  1  0
 13 23  1  0
 13 24  1  0
 14 25  1  0
 14 26  1  0
 15 27  1  0
M  ISO  8  16  14  17  14  21   8  22   8  23   8  24   8  25   8  26   8
M  ISO  1  27  11
M  END
>  <minimizedAffinity>  (1) 
-4.261549

>  <minimizedRMSD>  (1) 
0.857766032

$$$$
