
     RDKit          3D

 33 33  0  0  1  0  0  0  0  0999 V2000
   45.4490   32.9180   47.1790 C   0  0  0  0  0  0  0  0  0  0  0  0
   45.7660   33.0920   45.8110 C   0  0  0  0  0  0  0  0  0  0  0  0
   46.8570   32.3530   45.3330 C   0  0  0  0  0  0  0  0  0  0  0  0
   47.5380   31.5260   46.1810 N   0  0  0  0  0  0  0  0  0  0  0  0
   47.1890   31.4020   47.4740 C   0  0  0  0  0  0  0  0  0  0  0  0
   46.1560   32.0910   47.9620 N   0  0  0  0  0  0  0  0  0  0  0  0
   45.0080   33.9650   44.9890 N   0  0  0  0  0  0  0  0  0  0  0  0
   44.6490   35.2920   45.3090 C   0  0  0  0  0  0  0  0  0  0  0  0
   44.3350   35.5030   46.5550 N   0  0  0  0  0  0  0  0  0  0  0  0
   44.6770   36.2290   44.2280 N   0  0  0  0  0  0  0  0  0  0  0  0
   43.9610   36.3930   46.9040 H   0  0  0  0  0  0  0  0  0  0  0  0
   47.9430   30.4830   48.3880 C   0  0  1  0  0  0  0  0  0  0  0  0
   48.0860   29.1140   47.8350 C   0  0  0  0  0  0  0  0  0  0  0  0
   49.2820   31.1020   48.7190 C   0  0  0  0  0  0  0  0  0  0  0  0
   49.8490   30.8170   50.3650 S   0  0  0  0  0  0  0  0  0  0  0  0
   50.4370   29.1600   50.6570 C   0  0  0  0  0  0  0  0  0  0  0  0
   50.7560   28.9180   52.1030 C   0  0  0  0  0  0  0  0  0  0  0  0
   44.6032   33.4740   47.6097 H   0  0  0  0  0  0  0  0  0  0  0  0
   47.1635   32.4385   44.2800 H   0  0  0  0  0  0  0  0  0  0  0  0
   44.6922   33.5987   44.0796 H   0  0  0  0  0  0  0  0  0  0  0  0
   44.4260   37.2141   44.3937 H   0  0  0  0  0  0  0  0  0  0  0  0
   44.9482   35.9184   43.2841 H   0  0  0  0  0  0  0  0  0  0  0  0
   47.3617   30.3624   49.3140 H   0  0  0  0  0  0  0  0  0  0  0  0
   48.1615   28.3911   48.6606 H   0  0  0  0  0  0  0  0  0  0  0  0
   47.2080   28.8746   47.2171 H   0  0  0  0  0  0  0  0  0  0  0  0
   48.9945   29.0612   47.2171 H   0  0  0  0  0  0  0  0  0  0  0  0
   50.0292   30.6902   48.0247 H   0  0  0  0  0  0  0  0  0  0  0  0
   49.1496   32.1898   48.6236 H   0  0  0  0  0  0  0  0  0  0  0  0
   49.6602   28.4478   50.3417 H   0  0  0  0  0  0  0  0  0  0  0  0
   51.3634   29.0239   50.0796 H   0  0  0  0  0  0  0  0  0  0  0  0
   50.0377   29.4629   52.7331 H   0  0  0  0  0  0  0  0  0  0  0  0
   50.6893   27.8413   52.3180 H   0  0  0  0  0  0  0  0  0  0  0  0
   51.7749   29.2724   52.3180 H   0  0  0  0  0  0  0  0  0  0  0  0
  1  6  2  0
  2  1  1  0
  3  2  2  0
  3  4  1  0
  4  5  2  0
  5  6  1  0
  5 12  1  0
  7  8  1  0
  7  2  1  0
  8  9  2  0
  9 11  1  0
 10  8  1  0
 12 14  1  0
 13 12  1  0
 14 15  1  0
 15 16  1  0
 16 17  1  0
  1 18  1  0
  3 19  1  0
  7 20  1  0
 10 21  1  0
 10 22  1  0
 12 23  1  1
 13 24  1  0
 13 25  1  0
 13 26  1  0
 14 27  1  0
 14 28  1  0
 16 29  1  0
 16 30  1  0
 17 31  1  0
 17 32  1  0
 17 33  1  0
M  ISO  8  18  14  19  14  23   8  24   8  25   8  26   8  27   8  28   8
M  ISO  5  29   8  30   8  31   8  32   8  33   8
M  END
>  <minimizedAffinity>  (1) 
-4.53701782

>  <minimizedRMSD>  (1) 
0.791104436

$$$$
