
     RDKit          3D

 30 30  0  0  1  0  0  0  0  0999 V2000
   45.3170   33.0220   47.2340 C   0  0  0  0  0  0  0  0  0  0  0  0
   45.7000   33.1990   45.8820 C   0  0  0  0  0  0  0  0  0  0  0  0
   46.8760   32.5450   45.4780 C   0  0  0  0  0  0  0  0  0  0  0  0
   47.5700   31.7950   46.3750 N   0  0  0  0  0  0  0  0  0  0  0  0
   47.1570   31.6590   47.6610 C   0  0  0  0  0  0  0  0  0  0  0  0
   46.0450   32.2700   48.0690 N   0  0  0  0  0  0  0  0  0  0  0  0
   44.9240   33.9970   45.0020 N   0  0  0  0  0  0  0  0  0  0  0  0
   44.6160   35.3630   45.1840 C   0  0  0  0  0  0  0  0  0  0  0  0
   44.3630   35.7190   46.4130 N   0  0  0  0  0  0  0  0  0  0  0  0
   44.6190   36.1870   44.0100 N   0  0  0  0  0  0  0  0  0  0  0  0
   43.9990   36.6370   46.6780 H   0  0  0  0  0  0  0  0  0  0  0  0
   47.9440   30.8250   48.6100 C   0  0  1  0  0  0  0  0  0  0  0  0
   48.4290   29.5540   48.0030 C   0  0  0  0  0  0  0  0  0  0  0  0
   49.0870   31.6530   49.1850 C   0  0  0  0  0  0  0  0  0  0  0  0
   50.0370   30.7110   50.3810 S   0  0  0  0  0  0  0  0  0  0  0  0
   51.2940   31.7970   51.1240 C   0  0  0  0  0  0  0  0  0  0  0  0
   50.9670   32.0950   52.4390 F   0  0  0  0  0  0  0  0  0  0  0  0
   52.5370   31.2260   51.0250 F   0  0  0  0  0  0  0  0  0  0  0  0
   51.2660   32.9910   50.4120 F   0  0  0  0  0  0  0  0  0  0  0  0
   44.4044   33.5115   47.6050 H   0  0  0  0  0  0  0  0  0  0  0  0
   47.2333   32.6392   44.4419 H   0  0  0  0  0  0  0  0  0  0  0  0
   44.5530   33.5400   44.1568 H   0  0  0  0  0  0  0  0  0  0  0  0
   44.4013   37.1909   44.0849 H   0  0  0  0  0  0  0  0  0  0  0  0
   44.8389   35.7748   43.0920 H   0  0  0  0  0  0  0  0  0  0  0  0
   47.2747   30.5185   49.4273 H   0  0  0  0  0  0  0  0  0  0  0  0
   48.6990   28.8463   48.8007 H   0  0  0  0  0  0  0  0  0  0  0  0
   47.6339   29.1184   47.3800 H   0  0  0  0  0  0  0  0  0  0  0  0
   49.3122   29.7588   47.3800 H   0  0  0  0  0  0  0  0  0  0  0  0
   49.7511   31.9649   48.3655 H   0  0  0  0  0  0  0  0  0  0  0  0
   48.6591   32.5292   49.6940 H   0  0  0  0  0  0  0  0  0  0  0  0
  1  6  2  0
  2  1  1  0
  3  2  2  0
  3  4  1  0
  4  5  2  0
  5  6  1  0
  5 12  1  0
  7  8  1  0
  7  2  1  0
  8  9  2  0
  9 11  1  0
 10  8  1  0
 12 14  1  0
 13 12  1  0
 14 15  1  0
 15 16  1  0
 16 17  1  0
 18 16  1  0
 19 16  1  0
  1 20  1  0
  3 21  1  0
  7 22  1  0
 10 23  1  0
 10 24  1  0
 12 25  1  1
 13 26  1  0
 13 27  1  0
 13 28  1  0
 14 29  1  0
 14 30  1  0
M  ISO  8  20  14  21  14  25   8  26   8  27   8  28   8  29   8  30   8
M  END
>  <minimizedAffinity>  (1) 
-5.03916073

>  <minimizedRMSD>  (1) 
1.02819562

$$$$
