
     RDKit          3D

 46 47  0  0  1  0  0  0  0  0999 V2000
   47.7790   30.1380   48.0650 C   0  0  1  0  0  0  0  0  0  0  0  0
   45.4910   32.8500   47.0350 C   0  0  0  0  0  0  0  0  0  0  0  0
   45.7160   32.9990   45.6580 C   0  0  0  0  0  0  0  0  0  0  0  0
   46.6780   32.1400   45.0980 C   0  0  0  0  0  0  0  0  0  0  0  0
   47.3260   31.2340   45.8800 N   0  0  0  0  0  0  0  0  0  0  0  0
   47.0570   31.1410   47.2240 C   0  0  0  0  0  0  0  0  0  0  0  0
   46.1480   31.9440   47.7970 N   0  0  0  0  0  0  0  0  0  0  0  0
   44.9930   33.9650   44.9220 N   0  0  0  0  0  0  0  0  0  0  0  0
   44.6730   35.2640   45.3370 C   0  0  0  0  0  0  0  0  0  0  0  0
   44.3510   35.3940   46.5780 N   0  0  0  0  0  0  0  0  0  0  0  0
   44.7470   36.2720   44.3370 N   0  0  0  0  0  0  0  0  0  0  0  0
   43.9570   36.2370   47.0070 H   0  0  0  0  0  0  0  0  0  0  0  0
   47.6440   28.7660   47.5560 C   0  0  0  0  0  0  0  0  0  0  0  0
   49.2550   30.5340   48.1470 C   0  0  0  0  0  0  0  0  0  0  0  0
   49.7150   31.4570   49.5600 S   0  0  0  0  0  0  0  0  0  0  0  0
   50.8920   30.7730   50.6970 C   0  0  1  0  0  0  0  0  0  0  0  0
   51.3140   31.9080   51.6230 C   0  0  0  0  0  0  0  0  0  0  0  0
   50.3090   29.6940   51.5890 C   0  0  0  0  0  0  0  0  0  0  0  0
   51.0230   28.3810   51.3580 C   0  0  0  0  0  0  0  0  0  0  0  0
   52.0780   28.0140   52.1530 C   0  0  0  0  0  0  0  0  0  0  0  0
   52.7360   26.8020   51.9350 C   0  0  0  0  0  0  0  0  0  0  0  0
   52.3060   25.9770   50.9030 C   0  0  0  0  0  0  0  0  0  0  0  0
   51.2460   26.3350   50.0940 C   0  0  0  0  0  0  0  0  0  0  0  0
   50.6400   27.5230   50.3470 C   0  0  0  0  0  0  0  0  0  0  0  0
   47.3230   30.1425   49.0660 H   0  0  0  0  0  0  0  0  0  0  0  0
   44.7461   33.4996   47.5179 H   0  0  0  0  0  0  0  0  0  0  0  0
   46.9077   32.2005   44.0240 H   0  0  0  0  0  0  0  0  0  0  0  0
   44.6684   33.6854   43.9853 H   0  0  0  0  0  0  0  0  0  0  0  0
   44.5247   37.2495   44.5736 H   0  0  0  0  0  0  0  0  0  0  0  0
   45.0230   36.0247   43.3760 H   0  0  0  0  0  0  0  0  0  0  0  0
   47.5751   28.0662   48.4019 H   0  0  0  0  0  0  0  0  0  0  0  0
   46.7341   28.6904   46.9426 H   0  0  0  0  0  0  0  0  0  0  0  0
   48.5217   28.5145   46.9426 H   0  0  0  0  0  0  0  0  0  0  0  0
   49.8536   29.6112   48.1364 H   0  0  0  0  0  0  0  0  0  0  0  0
   49.4370   31.1935   47.2856 H   0  0  0  0  0  0  0  0  0  0  0  0
   51.7092   30.3293   50.1093 H   0  0  0  0  0  0  0  0  0  0  0  0
   51.1960   31.5905   52.6695 H   0  0  0  0  0  0  0  0  0  0  0  0
   52.3671   32.1632   51.4338 H   0  0  0  0  0  0  0  0  0  0  0  0
   50.6834   32.7893   51.4338 H   0  0  0  0  0  0  0  0  0  0  0  0
   50.4262   29.9907   52.6417 H   0  0  0  0  0  0  0  0  0  0  0  0
   49.2427   29.5689   51.3497 H   0  0  0  0  0  0  0  0  0  0  0  0
   52.4075   28.6774   52.9662 H   0  0  0  0  0  0  0  0  0  0  0  0
   53.5827   26.5045   52.5711 H   0  0  0  0  0  0  0  0  0  0  0  0
   52.8199   25.0204   50.7272 H   0  0  0  0  0  0  0  0  0  0  0  0
   50.9058   25.6828   49.2762 H   0  0  0  0  0  0  0  0  0  0  0  0
   49.7943   27.8192   49.7090 H   0  0  0  0  0  0  0  0  0  0  0  0
  1 14  1  0
  2  7  2  0
  3  2  1  0
  4  3  2  0
  4  5  1  0
  5  6  2  0
  6  7  1  0
  6  1  1  0
  8  9  1  0
  8  3  1  0
  9 10  2  0
 10 12  1  0
 11  9  1  0
 13  1  1  0
 14 15  1  0
 15 16  1  0
 16 18  1  0
 16 17  1  0
 19 18  1  0
 19 20  2  0
 21 20  1  0
 22 21  2  0
 23 24  2  0
 23 22  1  0
 24 19  1  0
  1 25  1  1
  2 26  1  0
  4 27  1  0
  8 28  1  0
 11 29  1  0
 11 30  1  0
 13 31  1  0
 13 32  1  0
 13 33  1  0
 14 34  1  0
 14 35  1  0
 16 36  1  6
 17 37  1  0
 17 38  1  0
 17 39  1  0
 18 40  1  0
 18 41  1  0
 20 42  1  0
 21 43  1  0
 22 44  1  0
 23 45  1  0
 24 46  1  0
M  ISO  8  25   8  26  14  27  14  31   8  32   8  33   8  34   8  35   8
M  ISO  8  36   8  37   8  38   8  39   8  40   8  41   8  42  14  43  14
M  ISO  3  44  14  45  14  46  14
M  END
>  <minimizedAffinity>  (1) 
-5.14205694

>  <minimizedRMSD>  (1) 
1.20248902

$$$$
