
     RDKit          3D

 48 49  0  0  1  0  0  0  0  0999 V2000
   47.8350   30.4610   48.3660 C   0  0  1  0  0  0  0  0  0  0  0  0
   45.4280   32.9600   47.1190 C   0  0  0  0  0  0  0  0  0  0  0  0
   45.7240   33.1060   45.7590 C   0  0  0  0  0  0  0  0  0  0  0  0
   46.7700   32.3220   45.2940 C   0  0  0  0  0  0  0  0  0  0  0  0
   47.4400   31.4790   46.1270 N   0  0  0  0  0  0  0  0  0  0  0  0
   47.0940   31.3880   47.4530 C   0  0  0  0  0  0  0  0  0  0  0  0
   46.0900   32.1270   47.9500 N   0  0  0  0  0  0  0  0  0  0  0  0
   44.9830   33.9930   44.9550 N   0  0  0  0  0  0  0  0  0  0  0  0
   44.6530   35.3310   45.2760 C   0  0  0  0  0  0  0  0  0  0  0  0
   44.3220   35.5420   46.5040 N   0  0  0  0  0  0  0  0  0  0  0  0
   44.7170   36.2960   44.2360 N   0  0  0  0  0  0  0  0  0  0  0  0
   43.8550   36.3670   46.8760 H   0  0  0  0  0  0  0  0  0  0  0  0
   48.5000   29.3650   47.6520 C   0  0  0  0  0  0  0  0  0  0  0  0
   48.8400   31.2810   49.1910 C   0  0  0  0  0  0  0  0  0  0  0  0
   49.7420   30.2990   50.3590 S   0  0  0  0  0  0  0  0  0  0  0  0
   51.1810   31.0970   51.0840 C   0  0  1  0  0  0  0  0  0  0  0  0
   51.4760   30.2620   52.3520 C   0  0  0  0  0  0  0  0  0  0  0  0
   52.4210   30.9220   50.2410 C   0  0  0  0  0  0  0  0  0  0  0  0
   52.6260   32.1160   49.4500 N   0  0  0  0  0  0  0  0  0  0  0  0
   53.7670   31.9850   48.5610 C   0  0  0  0  0  0  0  0  0  0  0  0
   54.9860   31.9550   49.4850 C   0  0  0  0  0  0  0  0  0  0  0  0
   54.4780   32.7070   50.6920 C   0  0  0  0  0  0  0  0  0  0  0  0
   53.0680   33.1660   50.3470 C   0  0  0  0  0  0  0  0  0  0  0  0
   47.1057   29.9777   49.0328 H   0  0  0  0  0  0  0  0  0  0  0  0
   44.6061   33.5604   47.5362 H   0  0  0  0  0  0  0  0  0  0  0  0
   47.0626   32.3825   44.2354 H   0  0  0  0  0  0  0  0  0  0  0  0
   44.6501   33.6345   44.0486 H   0  0  0  0  0  0  0  0  0  0  0  0
   44.4839   37.2801   44.4315 H   0  0  0  0  0  0  0  0  0  0  0  0
   44.9965   36.0118   43.2862 H   0  0  0  0  0  0  0  0  0  0  0  0
   48.9279   28.6597   48.3796 H   0  0  0  0  0  0  0  0  0  0  0  0
   47.7674   28.8409   47.0206 H   0  0  0  0  0  0  0  0  0  0  0  0
   49.3031   29.7727   47.0206 H   0  0  0  0  0  0  0  0  0  0  0  0
   49.5564   31.7528   48.5024 H   0  0  0  0  0  0  0  0  0  0  0  0
   48.2666   32.0266   49.7614 H   0  0  0  0  0  0  0  0  0  0  0  0
   50.9745   32.1686   51.2222 H   0  0  0  0  0  0  0  0  0  0  0  0
   51.2627   30.8657   53.2464 H   0  0  0  0  0  0  0  0  0  0  0  0
   50.8407   29.3640   52.3557 H   0  0  0  0  0  0  0  0  0  0  0  0
   52.5344   29.9624   52.3557 H   0  0  0  0  0  0  0  0  0  0  0  0
   53.2908   30.7586   50.8942 H   0  0  0  0  0  0  0  0  0  0  0  0
   52.2993   30.0532   49.5773 H   0  0  0  0  0  0  0  0  0  0  0  0
   53.6994   31.0537   47.9795 H   0  0  0  0  0  0  0  0  0  0  0  0
   53.8203   32.8074   47.8325 H   0  0  0  0  0  0  0  0  0  0  0  0
   55.2663   30.9235   49.7447 H   0  0  0  0  0  0  0  0  0  0  0  0
   55.8933   32.3890   49.0394 H   0  0  0  0  0  0  0  0  0  0  0  0
   54.4592   32.0470   51.5718 H   0  0  0  0  0  0  0  0  0  0  0  0
   55.1283   33.5605   50.9342 H   0  0  0  0  0  0  0  0  0  0  0  0
   53.0769   34.1446   49.8447 H   0  0  0  0  0  0  0  0  0  0  0  0
   52.4181   33.3064   51.2233 H   0  0  0  0  0  0  0  0  0  0  0  0
  1 14  1  0
  2  7  2  0
  3  2  1  0
  4  3  2  0
  4  5  1  0
  5  6  2  0
  6  7  1  0
  6  1  1  0
  8  9  1  0
  8  3  1  0
  9 10  2  0
 10 12  1  0
 11  9  1  0
 13  1  1  0
 14 15  1  0
 15 16  1  0
 16 17  1  0
 18 16  1  0
 19 18  1  0
 19 23  1  0
 20 19  1  0
 20 21  1  0
 21 22  1  0
 23 22  1  0
  1 24  1  1
  2 25  1  0
  4 26  1  0
  8 27  1  0
 11 28  1  0
 11 29  1  0
 13 30  1  0
 13 31  1  0
 13 32  1  0
 14 33  1  0
 14 34  1  0
 16 35  1  1
 17 36  1  0
 17 37  1  0
 17 38  1  0
 18 39  1  0
 18 40  1  0
 20 41  1  0
 20 42  1  0
 21 43  1  0
 21 44  1  0
 22 45  1  0
 22 46  1  0
 23 47  1  0
 23 48  1  0
M  ISO  8  24   8  25  14  26  14  30   8  31   8  32   8  33   8  34   8
M  ISO  8  35   8  36   8  37   8  38   8  39   8  40   8  41  13  42  13
M  ISO  6  43  13  44  13  45  13  46  13  47  13  48  13
M  END
>  <minimizedAffinity>  (1) 
-4.96658468

>  <minimizedRMSD>  (1) 
3.44254541

$$$$
