
     RDKit          3D

 37 37  0  0  1  0  0  0  0  0999 V2000
   47.7940   30.2790   48.1770 C   0  0  1  0  0  0  0  0  0  0  0  0
   45.4510   32.9210   47.0800 C   0  0  0  0  0  0  0  0  0  0  0  0
   45.6990   33.0620   45.7090 C   0  0  0  0  0  0  0  0  0  0  0  0
   46.6930   32.2240   45.1650 C   0  0  0  0  0  0  0  0  0  0  0  0
   47.3480   31.3410   45.9710 N   0  0  0  0  0  0  0  0  0  0  0  0
   47.0560   31.2530   47.3100 C   0  0  0  0  0  0  0  0  0  0  0  0
   46.1160   32.0380   47.8520 N   0  0  0  0  0  0  0  0  0  0  0  0
   44.9800   33.9970   44.9440 N   0  0  0  0  0  0  0  0  0  0  0  0
   44.6580   35.3070   45.3060 C   0  0  0  0  0  0  0  0  0  0  0  0
   44.3210   35.4950   46.5290 N   0  0  0  0  0  0  0  0  0  0  0  0
   44.7390   36.2920   44.2790 N   0  0  0  0  0  0  0  0  0  0  0  0
   43.9820   36.3550   46.9510 H   0  0  0  0  0  0  0  0  0  0  0  0
   47.9560   28.9620   47.5540 C   0  0  0  0  0  0  0  0  0  0  0  0
   49.1500   30.8950   48.5460 C   0  0  0  0  0  0  0  0  0  0  0  0
   49.6170   30.6150   50.2270 S   0  0  0  0  0  0  0  0  0  0  0  0
   51.0030   29.5360   50.5180 C   0  0  1  0  0  0  0  0  0  0  0  0
   50.7780   28.9300   51.9140 C   0  0  0  0  0  0  0  0  0  0  0  0
   51.0260   28.3320   49.5870 C   0  0  0  0  0  0  0  0  0  0  0  0
   49.9560   27.5070   49.9740 O   0  0  0  0  0  0  0  0  0  0  0  0
   47.1980   30.0971   49.0835 H   0  0  0  0  0  0  0  0  0  0  0  0
   44.6830   33.5560   47.5457 H   0  0  0  0  0  0  0  0  0  0  0  0
   46.9393   32.2822   44.0945 H   0  0  0  0  0  0  0  0  0  0  0  0
   44.6563   33.6826   44.0181 H   0  0  0  0  0  0  0  0  0  0  0  0
   44.5128   37.2747   44.4889 H   0  0  0  0  0  0  0  0  0  0  0  0
   45.0237   36.0211   43.3269 H   0  0  0  0  0  0  0  0  0  0  0  0
   48.0503   28.1951   48.3369 H   0  0  0  0  0  0  0  0  0  0  0  0
   47.0782   28.7417   46.9288 H   0  0  0  0  0  0  0  0  0  0  0  0
   48.8610   28.9610   46.9288 H   0  0  0  0  0  0  0  0  0  0  0  0
   49.9201   30.4581   47.8933 H   0  0  0  0  0  0  0  0  0  0  0  0
   49.0583   31.9830   48.4125 H   0  0  0  0  0  0  0  0  0  0  0  0
   51.9241   30.1222   50.3840 H   0  0  0  0  0  0  0  0  0  0  0  0
   51.0519   29.6678   52.6825 H   0  0  0  0  0  0  0  0  0  0  0  0
   49.7186   28.6571   52.0288 H   0  0  0  0  0  0  0  0  0  0  0  0
   51.4026   28.0318   52.0288 H   0  0  0  0  0  0  0  0  0  0  0  0
   51.9786   27.7914   49.6886 H   0  0  0  0  0  0  0  0  0  0  0  0
   50.9299   28.6406   48.5356 H   0  0  0  0  0  0  0  0  0  0  0  0
   49.9083   27.4702   50.9622 H   0  0  0  0  0  0  0  0  0  0  0  0
  1 14  1  0
  2  7  2  0
  3  2  1  0
  4  3  2  0
  4  5  1  0
  5  6  2  0
  6  7  1  0
  6  1  1  0
  8  9  1  0
  8  3  1  0
  9 10  2  0
 10 12  1  0
 11  9  1  0
 13  1  1  0
 14 15  1  0
 15 16  1  0
 16 17  1  0
 18 19  1  0
 18 16  1  0
  1 20  1  1
  2 21  1  0
  4 22  1  0
  8 23  1  0
 11 24  1  0
 11 25  1  0
 13 26  1  0
 13 27  1  0
 13 28  1  0
 14 29  1  0
 14 30  1  0
 16 31  1  1
 17 32  1  0
 17 33  1  0
 17 34  1  0
 18 35  1  0
 18 36  1  0
 19 37  1  0
M  ISO  8  20   8  21  14  22  14  26   8  27   8  28   8  29   8  30   8
M  ISO  7  31   8  32   8  33   8  34   8  35   8  36   8  37   3
M  END
>  <minimizedAffinity>  (1) 
-4.55678034

>  <minimizedRMSD>  (1) 
0.317641497

$$$$
