
     RDKit          3D

 27 28  0  0  0  0  0  0  0  0999 V2000
   44.6070   35.6120   45.3570 C   0  0  0  0  0  0  0  0  0  0  0  0
   44.4070   35.7050   43.9680 C   0  0  0  0  0  0  0  0  0  0  0  0
   44.8540   34.6490   43.1640 C   0  0  0  0  0  0  0  0  0  0  0  0
   45.4580   33.5810   43.7420 N   0  0  0  0  0  0  0  0  0  0  0  0
   45.6410   33.5140   45.0910 C   0  0  0  0  0  0  0  0  0  0  0  0
   45.2140   34.5250   45.8720 N   0  0  0  0  0  0  0  0  0  0  0  0
   44.6860   34.6740   41.7550 N   0  0  0  0  0  0  0  0  0  0  0  0
   43.4180   34.4570   41.1400 C   0  0  0  0  0  0  0  0  0  0  0  0
   42.6160   33.6400   41.7340 N   0  0  0  0  0  0  0  0  0  0  0  0
   43.1420   35.1600   39.9200 N   0  0  0  0  0  0  0  0  0  0  0  0
   41.6730   33.4690   41.2910 H   0  0  0  0  0  0  0  0  0  0  0  0
   46.2890   32.3610   45.6820 C   0  0  0  0  0  0  0  0  0  0  0  0
   47.2190   31.5210   45.0910 C   0  0  0  0  0  0  0  0  0  0  0  0
   47.5930   30.5570   45.9640 N   0  0  0  0  0  0  0  0  0  0  0  0
   46.8960   30.7970   47.1040 C   0  0  0  0  0  0  0  0  0  0  0  0
   46.1060   31.8950   46.9230 N   0  0  0  0  0  0  0  0  0  0  0  0
   45.2090   32.4710   47.9140 C   0  0  0  0  0  0  0  0  0  0  0  0
   44.2440   31.5550   48.3490 F   0  0  0  0  0  0  0  0  0  0  0  0
   44.5720   33.6140   47.4230 F   0  0  0  0  0  0  0  0  0  0  0  0
   45.9120   32.8210   49.0630 F   0  0  0  0  0  0  0  0  0  0  0  0
   44.2696   36.4226   46.0196 H   0  0  0  0  0  0  0  0  0  0  0  0
   43.9132   36.5827   43.5254 H   0  0  0  0  0  0  0  0  0  0  0  0
   45.5057   34.8545   41.1580 H   0  0  0  0  0  0  0  0  0  0  0  0
   43.8481   35.7943   39.5201 H   0  0  0  0  0  0  0  0  0  0  0  0
   42.2378   35.0303   39.4442 H   0  0  0  0  0  0  0  0  0  0  0  0
   47.5977   31.6228   44.0633 H   0  0  0  0  0  0  0  0  0  0  0  0
   46.9581   30.2013   48.0267 H   0  0  0  0  0  0  0  0  0  0  0  0
  1  6  2  0
  2  1  1  0
  3  4  1  0
  3  2  2  0
  4  5  2  0
  5 12  1  0
  5  6  1  0
  7  3  1  0
  8  9  2  0
  8  7  1  0
 10  8  1  0
 11  9  1  0
 12 16  1  0
 13 12  2  0
 13 14  1  0
 14 15  2  0
 16 15  1  0
 16 17  1  0
 17 18  1  0
 17 20  1  0
 19 17  1  0
  1 21  1  0
  2 22  1  0
  7 23  1  0
 10 24  1  0
 10 25  1  0
 13 26  1  0
 15 27  1  0
M  ISO  4  21  14  22  14  26  14  27  14
M  END
>  <minimizedAffinity>  (1) 
-5.60838747

>  <minimizedRMSD>  (1) 
0.720394552

$$$$
