
     RDKit          3D

 33 34  0  0  0  0  0  0  0  0999 V2000
   45.6180   34.7940   44.0080 C   0  0  0  0  0  0  0  0  0  0  0  0
   46.6910   34.5930   43.1190 C   0  0  0  0  0  0  0  0  0  0  0  0
   47.6150   33.5880   43.4320 C   0  0  0  0  0  0  0  0  0  0  0  0
   47.4390   32.8590   44.5630 N   0  0  0  0  0  0  0  0  0  0  0  0
   46.3990   33.0700   45.4020 C   0  0  0  0  0  0  0  0  0  0  0  0
   45.4930   34.0310   45.1280 N   0  0  0  0  0  0  0  0  0  0  0  0
   48.7470   33.3020   42.5910 N   0  0  0  0  0  0  0  0  0  0  0  0
   49.9760   33.9790   42.7360 C   0  0  0  0  0  0  0  0  0  0  0  0
   49.9070   35.2310   43.0810 N   0  0  0  0  0  0  0  0  0  0  0  0
   51.1720   33.2210   42.4890 N   0  0  0  0  0  0  0  0  0  0  0  0
   50.8290   35.7150   43.1790 H   0  0  0  0  0  0  0  0  0  0  0  0
   46.3100   32.2190   46.5970 C   0  0  0  0  0  0  0  0  0  0  0  0
   45.1780   32.7780   47.4660 C   0  0  0  0  0  0  0  0  0  0  0  0
   44.8350   31.6640   48.4250 C   0  0  0  0  0  0  0  0  0  0  0  0
   46.0080   31.3340   49.2810 C   0  0  0  0  0  0  0  0  0  0  0  0
   47.3210   31.2410   48.5860 C   0  0  0  0  0  0  0  0  0  0  0  0
   47.5290   32.2030   47.4600 C   0  0  0  0  0  0  0  0  0  0  0  0
   44.8735   35.5753   43.7953 H   0  0  0  0  0  0  0  0  0  0  0  0
   46.7999   35.2037   42.2106 H   0  0  0  0  0  0  0  0  0  0  0  0
   48.6572   32.5810   41.8609 H   0  0  0  0  0  0  0  0  0  0  0  0
   52.0945   33.6698   42.5816 H   0  0  0  0  0  0  0  0  0  0  0  0
   51.1066   32.2291   42.2194 H   0  0  0  0  0  0  0  0  0  0  0  0
   46.1581   31.1925   46.2321 H   0  0  0  0  0  0  0  0  0  0  0  0
   45.5158   33.6698   48.0143 H   0  0  0  0  0  0  0  0  0  0  0  0
   44.3102   33.0876   46.8651 H   0  0  0  0  0  0  0  0  0  0  0  0
   43.9980   31.9814   49.0643 H   0  0  0  0  0  0  0  0  0  0  0  0
   44.5532   30.7712   47.8475 H   0  0  0  0  0  0  0  0  0  0  0  0
   46.0908   32.1136   50.0526 H   0  0  0  0  0  0  0  0  0  0  0  0
   45.8111   30.3265   49.6760 H   0  0  0  0  0  0  0  0  0  0  0  0
   48.1109   31.4171   49.3311 H   0  0  0  0  0  0  0  0  0  0  0  0
   47.3499   30.2390   48.1331 H   0  0  0  0  0  0  0  0  0  0  0  0
   48.3982   31.8889   46.8634 H   0  0  0  0  0  0  0  0  0  0  0  0
   47.7101   33.2104   47.8629 H   0  0  0  0  0  0  0  0  0  0  0  0
  1  6  2  0
  2  3  2  0
  2  1  1  0
  3  4  1  0
  4  5  2  0
  5 12  1  0
  6  5  1  0
  7  8  1  0
  7  3  1  0
  8  9  2  0
  9 11  1  0
 10  8  1  0
 12 17  1  0
 12 13  1  0
 13 14  1  0
 14 15  1  0
 16 15  1  0
 17 16  1  0
  1 18  1  0
  2 19  1  0
  7 20  1  0
 10 21  1  0
 10 22  1  0
 12 23  1  0
 13 24  1  0
 13 25  1  0
 14 26  1  0
 14 27  1  0
 15 28  1  0
 15 29  1  0
 16 30  1  0
 16 31  1  0
 17 32  1  0
 17 33  1  0
M  ISO  8  18  14  19  14  23  13  24  13  25  13  26  13  27  13  28  13
M  ISO  5  29  13  30  13  31  13  32  13  33  13
M  END
>  <minimizedAffinity>  (1) 
-5.91592073

>  <minimizedRMSD>  (1) 
0.964769125

$$$$
