
     RDKit          3D

 30 32  0  0  0  0  0  0  0  0999 V2000
   45.4880   35.0300   42.5750 C   0  0  0  0  0  0  0  0  0  0  0  0
   46.6970   34.8370   41.8820 C   0  0  0  0  0  0  0  0  0  0  0  0
   47.6980   34.0650   42.4900 C   0  0  0  0  0  0  0  0  0  0  0  0
   47.4530   33.5430   43.7140 N   0  0  0  0  0  0  0  0  0  0  0  0
   46.2860   33.7390   44.3630 C   0  0  0  0  0  0  0  0  0  0  0  0
   45.3220   34.4730   43.7990 N   0  0  0  0  0  0  0  0  0  0  0  0
   45.9930   33.2070   45.6500 N   0  0  0  0  0  0  0  0  0  0  0  0
   45.2900   33.7690   46.6460 C   0  0  0  0  0  0  0  0  0  0  0  0
   45.2780   32.8930   47.6700 N   0  0  0  0  0  0  0  0  0  0  0  0
   45.9660   31.7740   47.3460 C   0  0  0  0  0  0  0  0  0  0  0  0
   46.2110   30.6190   48.0950 C   0  0  0  0  0  0  0  0  0  0  0  0
   46.9480   29.6480   47.4900 N   0  0  0  0  0  0  0  0  0  0  0  0
   47.3850   29.8690   46.2220 C   0  0  0  0  0  0  0  0  0  0  0  0
   47.1560   30.9750   45.4940 N   0  0  0  0  0  0  0  0  0  0  0  0
   46.4220   31.9800   46.0520 C   0  0  0  0  0  0  0  0  0  0  0  0
   48.9640   33.8040   41.8780 N   0  0  0  0  0  0  0  0  0  0  0  0
   50.1850   34.2130   42.4570 C   0  0  0  0  0  0  0  0  0  0  0  0
   50.1670   35.3290   43.1210 N   0  0  0  0  0  0  0  0  0  0  0  0
   51.3300   33.3650   42.2620 N   0  0  0  0  0  0  0  0  0  0  0  0
   51.0720   35.6220   43.5350 H   0  0  0  0  0  0  0  0  0  0  0  0
   45.6760   30.5450   49.4220 N   0  0  0  0  0  0  0  0  0  0  0  0
   44.6824   35.6294   42.1259 H   0  0  0  0  0  0  0  0  0  0  0  0
   46.8535   35.2806   40.8877 H   0  0  0  0  0  0  0  0  0  0  0  0
   44.8127   34.7599   46.6294 H   0  0  0  0  0  0  0  0  0  0  0  0
   47.9785   29.0721   45.7501 H   0  0  0  0  0  0  0  0  0  0  0  0
   48.9858   33.2985   40.9808 H   0  0  0  0  0  0  0  0  0  0  0  0
   52.2398   33.6268   42.6677 H   0  0  0  0  0  0  0  0  0  0  0  0
   51.2403   32.4958   41.7166 H   0  0  0  0  0  0  0  0  0  0  0  0
   45.8401   29.7067   49.9974 H   0  0  0  0  0  0  0  0  0  0  0  0
   45.1272   31.3301   49.8006 H   0  0  0  0  0  0  0  0  0  0  0  0
  1  6  2  0
  2  3  2  0
  2  1  1  0
  3  4  1  0
  4  5  2  0
  5  7  1  0
  6  5  1  0
  7 15  1  0
  7  8  1  0
  8  9  2  0
 10  9  1  0
 10 11  2  0
 11 21  1  0
 12 11  1  0
 13 12  2  0
 14 15  2  0
 14 13  1  0
 15 10  1  0
 16 17  1  0
 16  3  1  0
 17 18  2  0
 18 20  1  0
 19 17  1  0
  1 22  1  0
  2 23  1  0
  8 24  1  0
 13 25  1  0
 16 26  1  0
 19 27  1  0
 19 28  1  0
 21 29  1  0
 21 30  1  0
M  ISO  4  22  14  23  14  24  14  25  14
M  END
>  <minimizedAffinity>  (1) 
-6.74473

>  <minimizedRMSD>  (1) 
0.597422838

$$$$
