
     RDKit          3D

 28 29  0  0  0  0  0  0  0  0999 V2000
   45.5710   35.0290   42.7410 C   0  0  0  0  0  0  0  0  0  0  0  0
   46.7300   34.8140   41.9720 C   0  0  0  0  0  0  0  0  0  0  0  0
   47.7510   34.0240   42.5170 C   0  0  0  0  0  0  0  0  0  0  0  0
   47.5680   33.5090   43.7540 N   0  0  0  0  0  0  0  0  0  0  0  0
   46.4540   33.7230   44.4760 C   0  0  0  0  0  0  0  0  0  0  0  0
   45.4560   34.4840   43.9660 N   0  0  0  0  0  0  0  0  0  0  0  0
   46.2400   33.1920   45.7780 N   0  0  0  0  0  0  0  0  0  0  0  0
   46.9510   32.1420   46.2250 C   0  0  0  0  0  0  0  0  0  0  0  0
   46.7120   31.6480   47.5100 C   0  0  0  0  0  0  0  0  0  0  0  0
   45.7440   32.2600   48.2870 C   0  0  0  0  0  0  0  0  0  0  0  0
   45.3830   31.8780   49.6120 N   0  0  0  0  0  0  0  0  0  0  0  0
   45.0330   33.3240   47.8160 N   0  0  0  0  0  0  0  0  0  0  0  0
   45.2910   33.7810   46.5560 C   0  0  0  0  0  0  0  0  0  0  0  0
   44.6520   34.7690   46.0780 O   0  0  0  0  0  0  0  0  0  0  0  0
   48.9660   33.7460   41.8200 N   0  0  0  0  0  0  0  0  0  0  0  0
   50.2310   34.1070   42.3320 C   0  0  0  0  0  0  0  0  0  0  0  0
   50.2910   35.1850   43.0390 N   0  0  0  0  0  0  0  0  0  0  0  0
   51.3210   33.2390   42.0180 N   0  0  0  0  0  0  0  0  0  0  0  0
   51.2300   35.4240   43.4280 H   0  0  0  0  0  0  0  0  0  0  0  0
   44.7543   35.6462   42.3383 H   0  0  0  0  0  0  0  0  0  0  0  0
   46.8317   35.2546   40.9693 H   0  0  0  0  0  0  0  0  0  0  0  0
   47.7143   31.6759   45.5846 H   0  0  0  0  0  0  0  0  0  0  0  0
   47.2817   30.7900   47.8962 H   0  0  0  0  0  0  0  0  0  0  0  0
   44.6474   32.3949   50.1146 H   0  0  0  0  0  0  0  0  0  0  0  0
   45.8578   31.0851   50.0668 H   0  0  0  0  0  0  0  0  0  0  0  0
   48.9176   33.2646   40.9107 H   0  0  0  0  0  0  0  0  0  0  0  0
   52.2667   33.4535   42.3653 H   0  0  0  0  0  0  0  0  0  0  0  0
   51.1613   32.3986   41.4443 H   0  0  0  0  0  0  0  0  0  0  0  0
  1  6  2  0
  2  3  2  0
  2  1  1  0
  3  4  1  0
  4  5  2  0
  5  7  1  0
  6  5  1  0
  7  8  1  0
  7 13  1  0
  8  9  2  0
  9 10  1  0
 10 11  1  0
 12 10  2  0
 13 12  1  0
 14 13  2  0
 15 16  1  0
 15  3  1  0
 16 17  2  0
 17 19  1  0
 18 16  1  0
  1 20  1  0
  2 21  1  0
  8 22  1  0
  9 23  1  0
 11 24  1  0
 11 25  1  0
 15 26  1  0
 18 27  1  0
 18 28  1  0
M  ISO  4  20  14  21  14  22  14  23  14
M  END
>  <minimizedAffinity>  (1) 
-6.9086895

>  <minimizedRMSD>  (1) 
0.530262828

$$$$
