
     RDKit          3D

 24 25  0  0  0  0  0  0  0  0999 V2000
   45.5950   35.4350   42.8710 C   0  0  0  0  0  0  0  0  0  0  0  0
   46.7390   35.1290   42.0990 C   0  0  0  0  0  0  0  0  0  0  0  0
   47.6580   34.2010   42.5860 C   0  0  0  0  0  0  0  0  0  0  0  0
   47.3930   33.6400   43.7900 N   0  0  0  0  0  0  0  0  0  0  0  0
   46.3100   33.9340   44.5150 C   0  0  0  0  0  0  0  0  0  0  0  0
   45.4070   34.8340   44.0570 N   0  0  0  0  0  0  0  0  0  0  0  0
   48.8450   33.8240   41.8860 N   0  0  0  0  0  0  0  0  0  0  0  0
   50.1370   34.1360   42.3930 C   0  0  0  0  0  0  0  0  0  0  0  0
   50.2580   35.2510   43.0490 N   0  0  0  0  0  0  0  0  0  0  0  0
   51.1860   33.1850   42.1310 N   0  0  0  0  0  0  0  0  0  0  0  0
   51.2110   35.4630   43.4130 H   0  0  0  0  0  0  0  0  0  0  0  0
   46.1810   33.2280   45.8060 C   0  0  0  0  0  0  0  0  0  0  0  0
   47.0340   32.2080   46.2010 C   0  0  0  0  0  0  0  0  0  0  0  0
   46.5450   31.8460   47.4610 C   0  0  0  0  0  0  0  0  0  0  0  0
   45.4560   32.6390   47.7570 C   0  0  0  0  0  0  0  0  0  0  0  0
   45.2690   33.4500   46.7470 O   0  0  0  0  0  0  0  0  0  0  0  0
   44.8597   36.1645   42.5006 H   0  0  0  0  0  0  0  0  0  0  0  0
   46.9018   35.6169   41.1266 H   0  0  0  0  0  0  0  0  0  0  0  0
   48.7635   33.3149   40.9943 H   0  0  0  0  0  0  0  0  0  0  0  0
   52.1401   33.3627   42.4759 H   0  0  0  0  0  0  0  0  0  0  0  0
   50.9822   32.3271   41.5987 H   0  0  0  0  0  0  0  0  0  0  0  0
   47.8899   31.7850   45.6546 H   0  0  0  0  0  0  0  0  0  0  0  0
   46.9602   31.0594   48.1082 H   0  0  0  0  0  0  0  0  0  0  0  0
   44.8533   32.5973   48.6763 H   0  0  0  0  0  0  0  0  0  0  0  0
  1  6  2  0
  2  3  2  0
  2  1  1  0
  3  4  1  0
  4  5  2  0
  5 12  1  0
  6  5  1  0
  7  8  1  0
  7  3  1  0
  8  9  2  0
  9 11  1  0
 10  8  1  0
 12 13  2  0
 12 16  1  0
 13 14  1  0
 14 15  2  0
 16 15  1  0
  1 17  1  0
  2 18  1  0
  7 19  1  0
 10 20  1  0
 10 21  1  0
 13 22  1  0
 14 23  1  0
 15 24  1  0
M  ISO  5  17  14  18  14  22  14  23  14  24  14
M  END
>  <minimizedAffinity>  (1) 
-5.49185276

>  <minimizedRMSD>  (1) 
0.551581562

$$$$
