
     RDKit          3D

 29 29  0  0  0  0  0  0  0  0999 V2000
   45.5640   34.8810   43.9380 C   0  0  0  0  0  0  0  0  0  0  0  0
   46.6430   34.6680   43.0580 C   0  0  0  0  0  0  0  0  0  0  0  0
   47.5880   33.6820   43.3910 C   0  0  0  0  0  0  0  0  0  0  0  0
   47.3940   32.9950   44.5460 N   0  0  0  0  0  0  0  0  0  0  0  0
   46.3530   33.2160   45.3740 C   0  0  0  0  0  0  0  0  0  0  0  0
   45.4410   34.1510   45.0770 N   0  0  0  0  0  0  0  0  0  0  0  0
   48.7220   33.3660   42.5940 N   0  0  0  0  0  0  0  0  0  0  0  0
   49.9590   34.0580   42.7410 C   0  0  0  0  0  0  0  0  0  0  0  0
   49.8970   35.2980   43.0750 N   0  0  0  0  0  0  0  0  0  0  0  0
   51.1520   33.2950   42.5000 N   0  0  0  0  0  0  0  0  0  0  0  0
   50.8170   35.7820   43.2050 H   0  0  0  0  0  0  0  0  0  0  0  0
   46.1860   32.4290   46.6380 C   0  0  0  0  0  0  0  0  0  0  0  0
   45.0930   33.0330   47.4760 C   0  0  0  0  0  0  0  0  0  0  0  0
   47.4750   32.4350   47.4180 C   0  0  0  0  0  0  0  0  0  0  0  0
   45.8680   31.0000   46.2580 C   0  0  0  0  0  0  0  0  0  0  0  0
   44.8119   35.6477   43.7001 H   0  0  0  0  0  0  0  0  0  0  0  0
   46.7435   35.2575   42.1348 H   0  0  0  0  0  0  0  0  0  0  0  0
   48.6475   32.6166   41.8913 H   0  0  0  0  0  0  0  0  0  0  0  0
   52.0759   33.7412   42.5909 H   0  0  0  0  0  0  0  0  0  0  0  0
   51.0836   32.3017   42.2363 H   0  0  0  0  0  0  0  0  0  0  0  0
   45.3323   32.9008   48.5415 H   0  0  0  0  0  0  0  0  0  0  0  0
   45.0080   34.1061   47.2497 H   0  0  0  0  0  0  0  0  0  0  0  0
   44.1392   32.5339   47.2497 H   0  0  0  0  0  0  0  0  0  0  0  0
   47.2518   32.4340   48.4951 H   0  0  0  0  0  0  0  0  0  0  0  0
   48.0613   31.5396   47.1642 H   0  0  0  0  0  0  0  0  0  0  0  0
   48.0530   33.3358   47.1642 H   0  0  0  0  0  0  0  0  0  0  0  0
   45.7343   30.3992   47.1697 H   0  0  0  0  0  0  0  0  0  0  0  0
   44.9425   30.9758   45.6640 H   0  0  0  0  0  0  0  0  0  0  0  0
   46.6959   30.5856   45.6640 H   0  0  0  0  0  0  0  0  0  0  0  0
  1  6  2  0
  2  3  2  0
  2  1  1  0
  3  4  1  0
  4  5  2  0
  5 12  1  0
  6  5  1  0
  7  8  1  0
  7  3  1  0
  8  9  2  0
  9 11  1  0
 10  8  1  0
 12 14  1  0
 12 13  1  0
 15 12  1  0
  1 16  1  0
  2 17  1  0
  7 18  1  0
 10 19  1  0
 10 20  1  0
 13 21  1  0
 13 22  1  0
 13 23  1  0
 14 24  1  0
 14 25  1  0
 14 26  1  0
 15 27  1  0
 15 28  1  0
 15 29  1  0
M  ISO  8  16  14  17  14  21   8  22   8  23   8  24   8  25   8  26   8
M  ISO  3  27   8  28   8  29   8
M  END
>  <minimizedAffinity>  (1) 
-4.900599

>  <minimizedRMSD>  (1) 
0.763481677

$$$$
