
     RDKit          3D

 27 29  0  0  0  0  0  0  0  0999 V2000
   44.6950   35.6730   45.1090 C   0  0  0  0  0  0  0  0  0  0  0  0
   44.2740   35.5840   43.7590 C   0  0  0  0  0  0  0  0  0  0  0  0
   44.5440   34.4200   43.0630 C   0  0  0  0  0  0  0  0  0  0  0  0
   45.1950   33.4050   43.6740 N   0  0  0  0  0  0  0  0  0  0  0  0
   45.5960   33.5100   44.9850 C   0  0  0  0  0  0  0  0  0  0  0  0
   45.3420   34.6290   45.6720 N   0  0  0  0  0  0  0  0  0  0  0  0
   46.2950   32.4060   45.6220 C   0  0  0  0  0  0  0  0  0  0  0  0
   47.2650   31.5790   45.0500 C   0  0  0  0  0  0  0  0  0  0  0  0
   47.6750   30.6650   45.9660 N   0  0  0  0  0  0  0  0  0  0  0  0
   46.9700   30.9260   47.0810 C   0  0  0  0  0  0  0  0  0  0  0  0
   46.1310   31.9810   46.8760 N   0  0  0  0  0  0  0  0  0  0  0  0
   45.2080   32.5610   47.8430 C   0  0  0  0  0  0  0  0  0  0  0  0
   44.2110   31.6430   48.2300 F   0  0  0  0  0  0  0  0  0  0  0  0
   44.5950   33.7080   47.3390 F   0  0  0  0  0  0  0  0  0  0  0  0
   45.8670   32.8700   49.0150 F   0  0  0  0  0  0  0  0  0  0  0  0
   44.1100   34.3300   41.6730 C   0  0  0  0  0  0  0  0  0  0  0  0
   42.8280   34.4310   41.1750 C   0  0  0  0  0  0  0  0  0  0  0  0
   43.0250   34.2690   39.8180 C   0  0  0  0  0  0  0  0  0  0  0  0
   44.3190   34.0810   39.5060 N   0  0  0  0  0  0  0  0  0  0  0  0
   44.9940   34.1210   40.6660 N   0  0  0  0  0  0  0  0  0  0  0  0
   44.4969   36.5837   45.6933 H   0  0  0  0  0  0  0  0  0  0  0  0
   43.7457   36.4197   43.2768 H   0  0  0  0  0  0  0  0  0  0  0  0
   47.6383   31.6565   44.0182 H   0  0  0  0  0  0  0  0  0  0  0  0
   47.0578   30.3675   48.0246 H   0  0  0  0  0  0  0  0  0  0  0  0
   41.8874   34.5982   41.7203 H   0  0  0  0  0  0  0  0  0  0  0  0
   42.2139   34.2913   39.0753 H   0  0  0  0  0  0  0  0  0  0  0  0
   44.7135   33.9355   38.5657 H   0  0  0  0  0  0  0  0  0  0  0  0
  1  6  2  0
  2  1  1  0
  3  4  1  0
  3  2  2  0
  4  5  2  0
  5  7  1  0
  5  6  1  0
  7 11  1  0
  8  7  2  0
  8  9  1  0
  9 10  2  0
 11 10  1  0
 11 12  1  0
 12 13  1  0
 12 15  1  0
 14 12  1  0
 16  3  1  0
 17 16  1  0
 18 17  2  0
 19 18  1  0
 19 20  1  0
 20 16  2  0
  1 21  1  0
  2 22  1  0
  8 23  1  0
 10 24  1  0
 17 25  1  0
 18 26  1  0
 19 27  1  0
M  ISO  7  21  14  22  14  23  14  24  14  25  14  26  14  27   9
M  END
>  <minimizedAffinity>  (1) 
-5.43427038

>  <minimizedRMSD>  (1) 
0.448283434

$$$$
