
     RDKit          3D

 37 40  0  0  1  0  0  0  0  0999 V2000
   45.9240   34.1800   41.8080 N   0  0  0  0  0  0  0  0  0  0  0  0
   47.0630   34.8490   41.2300 C   0  0  0  0  0  0  0  0  0  0  0  0
   47.6340   34.0270   40.1200 C   0  0  0  0  0  0  0  0  0  0  0  0
   46.5330   33.7780   39.1880 N   0  0  0  0  0  0  0  0  0  0  0  0
   45.7390   32.7480   39.8220 C   0  0  0  0  0  0  0  0  0  0  0  0
   45.1500   33.1730   41.1320 C   0  0  2  0  0  0  0  0  0  0  0  0
   44.5120   35.9290   44.8090 C   0  0  0  0  0  0  0  0  0  0  0  0
   44.8750   35.7040   43.4840 C   0  0  0  0  0  0  0  0  0  0  0  0
   45.5170   34.5140   43.1310 C   0  0  0  0  0  0  0  0  0  0  0  0
   45.7580   33.6120   44.1530 N   0  0  0  0  0  0  0  0  0  0  0  0
   45.3880   33.8770   45.4230 C   0  0  0  0  0  0  0  0  0  0  0  0
   44.7770   35.0120   45.7490 N   0  0  0  0  0  0  0  0  0  0  0  0
   43.7400   33.4470   41.0560 N   0  0  0  0  0  0  0  0  0  0  0  0
   43.2380   34.5720   40.4700 C   0  0  0  0  0  0  0  0  0  0  0  0
   41.8850   34.5270   40.5620 N   0  0  0  0  0  0  0  0  0  0  0  0
   41.5700   33.3810   41.2020 C   0  0  0  0  0  0  0  0  0  0  0  0
   40.3740   32.7870   41.5860 C   0  0  0  0  0  0  0  0  0  0  0  0
   40.3490   31.5900   42.2400 N   0  0  0  0  0  0  0  0  0  0  0  0
   41.4890   30.9380   42.5370 C   0  0  0  0  0  0  0  0  0  0  0  0
   42.6690   31.5070   42.1680 N   0  0  0  0  0  0  0  0  0  0  0  0
   42.6980   32.6910   41.5210 C   0  0  0  0  0  0  0  0  0  0  0  0
   39.1270   33.4330   41.2970 N   0  0  0  0  0  0  0  0  0  0  0  0
   46.7487   35.8261   40.8344 H   0  0  0  0  0  0  0  0  0  0  0  0
   47.8303   34.9881   42.0059 H   0  0  0  0  0  0  0  0  0  0  0  0
   48.4432   34.5760   39.6163 H   0  0  0  0  0  0  0  0  0  0  0  0
   48.0607   33.0858   40.4969 H   0  0  0  0  0  0  0  0  0  0  0  0
   46.8930   33.4514   38.2799 H   0  0  0  0  0  0  0  0  0  0  0  0
   44.9181   32.4732   39.1433 H   0  0  0  0  0  0  0  0  0  0  0  0
   46.4100   31.9008   40.0272 H   0  0  0  0  0  0  0  0  0  0  0  0
   45.2209   32.2966   41.7930 H   0  0  0  0  0  0  0  0  0  0  0  0
   44.0047   36.8650   45.0857 H   0  0  0  0  0  0  0  0  0  0  0  0
   44.6569   36.4613   42.7166 H   0  0  0  0  0  0  0  0  0  0  0  0
   45.5970   33.1357   46.2083 H   0  0  0  0  0  0  0  0  0  0  0  0
   43.8273   35.3755   40.0041 H   0  0  0  0  0  0  0  0  0  0  0  0
   41.4672   29.9723   43.0633 H   0  0  0  0  0  0  0  0  0  0  0  0
   38.2406   32.9924   41.5818 H   0  0  0  0  0  0  0  0  0  0  0  0
   39.1176   34.3376   40.8046 H   0  0  0  0  0  0  0  0  0  0  0  0
  1  9  1  0
  2  1  1  0
  3  2  1  0
  4  5  1  0
  4  3  1  0
  5  6  1  0
  6  1  1  0
  7 12  2  0
  8  7  1  0
  9  8  2  0
  9 10  1  0
 10 11  2  0
 11 12  1  0
 13  6  1  0
 13 21  1  0
 14 15  2  0
 14 13  1  0
 15 16  1  0
 16 21  2  0
 16 17  1  0
 17 18  2  0
 18 19  1  0
 20 19  2  0
 21 20  1  0
 22 17  1  0
  2 23  1  0
  2 24  1  0
  3 25  1  0
  3 26  1  0
  4 27  1  0
  5 28  1  0
  5 29  1  0
  6 30  1  1
  7 31  1  0
  8 32  1  0
 11 33  1  0
 14 34  1  0
 19 35  1  0
 22 36  1  0
 22 37  1  0
M  ISO  8  23  13  24  13  25  13  26  13  27   5  28  13  29  13  30  13
M  ISO  5  31  14  32  14  33  14  34  14  35  14
M  END
>  <minimizedAffinity>  (1) 
-5.98805571

>  <minimizedRMSD>  (1) 
3.58322358

$$$$
