
     RDKit          3D

 40 42  0  0  1  0  0  0  0  0999 V2000
   45.9580   34.3890   41.4490 N   0  0  0  0  0  0  0  0  0  0  0  0
   47.3250   34.6550   41.0520 C   0  0  0  0  0  0  0  0  0  0  0  0
   47.7050   33.7000   39.9550 C   0  0  0  0  0  0  0  0  0  0  0  0
   46.7220   33.8530   38.9050 N   0  0  0  0  0  0  0  0  0  0  0  0
   45.5560   33.1270   39.3880 C   0  0  0  0  0  0  0  0  0  0  0  0
   44.9580   33.7030   40.6350 C   0  0  2  0  0  0  0  0  0  0  0  0
   44.6800   36.4200   44.3280 C   0  0  0  0  0  0  0  0  0  0  0  0
   45.0810   36.0920   43.0420 C   0  0  0  0  0  0  0  0  0  0  0  0
   45.5460   34.8140   42.7440 C   0  0  0  0  0  0  0  0  0  0  0  0
   45.5800   33.9190   43.7980 N   0  0  0  0  0  0  0  0  0  0  0  0
   45.1810   34.2750   45.0380 C   0  0  0  0  0  0  0  0  0  0  0  0
   44.7380   35.5080   45.2960 N   0  0  0  0  0  0  0  0  0  0  0  0
   43.7170   34.4200   40.3540 C   0  0  0  0  0  0  0  0  0  0  0  0
   42.6020   33.9450   41.2970 C   0  0  0  0  0  0  0  0  0  0  0  0
   41.4620   34.9590   41.2620 C   0  0  0  0  0  0  0  0  0  0  0  0
   41.0010   35.2180   39.8540 C   0  0  0  0  0  0  0  0  0  0  0  0
   42.0730   35.3290   38.8320 C   0  0  0  0  0  0  0  0  0  0  0  0
   43.1290   34.2510   38.9680 C   0  0  0  0  0  0  0  0  0  0  0  0
   47.4096   35.6894   40.6875 H   0  0  0  0  0  0  0  0  0  0  0  0
   47.9969   34.5222   41.9127 H   0  0  0  0  0  0  0  0  0  0  0  0
   48.7075   33.9426   39.5728 H   0  0  0  0  0  0  0  0  0  0  0  0
   47.7276   32.6644   40.3251 H   0  0  0  0  0  0  0  0  0  0  0  0
   47.0649   33.4457   38.0233 H   0  0  0  0  0  0  0  0  0  0  0  0
   44.7896   33.1378   38.5990 H   0  0  0  0  0  0  0  0  0  0  0  0
   45.8924   32.1092   39.6349 H   0  0  0  0  0  0  0  0  0  0  0  0
   44.6269   32.8884   41.2959 H   0  0  0  0  0  0  0  0  0  0  0  0
   44.3140   37.4336   44.5484 H   0  0  0  0  0  0  0  0  0  0  0  0
   45.0311   36.8509   42.2473 H   0  0  0  0  0  0  0  0  0  0  0  0
   45.2217   33.5352   45.8510 H   0  0  0  0  0  0  0  0  0  0  0  0
   44.0215   35.4696   40.4787 H   0  0  0  0  0  0  0  0  0  0  0  0
   42.2330   32.9625   40.9676 H   0  0  0  0  0  0  0  0  0  0  0  0
   42.9920   33.8568   42.3218 H   0  0  0  0  0  0  0  0  0  0  0  0
   40.6176   34.5686   41.8490 H   0  0  0  0  0  0  0  0  0  0  0  0
   41.8276   35.9057   41.6863 H   0  0  0  0  0  0  0  0  0  0  0  0
   40.3378   34.3915   39.5588 H   0  0  0  0  0  0  0  0  0  0  0  0
   40.5083   36.2012   39.8775 H   0  0  0  0  0  0  0  0  0  0  0  0
   42.5578   36.3108   38.9366 H   0  0  0  0  0  0  0  0  0  0  0  0
   41.6027   35.2087   37.8449 H   0  0  0  0  0  0  0  0  0  0  0  0
   42.6746   33.2547   38.8638 H   0  0  0  0  0  0  0  0  0  0  0  0
   43.8998   34.3393   38.1882 H   0  0  0  0  0  0  0  0  0  0  0  0
  1  9  1  0
  2  1  1  0
  3  2  1  0
  4  5  1  0
  4  3  1  0
  5  6  1  0
  6  1  1  0
  7 12  2  0
  8  7  1  0
  9  8  2  0
  9 10  1  0
 10 11  2  0
 11 12  1  0
 13  6  1  0
 13 14  1  0
 15 14  1  0
 16 15  1  0
 17 18  1  0
 17 16  1  0
 18 13  1  0
  2 19  1  0
  2 20  1  0
  3 21  1  0
  3 22  1  0
  4 23  1  0
  5 24  1  0
  5 25  1  0
  6 26  1  1
  7 27  1  0
  8 28  1  0
 11 29  1  0
 13 30  1  0
 14 31  1  0
 14 32  1  0
 15 33  1  0
 15 34  1  0
 16 35  1  0
 16 36  1  0
 17 37  1  0
 17 38  1  0
 18 39  1  0
 18 40  1  0
M  ISO  8  19  13  20  13  21  13  22  13  23   5  24  13  25  13  26  13
M  ISO  8  27  14  28  14  29  14  30  13  31  13  32  13  33  13  34  13
M  ISO  6  35  13  36  13  37  13  38  13  39  13  40  13
M  END
>  <minimizedAffinity>  (1) 
-5.36114359

>  <minimizedRMSD>  (1) 
1.42924798

$$$$
