
     RDKit          3D

 31 33  0  0  1  0  0  0  0  0999 V2000
   47.1600   34.5040   42.3090 N   0  0  0  0  0  0  0  0  0  0  0  0
   48.5440   34.2380   42.6000 C   0  0  0  0  0  0  0  0  0  0  0  0
   49.1820   33.4920   41.4740 C   0  0  0  0  0  0  0  0  0  0  0  0
   48.9060   34.2150   40.2410 N   0  0  0  0  0  0  0  0  0  0  0  0
   47.5230   33.9120   39.9420 C   0  0  0  0  0  0  0  0  0  0  0  0
   46.5940   34.4940   40.9650 C   0  0  1  0  0  0  0  0  0  0  0  0
   44.5980   36.1460   44.4880 C   0  0  0  0  0  0  0  0  0  0  0  0
   45.4410   35.9490   43.3930 C   0  0  0  0  0  0  0  0  0  0  0  0
   46.2610   34.8010   43.3820 C   0  0  0  0  0  0  0  0  0  0  0  0
   46.1780   33.9520   44.4470 N   0  0  0  0  0  0  0  0  0  0  0  0
   45.3470   34.1830   45.4860 C   0  0  0  0  0  0  0  0  0  0  0  0
   44.5650   35.2710   45.5020 N   0  0  0  0  0  0  0  0  0  0  0  0
   45.2780   33.8760   40.9400 C   0  0  0  0  0  0  0  0  0  0  0  0
   43.9800   34.3580   40.6540 C   0  0  0  0  0  0  0  0  0  0  0  0
   42.9340   33.5070   40.7210 C   0  0  0  0  0  0  0  0  0  0  0  0
   43.1880   32.1730   41.0760 C   0  0  0  0  0  0  0  0  0  0  0  0
   45.0670   32.2040   41.3150 S   0  0  0  0  0  0  0  0  0  0  0  0
   49.0724   35.1914   42.7479 H   0  0  0  0  0  0  0  0  0  0  0  0
   48.6042   33.6254   43.5116 H   0  0  0  0  0  0  0  0  0  0  0  0
   50.2684   33.4304   41.6353 H   0  0  0  0  0  0  0  0  0  0  0  0
   48.7788   32.4702   41.4159 H   0  0  0  0  0  0  0  0  0  0  0  0
   49.0352   35.2278   40.3767 H   0  0  0  0  0  0  0  0  0  0  0  0
   47.2722   34.3281   38.9551 H   0  0  0  0  0  0  0  0  0  0  0  0
   47.4018   32.8187   39.9513 H   0  0  0  0  0  0  0  0  0  0  0  0
   46.4600   35.5466   40.6750 H   0  0  0  0  0  0  0  0  0  0  0  0
   43.9501   37.0344   44.5189 H   0  0  0  0  0  0  0  0  0  0  0  0
   45.4653   36.6689   42.5617 H   0  0  0  0  0  0  0  0  0  0  0  0
   45.3118   33.4729   46.3253 H   0  0  0  0  0  0  0  0  0  0  0  0
   43.8245   35.4121   40.3806 H   0  0  0  0  0  0  0  0  0  0  0  0
   41.9115   33.8495   40.5035 H   0  0  0  0  0  0  0  0  0  0  0  0
   42.4846   31.3344   41.1859 H   0  0  0  0  0  0  0  0  0  0  0  0
  1  2  1  0
  1  9  1  0
  3  2  1  0
  4  3  1  0
  5  4  1  0
  5  6  1  0
  6  1  1  0
  7 12  2  0
  8  7  1  0
  9  8  2  0
  9 10  1  0
 10 11  2  0
 11 12  1  0
 13  6  1  0
 13 17  1  0
 14 15  1  0
 14 13  2  0
 15 16  2  0
 16 17  1  0
  2 18  1  0
  2 19  1  0
  3 20  1  0
  3 21  1  0
  4 22  1  0
  5 23  1  0
  5 24  1  0
  6 25  1  6
  7 26  1  0
  8 27  1  0
 11 28  1  0
 14 29  1  0
 15 30  1  0
 16 31  1  0
M  ISO  8  18  13  19  13  20  13  21  13  22   5  23  13  24  13  25  13
M  ISO  6  26  14  27  14  28  14  29  14  30  14  31  14
M  END
>  <minimizedAffinity>  (1) 
-4.75796795

>  <minimizedRMSD>  (1) 
0.962514341

$$$$
