
     RDKit          3D

 29 31  0  0  1  0  0  0  0  0999 V2000
   46.2240   34.3820   42.0230 N   0  0  0  0  0  0  0  0  0  0  0  0
   47.4230   35.0800   41.6060 C   0  0  0  0  0  0  0  0  0  0  0  0
   48.0800   34.2990   40.5060 C   0  0  0  0  0  0  0  0  0  0  0  0
   47.0780   34.1100   39.4740 N   0  0  0  0  0  0  0  0  0  0  0  0
   46.2320   33.0480   39.9660 C   0  0  0  0  0  0  0  0  0  0  0  0
   45.5080   33.4240   41.2320 C   0  0  2  0  0  0  0  0  0  0  0  0
   44.4900   35.9710   44.9450 C   0  0  0  0  0  0  0  0  0  0  0  0
   44.9820   35.7720   43.6630 C   0  0  0  0  0  0  0  0  0  0  0  0
   45.7040   34.6340   43.3240 C   0  0  0  0  0  0  0  0  0  0  0  0
   45.8790   33.7560   44.3440 N   0  0  0  0  0  0  0  0  0  0  0  0
   45.4060   33.9460   45.5780 C   0  0  0  0  0  0  0  0  0  0  0  0
   44.7180   35.0400   45.8810 N   0  0  0  0  0  0  0  0  0  0  0  0
   44.1040   33.8580   40.8880 C   0  0  0  0  0  0  0  0  0  0  0  0
   42.9670   33.1550   41.0350 N   0  0  0  0  0  0  0  0  0  0  0  0
   41.9650   33.8380   40.5990 O   0  0  0  0  0  0  0  0  0  0  0  0
   42.3630   34.9980   40.1510 C   0  0  0  0  0  0  0  0  0  0  0  0
   43.6900   35.0320   40.3210 N   0  0  0  0  0  0  0  0  0  0  0  0
   47.1584   36.0830   41.2400 H   0  0  0  0  0  0  0  0  0  0  0  0
   48.1127   35.1790   42.4572 H   0  0  0  0  0  0  0  0  0  0  0  0
   48.9377   34.8582   40.1039 H   0  0  0  0  0  0  0  0  0  0  0  0
   48.4549   33.3331   40.8755 H   0  0  0  0  0  0  0  0  0  0  0  0
   47.5208   33.8378   38.5847 H   0  0  0  0  0  0  0  0  0  0  0  0
   45.4877   32.8040   39.1937 H   0  0  0  0  0  0  0  0  0  0  0  0
   46.8770   32.1867   40.1942 H   0  0  0  0  0  0  0  0  0  0  0  0
   45.4455   32.5379   41.8807 H   0  0  0  0  0  0  0  0  0  0  0  0
   43.9209   36.8801   45.1893 H   0  0  0  0  0  0  0  0  0  0  0  0
   44.7954   36.5360   42.8939 H   0  0  0  0  0  0  0  0  0  0  0  0
   45.5886   33.1869   46.3528 H   0  0  0  0  0  0  0  0  0  0  0  0
   41.7329   35.7898   39.7197 H   0  0  0  0  0  0  0  0  0  0  0  0
  1  9  1  0
  2  1  1  0
  3  2  1  0
  4  5  1  0
  4  3  1  0
  5  6  1  0
  6  1  1  0
  7 12  2  0
  8  7  1  0
  9  8  2  0
  9 10  1  0
 10 11  2  0
 11 12  1  0
 13 14  2  0
 13  6  1  0
 15 14  1  0
 16 17  2  0
 16 15  1  0
 17 13  1  0
  2 18  1  0
  2 19  1  0
  3 20  1  0
  3 21  1  0
  4 22  1  0
  5 23  1  0
  5 24  1  0
  6 25  1  1
  7 26  1  0
  8 27  1  0
 11 28  1  0
 16 29  1  0
M  ISO  8  18  13  19  13  20  13  21  13  22   5  23  13  24  13  25  13
M  ISO  4  26  14  27  14  28  14  29  14
M  END
>  <minimizedAffinity>  (1) 
-4.68144989

>  <minimizedRMSD>  (1) 
1.50235105

$$$$
