
     RDKit          3D

 37 39  0  0  1  0  0  0  0  0999 V2000
   46.6610   34.3460   42.2900 N   0  0  0  0  0  0  0  0  0  0  0  0
   47.6520   35.2760   41.8080 C   0  0  0  0  0  0  0  0  0  0  0  0
   48.6110   34.5660   40.9030 C   0  0  0  0  0  0  0  0  0  0  0  0
   47.8070   33.9320   39.8530 N   0  0  0  0  0  0  0  0  0  0  0  0
   47.2290   32.7670   40.4880 C   0  0  0  0  0  0  0  0  0  0  0  0
   46.3230   33.1200   41.6250 C   0  0  2  0  0  0  0  0  0  0  0  0
   44.4760   35.9380   44.8860 C   0  0  0  0  0  0  0  0  0  0  0  0
   45.1420   35.7200   43.6860 C   0  0  0  0  0  0  0  0  0  0  0  0
   45.9650   34.6150   43.4950 C   0  0  0  0  0  0  0  0  0  0  0  0
   46.0640   33.7780   44.5640 N   0  0  0  0  0  0  0  0  0  0  0  0
   45.4170   33.9960   45.7210 C   0  0  0  0  0  0  0  0  0  0  0  0
   44.6350   35.0570   45.8840 N   0  0  0  0  0  0  0  0  0  0  0  0
   44.9350   33.1720   41.2420 N   0  0  0  0  0  0  0  0  0  0  0  0
   44.0580   32.5060   42.1600 C   0  0  0  0  0  0  0  0  0  0  0  0
   42.6530   32.6000   41.6020 C   0  0  0  0  0  0  0  0  0  0  0  0
   42.2760   33.8850   41.2600 O   0  0  0  0  0  0  0  0  0  0  0  0
   43.1230   34.4840   40.3330 C   0  0  0  0  0  0  0  0  0  0  0  0
   44.5310   34.4880   40.8360 C   0  0  0  0  0  0  0  0  0  0  0  0
   47.1550   36.0848   41.2522 H   0  0  0  0  0  0  0  0  0  0  0  0
   48.2014   35.6988   42.6621 H   0  0  0  0  0  0  0  0  0  0  0  0
   49.3162   35.2841   40.4592 H   0  0  0  0  0  0  0  0  0  0  0  0
   49.1994   33.8194   41.4566 H   0  0  0  0  0  0  0  0  0  0  0  0
   48.4004   33.6557   39.0578 H   0  0  0  0  0  0  0  0  0  0  0  0
   46.6509   32.2075   39.7378 H   0  0  0  0  0  0  0  0  0  0  0  0
   48.0553   32.1659   40.8954 H   0  0  0  0  0  0  0  0  0  0  0  0
   46.4773   32.2940   42.3349 H   0  0  0  0  0  0  0  0  0  0  0  0
   43.8293   36.8185   45.0149 H   0  0  0  0  0  0  0  0  0  0  0  0
   45.0149   36.4408   42.8649 H   0  0  0  0  0  0  0  0  0  0  0  0
   45.5372   33.2821   46.5492 H   0  0  0  0  0  0  0  0  0  0  0  0
   44.3517   31.4507   42.2606 H   0  0  0  0  0  0  0  0  0  0  0  0
   44.1110   32.9748   43.1537 H   0  0  0  0  0  0  0  0  0  0  0  0
   42.5936   31.9696   40.7025 H   0  0  0  0  0  0  0  0  0  0  0  0
   41.9688   32.2646   42.3954 H   0  0  0  0  0  0  0  0  0  0  0  0
   42.7969   35.5205   40.1616 H   0  0  0  0  0  0  0  0  0  0  0  0
   43.0825   33.9134   39.3935 H   0  0  0  0  0  0  0  0  0  0  0  0
   45.1984   34.8382   40.0348 H   0  0  0  0  0  0  0  0  0  0  0  0
   44.5906   35.1575   41.7067 H   0  0  0  0  0  0  0  0  0  0  0  0
  1  9  1  0
  2  1  1  0
  3  2  1  0
  4  5  1  0
  4  3  1  0
  5  6  1  0
  6  1  1  0
  7 12  2  0
  8  7  1  0
  9  8  2  0
  9 10  1  0
 10 11  2  0
 11 12  1  0
 13  6  1  0
 13 14  1  0
 15 14  1  0
 16 15  1  0
 17 18  1  0
 17 16  1  0
 18 13  1  0
  2 19  1  0
  2 20  1  0
  3 21  1  0
  3 22  1  0
  4 23  1  0
  5 24  1  0
  5 25  1  0
  6 26  1  1
  7 27  1  0
  8 28  1  0
 11 29  1  0
 14 30  1  0
 14 31  1  0
 15 32  1  0
 15 33  1  0
 17 34  1  0
 17 35  1  0
 18 36  1  0
 18 37  1  0
M  ISO  8  19  13  20  13  21  13  22  13  23   5  24  13  25  13  26  13
M  ISO  8  27  14  28  14  29  14  30  13  31  13  32  13  33  13  34  13
M  ISO  3  35  13  36  13  37  13
M  END
>  <minimizedAffinity>  (1) 
-4.73092461

>  <minimizedRMSD>  (1) 
1.84563196

$$$$
