
     RDKit          3D

 37 39  0  0  1  0  0  0  0  0999 V2000
   46.2130   34.4530   41.6920 N   0  0  0  0  0  0  0  0  0  0  0  0
   47.5520   34.8930   41.3380 C   0  0  0  0  0  0  0  0  0  0  0  0
   48.0750   34.0020   40.2440 C   0  0  0  0  0  0  0  0  0  0  0  0
   47.1170   34.0650   39.1640 N   0  0  0  0  0  0  0  0  0  0  0  0
   46.0050   33.2760   39.5560 C   0  0  0  0  0  0  0  0  0  0  0  0
   45.3650   33.6530   40.8590 C   0  0  2  0  0  0  0  0  0  0  0  0
   44.6170   36.2710   44.5500 C   0  0  0  0  0  0  0  0  0  0  0  0
   45.1080   36.0180   43.2770 C   0  0  0  0  0  0  0  0  0  0  0  0
   45.6980   34.8060   42.9660 C   0  0  0  0  0  0  0  0  0  0  0  0
   45.7520   33.9170   43.9910 N   0  0  0  0  0  0  0  0  0  0  0  0
   45.2880   34.1370   45.2260 C   0  0  0  0  0  0  0  0  0  0  0  0
   44.7150   35.3210   45.5100 N   0  0  0  0  0  0  0  0  0  0  0  0
   43.9890   34.2040   40.5750 C   0  0  0  0  0  0  0  0  0  0  0  0
   43.5020   33.9900   39.1840 C   0  0  0  0  0  0  0  0  0  0  0  0
   42.4260   32.9400   39.2370 C   0  0  0  0  0  0  0  0  0  0  0  0
   41.9960   32.7990   40.6590 C   0  0  0  0  0  0  0  0  0  0  0  0
   43.0240   33.4800   41.4990 C   0  0  0  0  0  0  0  0  0  0  0  0
   47.5189   35.9341   40.9843 H   0  0  0  0  0  0  0  0  0  0  0  0
   48.2113   34.8368   42.2167 H   0  0  0  0  0  0  0  0  0  0  0  0
   49.0571   34.3594   39.9010 H   0  0  0  0  0  0  0  0  0  0  0  0
   48.2015   32.9693   40.6011 H   0  0  0  0  0  0  0  0  0  0  0  0
   47.5318   33.6885   38.2996 H   0  0  0  0  0  0  0  0  0  0  0  0
   45.2406   33.3552   38.7690 H   0  0  0  0  0  0  0  0  0  0  0  0
   46.3961   32.2578   39.6984 H   0  0  0  0  0  0  0  0  0  0  0  0
   45.2235   32.7625   41.4891 H   0  0  0  0  0  0  0  0  0  0  0  0
   44.1497   37.2402   44.7786 H   0  0  0  0  0  0  0  0  0  0  0  0
   45.0267   36.7944   42.5020 H   0  0  0  0  0  0  0  0  0  0  0  0
   45.3737   33.3599   45.9998 H   0  0  0  0  0  0  0  0  0  0  0  0
   44.0445   35.2920   40.7272 H   0  0  0  0  0  0  0  0  0  0  0  0
   44.3294   33.6477   38.5451 H   0  0  0  0  0  0  0  0  0  0  0  0
   43.1080   34.9270   38.7635 H   0  0  0  0  0  0  0  0  0  0  0  0
   41.5716   33.2481   38.6165 H   0  0  0  0  0  0  0  0  0  0  0  0
   42.8053   31.9814   38.8534 H   0  0  0  0  0  0  0  0  0  0  0  0
   41.0146   33.2740   40.8051 H   0  0  0  0  0  0  0  0  0  0  0  0
   41.9043   31.7385   40.9365 H   0  0  0  0  0  0  0  0  0  0  0  0
   43.5693   32.7350   42.0970 H   0  0  0  0  0  0  0  0  0  0  0  0
   42.5431   34.1956   42.1821 H   0  0  0  0  0  0  0  0  0  0  0  0
  1  9  1  0
  2  1  1  0
  3  2  1  0
  4  5  1  0
  4  3  1  0
  5  6  1  0
  6  1  1  0
  7 12  2  0
  8  7  1  0
  9  8  2  0
  9 10  1  0
 10 11  2  0
 11 12  1  0
 13  6  1  0
 13 17  1  0
 14 15  1  0
 14 13  1  0
 15 16  1  0
 16 17  1  0
  2 18  1  0
  2 19  1  0
  3 20  1  0
  3 21  1  0
  4 22  1  0
  5 23  1  0
  5 24  1  0
  6 25  1  1
  7 26  1  0
  8 27  1  0
 11 28  1  0
 13 29  1  0
 14 30  1  0
 14 31  1  0
 15 32  1  0
 15 33  1  0
 16 34  1  0
 16 35  1  0
 17 36  1  0
 17 37  1  0
M  ISO  8  18  13  19  13  20  13  21  13  22   5  23  13  24  13  25  13
M  ISO  8  26  14  27  14  28  14  29  13  30  13  31  13  32  13  33  13
M  ISO  4  34  13  35  13  36  13  37  13
M  END
>  <minimizedAffinity>  (1) 
-4.70226574

>  <minimizedRMSD>  (1) 
1.13603389

$$$$
