
     RDKit          3D

 28 30  0  0  0  0  0  0  0  0999 V2000
   44.6880   35.7440   45.1050 C   0  0  0  0  0  0  0  0  0  0  0  0
   44.2290   35.6860   43.7760 C   0  0  0  0  0  0  0  0  0  0  0  0
   44.4610   34.5350   43.0500 C   0  0  0  0  0  0  0  0  0  0  0  0
   45.1220   33.5040   43.6380 N   0  0  0  0  0  0  0  0  0  0  0  0
   45.5600   33.5720   44.9210 C   0  0  0  0  0  0  0  0  0  0  0  0
   45.3380   34.6840   45.6290 N   0  0  0  0  0  0  0  0  0  0  0  0
   46.2630   32.4450   45.5140 C   0  0  0  0  0  0  0  0  0  0  0  0
   47.2050   31.6260   44.9020 C   0  0  0  0  0  0  0  0  0  0  0  0
   47.6290   30.6880   45.7890 N   0  0  0  0  0  0  0  0  0  0  0  0
   46.9560   30.9240   46.9350 C   0  0  0  0  0  0  0  0  0  0  0  0
   46.1260   31.9920   46.7680 N   0  0  0  0  0  0  0  0  0  0  0  0
   45.2280   32.5660   47.7720 C   0  0  0  0  0  0  0  0  0  0  0  0
   44.2560   31.6360   48.1770 F   0  0  0  0  0  0  0  0  0  0  0  0
   44.5940   33.7090   47.3070 F   0  0  0  0  0  0  0  0  0  0  0  0
   45.9400   32.8680   48.9290 F   0  0  0  0  0  0  0  0  0  0  0  0
   44.0400   34.3550   41.6820 C   0  0  0  0  0  0  0  0  0  0  0  0
   43.1030   35.1400   41.0680 C   0  0  0  0  0  0  0  0  0  0  0  0
   42.7020   34.9680   39.7630 C   0  0  0  0  0  0  0  0  0  0  0  0
   43.2520   33.9690   39.0150 N   0  0  0  0  0  0  0  0  0  0  0  0
   44.1890   33.1810   39.6170 C   0  0  0  0  0  0  0  0  0  0  0  0
   44.5480   33.3790   40.8770 N   0  0  0  0  0  0  0  0  0  0  0  0
   44.5183   36.6458   45.7115 H   0  0  0  0  0  0  0  0  0  0  0  0
   43.6978   36.5378   43.3262 H   0  0  0  0  0  0  0  0  0  0  0  0
   47.5526   31.7222   43.8628 H   0  0  0  0  0  0  0  0  0  0  0  0
   47.0614   30.3426   47.8628 H   0  0  0  0  0  0  0  0  0  0  0  0
   42.6448   35.9536   41.6495 H   0  0  0  0  0  0  0  0  0  0  0  0
   41.9422   35.6324   39.3256 H   0  0  0  0  0  0  0  0  0  0  0  0
   44.6556   32.3653   39.0452 H   0  0  0  0  0  0  0  0  0  0  0  0
  1  6  2  0
  2  1  1  0
  3  4  1  0
  3  2  2  0
  4  5  2  0
  5  7  1  0
  5  6  1  0
  7 11  1  0
  8  7  2  0
  8  9  1  0
  9 10  2  0
 11 10  1  0
 11 12  1  0
 12 13  1  0
 12 15  1  0
 14 12  1  0
 16  3  1  0
 17 16  2  0
 18 17  1  0
 19 20  1  0
 19 18  2  0
 20 21  2  0
 21 16  1  0
  1 22  1  0
  2 23  1  0
  8 24  1  0
 10 25  1  0
 17 26  1  0
 18 27  1  0
 20 28  1  0
M  ISO  7  22  14  23  14  24  14  25  14  26  14  27  14  28  14
M  END
>  <minimizedAffinity>  (1) 
-5.3680234

>  <minimizedRMSD>  (1) 
0.789920807

$$$$
