
     RDKit          3D

 25 26  0  0  1  0  0  0  0  0999 V2000
   46.9030   34.7570   42.0160 N   0  0  0  0  0  0  0  0  0  0  0  0
   48.1810   35.3900   41.9290 C   0  0  0  0  0  0  0  0  0  0  0  0
   49.0320   34.6930   40.9120 C   0  0  0  0  0  0  0  0  0  0  0  0
   48.2780   34.6660   39.6730 N   0  0  0  0  0  0  0  0  0  0  0  0
   47.2820   33.6250   39.8720 C   0  0  0  0  0  0  0  0  0  0  0  0
   46.3280   33.9320   40.9840 C   0  0  2  0  0  0  0  0  0  0  0  0
   44.5170   36.1090   44.5780 C   0  0  0  0  0  0  0  0  0  0  0  0
   45.2450   36.0420   43.3900 C   0  0  0  0  0  0  0  0  0  0  0  0
   46.1040   34.9340   43.2000 C   0  0  0  0  0  0  0  0  0  0  0  0
   46.1700   33.9860   44.1990 N   0  0  0  0  0  0  0  0  0  0  0  0
   45.4400   34.1060   45.3300 C   0  0  0  0  0  0  0  0  0  0  0  0
   44.6220   35.1620   45.5110 N   0  0  0  0  0  0  0  0  0  0  0  0
   45.1640   34.5640   40.5270 O   0  0  0  0  0  0  0  0  0  0  0  0
   48.0472   36.4409   41.6329 H   0  0  0  0  0  0  0  0  0  0  0  0
   48.6763   35.3379   42.9098 H   0  0  0  0  0  0  0  0  0  0  0  0
   49.9745   35.2417   40.7685 H   0  0  0  0  0  0  0  0  0  0  0  0
   49.2811   33.6735   41.2416 H   0  0  0  0  0  0  0  0  0  0  0  0
   48.8918   34.4349   38.8788 H   0  0  0  0  0  0  0  0  0  0  0  0
   46.7084   33.5064   38.9410 H   0  0  0  0  0  0  0  0  0  0  0  0
   47.8188   32.7043   40.1443 H   0  0  0  0  0  0  0  0  0  0  0  0
   46.0808   32.9477   41.4083 H   0  0  0  0  0  0  0  0  0  0  0  0
   43.8422   36.9608   44.7488 H   0  0  0  0  0  0  0  0  0  0  0  0
   45.1540   36.8266   42.6244 H   0  0  0  0  0  0  0  0  0  0  0  0
   45.5141   33.3344   46.1105 H   0  0  0  0  0  0  0  0  0  0  0  0
   44.6223   34.8581   41.3017 H   0  0  0  0  0  0  0  0  0  0  0  0
  1  9  1  0
  2  1  1  0
  3  2  1  0
  4  5  1  0
  4  3  1  0
  5  6  1  0
  6  1  1  0
  7 12  2  0
  8  7  1  0
  9  8  2  0
  9 10  1  0
 10 11  2  0
 11 12  1  0
 13  6  1  0
  2 14  1  0
  2 15  1  0
  3 16  1  0
  3 17  1  0
  4 18  1  0
  5 19  1  0
  5 20  1  0
  6 21  1  1
  7 22  1  0
  8 23  1  0
 11 24  1  0
 13 25  1  0
M  ISO  8  14  13  15  13  16  13  17  13  18   5  19  13  20  13  21  13
M  ISO  4  22  14  23  14  24  14  25   3
M  END
>  <minimizedAffinity>  (1) 
-4.50505686

>  <minimizedRMSD>  (1) 
0.367103517

$$$$
