
     RDKit          3D

 48 52  0  0  1  0  0  0  0  0999 V2000
   46.9230   34.4560   42.5430 N   0  0  0  0  0  0  0  0  0  0  0  0
   48.3620   34.4520   42.6100 C   0  0  0  0  0  0  0  0  0  0  0  0
   48.9440   33.8340   41.3930 C   0  0  0  0  0  0  0  0  0  0  0  0
   48.3620   34.5390   40.2410 N   0  0  0  0  0  0  0  0  0  0  0  0
   47.0260   34.0190   40.1280 C   0  0  0  0  0  0  0  0  0  0  0  0
   46.1740   34.3990   41.3120 C   0  0  1  0  0  0  0  0  0  0  0  0
   45.0030   33.5780   41.3660 N   0  0  0  0  0  0  0  0  0  0  0  0
   44.8880   32.2610   41.5950 C   0  0  0  0  0  0  0  0  0  0  0  0
   43.6030   31.8270   41.5700 N   0  0  0  0  0  0  0  0  0  0  0  0
   42.8330   32.9180   41.3110 C   0  0  0  0  0  0  0  0  0  0  0  0
   41.4930   33.1620   41.1590 C   0  0  0  0  0  0  0  0  0  0  0  0
   41.0520   34.4260   40.8950 N   0  0  0  0  0  0  0  0  0  0  0  0
   41.9400   35.4260   40.7860 C   0  0  0  0  0  0  0  0  0  0  0  0
   43.2600   35.2200   40.9290 N   0  0  0  0  0  0  0  0  0  0  0  0
   43.7130   33.9670   41.1920 C   0  0  0  0  0  0  0  0  0  0  0  0
   44.5810   35.5410   45.2450 C   0  0  0  0  0  0  0  0  0  0  0  0
   45.2760   35.5510   44.0320 C   0  0  0  0  0  0  0  0  0  0  0  0
   46.1780   34.5190   43.7510 C   0  0  0  0  0  0  0  0  0  0  0  0
   46.2980   33.5720   44.7120 N   0  0  0  0  0  0  0  0  0  0  0  0
   45.6270   33.5710   45.8710 C   0  0  0  0  0  0  0  0  0  0  0  0
   44.7710   34.5520   46.1360 N   0  0  0  0  0  0  0  0  0  0  0  0
   45.8330   32.4770   46.8670 C   0  0  0  0  0  0  0  0  0  0  0  0
   47.2600   32.5850   47.4020 C   0  0  0  0  0  0  0  0  0  0  0  0
   47.1770   31.6660   48.6080 C   0  0  0  0  0  0  0  0  0  0  0  0
   45.7470   31.7480   49.0910 C   0  0  0  0  0  0  0  0  0  0  0  0
   45.0180   32.6370   48.1040 C   0  0  0  0  0  0  0  0  0  0  0  0
   48.7220   35.4879   42.6959 H   0  0  0  0  0  0  0  0  0  0  0  0
   48.6727   33.8649   43.4868 H   0  0  0  0  0  0  0  0  0  0  0  0
   50.0379   33.9498   41.3951 H   0  0  0  0  0  0  0  0  0  0  0  0
   48.7220   32.7574   41.3513 H   0  0  0  0  0  0  0  0  0  0  0  0
   48.3428   35.5550   40.4094 H   0  0  0  0  0  0  0  0  0  0  0  0
   46.5641   34.4203   39.2139 H   0  0  0  0  0  0  0  0  0  0  0  0
   47.0889   32.9214   40.0910 H   0  0  0  0  0  0  0  0  0  0  0  0
   45.8238   35.4325   41.1728 H   0  0  0  0  0  0  0  0  0  0  0  0
   45.7475   31.6009   41.7837 H   0  0  0  0  0  0  0  0  0  0  0  0
   40.7713   32.3369   41.2500 H   0  0  0  0  0  0  0  0  0  0  0  0
   41.5773   36.4425   40.5737 H   0  0  0  0  0  0  0  0  0  0  0  0
   43.8716   36.3503   45.4728 H   0  0  0  0  0  0  0  0  0  0  0  0
   45.1154   36.3617   43.3061 H   0  0  0  0  0  0  0  0  0  0  0  0
   45.5780   31.5450   46.3413 H   0  0  0  0  0  0  0  0  0  0  0  0
   47.9965   32.2257   46.6682 H   0  0  0  0  0  0  0  0  0  0  0  0
   47.5864   33.6104   47.6301 H   0  0  0  0  0  0  0  0  0  0  0  0
   47.4256   30.6337   48.3207 H   0  0  0  0  0  0  0  0  0  0  0  0
   47.8872   31.9638   49.3934 H   0  0  0  0  0  0  0  0  0  0  0  0
   45.2928   30.7463   49.1097 H   0  0  0  0  0  0  0  0  0  0  0  0
   45.6914   32.1529   50.1123 H   0  0  0  0  0  0  0  0  0  0  0  0
   45.0093   33.6837   48.4422 H   0  0  0  0  0  0  0  0  0  0  0  0
   43.9593   32.3699   47.9705 H   0  0  0  0  0  0  0  0  0  0  0  0
  1  2  1  0
  1 18  1  0
  3  2  1  0
  4  3  1  0
  5  4  1  0
  5  6  1  0
  6  7  1  0
  6  1  1  0
  7  8  1  0
  9  8  2  0
 10  9  1  0
 11 10  2  0
 12 11  1  0
 13 12  2  0
 13 14  1  0
 14 15  2  0
 15 10  1  0
 15  7  1  0
 16 21  2  0
 17 16  1  0
 18 17  2  0
 18 19  1  0
 19 20  2  0
 20 21  1  0
 20 22  1  0
 22 23  1  0
 22 26  1  0
 23 24  1  0
 24 25  1  0
 26 25  1  0
  2 27  1  0
  2 28  1  0
  3 29  1  0
  3 30  1  0
  4 31  1  0
  5 32  1  0
  5 33  1  0
  6 34  1  6
  8 35  1  0
 11 36  1  0
 13 37  1  0
 16 38  1  0
 17 39  1  0
 22 40  1  0
 23 41  1  0
 23 42  1  0
 24 43  1  0
 24 44  1  0
 25 45  1  0
 25 46  1  0
 26 47  1  0
 26 48  1  0
M  ISO  8  27  13  28  13  29  13  30  13  31   5  32  13  33  13  34  13
M  ISO  8  35  14  36  14  37  14  38  14  39  14  40  13  41  13  42  13
M  ISO  6  43  13  44  13  45  13  46  13  47  13  48  13
M  END
>  <minimizedAffinity>  (1) 
-6.89542627

>  <minimizedRMSD>  (1) 
0.505019546

$$$$
