
     RDKit          3D

 40 44  0  0  1  0  0  0  0  0999 V2000
   46.9590   34.6220   42.2540 N   0  0  0  0  0  0  0  0  0  0  0  0
   48.3850   34.6820   42.3720 C   0  0  0  0  0  0  0  0  0  0  0  0
   49.0300   33.9720   41.2270 C   0  0  0  0  0  0  0  0  0  0  0  0
   48.4620   34.5300   40.0000 N   0  0  0  0  0  0  0  0  0  0  0  0
   47.1530   33.9420   39.9110 C   0  0  0  0  0  0  0  0  0  0  0  0
   46.2540   34.3990   41.0200 C   0  0  1  0  0  0  0  0  0  0  0  0
   45.1040   33.5390   41.1240 N   0  0  0  0  0  0  0  0  0  0  0  0
   45.0390   32.2560   41.4460 C   0  0  0  0  0  0  0  0  0  0  0  0
   43.7630   31.7830   41.4390 N   0  0  0  0  0  0  0  0  0  0  0  0
   42.9670   32.8200   41.0920 C   0  0  0  0  0  0  0  0  0  0  0  0
   41.6110   33.0230   40.9020 C   0  0  0  0  0  0  0  0  0  0  0  0
   41.1240   34.2310   40.5430 N   0  0  0  0  0  0  0  0  0  0  0  0
   41.9940   35.2610   40.3670 C   0  0  0  0  0  0  0  0  0  0  0  0
   43.3140   35.1070   40.5400 N   0  0  0  0  0  0  0  0  0  0  0  0
   43.8100   33.8840   40.9040 C   0  0  0  0  0  0  0  0  0  0  0  0
   44.4970   35.9180   44.7610 C   0  0  0  0  0  0  0  0  0  0  0  0
   45.2370   35.8230   43.5810 C   0  0  0  0  0  0  0  0  0  0  0  0
   46.1610   34.7950   43.4270 C   0  0  0  0  0  0  0  0  0  0  0  0
   46.2670   33.9390   44.4830 N   0  0  0  0  0  0  0  0  0  0  0  0
   45.5580   34.0330   45.6080 C   0  0  0  0  0  0  0  0  0  0  0  0
   44.6780   35.0190   45.7450 N   0  0  0  0  0  0  0  0  0  0  0  0
   45.7940   33.0300   46.6440 C   0  0  0  0  0  0  0  0  0  0  0  0
   46.7490   32.0690   46.7090 N   0  0  0  0  0  0  0  0  0  0  0  0
   46.6000   31.3810   47.8180 O   0  0  0  0  0  0  0  0  0  0  0  0
   45.5750   31.8510   48.4980 C   0  0  0  0  0  0  0  0  0  0  0  0
   45.0580   32.8820   47.7810 N   0  0  0  0  0  0  0  0  0  0  0  0
   48.7051   35.7344   42.3732 H   0  0  0  0  0  0  0  0  0  0  0  0
   48.6872   34.1953   43.3110 H   0  0  0  0  0  0  0  0  0  0  0  0
   50.1178   34.1342   41.2470 H   0  0  0  0  0  0  0  0  0  0  0  0
   48.8479   32.8887   41.2854 H   0  0  0  0  0  0  0  0  0  0  0  0
   48.3970   35.5560   40.0624 H   0  0  0  0  0  0  0  0  0  0  0  0
   46.7015   34.2251   38.9487 H   0  0  0  0  0  0  0  0  0  0  0  0
   47.2651   32.8508   39.9931 H   0  0  0  0  0  0  0  0  0  0  0  0
   45.8655   35.3963   40.7661 H   0  0  0  0  0  0  0  0  0  0  0  0
   45.9178   31.6416   41.6915 H   0  0  0  0  0  0  0  0  0  0  0  0
   40.9154   32.1832   41.0463 H   0  0  0  0  0  0  0  0  0  0  0  0
   41.6039   36.2471   40.0748 H   0  0  0  0  0  0  0  0  0  0  0  0
   43.7648   36.7293   44.8862 H   0  0  0  0  0  0  0  0  0  0  0  0
   45.0898   36.5583   42.7762 H   0  0  0  0  0  0  0  0  0  0  0  0
   45.2067   31.4785   49.4652 H   0  0  0  0  0  0  0  0  0  0  0  0
  1  2  1  0
  1 18  1  0
  3  2  1  0
  4  3  1  0
  5  4  1  0
  5  6  1  0
  6  7  1  0
  6  1  1  0
  7  8  1  0
  9  8  2  0
 10  9  1  0
 11 10  2  0
 12 11  1  0
 13 14  1  0
 13 12  2  0
 14 15  2  0
 15 10  1  0
 15  7  1  0
 16 21  2  0
 17 16  1  0
 18 17  2  0
 18 19  1  0
 19 20  2  0
 20 21  1  0
 20 22  1  0
 22 23  2  0
 22 26  1  0
 23 24  1  0
 24 25  1  0
 26 25  2  0
  2 27  1  0
  2 28  1  0
  3 29  1  0
  3 30  1  0
  4 31  1  0
  5 32  1  0
  5 33  1  0
  6 34  1  6
  8 35  1  0
 11 36  1  0
 13 37  1  0
 16 38  1  0
 17 39  1  0
 25 40  1  0
M  ISO  8  27  13  28  13  29  13  30  13  31   5  32  13  33  13  34  13
M  ISO  6  35  14  36  14  37  14  38  14  39  14  40  14
M  END
>  <minimizedAffinity>  (1) 
-6.68190813

>  <minimizedRMSD>  (1) 
0.14181374

$$$$
