
     RDKit          3D

 37 40  0  0  1  0  0  0  0  0999 V2000
   46.8900   34.6490   42.2820 N   0  0  0  0  0  0  0  0  0  0  0  0
   48.3270   34.6710   42.4260 C   0  0  0  0  0  0  0  0  0  0  0  0
   48.9800   33.8820   41.3450 C   0  0  0  0  0  0  0  0  0  0  0  0
   48.4590   34.3760   40.0720 N   0  0  0  0  0  0  0  0  0  0  0  0
   47.1280   33.8280   39.9810 C   0  0  0  0  0  0  0  0  0  0  0  0
   46.2100   34.3750   41.0340 C   0  0  1  0  0  0  0  0  0  0  0  0
   45.0510   33.5500   41.1710 N   0  0  0  0  0  0  0  0  0  0  0  0
   44.9390   32.2750   41.5490 C   0  0  0  0  0  0  0  0  0  0  0  0
   43.6480   31.8370   41.5550 N   0  0  0  0  0  0  0  0  0  0  0  0
   42.8760   32.8800   41.1620 C   0  0  0  0  0  0  0  0  0  0  0  0
   41.5330   33.0950   40.9640 C   0  0  0  0  0  0  0  0  0  0  0  0
   41.0900   34.3040   40.5510 N   0  0  0  0  0  0  0  0  0  0  0  0
   41.9860   35.2980   40.3360 C   0  0  0  0  0  0  0  0  0  0  0  0
   43.2960   35.1170   40.5210 N   0  0  0  0  0  0  0  0  0  0  0  0
   43.7570   33.9110   40.9340 C   0  0  0  0  0  0  0  0  0  0  0  0
   44.4710   36.1960   44.6700 C   0  0  0  0  0  0  0  0  0  0  0  0
   45.2350   36.0070   43.5270 C   0  0  0  0  0  0  0  0  0  0  0  0
   46.0830   34.9060   43.4110 C   0  0  0  0  0  0  0  0  0  0  0  0
   46.0880   34.0680   44.4880 N   0  0  0  0  0  0  0  0  0  0  0  0
   45.3450   34.2510   45.5960 C   0  0  0  0  0  0  0  0  0  0  0  0
   44.5390   35.3130   45.6870 N   0  0  0  0  0  0  0  0  0  0  0  0
   45.5370   33.2320   46.5680 N   0  0  0  0  0  0  0  0  0  0  0  0
   48.6785   35.7121   42.3749 H   0  0  0  0  0  0  0  0  0  0  0  0
   48.5905   34.2245   43.3961 H   0  0  0  0  0  0  0  0  0  0  0  0
   50.0706   34.0199   41.3845 H   0  0  0  0  0  0  0  0  0  0  0  0
   48.7678   32.8091   41.4630 H   0  0  0  0  0  0  0  0  0  0  0  0
   48.4286   35.4055   40.0674 H   0  0  0  0  0  0  0  0  0  0  0  0
   46.7136   34.0697   38.9911 H   0  0  0  0  0  0  0  0  0  0  0  0
   47.2022   32.7411   40.1331 H   0  0  0  0  0  0  0  0  0  0  0  0
   45.8553   35.3607   40.6984 H   0  0  0  0  0  0  0  0  0  0  0  0
   45.7969   31.6447   41.8262 H   0  0  0  0  0  0  0  0  0  0  0  0
   40.8157   32.2803   41.1422 H   0  0  0  0  0  0  0  0  0  0  0  0
   41.6241   36.2809   39.9999 H   0  0  0  0  0  0  0  0  0  0  0  0
   43.8072   37.0697   44.7468 H   0  0  0  0  0  0  0  0  0  0  0  0
   45.1710   36.7335   42.7036 H   0  0  0  0  0  0  0  0  0  0  0  0
   45.0207   33.2660   47.4586 H   0  0  0  0  0  0  0  0  0  0  0  0
   46.1924   32.4596   46.3818 H   0  0  0  0  0  0  0  0  0  0  0  0
  1  2  1  0
  1 18  1  0
  3  2  1  0
  4  3  1  0
  5  4  1  0
  5  6  1  0
  6  7  1  0
  6  1  1  0
  7  8  1  0
  8  9  2  0
 10  9  1  0
 11 10  2  0
 12 11  1  0
 13 14  1  0
 13 12  2  0
 14 15  2  0
 15 10  1  0
 15  7  1  0
 16 21  2  0
 17 16  1  0
 18 17  2  0
 18 19  1  0
 19 20  2  0
 20 21  1  0
 20 22  1  0
  2 23  1  0
  2 24  1  0
  3 25  1  0
  3 26  1  0
  4 27  1  0
  5 28  1  0
  5 29  1  0
  6 30  1  6
  8 31  1  0
 11 32  1  0
 13 33  1  0
 16 34  1  0
 17 35  1  0
 22 36  1  0
 22 37  1  0
M  ISO  8  23  13  24  13  25  13  26  13  27   5  28  13  29  13  30  13
M  ISO  5  31  14  32  14  33  14  34  14  35  14
M  END
>  <minimizedAffinity>  (1) 
-6.11230755

>  <minimizedRMSD>  (1) 
0.114563063

$$$$
