
     RDKit          3D

 41 44  0  0  1  0  0  0  0  0999 V2000
   46.9170   34.6290   42.2770 N   0  0  0  0  0  0  0  0  0  0  0  0
   48.3560   34.6560   42.4130 C   0  0  0  0  0  0  0  0  0  0  0  0
   48.9910   33.8970   41.3060 C   0  0  0  0  0  0  0  0  0  0  0  0
   48.4550   34.4330   40.0450 N   0  0  0  0  0  0  0  0  0  0  0  0
   47.1310   33.8630   39.9530 C   0  0  0  0  0  0  0  0  0  0  0  0
   46.2290   34.3880   41.0400 C   0  0  1  0  0  0  0  0  0  0  0  0
   45.0610   33.5480   41.1570 N   0  0  0  0  0  0  0  0  0  0  0  0
   44.9660   32.2700   41.5080 C   0  0  0  0  0  0  0  0  0  0  0  0
   43.6830   31.8180   41.5030 N   0  0  0  0  0  0  0  0  0  0  0  0
   42.9110   32.8560   41.1320 C   0  0  0  0  0  0  0  0  0  0  0  0
   41.5630   33.0710   40.9320 C   0  0  0  0  0  0  0  0  0  0  0  0
   41.1020   34.2930   40.5400 N   0  0  0  0  0  0  0  0  0  0  0  0
   41.9800   35.2910   40.3490 C   0  0  0  0  0  0  0  0  0  0  0  0
   43.3000   35.1160   40.5330 N   0  0  0  0  0  0  0  0  0  0  0  0
   43.7720   33.9060   40.9230 C   0  0  0  0  0  0  0  0  0  0  0  0
   44.4900   36.0670   44.7260 C   0  0  0  0  0  0  0  0  0  0  0  0
   45.2410   35.9340   43.5520 C   0  0  0  0  0  0  0  0  0  0  0  0
   46.1100   34.8550   43.4300 C   0  0  0  0  0  0  0  0  0  0  0  0
   46.1510   34.0030   44.4910 N   0  0  0  0  0  0  0  0  0  0  0  0
   45.4300   34.1420   45.6010 C   0  0  0  0  0  0  0  0  0  0  0  0
   44.5930   35.1770   45.7260 N   0  0  0  0  0  0  0  0  0  0  0  0
   45.6770   33.0510   46.6110 C   0  0  0  0  0  0  0  0  0  0  0  0
   46.9260   32.3160   46.1440 C   0  0  0  0  0  0  0  0  0  0  0  0
   48.7040   35.6991   42.3845 H   0  0  0  0  0  0  0  0  0  0  0  0
   48.6343   34.1928   43.3711 H   0  0  0  0  0  0  0  0  0  0  0  0
   50.0827   34.0283   41.3371 H   0  0  0  0  0  0  0  0  0  0  0  0
   48.7744   32.8223   41.3959 H   0  0  0  0  0  0  0  0  0  0  0  0
   48.4088   35.4615   40.0755 H   0  0  0  0  0  0  0  0  0  0  0  0
   46.6985   34.1189   38.9745 H   0  0  0  0  0  0  0  0  0  0  0  0
   47.2150   32.7724   40.0698 H   0  0  0  0  0  0  0  0  0  0  0  0
   45.8765   35.3887   40.7496 H   0  0  0  0  0  0  0  0  0  0  0  0
   45.8313   31.6451   41.7739 H   0  0  0  0  0  0  0  0  0  0  0  0
   40.8517   32.2470   41.0906 H   0  0  0  0  0  0  0  0  0  0  0  0
   41.6093   36.2775   40.0337 H   0  0  0  0  0  0  0  0  0  0  0  0
   43.8013   36.9182   44.8313 H   0  0  0  0  0  0  0  0  0  0  0  0
   45.1454   36.6701   42.7402 H   0  0  0  0  0  0  0  0  0  0  0  0
   45.8401   33.4846   47.6087 H   0  0  0  0  0  0  0  0  0  0  0  0
   44.8156   32.3709   46.6858 H   0  0  0  0  0  0  0  0  0  0  0  0
   47.5009   31.9777   47.0186 H   0  0  0  0  0  0  0  0  0  0  0  0
   46.6342   31.4456   45.5380 H   0  0  0  0  0  0  0  0  0  0  0  0
   47.5452   32.9937   45.5380 H   0  0  0  0  0  0  0  0  0  0  0  0
  1  2  1  0
  1 18  1  0
  3  2  1  0
  4  3  1  0
  5  4  1  0
  5  6  1  0
  6  7  1  0
  6  1  1  0
  7  8  1  0
  9  8  2  0
 10  9  1  0
 11 10  2  0
 12 11  1  0
 13 14  1  0
 13 12  2  0
 14 15  2  0
 15 10  1  0
 15  7  1  0
 16 21  2  0
 17 16  1  0
 18 17  2  0
 18 19  1  0
 19 20  2  0
 20 21  1  0
 20 22  1  0
 23 22  1  0
  2 24  1  0
  2 25  1  0
  3 26  1  0
  3 27  1  0
  4 28  1  0
  5 29  1  0
  5 30  1  0
  6 31  1  6
  8 32  1  0
 11 33  1  0
 13 34  1  0
 16 35  1  0
 17 36  1  0
 22 37  1  0
 22 38  1  0
 23 39  1  0
 23 40  1  0
 23 41  1  0
M  ISO  8  24  13  25  13  26  13  27  13  28   5  29  13  30  13  31  13
M  ISO  8  32  14  33  14  34  14  35  14  36  14  37   8  38   8  39   8
M  ISO  2  40   8  41   8
M  END
>  <minimizedAffinity>  (1) 
-5.95476151

>  <minimizedRMSD>  (1) 
0.0515271388

$$$$
