
     RDKit          3D

 36 39  0  0  1  0  0  0  0  0999 V2000
   46.9390   34.6250   42.2620 N   0  0  0  0  0  0  0  0  0  0  0  0
   48.3840   34.6810   42.3810 C   0  0  0  0  0  0  0  0  0  0  0  0
   49.0230   33.9740   41.2500 C   0  0  0  0  0  0  0  0  0  0  0  0
   48.4520   34.5330   40.0080 N   0  0  0  0  0  0  0  0  0  0  0  0
   47.1350   33.9500   39.9150 C   0  0  0  0  0  0  0  0  0  0  0  0
   46.2330   34.4230   41.0290 C   0  0  1  0  0  0  0  0  0  0  0  0
   45.0960   33.5400   41.1380 N   0  0  0  0  0  0  0  0  0  0  0  0
   45.0310   32.2510   41.4280 C   0  0  0  0  0  0  0  0  0  0  0  0
   43.7550   31.7830   41.4330 N   0  0  0  0  0  0  0  0  0  0  0  0
   42.9480   32.8120   41.1330 C   0  0  0  0  0  0  0  0  0  0  0  0
   41.6000   33.0250   40.9760 C   0  0  0  0  0  0  0  0  0  0  0  0
   41.1030   34.2550   40.6550 N   0  0  0  0  0  0  0  0  0  0  0  0
   41.9670   35.2750   40.4910 C   0  0  0  0  0  0  0  0  0  0  0  0
   43.2890   35.1140   40.6350 N   0  0  0  0  0  0  0  0  0  0  0  0
   43.7900   33.8890   40.9550 C   0  0  0  0  0  0  0  0  0  0  0  0
   44.5180   35.9140   44.8030 C   0  0  0  0  0  0  0  0  0  0  0  0
   45.2470   35.8360   43.6160 C   0  0  0  0  0  0  0  0  0  0  0  0
   46.1590   34.7790   43.4370 C   0  0  0  0  0  0  0  0  0  0  0  0
   46.2470   33.9060   44.4710 N   0  0  0  0  0  0  0  0  0  0  0  0
   45.5350   33.9970   45.6110 C   0  0  0  0  0  0  0  0  0  0  0  0
   44.6800   34.9940   45.7670 N   0  0  0  0  0  0  0  0  0  0  0  0
   45.7110   32.8010   46.9280 S   0  0  0  0  0  0  0  0  0  0  0  0
   48.7071   35.7325   42.3800 H   0  0  0  0  0  0  0  0  0  0  0  0
   48.6834   34.1940   43.3208 H   0  0  0  0  0  0  0  0  0  0  0  0
   50.1109   34.1353   41.2708 H   0  0  0  0  0  0  0  0  0  0  0  0
   48.8392   32.8912   41.3119 H   0  0  0  0  0  0  0  0  0  0  0  0
   48.3914   35.5596   40.0660 H   0  0  0  0  0  0  0  0  0  0  0  0
   46.6878   34.2324   38.9505 H   0  0  0  0  0  0  0  0  0  0  0  0
   47.2377   32.8580   39.9984 H   0  0  0  0  0  0  0  0  0  0  0  0
   45.8481   35.4225   40.7784 H   0  0  0  0  0  0  0  0  0  0  0  0
   45.9116   31.6273   41.6414 H   0  0  0  0  0  0  0  0  0  0  0  0
   40.9043   32.1839   41.1123 H   0  0  0  0  0  0  0  0  0  0  0  0
   41.5756   36.2696   40.2311 H   0  0  0  0  0  0  0  0  0  0  0  0
   43.8036   36.7373   44.9503 H   0  0  0  0  0  0  0  0  0  0  0  0
   45.1105   36.5921   42.8288 H   0  0  0  0  0  0  0  0  0  0  0  0
   45.6174   33.4369   48.1379 H   0  0  0  0  0  0  0  0  0  0  0  0
  1  2  1  0
  1 18  1  0
  3  2  1  0
  4  3  1  0
  5  4  1  0
  5  6  1  0
  6  7  1  0
  6  1  1  0
  7  8  1  0
  8  9  2  0
 10  9  1  0
 11 10  2  0
 12 11  1  0
 13 14  1  0
 13 12  2  0
 14 15  2  0
 15 10  1  0
 15  7  1  0
 16 21  2  0
 17 16  1  0
 18 17  2  0
 18 19  1  0
 19 20  2  0
 20 21  1  0
 20 22  1  0
  2 23  1  0
  2 24  1  0
  3 25  1  0
  3 26  1  0
  4 27  1  0
  5 28  1  0
  5 29  1  0
  6 30  1  6
  8 31  1  0
 11 32  1  0
 13 33  1  0
 16 34  1  0
 17 35  1  0
 22 36  1  0
M  ISO  8  23  13  24  13  25  13  26  13  27   5  28  13  29  13  30  13
M  ISO  6  31  14  32  14  33  14  34  14  35  14  36  11
M  END
>  <minimizedAffinity>  (1) 
-5.86969233

>  <minimizedRMSD>  (1) 
0.0992716178

$$$$
