
     RDKit          3D

 27 29  0  0  0  0  0  0  0  0999 V2000
   44.7600   35.6840   45.0270 C   0  0  0  0  0  0  0  0  0  0  0  0
   44.2610   35.5650   43.7200 C   0  0  0  0  0  0  0  0  0  0  0  0
   44.4590   34.3650   43.0630 C   0  0  0  0  0  0  0  0  0  0  0  0
   45.1160   33.3470   43.6710 N   0  0  0  0  0  0  0  0  0  0  0  0
   45.5900   33.4880   44.9370 C   0  0  0  0  0  0  0  0  0  0  0  0
   45.4070   34.6440   45.5910 N   0  0  0  0  0  0  0  0  0  0  0  0
   46.2930   32.3950   45.5840 C   0  0  0  0  0  0  0  0  0  0  0  0
   47.2620   31.5720   45.0380 C   0  0  0  0  0  0  0  0  0  0  0  0
   47.6800   30.6710   45.9520 N   0  0  0  0  0  0  0  0  0  0  0  0
   46.9750   30.9280   47.0700 C   0  0  0  0  0  0  0  0  0  0  0  0
   46.1280   31.9740   46.8600 N   0  0  0  0  0  0  0  0  0  0  0  0
   45.1990   32.5600   47.8140 C   0  0  0  0  0  0  0  0  0  0  0  0
   44.2080   31.6610   48.1980 F   0  0  0  0  0  0  0  0  0  0  0  0
   44.6070   33.7240   47.3150 F   0  0  0  0  0  0  0  0  0  0  0  0
   45.8750   32.8800   48.9970 F   0  0  0  0  0  0  0  0  0  0  0  0
   43.9460   34.2640   41.7400 N   0  0  0  0  0  0  0  0  0  0  0  0
   43.1750   35.2800   41.3900 N   0  0  0  0  0  0  0  0  0  0  0  0
   42.7260   35.1170   40.1250 C   0  0  0  0  0  0  0  0  0  0  0  0
   43.2510   33.9280   39.6710 C   0  0  0  0  0  0  0  0  0  0  0  0
   44.0150   33.4030   40.6920 C   0  0  0  0  0  0  0  0  0  0  0  0
   44.6239   36.6205   45.5878 H   0  0  0  0  0  0  0  0  0  0  0  0
   43.7307   36.3981   43.2355 H   0  0  0  0  0  0  0  0  0  0  0  0
   47.6379   31.6420   44.0066 H   0  0  0  0  0  0  0  0  0  0  0  0
   47.0693   30.3738   48.0155 H   0  0  0  0  0  0  0  0  0  0  0  0
   42.0693   35.8010   39.5674 H   0  0  0  0  0  0  0  0  0  0  0  0
   43.0909   33.4803   38.6790 H   0  0  0  0  0  0  0  0  0  0  0  0
   44.5780   32.4585   40.6629 H   0  0  0  0  0  0  0  0  0  0  0  0
  1  6  2  0
  2  1  1  0
  3  4  1  0
  3  2  2  0
  4  5  2  0
  5  7  1  0
  5  6  1  0
  7 11  1  0
  8  7  2  0
  8  9  1  0
  9 10  2  0
 11 10  1  0
 11 12  1  0
 12 13  1  0
 12 15  1  0
 14 12  1  0
 16  3  1  0
 17 16  1  0
 18 17  2  0
 19 18  1  0
 19 20  2  0
 20 16  1  0
  1 21  1  0
  2 22  1  0
  8 23  1  0
 10 24  1  0
 18 25  1  0
 19 26  1  0
 20 27  1  0
M  ISO  7  21  14  22  14  23  14  24  14  25  14  26  14  27  14
M  END
>  <minimizedAffinity>  (1) 
-5.17680883

>  <minimizedRMSD>  (1) 
0.662889302

$$$$
