
     RDKit          3D

 34 37  0  0  0  0  0  0  0  0999 V2000
   46.9560   34.6480   41.6350 C   0  0  0  0  0  0  0  0  0  0  0  0
   45.9180   34.1920   40.7260 N   0  0  0  0  0  0  0  0  0  0  0  0
   46.1240   33.4850   39.5810 C   0  0  0  0  0  0  0  0  0  0  0  0
   44.9240   33.2460   39.0110 N   0  0  0  0  0  0  0  0  0  0  0  0
   43.9540   33.7860   39.7660 C   0  0  0  0  0  0  0  0  0  0  0  0
   42.5630   33.8250   39.6280 C   0  0  0  0  0  0  0  0  0  0  0  0
   42.0470   33.2660   38.6230 O   0  0  0  0  0  0  0  0  0  0  0  0
   41.9000   34.4610   40.5870 N   0  0  0  0  0  0  0  0  0  0  0  0
   42.4890   35.0440   41.6400 C   0  0  0  0  0  0  0  0  0  0  0  0
   41.6990   35.7020   42.6180 N   0  0  0  0  0  0  0  0  0  0  0  0
   43.8300   35.0210   41.7990 N   0  0  0  0  0  0  0  0  0  0  0  0
   44.5760   34.3920   40.8630 C   0  0  0  0  0  0  0  0  0  0  0  0
   48.2840   31.5690   43.4070 C   0  0  0  0  0  0  0  0  0  0  0  0
   48.0950   32.5190   42.3870 C   0  0  0  0  0  0  0  0  0  0  0  0
   47.2240   33.5930   42.6430 C   0  0  0  0  0  0  0  0  0  0  0  0
   46.6280   33.6230   43.8700 N   0  0  0  0  0  0  0  0  0  0  0  0
   46.8340   32.6880   44.8310 C   0  0  0  0  0  0  0  0  0  0  0  0
   47.6710   31.6630   44.5760 N   0  0  0  0  0  0  0  0  0  0  0  0
   46.1480   32.8150   46.1070 C   0  0  0  0  0  0  0  0  0  0  0  0
   46.2710   32.0430   47.2300 C   0  0  0  0  0  0  0  0  0  0  0  0
   45.4000   32.5720   48.1860 C   0  0  0  0  0  0  0  0  0  0  0  0
   44.7830   33.6260   47.6400 N   0  0  0  0  0  0  0  0  0  0  0  0
   45.2360   33.7500   46.4210 N   0  0  0  0  0  0  0  0  0  0  0  0
   46.6227   35.5651   42.1428 H   0  0  0  0  0  0  0  0  0  0  0  0
   47.8752   34.8581   41.0686 H   0  0  0  0  0  0  0  0  0  0  0  0
   47.1000   33.1639   39.1881 H   0  0  0  0  0  0  0  0  0  0  0  0
   40.8735   34.5089   40.5173 H   0  0  0  0  0  0  0  0  0  0  0  0
   42.1503   36.1506   43.4279 H   0  0  0  0  0  0  0  0  0  0  0  0
   40.6743   35.7310   42.5179 H   0  0  0  0  0  0  0  0  0  0  0  0
   48.9623   30.7218   43.2274 H   0  0  0  0  0  0  0  0  0  0  0  0
   48.6117   32.4249   41.4205 H   0  0  0  0  0  0  0  0  0  0  0  0
   46.9303   31.1715   47.3562 H   0  0  0  0  0  0  0  0  0  0  0  0
   45.2485   32.1897   49.2063 H   0  0  0  0  0  0  0  0  0  0  0  0
   44.0818   34.2274   48.0956 H   0  0  0  0  0  0  0  0  0  0  0  0
  1 15  1  0
  2 12  1  0
  2  1  1  0
  3  2  1  0
  4  3  2  0
  4  5  1  0
  5 12  2  0
  6  5  1  0
  6  8  1  0
  7  6  2  0
  8  9  1  0
  9 11  2  0
  9 10  1  0
 12 11  1  0
 13 18  2  0
 14 15  2  0
 14 13  1  0
 15 16  1  0
 16 17  2  0
 17 19  1  0
 18 17  1  0
 19 23  2  0
 19 20  1  0
 20 21  2  0
 22 21  1  0
 23 22  1  0
  1 24  1  0
  1 25  1  0
  3 26  1  0
  8 27  1  0
 10 28  1  0
 10 29  1  0
 13 30  1  0
 14 31  1  0
 20 32  1  0
 21 33  1  0
 22 34  1  0
M  ISO  8  24   8  25   8  26  14  27   9  30  14  31  14  32  14  33  14
M  ISO  1  34   9
M  END
>  <minimizedAffinity>  (1) 
-5.98289347

>  <minimizedRMSD>  (1) 
1.70864344

$$$$
