
     RDKit          3D

 27 29  0  0  0  0  0  0  0  0999 V2000
   44.7300   35.7630   45.0170 C   0  0  0  0  0  0  0  0  0  0  0  0
   44.2020   35.6750   43.7140 C   0  0  0  0  0  0  0  0  0  0  0  0
   44.3800   34.4840   43.0270 C   0  0  0  0  0  0  0  0  0  0  0  0
   45.0410   33.4560   43.6020 N   0  0  0  0  0  0  0  0  0  0  0  0
   45.5430   33.5660   44.8640 C   0  0  0  0  0  0  0  0  0  0  0  0
   45.3880   34.7130   45.5640 N   0  0  0  0  0  0  0  0  0  0  0  0
   46.2510   32.4530   45.4720 C   0  0  0  0  0  0  0  0  0  0  0  0
   47.2010   31.6260   44.8850 C   0  0  0  0  0  0  0  0  0  0  0  0
   47.6330   30.7020   45.7730 N   0  0  0  0  0  0  0  0  0  0  0  0
   46.9500   30.9540   46.9160 C   0  0  0  0  0  0  0  0  0  0  0  0
   46.1110   32.0120   46.7450 N   0  0  0  0  0  0  0  0  0  0  0  0
   45.2190   32.5810   47.7310 C   0  0  0  0  0  0  0  0  0  0  0  0
   44.2480   31.6630   48.1410 F   0  0  0  0  0  0  0  0  0  0  0  0
   44.6100   33.7420   47.2560 F   0  0  0  0  0  0  0  0  0  0  0  0
   45.9140   32.8970   48.8860 F   0  0  0  0  0  0  0  0  0  0  0  0
   43.8600   34.3190   41.6730 C   0  0  0  0  0  0  0  0  0  0  0  0
   43.1880   35.2740   40.9360 C   0  0  0  0  0  0  0  0  0  0  0  0
   42.8560   34.7460   39.7060 C   0  0  0  0  0  0  0  0  0  0  0  0
   43.3570   33.4630   39.7610 C   0  0  0  0  0  0  0  0  0  0  0  0
   43.9460   33.2210   40.9230 O   0  0  0  0  0  0  0  0  0  0  0  0
   44.6070   36.6911   45.5944 H   0  0  0  0  0  0  0  0  0  0  0  0
   43.6674   36.5212   43.2578 H   0  0  0  0  0  0  0  0  0  0  0  0
   47.5517   31.7108   43.8459 H   0  0  0  0  0  0  0  0  0  0  0  0
   47.0584   30.3838   47.8504 H   0  0  0  0  0  0  0  0  0  0  0  0
   42.9546   36.2938   41.2759 H   0  0  0  0  0  0  0  0  0  0  0  0
   42.3193   35.2327   38.8783 H   0  0  0  0  0  0  0  0  0  0  0  0
   43.2778   32.7319   38.9430 H   0  0  0  0  0  0  0  0  0  0  0  0
  1  6  2  0
  2  1  1  0
  3  4  1  0
  3  2  2  0
  4  5  2  0
  5  7  1  0
  5  6  1  0
  7 11  1  0
  8  7  2  0
  8  9  1  0
  9 10  2  0
 11 10  1  0
 11 12  1  0
 12 13  1  0
 12 15  1  0
 14 12  1  0
 16  3  1  0
 17 16  2  0
 18 19  2  0
 18 17  1  0
 19 20  1  0
 20 16  1  0
  1 21  1  0
  2 22  1  0
  8 23  1  0
 10 24  1  0
 17 25  1  0
 18 26  1  0
 19 27  1  0
M  ISO  7  21  14  22  14  23  14  24  14  25  14  26  14  27  14
M  END
>  <minimizedAffinity>  (1) 
-5.16468811

>  <minimizedRMSD>  (1) 
0.451950967

$$$$
