
     RDKit          3D

 40 43  0  0  0  0  0  0  0  0999 V2000
   46.9300   34.5290   41.3060 C   0  0  0  0  0  0  0  0  0  0  0  0
   45.8280   34.0290   40.4770 N   0  0  0  0  0  0  0  0  0  0  0  0
   45.9560   33.2570   39.3580 C   0  0  0  0  0  0  0  0  0  0  0  0
   44.7180   33.0060   38.8830 N   0  0  0  0  0  0  0  0  0  0  0  0
   43.8100   33.6030   39.6780 C   0  0  0  0  0  0  0  0  0  0  0  0
   42.4120   33.6430   39.6160 C   0  0  0  0  0  0  0  0  0  0  0  0
   41.8190   33.0470   38.6940 O   0  0  0  0  0  0  0  0  0  0  0  0
   41.8110   34.3410   40.5870 N   0  0  0  0  0  0  0  0  0  0  0  0
   42.4690   34.9730   41.5710 C   0  0  0  0  0  0  0  0  0  0  0  0
   41.7460   35.6920   42.5590 N   0  0  0  0  0  0  0  0  0  0  0  0
   43.8150   34.9450   41.6450 N   0  0  0  0  0  0  0  0  0  0  0  0
   44.5010   34.2560   40.6950 C   0  0  0  0  0  0  0  0  0  0  0  0
   48.9630   31.6370   42.6790 C   0  0  0  0  0  0  0  0  0  0  0  0
   48.5550   32.6600   41.7860 C   0  0  0  0  0  0  0  0  0  0  0  0
   47.4340   33.4390   42.1670 C   0  0  0  0  0  0  0  0  0  0  0  0
   46.8320   33.1520   43.3560 N   0  0  0  0  0  0  0  0  0  0  0  0
   47.2590   32.1620   44.1780 C   0  0  0  0  0  0  0  0  0  0  0  0
   48.3140   31.4210   43.8310 N   0  0  0  0  0  0  0  0  0  0  0  0
   46.5960   31.9030   45.4100 N   0  0  0  0  0  0  0  0  0  0  0  0
   45.7290   30.7520   45.5550 C   0  0  0  0  0  0  0  0  0  0  0  0
   46.2870   29.9460   46.7200 C   0  0  0  0  0  0  0  0  0  0  0  0
   47.3670   30.5590   47.3300 O   0  0  0  0  0  0  0  0  0  0  0  0
   47.1280   31.8590   47.7170 C   0  0  0  0  0  0  0  0  0  0  0  0
   46.7600   32.7740   46.5590 C   0  0  0  0  0  0  0  0  0  0  0  0
   46.5692   35.3560   41.9352 H   0  0  0  0  0  0  0  0  0  0  0  0
   47.7423   34.8885   40.6572 H   0  0  0  0  0  0  0  0  0  0  0  0
   46.9011   32.9024   38.9210 H   0  0  0  0  0  0  0  0  0  0  0  0
   40.7825   34.3963   40.5785 H   0  0  0  0  0  0  0  0  0  0  0  0
   42.2501   36.1774   43.3147 H   0  0  0  0  0  0  0  0  0  0  0  0
   40.7174   35.7282   42.5200 H   0  0  0  0  0  0  0  0  0  0  0  0
   49.8285   31.0090   42.4211 H   0  0  0  0  0  0  0  0  0  0  0  0
   49.0851   32.8410   40.8393 H   0  0  0  0  0  0  0  0  0  0  0  0
   44.7000   31.0743   45.7722 H   0  0  0  0  0  0  0  0  0  0  0  0
   45.6973   30.1544   44.6320 H   0  0  0  0  0  0  0  0  0  0  0  0
   45.4911   29.8121   47.4674 H   0  0  0  0  0  0  0  0  0  0  0  0
   46.6370   28.9837   46.3182 H   0  0  0  0  0  0  0  0  0  0  0  0
   46.2994   31.8611   48.4405 H   0  0  0  0  0  0  0  0  0  0  0  0
   48.0608   32.2455   48.1536 H   0  0  0  0  0  0  0  0  0  0  0  0
   47.5626   33.5037   46.3762 H   0  0  0  0  0  0  0  0  0  0  0  0
   45.8452   33.3477   46.7686 H   0  0  0  0  0  0  0  0  0  0  0  0
  1 15  1  0
  2 12  1  0
  2  1  1  0
  3  2  1  0
  4  3  2  0
  4  5  1  0
  5 12  2  0
  6  5  1  0
  6  8  1  0
  7  6  2  0
  8  9  1  0
  9 11  2  0
  9 10  1  0
 12 11  1  0
 13 18  2  0
 14 15  2  0
 14 13  1  0
 15 16  1  0
 16 17  2  0
 17 19  1  0
 18 17  1  0
 19 20  1  0
 19 24  1  0
 20 21  1  0
 21 22  1  0
 22 23  1  0
 24 23  1  0
  1 25  1  0
  1 26  1  0
  3 27  1  0
  8 28  1  0
 10 29  1  0
 10 30  1  0
 13 31  1  0
 14 32  1  0
 20 33  1  0
 20 34  1  0
 21 35  1  0
 21 36  1  0
 23 37  1  0
 23 38  1  0
 24 39  1  0
 24 40  1  0
M  ISO  8  25   8  26   8  27  14  28   9  31  14  32  14  33  13  34  13
M  ISO  6  35  13  36  13  37  13  38  13  39  13  40  13
M  END
>  <minimizedAffinity>  (1) 
-5.28425741

>  <minimizedRMSD>  (1) 
2.60526681

$$$$
