
     RDKit          3D

 41 44  0  0  1  0  0  0  0  0999 V2000
   46.1300   35.1190   42.3110 C   0  0  0  0  0  0  0  0  0  0  0  0
   44.7940   34.6850   41.9110 N   0  0  0  0  0  0  0  0  0  0  0  0
   43.9010   35.4060   41.1840 C   0  0  0  0  0  0  0  0  0  0  0  0
   42.7840   34.6690   41.0180 N   0  0  0  0  0  0  0  0  0  0  0  0
   42.9480   33.4910   41.6270 C   0  0  0  0  0  0  0  0  0  0  0  0
   42.0990   32.3810   41.7520 C   0  0  0  0  0  0  0  0  0  0  0  0
   40.9730   32.4210   41.2300 O   0  0  0  0  0  0  0  0  0  0  0  0
   42.5960   31.3390   42.4480 N   0  0  0  0  0  0  0  0  0  0  0  0
   43.8210   31.3350   42.9970 C   0  0  0  0  0  0  0  0  0  0  0  0
   44.2510   30.1790   43.7150 N   0  0  0  0  0  0  0  0  0  0  0  0
   44.6570   32.3860   42.8940 N   0  0  0  0  0  0  0  0  0  0  0  0
   44.2260   33.4780   42.2060 C   0  0  0  0  0  0  0  0  0  0  0  0
   48.1720   33.5360   39.5280 C   0  0  0  0  0  0  0  0  0  0  0  0
   47.1750   34.3090   40.1600 C   0  0  0  0  0  0  0  0  0  0  0  0
   47.1430   34.3340   41.5730 C   0  0  0  0  0  0  0  0  0  0  0  0
   48.0810   33.6060   42.2360 N   0  0  0  0  0  0  0  0  0  0  0  0
   49.0270   32.8740   41.5840 C   0  0  0  0  0  0  0  0  0  0  0  0
   49.0600   32.8480   40.2460 N   0  0  0  0  0  0  0  0  0  0  0  0
   50.0380   32.0900   42.3860 C   0  0  1  0  0  0  0  0  0  0  0  0
   49.3610   30.8830   42.9200 C   0  0  0  0  0  0  0  0  0  0  0  0
   49.8480   29.5570   42.5110 C   0  0  0  0  0  0  0  0  0  0  0  0
   50.8620   29.5050   41.4070 C   0  0  0  0  0  0  0  0  0  0  0  0
   51.9130   30.5640   41.6790 C   0  0  0  0  0  0  0  0  0  0  0  0
   51.1880   31.8750   41.4680 C   0  0  0  0  0  0  0  0  0  0  0  0
   46.2535   36.1873   42.0796 H   0  0  0  0  0  0  0  0  0  0  0  0
   46.2592   34.9616   43.3920 H   0  0  0  0  0  0  0  0  0  0  0  0
   44.0624   36.4223   40.7953 H   0  0  0  0  0  0  0  0  0  0  0  0
   42.0056   30.5031   42.5645 H   0  0  0  0  0  0  0  0  0  0  0  0
   45.1876   30.1575   44.1431 H   0  0  0  0  0  0  0  0  0  0  0  0
   43.6248   29.3662   43.8051 H   0  0  0  0  0  0  0  0  0  0  0  0
   48.2171   33.5006   38.4295 H   0  0  0  0  0  0  0  0  0  0  0  0
   46.4419   34.8772   39.5687 H   0  0  0  0  0  0  0  0  0  0  0  0
   50.4383   32.5885   43.2811 H   0  0  0  0  0  0  0  0  0  0  0  0
   48.5095   30.9781   43.6099 H   0  0  0  0  0  0  0  0  0  0  0  0
   49.4830   28.6394   42.9956 H   0  0  0  0  0  0  0  0  0  0  0  0
   50.3728   29.7050   40.4423 H   0  0  0  0  0  0  0  0  0  0  0  0
   51.3277   28.5093   41.3652 H   0  0  0  0  0  0  0  0  0  0  0  0
   52.2857   30.4868   42.7111 H   0  0  0  0  0  0  0  0  0  0  0  0
   52.7920   30.4606   41.0257 H   0  0  0  0  0  0  0  0  0  0  0  0
   51.9065   32.6945   41.6172 H   0  0  0  0  0  0  0  0  0  0  0  0
   50.7776   31.8487   40.4478 H   0  0  0  0  0  0  0  0  0  0  0  0
  2 12  1  0
  2  1  1  0
  3  2  1  0
  4  3  2  0
  4  5  1  0
  5  6  1  0
  5 12  2  0
  6  8  1  0
  7  6  2  0
  8  9  1  0
  9 10  1  0
 11  9  2  0
 12 11  1  0
 13 14  2  0
 13 18  1  0
 14 15  1  0
 15 16  2  0
 15  1  1  0
 17 16  1  0
 18 17  2  0
 19 17  1  0
 19 20  1  0
 21 20  2  0
 22 23  1  0
 22 21  1  0
 24 23  1  0
 24 19  1  0
  1 25  1  0
  1 26  1  0
  3 27  1  0
  8 28  1  0
 10 29  1  0
 10 30  1  0
 13 31  1  0
 14 32  1  0
 19 33  1  1
 20 34  1  0
 21 35  1  0
 22 36  1  0
 22 37  1  0
 23 38  1  0
 23 39  1  0
 24 40  1  0
 24 41  1  0
M  ISO  8  25   8  26   8  27  14  28   9  31  14  32  14  33  13  34  13
M  ISO  7  35  13  36  13  37  13  38  13  39  13  40  13  41  13
M  END
>  <minimizedAffinity>  (1) 
-4.56188774

>  <minimizedRMSD>  (1) 
5.79392958

$$$$
