
     RDKit          3D

 28 30  0  0  0  0  0  0  0  0999 V2000
   46.1880   34.3220   41.3440 N   0  0  0  0  0  0  0  0  0  0  0  0
   46.5920   33.7120   40.2060 C   0  0  0  0  0  0  0  0  0  0  0  0
   45.5200   33.5190   39.4040 N   0  0  0  0  0  0  0  0  0  0  0  0
   44.4310   34.0090   40.0360 C   0  0  0  0  0  0  0  0  0  0  0  0
   43.0870   34.0580   39.6440 C   0  0  0  0  0  0  0  0  0  0  0  0
   42.7580   33.5920   38.5420 O   0  0  0  0  0  0  0  0  0  0  0  0
   42.2520   34.6270   40.5370 N   0  0  0  0  0  0  0  0  0  0  0  0
   42.6530   35.1220   41.7280 C   0  0  0  0  0  0  0  0  0  0  0  0
   41.6760   35.6960   42.5760 N   0  0  0  0  0  0  0  0  0  0  0  0
   43.9340   35.0760   42.1030 N   0  0  0  0  0  0  0  0  0  0  0  0
   44.8460   34.5220   41.2700 C   0  0  0  0  0  0  0  0  0  0  0  0
   47.0480   34.7020   42.4600 C   0  0  0  0  0  0  0  0  0  0  0  0
   47.8600   31.3710   44.1000 C   0  0  0  0  0  0  0  0  0  0  0  0
   47.8370   32.3990   43.1180 C   0  0  0  0  0  0  0  0  0  0  0  0
   47.1250   33.5750   43.4270 C   0  0  0  0  0  0  0  0  0  0  0  0
   46.5140   33.6330   44.6400 N   0  0  0  0  0  0  0  0  0  0  0  0
   46.5590   32.6310   45.5500 C   0  0  0  0  0  0  0  0  0  0  0  0
   47.2370   31.5080   45.2600 N   0  0  0  0  0  0  0  0  0  0  0  0
   45.7130   32.8170   47.1280 S   0  0  0  0  0  0  0  0  0  0  0  0
   47.6261   33.4199   39.9707 H   0  0  0  0  0  0  0  0  0  0  0  0
   41.2521   34.6875   40.2974 H   0  0  0  0  0  0  0  0  0  0  0  0
   41.9506   36.0820   43.4906 H   0  0  0  0  0  0  0  0  0  0  0  0
   40.6904   35.7277   42.2785 H   0  0  0  0  0  0  0  0  0  0  0  0
   48.0558   34.9339   42.0849 H   0  0  0  0  0  0  0  0  0  0  0  0
   46.6321   35.5890   42.9603 H   0  0  0  0  0  0  0  0  0  0  0  0
   48.4081   30.4404   43.8910 H   0  0  0  0  0  0  0  0  0  0  0  0
   48.3548   32.2809   42.1547 H   0  0  0  0  0  0  0  0  0  0  0  0
   46.6042   32.6211   48.1499 H   0  0  0  0  0  0  0  0  0  0  0  0
  1 12  1  0
  2  1  1  0
  3  4  1  0
  3  2  2  0
  4 11  2  0
  5  4  1  0
  5  7  1  0
  6  5  2  0
  7  8  1  0
  8 10  2  0
  8  9  1  0
 11  1  1  0
 11 10  1  0
 12 15  1  0
 13 18  2  0
 14 15  2  0
 14 13  1  0
 15 16  1  0
 16 17  2  0
 17 19  1  0
 18 17  1  0
  2 20  1  0
  7 21  1  0
  9 22  1  0
  9 23  1  0
 12 24  1  0
 12 25  1  0
 13 26  1  0
 14 27  1  0
 19 28  1  0
M  ISO  7  20  14  21   9  24   8  25   8  26  14  27  14  28  11
M  END
>  <minimizedAffinity>  (1) 
-4.64508009

>  <minimizedRMSD>  (1) 
1.0801518

$$$$
