
     RDKit          3D

 49 52  0  0  1  0  0  0  0  0999 V2000
   49.2270   30.2540   42.1630 C   0  0  0  0  0  0  0  0  0  0  0  0
   49.1890   31.6550   42.0050 C   0  0  0  0  0  0  0  0  0  0  0  0
   48.5010   32.4160   42.9730 C   0  0  0  0  0  0  0  0  0  0  0  0
   47.9140   31.7620   44.0060 N   0  0  0  0  0  0  0  0  0  0  0  0
   47.9740   30.3920   44.1250 C   0  0  0  0  0  0  0  0  0  0  0  0
   48.6290   29.6690   43.2010 N   0  0  0  0  0  0  0  0  0  0  0  0
   48.3970   33.9060   42.8860 C   0  0  0  0  0  0  0  0  0  0  0  0
   47.0850   34.2640   42.3610 N   0  0  0  0  0  0  0  0  0  0  0  0
   46.7250   34.2220   41.0490 C   0  0  0  0  0  0  0  0  0  0  0  0
   45.4340   34.6260   40.9460 N   0  0  0  0  0  0  0  0  0  0  0  0
   44.9780   34.9210   42.1720 C   0  0  0  0  0  0  0  0  0  0  0  0
   43.7340   35.3780   42.6260 C   0  0  0  0  0  0  0  0  0  0  0  0
   42.8210   35.5730   41.7880 O   0  0  0  0  0  0  0  0  0  0  0  0
   43.6110   35.5760   43.9370 N   0  0  0  0  0  0  0  0  0  0  0  0
   44.6170   35.3580   44.8150 C   0  0  0  0  0  0  0  0  0  0  0  0
   44.3980   35.5960   46.1970 N   0  0  0  0  0  0  0  0  0  0  0  0
   45.8220   34.9190   44.4000 N   0  0  0  0  0  0  0  0  0  0  0  0
   46.0180   34.6960   43.0810 C   0  0  0  0  0  0  0  0  0  0  0  0
   47.2820   29.7100   45.2920 C   0  0  1  0  0  0  0  0  0  0  0  0
   48.2420   29.5850   46.4530 C   0  0  0  0  0  0  0  0  0  0  0  0
   46.0930   30.5180   45.7070 C   0  0  0  0  0  0  0  0  0  0  0  0
   46.1200   30.9880   47.0890 C   0  0  0  0  0  0  0  0  0  0  0  0
   45.9130   32.4110   47.4290 C   0  0  0  0  0  0  0  0  0  0  0  0
   45.7530   32.3420   48.9680 C   0  0  0  0  0  0  0  0  0  0  0  0
   45.3380   30.9250   49.2770 C   0  0  0  0  0  0  0  0  0  0  0  0
   44.9770   30.3520   47.9200 C   0  0  0  0  0  0  0  0  0  0  0  0
   49.7559   29.6372   41.4215 H   0  0  0  0  0  0  0  0  0  0  0  0
   49.6824   32.1409   41.1503 H   0  0  0  0  0  0  0  0  0  0  0  0
   48.5246   34.3430   43.8874 H   0  0  0  0  0  0  0  0  0  0  0  0
   49.1809   34.2933   42.2186 H   0  0  0  0  0  0  0  0  0  0  0  0
   47.3711   33.9130   40.2141 H   0  0  0  0  0  0  0  0  0  0  0  0
   42.7071   35.9110   44.2999 H   0  0  0  0  0  0  0  0  0  0  0  0
   45.1569   35.4334   46.8742 H   0  0  0  0  0  0  0  0  0  0  0  0
   43.4802   35.9314   46.5227 H   0  0  0  0  0  0  0  0  0  0  0  0
   46.9540   28.7058   44.9853 H   0  0  0  0  0  0  0  0  0  0  0  0
   47.6850   29.6575   47.3988 H   0  0  0  0  0  0  0  0  0  0  0  0
   48.7538   28.6126   46.4025 H   0  0  0  0  0  0  0  0  0  0  0  0
   48.9857   30.3939   46.4025 H   0  0  0  0  0  0  0  0  0  0  0  0
   46.0307   31.3969   45.0485 H   0  0  0  0  0  0  0  0  0  0  0  0
   45.2229   29.8499   45.6258 H   0  0  0  0  0  0  0  0  0  0  0  0
   47.1656   30.7188   47.2993 H   0  0  0  0  0  0  0  0  0  0  0  0
   46.7811   33.0228   47.1425 H   0  0  0  0  0  0  0  0  0  0  0  0
   45.0617   32.8762   46.9105 H   0  0  0  0  0  0  0  0  0  0  0  0
   46.7066   32.5780   49.4629 H   0  0  0  0  0  0  0  0  0  0  0  0
   45.0106   33.0685   49.3300 H   0  0  0  0  0  0  0  0  0  0  0  0
   46.1675   30.3636   49.7317 H   0  0  0  0  0  0  0  0  0  0  0  0
   44.5080   30.8713   49.9969 H   0  0  0  0  0  0  0  0  0  0  0  0
   43.9845   30.6836   47.5811 H   0  0  0  0  0  0  0  0  0  0  0  0
   44.9033   29.2556   47.8693 H   0  0  0  0  0  0  0  0  0  0  0  0
  1  6  2  0
  2  1  1  0
  2  3  2  0
  3  4  1  0
  4  5  2  0
  5 19  1  0
  6  5  1  0
  7  3  1  0
  8  7  1  0
  8 18  1  0
  9  8  1  0
 10  9  2  0
 10 11  1  0
 11 12  1  0
 11 18  2  0
 12 14  1  0
 13 12  2  0
 14 15  1  0
 15 16  1  0
 17 15  2  0
 18 17  1  0
 19 21  1  0
 19 20  1  0
 21 22  1  0
 22 23  1  0
 22 26  1  0
 23 24  1  0
 24 25  1  0
 26 25  1  0
  1 27  1  0
  2 28  1  0
  7 29  1  0
  7 30  1  0
  9 31  1  0
 14 32  1  0
 16 33  1  0
 16 34  1  0
 19 35  1  6
 20 36  1  0
 20 37  1  0
 20 38  1  0
 21 39  1  0
 21 40  1  0
 22 41  1  0
 23 42  1  0
 23 43  1  0
 24 44  1  0
 24 45  1  0
 25 46  1  0
 25 47  1  0
 26 48  1  0
 26 49  1  0
M  ISO  8  27  14  28  14  29   8  30   8  31  14  32   9  35   8  36   8
M  ISO  8  37   8  38   8  39   8  40   8  41  13  42  13  43  13  44  13
M  ISO  5  45  13  46  13  47  13  48  13  49  13
M  END
>  <minimizedAffinity>  (1) 
-6.44354105

>  <minimizedRMSD>  (1) 
1.29023635

$$$$
