
     RDKit          3D

 47 50  0  0  1  0  0  0  0  0999 V2000
   49.8010   30.6310   41.8190 C   0  0  0  0  0  0  0  0  0  0  0  0
   49.6370   32.0350   41.8470 C   0  0  0  0  0  0  0  0  0  0  0  0
   48.7300   32.5820   42.7810 C   0  0  0  0  0  0  0  0  0  0  0  0
   48.0670   31.7270   43.6010 N   0  0  0  0  0  0  0  0  0  0  0  0
   48.2570   30.3680   43.5390 C   0  0  0  0  0  0  0  0  0  0  0  0
   49.1100   29.8420   42.6620 N   0  0  0  0  0  0  0  0  0  0  0  0
   48.4850   34.0500   42.8780 C   0  0  0  0  0  0  0  0  0  0  0  0
   47.1550   34.3470   42.3520 N   0  0  0  0  0  0  0  0  0  0  0  0
   46.8010   34.2660   41.0470 C   0  0  0  0  0  0  0  0  0  0  0  0
   45.4970   34.6130   40.9350 N   0  0  0  0  0  0  0  0  0  0  0  0
   45.0260   34.9100   42.1490 C   0  0  0  0  0  0  0  0  0  0  0  0
   43.7630   35.3210   42.5880 C   0  0  0  0  0  0  0  0  0  0  0  0
   42.8460   35.4600   41.7440 O   0  0  0  0  0  0  0  0  0  0  0  0
   43.6300   35.5370   43.8920 N   0  0  0  0  0  0  0  0  0  0  0  0
   44.6340   35.3800   44.7780 C   0  0  0  0  0  0  0  0  0  0  0  0
   44.3980   35.6330   46.1470 N   0  0  0  0  0  0  0  0  0  0  0  0
   45.8630   34.9830   44.3760 N   0  0  0  0  0  0  0  0  0  0  0  0
   46.0720   34.7450   43.0680 C   0  0  0  0  0  0  0  0  0  0  0  0
   47.5040   29.4590   44.4720 C   0  0  1  0  0  0  0  0  0  0  0  0
   47.4150   28.0470   43.9430 C   0  0  0  0  0  0  0  0  0  0  0  0
   48.1910   29.3870   45.8150 C   0  0  0  0  0  0  0  0  0  0  0  0
   47.3460   30.0050   46.8170 N   0  0  0  0  0  0  0  0  0  0  0  0
   46.0250   30.2420   46.7280 C   0  0  0  0  0  0  0  0  0  0  0  0
   45.3240   30.8340   47.7500 C   0  0  0  0  0  0  0  0  0  0  0  0
   45.9520   31.2120   48.9180 C   0  0  0  0  0  0  0  0  0  0  0  0
   45.2610   31.8280   49.9970 N   0  0  0  0  0  0  0  0  0  0  0  0
   47.2730   30.9880   49.0350 N   0  0  0  0  0  0  0  0  0  0  0  0
   47.8860   30.4080   48.0000 C   0  0  0  0  0  0  0  0  0  0  0  0
   49.1380   30.2130   48.1520 O   0  0  0  0  0  0  0  0  0  0  0  0
   50.5007   30.1789   41.1006 H   0  0  0  0  0  0  0  0  0  0  0  0
   50.2005   32.6835   41.1601 H   0  0  0  0  0  0  0  0  0  0  0  0
   48.5439   34.3648   43.9303 H   0  0  0  0  0  0  0  0  0  0  0  0
   49.2442   34.5923   42.2954 H   0  0  0  0  0  0  0  0  0  0  0  0
   47.4610   33.9687   40.2187 H   0  0  0  0  0  0  0  0  0  0  0  0
   42.7112   35.8405   44.2449 H   0  0  0  0  0  0  0  0  0  0  0  0
   45.1590   35.5157   46.8311 H   0  0  0  0  0  0  0  0  0  0  0  0
   43.4648   35.9348   46.4615 H   0  0  0  0  0  0  0  0  0  0  0  0
   46.4941   29.8852   44.5633 H   0  0  0  0  0  0  0  0  0  0  0  0
   47.3705   27.3417   44.7860 H   0  0  0  0  0  0  0  0  0  0  0  0
   46.5085   27.9420   43.3289 H   0  0  0  0  0  0  0  0  0  0  0  0
   48.3012   27.8290   43.3289 H   0  0  0  0  0  0  0  0  0  0  0  0
   48.3681   28.3346   46.0816 H   0  0  0  0  0  0  0  0  0  0  0  0
   49.1538   29.9168   45.7661 H   0  0  0  0  0  0  0  0  0  0  0  0
   45.4909   29.9535   45.8106 H   0  0  0  0  0  0  0  0  0  0  0  0
   44.2442   31.0094   47.6349 H   0  0  0  0  0  0  0  0  0  0  0  0
   45.7718   32.0936   50.8511 H   0  0  0  0  0  0  0  0  0  0  0  0
   44.2496   32.0087   49.9247 H   0  0  0  0  0  0  0  0  0  0  0  0
  1  2  2  0
  1  6  1  0
  2  3  1  0
  3  7  1  0
  3  4  2  0
  5  4  1  0
  5 19  1  0
  6  5  2  0
  8  7  1  0
  8 18  1  0
  9  8  1  0
 10  9  2  0
 10 11  1  0
 11 12  1  0
 11 18  2  0
 12 14  1  0
 13 12  2  0
 14 15  1  0
 15 16  1  0
 17 15  2  0
 18 17  1  0
 19 21  1  0
 20 19  1  0
 21 22  1  0
 22 28  1  0
 23 22  1  0
 23 24  2  0
 24 25  1  0
 25 27  2  0
 25 26  1  0
 28 29  2  0
 28 27  1  0
  1 30  1  0
  2 31  1  0
  7 32  1  0
  7 33  1  0
  9 34  1  0
 14 35  1  0
 16 36  1  0
 16 37  1  0
 19 38  1  1
 20 39  1  0
 20 40  1  0
 20 41  1  0
 21 42  1  0
 21 43  1  0
 23 44  1  0
 24 45  1  0
 26 46  1  0
 26 47  1  0
M  ISO  8  30  14  31  14  32   8  33   8  34  14  35   9  38   8  39   8
M  ISO  6  40   8  41   8  42   8  43   8  44  14  45  14
M  END
>  <minimizedAffinity>  (1) 
-6.67522001

>  <minimizedRMSD>  (1) 
2.10462332

$$$$
