
     RDKit          3D

 43 46  0  0  1  0  0  0  0  0999 V2000
   49.2170   30.2000   42.5960 C   0  0  0  0  0  0  0  0  0  0  0  0
   49.2340   31.5910   42.3110 C   0  0  0  0  0  0  0  0  0  0  0  0
   48.4620   32.4400   43.1270 C   0  0  0  0  0  0  0  0  0  0  0  0
   47.7470   31.8800   44.1400 N   0  0  0  0  0  0  0  0  0  0  0  0
   47.7620   30.5280   44.3760 C   0  0  0  0  0  0  0  0  0  0  0  0
   48.4880   29.7190   43.6100 N   0  0  0  0  0  0  0  0  0  0  0  0
   48.4050   33.9140   42.9050 C   0  0  0  0  0  0  0  0  0  0  0  0
   47.0930   34.2670   42.3620 N   0  0  0  0  0  0  0  0  0  0  0  0
   46.7380   34.2140   41.0540 C   0  0  0  0  0  0  0  0  0  0  0  0
   45.4430   34.6150   40.9520 N   0  0  0  0  0  0  0  0  0  0  0  0
   44.9820   34.9190   42.1740 C   0  0  0  0  0  0  0  0  0  0  0  0
   43.7380   35.3720   42.6110 C   0  0  0  0  0  0  0  0  0  0  0  0
   42.8380   35.5530   41.7720 O   0  0  0  0  0  0  0  0  0  0  0  0
   43.6050   35.5820   43.9170 N   0  0  0  0  0  0  0  0  0  0  0  0
   44.6090   35.3730   44.8090 C   0  0  0  0  0  0  0  0  0  0  0  0
   44.3880   35.6190   46.1850 N   0  0  0  0  0  0  0  0  0  0  0  0
   45.8280   34.9300   44.3940 N   0  0  0  0  0  0  0  0  0  0  0  0
   46.0180   34.7030   43.0850 C   0  0  0  0  0  0  0  0  0  0  0  0
   46.9610   29.9560   45.5140 C   0  0  1  0  0  0  0  0  0  0  0  0
   46.7710   28.4690   45.3800 C   0  0  0  0  0  0  0  0  0  0  0  0
   47.6450   30.2180   46.8240 C   0  0  0  0  0  0  0  0  0  0  0  0
   46.7800   30.8140   47.8410 C   0  0  0  0  0  0  0  0  0  0  0  0
   46.6070   32.1980   47.8750 C   0  0  0  0  0  0  0  0  0  0  0  0
   45.7750   32.4660   48.8970 N   0  0  0  0  0  0  0  0  0  0  0  0
   45.4500   31.2920   49.4690 C   0  0  0  0  0  0  0  0  0  0  0  0
   46.0520   30.2800   48.8390 N   0  0  0  0  0  0  0  0  0  0  0  0
   49.8094   29.5104   41.9767 H   0  0  0  0  0  0  0  0  0  0  0  0
   49.8313   31.9925   41.4791 H   0  0  0  0  0  0  0  0  0  0  0  0
   48.5608   34.4365   43.8604 H   0  0  0  0  0  0  0  0  0  0  0  0
   49.1914   34.2122   42.1961 H   0  0  0  0  0  0  0  0  0  0  0  0
   47.3849   33.9012   40.2212 H   0  0  0  0  0  0  0  0  0  0  0  0
   42.6979   35.9191   44.2697 H   0  0  0  0  0  0  0  0  0  0  0  0
   45.1460   35.4620   46.8645 H   0  0  0  0  0  0  0  0  0  0  0  0
   43.4692   35.9551   46.5070 H   0  0  0  0  0  0  0  0  0  0  0  0
   45.9786   30.4499   45.4827 H   0  0  0  0  0  0  0  0  0  0  0  0
   46.7130   28.0151   46.3803 H   0  0  0  0  0  0  0  0  0  0  0  0
   45.8397   28.2664   44.8309 H   0  0  0  0  0  0  0  0  0  0  0  0
   47.6215   28.0387   44.8309 H   0  0  0  0  0  0  0  0  0  0  0  0
   48.0260   29.2618   47.2120 H   0  0  0  0  0  0  0  0  0  0  0  0
   48.4459   30.9449   46.6236 H   0  0  0  0  0  0  0  0  0  0  0  0
   47.0646   32.9312   47.1946 H   0  0  0  0  0  0  0  0  0  0  0  0
   44.7812   31.1813   50.3353 H   0  0  0  0  0  0  0  0  0  0  0  0
   45.9739   29.2799   49.0727 H   0  0  0  0  0  0  0  0  0  0  0  0
  1  6  2  0
  2  1  1  0
  2  3  2  0
  3  4  1  0
  4  5  2  0
  5 19  1  0
  6  5  1  0
  7  3  1  0
  8  7  1  0
  8 18  1  0
  9  8  1  0
 10  9  2  0
 10 11  1  0
 11 12  1  0
 11 18  2  0
 12 14  1  0
 13 12  2  0
 14 15  1  0
 15 16  1  0
 17 15  2  0
 18 17  1  0
 19 21  1  0
 20 19  1  0
 21 22  1  0
 22 23  2  0
 22 26  1  0
 23 24  1  0
 24 25  2  0
 26 25  1  0
  1 27  1  0
  2 28  1  0
  7 29  1  0
  7 30  1  0
  9 31  1  0
 14 32  1  0
 16 33  1  0
 16 34  1  0
 19 35  1  1
 20 36  1  0
 20 37  1  0
 20 38  1  0
 21 39  1  0
 21 40  1  0
 23 41  1  0
 25 42  1  0
 26 43  1  0
M  ISO  8  27  14  28  14  29   8  30   8  31  14  32   9  35   8  36   8
M  ISO  7  37   8  38   8  39   8  40   8  41  14  42  14  43   9
M  END
>  <minimizedAffinity>  (1) 
-6.2548027

>  <minimizedRMSD>  (1) 
1.1182127

$$$$
