
     RDKit          3D

 44 47  0  0  1  0  0  0  0  0999 V2000
   49.4380   30.3630   42.1940 C   0  0  0  0  0  0  0  0  0  0  0  0
   49.3640   31.7680   42.0460 C   0  0  0  0  0  0  0  0  0  0  0  0
   48.5740   32.5030   42.9570 C   0  0  0  0  0  0  0  0  0  0  0  0
   47.9270   31.8110   43.9310 N   0  0  0  0  0  0  0  0  0  0  0  0
   48.0220   30.4460   44.0440 C   0  0  0  0  0  0  0  0  0  0  0  0
   48.7640   29.7480   43.1890 N   0  0  0  0  0  0  0  0  0  0  0  0
   48.4360   33.9800   42.8640 C   0  0  0  0  0  0  0  0  0  0  0  0
   47.1130   34.3050   42.3350 N   0  0  0  0  0  0  0  0  0  0  0  0
   46.7540   34.2390   41.0270 C   0  0  0  0  0  0  0  0  0  0  0  0
   45.4560   34.6130   40.9170 N   0  0  0  0  0  0  0  0  0  0  0  0
   44.9920   34.9140   42.1420 C   0  0  0  0  0  0  0  0  0  0  0  0
   43.7450   35.3470   42.5870 C   0  0  0  0  0  0  0  0  0  0  0  0
   42.8250   35.5090   41.7470 O   0  0  0  0  0  0  0  0  0  0  0  0
   43.6100   35.5610   43.8920 N   0  0  0  0  0  0  0  0  0  0  0  0
   44.6190   35.3770   44.7820 C   0  0  0  0  0  0  0  0  0  0  0  0
   44.3980   35.6260   46.1560 N   0  0  0  0  0  0  0  0  0  0  0  0
   45.8380   34.9570   44.3630 N   0  0  0  0  0  0  0  0  0  0  0  0
   46.0360   34.7240   43.0590 C   0  0  0  0  0  0  0  0  0  0  0  0
   47.2920   29.7280   45.1450 C   0  0  1  0  0  0  0  0  0  0  0  0
   47.2040   28.2380   44.8870 C   0  0  0  0  0  0  0  0  0  0  0  0
   48.0260   29.8920   46.4600 C   0  0  0  0  0  0  0  0  0  0  0  0
   47.0310   30.4810   47.4100 C   0  0  0  0  0  0  0  0  0  0  0  0
   47.1100   31.8260   47.7660 C   0  0  0  0  0  0  0  0  0  0  0  0
   46.1620   32.3210   48.6510 C   0  0  0  0  0  0  0  0  0  0  0  0
   45.1890   31.5340   49.1570 N   0  0  0  0  0  0  0  0  0  0  0  0
   45.1310   30.2380   48.8010 C   0  0  0  0  0  0  0  0  0  0  0  0
   46.0400   29.7210   47.9390 N   0  0  0  0  0  0  0  0  0  0  0  0
   50.0468   29.7696   41.4960 H   0  0  0  0  0  0  0  0  0  0  0  0
   49.9103   32.2772   41.2384 H   0  0  0  0  0  0  0  0  0  0  0  0
   48.5522   34.4243   43.8635 H   0  0  0  0  0  0  0  0  0  0  0  0
   49.2112   34.3830   42.1957 H   0  0  0  0  0  0  0  0  0  0  0  0
   47.4070   33.9333   40.1963 H   0  0  0  0  0  0  0  0  0  0  0  0
   42.6969   35.8815   44.2448 H   0  0  0  0  0  0  0  0  0  0  0  0
   45.1611   35.4875   46.8338 H   0  0  0  0  0  0  0  0  0  0  0  0
   43.4739   35.9460   46.4793 H   0  0  0  0  0  0  0  0  0  0  0  0
   46.2844   30.1676   45.1832 H   0  0  0  0  0  0  0  0  0  0  0  0
   47.1723   27.7010   45.8465 H   0  0  0  0  0  0  0  0  0  0  0  0
   46.2913   28.0184   44.3136 H   0  0  0  0  0  0  0  0  0  0  0  0
   48.0845   27.9125   44.3136 H   0  0  0  0  0  0  0  0  0  0  0  0
   48.3761   28.9162   46.8279 H   0  0  0  0  0  0  0  0  0  0  0  0
   48.9127   30.5339   46.3521 H   0  0  0  0  0  0  0  0  0  0  0  0
   47.8990   32.4752   47.3584 H   0  0  0  0  0  0  0  0  0  0  0  0
   46.2047   33.3796   48.9469 H   0  0  0  0  0  0  0  0  0  0  0  0
   44.3403   29.5934   49.2124 H   0  0  0  0  0  0  0  0  0  0  0  0
  1  6  2  0
  2  1  1  0
  2  3  2  0
  3  4  1  0
  4  5  2  0
  5 19  1  0
  6  5  1  0
  7  3  1  0
  8  7  1  0
  8 18  1  0
  9  8  1  0
 10  9  2  0
 10 11  1  0
 11 12  1  0
 11 18  2  0
 12 14  1  0
 13 12  2  0
 14 15  1  0
 15 16  1  0
 17 15  2  0
 18 17  1  0
 19 21  1  0
 20 19  1  0
 21 22  1  0
 22 23  2  0
 22 27  1  0
 23 24  1  0
 24 25  2  0
 26 25  1  0
 27 26  2  0
  1 28  1  0
  2 29  1  0
  7 30  1  0
  7 31  1  0
  9 32  1  0
 14 33  1  0
 16 34  1  0
 16 35  1  0
 19 36  1  1
 20 37  1  0
 20 38  1  0
 20 39  1  0
 21 40  1  0
 21 41  1  0
 23 42  1  0
 24 43  1  0
 26 44  1  0
M  ISO  8  28  14  29  14  30   8  31   8  32  14  33   9  36   8  37   8
M  ISO  7  38   8  39   8  40   8  41   8  42  14  43  14  44  14
M  END
>  <minimizedAffinity>  (1) 
-6.21987104

>  <minimizedRMSD>  (1) 
1.50859308

$$$$
