
     RDKit          3D

 49 52  0  0  1  0  0  0  0  0999 V2000
   49.3270   30.2850   42.1850 C   0  0  0  0  0  0  0  0  0  0  0  0
   49.2720   31.6940   42.0260 C   0  0  0  0  0  0  0  0  0  0  0  0
   48.5370   32.4410   42.9690 C   0  0  0  0  0  0  0  0  0  0  0  0
   47.9270   31.7700   43.9740 N   0  0  0  0  0  0  0  0  0  0  0  0
   48.0020   30.4050   44.0960 C   0  0  0  0  0  0  0  0  0  0  0  0
   48.6970   29.6930   43.2040 N   0  0  0  0  0  0  0  0  0  0  0  0
   48.4190   33.9230   42.8720 C   0  0  0  0  0  0  0  0  0  0  0  0
   47.1030   34.2660   42.3380 N   0  0  0  0  0  0  0  0  0  0  0  0
   46.7460   34.2060   41.0290 C   0  0  0  0  0  0  0  0  0  0  0  0
   45.4520   34.5970   40.9180 N   0  0  0  0  0  0  0  0  0  0  0  0
   44.9950   34.9010   42.1400 C   0  0  0  0  0  0  0  0  0  0  0  0
   43.7430   35.3530   42.5800 C   0  0  0  0  0  0  0  0  0  0  0  0
   42.8410   35.5260   41.7460 O   0  0  0  0  0  0  0  0  0  0  0  0
   43.6180   35.5630   43.8850 N   0  0  0  0  0  0  0  0  0  0  0  0
   44.6280   35.3630   44.7770 C   0  0  0  0  0  0  0  0  0  0  0  0
   44.4030   35.6110   46.1450 N   0  0  0  0  0  0  0  0  0  0  0  0
   45.8430   34.9290   44.3700 N   0  0  0  0  0  0  0  0  0  0  0  0
   46.0340   34.6970   43.0560 C   0  0  0  0  0  0  0  0  0  0  0  0
   47.3020   29.7040   45.2380 C   0  0  1  0  0  0  0  0  0  0  0  0
   47.4680   28.2140   45.1410 C   0  0  0  0  0  0  0  0  0  0  0  0
   47.8350   30.1910   46.5520 C   0  0  0  0  0  0  0  0  0  0  0  0
   46.9340   30.7270   47.4710 N   0  0  0  0  0  0  0  0  0  0  0  0
   47.3060   31.6310   48.4710 C   0  0  0  0  0  0  0  0  0  0  0  0
   45.9950   32.3340   48.9080 C   0  0  0  0  0  0  0  0  0  0  0  0
   45.1400   31.4490   49.5490 O   0  0  0  0  0  0  0  0  0  0  0  0
   45.0170   30.2190   48.9230 C   0  0  0  0  0  0  0  0  0  0  0  0
   45.6170   30.1980   47.5420 C   0  0  0  0  0  0  0  0  0  0  0  0
   49.8922   29.6758   41.4643 H   0  0  0  0  0  0  0  0  0  0  0  0
   49.7883   32.1894   41.1905 H   0  0  0  0  0  0  0  0  0  0  0  0
   48.5381   34.3678   43.8710 H   0  0  0  0  0  0  0  0  0  0  0  0
   49.2018   34.3133   42.2050 H   0  0  0  0  0  0  0  0  0  0  0  0
   47.3965   33.8931   40.1990 H   0  0  0  0  0  0  0  0  0  0  0  0
   42.7102   35.8943   44.2415 H   0  0  0  0  0  0  0  0  0  0  0  0
   45.1607   35.4626   46.8267 H   0  0  0  0  0  0  0  0  0  0  0  0
   43.4807   35.9408   46.4637 H   0  0  0  0  0  0  0  0  0  0  0  0
   46.2293   29.9387   45.1728 H   0  0  0  0  0  0  0  0  0  0  0  0
   47.5159   27.7838   46.1523 H   0  0  0  0  0  0  0  0  0  0  0  0
   46.6122   27.7842   44.5999 H   0  0  0  0  0  0  0  0  0  0  0  0
   48.3974   27.9831   44.5999 H   0  0  0  0  0  0  0  0  0  0  0  0
   48.3294   29.3379   47.0397 H   0  0  0  0  0  0  0  0  0  0  0  0
   48.4869   31.0359   46.2852 H   0  0  0  0  0  0  0  0  0  0  0  0
   47.7577   31.0985   49.3210 H   0  0  0  0  0  0  0  0  0  0  0  0
   48.0532   32.3527   48.1092 H   0  0  0  0  0  0  0  0  0  0  0  0
   46.2411   33.1566   49.5956 H   0  0  0  0  0  0  0  0  0  0  0  0
   45.4894   32.7173   48.0094 H   0  0  0  0  0  0  0  0  0  0  0  0
   45.5249   29.4609   49.5372 H   0  0  0  0  0  0  0  0  0  0  0  0
   43.9422   30.0099   48.8176 H   0  0  0  0  0  0  0  0  0  0  0  0
   44.9713   30.7895   46.8763 H   0  0  0  0  0  0  0  0  0  0  0  0
   45.6841   29.1417   47.2425 H   0  0  0  0  0  0  0  0  0  0  0  0
  1  6  2  0
  2  1  1  0
  2  3  2  0
  3  4  1  0
  4  5  2  0
  5 19  1  0
  6  5  1  0
  7  3  1  0
  8  7  1  0
  8 18  1  0
  9  8  1  0
 10  9  2  0
 10 11  1  0
 11 12  1  0
 11 18  2  0
 12 14  1  0
 13 12  2  0
 14 15  1  0
 15 16  1  0
 17 15  2  0
 18 17  1  0
 19 21  1  0
 20 19  1  0
 21 22  1  0
 22 27  1  0
 22 23  1  0
 23 24  1  0
 24 25  1  0
 26 25  1  0
 27 26  1  0
  1 28  1  0
  2 29  1  0
  7 30  1  0
  7 31  1  0
  9 32  1  0
 14 33  1  0
 16 34  1  0
 16 35  1  0
 19 36  1  1
 20 37  1  0
 20 38  1  0
 20 39  1  0
 21 40  1  0
 21 41  1  0
 23 42  1  0
 23 43  1  0
 24 44  1  0
 24 45  1  0
 26 46  1  0
 26 47  1  0
 27 48  1  0
 27 49  1  0
M  ISO  8  28  14  29  14  30   8  31   8  32  14  33   9  36   8  37   8
M  ISO  8  38   8  39   8  40   8  41   8  42  13  43  13  44  13  45  13
M  ISO  4  46  13  47  13  48  13  49  13
M  END
>  <minimizedAffinity>  (1) 
-6.21225071

>  <minimizedRMSD>  (1) 
1.37823045

$$$$
