
     RDKit          3D

 42 45  0  0  1  0  0  0  0  0999 V2000
   49.2010   30.2130   42.5480 C   0  0  0  0  0  0  0  0  0  0  0  0
   49.2060   31.5910   42.2380 C   0  0  0  0  0  0  0  0  0  0  0  0
   48.4580   32.4620   43.0620 C   0  0  0  0  0  0  0  0  0  0  0  0
   47.7750   31.9260   44.1080 N   0  0  0  0  0  0  0  0  0  0  0  0
   47.7980   30.5780   44.3730 C   0  0  0  0  0  0  0  0  0  0  0  0
   48.4990   29.7510   43.6030 N   0  0  0  0  0  0  0  0  0  0  0  0
   48.3950   33.9310   42.8080 C   0  0  0  0  0  0  0  0  0  0  0  0
   47.0760   34.2730   42.2870 N   0  0  0  0  0  0  0  0  0  0  0  0
   46.7010   34.2160   40.9830 C   0  0  0  0  0  0  0  0  0  0  0  0
   45.4040   34.6070   40.8920 N   0  0  0  0  0  0  0  0  0  0  0  0
   44.9560   34.9100   42.1270 C   0  0  0  0  0  0  0  0  0  0  0  0
   43.7150   35.3540   42.5750 C   0  0  0  0  0  0  0  0  0  0  0  0
   42.8000   35.5290   41.7510 O   0  0  0  0  0  0  0  0  0  0  0  0
   43.6030   35.5630   43.8850 N   0  0  0  0  0  0  0  0  0  0  0  0
   44.6250   35.3620   44.7640 C   0  0  0  0  0  0  0  0  0  0  0  0
   44.4230   35.6060   46.1370 N   0  0  0  0  0  0  0  0  0  0  0  0
   45.8380   34.9290   44.3400 N   0  0  0  0  0  0  0  0  0  0  0  0
   46.0120   34.7010   43.0240 C   0  0  0  0  0  0  0  0  0  0  0  0
   47.0410   30.0360   45.5320 C   0  0  1  0  0  0  0  0  0  0  0  0
   46.8590   28.5350   45.4590 C   0  0  0  0  0  0  0  0  0  0  0  0
   47.7490   30.3260   46.8380 C   0  0  0  0  0  0  0  0  0  0  0  0
   46.7850   31.0270   47.6720 N   0  0  0  0  0  0  0  0  0  0  0  0
   46.0470   32.0800   47.2760 C   0  0  0  0  0  0  0  0  0  0  0  0
   45.2280   32.5480   48.2380 N   0  0  0  0  0  0  0  0  0  0  0  0
   45.4830   31.7250   49.2910 C   0  0  0  0  0  0  0  0  0  0  0  0
   46.4250   30.8160   48.9290 N   0  0  0  0  0  0  0  0  0  0  0  0
   49.7740   29.5112   41.9242 H   0  0  0  0  0  0  0  0  0  0  0  0
   49.7761   31.9754   41.3794 H   0  0  0  0  0  0  0  0  0  0  0  0
   48.5713   34.4745   43.7480 H   0  0  0  0  0  0  0  0  0  0  0  0
   49.1655   34.2121   42.0750 H   0  0  0  0  0  0  0  0  0  0  0  0
   47.3398   33.9057   40.1429 H   0  0  0  0  0  0  0  0  0  0  0  0
   42.6991   35.8930   44.2525 H   0  0  0  0  0  0  0  0  0  0  0  0
   45.1921   35.4556   46.8054 H   0  0  0  0  0  0  0  0  0  0  0  0
   43.5062   35.9347   46.4722 H   0  0  0  0  0  0  0  0  0  0  0  0
   46.0610   30.5340   45.4920 H   0  0  0  0  0  0  0  0  0  0  0  0
   46.8089   28.1218   46.4772 H   0  0  0  0  0  0  0  0  0  0  0  0
   45.9263   28.3044   44.9234 H   0  0  0  0  0  0  0  0  0  0  0  0
   47.7095   28.0881   44.9234 H   0  0  0  0  0  0  0  0  0  0  0  0
   48.0601   29.3876   47.3203 H   0  0  0  0  0  0  0  0  0  0  0  0
   48.6557   30.9281   46.6787 H   0  0  0  0  0  0  0  0  0  0  0  0
   46.1064   32.5153   46.2675 H   0  0  0  0  0  0  0  0  0  0  0  0
   45.0026   31.7861   50.2786 H   0  0  0  0  0  0  0  0  0  0  0  0
  1  6  2  0
  2  1  1  0
  2  3  2  0
  3  4  1  0
  4  5  2  0
  5 19  1  0
  6  5  1  0
  7  3  1  0
  8  7  1  0
  8 18  1  0
  9  8  1  0
 10  9  2  0
 10 11  1  0
 11 12  1  0
 11 18  2  0
 12 14  1  0
 13 12  2  0
 14 15  1  0
 15 16  1  0
 17 15  2  0
 18 17  1  0
 19 21  1  0
 20 19  1  0
 21 22  1  0
 22 26  1  0
 23 22  1  0
 23 24  2  0
 24 25  1  0
 26 25  2  0
  1 27  1  0
  2 28  1  0
  7 29  1  0
  7 30  1  0
  9 31  1  0
 14 32  1  0
 16 33  1  0
 16 34  1  0
 19 35  1  1
 20 36  1  0
 20 37  1  0
 20 38  1  0
 21 39  1  0
 21 40  1  0
 23 41  1  0
 25 42  1  0
M  ISO  8  27  14  28  14  29   8  30   8  31  14  32   9  35   8  36   8
M  ISO  6  37   8  38   8  39   8  40   8  41  14  42  14
M  END
>  <minimizedAffinity>  (1) 
-5.99088812

>  <minimizedRMSD>  (1) 
1.12606716

$$$$
