
     RDKit          3D

 51 54  0  0  1  0  0  0  0  0999 V2000
   49.5880   30.7150   41.8030 C   0  0  0  0  0  0  0  0  0  0  0  0
   49.3400   32.0390   41.3760 C   0  0  0  0  0  0  0  0  0  0  0  0
   48.5060   32.8400   42.1700 C   0  0  0  0  0  0  0  0  0  0  0  0
   47.9810   32.3060   43.3030 N   0  0  0  0  0  0  0  0  0  0  0  0
   48.2470   31.0150   43.6800 C   0  0  0  0  0  0  0  0  0  0  0  0
   49.0460   30.2440   42.9200 N   0  0  0  0  0  0  0  0  0  0  0  0
   48.1750   34.2530   41.7980 C   0  0  0  0  0  0  0  0  0  0  0  0
   46.7690   34.3380   41.4480 N   0  0  0  0  0  0  0  0  0  0  0  0
   46.2060   33.9860   40.2550 C   0  0  0  0  0  0  0  0  0  0  0  0
   44.8770   34.2070   40.3100 N   0  0  0  0  0  0  0  0  0  0  0  0
   44.5720   34.6990   41.5250 C   0  0  0  0  0  0  0  0  0  0  0  0
   43.3580   35.0880   42.0840 C   0  0  0  0  0  0  0  0  0  0  0  0
   42.3180   34.9970   41.4080 O   0  0  0  0  0  0  0  0  0  0  0  0
   43.4100   35.5410   43.3410 N   0  0  0  0  0  0  0  0  0  0  0  0
   44.5620   35.6280   44.0540 C   0  0  0  0  0  0  0  0  0  0  0  0
   44.5120   36.1260   45.3730 N   0  0  0  0  0  0  0  0  0  0  0  0
   45.7400   35.2550   43.5250 N   0  0  0  0  0  0  0  0  0  0  0  0
   45.7610   34.7860   42.2530 C   0  0  0  0  0  0  0  0  0  0  0  0
   47.6300   30.4610   44.9500 C   0  0  1  0  0  0  0  0  0  0  0  0
   48.5970   29.5930   45.6830 C   0  0  0  0  0  0  0  0  0  0  0  0
   47.1660   31.5920   45.8240 C   0  0  0  0  0  0  0  0  0  0  0  0
   46.5490   31.1900   47.0070 N   0  0  0  0  0  0  0  0  0  0  0  0
   45.3140   30.5520   47.0660 C   0  0  0  0  0  0  0  0  0  0  0  0
   45.2240   29.8660   48.4570 C   0  0  0  0  0  0  0  0  0  0  0  0
   45.0340   30.9620   49.4740 C   0  0  0  0  0  0  0  0  0  0  0  0
   45.8060   32.2080   49.1150 C   0  0  0  0  0  0  0  0  0  0  0  0
   46.9370   31.9140   48.1630 C   0  0  0  0  0  0  0  0  0  0  0  0
   50.2398   30.0648   41.2011 H   0  0  0  0  0  0  0  0  0  0  0  0
   49.7870   32.4293   40.4498 H   0  0  0  0  0  0  0  0  0  0  0  0
   48.3825   34.9161   42.6508 H   0  0  0  0  0  0  0  0  0  0  0  0
   48.7888   34.5623   40.9392 H   0  0  0  0  0  0  0  0  0  0  0  0
   46.7502   33.5857   39.3869 H   0  0  0  0  0  0  0  0  0  0  0  0
   42.5325   35.8387   43.7906 H   0  0  0  0  0  0  0  0  0  0  0  0
   45.3760   36.1991   45.9290 H   0  0  0  0  0  0  0  0  0  0  0  0
   43.6115   36.4164   45.7800 H   0  0  0  0  0  0  0  0  0  0  0  0
   46.7646   29.8393   44.6768 H   0  0  0  0  0  0  0  0  0  0  0  0
   48.4555   29.7200   46.7664 H   0  0  0  0  0  0  0  0  0  0  0  0
   48.4243   28.5411   45.4115 H   0  0  0  0  0  0  0  0  0  0  0  0
   49.6242   29.8779   45.4115 H   0  0  0  0  0  0  0  0  0  0  0  0
   48.0403   32.2069   46.0838 H   0  0  0  0  0  0  0  0  0  0  0  0
   46.4092   32.1441   45.2473 H   0  0  0  0  0  0  0  0  0  0  0  0
   44.5033   31.2869   46.9539 H   0  0  0  0  0  0  0  0  0  0  0  0
   45.2141   29.8137   46.2567 H   0  0  0  0  0  0  0  0  0  0  0  0
   44.3696   29.1737   48.4828 H   0  0  0  0  0  0  0  0  0  0  0  0
   46.1337   29.2852   48.6693 H   0  0  0  0  0  0  0  0  0  0  0  0
   43.9642   31.2115   49.5313 H   0  0  0  0  0  0  0  0  0  0  0  0
   45.4103   30.5966   50.4409 H   0  0  0  0  0  0  0  0  0  0  0  0
   45.1208   32.9269   48.6420 H   0  0  0  0  0  0  0  0  0  0  0  0
   46.2370   32.6200   50.0394 H   0  0  0  0  0  0  0  0  0  0  0  0
   47.6961   31.3262   48.6998 H   0  0  0  0  0  0  0  0  0  0  0  0
   47.3185   32.8853   47.8150 H   0  0  0  0  0  0  0  0  0  0  0  0
  1  6  2  0
  2  1  1  0
  2  3  2  0
  3  4  1  0
  4  5  2  0
  5 19  1  0
  6  5  1  0
  7  3  1  0
  8  7  1  0
  8 18  1  0
  9 10  2  0
  9  8  1  0
 10 11  1  0
 11 12  1  0
 11 18  2  0
 12 14  1  0
 13 12  2  0
 14 15  1  0
 15 16  1  0
 17 15  2  0
 18 17  1  0
 19 20  1  0
 19 21  1  0
 21 22  1  0
 22 23  1  0
 22 27  1  0
 23 24  1  0
 24 25  1  0
 26 25  1  0
 27 26  1  0
  1 28  1  0
  2 29  1  0
  7 30  1  0
  7 31  1  0
  9 32  1  0
 14 33  1  0
 16 34  1  0
 16 35  1  0
 19 36  1  6
 20 37  1  0
 20 38  1  0
 20 39  1  0
 21 40  1  0
 21 41  1  0
 23 42  1  0
 23 43  1  0
 24 44  1  0
 24 45  1  0
 25 46  1  0
 25 47  1  0
 26 48  1  0
 26 49  1  0
 27 50  1  0
 27 51  1  0
M  ISO  8  28  14  29  14  30   8  31   8  32  14  33   9  36   8  37   8
M  ISO  8  38   8  39   8  40   8  41   8  42  13  43  13  44  13  45  13
M  ISO  6  46  13  47  13  48  13  49  13  50  13  51  13
M  END
>  <minimizedAffinity>  (1) 
-6.17549658

>  <minimizedRMSD>  (1) 
1.57503712

$$$$
