
     RDKit          3D

 25 27  0  0  0  0  0  0  0  0999 V2000
   44.7610   35.7130   44.9810 C   0  0  0  0  0  0  0  0  0  0  0  0
   44.2160   35.5960   43.6880 C   0  0  0  0  0  0  0  0  0  0  0  0
   44.3810   34.3870   43.0380 C   0  0  0  0  0  0  0  0  0  0  0  0
   45.0470   33.3570   43.6300 N   0  0  0  0  0  0  0  0  0  0  0  0
   45.5640   33.5180   44.8960 C   0  0  0  0  0  0  0  0  0  0  0  0
   45.4210   34.6820   45.5570 N   0  0  0  0  0  0  0  0  0  0  0  0
   46.2720   32.4100   45.5150 C   0  0  0  0  0  0  0  0  0  0  0  0
   47.2310   31.5790   44.9370 C   0  0  0  0  0  0  0  0  0  0  0  0
   47.6490   30.6680   45.8490 N   0  0  0  0  0  0  0  0  0  0  0  0
   46.9580   30.9300   46.9820 C   0  0  0  0  0  0  0  0  0  0  0  0
   46.1230   31.9830   46.7870 N   0  0  0  0  0  0  0  0  0  0  0  0
   45.2130   32.5700   47.7630 C   0  0  0  0  0  0  0  0  0  0  0  0
   44.2280   31.6700   48.1620 F   0  0  0  0  0  0  0  0  0  0  0  0
   44.6140   33.7250   47.2710 F   0  0  0  0  0  0  0  0  0  0  0  0
   45.9200   32.8840   48.9250 F   0  0  0  0  0  0  0  0  0  0  0  0
   43.8690   34.1210   41.6960 C   0  0  0  0  0  0  0  0  0  0  0  0
   44.5320   34.0290   40.5140 N   0  0  0  0  0  0  0  0  0  0  0  0
   43.6990   33.7820   39.5710 O   0  0  0  0  0  0  0  0  0  0  0  0
   42.4730   33.6960   40.0410 C   0  0  0  0  0  0  0  0  0  0  0  0
   42.5560   33.9070   41.3860 N   0  0  0  0  0  0  0  0  0  0  0  0
   44.6483   36.6584   45.5320 H   0  0  0  0  0  0  0  0  0  0  0  0
   43.6809   36.4323   43.2144 H   0  0  0  0  0  0  0  0  0  0  0  0
   47.5925   31.6517   43.9006 H   0  0  0  0  0  0  0  0  0  0  0  0
   47.0579   30.3713   47.9243 H   0  0  0  0  0  0  0  0  0  0  0  0
   41.5597   33.4935   39.4623 H   0  0  0  0  0  0  0  0  0  0  0  0
  1  6  2  0
  2  1  1  0
  3  4  1  0
  3  2  2  0
  4  5  2  0
  5  7  1  0
  5  6  1  0
  7 11  1  0
  8  7  2  0
  8  9  1  0
  9 10  2  0
 11 10  1  0
 11 12  1  0
 12 13  1  0
 12 15  1  0
 14 12  1  0
 16  3  1  0
 17 16  2  0
 18 19  1  0
 18 17  1  0
 19 20  2  0
 20 16  1  0
  1 21  1  0
  2 22  1  0
  8 23  1  0
 10 24  1  0
 19 25  1  0
M  ISO  5  21  14  22  14  23  14  24  14  25  14
M  END
>  <minimizedAffinity>  (1) 
-4.9923768

>  <minimizedRMSD>  (1) 
0.366004288

$$$$
