
     RDKit          3D

 38 40  0  0  1  0  0  0  0  0999 V2000
   48.2640   29.9040   43.5540 C   0  0  0  0  0  0  0  0  0  0  0  0
   48.4550   31.1380   42.8820 C   0  0  0  0  0  0  0  0  0  0  0  0
   48.0670   32.3230   43.5450 C   0  0  0  0  0  0  0  0  0  0  0  0
   47.5330   32.2140   44.7900 N   0  0  0  0  0  0  0  0  0  0  0  0
   47.3650   30.9970   45.4060 C   0  0  0  0  0  0  0  0  0  0  0  0
   47.7270   29.8750   44.7900 N   0  0  0  0  0  0  0  0  0  0  0  0
   48.2220   33.6630   42.9130 C   0  0  0  0  0  0  0  0  0  0  0  0
   46.9360   34.0940   42.3860 N   0  0  0  0  0  0  0  0  0  0  0  0
   46.5680   34.0430   41.0730 C   0  0  0  0  0  0  0  0  0  0  0  0
   45.3040   34.5300   40.9700 N   0  0  0  0  0  0  0  0  0  0  0  0
   44.8760   34.8830   42.1830 C   0  0  0  0  0  0  0  0  0  0  0  0
   43.6750   35.4270   42.6290 C   0  0  0  0  0  0  0  0  0  0  0  0
   42.7640   35.6630   41.7860 O   0  0  0  0  0  0  0  0  0  0  0  0
   43.5620   35.6680   43.9290 N   0  0  0  0  0  0  0  0  0  0  0  0
   44.5460   35.4110   44.8180 C   0  0  0  0  0  0  0  0  0  0  0  0
   44.3490   35.6950   46.1800 N   0  0  0  0  0  0  0  0  0  0  0  0
   45.7300   34.8780   44.4110 N   0  0  0  0  0  0  0  0  0  0  0  0
   45.8990   34.6140   43.1000 C   0  0  0  0  0  0  0  0  0  0  0  0
   46.7810   30.9320   46.7730 C   0  0  1  0  0  0  0  0  0  0  0  0
   47.6050   30.0740   47.7150 C   0  0  0  0  0  0  0  0  0  0  0  0
   46.7080   32.3040   47.4050 C   0  0  0  0  0  0  0  0  0  0  0  0
   46.1530   32.1970   48.7390 N   0  0  0  0  0  0  0  0  0  0  0  0
   48.5561   28.9639   43.0632 H   0  0  0  0  0  0  0  0  0  0  0  0
   48.8927   31.1713   41.8734 H   0  0  0  0  0  0  0  0  0  0  0  0
   48.5729   34.3859   43.6642 H   0  0  0  0  0  0  0  0  0  0  0  0
   48.9558   33.6039   42.0956 H   0  0  0  0  0  0  0  0  0  0  0  0
   47.1869   33.6722   40.2427 H   0  0  0  0  0  0  0  0  0  0  0  0
   42.6804   36.0709   44.2774 H   0  0  0  0  0  0  0  0  0  0  0  0
   45.0975   35.5001   46.8602 H   0  0  0  0  0  0  0  0  0  0  0  0
   43.4561   36.0981   46.4981 H   0  0  0  0  0  0  0  0  0  0  0  0
   45.7798   30.4970   46.6376 H   0  0  0  0  0  0  0  0  0  0  0  0
   47.3582   30.3310   48.7557 H   0  0  0  0  0  0  0  0  0  0  0  0
   47.3793   29.0124   47.5361 H   0  0  0  0  0  0  0  0  0  0  0  0
   48.6749   30.2566   47.5361 H   0  0  0  0  0  0  0  0  0  0  0  0
   47.7186   32.7345   47.4626 H   0  0  0  0  0  0  0  0  0  0  0  0
   46.0647   32.9536   46.7933 H   0  0  0  0  0  0  0  0  0  0  0  0
   46.8995   32.3409   49.4340 H   0  0  0  0  0  0  0  0  0  0  0  0
   45.4233   32.9128   48.8657 H   0  0  0  0  0  0  0  0  0  0  0  0
  1  6  2  0
  2  3  2  0
  2  1  1  0
  3  4  1  0
  4  5  2  0
  5 19  1  0
  6  5  1  0
  7  3  1  0
  8  7  1  0
  8 18  1  0
  9  8  1  0
 10  9  2  0
 10 11  1  0
 11 12  1  0
 11 18  2  0
 12 14  1  0
 13 12  2  0
 14 15  1  0
 15 16  1  0
 17 15  2  0
 18 17  1  0
 19 21  1  0
 19 20  1  0
 21 22  1  0
  1 23  1  0
  2 24  1  0
  7 25  1  0
  7 26  1  0
  9 27  1  0
 14 28  1  0
 16 29  1  0
 16 30  1  0
 19 31  1  6
 20 32  1  0
 20 33  1  0
 20 34  1  0
 21 35  1  0
 21 36  1  0
 22 37  1  0
 22 38  1  0
M  ISO  8  23  14  24  14  25   8  26   8  27  14  28   9  31   8  32   8
M  ISO  6  33   8  34   8  35   8  36   8  37   5  38   5
M  END
>  <minimizedAffinity>  (1) 
-5.51154184

>  <minimizedRMSD>  (1) 
0.180694982

$$$$
