
     RDKit          3D

 11 11  0  0  0  0  0  0  0  0999 V2000
   44.6760   36.0620   44.2420 C   0  0  0  0  0  0  0  0  0  0  0  0
   45.5010   35.5570   43.2200 C   0  0  0  0  0  0  0  0  0  0  0  0
   46.1870   34.3740   43.4950 C   0  0  0  0  0  0  0  0  0  0  0  0
   46.0230   33.7910   44.7120 N   0  0  0  0  0  0  0  0  0  0  0  0
   45.2220   34.3100   45.6630 C   0  0  0  0  0  0  0  0  0  0  0  0
   44.5520   35.4430   45.4240 N   0  0  0  0  0  0  0  0  0  0  0  0
   45.0450   33.7230   46.9100 O   0  0  0  0  0  0  0  0  0  0  0  0
   44.1163   36.9924   44.0654 H   0  0  0  0  0  0  0  0  0  0  0  0
   45.6001   36.0699   42.2519 H   0  0  0  0  0  0  0  0  0  0  0  0
   46.8482   33.9214   42.7413 H   0  0  0  0  0  0  0  0  0  0  0  0
   44.4446   34.1445   47.5748 H   0  0  0  0  0  0  0  0  0  0  0  0
  1  6  2  0
  2  3  2  0
  2  1  1  0
  3  4  1  0
  4  5  2  0
  5  7  1  0
  6  5  1  0
  1  8  1  0
  2  9  1  0
  3 10  1  0
  7 11  1  0
M  ISO  4   8  14   9  14  10  14  11   3
M  END
>  <minimizedAffinity>  (1) 
-3.2679472

>  <minimizedRMSD>  (1) 
0.352632523

$$$$
