
     RDKit          3D

 37 39  0  0  1  0  0  0  0  0999 V2000
   48.2210   29.9040   43.5640 C   0  0  0  0  0  0  0  0  0  0  0  0
   48.4110   31.1250   42.8790 C   0  0  0  0  0  0  0  0  0  0  0  0
   48.0450   32.3210   43.5390 C   0  0  0  0  0  0  0  0  0  0  0  0
   47.5300   32.2280   44.7940 N   0  0  0  0  0  0  0  0  0  0  0  0
   47.3640   31.0170   45.4200 C   0  0  0  0  0  0  0  0  0  0  0  0
   47.7050   29.8860   44.8090 N   0  0  0  0  0  0  0  0  0  0  0  0
   48.2040   33.6480   42.8870 C   0  0  0  0  0  0  0  0  0  0  0  0
   46.9150   34.0810   42.3560 N   0  0  0  0  0  0  0  0  0  0  0  0
   46.5370   34.0250   41.0420 C   0  0  0  0  0  0  0  0  0  0  0  0
   45.2810   34.5110   40.9420 N   0  0  0  0  0  0  0  0  0  0  0  0
   44.8600   34.8730   42.1740 C   0  0  0  0  0  0  0  0  0  0  0  0
   43.6470   35.4270   42.6130 C   0  0  0  0  0  0  0  0  0  0  0  0
   42.7560   35.6510   41.7760 O   0  0  0  0  0  0  0  0  0  0  0  0
   43.5480   35.6710   43.9160 N   0  0  0  0  0  0  0  0  0  0  0  0
   44.5410   35.4140   44.7950 C   0  0  0  0  0  0  0  0  0  0  0  0
   44.3580   35.7020   46.1650 N   0  0  0  0  0  0  0  0  0  0  0  0
   45.7180   34.8780   44.3850 N   0  0  0  0  0  0  0  0  0  0  0  0
   45.8820   34.6080   43.0770 C   0  0  0  0  0  0  0  0  0  0  0  0
   46.8010   30.9720   46.7980 C   0  0  1  0  0  0  0  0  0  0  0  0
   47.6070   30.0990   47.7270 C   0  0  0  0  0  0  0  0  0  0  0  0
   46.7540   32.3530   47.4190 C   0  0  0  0  0  0  0  0  0  0  0  0
   46.1740   32.2890   48.6910 O   0  0  0  0  0  0  0  0  0  0  0  0
   48.4972   28.9577   43.0759 H   0  0  0  0  0  0  0  0  0  0  0  0
   48.8311   31.1448   41.8626 H   0  0  0  0  0  0  0  0  0  0  0  0
   48.5619   34.3801   43.6258 H   0  0  0  0  0  0  0  0  0  0  0  0
   48.9337   33.5713   42.0674 H   0  0  0  0  0  0  0  0  0  0  0  0
   47.1507   33.6488   40.2102 H   0  0  0  0  0  0  0  0  0  0  0  0
   42.6708   36.0760   44.2730 H   0  0  0  0  0  0  0  0  0  0  0  0
   45.1133   35.5071   46.8376 H   0  0  0  0  0  0  0  0  0  0  0  0
   43.4692   36.1070   46.4919 H   0  0  0  0  0  0  0  0  0  0  0  0
   45.7895   30.5554   46.6826 H   0  0  0  0  0  0  0  0  0  0  0  0
   47.3696   30.3561   48.7699 H   0  0  0  0  0  0  0  0  0  0  0  0
   47.3597   29.0428   47.5443 H   0  0  0  0  0  0  0  0  0  0  0  0
   48.6795   30.2613   47.5443 H   0  0  0  0  0  0  0  0  0  0  0  0
   47.7769   32.7482   47.5051 H   0  0  0  0  0  0  0  0  0  0  0  0
   46.1497   33.0143   46.7807 H   0  0  0  0  0  0  0  0  0  0  0  0
   46.8805   32.3670   49.3801 H   0  0  0  0  0  0  0  0  0  0  0  0
  1  6  2  0
  2  3  2  0
  2  1  1  0
  3  4  1  0
  4  5  2  0
  5 19  1  0
  6  5  1  0
  7  3  1  0
  8  7  1  0
  8 18  1  0
  9  8  1  0
 10  9  2  0
 10 11  1  0
 11 12  1  0
 11 18  2  0
 12 14  1  0
 13 12  2  0
 14 15  1  0
 15 16  1  0
 17 15  2  0
 18 17  1  0
 19 21  1  0
 19 20  1  0
 21 22  1  0
  1 23  1  0
  2 24  1  0
  7 25  1  0
  7 26  1  0
  9 27  1  0
 14 28  1  0
 16 29  1  0
 16 30  1  0
 19 31  1  6
 20 32  1  0
 20 33  1  0
 20 34  1  0
 21 35  1  0
 21 36  1  0
 22 37  1  0
M  ISO  8  23  14  24  14  25   8  26   8  27  14  28   9  31   8  32   8
M  ISO  5  33   8  34   8  35   8  36   8  37   3
M  END
>  <minimizedAffinity>  (1) 
-5.49693012

>  <minimizedRMSD>  (1) 
0.198561728

$$$$
