
     RDKit          3D

 26 27  0  0  0  0  0  0  0  0999 V2000
   44.6530   36.0150   44.3290 C   0  0  0  0  0  0  0  0  0  0  0  0
   45.4300   35.5310   43.2580 C   0  0  0  0  0  0  0  0  0  0  0  0
   46.1350   34.3550   43.4820 C   0  0  0  0  0  0  0  0  0  0  0  0
   46.0440   33.7470   44.6870 N   0  0  0  0  0  0  0  0  0  0  0  0
   45.2800   34.2530   45.6890 C   0  0  0  0  0  0  0  0  0  0  0  0
   44.5860   35.3850   45.5090 N   0  0  0  0  0  0  0  0  0  0  0  0
   45.1850   33.6320   46.9210 O   0  0  0  0  0  0  0  0  0  0  0  0
   46.8860   30.7090   49.3130 N   0  0  0  0  0  0  0  0  0  0  0  0
   47.6170   31.8200   48.8020 C   0  0  0  0  0  0  0  0  0  0  0  0
   47.1670   32.3470   47.4790 C   0  0  0  0  0  0  0  0  0  0  0  0
   45.7000   32.3640   47.2360 C   0  0  0  0  0  0  0  0  0  0  0  0
   44.9640   31.6960   48.3730 C   0  0  0  0  0  0  0  0  0  0  0  0
   45.7060   30.3760   48.5540 C   0  0  0  0  0  0  0  0  0  0  0  0
   44.0806   36.9441   44.1910 H   0  0  0  0  0  0  0  0  0  0  0  0
   45.4761   36.0576   42.2933 H   0  0  0  0  0  0  0  0  0  0  0  0
   46.7609   33.9226   42.6875 H   0  0  0  0  0  0  0  0  0  0  0  0
   47.5083   29.8883   49.3186 H   0  0  0  0  0  0  0  0  0  0  0  0
   47.5412   32.6380   49.5336 H   0  0  0  0  0  0  0  0  0  0  0  0
   48.6415   31.4527   48.6421 H   0  0  0  0  0  0  0  0  0  0  0  0
   47.5327   33.3805   47.3890 H   0  0  0  0  0  0  0  0  0  0  0  0
   47.5777   31.6506   46.7331 H   0  0  0  0  0  0  0  0  0  0  0  0
   45.5257   31.7727   46.3250 H   0  0  0  0  0  0  0  0  0  0  0  0
   45.0176   32.3053   49.2873 H   0  0  0  0  0  0  0  0  0  0  0  0
   43.8923   31.5591   48.1666 H   0  0  0  0  0  0  0  0  0  0  0  0
   45.0834   29.6554   49.1045 H   0  0  0  0  0  0  0  0  0  0  0  0
   45.9546   29.9076   47.5903 H   0  0  0  0  0  0  0  0  0  0  0  0
  1  6  2  0
  2  3  2  0
  2  1  1  0
  3  4  1  0
  4  5  2  0
  5  7  1  0
  6  5  1  0
  7 11  1  0
  9  8  1  0
 10  9  1  0
 11 10  1  0
 11 12  1  0
 12 13  1  0
 13  8  1  0
  1 14  1  0
  2 15  1  0
  3 16  1  0
  8 17  1  0
  9 18  1  0
  9 19  1  0
 10 20  1  0
 10 21  1  0
 11 22  1  0
 12 23  1  0
 12 24  1  0
 13 25  1  0
 13 26  1  0
M  ISO  8  14  14  15  14  16  14  17   5  18  13  19  13  20  13  21  13
M  ISO  5  22  13  23  13  24  13  25  13  26  13
M  END
>  <minimizedAffinity>  (1) 
-4.91233206

>  <minimizedRMSD>  (1) 
0.362385511

$$$$
