
     RDKit          3D

 18 19  0  0  0  0  0  0  0  0999 V2000
   44.8150   35.4110   44.8500 C   0  0  0  0  0  0  0  0  0  0  0  0
   45.6100   34.8380   43.8470 C   0  0  0  0  0  0  0  0  0  0  0  0
   46.2570   33.6360   44.1450 C   0  0  0  0  0  0  0  0  0  0  0  0
   46.0710   33.1110   45.3770 N   0  0  0  0  0  0  0  0  0  0  0  0
   45.3050   33.6810   46.3170 C   0  0  0  0  0  0  0  0  0  0  0  0
   44.6830   34.8250   46.0480 N   0  0  0  0  0  0  0  0  0  0  0  0
   45.1080   33.1540   47.5810 O   0  0  0  0  0  0  0  0  0  0  0  0
   46.0180   32.3310   48.2290 C   0  0  0  0  0  0  0  0  0  0  0  0
   47.3730   32.5170   47.9710 C   0  0  0  0  0  0  0  0  0  0  0  0
   48.0530   31.5780   48.7360 C   0  0  0  0  0  0  0  0  0  0  0  0
   47.1300   30.8670   49.4180 N   0  0  0  0  0  0  0  0  0  0  0  0
   45.9290   31.3200   49.1110 N   0  0  0  0  0  0  0  0  0  0  0  0
   44.2910   36.3573   44.6501 H   0  0  0  0  0  0  0  0  0  0  0  0
   45.7201   35.3167   42.8628 H   0  0  0  0  0  0  0  0  0  0  0  0
   46.8955   33.1342   43.4030 H   0  0  0  0  0  0  0  0  0  0  0  0
   47.8179   33.2613   47.2943 H   0  0  0  0  0  0  0  0  0  0  0  0
   49.1434   31.4392   48.7784 H   0  0  0  0  0  0  0  0  0  0  0  0
   47.3304   30.0965   50.0715 H   0  0  0  0  0  0  0  0  0  0  0  0
  1  6  2  0
  2  3  2  0
  2  1  1  0
  3  4  1  0
  4  5  2  0
  5  7  1  0
  6  5  1  0
  7  8  1  0
  8 12  2  0
  9  8  1  0
  9 10  2  0
 10 11  1  0
 12 11  1  0
  1 13  1  0
  2 14  1  0
  3 15  1  0
  9 16  1  0
 10 17  1  0
 11 18  1  0
M  ISO  6  13  14  14  14  15  14  16  14  17  14  18   9
M  END
>  <minimizedAffinity>  (1) 
-4.2786479

>  <minimizedRMSD>  (1) 
1.20868862

$$$$
