
     RDKit          3D

 18 19  0  0  0  0  0  0  0  0999 V2000
   44.6890   36.0460   44.2450 C   0  0  0  0  0  0  0  0  0  0  0  0
   45.5340   35.5730   43.2310 C   0  0  0  0  0  0  0  0  0  0  0  0
   46.2310   34.3940   43.4880 C   0  0  0  0  0  0  0  0  0  0  0  0
   46.0550   33.7800   44.6890 N   0  0  0  0  0  0  0  0  0  0  0  0
   45.2330   34.2740   45.6290 C   0  0  0  0  0  0  0  0  0  0  0  0
   44.5410   35.4120   45.4160 N   0  0  0  0  0  0  0  0  0  0  0  0
   45.0400   33.6580   46.8610 O   0  0  0  0  0  0  0  0  0  0  0  0
   46.0410   32.9420   47.5130 C   0  0  0  0  0  0  0  0  0  0  0  0
   45.5280   32.0250   48.4360 C   0  0  0  0  0  0  0  0  0  0  0  0
   46.5920   31.3880   49.0080 N   0  0  0  0  0  0  0  0  0  0  0  0
   47.7200   31.8970   48.4560 C   0  0  0  0  0  0  0  0  0  0  0  0
   47.4010   32.8280   47.5590 N   0  0  0  0  0  0  0  0  0  0  0  0
   44.1251   36.9746   44.0722 H   0  0  0  0  0  0  0  0  0  0  0  0
   45.6418   36.1082   42.2761 H   0  0  0  0  0  0  0  0  0  0  0  0
   46.9101   33.9683   42.7346 H   0  0  0  0  0  0  0  0  0  0  0  0
   44.4654   31.8495   48.6596 H   0  0  0  0  0  0  0  0  0  0  0  0
   48.7445   31.5878   48.7105 H   0  0  0  0  0  0  0  0  0  0  0  0
   48.0689   33.3716   46.9939 H   0  0  0  0  0  0  0  0  0  0  0  0
  1  6  2  0
  2  3  2  0
  2  1  1  0
  3  4  1  0
  4  5  2  0
  5  7  1  0
  6  5  1  0
  7  8  1  0
  8 12  1  0
  8  9  2  0
  9 10  1  0
 11 10  2  0
 12 11  1  0
  1 13  1  0
  2 14  1  0
  3 15  1  0
  9 16  1  0
 11 17  1  0
 12 18  1  0
M  ISO  6  13  14  14  14  15  14  16  14  17  14  18   9
M  END
>  <minimizedAffinity>  (1) 
-4.32608938

>  <minimizedRMSD>  (1) 
1.10426748

$$$$
