
     RDKit          3D

 23 24  0  0  0  0  0  0  0  0999 V2000
   44.7660   35.6740   44.9630 C   0  0  0  0  0  0  0  0  0  0  0  0
   44.2390   35.5230   43.6720 C   0  0  0  0  0  0  0  0  0  0  0  0
   44.4110   34.3120   43.0280 C   0  0  0  0  0  0  0  0  0  0  0  0
   45.0820   33.3040   43.6580 N   0  0  0  0  0  0  0  0  0  0  0  0
   45.5820   33.4860   44.9160 C   0  0  0  0  0  0  0  0  0  0  0  0
   45.4280   34.6600   45.5710 N   0  0  0  0  0  0  0  0  0  0  0  0
   46.2960   32.3880   45.5690 C   0  0  0  0  0  0  0  0  0  0  0  0
   47.2680   31.5650   45.0220 C   0  0  0  0  0  0  0  0  0  0  0  0
   47.6810   30.6730   45.9490 N   0  0  0  0  0  0  0  0  0  0  0  0
   46.9720   30.9360   47.0710 C   0  0  0  0  0  0  0  0  0  0  0  0
   46.1300   31.9780   46.8420 N   0  0  0  0  0  0  0  0  0  0  0  0
   45.1900   32.5760   47.7920 C   0  0  0  0  0  0  0  0  0  0  0  0
   44.2060   31.6700   48.1820 F   0  0  0  0  0  0  0  0  0  0  0  0
   44.6190   33.7330   47.2850 F   0  0  0  0  0  0  0  0  0  0  0  0
   45.8680   32.8940   48.9750 F   0  0  0  0  0  0  0  0  0  0  0  0
   43.9030   34.0280   41.6670 C   0  0  0  0  0  0  0  0  0  0  0  0
   44.3580   32.7760   41.2350 F   0  0  0  0  0  0  0  0  0  0  0  0
   44.3510   34.9320   40.7480 F   0  0  0  0  0  0  0  0  0  0  0  0
   42.5100   33.9750   41.6440 F   0  0  0  0  0  0  0  0  0  0  0  0
   44.6399   36.6310   45.4904 H   0  0  0  0  0  0  0  0  0  0  0  0
   43.7014   36.3490   43.1834 H   0  0  0  0  0  0  0  0  0  0  0  0
   47.6455   31.6284   43.9907 H   0  0  0  0  0  0  0  0  0  0  0  0
   47.0630   30.3906   48.0219 H   0  0  0  0  0  0  0  0  0  0  0  0
  1  6  2  0
  2  1  1  0
  3  4  1  0
  3  2  2  0
  4  5  2  0
  5  7  1  0
  5  6  1  0
  7 11  1  0
  8  7  2  0
  8  9  1  0
  9 10  2  0
 11 10  1  0
 11 12  1  0
 12 13  1  0
 12 15  1  0
 14 12  1  0
 16  3  1  0
 17 16  1  0
 18 16  1  0
 19 16  1  0
  1 20  1  0
  2 21  1  0
  8 22  1  0
 10 23  1  0
M  ISO  4  20  14  21  14  22  14  23  14
M  END
>  <minimizedAffinity>  (1) 
-4.84301281

>  <minimizedRMSD>  (1) 
0.249701709

$$$$
