
     RDKit          3D

 14 14  0  0  0  0  0  0  0  0999 V2000
   44.5560   36.0270   44.5230 C   0  0  0  0  0  0  0  0  0  0  0  0
   45.2810   35.8390   43.3430 C   0  0  0  0  0  0  0  0  0  0  0  0
   46.1270   34.7310   43.2700 C   0  0  0  0  0  0  0  0  0  0  0  0
   46.1830   33.9110   44.3560 N   0  0  0  0  0  0  0  0  0  0  0  0
   45.4760   34.1160   45.4740 C   0  0  0  0  0  0  0  0  0  0  0  0
   44.6560   35.1780   45.5650 N   0  0  0  0  0  0  0  0  0  0  0  0
   45.5340   33.2860   46.5760 O   0  0  0  0  0  0  0  0  0  0  0  0
   46.7830   32.6570   46.8500 C   0  0  0  0  0  0  0  0  0  0  0  0
   43.8836   36.8938   44.6037 H   0  0  0  0  0  0  0  0  0  0  0  0
   45.1881   36.5402   42.5006 H   0  0  0  0  0  0  0  0  0  0  0  0
   46.7256   34.5279   42.3697 H   0  0  0  0  0  0  0  0  0  0  0  0
   46.9263   32.5848   47.9382 H   0  0  0  0  0  0  0  0  0  0  0  0
   46.7895   31.6481   46.4116 H   0  0  0  0  0  0  0  0  0  0  0  0
   47.5974   33.2525   46.4116 H   0  0  0  0  0  0  0  0  0  0  0  0
  1  6  2  0
  2  1  1  0
  3  2  2  0
  3  4  1  0
  4  5  2  0
  5  6  1  0
  5  7  1  0
  7  8  1  0
  1  9  1  0
  2 10  1  0
  3 11  1  0
  8 12  1  0
  8 13  1  0
  8 14  1  0
M  ISO  6   9  14  10  14  11  14  12   8  13   8  14   8
M  END
>  <minimizedAffinity>  (1) 
-3.16902113

>  <minimizedRMSD>  (1) 
0.562211335

$$$$
