
     RDKit          3D

 17 17  0  0  0  0  0  0  0  0999 V2000
   44.5100   36.0240   44.5300 C   0  0  0  0  0  0  0  0  0  0  0  0
   45.1980   35.9010   43.3080 C   0  0  0  0  0  0  0  0  0  0  0  0
   46.0830   34.8370   43.1730 C   0  0  0  0  0  0  0  0  0  0  0  0
   46.2270   33.9930   44.2170 N   0  0  0  0  0  0  0  0  0  0  0  0
   45.5610   34.1300   45.3710 C   0  0  0  0  0  0  0  0  0  0  0  0
   44.7080   35.1400   45.5240 N   0  0  0  0  0  0  0  0  0  0  0  0
   45.7090   33.2680   46.4360 O   0  0  0  0  0  0  0  0  0  0  0  0
   46.7820   32.3880   46.6170 C   0  0  0  0  0  0  0  0  0  0  0  0
   47.3710   32.3680   47.9770 C   0  0  0  0  0  0  0  0  0  0  0  0
   43.8018   36.8533   44.6736 H   0  0  0  0  0  0  0  0  0  0  0  0
   45.0413   36.6199   42.4903 H   0  0  0  0  0  0  0  0  0  0  0  0
   46.6496   34.6872   42.2422 H   0  0  0  0  0  0  0  0  0  0  0  0
   46.4292   31.3720   46.3859 H   0  0  0  0  0  0  0  0  0  0  0  0
   47.5797   32.7444   45.9486 H   0  0  0  0  0  0  0  0  0  0  0  0
   46.5657   32.3953   48.7258 H   0  0  0  0  0  0  0  0  0  0  0  0
   47.9617   31.4493   48.1073 H   0  0  0  0  0  0  0  0  0  0  0  0
   48.0227   33.2445   48.1073 H   0  0  0  0  0  0  0  0  0  0  0  0
  1  6  2  0
  2  1  1  0
  3  2  2  0
  3  4  1  0
  4  5  2  0
  5  6  1  0
  5  7  1  0
  7  8  1  0
  8  9  1  0
  1 10  1  0
  2 11  1  0
  3 12  1  0
  8 13  1  0
  8 14  1  0
  9 15  1  0
  9 16  1  0
  9 17  1  0
M  ISO  8  10  14  11  14  12  14  13   8  14   8  15   8  16   8  17   8
M  END
>  <minimizedAffinity>  (1) 
-3.37011814

>  <minimizedRMSD>  (1) 
2.07776356

$$$$
