
     RDKit          3D

 27 28  0  0  0  0  0  0  0  0999 V2000
   44.4840   36.2420   44.7130 C   0  0  0  0  0  0  0  0  0  0  0  0
   45.0230   36.0540   43.4440 C   0  0  0  0  0  0  0  0  0  0  0  0
   45.7250   34.8940   43.2210 C   0  0  0  0  0  0  0  0  0  0  0  0
   45.8600   34.0020   44.2300 N   0  0  0  0  0  0  0  0  0  0  0  0
   45.3280   34.2050   45.4600 C   0  0  0  0  0  0  0  0  0  0  0  0
   44.6360   35.3300   45.7060 N   0  0  0  0  0  0  0  0  0  0  0  0
   47.6180   33.9610   39.5610 C   0  0  0  0  0  0  0  0  0  0  0  0
   48.2780   34.7270   40.5010 C   0  0  0  0  0  0  0  0  0  0  0  0
   47.6090   35.0040   41.6870 C   0  0  0  0  0  0  0  0  0  0  0  0
   46.3410   34.5550   41.9590 C   0  0  0  0  0  0  0  0  0  0  0  0
   45.7450   33.7990   40.9770 C   0  0  0  0  0  0  0  0  0  0  0  0
   46.3510   33.4950   39.7950 C   0  0  0  0  0  0  0  0  0  0  0  0
   48.4480   33.5980   38.0470 S   0  0  0  0  0  0  0  0  0  0  0  0
   47.8870   32.3480   37.4280 O   0  0  0  0  0  0  0  0  0  0  0  0
   48.3090   34.7710   37.1030 O   0  0  0  0  0  0  0  0  0  0  0  0
   45.4500   33.3140   46.5040 O   0  0  0  0  0  0  0  0  0  0  0  0
   46.1590   32.1110   46.4540 C   0  0  0  0  0  0  0  0  0  0  0  0
   47.5070   32.3120   46.2100 F   0  0  0  0  0  0  0  0  0  0  0  0
   45.5900   31.2420   45.5570 F   0  0  0  0  0  0  0  0  0  0  0  0
   46.1020   31.5360   47.7280 F   0  0  0  0  0  0  0  0  0  0  0  0
   43.9155   37.1611   44.9180 H   0  0  0  0  0  0  0  0  0  0  0  0
   44.8923   36.8045   42.6505 H   0  0  0  0  0  0  0  0  0  0  0  0
   49.2951   35.1038   40.3180 H   0  0  0  0  0  0  0  0  0  0  0  0
   48.1214   35.6137   42.4458 H   0  0  0  0  0  0  0  0  0  0  0  0
   44.7276   33.4205   41.1547 H   0  0  0  0  0  0  0  0  0  0  0  0
   45.8315   32.8854   39.0410 H   0  0  0  0  0  0  0  0  0  0  0  0
   49.7775   33.3847   38.2998 H   0  0  0  0  0  0  0  0  0  0  0  0
  1  6  2  0
  2  1  1  0
  3  2  2  0
  3  4  1  0
  4  5  2  0
  5  6  1  0
  5 16  1  0
  7 12  2  0
  7  8  1  0
  8  9  2  0
  9 10  1  0
 10  3  1  0
 11 10  2  0
 12 11  1  0
 13  7  1  0
 14 13  2  0
 15 13  2  0
 17 16  1  0
 17 20  1  0
 18 17  1  0
 19 17  1  0
  1 21  1  0
  2 22  1  0
  8 23  1  0
  9 24  1  0
 11 25  1  0
 12 26  1  0
 13 27  1  0
M  ISO  7  21  14  22  14  23  14  24  14  25  14  26  14  27  11
M  END
>  <minimizedAffinity>  (1) 
-5.59052992

>  <minimizedRMSD>  (1) 
1.59253061

$$$$
