
     RDKit          3D

 26 27  0  0  0  0  0  0  0  0999 V2000
   46.2960   32.3780   45.5890 C   0  0  0  0  0  0  0  0  0  0  0  0
   47.2790   31.5590   45.0370 C   0  0  0  0  0  0  0  0  0  0  0  0
   47.7070   30.6810   45.9790 N   0  0  0  0  0  0  0  0  0  0  0  0
   46.9930   30.9610   47.0960 C   0  0  0  0  0  0  0  0  0  0  0  0
   46.1400   31.9870   46.8620 N   0  0  0  0  0  0  0  0  0  0  0  0
   44.8080   35.6700   44.9140 C   0  0  0  0  0  0  0  0  0  0  0  0
   44.2330   35.4800   43.6430 C   0  0  0  0  0  0  0  0  0  0  0  0
   44.3580   34.2440   43.0380 C   0  0  0  0  0  0  0  0  0  0  0  0
   45.0320   33.2390   43.6810 N   0  0  0  0  0  0  0  0  0  0  0  0
   45.5760   33.4560   44.9080 C   0  0  0  0  0  0  0  0  0  0  0  0
   45.4630   34.6530   45.5080 N   0  0  0  0  0  0  0  0  0  0  0  0
   43.8430   33.8220   41.7250 C   0  0  0  0  0  0  0  0  0  0  0  0
   43.5860   34.9580   40.7860 C   0  0  0  0  0  0  0  0  0  0  0  0
   45.2090   32.5820   47.7940 C   0  0  0  0  0  0  0  0  0  0  0  0
   44.2000   31.6780   48.1770 F   0  0  0  0  0  0  0  0  0  0  0  0
   44.6160   33.7300   47.2870 F   0  0  0  0  0  0  0  0  0  0  0  0
   45.8560   32.9060   48.9860 F   0  0  0  0  0  0  0  0  0  0  0  0
   47.6490   31.6152   44.0026 H   0  0  0  0  0  0  0  0  0  0  0  0
   47.0918   30.4313   48.0550 H   0  0  0  0  0  0  0  0  0  0  0  0
   44.7231   36.6433   45.4195 H   0  0  0  0  0  0  0  0  0  0  0  0
   43.6954   36.2985   43.1420 H   0  0  0  0  0  0  0  0  0  0  0  0
   44.5804   33.1494   41.2626 H   0  0  0  0  0  0  0  0  0  0  0  0
   42.8768   33.3272   41.9028 H   0  0  0  0  0  0  0  0  0  0  0  0
   43.3794   35.8713   41.3632 H   0  0  0  0  0  0  0  0  0  0  0  0
   44.4708   35.1172   40.1522 H   0  0  0  0  0  0  0  0  0  0  0  0
   42.7188   34.7208   40.1522 H   0  0  0  0  0  0  0  0  0  0  0  0
  1  5  1  0
  2  1  2  0
  2  3  1  0
  3  4  2  0
  5  4  1  0
  5 14  1  0
  6 11  2  0
  7  6  1  0
  8  7  2  0
  8  9  1  0
  9 10  2  0
 10 11  1  0
 10  1  1  0
 12  8  1  0
 13 12  1  0
 14 15  1  0
 14 17  1  0
 16 14  1  0
  2 18  1  0
  4 19  1  0
  6 20  1  0
  7 21  1  0
 12 22  1  0
 12 23  1  0
 13 24  1  0
 13 25  1  0
 13 26  1  0
M  ISO  8  18  14  19  14  20  14  21  14  22   8  23   8  24   8  25   8
M  ISO  1  26   8
M  END
>  <minimizedAffinity>  (1) 
-4.48279572

>  <minimizedRMSD>  (1) 
0.547486842

$$$$
