
     RDKit          3D

 27 28  0  0  0  0  0  0  0  0999 V2000
   44.5130   36.1090   44.5100 C   0  0  0  0  0  0  0  0  0  0  0  0
   45.2840   35.8850   43.3730 C   0  0  0  0  0  0  0  0  0  0  0  0
   46.1050   34.7790   43.3750 C   0  0  0  0  0  0  0  0  0  0  0  0
   46.1230   33.9740   44.4680 N   0  0  0  0  0  0  0  0  0  0  0  0
   45.3650   34.2160   45.5580 C   0  0  0  0  0  0  0  0  0  0  0  0
   44.5640   35.2850   45.5670 N   0  0  0  0  0  0  0  0  0  0  0  0
   46.9980   34.3740   42.2600 C   0  0  0  0  0  0  0  0  0  0  0  0
   46.2760   34.2350   40.9420 C   0  0  0  0  0  0  0  0  0  0  0  0
   47.4400   34.1500   39.9610 C   0  0  0  0  0  0  0  0  0  0  0  0
   48.5740   34.9160   40.6100 C   0  0  0  0  0  0  0  0  0  0  0  0
   48.0500   35.3890   41.9500 C   0  0  0  0  0  0  0  0  0  0  0  0
   45.3570   33.4180   46.6880 O   0  0  0  0  0  0  0  0  0  0  0  0
   46.0940   32.2370   46.8200 C   0  0  0  0  0  0  0  0  0  0  0  0
   47.4630   32.4650   46.8680 F   0  0  0  0  0  0  0  0  0  0  0  0
   45.7610   31.3270   45.8520 F   0  0  0  0  0  0  0  0  0  0  0  0
   45.7740   31.6850   48.0740 F   0  0  0  0  0  0  0  0  0  0  0  0
   43.8458   36.9829   44.5424 H   0  0  0  0  0  0  0  0  0  0  0  0
   45.2395   36.5634   42.5083 H   0  0  0  0  0  0  0  0  0  0  0  0
   47.4136   33.4231   42.6247 H   0  0  0  0  0  0  0  0  0  0  0  0
   45.6615   33.3231   40.9154 H   0  0  0  0  0  0  0  0  0  0  0  0
   45.5713   35.0526   40.7299 H   0  0  0  0  0  0  0  0  0  0  0  0
   47.1667   34.6094   38.9996 H   0  0  0  0  0  0  0  0  0  0  0  0
   47.7203   33.1074   39.7502 H   0  0  0  0  0  0  0  0  0  0  0  0
   49.4458   34.2602   40.7511 H   0  0  0  0  0  0  0  0  0  0  0  0
   48.8974   35.7610   39.9844 H   0  0  0  0  0  0  0  0  0  0  0  0
   48.8437   35.3848   42.7116 H   0  0  0  0  0  0  0  0  0  0  0  0
   47.6727   36.4221   41.9344 H   0  0  0  0  0  0  0  0  0  0  0  0
  1  6  2  0
  2  3  2  0
  2  1  1  0
  3  4  1  0
  4  5  2  0
  5  6  1  0
  5 12  1  0
  7  3  1  0
  8  7  1  0
  9 10  1  0
  9  8  1  0
 10 11  1  0
 11  7  1  0
 12 13  1  0
 13 14  1  0
 13 16  1  0
 15 13  1  0
  1 17  1  0
  2 18  1  0
  7 19  1  0
  8 20  1  0
  8 21  1  0
  9 22  1  0
  9 23  1  0
 10 24  1  0
 10 25  1  0
 11 26  1  0
 11 27  1  0
M  ISO  8  17  14  18  14  19  13  20  13  21  13  22  13  23  13  24  13
M  ISO  3  25  13  26  13  27  13
M  END
>  <minimizedAffinity>  (1) 
-5.29171228

>  <minimizedRMSD>  (1) 
1.0154742

$$$$
