
     RDKit          3D

 26 27  0  0  0  0  0  0  0  0999 V2000
   44.5950   36.1270   44.3560 C   0  0  0  0  0  0  0  0  0  0  0  0
   45.4390   35.8120   43.2980 C   0  0  0  0  0  0  0  0  0  0  0  0
   46.2180   34.6830   43.4470 C   0  0  0  0  0  0  0  0  0  0  0  0
   46.1250   33.9560   44.5850 N   0  0  0  0  0  0  0  0  0  0  0  0
   45.2900   34.2920   45.5990 C   0  0  0  0  0  0  0  0  0  0  0  0
   44.5210   35.3830   45.4840 N   0  0  0  0  0  0  0  0  0  0  0  0
   47.1120   34.2800   42.4180 N   0  0  0  0  0  0  0  0  0  0  0  0
   48.4810   33.7860   42.6300 C   0  0  0  0  0  0  0  0  0  0  0  0
   48.9920   33.4440   41.2500 C   0  0  0  0  0  0  0  0  0  0  0  0
   48.2170   34.4700   40.4130 C   0  0  0  0  0  0  0  0  0  0  0  0
   46.8300   34.2890   40.9950 C   0  0  0  0  0  0  0  0  0  0  0  0
   45.1750   33.5720   46.7680 O   0  0  0  0  0  0  0  0  0  0  0  0
   46.0410   32.5310   47.1440 C   0  0  0  0  0  0  0  0  0  0  0  0
   47.3630   32.9310   47.1720 F   0  0  0  0  0  0  0  0  0  0  0  0
   45.8250   31.4120   46.3600 F   0  0  0  0  0  0  0  0  0  0  0  0
   45.7180   32.1900   48.4660 F   0  0  0  0  0  0  0  0  0  0  0  0
   43.9589   37.0206   44.2730 H   0  0  0  0  0  0  0  0  0  0  0  0
   45.4837   36.4303   42.3893 H   0  0  0  0  0  0  0  0  0  0  0  0
   49.1058   34.5649   43.0915 H   0  0  0  0  0  0  0  0  0  0  0  0
   48.5070   32.9191   43.3066 H   0  0  0  0  0  0  0  0  0  0  0  0
   50.0793   33.5905   41.1700 H   0  0  0  0  0  0  0  0  0  0  0  0
   48.8442   32.3963   40.9492 H   0  0  0  0  0  0  0  0  0  0  0  0
   48.2448   34.2268   39.3406 H   0  0  0  0  0  0  0  0  0  0  0  0
   48.6088   35.4968   40.4590 H   0  0  0  0  0  0  0  0  0  0  0  0
   46.1677   35.1237   40.7220 H   0  0  0  0  0  0  0  0  0  0  0  0
   46.3068   33.3905   40.6359 H   0  0  0  0  0  0  0  0  0  0  0  0
  1  6  2  0
  2  3  2  0
  2  1  1  0
  3  4  1  0
  4  5  2  0
  5 12  1  0
  6  5  1  0
  7  8  1  0
  7  3  1  0
  9  8  1  0
 10 11  1  0
 10  9  1  0
 11  7  1  0
 12 13  1  0
 13 14  1  0
 13 16  1  0
 15 13  1  0
  1 17  1  0
  2 18  1  0
  8 19  1  0
  8 20  1  0
  9 21  1  0
  9 22  1  0
 10 23  1  0
 10 24  1  0
 11 25  1  0
 11 26  1  0
M  ISO  8  17  14  18  14  19  13  20  13  21  13  22  13  23  13  24  13
M  ISO  2  25  13  26  13
M  END
>  <minimizedAffinity>  (1) 
-4.89740372

>  <minimizedRMSD>  (1) 
0.89067471

$$$$
