
     RDKit          3D

 21 22  0  0  0  0  0  0  0  0999 V2000
   44.6390   36.1130   44.2610 C   0  0  0  0  0  0  0  0  0  0  0  0
   45.5000   35.7400   43.2120 C   0  0  0  0  0  0  0  0  0  0  0  0
   46.2440   34.6060   43.4290 C   0  0  0  0  0  0  0  0  0  0  0  0
   46.1300   33.9180   44.5890 N   0  0  0  0  0  0  0  0  0  0  0  0
   45.2900   34.3070   45.5780 C   0  0  0  0  0  0  0  0  0  0  0  0
   44.5330   35.4150   45.4210 N   0  0  0  0  0  0  0  0  0  0  0  0
   47.1340   34.1660   42.4160 C   0  0  0  0  0  0  0  0  0  0  0  0
   47.2600   34.5460   41.0990 C   0  0  0  0  0  0  0  0  0  0  0  0
   48.2260   33.9480   40.3250 C   0  0  0  0  0  0  0  0  0  0  0  0
   49.0330   32.9770   40.9290 C   0  0  0  0  0  0  0  0  0  0  0  0
   48.3570   32.9440   42.6790 S   0  0  0  0  0  0  0  0  0  0  0  0
   45.1420   33.6380   46.7720 O   0  0  0  0  0  0  0  0  0  0  0  0
   45.9780   32.5790   47.1910 C   0  0  0  0  0  0  0  0  0  0  0  0
   47.3130   32.9390   47.1770 F   0  0  0  0  0  0  0  0  0  0  0  0
   45.7190   31.4320   46.4760 F   0  0  0  0  0  0  0  0  0  0  0  0
   45.6940   32.3280   48.5350 F   0  0  0  0  0  0  0  0  0  0  0  0
   44.0214   37.0145   44.1350 H   0  0  0  0  0  0  0  0  0  0  0  0
   45.5724   36.3188   42.2794 H   0  0  0  0  0  0  0  0  0  0  0  0
   46.5989   35.3151   40.6731 H   0  0  0  0  0  0  0  0  0  0  0  0
   48.3600   34.2229   39.2684 H   0  0  0  0  0  0  0  0  0  0  0  0
   49.8513   32.3864   40.4913 H   0  0  0  0  0  0  0  0  0  0  0  0
  1  6  2  0
  2  3  2  0
  2  1  1  0
  3  4  1  0
  4  5  2  0
  5 12  1  0
  6  5  1  0
  7 11  1  0
  7  3  1  0
  8  7  2  0
  9 10  2  0
  9  8  1  0
 10 11  1  0
 12 13  1  0
 13 16  1  0
 14 13  1  0
 15 13  1  0
  1 17  1  0
  2 18  1  0
  8 19  1  0
  9 20  1  0
 10 21  1  0
M  ISO  5  17  14  18  14  19  14  20  14  21  14
M  END
>  <minimizedAffinity>  (1) 
-4.86715269

>  <minimizedRMSD>  (1) 
0.444313407

$$$$
