
     RDKit          3D

 20 21  0  0  0  0  0  0  0  0999 V2000
   44.6340   36.1030   44.2710 C   0  0  0  0  0  0  0  0  0  0  0  0
   45.5020   35.7410   43.2260 C   0  0  0  0  0  0  0  0  0  0  0  0
   46.2660   34.6100   43.4240 C   0  0  0  0  0  0  0  0  0  0  0  0
   46.1430   33.9150   44.5930 N   0  0  0  0  0  0  0  0  0  0  0  0
   45.3060   34.2900   45.5640 C   0  0  0  0  0  0  0  0  0  0  0  0
   44.5410   35.3930   45.4100 N   0  0  0  0  0  0  0  0  0  0  0  0
   47.1580   34.2100   42.3890 N   0  0  0  0  0  0  0  0  0  0  0  0
   48.2970   33.5100   42.4120 C   0  0  0  0  0  0  0  0  0  0  0  0
   48.7950   33.3820   41.1610 N   0  0  0  0  0  0  0  0  0  0  0  0
   47.9350   34.0220   40.3590 C   0  0  0  0  0  0  0  0  0  0  0  0
   46.9280   34.5300   41.1260 N   0  0  0  0  0  0  0  0  0  0  0  0
   45.1550   33.6160   46.7580 O   0  0  0  0  0  0  0  0  0  0  0  0
   45.9780   32.5750   47.1980 C   0  0  0  0  0  0  0  0  0  0  0  0
   47.3220   32.9340   47.1700 F   0  0  0  0  0  0  0  0  0  0  0  0
   45.7440   31.4200   46.4680 F   0  0  0  0  0  0  0  0  0  0  0  0
   45.6900   32.3290   48.5380 F   0  0  0  0  0  0  0  0  0  0  0  0
   44.0079   36.9997   44.1530 H   0  0  0  0  0  0  0  0  0  0  0  0
   45.5683   36.3292   42.2988 H   0  0  0  0  0  0  0  0  0  0  0  0
   48.7626   33.0971   43.3190 H   0  0  0  0  0  0  0  0  0  0  0  0
   48.0252   34.1213   39.2672 H   0  0  0  0  0  0  0  0  0  0  0  0
  1  6  2  0
  2  3  2  0
  2  1  1  0
  3  4  1  0
  4  5  2  0
  5 12  1  0
  6  5  1  0
  7  8  1  0
  7  3  1  0
  9  8  2  0
 10 11  2  0
 10  9  1  0
 11  7  1  0
 12 13  1  0
 13 16  1  0
 14 13  1  0
 15 13  1  0
  1 17  1  0
  2 18  1  0
  8 19  1  0
 10 20  1  0
M  ISO  4  17  14  18  14  19  14  20  14
M  END
>  <minimizedAffinity>  (1) 
-4.71190453

>  <minimizedRMSD>  (1) 
0.405364662

$$$$
