
     RDKit          3D

 23 23  0  0  0  0  0  0  0  0999 V2000
   44.6530   36.1120   44.1850 C   0  0  0  0  0  0  0  0  0  0  0  0
   45.5240   35.7320   43.1720 C   0  0  0  0  0  0  0  0  0  0  0  0
   46.2970   34.6000   43.3770 C   0  0  0  0  0  0  0  0  0  0  0  0
   46.1450   33.9380   44.5690 N   0  0  0  0  0  0  0  0  0  0  0  0
   45.2960   34.3290   45.5250 C   0  0  0  0  0  0  0  0  0  0  0  0
   44.5340   35.4330   45.3390 N   0  0  0  0  0  0  0  0  0  0  0  0
   47.2830   34.0360   42.4170 C   0  0  0  0  0  0  0  0  0  0  0  0
   48.0510   35.0990   41.6710 C   0  0  0  0  0  0  0  0  0  0  0  0
   48.2640   33.1580   43.1430 C   0  0  0  0  0  0  0  0  0  0  0  0
   45.1300   33.6760   46.7300 O   0  0  0  0  0  0  0  0  0  0  0  0
   45.9480   32.6200   47.1760 C   0  0  0  0  0  0  0  0  0  0  0  0
   47.2990   32.9520   47.1500 F   0  0  0  0  0  0  0  0  0  0  0  0
   45.6830   31.4740   46.4570 F   0  0  0  0  0  0  0  0  0  0  0  0
   45.6520   32.3910   48.5210 F   0  0  0  0  0  0  0  0  0  0  0  0
   44.0330   37.0084   44.0363 H   0  0  0  0  0  0  0  0  0  0  0  0
   45.5978   36.3098   42.2389 H   0  0  0  0  0  0  0  0  0  0  0  0
   46.7050   33.4566   41.6820 H   0  0  0  0  0  0  0  0  0  0  0  0
   48.5379   35.7730   42.3911 H   0  0  0  0  0  0  0  0  0  0  0  0
   48.8155   34.6235   41.0390 H   0  0  0  0  0  0  0  0  0  0  0  0
   47.3595   35.6755   41.0390 H   0  0  0  0  0  0  0  0  0  0  0  0
   48.1301   33.2779   44.2282 H   0  0  0  0  0  0  0  0  0  0  0  0
   48.0909   32.1076   42.8660 H   0  0  0  0  0  0  0  0  0  0  0  0
   49.2888   33.4461   42.8660 H   0  0  0  0  0  0  0  0  0  0  0  0
  1  6  2  0
  2  3  2  0
  2  1  1  0
  3  4  1  0
  4  5  2  0
  5 10  1  0
  6  5  1  0
  7  9  1  0
  7  3  1  0
  8  7  1  0
 10 11  1  0
 11 14  1  0
 12 11  1  0
 13 11  1  0
  1 15  1  0
  2 16  1  0
  7 17  1  0
  8 18  1  0
  8 19  1  0
  8 20  1  0
  9 21  1  0
  9 22  1  0
  9 23  1  0
M  ISO  8  15  14  16  14  17   8  18   8  19   8  20   8  21   8  22   8
M  ISO  1  23   8
M  END
>  <minimizedAffinity>  (1) 
-4.60290813

>  <minimizedRMSD>  (1) 
0.433017492

$$$$
