
     RDKit          3D

 20 20  0  0  0  0  0  0  0  0999 V2000
   44.6950   36.0320   44.2200 C   0  0  0  0  0  0  0  0  0  0  0  0
   45.5750   35.5970   43.2310 C   0  0  0  0  0  0  0  0  0  0  0  0
   46.3140   34.4650   43.4870 C   0  0  0  0  0  0  0  0  0  0  0  0
   46.1570   33.8260   44.6820 N   0  0  0  0  0  0  0  0  0  0  0  0
   45.2940   34.2700   45.6240 C   0  0  0  0  0  0  0  0  0  0  0  0
   44.5690   35.3760   45.3800 N   0  0  0  0  0  0  0  0  0  0  0  0
   45.0930   33.6660   46.8470 O   0  0  0  0  0  0  0  0  0  0  0  0
   45.8810   32.6170   47.3400 C   0  0  0  0  0  0  0  0  0  0  0  0
   47.2400   32.9310   47.3420 F   0  0  0  0  0  0  0  0  0  0  0  0
   45.6230   31.4380   46.6510 F   0  0  0  0  0  0  0  0  0  0  0  0
   45.5490   32.4150   48.6840 F   0  0  0  0  0  0  0  0  0  0  0  0
   47.2840   33.9320   42.4770 C   0  0  0  0  0  0  0  0  0  0  0  0
   47.9200   35.1650   41.8170 C   0  0  0  0  0  0  0  0  0  0  0  0
   44.0907   36.9341   44.0436 H   0  0  0  0  0  0  0  0  0  0  0  0
   45.6753   36.1394   42.2793 H   0  0  0  0  0  0  0  0  0  0  0  0
   48.0544   33.3215   42.9707 H   0  0  0  0  0  0  0  0  0  0  0  0
   46.7857   33.2883   41.7372 H   0  0  0  0  0  0  0  0  0  0  0  0
   48.2760   35.8552   42.5960 H   0  0  0  0  0  0  0  0  0  0  0  0
   48.7679   34.8496   41.1912 H   0  0  0  0  0  0  0  0  0  0  0  0
   47.1715   35.6730   41.1912 H   0  0  0  0  0  0  0  0  0  0  0  0
  1  6  2  0
  2  3  2  0
  2  1  1  0
  3  4  1  0
  4  5  2  0
  5  7  1  0
  6  5  1  0
  7  8  1  0
  8  9  1  0
  8 11  1  0
 10  8  1  0
 12  3  1  0
 13 12  1  0
  1 14  1  0
  2 15  1  0
 12 16  1  0
 12 17  1  0
 13 18  1  0
 13 19  1  0
 13 20  1  0
M  ISO  7  14  14  15  14  16   8  17   8  18   8  19   8  20   8
M  END
>  <minimizedAffinity>  (1) 
-4.36038256

>  <minimizedRMSD>  (1) 
0.773278952

$$$$
