
     RDKit          3D

 17 17  0  0  0  0  0  0  0  0999 V2000
   44.6730   36.0280   44.3460 C   0  0  0  0  0  0  0  0  0  0  0  0
   45.4880   35.5650   43.3220 C   0  0  0  0  0  0  0  0  0  0  0  0
   46.1860   34.3910   43.5620 C   0  0  0  0  0  0  0  0  0  0  0  0
   46.0440   33.7640   44.7530 N   0  0  0  0  0  0  0  0  0  0  0  0
   45.2430   34.2400   45.7310 C   0  0  0  0  0  0  0  0  0  0  0  0
   44.5540   35.3770   45.5280 N   0  0  0  0  0  0  0  0  0  0  0  0
   47.0950   33.7770   42.5620 C   0  0  0  0  0  0  0  0  0  0  0  0
   45.0720   33.6270   46.9620 O   0  0  0  0  0  0  0  0  0  0  0  0
   45.8710   32.5700   47.4320 C   0  0  0  0  0  0  0  0  0  0  0  0
   47.2220   32.8850   47.3840 F   0  0  0  0  0  0  0  0  0  0  0  0
   45.5660   31.3960   46.7730 F   0  0  0  0  0  0  0  0  0  0  0  0
   45.5750   32.4140   48.7940 F   0  0  0  0  0  0  0  0  0  0  0  0
   44.1036   36.9565   44.1921 H   0  0  0  0  0  0  0  0  0  0  0  0
   45.5758   36.1032   42.3667 H   0  0  0  0  0  0  0  0  0  0  0  0
   47.8985   33.2342   43.0814 H   0  0  0  0  0  0  0  0  0  0  0  0
   46.5273   33.0766   41.9318 H   0  0  0  0  0  0  0  0  0  0  0  0
   47.5328   34.5651   41.9318 H   0  0  0  0  0  0  0  0  0  0  0  0
  1  6  2  0
  2  3  2  0
  2  1  1  0
  3  4  1  0
  4  5  2  0
  5  8  1  0
  6  5  1  0
  7  3  1  0
  8  9  1  0
  9 12  1  0
 10  9  1  0
 11  9  1  0
  1 13  1  0
  2 14  1  0
  7 15  1  0
  7 16  1  0
  7 17  1  0
M  ISO  5  13  14  14  14  15   8  16   8  17   8
M  END
>  <minimizedAffinity>  (1) 
-4.11998272

>  <minimizedRMSD>  (1) 
0.0302250851

$$$$
