
     RDKit          3D

 15 15  0  0  0  0  0  0  0  0999 V2000
   44.6680   36.0270   44.3690 C   0  0  0  0  0  0  0  0  0  0  0  0
   45.4710   35.5370   43.3350 C   0  0  0  0  0  0  0  0  0  0  0  0
   46.1490   34.3610   43.5670 C   0  0  0  0  0  0  0  0  0  0  0  0
   46.0040   33.7460   44.7720 N   0  0  0  0  0  0  0  0  0  0  0  0
   45.2270   34.2370   45.7500 C   0  0  0  0  0  0  0  0  0  0  0  0
   44.5580   35.3850   45.5400 N   0  0  0  0  0  0  0  0  0  0  0  0
   47.0060   33.6780   42.6950 O   0  0  0  0  0  0  0  0  0  0  0  0
   45.0570   33.6380   46.9850 O   0  0  0  0  0  0  0  0  0  0  0  0
   45.8640   32.5810   47.4570 C   0  0  0  0  0  0  0  0  0  0  0  0
   47.2230   32.8850   47.3930 F   0  0  0  0  0  0  0  0  0  0  0  0
   45.5480   31.4100   46.8180 F   0  0  0  0  0  0  0  0  0  0  0  0
   45.6080   32.4410   48.8250 F   0  0  0  0  0  0  0  0  0  0  0  0
   44.1120   36.9639   44.2174 H   0  0  0  0  0  0  0  0  0  0  0  0
   45.5577   36.0686   42.3759 H   0  0  0  0  0  0  0  0  0  0  0  0
   47.4362   32.8343   42.9836 H   0  0  0  0  0  0  0  0  0  0  0  0
  1  6  2  0
  2  3  2  0
  2  1  1  0
  3  4  1  0
  4  5  2  0
  5  8  1  0
  6  5  1  0
  7  3  1  0
  8  9  1  0
  9 12  1  0
 10  9  1  0
 11  9  1  0
  1 13  1  0
  2 14  1  0
  7 15  1  0
M  ISO  3  13  14  14  14  15   3
M  END
>  <minimizedAffinity>  (1) 
-4.06417656

>  <minimizedRMSD>  (1) 
0.0249203537

$$$$
