
     RDKit          3D

 40 42  0  0  1  0  0  0  0  0999 V2000
   47.2840   34.4780   42.3750 N   0  0  0  0  0  0  0  0  0  0  0  0
   46.9690   34.2860   40.9520 C   0  0  0  0  0  0  0  0  0  0  0  0
   48.2480   34.6820   40.2430 C   0  0  0  0  0  0  0  0  0  0  0  0
   48.8410   35.7560   40.8690 O   0  0  0  0  0  0  0  0  0  0  0  0
   49.4270   35.4470   42.0950 C   0  0  0  0  0  0  0  0  0  0  0  0
   48.6870   34.3110   42.7270 C   0  0  2  0  0  0  0  0  0  0  0  0
   49.2710   33.0650   42.4440 N   0  0  0  0  0  0  0  0  0  0  0  0
   50.3530   32.8170   41.6930 C   0  0  0  0  0  0  0  0  0  0  0  0
   50.9400   31.6050   41.4090 C   0  0  0  0  0  0  0  0  0  0  0  0
   52.1480   31.4610   40.5550 C   0  0  0  0  0  0  0  0  0  0  0  0
   50.3650   30.4690   41.9530 C   0  0  0  0  0  0  0  0  0  0  0  0
   50.8630   29.3400   41.7220 O   0  0  0  0  0  0  0  0  0  0  0  0
   49.2740   30.6620   42.7160 N   0  0  0  0  0  0  0  0  0  0  0  0
   48.7660   31.8960   42.9410 C   0  0  0  0  0  0  0  0  0  0  0  0
   47.7660   31.8200   43.6730 O   0  0  0  0  0  0  0  0  0  0  0  0
   44.4890   36.0790   44.2380 C   0  0  0  0  0  0  0  0  0  0  0  0
   45.3900   35.8690   43.1940 C   0  0  0  0  0  0  0  0  0  0  0  0
   46.2980   34.8300   43.3330 C   0  0  0  0  0  0  0  0  0  0  0  0
   46.2330   34.1110   44.4620 N   0  0  0  0  0  0  0  0  0  0  0  0
   45.3680   34.3170   45.4570 C   0  0  0  0  0  0  0  0  0  0  0  0
   44.4950   35.3100   45.3330 N   0  0  0  0  0  0  0  0  0  0  0  0
   45.3120   33.5670   46.6150 O   0  0  0  0  0  0  0  0  0  0  0  0
   46.0290   32.3680   46.8200 C   0  0  0  0  0  0  0  0  0  0  0  0
   47.3800   32.5910   46.8310 F   0  0  0  0  0  0  0  0  0  0  0  0
   45.6680   31.3990   45.9110 F   0  0  0  0  0  0  0  0  0  0  0  0
   45.7310   31.9040   48.1080 F   0  0  0  0  0  0  0  0  0  0  0  0
   46.7150   33.2360   40.7449 H   0  0  0  0  0  0  0  0  0  0  0  0
   46.1005   34.8764   40.6248 H   0  0  0  0  0  0  0  0  0  0  0  0
   48.0146   34.9543   39.2031 H   0  0  0  0  0  0  0  0  0  0  0  0
   48.9438   33.8304   40.2684 H   0  0  0  0  0  0  0  0  0  0  0  0
   50.4769   35.1589   41.9377 H   0  0  0  0  0  0  0  0  0  0  0  0
   49.3839   36.3261   42.7549 H   0  0  0  0  0  0  0  0  0  0  0  0
   48.7544   34.3272   43.8248 H   0  0  0  0  0  0  0  0  0  0  0  0
   50.8354   33.6981   41.2446 H   0  0  0  0  0  0  0  0  0  0  0  0
   53.0377   31.3549   41.1932 H   0  0  0  0  0  0  0  0  0  0  0  0
   52.0438   30.5689   39.9199 H   0  0  0  0  0  0  0  0  0  0  0  0
   52.2565   32.3526   39.9199 H   0  0  0  0  0  0  0  0  0  0  0  0
   48.8114   29.8461   43.1417 H   0  0  0  0  0  0  0  0  0  0  0  0
   43.7565   36.8958   44.1592 H   0  0  0  0  0  0  0  0  0  0  0  0
   45.3807   36.5030   42.2952 H   0  0  0  0  0  0  0  0  0  0  0  0
  1  6  1  0
  1 18  1  0
  2  1  1  0
  3  4  1  0
  3  2  1  0
  4  5  1  0
  5  6  1  0
  7  6  1  0
  7 14  1  0
  8  7  1  0
  9  8  2  0
  9 11  1  0
 10  9  1  0
 11 13  1  0
 12 11  2  0
 13 14  1  0
 14 15  2  0
 16 21  2  0
 17 18  2  0
 17 16  1  0
 18 19  1  0
 19 20  2  0
 20 22  1  0
 21 20  1  0
 22 23  1  0
 23 24  1  0
 23 26  1  0
 25 23  1  0
  2 27  1  0
  2 28  1  0
  3 29  1  0
  3 30  1  0
  5 31  1  0
  5 32  1  0
  6 33  1  1
  8 34  1  0
 10 35  1  0
 10 36  1  0
 10 37  1  0
 13 38  1  0
 16 39  1  0
 17 40  1  0
M  ISO  8  27  13  28  13  29  13  30  13  31  13  32  13  33  13  34  14
M  ISO  6  35   8  36   8  37   8  38   9  39  14  40  14
M  END
>  <minimizedAffinity>  (1) 
-6.30838299

>  <minimizedRMSD>  (1) 
1.05835629

$$$$
