
     RDKit          3D

 41 44  0  0  1  0  0  0  0  0999 V2000
   47.0050   34.2820   42.4090 N   0  0  0  0  0  0  0  0  0  0  0  0
   46.7420   34.4390   40.9790 C   0  0  0  0  0  0  0  0  0  0  0  0
   48.1320   34.6470   40.3720 C   0  0  0  0  0  0  0  0  0  0  0  0
   49.0120   35.2590   41.2380 O   0  0  0  0  0  0  0  0  0  0  0  0
   49.3730   34.5190   42.3290 C   0  0  0  0  0  0  0  0  0  0  0  0
   48.2480   33.5930   42.6970 C   0  0  2  0  0  0  0  0  0  0  0  0
   48.3710   32.2800   42.1460 N   0  0  0  0  0  0  0  0  0  0  0  0
   47.4290   31.3170   42.0610 C   0  0  0  0  0  0  0  0  0  0  0  0
   47.9410   30.2170   41.4720 N   0  0  0  0  0  0  0  0  0  0  0  0
   49.2320   30.4950   41.1800 C   0  0  0  0  0  0  0  0  0  0  0  0
   50.1590   29.6650   40.5680 C   0  0  0  0  0  0  0  0  0  0  0  0
   49.8450   28.4970   40.2090 O   0  0  0  0  0  0  0  0  0  0  0  0
   51.3910   30.1690   40.3840 N   0  0  0  0  0  0  0  0  0  0  0  0
   51.6820   31.4200   40.7840 C   0  0  0  0  0  0  0  0  0  0  0  0
   53.0130   31.8590   40.5430 N   0  0  0  0  0  0  0  0  0  0  0  0
   50.7660   32.2100   41.3760 N   0  0  0  0  0  0  0  0  0  0  0  0
   49.5020   31.7910   41.6040 C   0  0  0  0  0  0  0  0  0  0  0  0
   44.5710   36.1910   44.4630 C   0  0  0  0  0  0  0  0  0  0  0  0
   45.3630   35.9010   43.3640 C   0  0  0  0  0  0  0  0  0  0  0  0
   46.1250   34.7590   43.4290 C   0  0  0  0  0  0  0  0  0  0  0  0
   46.0590   33.9940   44.5470 N   0  0  0  0  0  0  0  0  0  0  0  0
   45.2770   34.3020   45.6050 C   0  0  0  0  0  0  0  0  0  0  0  0
   44.5340   35.4030   45.5580 N   0  0  0  0  0  0  0  0  0  0  0  0
   45.2000   33.5400   46.7410 O   0  0  0  0  0  0  0  0  0  0  0  0
   46.0850   32.4950   47.0710 C   0  0  0  0  0  0  0  0  0  0  0  0
   47.3870   32.9320   47.1740 F   0  0  0  0  0  0  0  0  0  0  0  0
   45.9470   31.4400   46.1850 F   0  0  0  0  0  0  0  0  0  0  0  0
   45.7540   32.0370   48.3580 F   0  0  0  0  0  0  0  0  0  0  0  0
   46.2655   33.5372   40.5670 H   0  0  0  0  0  0  0  0  0  0  0  0
   46.0546   35.2699   40.7619 H   0  0  0  0  0  0  0  0  0  0  0  0
   48.5421   33.6658   40.0910 H   0  0  0  0  0  0  0  0  0  0  0  0
   48.0148   35.3081   39.5006 H   0  0  0  0  0  0  0  0  0  0  0  0
   50.2711   33.9297   42.0922 H   0  0  0  0  0  0  0  0  0  0  0  0
   49.5886   35.1899   43.1737 H   0  0  0  0  0  0  0  0  0  0  0  0
   48.2773   33.3688   43.7735 H   0  0  0  0  0  0  0  0  0  0  0  0
   46.3939   31.4151   42.4200 H   0  0  0  0  0  0  0  0  0  0  0  0
   52.1172   29.5938   39.9338 H   0  0  0  0  0  0  0  0  0  0  0  0
   53.3017   32.8067   40.8248 H   0  0  0  0  0  0  0  0  0  0  0  0
   53.6883   31.2293   40.0866 H   0  0  0  0  0  0  0  0  0  0  0  0
   43.9487   37.0979   44.4424 H   0  0  0  0  0  0  0  0  0  0  0  0
   45.3812   36.5549   42.4797 H   0  0  0  0  0  0  0  0  0  0  0  0
  1  6  1  0
  1 20  1  0
  2  1  1  0
  3  2  1  0
  3  4  1  0
  4  5  1  0
  5  6  1  0
  7  6  1  0
  8  7  1  0
  9  8  2  0
 10  9  1  0
 10 17  2  0
 11 10  1  0
 12 11  2  0
 13 11  1  0
 13 14  1  0
 14 16  2  0
 15 14  1  0
 16 17  1  0
 17  7  1  0
 18 23  2  0
 19 20  2  0
 19 18  1  0
 20 21  1  0
 21 22  2  0
 22 24  1  0
 23 22  1  0
 24 25  1  0
 25 26  1  0
 25 28  1  0
 27 25  1  0
  2 29  1  0
  2 30  1  0
  3 31  1  0
  3 32  1  0
  5 33  1  0
  5 34  1  0
  6 35  1  1
  8 36  1  0
 13 37  1  0
 15 38  1  0
 15 39  1  0
 18 40  1  0
 19 41  1  0
M  ISO  8  29  13  30  13  31  13  32  13  33  13  34  13  35  13  36  14
M  ISO  3  37   9  40  14  41  14
M  END
>  <minimizedAffinity>  (1) 
-6.44480419

>  <minimizedRMSD>  (1) 
1.70545447

$$$$
