
     RDKit          3D

 33 35  0  0  1  0  0  0  0  0999 V2000
   47.2580   34.4300   42.3780 N   0  0  0  0  0  0  0  0  0  0  0  0
   46.9330   34.0340   41.0180 C   0  0  0  0  0  0  0  0  0  0  0  0
   48.1220   34.5390   40.1940 C   0  0  0  0  0  0  0  0  0  0  0  0
   48.6840   35.6870   40.7200 O   0  0  0  0  0  0  0  0  0  0  0  0
   49.3410   35.4830   41.9070 C   0  0  0  0  0  0  0  0  0  0  0  0
   48.6560   34.3940   42.6840 C   0  0  2  0  0  0  0  0  0  0  0  0
   44.5410   36.1380   44.2600 C   0  0  0  0  0  0  0  0  0  0  0  0
   45.4280   35.9040   43.2180 C   0  0  0  0  0  0  0  0  0  0  0  0
   46.2840   34.8220   43.3440 C   0  0  0  0  0  0  0  0  0  0  0  0
   46.1970   34.0760   44.4640 N   0  0  0  0  0  0  0  0  0  0  0  0
   45.3360   34.3140   45.4580 C   0  0  0  0  0  0  0  0  0  0  0  0
   44.5010   35.3600   45.3490 N   0  0  0  0  0  0  0  0  0  0  0  0
   45.2410   33.5570   46.6060 O   0  0  0  0  0  0  0  0  0  0  0  0
   46.1110   32.4980   46.9300 C   0  0  0  0  0  0  0  0  0  0  0  0
   47.4100   32.9330   47.1150 F   0  0  0  0  0  0  0  0  0  0  0  0
   46.0160   31.4910   45.9990 F   0  0  0  0  0  0  0  0  0  0  0  0
   45.7200   31.9990   48.1800 F   0  0  0  0  0  0  0  0  0  0  0  0
   49.2840   33.0600   42.4700 C   0  0  0  0  0  0  0  0  0  0  0  0
   50.5980   33.1790   42.2300 C   0  0  0  0  0  0  0  0  0  0  0  0
   51.1280   31.4000   42.0030 S   0  0  0  0  0  0  0  0  0  0  0  0
   49.3740   30.8350   42.2920 C   0  0  0  0  0  0  0  0  0  0  0  0
   48.8670   31.8160   42.4580 N   0  0  0  0  0  0  0  0  0  0  0  0
   46.8390   32.9408   40.9404 H   0  0  0  0  0  0  0  0  0  0  0  0
   45.9727   34.4456   40.6740 H   0  0  0  0  0  0  0  0  0  0  0  0
   47.7768   34.7523   39.1716 H   0  0  0  0  0  0  0  0  0  0  0  0
   48.8931   33.7547   40.2066 H   0  0  0  0  0  0  0  0  0  0  0  0
   50.3810   35.1883   41.7034 H   0  0  0  0  0  0  0  0  0  0  0  0
   49.3291   36.4128   42.4947 H   0  0  0  0  0  0  0  0  0  0  0  0
   48.7784   34.5736   43.7623 H   0  0  0  0  0  0  0  0  0  0  0  0
   43.8488   36.9899   44.1887 H   0  0  0  0  0  0  0  0  0  0  0  0
   45.4502   36.5512   42.3288 H   0  0  0  0  0  0  0  0  0  0  0  0
   51.2094   34.0920   42.1794 H   0  0  0  0  0  0  0  0  0  0  0  0
   48.9553   29.8178   42.2974 H   0  0  0  0  0  0  0  0  0  0  0  0
  1  6  1  0
  1  9  1  0
  2  1  1  0
  3  4  1  0
  3  2  1  0
  4  5  1  0
  5  6  1  0
  7 12  2  0
  8  9  2  0
  8  7  1  0
  9 10  1  0
 10 11  2  0
 11 13  1  0
 12 11  1  0
 13 14  1  0
 14 15  1  0
 14 17  1  0
 16 14  1  0
 18  6  1  0
 19 18  2  0
 20 19  1  0
 20 21  1  0
 21 22  2  0
 22 18  1  0
  2 23  1  0
  2 24  1  0
  3 25  1  0
  3 26  1  0
  5 27  1  0
  5 28  1  0
  6 29  1  1
  7 30  1  0
  8 31  1  0
 19 32  1  0
 21 33  1  0
M  ISO  8  23  13  24  13  25  13  26  13  27  13  28  13  29  13  30  14
M  ISO  3  31  14  32  14  33  14
M  END
>  <minimizedAffinity>  (1) 
-5.86514187

>  <minimizedRMSD>  (1) 
0.722609341

$$$$
