
     RDKit          3D

 35 37  0  0  1  0  0  0  0  0999 V2000
   47.2400   34.4280   42.3860 N   0  0  0  0  0  0  0  0  0  0  0  0
   46.9120   34.0550   41.0190 C   0  0  0  0  0  0  0  0  0  0  0  0
   48.1090   34.5270   40.2030 C   0  0  0  0  0  0  0  0  0  0  0  0
   48.7050   35.6600   40.7490 O   0  0  0  0  0  0  0  0  0  0  0  0
   49.3420   35.4510   41.9470 C   0  0  0  0  0  0  0  0  0  0  0  0
   48.6440   34.3460   42.6830 C   0  0  2  0  0  0  0  0  0  0  0  0
   44.5340   36.1440   44.2840 C   0  0  0  0  0  0  0  0  0  0  0  0
   45.4140   35.9090   43.2390 C   0  0  0  0  0  0  0  0  0  0  0  0
   46.2600   34.8420   43.3450 C   0  0  0  0  0  0  0  0  0  0  0  0
   46.1730   34.0890   44.4700 N   0  0  0  0  0  0  0  0  0  0  0  0
   45.3230   34.3190   45.4730 C   0  0  0  0  0  0  0  0  0  0  0  0
   44.4980   35.3610   45.3720 N   0  0  0  0  0  0  0  0  0  0  0  0
   45.2300   33.5610   46.6190 O   0  0  0  0  0  0  0  0  0  0  0  0
   46.1150   32.5230   46.9560 C   0  0  0  0  0  0  0  0  0  0  0  0
   47.4080   32.9440   47.1180 F   0  0  0  0  0  0  0  0  0  0  0  0
   46.0160   31.4950   46.0320 F   0  0  0  0  0  0  0  0  0  0  0  0
   45.7410   32.0260   48.2130 F   0  0  0  0  0  0  0  0  0  0  0  0
   49.2400   33.0140   42.5100 C   0  0  0  0  0  0  0  0  0  0  0  0
   50.5470   32.9750   42.0700 C   0  0  0  0  0  0  0  0  0  0  0  0
   51.2180   31.7870   41.8630 C   0  0  0  0  0  0  0  0  0  0  0  0
   50.6110   30.5900   42.0870 N   0  0  0  0  0  0  0  0  0  0  0  0
   49.3240   30.6490   42.5190 C   0  0  0  0  0  0  0  0  0  0  0  0
   48.6760   31.8110   42.7190 N   0  0  0  0  0  0  0  0  0  0  0  0
   46.7860   32.9657   40.9318 H   0  0  0  0  0  0  0  0  0  0  0  0
   45.9670   34.5019   40.6764 H   0  0  0  0  0  0  0  0  0  0  0  0
   47.7716   34.7613   39.1826 H   0  0  0  0  0  0  0  0  0  0  0  0
   48.8563   33.7198   40.2028 H   0  0  0  0  0  0  0  0  0  0  0  0
   50.3892   35.1686   41.7639 H   0  0  0  0  0  0  0  0  0  0  0  0
   49.3172   36.3722   42.5476 H   0  0  0  0  0  0  0  0  0  0  0  0
   48.7843   34.4955   43.7637 H   0  0  0  0  0  0  0  0  0  0  0  0
   43.8444   36.9986   44.2188 H   0  0  0  0  0  0  0  0  0  0  0  0
   45.4304   36.5608   42.3531 H   0  0  0  0  0  0  0  0  0  0  0  0
   51.0717   33.9225   41.8778 H   0  0  0  0  0  0  0  0  0  0  0  0
   52.2601   31.8081   41.5113 H   0  0  0  0  0  0  0  0  0  0  0  0
   48.7896   29.7074   42.7133 H   0  0  0  0  0  0  0  0  0  0  0  0
  1  6  1  0
  1  9  1  0
  2  1  1  0
  3  4  1  0
  3  2  1  0
  4  5  1  0
  5  6  1  0
  7 12  2  0
  8  9  2  0
  8  7  1  0
  9 10  1  0
 10 11  2  0
 11 13  1  0
 12 11  1  0
 13 14  1  0
 14 15  1  0
 14 17  1  0
 16 14  1  0
 18  6  1  0
 18 23  1  0
 19 18  2  0
 20 19  1  0
 20 21  2  0
 21 22  1  0
 22 23  2  0
  2 24  1  0
  2 25  1  0
  3 26  1  0
  3 27  1  0
  5 28  1  0
  5 29  1  0
  6 30  1  1
  7 31  1  0
  8 32  1  0
 19 33  1  0
 20 34  1  0
 22 35  1  0
M  ISO  8  24  13  25  13  26  13  27  13  28  13  29  13  30  13  31  14
M  ISO  4  32  14  33  14  34  14  35  14
M  END
>  <minimizedAffinity>  (1) 
-6.00045681

>  <minimizedRMSD>  (1) 
0.409623265

$$$$
