
     RDKit          3D

 32 34  0  0  1  0  0  0  0  0999 V2000
   47.2960   34.4380   42.3850 N   0  0  0  0  0  0  0  0  0  0  0  0
   46.9950   33.9470   41.0490 C   0  0  0  0  0  0  0  0  0  0  0  0
   48.1430   34.4760   40.1930 C   0  0  0  0  0  0  0  0  0  0  0  0
   48.6620   35.6680   40.6620 O   0  0  0  0  0  0  0  0  0  0  0  0
   49.3240   35.5690   41.8610 C   0  0  0  0  0  0  0  0  0  0  0  0
   48.7050   34.4830   42.6770 C   0  0  2  0  0  0  0  0  0  0  0  0
   44.5220   36.1190   44.2150 C   0  0  0  0  0  0  0  0  0  0  0  0
   45.4260   35.8870   43.1870 C   0  0  0  0  0  0  0  0  0  0  0  0
   46.2940   34.8420   43.3240 C   0  0  0  0  0  0  0  0  0  0  0  0
   46.2220   34.0890   44.4590 N   0  0  0  0  0  0  0  0  0  0  0  0
   45.3410   34.3270   45.4440 C   0  0  0  0  0  0  0  0  0  0  0  0
   44.4880   35.3520   45.3110 N   0  0  0  0  0  0  0  0  0  0  0  0
   45.2480   33.5820   46.6000 O   0  0  0  0  0  0  0  0  0  0  0  0
   46.0730   32.4920   46.9080 C   0  0  0  0  0  0  0  0  0  0  0  0
   47.3920   32.8680   47.0850 F   0  0  0  0  0  0  0  0  0  0  0  0
   45.9460   31.4960   45.9640 F   0  0  0  0  0  0  0  0  0  0  0  0
   45.6680   31.9830   48.1490 F   0  0  0  0  0  0  0  0  0  0  0  0
   49.3950   33.1850   42.5170 C   0  0  0  0  0  0  0  0  0  0  0  0
   50.7120   33.2210   42.1890 N   0  0  0  0  0  0  0  0  0  0  0  0
   51.1570   32.0110   42.0890 O   0  0  0  0  0  0  0  0  0  0  0  0
   50.1830   31.1730   42.3400 C   0  0  0  0  0  0  0  0  0  0  0  0
   49.0670   31.8720   42.6120 N   0  0  0  0  0  0  0  0  0  0  0  0
   46.9701   32.8474   41.0331 H   0  0  0  0  0  0  0  0  0  0  0  0
   46.0103   34.2790   40.6881 H   0  0  0  0  0  0  0  0  0  0  0  0
   47.7730   34.6336   39.1692 H   0  0  0  0  0  0  0  0  0  0  0  0
   48.9502   33.7295   40.2278 H   0  0  0  0  0  0  0  0  0  0  0  0
   50.3828   35.3334   41.6780 H   0  0  0  0  0  0  0  0  0  0  0  0
   49.2518   36.5239   42.4022 H   0  0  0  0  0  0  0  0  0  0  0  0
   48.8265   34.7094   43.7466 H   0  0  0  0  0  0  0  0  0  0  0  0
   43.8143   36.9564   44.1260 H   0  0  0  0  0  0  0  0  0  0  0  0
   45.4424   36.5247   42.2909 H   0  0  0  0  0  0  0  0  0  0  0  0
   50.2643   30.0761   42.3300 H   0  0  0  0  0  0  0  0  0  0  0  0
  1  6  1  0
  1  9  1  0
  2  1  1  0
  3  4  1  0
  3  2  1  0
  4  5  1  0
  5  6  1  0
  7 12  2  0
  8  9  2  0
  8  7  1  0
  9 10  1  0
 10 11  2  0
 11 13  1  0
 12 11  1  0
 13 14  1  0
 14 15  1  0
 14 17  1  0
 16 14  1  0
 18 22  1  0
 18  6  1  0
 19 18  2  0
 20 19  1  0
 20 21  1  0
 21 22  2  0
  2 23  1  0
  2 24  1  0
  3 25  1  0
  3 26  1  0
  5 27  1  0
  5 28  1  0
  6 29  1  1
  7 30  1  0
  8 31  1  0
 21 32  1  0
M  ISO  8  23  13  24  13  25  13  26  13  27  13  28  13  29  13  30  14
M  ISO  2  31  14  32  14
M  END
>  <minimizedAffinity>  (1) 
-5.87026262

>  <minimizedRMSD>  (1) 
0.48849684

$$$$
