
     RDKit          3D

 36 37  0  0  1  0  0  0  0  0999 V2000
   46.6120   33.5300   42.0630 N   0  0  0  0  0  0  0  0  0  0  0  0
   45.9630   32.3660   41.4320 C   0  0  0  0  0  0  0  0  0  0  0  0
   46.5330   32.3510   40.0200 C   0  0  0  0  0  0  0  0  0  0  0  0
   46.7570   33.6390   39.5510 O   0  0  0  0  0  0  0  0  0  0  0  0
   47.8200   34.2560   40.1590 C   0  0  0  0  0  0  0  0  0  0  0  0
   47.9440   33.7600   41.5880 C   0  0  1  0  0  0  0  0  0  0  0  0
   44.8330   36.1860   43.9690 C   0  0  0  0  0  0  0  0  0  0  0  0
   45.4380   35.5900   42.8800 C   0  0  0  0  0  0  0  0  0  0  0  0
   45.9500   34.3280   43.0450 C   0  0  0  0  0  0  0  0  0  0  0  0
   45.8240   33.7530   44.2670 N   0  0  0  0  0  0  0  0  0  0  0  0
   45.2380   34.3310   45.3180 C   0  0  0  0  0  0  0  0  0  0  0  0
   44.7390   35.5620   45.1600 N   0  0  0  0  0  0  0  0  0  0  0  0
   45.1050   33.7610   46.5580 O   0  0  0  0  0  0  0  0  0  0  0  0
   45.9230   32.7440   47.0570 C   0  0  0  0  0  0  0  0  0  0  0  0
   47.2700   33.0500   46.9550 F   0  0  0  0  0  0  0  0  0  0  0  0
   45.6160   31.5310   46.4540 F   0  0  0  0  0  0  0  0  0  0  0  0
   45.6890   32.6360   48.4340 F   0  0  0  0  0  0  0  0  0  0  0  0
   48.7280   34.8110   42.3080 C   0  0  0  0  0  0  0  0  0  0  0  0
   49.0130   36.0380   41.5050 C   0  0  0  0  0  0  0  0  0  0  0  0
   50.0700   34.1740   42.6540 C   0  0  0  0  0  0  0  0  0  0  0  0
   46.2168   31.4387   41.9666 H   0  0  0  0  0  0  0  0  0  0  0  0
   44.8651   32.4326   41.4460 H   0  0  0  0  0  0  0  0  0  0  0  0
   47.4855   31.8008   40.0242 H   0  0  0  0  0  0  0  0  0  0  0  0
   45.8036   31.8628   39.3570 H   0  0  0  0  0  0  0  0  0  0  0  0
   48.7433   34.0224   39.6085 H   0  0  0  0  0  0  0  0  0  0  0  0
   47.6596   35.3442   40.1615 H   0  0  0  0  0  0  0  0  0  0  0  0
   48.4776   32.8085   41.7289 H   0  0  0  0  0  0  0  0  0  0  0  0
   44.4162   37.1983   43.8614 H   0  0  0  0  0  0  0  0  0  0  0  0
   45.5070   36.1096   41.9129 H   0  0  0  0  0  0  0  0  0  0  0  0
   48.1314   35.1373   43.1726 H   0  0  0  0  0  0  0  0  0  0  0  0
   49.2091   36.8822   42.1824 H   0  0  0  0  0  0  0  0  0  0  0  0
   49.8947   35.8645   40.8706 H   0  0  0  0  0  0  0  0  0  0  0  0
   48.1450   36.2709   40.8706 H   0  0  0  0  0  0  0  0  0  0  0  0
   50.1801   34.1218   43.7472 H   0  0  0  0  0  0  0  0  0  0  0  0
   50.1137   33.1590   42.2321 H   0  0  0  0  0  0  0  0  0  0  0  0
   50.8840   34.7818   42.2321 H   0  0  0  0  0  0  0  0  0  0  0  0
  1  9  1  0
  2  1  1  0
  3  2  1  0
  4  3  1  0
  4  5  1  0
  5  6  1  0
  6  1  1  0
  6 18  1  0
  7 12  2  0
  8  9  2  0
  8  7  1  0
  9 10  1  0
 10 11  2  0
 11 13  1  0
 12 11  1  0
 13 14  1  0
 14 17  1  0
 15 14  1  0
 16 14  1  0
 18 20  1  0
 19 18  1  0
  2 21  1  0
  2 22  1  0
  3 23  1  0
  3 24  1  0
  5 25  1  0
  5 26  1  0
  6 27  1  6
  7 28  1  0
  8 29  1  0
 18 30  1  0
 19 31  1  0
 19 32  1  0
 19 33  1  0
 20 34  1  0
 20 35  1  0
 20 36  1  0
M  ISO  8  21  13  22  13  23  13  24  13  25  13  26  13  27  13  28  14
M  ISO  8  29  14  30   8  31   8  32   8  33   8  34   8  35   8  36   8
M  END
>  <minimizedAffinity>  (1) 
-5.68612432

>  <minimizedRMSD>  (1) 
1.72498095

$$$$
