
     RDKit          3D

 33 35  0  0  1  0  0  0  0  0999 V2000
   47.3130   34.4840   42.3440 N   0  0  0  0  0  0  0  0  0  0  0  0
   47.0240   34.0360   40.9720 C   0  0  0  0  0  0  0  0  0  0  0  0
   48.2060   34.5500   40.1550 C   0  0  0  0  0  0  0  0  0  0  0  0
   48.7080   35.7400   40.6510 O   0  0  0  0  0  0  0  0  0  0  0  0
   49.3640   35.5820   41.8480 C   0  0  0  0  0  0  0  0  0  0  0  0
   48.7170   34.4960   42.6460 C   0  0  2  0  0  0  0  0  0  0  0  0
   44.5150   36.1050   44.1640 C   0  0  0  0  0  0  0  0  0  0  0  0
   45.4220   35.8980   43.1300 C   0  0  0  0  0  0  0  0  0  0  0  0
   46.3020   34.8680   43.2820 C   0  0  0  0  0  0  0  0  0  0  0  0
   46.2490   34.1150   44.4090 N   0  0  0  0  0  0  0  0  0  0  0  0
   45.3690   34.3310   45.3930 C   0  0  0  0  0  0  0  0  0  0  0  0
   44.5030   35.3280   45.2640 N   0  0  0  0  0  0  0  0  0  0  0  0
   45.2970   33.5760   46.5490 O   0  0  0  0  0  0  0  0  0  0  0  0
   46.0340   32.4010   46.7800 C   0  0  0  0  0  0  0  0  0  0  0  0
   47.3710   32.6660   46.9670 F   0  0  0  0  0  0  0  0  0  0  0  0
   45.8170   31.4680   45.7770 F   0  0  0  0  0  0  0  0  0  0  0  0
   45.6040   31.8660   48.0060 F   0  0  0  0  0  0  0  0  0  0  0  0
   49.3410   33.2170   42.5830 N   0  0  0  0  0  0  0  0  0  0  0  0
   50.6380   33.0670   42.2530 C   0  0  0  0  0  0  0  0  0  0  0  0
   50.9500   31.7590   42.2740 N   0  0  0  0  0  0  0  0  0  0  0  0
   49.8240   31.1200   42.6210 C   0  0  0  0  0  0  0  0  0  0  0  0
   48.8500   32.0080   42.8070 N   0  0  0  0  0  0  0  0  0  0  0  0
   46.9641   32.9387   40.9241 H   0  0  0  0  0  0  0  0  0  0  0  0
   46.0592   34.4112   40.6001 H   0  0  0  0  0  0  0  0  0  0  0  0
   47.8765   34.7098   39.1177 H   0  0  0  0  0  0  0  0  0  0  0  0
   49.0065   33.7975   40.2102 H   0  0  0  0  0  0  0  0  0  0  0  0
   50.4140   35.3166   41.6557 H   0  0  0  0  0  0  0  0  0  0  0  0
   49.3150   36.5241   42.4138 H   0  0  0  0  0  0  0  0  0  0  0  0
   48.8610   34.7385   43.7092 H   0  0  0  0  0  0  0  0  0  0  0  0
   43.7875   36.9259   44.0810 H   0  0  0  0  0  0  0  0  0  0  0  0
   45.4289   36.5346   42.2330 H   0  0  0  0  0  0  0  0  0  0  0  0
   51.3317   33.8841   42.0057 H   0  0  0  0  0  0  0  0  0  0  0  0
   49.7208   30.0307   42.7345 H   0  0  0  0  0  0  0  0  0  0  0  0
  1  6  1  0
  1  9  1  0
  2  1  1  0
  3  4  1  0
  3  2  1  0
  4  5  1  0
  5  6  1  0
  7 12  2  0
  8  9  2  0
  8  7  1  0
  9 10  1  0
 10 11  2  0
 11 13  1  0
 12 11  1  0
 13 14  1  0
 14 15  1  0
 14 17  1  0
 16 14  1  0
 18  6  1  0
 18 22  1  0
 19 20  2  0
 19 18  1  0
 20 21  1  0
 21 22  2  0
  2 23  1  0
  2 24  1  0
  3 25  1  0
  3 26  1  0
  5 27  1  0
  5 28  1  0
  6 29  1  1
  7 30  1  0
  8 31  1  0
 19 32  1  0
 21 33  1  0
M  ISO  8  23  13  24  13  25  13  26  13  27  13  28  13  29  13  30  14
M  ISO  3  31  14  32  14  33  14
M  END
>  <minimizedAffinity>  (1) 
-5.86228418

>  <minimizedRMSD>  (1) 
0.506131113

$$$$
