
     RDKit          3D

 34 35  0  0  1  0  0  0  0  0999 V2000
   46.7220   34.0250   42.3580 N   0  0  0  0  0  0  0  0  0  0  0  0
   46.5020   34.3290   40.9310 C   0  0  0  0  0  0  0  0  0  0  0  0
   47.8870   34.2390   40.3160 C   0  0  0  0  0  0  0  0  0  0  0  0
   48.8670   34.6860   41.1990 O   0  0  0  0  0  0  0  0  0  0  0  0
   49.0840   33.8040   42.2390 C   0  0  0  0  0  0  0  0  0  0  0  0
   47.7840   33.0820   42.5520 C   0  0  1  0  0  0  0  0  0  0  0  0
   44.5980   36.2270   44.4770 C   0  0  0  0  0  0  0  0  0  0  0  0
   45.2980   35.8250   43.3480 C   0  0  0  0  0  0  0  0  0  0  0  0
   45.9520   34.6160   43.3970 C   0  0  0  0  0  0  0  0  0  0  0  0
   45.8690   33.9030   44.5370 N   0  0  0  0  0  0  0  0  0  0  0  0
   45.1960   34.2870   45.6260 C   0  0  0  0  0  0  0  0  0  0  0  0
   44.5560   35.4660   45.5850 N   0  0  0  0  0  0  0  0  0  0  0  0
   45.1050   33.5680   46.7970 O   0  0  0  0  0  0  0  0  0  0  0  0
   45.9950   32.5620   47.1780 C   0  0  0  0  0  0  0  0  0  0  0  0
   47.3050   32.9340   47.0540 F   0  0  0  0  0  0  0  0  0  0  0  0
   45.7120   31.3870   46.4850 F   0  0  0  0  0  0  0  0  0  0  0  0
   45.8270   32.3190   48.5480 F   0  0  0  0  0  0  0  0  0  0  0  0
   47.8620   32.5050   43.8700 N   0  0  0  0  0  0  0  0  0  0  0  0
   47.7660   31.0640   43.8210 C   0  0  0  0  0  0  0  0  0  0  0  0
   47.2140   30.4280   42.8240 N   0  0  0  0  0  0  0  0  0  0  0  0
   48.2770   30.2250   44.8770 N   0  0  0  0  0  0  0  0  0  0  0  0
   47.1360   29.3960   42.7710 H   0  0  0  0  0  0  0  0  0  0  0  0
   45.8236   33.5930   40.4749 H   0  0  0  0  0  0  0  0  0  0  0  0
   46.0340   35.3123   40.7759 H   0  0  0  0  0  0  0  0  0  0  0  0
   48.0939   33.1912   40.0528 H   0  0  0  0  0  0  0  0  0  0  0  0
   47.9100   34.8790   39.4216 H   0  0  0  0  0  0  0  0  0  0  0  0
   49.8520   33.0721   41.9482 H   0  0  0  0  0  0  0  0  0  0  0  0
   49.4283   34.3533   43.1276 H   0  0  0  0  0  0  0  0  0  0  0  0
   47.5877   32.2297   41.8849 H   0  0  0  0  0  0  0  0  0  0  0  0
   44.0657   37.1895   44.4653 H   0  0  0  0  0  0  0  0  0  0  0  0
   45.3287   36.4520   42.4447 H   0  0  0  0  0  0  0  0  0  0  0  0
   47.9722   33.0503   44.7368 H   0  0  0  0  0  0  0  0  0  0  0  0
   48.1911   29.2009   44.8083 H   0  0  0  0  0  0  0  0  0  0  0  0
   48.7279   30.6499   45.6998 H   0  0  0  0  0  0  0  0  0  0  0  0
  1  6  1  0
  1  9  1  0
  2  1  1  0
  3  2  1  0
  3  4  1  0
  4  5  1  0
  5  6  1  0
  6 18  1  0
  7 12  2  0
  8  9  2  0
  8  7  1  0
  9 10  1  0
 10 11  2  0
 11 13  1  0
 12 11  1  0
 13 14  1  0
 14 17  1  0
 15 14  1  0
 16 14  1  0
 19 18  1  0
 19 21  1  0
 20 19  2  0
 22 20  1  0
  2 23  1  0
  2 24  1  0
  3 25  1  0
  3 26  1  0
  5 27  1  0
  5 28  1  0
  6 29  1  6
  7 30  1  0
  8 31  1  0
 18 32  1  0
 21 33  1  0
 21 34  1  0
M  ISO  8  23  13  24  13  25  13  26  13  27  13  28  13  29  13  30  14
M  ISO  1  31  14
M  END
>  <minimizedAffinity>  (1) 
-5.08570814

>  <minimizedRMSD>  (1) 
1.00555134

$$$$
