
     RDKit          3D

 39 41  0  0  1  0  0  0  0  0999 V2000
   47.2220   34.4560   42.3740 N   0  0  0  0  0  0  0  0  0  0  0  0
   46.9060   34.2500   40.9670 C   0  0  0  0  0  0  0  0  0  0  0  0
   48.1970   34.6770   40.2590 C   0  0  0  0  0  0  0  0  0  0  0  0
   48.8530   35.6970   40.9220 O   0  0  0  0  0  0  0  0  0  0  0  0
   49.4330   35.2990   42.1200 C   0  0  0  0  0  0  0  0  0  0  0  0
   48.6400   34.2280   42.7390 C   0  0  2  0  0  0  0  0  0  0  0  0
   44.5190   36.1210   44.2950 C   0  0  0  0  0  0  0  0  0  0  0  0
   45.3850   35.9050   43.2420 C   0  0  0  0  0  0  0  0  0  0  0  0
   46.2370   34.8550   43.3490 C   0  0  0  0  0  0  0  0  0  0  0  0
   46.2020   34.0750   44.4680 N   0  0  0  0  0  0  0  0  0  0  0  0
   45.3440   34.3090   45.4830 C   0  0  0  0  0  0  0  0  0  0  0  0
   44.4980   35.3420   45.3880 N   0  0  0  0  0  0  0  0  0  0  0  0
   45.2670   33.5540   46.6320 O   0  0  0  0  0  0  0  0  0  0  0  0
   46.0390   32.4030   46.8720 C   0  0  0  0  0  0  0  0  0  0  0  0
   47.3830   32.6820   46.9700 F   0  0  0  0  0  0  0  0  0  0  0  0
   45.8030   31.4360   45.9320 F   0  0  0  0  0  0  0  0  0  0  0  0
   45.6900   31.9180   48.1410 F   0  0  0  0  0  0  0  0  0  0  0  0
   49.0620   32.8540   42.4620 C   0  0  0  0  0  0  0  0  0  0  0  0
   48.3020   31.8570   42.5050 O   0  0  0  0  0  0  0  0  0  0  0  0
   50.3660   32.5510   42.1210 O   0  0  0  0  0  0  0  0  0  0  0  0
   50.7640   32.0440   40.9030 C   0  0  0  0  0  0  0  0  0  0  0  0
   49.8780   31.7860   39.8580 C   0  0  0  0  0  0  0  0  0  0  0  0
   50.3330   31.2780   38.6570 C   0  0  0  0  0  0  0  0  0  0  0  0
   51.6970   31.0240   38.4980 C   0  0  0  0  0  0  0  0  0  0  0  0
   52.5690   31.2920   39.5610 C   0  0  0  0  0  0  0  0  0  0  0  0
   52.0720   31.7870   40.7120 N   0  0  0  0  0  0  0  0  0  0  0  0
   46.6742   33.1940   40.7641 H   0  0  0  0  0  0  0  0  0  0  0  0
   46.0217   34.8130   40.6338 H   0  0  0  0  0  0  0  0  0  0  0  0
   47.9458   35.0202   39.2446 H   0  0  0  0  0  0  0  0  0  0  0  0
   48.8692   33.8066   40.2372 H   0  0  0  0  0  0  0  0  0  0  0  0
   50.4511   34.9308   41.9256 H   0  0  0  0  0  0  0  0  0  0  0  0
   49.4680   36.1597   42.8041 H   0  0  0  0  0  0  0  0  0  0  0  0
   48.8033   34.2988   43.8245 H   0  0  0  0  0  0  0  0  0  0  0  0
   43.8174   36.9661   44.2360 H   0  0  0  0  0  0  0  0  0  0  0  0
   45.3842   36.5557   42.3551 H   0  0  0  0  0  0  0  0  0  0  0  0
   48.8052   31.9892   39.9914 H   0  0  0  0  0  0  0  0  0  0  0  0
   49.6296   31.0759   37.8358 H   0  0  0  0  0  0  0  0  0  0  0  0
   52.0816   30.6188   37.5504 H   0  0  0  0  0  0  0  0  0  0  0  0
   53.6473   31.1006   39.4576 H   0  0  0  0  0  0  0  0  0  0  0  0
  1  6  1  0
  1  9  1  0
  2  1  1  0
  3  4  1  0
  3  2  1  0
  4  5  1  0
  5  6  1  0
  7 12  2  0
  8  9  2  0
  8  7  1  0
  9 10  1  0
 10 11  2  0
 11 13  1  0
 12 11  1  0
 13 14  1  0
 14 15  1  0
 14 17  1  0
 16 14  1  0
 18 19  2  0
 18  6  1  0
 20 18  1  0
 21 20  1  0
 22 21  2  0
 23 22  1  0
 24 23  2  0
 24 25  1  0
 25 26  2  0
 26 21  1  0
  2 27  1  0
  2 28  1  0
  3 29  1  0
  3 30  1  0
  5 31  1  0
  5 32  1  0
  6 33  1  1
  7 34  1  0
  8 35  1  0
 22 36  1  0
 23 37  1  0
 24 38  1  0
 25 39  1  0
M  ISO  8  27  13  28  13  29  13  30  13  31  13  32  13  33  13  34  14
M  ISO  5  35  14  36  14  37  14  38  14  39  14
M  END
>  <minimizedAffinity>  (1) 
-6.01288795

>  <minimizedRMSD>  (1) 
1.21029937

$$$$
