
     RDKit          3D

 42 44  0  0  1  0  0  0  0  0999 V2000
   47.2760   34.4560   42.3550 N   0  0  0  0  0  0  0  0  0  0  0  0
   46.9640   34.0560   40.9900 C   0  0  0  0  0  0  0  0  0  0  0  0
   48.1900   34.5320   40.2050 C   0  0  0  0  0  0  0  0  0  0  0  0
   48.7430   35.6870   40.7320 O   0  0  0  0  0  0  0  0  0  0  0  0
   49.3820   35.4900   41.9500 C   0  0  0  0  0  0  0  0  0  0  0  0
   48.7130   34.4240   42.7070 C   0  0  2  0  0  0  0  0  0  0  0  0
   44.5080   36.1170   44.1850 C   0  0  0  0  0  0  0  0  0  0  0  0
   45.4010   35.8920   43.1500 C   0  0  0  0  0  0  0  0  0  0  0  0
   46.2660   34.8590   43.3020 C   0  0  0  0  0  0  0  0  0  0  0  0
   46.2250   34.1000   44.4380 N   0  0  0  0  0  0  0  0  0  0  0  0
   45.3430   34.3430   45.4290 C   0  0  0  0  0  0  0  0  0  0  0  0
   44.4830   35.3580   45.2960 N   0  0  0  0  0  0  0  0  0  0  0  0
   45.2550   33.6140   46.5930 O   0  0  0  0  0  0  0  0  0  0  0  0
   46.0160   32.4560   46.8560 C   0  0  0  0  0  0  0  0  0  0  0  0
   47.3620   32.7290   46.9540 F   0  0  0  0  0  0  0  0  0  0  0  0
   45.7720   31.4800   45.9320 F   0  0  0  0  0  0  0  0  0  0  0  0
   45.6520   32.0000   48.1320 F   0  0  0  0  0  0  0  0  0  0  0  0
   49.2780   33.0770   42.5750 C   0  0  0  0  0  0  0  0  0  0  0  0
   48.6150   32.0160   42.6560 O   0  0  0  0  0  0  0  0  0  0  0  0
   50.6300   32.8680   42.3400 O   0  0  0  0  0  0  0  0  0  0  0  0
   52.2950   32.2140   40.7700 N   0  0  0  0  0  0  0  0  0  0  0  0
   52.7200   30.9280   40.2100 C   0  0  0  0  0  0  0  0  0  0  0  0
   52.2800   29.8770   41.1780 C   0  0  0  0  0  0  0  0  0  0  0  0
   51.5940   30.6580   42.2840 C   0  0  0  0  0  0  0  0  0  0  0  0
   51.0740   31.8460   41.5020 C   0  0  1  0  0  0  0  0  0  0  0  0
   46.8450   32.9650   40.9147 H   0  0  0  0  0  0  0  0  0  0  0  0
   46.0192   34.4795   40.6185 H   0  0  0  0  0  0  0  0  0  0  0  0
   47.8886   34.7280   39.1654 H   0  0  0  0  0  0  0  0  0  0  0  0
   48.9517   33.7405   40.2637 H   0  0  0  0  0  0  0  0  0  0  0  0
   50.4290   35.2052   41.7692 H   0  0  0  0  0  0  0  0  0  0  0  0
   49.3417   36.4228   42.5315 H   0  0  0  0  0  0  0  0  0  0  0  0
   48.8777   34.6401   43.7729 H   0  0  0  0  0  0  0  0  0  0  0  0
   43.7923   36.9475   44.0953 H   0  0  0  0  0  0  0  0  0  0  0  0
   45.4080   36.5214   42.2479 H   0  0  0  0  0  0  0  0  0  0  0  0
   52.0928   32.8968   40.0258 H   0  0  0  0  0  0  0  0  0  0  0  0
   52.2463   30.7649   39.2307 H   0  0  0  0  0  0  0  0  0  0  0  0
   53.8094   30.8999   40.0605 H   0  0  0  0  0  0  0  0  0  0  0  0
   51.5786   29.1762   40.7017 H   0  0  0  0  0  0  0  0  0  0  0  0
   53.1167   29.2664   41.5481 H   0  0  0  0  0  0  0  0  0  0  0  0
   50.7751   30.0821   42.7399 H   0  0  0  0  0  0  0  0  0  0  0  0
   52.2438   30.9171   43.1329 H   0  0  0  0  0  0  0  0  0  0  0  0
   50.1986   31.6425   40.8678 H   0  0  0  0  0  0  0  0  0  0  0  0
  1  6  1  0
  1  9  1  0
  2  1  1  0
  3  4  1  0
  3  2  1  0
  4  5  1  0
  5  6  1  0
  7 12  2  0
  8  9  2  0
  8  7  1  0
  9 10  1  0
 10 11  2  0
 11 13  1  0
 12 11  1  0
 13 14  1  0
 14 15  1  0
 14 17  1  0
 16 14  1  0
 18 19  2  0
 18  6  1  0
 20 18  1  0
 21 25  1  0
 22 21  1  0
 22 23  1  0
 23 24  1  0
 25 24  1  0
 25 20  1  0
  2 26  1  0
  2 27  1  0
  3 28  1  0
  3 29  1  0
  5 30  1  0
  5 31  1  0
  6 32  1  1
  7 33  1  0
  8 34  1  0
 21 35  1  0
 22 36  1  0
 22 37  1  0
 23 38  1  0
 23 39  1  0
 24 40  1  0
 24 41  1  0
 25 42  1  6
M  ISO  8  26  13  27  13  28  13  29  13  30  13  31  13  32  13  33  14
M  ISO  8  34  14  35   5  36  13  37  13  38  13  39  13  40  13  41  13
M  ISO  1  42  13
M  END
>  <minimizedAffinity>  (1) 
-6.14166403

>  <minimizedRMSD>  (1) 
0.449691355

$$$$
