
     RDKit          3D

 38 40  0  0  1  0  0  0  0  0999 V2000
   47.2230   34.4610   42.3940 N   0  0  0  0  0  0  0  0  0  0  0  0
   46.9060   34.2410   40.9910 C   0  0  0  0  0  0  0  0  0  0  0  0
   48.1910   34.6740   40.2780 C   0  0  0  0  0  0  0  0  0  0  0  0
   48.8470   35.7000   40.9320 O   0  0  0  0  0  0  0  0  0  0  0  0
   49.4320   35.3130   42.1300 C   0  0  0  0  0  0  0  0  0  0  0  0
   48.6430   34.2470   42.7580 C   0  0  2  0  0  0  0  0  0  0  0  0
   44.5250   36.1360   44.3110 C   0  0  0  0  0  0  0  0  0  0  0  0
   45.3980   35.9210   43.2530 C   0  0  0  0  0  0  0  0  0  0  0  0
   46.2360   34.8630   43.3660 C   0  0  0  0  0  0  0  0  0  0  0  0
   46.1890   34.0730   44.4800 N   0  0  0  0  0  0  0  0  0  0  0  0
   45.3290   34.3080   45.4900 C   0  0  0  0  0  0  0  0  0  0  0  0
   44.4940   35.3470   45.3990 N   0  0  0  0  0  0  0  0  0  0  0  0
   45.2390   33.5460   46.6340 O   0  0  0  0  0  0  0  0  0  0  0  0
   46.1080   32.4830   46.9430 C   0  0  0  0  0  0  0  0  0  0  0  0
   47.4090   32.9060   47.1180 F   0  0  0  0  0  0  0  0  0  0  0  0
   46.0280   31.4860   46.0080 F   0  0  0  0  0  0  0  0  0  0  0  0
   45.7310   31.9820   48.1980 F   0  0  0  0  0  0  0  0  0  0  0  0
   49.0710   32.8710   42.4910 C   0  0  0  0  0  0  0  0  0  0  0  0
   48.3240   31.8670   42.5480 O   0  0  0  0  0  0  0  0  0  0  0  0
   50.3780   32.5640   42.1400 O   0  0  0  0  0  0  0  0  0  0  0  0
   50.7110   32.0320   40.8990 C   0  0  0  0  0  0  0  0  0  0  0  0
   52.0480   31.6820   40.6820 C   0  0  0  0  0  0  0  0  0  0  0  0
   52.4250   31.1430   39.4480 C   0  0  0  0  0  0  0  0  0  0  0  0
   51.4850   30.9700   38.4880 N   0  0  0  0  0  0  0  0  0  0  0  0
   50.1890   31.3160   38.7180 C   0  0  0  0  0  0  0  0  0  0  0  0
   49.8150   31.8370   39.9080 N   0  0  0  0  0  0  0  0  0  0  0  0
   46.6835   33.1814   40.7970 H   0  0  0  0  0  0  0  0  0  0  0  0
   46.0157   34.7928   40.6550 H   0  0  0  0  0  0  0  0  0  0  0  0
   47.9331   35.0121   39.2635 H   0  0  0  0  0  0  0  0  0  0  0  0
   48.8677   33.8070   40.2596 H   0  0  0  0  0  0  0  0  0  0  0  0
   50.4500   34.9448   41.9350 H   0  0  0  0  0  0  0  0  0  0  0  0
   49.4692   36.1788   42.8075 H   0  0  0  0  0  0  0  0  0  0  0  0
   48.8062   34.3331   43.8424 H   0  0  0  0  0  0  0  0  0  0  0  0
   43.8301   36.9870   44.2567 H   0  0  0  0  0  0  0  0  0  0  0  0
   45.4085   36.5758   42.3692 H   0  0  0  0  0  0  0  0  0  0  0  0
   52.7960   31.8295   41.4750 H   0  0  0  0  0  0  0  0  0  0  0  0
   53.4719   30.8630   39.2592 H   0  0  0  0  0  0  0  0  0  0  0  0
   49.4381   31.1702   37.9275 H   0  0  0  0  0  0  0  0  0  0  0  0
  1  6  1  0
  1  9  1  0
  2  1  1  0
  3  4  1  0
  3  2  1  0
  4  5  1  0
  5  6  1  0
  7 12  2  0
  8  9  2  0
  8  7  1  0
  9 10  1  0
 10 11  2  0
 11 13  1  0
 12 11  1  0
 13 14  1  0
 14 15  1  0
 14 17  1  0
 16 14  1  0
 18 19  2  0
 18  6  1  0
 20 18  1  0
 21 20  1  0
 22 21  2  0
 23 22  1  0
 24 25  1  0
 24 23  2  0
 25 26  2  0
 26 21  1  0
  2 27  1  0
  2 28  1  0
  3 29  1  0
  3 30  1  0
  5 31  1  0
  5 32  1  0
  6 33  1  1
  7 34  1  0
  8 35  1  0
 22 36  1  0
 23 37  1  0
 25 38  1  0
M  ISO  8  27  13  28  13  29  13  30  13  31  13  32  13  33  13  34  14
M  ISO  4  35  14  36  14  37  14  38  14
M  END
>  <minimizedAffinity>  (1) 
-5.99157858

>  <minimizedRMSD>  (1) 
1.23844755

$$$$
