
     RDKit          3D

 45 47  0  0  1  0  0  0  0  0999 V2000
   47.3480   34.5090   42.3180 N   0  0  0  0  0  0  0  0  0  0  0  0
   47.0590   34.0210   40.9790 C   0  0  0  0  0  0  0  0  0  0  0  0
   48.2390   34.5540   40.1580 C   0  0  0  0  0  0  0  0  0  0  0  0
   48.7120   35.7670   40.6210 O   0  0  0  0  0  0  0  0  0  0  0  0
   49.3660   35.6830   41.8430 C   0  0  0  0  0  0  0  0  0  0  0  0
   48.7850   34.6030   42.6520 C   0  0  2  0  0  0  0  0  0  0  0  0
   44.5180   36.0940   44.1210 C   0  0  0  0  0  0  0  0  0  0  0  0
   45.4310   35.8910   43.1020 C   0  0  0  0  0  0  0  0  0  0  0  0
   46.3190   34.8800   43.2570 C   0  0  0  0  0  0  0  0  0  0  0  0
   46.2780   34.1190   44.3850 N   0  0  0  0  0  0  0  0  0  0  0  0
   45.3770   34.3350   45.3660 C   0  0  0  0  0  0  0  0  0  0  0  0
   44.4960   35.3300   45.2260 N   0  0  0  0  0  0  0  0  0  0  0  0
   45.2930   33.5960   46.5250 O   0  0  0  0  0  0  0  0  0  0  0  0
   46.0170   32.4050   46.7560 C   0  0  0  0  0  0  0  0  0  0  0  0
   47.3590   32.6570   46.9640 F   0  0  0  0  0  0  0  0  0  0  0  0
   45.8260   31.4920   45.7540 F   0  0  0  0  0  0  0  0  0  0  0  0
   45.5620   31.8720   47.9700 F   0  0  0  0  0  0  0  0  0  0  0  0
   49.4580   33.2940   42.5800 C   0  0  0  0  0  0  0  0  0  0  0  0
   48.8830   32.2030   42.8090 O   0  0  0  0  0  0  0  0  0  0  0  0
   50.7890   33.1740   42.2470 O   0  0  0  0  0  0  0  0  0  0  0  0
   51.6260   30.1800   39.7240 N   0  0  0  0  0  0  0  0  0  0  0  0
   51.2290   29.7480   41.0510 C   0  0  0  0  0  0  0  0  0  0  0  0
   51.4740   30.8510   42.0610 C   0  0  0  0  0  0  0  0  0  0  0  0
   51.1800   32.1520   41.3590 C   0  0  0  0  0  0  0  0  0  0  0  0
   50.0580   31.8570   40.3570 C   0  0  0  0  0  0  0  0  0  0  0  0
   50.7170   31.1660   39.1810 C   0  0  0  0  0  0  0  0  0  0  0  0
   47.0261   32.9217   40.9570 H   0  0  0  0  0  0  0  0  0  0  0  0
   46.0810   34.3504   40.5983 H   0  0  0  0  0  0  0  0  0  0  0  0
   47.9127   34.6795   39.1151 H   0  0  0  0  0  0  0  0  0  0  0  0
   49.0581   33.8251   40.2458 H   0  0  0  0  0  0  0  0  0  0  0  0
   50.4327   35.4760   41.6716 H   0  0  0  0  0  0  0  0  0  0  0  0
   49.2519   36.6366   42.3793 H   0  0  0  0  0  0  0  0  0  0  0  0
   48.9380   34.8797   43.7056 H   0  0  0  0  0  0  0  0  0  0  0  0
   43.7851   36.9085   44.0234 H   0  0  0  0  0  0  0  0  0  0  0  0
   45.4357   36.5245   42.2028 H   0  0  0  0  0  0  0  0  0  0  0  0
   52.5693   30.5903   39.7761 H   0  0  0  0  0  0  0  0  0  0  0  0
   50.1588   29.4938   41.0444 H   0  0  0  0  0  0  0  0  0  0  0  0
   51.8249   28.8674   41.3327 H   0  0  0  0  0  0  0  0  0  0  0  0
   50.8066   30.7278   42.9267 H   0  0  0  0  0  0  0  0  0  0  0  0
   52.5093   30.8259   42.4319 H   0  0  0  0  0  0  0  0  0  0  0  0
   52.0905   32.5214   40.8645 H   0  0  0  0  0  0  0  0  0  0  0  0
   49.3027   31.1994   40.8121 H   0  0  0  0  0  0  0  0  0  0  0  0
   49.5442   32.7785   40.0457 H   0  0  0  0  0  0  0  0  0  0  0  0
   51.2716   31.8978   38.5753 H   0  0  0  0  0  0  0  0  0  0  0  0
   49.9652   30.6917   38.5331 H   0  0  0  0  0  0  0  0  0  0  0  0
  1  6  1  0
  1  9  1  0
  2  1  1  0
  3  4  1  0
  3  2  1  0
  4  5  1  0
  5  6  1  0
  7 12  2  0
  8  9  2  0
  8  7  1  0
  9 10  1  0
 10 11  2  0
 11 13  1  0
 12 11  1  0
 13 14  1  0
 14 15  1  0
 14 17  1  0
 16 14  1  0
 18  6  1  0
 18 19  2  0
 20 18  1  0
 21 22  1  0
 22 23  1  0
 24 23  1  0
 24 20  1  0
 25 24  1  0
 26 21  1  0
 26 25  1  0
  2 27  1  0
  2 28  1  0
  3 29  1  0
  3 30  1  0
  5 31  1  0
  5 32  1  0
  6 33  1  1
  7 34  1  0
  8 35  1  0
 21 36  1  0
 22 37  1  0
 22 38  1  0
 23 39  1  0
 23 40  1  0
 24 41  1  0
 25 42  1  0
 25 43  1  0
 26 44  1  0
 26 45  1  0
M  ISO  8  27  13  28  13  29  13  30  13  31  13  32  13  33  13  34  14
M  ISO  8  35  14  36   5  37  13  38  13  39  13  40  13  41  13  42  13
M  ISO  3  43  13  44  13  45  13
M  END
>  <minimizedAffinity>  (1) 
-5.85360146

>  <minimizedRMSD>  (1) 
0.759429097

$$$$
