
     RDKit          3D

 37 39  0  0  1  0  0  0  0  0999 V2000
   47.2970   34.4900   42.3130 N   0  0  0  0  0  0  0  0  0  0  0  0
   46.9810   34.0700   40.9560 C   0  0  0  0  0  0  0  0  0  0  0  0
   48.1850   34.5800   40.1540 C   0  0  0  0  0  0  0  0  0  0  0  0
   48.7140   35.7470   40.6640 O   0  0  0  0  0  0  0  0  0  0  0  0
   49.3640   35.5850   41.8810 C   0  0  0  0  0  0  0  0  0  0  0  0
   48.7400   34.5010   42.6490 C   0  0  2  0  0  0  0  0  0  0  0  0
   44.5240   36.1030   44.1780 C   0  0  0  0  0  0  0  0  0  0  0  0
   45.4130   35.9010   43.1380 C   0  0  0  0  0  0  0  0  0  0  0  0
   46.2860   34.8720   43.2680 C   0  0  0  0  0  0  0  0  0  0  0  0
   46.2560   34.0930   44.3950 N   0  0  0  0  0  0  0  0  0  0  0  0
   45.3770   34.3160   45.3930 C   0  0  0  0  0  0  0  0  0  0  0  0
   44.5080   35.3280   45.2780 N   0  0  0  0  0  0  0  0  0  0  0  0
   45.3010   33.5660   46.5460 O   0  0  0  0  0  0  0  0  0  0  0  0
   46.0420   32.3920   46.7730 C   0  0  0  0  0  0  0  0  0  0  0  0
   47.3870   32.6520   46.9530 F   0  0  0  0  0  0  0  0  0  0  0  0
   45.8320   31.4730   45.7750 F   0  0  0  0  0  0  0  0  0  0  0  0
   45.6200   31.8650   48.0020 F   0  0  0  0  0  0  0  0  0  0  0  0
   49.3410   33.1710   42.5200 C   0  0  0  0  0  0  0  0  0  0  0  0
   48.7800   32.1010   42.8490 O   0  0  0  0  0  0  0  0  0  0  0  0
   50.6170   32.9900   42.0040 O   0  0  0  0  0  0  0  0  0  0  0  0
   50.8860   32.0770   40.9960 C   0  0  0  0  0  0  0  0  0  0  0  0
   50.0710   31.6880   39.9300 C   0  0  0  0  0  0  0  0  0  0  0  0
   50.8190   30.7560   39.2250 C   0  0  0  0  0  0  0  0  0  0  0  0
   52.0250   30.5980   39.8420 N   0  0  0  0  0  0  0  0  0  0  0  0
   52.0370   31.3980   40.8960 N   0  0  0  0  0  0  0  0  0  0  0  0
   46.8956   32.9753   40.8897 H   0  0  0  0  0  0  0  0  0  0  0  0
   46.0187   34.4594   40.5923 H   0  0  0  0  0  0  0  0  0  0  0  0
   47.8643   34.7634   39.1179 H   0  0  0  0  0  0  0  0  0  0  0  0
   48.9688   33.8102   40.2097 H   0  0  0  0  0  0  0  0  0  0  0  0
   50.4206   35.3394   41.6986 H   0  0  0  0  0  0  0  0  0  0  0  0
   49.2893   36.5204   42.4549 H   0  0  0  0  0  0  0  0  0  0  0  0
   48.9157   34.7249   43.7115 H   0  0  0  0  0  0  0  0  0  0  0  0
   43.8019   36.9294   44.1031 H   0  0  0  0  0  0  0  0  0  0  0  0
   45.4118   36.5455   42.2466 H   0  0  0  0  0  0  0  0  0  0  0  0
   49.0559   32.0437   39.6995 H   0  0  0  0  0  0  0  0  0  0  0  0
   50.4923   30.2299   38.3159 H   0  0  0  0  0  0  0  0  0  0  0  0
   52.7859   29.9716   39.5428 H   0  0  0  0  0  0  0  0  0  0  0  0
  1  6  1  0
  1  9  1  0
  2  1  1  0
  3  4  1  0
  3  2  1  0
  4  5  1  0
  5  6  1  0
  7 12  2  0
  8  9  2  0
  8  7  1  0
  9 10  1  0
 10 11  2  0
 11 13  1  0
 12 11  1  0
 13 14  1  0
 14 15  1  0
 14 17  1  0
 16 14  1  0
 18  6  1  0
 18 19  2  0
 20 18  1  0
 21 20  1  0
 22 21  1  0
 23 24  1  0
 23 22  2  0
 24 25  1  0
 25 21  2  0
  2 26  1  0
  2 27  1  0
  3 28  1  0
  3 29  1  0
  5 30  1  0
  5 31  1  0
  6 32  1  1
  7 33  1  0
  8 34  1  0
 22 35  1  0
 23 36  1  0
 24 37  1  0
M  ISO  8  26  13  27  13  28  13  29  13  30  13  31  13  32  13  33  14
M  ISO  4  34  14  35  14  36  14  37   9
M  END
>  <minimizedAffinity>  (1) 
-5.78221941

>  <minimizedRMSD>  (1) 
0.846144199

$$$$
