
     RDKit          3D

 37 39  0  0  1  0  0  0  0  0999 V2000
   47.2600   34.4470   42.3360 N   0  0  0  0  0  0  0  0  0  0  0  0
   46.9330   34.0370   40.9800 C   0  0  0  0  0  0  0  0  0  0  0  0
   48.1400   34.5270   40.1750 C   0  0  0  0  0  0  0  0  0  0  0  0
   48.7000   35.6820   40.6840 O   0  0  0  0  0  0  0  0  0  0  0  0
   49.3530   35.4960   41.8990 C   0  0  0  0  0  0  0  0  0  0  0  0
   48.7030   34.4240   42.6640 C   0  0  2  0  0  0  0  0  0  0  0  0
   44.5210   36.1220   44.2000 C   0  0  0  0  0  0  0  0  0  0  0  0
   45.4070   35.8910   43.1590 C   0  0  0  0  0  0  0  0  0  0  0  0
   46.2640   34.8510   43.2960 C   0  0  0  0  0  0  0  0  0  0  0  0
   46.2230   34.0910   44.4280 N   0  0  0  0  0  0  0  0  0  0  0  0
   45.3530   34.3350   45.4280 C   0  0  0  0  0  0  0  0  0  0  0  0
   44.5000   35.3590   45.3050 N   0  0  0  0  0  0  0  0  0  0  0  0
   45.2720   33.5940   46.5910 O   0  0  0  0  0  0  0  0  0  0  0  0
   46.0210   32.4290   46.8330 C   0  0  0  0  0  0  0  0  0  0  0  0
   47.3710   32.7050   46.9370 F   0  0  0  0  0  0  0  0  0  0  0  0
   45.7730   31.4500   45.8910 F   0  0  0  0  0  0  0  0  0  0  0  0
   45.6610   31.9600   48.1070 F   0  0  0  0  0  0  0  0  0  0  0  0
   49.2790   33.0750   42.5290 C   0  0  0  0  0  0  0  0  0  0  0  0
   48.7090   32.0330   42.9320 O   0  0  0  0  0  0  0  0  0  0  0  0
   50.5030   32.8630   41.9400 O   0  0  0  0  0  0  0  0  0  0  0  0
   50.8220   31.6200   41.3480 C   0  0  0  0  0  0  0  0  0  0  0  0
   52.1110   31.5990   40.4760 C   0  0  0  0  0  0  0  0  0  0  0  0
   50.7850   31.4710   39.8680 C   0  0  0  0  0  0  0  0  0  0  0  0
   46.8285   32.9441   40.9112 H   0  0  0  0  0  0  0  0  0  0  0  0
   45.9765   34.4449   40.6212 H   0  0  0  0  0  0  0  0  0  0  0  0
   47.8158   34.7213   39.1420 H   0  0  0  0  0  0  0  0  0  0  0  0
   48.9080   33.7411   40.2258 H   0  0  0  0  0  0  0  0  0  0  0  0
   50.4018   35.2233   41.7101 H   0  0  0  0  0  0  0  0  0  0  0  0
   49.3069   36.4299   42.4785 H   0  0  0  0  0  0  0  0  0  0  0  0
   48.8832   34.6411   43.7272 H   0  0  0  0  0  0  0  0  0  0  0  0
   43.8113   36.9584   44.1181 H   0  0  0  0  0  0  0  0  0  0  0  0
   45.4137   36.5252   42.2602 H   0  0  0  0  0  0  0  0  0  0  0  0
   50.3947   31.0534   42.1884 H   0  0  0  0  0  0  0  0  0  0  0  0
   52.6978   32.5186   40.3344 H   0  0  0  0  0  0  0  0  0  0  0  0
   53.0396   31.0094   40.4634 H   0  0  0  0  0  0  0  0  0  0  0  0
   50.3919   32.2935   39.2524 H   0  0  0  0  0  0  0  0  0  0  0  0
   50.3308   30.7297   39.1941 H   0  0  0  0  0  0  0  0  0  0  0  0
  1  6  1  0
  1  9  1  0
  2  1  1  0
  3  4  1  0
  3  2  1  0
  4  5  1  0
  5  6  1  0
  7 12  2  0
  8  9  2  0
  8  7  1  0
  9 10  1  0
 10 11  2  0
 11 13  1  0
 12 11  1  0
 13 14  1  0
 14 15  1  0
 14 17  1  0
 16 14  1  0
 18  6  1  0
 18 19  2  0
 20 18  1  0
 21 20  1  0
 22 21  1  0
 23 22  1  0
 23 21  1  0
  2 24  1  0
  2 25  1  0
  3 26  1  0
  3 27  1  0
  5 28  1  0
  5 29  1  0
  6 30  1  1
  7 31  1  0
  8 32  1  0
 21 33  1  0
 22 34  1  0
 22 35  1  0
 23 36  1  0
 23 37  1  0
M  ISO  8  24  13  25  13  26  13  27  13  28  13  29  13  30  13  31  14
M  ISO  6  32  14  33  13  34  13  35  13  36  13  37  13
M  END
>  <minimizedAffinity>  (1) 
-5.59465647

>  <minimizedRMSD>  (1) 
0.267287344

$$$$
