
     RDKit          3D

 37 39  0  0  1  0  0  0  0  0999 V2000
   47.3020   34.4930   42.3030 N   0  0  0  0  0  0  0  0  0  0  0  0
   46.9950   34.0560   40.9490 C   0  0  0  0  0  0  0  0  0  0  0  0
   48.1950   34.5670   40.1440 C   0  0  0  0  0  0  0  0  0  0  0  0
   48.7080   35.7500   40.6440 O   0  0  0  0  0  0  0  0  0  0  0  0
   49.3620   35.6020   41.8600 C   0  0  0  0  0  0  0  0  0  0  0  0
   48.7440   34.5240   42.6410 C   0  0  2  0  0  0  0  0  0  0  0  0
   44.5270   36.1140   44.1560 C   0  0  0  0  0  0  0  0  0  0  0  0
   45.4170   35.9080   43.1220 C   0  0  0  0  0  0  0  0  0  0  0  0
   46.2910   34.8770   43.2550 C   0  0  0  0  0  0  0  0  0  0  0  0
   46.2570   34.1010   44.3840 N   0  0  0  0  0  0  0  0  0  0  0  0
   45.3740   34.3270   45.3790 C   0  0  0  0  0  0  0  0  0  0  0  0
   44.5050   35.3440   45.2580 N   0  0  0  0  0  0  0  0  0  0  0  0
   45.2970   33.5760   46.5350 O   0  0  0  0  0  0  0  0  0  0  0  0
   46.0350   32.4040   46.7650 C   0  0  0  0  0  0  0  0  0  0  0  0
   47.3820   32.6590   46.9370 F   0  0  0  0  0  0  0  0  0  0  0  0
   45.8120   31.4790   45.7680 F   0  0  0  0  0  0  0  0  0  0  0  0
   45.6150   31.8770   47.9950 F   0  0  0  0  0  0  0  0  0  0  0  0
   49.3590   33.1980   42.5280 C   0  0  0  0  0  0  0  0  0  0  0  0
   48.8230   32.1270   42.9010 O   0  0  0  0  0  0  0  0  0  0  0  0
   50.6240   33.0240   41.9770 O   0  0  0  0  0  0  0  0  0  0  0  0
   50.7980   31.9030   41.1370 C   0  0  0  0  0  0  0  0  0  0  0  0
   50.3500   31.6860   39.9120 C   0  0  0  0  0  0  0  0  0  0  0  0
   50.6290   30.5330   39.2640 C   0  0  0  0  0  0  0  0  0  0  0  0
   51.3980   29.6120   39.9530 C   0  0  0  0  0  0  0  0  0  0  0  0
   51.7180   30.4760   41.6030 S   0  0  0  0  0  0  0  0  0  0  0  0
   46.9196   32.9599   40.8944 H   0  0  0  0  0  0  0  0  0  0  0  0
   46.0307   34.4341   40.5786 H   0  0  0  0  0  0  0  0  0  0  0  0
   47.8764   34.7331   39.1043 H   0  0  0  0  0  0  0  0  0  0  0  0
   48.9874   33.8069   40.2099 H   0  0  0  0  0  0  0  0  0  0  0  0
   50.4188   35.3578   41.6767 H   0  0  0  0  0  0  0  0  0  0  0  0
   49.2860   36.5429   42.4248 H   0  0  0  0  0  0  0  0  0  0  0  0
   48.9121   34.7656   43.7009 H   0  0  0  0  0  0  0  0  0  0  0  0
   43.8066   36.9414   44.0756 H   0  0  0  0  0  0  0  0  0  0  0  0
   45.4186   36.5506   42.2292 H   0  0  0  0  0  0  0  0  0  0  0  0
   49.7416   32.4547   39.4131 H   0  0  0  0  0  0  0  0  0  0  0  0
   50.2646   30.3376   38.2447 H   0  0  0  0  0  0  0  0  0  0  0  0
   51.7394   28.6202   39.6217 H   0  0  0  0  0  0  0  0  0  0  0  0
  1  6  1  0
  1  9  1  0
  2  1  1  0
  3  4  1  0
  3  2  1  0
  4  5  1  0
  5  6  1  0
  7 12  2  0
  8  9  2  0
  8  7  1  0
  9 10  1  0
 10 11  2  0
 11 13  1  0
 12 11  1  0
 13 14  1  0
 14 15  1  0
 14 17  1  0
 16 14  1  0
 18  6  1  0
 18 19  2  0
 20 18  1  0
 21 25  1  0
 21 20  1  0
 22 21  2  0
 23 22  1  0
 23 24  2  0
 24 25  1  0
  2 26  1  0
  2 27  1  0
  3 28  1  0
  3 29  1  0
  5 30  1  0
  5 31  1  0
  6 32  1  1
  7 33  1  0
  8 34  1  0
 22 35  1  0
 23 36  1  0
 24 37  1  0
M  ISO  8  26  13  27  13  28  13  29  13  30  13  31  13  32  13  33  14
M  ISO  4  34  14  35  14  36  14  37  14
M  END
>  <minimizedAffinity>  (1) 
-5.67006731

>  <minimizedRMSD>  (1) 
0.780505538

$$$$
