
     RDKit          3D

 42 43  0  0  1  0  0  0  0  0999 V2000
   47.2390   34.4650   42.3520 N   0  0  0  0  0  0  0  0  0  0  0  0
   46.9210   34.2170   40.9520 C   0  0  0  0  0  0  0  0  0  0  0  0
   48.1940   34.6720   40.2280 C   0  0  0  0  0  0  0  0  0  0  0  0
   48.8280   35.7220   40.8630 O   0  0  0  0  0  0  0  0  0  0  0  0
   49.4230   35.3680   42.0680 C   0  0  0  0  0  0  0  0  0  0  0  0
   48.6660   34.2850   42.7090 C   0  0  2  0  0  0  0  0  0  0  0  0
   44.5250   36.1170   44.2660 C   0  0  0  0  0  0  0  0  0  0  0  0
   45.3960   35.9060   43.2120 C   0  0  0  0  0  0  0  0  0  0  0  0
   46.2510   34.8590   43.3250 C   0  0  0  0  0  0  0  0  0  0  0  0
   46.2210   34.0740   44.4440 N   0  0  0  0  0  0  0  0  0  0  0  0
   45.3580   34.3070   45.4570 C   0  0  0  0  0  0  0  0  0  0  0  0
   44.5070   35.3390   45.3590 N   0  0  0  0  0  0  0  0  0  0  0  0
   45.2840   33.5510   46.6050 O   0  0  0  0  0  0  0  0  0  0  0  0
   46.0460   32.3940   46.8380 C   0  0  0  0  0  0  0  0  0  0  0  0
   47.3910   32.6590   46.9380 F   0  0  0  0  0  0  0  0  0  0  0  0
   45.7940   31.4350   45.8820 F   0  0  0  0  0  0  0  0  0  0  0  0
   45.6830   31.9020   48.1000 F   0  0  0  0  0  0  0  0  0  0  0  0
   49.1320   32.9210   42.4600 C   0  0  0  0  0  0  0  0  0  0  0  0
   48.4700   31.8870   42.7240 O   0  0  0  0  0  0  0  0  0  0  0  0
   50.3660   32.6720   41.8980 O   0  0  0  0  0  0  0  0  0  0  0  0
   50.7470   31.6210   41.1000 C   0  0  0  0  0  0  0  0  0  0  0  0
   49.7640   31.5970   39.9220 C   0  0  0  0  0  0  0  0  0  0  0  0
   50.5640   30.2580   41.7620 C   0  0  0  0  0  0  0  0  0  0  0  0
   52.1240   31.6550   40.5370 C   0  0  0  0  0  0  0  0  0  0  0  0
   46.7239   33.1496   40.7736 H   0  0  0  0  0  0  0  0  0  0  0  0
   46.0158   34.7413   40.6118 H   0  0  0  0  0  0  0  0  0  0  0  0
   47.9243   34.9891   39.2098 H   0  0  0  0  0  0  0  0  0  0  0  0
   48.8914   33.8213   40.2209 H   0  0  0  0  0  0  0  0  0  0  0  0
   50.4524   35.0293   41.8792 H   0  0  0  0  0  0  0  0  0  0  0  0
   49.4316   36.2430   42.7346 H   0  0  0  0  0  0  0  0  0  0  0  0
   48.8308   34.3791   43.7925 H   0  0  0  0  0  0  0  0  0  0  0  0
   43.8179   36.9575   44.2054 H   0  0  0  0  0  0  0  0  0  0  0  0
   45.3952   36.5562   42.3247 H   0  0  0  0  0  0  0  0  0  0  0  0
   48.7332   31.5718   40.3051 H   0  0  0  0  0  0  0  0  0  0  0  0
   49.9052   32.4989   39.3082 H   0  0  0  0  0  0  0  0  0  0  0  0
   49.9490   30.7031   39.3082 H   0  0  0  0  0  0  0  0  0  0  0  0
   50.5799   30.3764   42.8555 H   0  0  0  0  0  0  0  0  0  0  0  0
   49.5999   29.8272   41.4538 H   0  0  0  0  0  0  0  0  0  0  0  0
   51.3803   29.5881   41.4538 H   0  0  0  0  0  0  0  0  0  0  0  0
   52.8556   31.6731   41.3583 H   0  0  0  0  0  0  0  0  0  0  0  0
   52.2893   30.7607   39.9183 H   0  0  0  0  0  0  0  0  0  0  0  0
   52.2450   32.5564   39.9183 H   0  0  0  0  0  0  0  0  0  0  0  0
  1  6  1  0
  1  9  1  0
  2  1  1  0
  3  4  1  0
  3  2  1  0
  4  5  1  0
  5  6  1  0
  7 12  2  0
  8  9  2  0
  8  7  1  0
  9 10  1  0
 10 11  2  0
 11 13  1  0
 12 11  1  0
 13 14  1  0
 14 15  1  0
 14 17  1  0
 16 14  1  0
 18  6  1  0
 18 19  2  0
 20 18  1  0
 21 23  1  0
 21 20  1  0
 22 21  1  0
 24 21  1  0
  2 25  1  0
  2 26  1  0
  3 27  1  0
  3 28  1  0
  5 29  1  0
  5 30  1  0
  6 31  1  1
  7 32  1  0
  8 33  1  0
 22 34  1  0
 22 35  1  0
 22 36  1  0
 23 37  1  0
 23 38  1  0
 23 39  1  0
 24 40  1  0
 24 41  1  0
 24 42  1  0
M  ISO  8  25  13  26  13  27  13  28  13  29  13  30  13  31  13  32  14
M  ISO  8  33  14  34   8  35   8  36   8  37   8  38   8  39   8  40   8
M  ISO  2  41   8  42   8
M  END
>  <minimizedAffinity>  (1) 
-5.66428471

>  <minimizedRMSD>  (1) 
0.754359722

$$$$
