
     RDKit          3D

 21 22  0  0  0  0  0  0  0  0999 V2000
   47.0920   34.5790   41.7840 C   0  0  0  0  0  0  0  0  0  0  0  0
   48.2010   35.4100   41.6860 C   0  0  0  0  0  0  0  0  0  0  0  0
   48.9120   35.4990   40.4750 C   0  0  0  0  0  0  0  0  0  0  0  0
   48.5020   34.7510   39.3720 C   0  0  0  0  0  0  0  0  0  0  0  0
   47.3970   33.9290   39.4800 C   0  0  0  0  0  0  0  0  0  0  0  0
   46.7080   33.8510   40.6770 C   0  0  0  0  0  0  0  0  0  0  0  0
   44.7550   35.1770   44.6670 C   0  0  0  0  0  0  0  0  0  0  0  0
   45.3160   35.3150   43.3930 C   0  0  0  0  0  0  0  0  0  0  0  0
   46.4120   34.5390   43.0640 C   0  0  0  0  0  0  0  0  0  0  0  0
   46.9020   33.6700   43.9980 N   0  0  0  0  0  0  0  0  0  0  0  0
   46.3300   33.5610   45.2310 C   0  0  0  0  0  0  0  0  0  0  0  0
   45.2700   34.3100   45.5530 N   0  0  0  0  0  0  0  0  0  0  0  0
   43.6590   35.9440   45.0130 O   0  0  0  0  0  0  0  0  0  0  0  0
   48.5239   35.9995   42.5568 H   0  0  0  0  0  0  0  0  0  0  0  0
   49.7898   36.1575   40.3986 H   0  0  0  0  0  0  0  0  0  0  0  0
   49.0543   34.8150   38.4229 H   0  0  0  0  0  0  0  0  0  0  0  0
   47.0651   33.3367   38.6145 H   0  0  0  0  0  0  0  0  0  0  0  0
   45.8308   33.1911   40.7480 H   0  0  0  0  0  0  0  0  0  0  0  0
   44.8938   36.0263   42.6678 H   0  0  0  0  0  0  0  0  0  0  0  0
   46.7428   32.8531   45.9648 H   0  0  0  0  0  0  0  0  0  0  0  0
   43.2772   36.5842   44.3614 H   0  0  0  0  0  0  0  0  0  0  0  0
  1  9  1  0
  2  1  2  0
  3  2  1  0
  4  5  1  0
  4  3  2  0
  5  6  2  0
  6  1  1  0
  7 13  1  0
  7 12  2  0
  8  7  1  0
  9  8  2  0
  9 10  1  0
 10 11  2  0
 11 12  1  0
  2 14  1  0
  3 15  1  0
  4 16  1  0
  5 17  1  0
  6 18  1  0
  8 19  1  0
 11 20  1  0
 13 21  1  0
M  ISO  8  14  14  15  14  16  14  17  14  18  14  19  14  20  14  21   3
M  END
>  <minimizedAffinity>  (1) 
-4.81361866

>  <minimizedRMSD>  (1) 
0.718199134

$$$$
