
     RDKit          3D

 43 46  0  0  1  0  0  0  0  0999 V2000
   45.3070   34.6370   43.4660 C   0  0  2  0  0  0  0  0  0  0  0  0
   46.4770   34.6210   42.5440 C   0  0  0  0  0  0  0  0  0  0  0  0
   46.3540   34.1830   41.2190 C   0  0  0  0  0  0  0  0  0  0  0  0
   47.4750   34.1730   40.4120 C   0  0  0  0  0  0  0  0  0  0  0  0
   48.6440   34.5790   40.9220 N   0  0  0  0  0  0  0  0  0  0  0  0
   48.7680   35.0040   42.2120 C   0  0  0  0  0  0  0  0  0  0  0  0
   47.6730   35.0150   42.9980 N   0  0  0  0  0  0  0  0  0  0  0  0
   47.4450   33.7510   39.0180 C   0  0  0  0  0  0  0  0  0  0  0  0
   48.3900   34.3510   38.1700 C   0  0  0  0  0  0  0  0  0  0  0  0
   48.4140   33.9900   36.8070 C   0  0  0  0  0  0  0  0  0  0  0  0
   47.5250   33.0630   36.3070 C   0  0  0  0  0  0  0  0  0  0  0  0
   46.5890   32.4720   37.1570 C   0  0  0  0  0  0  0  0  0  0  0  0
   46.5910   32.8440   38.4840 C   0  0  0  0  0  0  0  0  0  0  0  0
   44.8790   36.1220   43.6860 C   0  0  0  0  0  0  0  0  0  0  0  0
   45.6220   34.0790   44.8120 C   0  0  0  0  0  0  0  0  0  0  0  0
   45.7660   32.6330   44.9050 C   0  0  0  0  0  0  0  0  0  0  0  0
   45.2880   31.8590   43.9200 N   0  0  0  0  0  0  0  0  0  0  0  0
   45.3790   30.5320   43.9830 C   0  0  0  0  0  0  0  0  0  0  0  0
   45.9650   29.9630   45.0620 N   0  0  0  0  0  0  0  0  0  0  0  0
   46.4540   30.6940   46.0620 C   0  0  0  0  0  0  0  0  0  0  0  0
   47.0560   30.0620   47.1530 C   0  0  0  0  0  0  0  0  0  0  0  0
   47.5550   30.8390   48.1620 C   0  0  0  0  0  0  0  0  0  0  0  0
   47.4980   32.2140   48.1640 C   0  0  0  0  0  0  0  0  0  0  0  0
   46.8880   32.7900   47.0560 C   0  0  0  0  0  0  0  0  0  0  0  0
   46.3680   32.0680   46.0140 C   0  0  0  0  0  0  0  0  0  0  0  0
   44.5213   34.0212   43.0039 H   0  0  0  0  0  0  0  0  0  0  0  0
   45.3806   33.8524   40.8276 H   0  0  0  0  0  0  0  0  0  0  0  0
   49.7425   35.3314   42.6033 H   0  0  0  0  0  0  0  0  0  0  0  0
   49.1014   35.0921   38.5634 H   0  0  0  0  0  0  0  0  0  0  0  0
   49.1510   34.4538   36.1349 H   0  0  0  0  0  0  0  0  0  0  0  0
   47.5531   32.7899   35.2418 H   0  0  0  0  0  0  0  0  0  0  0  0
   45.8701   31.7304   36.7785 H   0  0  0  0  0  0  0  0  0  0  0  0
   45.8531   32.3754   39.1518 H   0  0  0  0  0  0  0  0  0  0  0  0
   44.8189   36.3304   44.7644 H   0  0  0  0  0  0  0  0  0  0  0  0
   45.6212   36.7898   43.2243 H   0  0  0  0  0  0  0  0  0  0  0  0
   43.8952   36.2923   43.2243 H   0  0  0  0  0  0  0  0  0  0  0  0
   46.5679   34.5300   45.1464 H   0  0  0  0  0  0  0  0  0  0  0  0
   44.7497   34.3226   45.4364 H   0  0  0  0  0  0  0  0  0  0  0  0
   44.9832   29.9068   43.1691 H   0  0  0  0  0  0  0  0  0  0  0  0
   47.1270   28.9653   47.1994 H   0  0  0  0  0  0  0  0  0  0  0  0
   48.0279   30.3372   49.0191 H   0  0  0  0  0  0  0  0  0  0  0  0
   47.9079   32.8170   48.9877 H   0  0  0  0  0  0  0  0  0  0  0  0
   46.8188   33.8870   47.0132 H   0  0  0  0  0  0  0  0  0  0  0  0
  1 14  1  0
  1 15  1  0
  2  7  1  0
  2  1  1  0
  3  2  2  0
  4  5  2  0
  4  3  1  0
  5  6  1  0
  6  7  2  0
  8  4  1  0
  9  8  2  0
 10  9  1  0
 11 10  2  0
 11 12  1  0
 12 13  2  0
 13  8  1  0
 15 16  1  0
 16 25  2  0
 17 18  2  0
 17 16  1  0
 18 19  1  0
 19 20  2  0
 20 21  1  0
 21 22  2  0
 22 23  1  0
 24 23  2  0
 25 20  1  0
 25 24  1  0
  1 26  1  6
  3 27  1  0
  6 28  1  0
  9 29  1  0
 10 30  1  0
 11 31  1  0
 12 32  1  0
 13 33  1  0
 14 34  1  0
 14 35  1  0
 14 36  1  0
 15 37  1  0
 15 38  1  0
 18 39  1  0
 21 40  1  0
 22 41  1  0
 23 42  1  0
 24 43  1  0
M  ISO  8  26   8  27  14  28  14  29  14  30  14  31  14  32  14  33  14
M  ISO  8  34   8  35   8  36   8  37   8  38   8  39  14  40  14  41  14
M  ISO  2  42  14  43  14
M  END
>  <minimizedAffinity>  (1) 
-5.64336014

>  <minimizedRMSD>  (1) 
2.05300999

$$$$
