
     RDKit          3D

 45 48  0  0  1  0  0  0  0  0999 V2000
   46.5570   34.2980   42.9060 C   0  0  0  0  0  0  0  0  0  0  0  0
   46.3440   34.0140   41.5450 C   0  0  0  0  0  0  0  0  0  0  0  0
   47.4610   34.0470   40.7010 C   0  0  0  0  0  0  0  0  0  0  0  0
   48.6530   34.3390   41.2140 N   0  0  0  0  0  0  0  0  0  0  0  0
   48.8390   34.6120   42.5390 C   0  0  0  0  0  0  0  0  0  0  0  0
   47.7710   34.5840   43.3590 N   0  0  0  0  0  0  0  0  0  0  0  0
   47.3610   33.7800   39.2730 C   0  0  0  0  0  0  0  0  0  0  0  0
   48.3390   34.3680   38.4650 C   0  0  0  0  0  0  0  0  0  0  0  0
   48.3370   34.1820   37.0710 C   0  0  0  0  0  0  0  0  0  0  0  0
   47.3490   33.4070   36.5000 C   0  0  0  0  0  0  0  0  0  0  0  0
   46.3850   32.8280   37.2970 C   0  0  0  0  0  0  0  0  0  0  0  0
   46.4060   33.0250   38.6750 C   0  0  0  0  0  0  0  0  0  0  0  0
   45.4270   34.2660   43.8590 C   0  0  2  0  0  0  0  0  0  0  0  0
   44.8990   35.7190   44.0860 C   0  0  0  0  0  0  0  0  0  0  0  0
   45.7480   33.6970   45.1830 C   0  0  0  0  0  0  0  0  0  0  0  0
   46.0160   32.2730   45.2900 C   0  0  0  0  0  0  0  0  0  0  0  0
   45.6610   31.3110   44.3670 C   0  0  0  0  0  0  0  0  0  0  0  0
   45.9090   29.9770   44.4740 C   0  0  0  0  0  0  0  0  0  0  0  0
   46.5650   29.4920   45.5680 C   0  0  0  0  0  0  0  0  0  0  0  0
   46.9570   30.3800   46.5360 C   0  0  0  0  0  0  0  0  0  0  0  0
   47.6260   29.8640   47.6230 C   0  0  0  0  0  0  0  0  0  0  0  0
   48.0580   30.7030   48.6280 C   0  0  0  0  0  0  0  0  0  0  0  0
   47.8140   32.0590   48.5320 C   0  0  0  0  0  0  0  0  0  0  0  0
   47.1380   32.5070   47.4130 C   0  0  0  0  0  0  0  0  0  0  0  0
   46.6800   31.7220   46.3790 C   0  0  0  0  0  0  0  0  0  0  0  0
   45.3416   33.7759   41.1596 H   0  0  0  0  0  0  0  0  0  0  0  0
   49.8399   34.8497   42.9283 H   0  0  0  0  0  0  0  0  0  0  0  0
   49.1227   34.9861   38.9272 H   0  0  0  0  0  0  0  0  0  0  0  0
   49.1122   34.6479   36.4449 H   0  0  0  0  0  0  0  0  0  0  0  0
   47.3305   33.2514   35.4112 H   0  0  0  0  0  0  0  0  0  0  0  0
   45.5972   32.2088   36.8432 H   0  0  0  0  0  0  0  0  0  0  0  0
   45.6277   32.5561   39.2950 H   0  0  0  0  0  0  0  0  0  0  0  0
   44.6776   33.6070   43.3963 H   0  0  0  0  0  0  0  0  0  0  0  0
   44.8266   35.9184   45.1654 H   0  0  0  0  0  0  0  0  0  0  0  0
   45.5935   36.4375   43.6262 H   0  0  0  0  0  0  0  0  0  0  0  0
   43.9052   35.8240   43.6262 H   0  0  0  0  0  0  0  0  0  0  0  0
   46.6415   34.2221   45.5518 H   0  0  0  0  0  0  0  0  0  0  0  0
   44.8231   33.8363   45.7620 H   0  0  0  0  0  0  0  0  0  0  0  0
   45.1310   31.6521   43.4655 H   0  0  0  0  0  0  0  0  0  0  0  0
   45.5810   29.2905   43.6795 H   0  0  0  0  0  0  0  0  0  0  0  0
   46.7737   28.4168   45.6704 H   0  0  0  0  0  0  0  0  0  0  0  0
   47.8158   28.7825   47.6896 H   0  0  0  0  0  0  0  0  0  0  0  0
   48.5925   30.2959   49.4990 H   0  0  0  0  0  0  0  0  0  0  0  0
   48.1451   32.7557   49.3162 H   0  0  0  0  0  0  0  0  0  0  0  0
   46.9488   33.5883   47.3421 H   0  0  0  0  0  0  0  0  0  0  0  0
  1  6  1  0
  1 13  1  0
  2  1  2  0
  3  4  2  0
  3  2  1  0
  4  5  1  0
  5  6  2  0
  7  3  1  0
  8  7  2  0
  9  8  1  0
 10  9  2  0
 10 11  1  0
 11 12  2  0
 12  7  1  0
 13 14  1  0
 13 15  1  0
 15 16  1  0
 16 25  2  0
 17 18  2  0
 17 16  1  0
 18 19  1  0
 19 20  2  0
 20 21  1  0
 21 22  2  0
 23 22  1  0
 24 23  2  0
 25 20  1  0
 25 24  1  0
  2 26  1  0
  5 27  1  0
  8 28  1  0
  9 29  1  0
 10 30  1  0
 11 31  1  0
 12 32  1  0
 13 33  1  6
 14 34  1  0
 14 35  1  0
 14 36  1  0
 15 37  1  0
 15 38  1  0
 17 39  1  0
 18 40  1  0
 19 41  1  0
 21 42  1  0
 22 43  1  0
 23 44  1  0
 24 45  1  0
M  ISO  8  26  14  27  14  28  14  29  14  30  14  31  14  32  14  33   8
M  ISO  8  34   8  35   8  36   8  37   8  38   8  39  14  40  14  41  14
M  ISO  4  42  14  43  14  44  14  45  14
M  END
>  <minimizedAffinity>  (1) 
-5.7574749

>  <minimizedRMSD>  (1) 
2.33125281

$$$$
