
     RDKit          3D

 39 41  0  0  1  0  0  0  0  0999 V2000
   46.7210   34.0120   43.1590 C   0  0  0  0  0  0  0  0  0  0  0  0
   46.4530   33.8900   41.7980 C   0  0  0  0  0  0  0  0  0  0  0  0
   47.5280   33.8890   40.9130 C   0  0  0  0  0  0  0  0  0  0  0  0
   48.7670   34.0030   41.4060 N   0  0  0  0  0  0  0  0  0  0  0  0
   49.0180   34.1210   42.7410 C   0  0  0  0  0  0  0  0  0  0  0  0
   47.9730   34.1240   43.5990 N   0  0  0  0  0  0  0  0  0  0  0  0
   47.3660   33.7850   39.4750 C   0  0  0  0  0  0  0  0  0  0  0  0
   48.3180   34.4150   38.6870 C   0  0  0  0  0  0  0  0  0  0  0  0
   48.2720   34.3900   37.2860 C   0  0  0  0  0  0  0  0  0  0  0  0
   47.2400   33.7090   36.6730 C   0  0  0  0  0  0  0  0  0  0  0  0
   46.2790   33.0720   37.4650 C   0  0  0  0  0  0  0  0  0  0  0  0
   46.3690   33.1280   38.8360 C   0  0  0  0  0  0  0  0  0  0  0  0
   45.6390   34.0250   44.1640 C   0  0  2  0  0  0  0  0  0  0  0  0
   44.7990   35.3220   44.0150 C   0  0  0  0  0  0  0  0  0  0  0  0
   46.0720   33.8790   45.5730 C   0  0  0  0  0  0  0  0  0  0  0  0
   45.9060   32.5690   46.1230 N   0  0  0  0  0  0  0  0  0  0  0  0
   46.3040   31.3290   45.8370 C   0  0  0  0  0  0  0  0  0  0  0  0
   46.0110   30.2180   46.5860 C   0  0  0  0  0  0  0  0  0  0  0  0
   45.2510   30.3470   47.7280 C   0  0  0  0  0  0  0  0  0  0  0  0
   45.0030   29.3070   48.3900 O   0  0  0  0  0  0  0  0  0  0  0  0
   44.8290   31.6020   48.0490 N   0  0  0  0  0  0  0  0  0  0  0  0
   45.1560   32.6560   47.2630 C   0  0  0  0  0  0  0  0  0  0  0  0
   44.6510   33.7070   47.7660 O   0  0  0  0  0  0  0  0  0  0  0  0
   45.4199   33.7969   41.4319 H   0  0  0  0  0  0  0  0  0  0  0  0
   50.0494   34.2119   43.1123 H   0  0  0  0  0  0  0  0  0  0  0  0
   49.1401   34.9546   39.1800 H   0  0  0  0  0  0  0  0  0  0  0  0
   49.0412   34.9017   36.6888 H   0  0  0  0  0  0  0  0  0  0  0  0
   47.1740   33.6677   35.5758 H   0  0  0  0  0  0  0  0  0  0  0  0
   45.4504   32.5257   36.9906 H   0  0  0  0  0  0  0  0  0  0  0  0
   45.6011   32.6192   39.4372 H   0  0  0  0  0  0  0  0  0  0  0  0
   45.0419   33.1266   43.9484 H   0  0  0  0  0  0  0  0  0  0  0  0
   44.5465   35.7119   45.0121 H   0  0  0  0  0  0  0  0  0  0  0  0
   45.3815   36.0748   43.4637 H   0  0  0  0  0  0  0  0  0  0  0  0
   43.8738   35.0983   43.4637 H   0  0  0  0  0  0  0  0  0  0  0  0
   47.1387   34.1410   45.6312 H   0  0  0  0  0  0  0  0  0  0  0  0
   45.4262   34.5451   46.1640 H   0  0  0  0  0  0  0  0  0  0  0  0
   46.9132   31.1863   44.9323 H   0  0  0  0  0  0  0  0  0  0  0  0
   46.3808   29.2293   46.2766 H   0  0  0  0  0  0  0  0  0  0  0  0
   44.2584   31.7503   48.8936 H   0  0  0  0  0  0  0  0  0  0  0  0
  1  6  1  0
  1 13  1  0
  2  1  2  0
  3  4  2  0
  3  2  1  0
  4  5  1  0
  5  6  2  0
  7  3  1  0
  8  7  2  0
  9  8  1  0
 10  9  2  0
 10 11  1  0
 11 12  2  0
 12  7  1  0
 13 15  1  0
 14 13  1  0
 15 16  1  0
 16 22  1  0
 17 16  1  0
 17 18  2  0
 18 19  1  0
 19 21  1  0
 19 20  2  0
 22 23  2  0
 22 21  1  0
  2 24  1  0
  5 25  1  0
  8 26  1  0
  9 27  1  0
 10 28  1  0
 11 29  1  0
 12 30  1  0
 13 31  1  6
 14 32  1  0
 14 33  1  0
 14 34  1  0
 15 35  1  0
 15 36  1  0
 17 37  1  0
 18 38  1  0
 21 39  1  0
M  ISO  8  24  14  25  14  26  14  27  14  28  14  29  14  30  14  31   8
M  ISO  8  32   8  33   8  34   8  35   8  36   8  37  14  38  14  39   9
M  END
>  <minimizedAffinity>  (1) 
-5.3612299

>  <minimizedRMSD>  (1) 
1.46076071

$$$$
