
     RDKit          3D

 46 50  0  0  0  0  0  0  0  0999 V2000
   44.9410   35.5590   45.0090 C   0  0  0  0  0  0  0  0  0  0  0  0
   44.1580   35.7240   43.8400 C   0  0  0  0  0  0  0  0  0  0  0  0
   44.1520   34.6970   42.9180 C   0  0  0  0  0  0  0  0  0  0  0  0
   44.8700   33.5730   43.1240 N   0  0  0  0  0  0  0  0  0  0  0  0
   45.6250   33.4260   44.2590 C   0  0  0  0  0  0  0  0  0  0  0  0
   45.6470   34.4220   45.1820 N   0  0  0  0  0  0  0  0  0  0  0  0
   46.3940   32.2240   44.4830 C   0  0  0  0  0  0  0  0  0  0  0  0
   47.0230   31.4270   43.5220 C   0  0  0  0  0  0  0  0  0  0  0  0
   47.6460   30.3880   44.1170 N   0  0  0  0  0  0  0  0  0  0  0  0
   47.4120   30.5270   45.4530 C   0  0  0  0  0  0  0  0  0  0  0  0
   46.6560   31.6370   45.6690 N   0  0  0  0  0  0  0  0  0  0  0  0
   47.8890   29.6430   46.4630 N   0  0  0  0  0  0  0  0  0  0  0  0
   48.6500   30.0370   47.5260 C   0  0  0  0  0  0  0  0  0  0  0  0
   48.9260   28.9650   48.2820 N   0  0  0  0  0  0  0  0  0  0  0  0
   48.3690   27.8640   47.7500 C   0  0  0  0  0  0  0  0  0  0  0  0
   48.3050   26.5220   48.0610 C   0  0  0  0  0  0  0  0  0  0  0  0
   47.6350   25.6190   47.2920 N   0  0  0  0  0  0  0  0  0  0  0  0
   47.0140   26.1060   46.1780 C   0  0  0  0  0  0  0  0  0  0  0  0
   47.0530   27.4260   45.8380 N   0  0  0  0  0  0  0  0  0  0  0  0
   47.7280   28.3120   46.6180 C   0  0  0  0  0  0  0  0  0  0  0  0
   46.1930   32.1320   46.9450 C   0  0  0  0  0  0  0  0  0  0  0  0
   45.9700   31.0870   47.8700 F   0  0  0  0  0  0  0  0  0  0  0  0
   45.0080   32.8640   46.8400 F   0  0  0  0  0  0  0  0  0  0  0  0
   47.1550   32.9200   47.5490 F   0  0  0  0  0  0  0  0  0  0  0  0
   49.0150   26.1790   49.2690 N   0  0  0  0  0  0  0  0  0  0  0  0
   43.3570   34.8880   41.7550 N   0  0  0  0  0  0  0  0  0  0  0  0
   42.0790   35.2710   41.7010 C   0  0  0  0  0  0  0  0  0  0  0  0
   41.4530   35.4100   40.4820 C   0  0  0  0  0  0  0  0  0  0  0  0
   42.0980   35.1670   39.2920 C   0  0  0  0  0  0  0  0  0  0  0  0
   41.5340   35.2910   38.1860 O   0  0  0  0  0  0  0  0  0  0  0  0
   43.3820   34.7830   39.3880 N   0  0  0  0  0  0  0  0  0  0  0  0
   43.9990   34.6470   40.5950 C   0  0  0  0  0  0  0  0  0  0  0  0
   45.2200   34.2760   40.5090 O   0  0  0  0  0  0  0  0  0  0  0  0
   40.0420   35.8330   40.4330 C   0  0  0  0  0  0  0  0  0  0  0  0
   44.9733   36.3522   45.7704 H   0  0  0  0  0  0  0  0  0  0  0  0
   43.5738   36.6409   43.6726 H   0  0  0  0  0  0  0  0  0  0  0  0
   47.0118   31.6187   42.4389 H   0  0  0  0  0  0  0  0  0  0  0  0
   48.9822   31.0658   47.7288 H   0  0  0  0  0  0  0  0  0  0  0  0
   46.4621   25.4082   45.5311 H   0  0  0  0  0  0  0  0  0  0  0  0
   49.0332   25.2025   49.5960 H   0  0  0  0  0  0  0  0  0  0  0  0
   49.5037   26.9106   49.8045 H   0  0  0  0  0  0  0  0  0  0  0  0
   41.5262   35.4755   42.6298 H   0  0  0  0  0  0  0  0  0  0  0  0
   43.9131   34.5866   38.5276 H   0  0  0  0  0  0  0  0  0  0  0  0
   39.6579   35.9481   41.4573 H   0  0  0  0  0  0  0  0  0  0  0  0
   39.9654   36.7936   39.9026 H   0  0  0  0  0  0  0  0  0  0  0  0
   39.4496   35.0730   39.9026 H   0  0  0  0  0  0  0  0  0  0  0  0
  1  6  2  0
  2  1  1  0
  3  4  1  0
  3  2  2  0
  4  5  2  0
  5  7  1  0
  5  6  1  0
  7 11  1  0
  8  9  1  0
  8  7  2  0
  9 10  2  0
 10 11  1  0
 10 12  1  0
 11 21  1  0
 12 20  1  0
 12 13  1  0
 13 14  2  0
 15 16  2  0
 15 14  1  0
 16 25  1  0
 17 16  1  0
 18 17  2  0
 19 18  1  0
 19 20  2  0
 20 15  1  0
 21 24  1  0
 21 22  1  0
 23 21  1  0
 26  3  1  0
 27 26  1  0
 28 27  2  0
 29 31  1  0
 29 28  1  0
 30 29  2  0
 31 32  1  0
 32 26  1  0
 33 32  2  0
 34 28  1  0
  1 35  1  0
  2 36  1  0
  8 37  1  0
 13 38  1  0
 18 39  1  0
 25 40  1  0
 25 41  1  0
 27 42  1  0
 31 43  1  0
 34 44  1  0
 34 45  1  0
 34 46  1  0
M  ISO  8  35  14  36  14  37  14  38  14  39  14  42  14  43   9  44   8
M  ISO  2  45   8  46   8
M  END
>  <minimizedAffinity>  (1) 
-7.04820871

>  <minimizedRMSD>  (1) 
1.02428997

$$$$
