
     RDKit          3D

 47 50  0  0  0  0  0  0  0  0999 V2000
   47.5920   30.5870   44.5960 C   0  0  0  0  0  0  0  0  0  0  0  0
   44.9790   35.0640   44.4260 C   0  0  0  0  0  0  0  0  0  0  0  0
   44.6850   34.5040   43.1880 C   0  0  0  0  0  0  0  0  0  0  0  0
   44.9040   33.1510   43.0160 C   0  0  0  0  0  0  0  0  0  0  0  0
   45.3940   32.4940   44.0910 N   0  0  0  0  0  0  0  0  0  0  0  0
   45.6780   32.9760   45.2520 C   0  0  0  0  0  0  0  0  0  0  0  0
   45.4680   34.2780   45.4220 N   0  0  0  0  0  0  0  0  0  0  0  0
   46.1680   32.1010   46.2090 N   0  0  0  0  0  0  0  0  0  0  0  0
   47.0010   31.0690   45.8850 C   0  0  0  0  0  0  0  0  0  0  0  0
   47.2890   30.4190   47.0230 N   0  0  0  0  0  0  0  0  0  0  0  0
   46.6320   31.0590   48.0180 C   0  0  0  0  0  0  0  0  0  0  0  0
   45.9400   32.0980   47.5170 N   0  0  0  0  0  0  0  0  0  0  0  0
   46.6290   30.7340   49.4190 N   0  0  0  0  0  0  0  0  0  0  0  0
   44.1580   35.4210   42.1540 C   0  0  0  0  0  0  0  0  0  0  0  0
   44.6340   35.0340   40.8980 F   0  0  0  0  0  0  0  0  0  0  0  0
   44.5650   36.7520   42.3330 F   0  0  0  0  0  0  0  0  0  0  0  0
   42.7990   35.3790   42.0760 F   0  0  0  0  0  0  0  0  0  0  0  0
   48.2140   31.7280   43.7830 C   0  0  0  0  0  0  0  0  0  0  0  0
   48.7700   29.6330   44.8770 C   0  0  0  0  0  0  0  0  0  0  0  0
   46.5990   29.9120   43.7160 C   0  0  0  0  0  0  0  0  0  0  0  0
   46.1780   28.6750   44.4520 N   0  0  0  0  0  0  0  0  0  0  0  0
   47.0420   27.6690   44.7800 C   0  0  0  0  0  0  0  0  0  0  0  0
   46.3700   26.7010   45.4290 N   0  0  0  0  0  0  0  0  0  0  0  0
   45.0910   27.0720   45.5220 C   0  0  0  0  0  0  0  0  0  0  0  0
   43.9190   26.5510   46.0530 C   0  0  0  0  0  0  0  0  0  0  0  0
   43.9650   25.4310   46.6220 O   0  0  0  0  0  0  0  0  0  0  0  0
   42.7450   27.2340   45.9620 N   0  0  0  0  0  0  0  0  0  0  0  0
   42.6650   28.4340   45.3600 C   0  0  0  0  0  0  0  0  0  0  0  0
   41.4670   29.1890   45.2360 N   0  0  0  0  0  0  0  0  0  0  0  0
   43.8140   28.9510   44.8360 N   0  0  0  0  0  0  0  0  0  0  0  0
   44.9790   28.2840   44.9200 C   0  0  0  0  0  0  0  0  0  0  0  0
   44.8168   36.1381   44.5991 H   0  0  0  0  0  0  0  0  0  0  0  0
   44.6931   32.6406   42.0647 H   0  0  0  0  0  0  0  0  0  0  0  0
   46.0826   31.3055   50.0791 H   0  0  0  0  0  0  0  0  0  0  0  0
   47.1732   29.9297   49.7623 H   0  0  0  0  0  0  0  0  0  0  0  0
   48.6261   32.4839   44.4677 H   0  0  0  0  0  0  0  0  0  0  0  0
   49.0197   31.3296   43.1489 H   0  0  0  0  0  0  0  0  0  0  0  0
   47.4426   32.1893   43.1489 H   0  0  0  0  0  0  0  0  0  0  0  0
   48.9033   29.5251   45.9636 H   0  0  0  0  0  0  0  0  0  0  0  0
   48.5584   28.6487   44.4340 H   0  0  0  0  0  0  0  0  0  0  0  0
   49.6889   30.0446   44.4340 H   0  0  0  0  0  0  0  0  0  0  0  0
   47.0584   29.6471   42.7523 H   0  0  0  0  0  0  0  0  0  0  0  0
   45.7415   30.5650   43.4965 H   0  0  0  0  0  0  0  0  0  0  0  0
   48.1175   27.6530   44.5498 H   0  0  0  0  0  0  0  0  0  0  0  0
   41.8930   26.8196   46.3660 H   0  0  0  0  0  0  0  0  0  0  0  0
   41.4810   30.1028   44.7609 H   0  0  0  0  0  0  0  0  0  0  0  0
   40.5849   28.8223   45.6212 H   0  0  0  0  0  0  0  0  0  0  0  0
  1 19  1  0
  1  9  1  0
  2  7  2  0
  3  2  1  0
  4  3  2  0
  4  5  1  0
  5  6  2  0
  6  7  1  0
  6  8  1  0
  8 12  1  0
  9  8  1  0
  9 10  2  0
 10 11  1  0
 11 13  1  0
 12 11  2  0
 14 16  1  0
 14  3  1  0
 15 14  1  0
 17 14  1  0
 18  1  1  0
 20 21  1  0
 20  1  1  0
 21 22  1  0
 21 31  1  0
 22 23  2  0
 23 24  1  0
 24 25  1  0
 25 26  2  0
 27 25  1  0
 28 27  1  0
 29 28  1  0
 30 31  1  0
 30 28  2  0
 31 24  2  0
  2 32  1  0
  4 33  1  0
 13 34  1  0
 13 35  1  0
 18 36  1  0
 18 37  1  0
 18 38  1  0
 19 39  1  0
 19 40  1  0
 19 41  1  0
 20 42  1  0
 20 43  1  0
 22 44  1  0
 27 45  1  0
 29 46  1  0
 29 47  1  0
M  ISO  8  32  14  33  14  36   8  37   8  38   8  39   8  40   8  41   8
M  ISO  4  42   8  43   8  44  14  45   9
M  END
>  <minimizedAffinity>  (1) 
-5.80317688

>  <minimizedRMSD>  (1) 
1.19212508

$$$$
