
     RDKit          3D

 47 49  0  0  0  0  0  0  0  0999 V2000
   45.1440   35.0740   44.4170 C   0  0  0  0  0  0  0  0  0  0  0  0
   44.7240   34.4610   43.2390 C   0  0  0  0  0  0  0  0  0  0  0  0
   44.8590   33.0740   43.1230 C   0  0  0  0  0  0  0  0  0  0  0  0
   45.3950   32.4570   44.1930 N   0  0  0  0  0  0  0  0  0  0  0  0
   45.7940   32.9950   45.3000 C   0  0  0  0  0  0  0  0  0  0  0  0
   45.6700   34.3200   45.4210 N   0  0  0  0  0  0  0  0  0  0  0  0
   46.3170   32.1550   46.2700 N   0  0  0  0  0  0  0  0  0  0  0  0
   47.0920   31.0880   45.9440 C   0  0  0  0  0  0  0  0  0  0  0  0
   47.4460   30.4720   47.0890 N   0  0  0  0  0  0  0  0  0  0  0  0
   46.8750   31.1820   48.0840 C   0  0  0  0  0  0  0  0  0  0  0  0
   46.1790   32.2200   47.5870 N   0  0  0  0  0  0  0  0  0  0  0  0
   46.9460   30.9030   49.4900 N   0  0  0  0  0  0  0  0  0  0  0  0
   44.1620   35.3270   42.1790 C   0  0  0  0  0  0  0  0  0  0  0  0
   44.6520   34.9390   40.9260 F   0  0  0  0  0  0  0  0  0  0  0  0
   44.5240   36.6740   42.3370 F   0  0  0  0  0  0  0  0  0  0  0  0
   42.8070   35.2560   42.1130 F   0  0  0  0  0  0  0  0  0  0  0  0
   47.5800   30.4770   44.6490 C   0  0  0  0  0  0  0  0  0  0  0  0
   48.0770   31.5730   43.6860 C   0  0  0  0  0  0  0  0  0  0  0  0
   48.8280   29.6250   44.8790 C   0  0  0  0  0  0  0  0  0  0  0  0
   46.5060   29.7400   43.9210 C   0  0  0  0  0  0  0  0  0  0  0  0
   45.7660   28.7600   44.6620 N   0  0  0  0  0  0  0  0  0  0  0  0
   45.9760   27.3970   44.3710 C   0  0  0  0  0  0  0  0  0  0  0  0
   44.6930   26.6110   44.7040 C   0  0  0  0  0  0  0  0  0  0  0  0
   44.1410   27.2160   45.9000 N   0  0  0  0  0  0  0  0  0  0  0  0
   43.6190   28.5420   45.6940 C   0  0  0  0  0  0  0  0  0  0  0  0
   44.3570   29.1100   44.4990 C   0  0  0  0  0  0  0  0  0  0  0  0
   45.0510   36.1636   44.5357 H   0  0  0  0  0  0  0  0  0  0  0  0
   44.5491   32.5257   42.2212 H   0  0  0  0  0  0  0  0  0  0  0  0
   46.4669   31.5191   50.1621 H   0  0  0  0  0  0  0  0  0  0  0  0
   47.4761   30.0867   49.8269 H   0  0  0  0  0  0  0  0  0  0  0  0
   48.4628   32.4239   44.2667 H   0  0  0  0  0  0  0  0  0  0  0  0
   48.8794   31.1677   43.0520 H   0  0  0  0  0  0  0  0  0  0  0  0
   47.2435   31.9096   43.0520 H   0  0  0  0  0  0  0  0  0  0  0  0
   48.9985   29.5086   45.9595 H   0  0  0  0  0  0  0  0  0  0  0  0
   48.6854   28.6349   44.4215 H   0  0  0  0  0  0  0  0  0  0  0  0
   49.6982   30.1184   44.4215 H   0  0  0  0  0  0  0  0  0  0  0  0
   45.7876   30.4850   43.5482 H   0  0  0  0  0  0  0  0  0  0  0  0
   47.0319   29.1689   43.1418 H   0  0  0  0  0  0  0  0  0  0  0  0
   46.2139   27.2799   43.3034 H   0  0  0  0  0  0  0  0  0  0  0  0
   46.8141   27.0131   44.9711 H   0  0  0  0  0  0  0  0  0  0  0  0
   43.9750   26.6854   43.8739 H   0  0  0  0  0  0  0  0  0  0  0  0
   44.9085   25.5437   44.8602 H   0  0  0  0  0  0  0  0  0  0  0  0
   43.3774   26.6165   46.2442 H   0  0  0  0  0  0  0  0  0  0  0  0
   42.5392   28.4984   45.4890 H   0  0  0  0  0  0  0  0  0  0  0  0
   43.7605   29.1699   46.5860 H   0  0  0  0  0  0  0  0  0  0  0  0
   44.2404   30.2034   44.4676 H   0  0  0  0  0  0  0  0  0  0  0  0
   43.9568   28.7011   43.5595 H   0  0  0  0  0  0  0  0  0  0  0  0
  1  6  2  0
  2  1  1  0
  3  2  2  0
  3  4  1  0
  4  5  2  0
  5  6  1  0
  5  7  1  0
  7 11  1  0
  8  7  1  0
  8  9  2  0
  9 10  1  0
 10 12  1  0
 11 10  2  0
 13 15  1  0
 13  2  1  0
 14 13  1  0
 16 13  1  0
 17 19  1  0
 17  8  1  0
 18 17  1  0
 20 17  1  0
 20 21  1  0
 22 21  1  0
 22 23  1  0
 23 24  1  0
 25 24  1  0
 26 21  1  0
 26 25  1  0
  1 27  1  0
  3 28  1  0
 12 29  1  0
 12 30  1  0
 18 31  1  0
 18 32  1  0
 18 33  1  0
 19 34  1  0
 19 35  1  0
 19 36  1  0
 20 37  1  0
 20 38  1  0
 22 39  1  0
 22 40  1  0
 23 41  1  0
 23 42  1  0
 24 43  1  0
 25 44  1  0
 25 45  1  0
 26 46  1  0
 26 47  1  0
M  ISO  8  27  14  28  14  31   8  32   8  33   8  34   8  35   8  36   8
M  ISO  8  37   8  38   8  39  13  40  13  41  13  42  13  43   5  44  13
M  ISO  3  45  13  46  13  47  13
M  END
>  <minimizedAffinity>  (1) 
-5.08023453

>  <minimizedRMSD>  (1) 
0.952479601

$$$$
