
     RDKit          3D

 44 47  0  0  0  0  0  0  0  0999 V2000
   44.8390   35.7570   44.8930 C   0  0  0  0  0  0  0  0  0  0  0  0
   44.0490   35.8540   43.7220 C   0  0  0  0  0  0  0  0  0  0  0  0
   44.0770   34.7940   42.8410 C   0  0  0  0  0  0  0  0  0  0  0  0
   44.8300   33.7010   43.0900 N   0  0  0  0  0  0  0  0  0  0  0  0
   45.5850   33.6260   44.2270 C   0  0  0  0  0  0  0  0  0  0  0  0
   45.5800   34.6560   45.1160 N   0  0  0  0  0  0  0  0  0  0  0  0
   46.3980   32.4470   44.4950 C   0  0  0  0  0  0  0  0  0  0  0  0
   47.0500   31.6380   43.5690 C   0  0  0  0  0  0  0  0  0  0  0  0
   47.7070   30.6360   44.2080 N   0  0  0  0  0  0  0  0  0  0  0  0
   47.4570   30.8300   45.5400 C   0  0  0  0  0  0  0  0  0  0  0  0
   46.6700   31.9180   45.7110 N   0  0  0  0  0  0  0  0  0  0  0  0
   47.9870   29.9640   46.5370 N   0  0  0  0  0  0  0  0  0  0  0  0
   48.2230   28.7170   46.0550 C   0  0  0  0  0  0  0  0  0  0  0  0
   48.7420   27.7290   46.8820 C   0  0  0  0  0  0  0  0  0  0  0  0
   49.0080   28.0670   48.2120 C   0  0  0  0  0  0  0  0  0  0  0  0
   49.5420   27.0640   49.0770 N   0  0  0  0  0  0  0  0  0  0  0  0
   48.7550   29.3220   48.6470 N   0  0  0  0  0  0  0  0  0  0  0  0
   48.2520   30.2600   47.8230 C   0  0  0  0  0  0  0  0  0  0  0  0
   47.9960   31.4330   48.1530 O   0  0  0  0  0  0  0  0  0  0  0  0
   46.1920   32.4450   46.9640 C   0  0  0  0  0  0  0  0  0  0  0  0
   45.9060   31.4240   47.9050 F   0  0  0  0  0  0  0  0  0  0  0  0
   45.0420   33.2190   46.8060 F   0  0  0  0  0  0  0  0  0  0  0  0
   47.1630   33.2240   47.5850 F   0  0  0  0  0  0  0  0  0  0  0  0
   43.2760   34.9080   41.6640 N   0  0  0  0  0  0  0  0  0  0  0  0
   41.9750   35.2580   41.6030 C   0  0  0  0  0  0  0  0  0  0  0  0
   41.3410   35.3220   40.3840 C   0  0  0  0  0  0  0  0  0  0  0  0
   42.0040   35.0360   39.2060 C   0  0  0  0  0  0  0  0  0  0  0  0
   41.4200   35.0960   38.0940 O   0  0  0  0  0  0  0  0  0  0  0  0
   43.2950   34.6910   39.3070 N   0  0  0  0  0  0  0  0  0  0  0  0
   43.9110   34.6310   40.5260 C   0  0  0  0  0  0  0  0  0  0  0  0
   45.1420   34.2880   40.4490 O   0  0  0  0  0  0  0  0  0  0  0  0
   39.9210   35.7070   40.3270 C   0  0  0  0  0  0  0  0  0  0  0  0
   44.8471   36.5819   45.6207 H   0  0  0  0  0  0  0  0  0  0  0  0
   43.4343   36.7441   43.5222 H   0  0  0  0  0  0  0  0  0  0  0  0
   47.0353   31.7882   42.4794 H   0  0  0  0  0  0  0  0  0  0  0  0
   48.0017   28.4874   45.0022 H   0  0  0  0  0  0  0  0  0  0  0  0
   48.9371   26.7149   46.5031 H   0  0  0  0  0  0  0  0  0  0  0  0
   49.7464   27.2884   50.0612 H   0  0  0  0  0  0  0  0  0  0  0  0
   49.7227   26.1162   48.7166 H   0  0  0  0  0  0  0  0  0  0  0  0
   41.4226   35.4915   42.5251 H   0  0  0  0  0  0  0  0  0  0  0  0
   43.8299   34.4682   38.4555 H   0  0  0  0  0  0  0  0  0  0  0  0
   39.5286   35.8134   41.3491 H   0  0  0  0  0  0  0  0  0  0  0  0
   39.8218   36.6645   39.7946 H   0  0  0  0  0  0  0  0  0  0  0  0
   39.3517   34.9308   39.7946 H   0  0  0  0  0  0  0  0  0  0  0  0
  1  6  2  0
  2  1  1  0
  3  4  1  0
  3  2  2  0
  4  5  2  0
  5  7  1  0
  5  6  1  0
  7 11  1  0
  8  9  1  0
  8  7  2  0
  9 10  2  0
 10 11  1  0
 10 12  1  0
 11 20  1  0
 12 18  1  0
 13 12  1  0
 13 14  2  0
 14 15  1  0
 15 17  2  0
 15 16  1  0
 18 19  2  0
 18 17  1  0
 20 23  1  0
 20 21  1  0
 22 20  1  0
 24  3  1  0
 25 24  1  0
 26 25  2  0
 27 29  1  0
 27 26  1  0
 28 27  2  0
 29 30  1  0
 30 24  1  0
 31 30  2  0
 32 26  1  0
  1 33  1  0
  2 34  1  0
  8 35  1  0
 13 36  1  0
 14 37  1  0
 16 38  1  0
 16 39  1  0
 25 40  1  0
 29 41  1  0
 32 42  1  0
 32 43  1  0
 32 44  1  0
M  ISO  8  33  14  34  14  35  14  36  14  37  14  40  14  41   9  42   8
M  ISO  2  43   8  44   8
M  END
>  <minimizedAffinity>  (1) 
-6.9904623

>  <minimizedRMSD>  (1) 
0.94776082

$$$$
