
     RDKit          3D

 47 50  0  0  0  0  0  0  0  0999 V2000
   47.6260   30.6040   44.5150 C   0  0  0  0  0  0  0  0  0  0  0  0
   45.0760   35.1240   44.4800 C   0  0  0  0  0  0  0  0  0  0  0  0
   44.7010   34.5620   43.2580 C   0  0  0  0  0  0  0  0  0  0  0  0
   44.8770   33.1980   43.0830 C   0  0  0  0  0  0  0  0  0  0  0  0
   45.4070   32.5400   44.1350 N   0  0  0  0  0  0  0  0  0  0  0  0
   45.7650   33.0190   45.2740 C   0  0  0  0  0  0  0  0  0  0  0  0
   45.6010   34.3320   45.4580 N   0  0  0  0  0  0  0  0  0  0  0  0
   46.2960   32.1460   46.2110 N   0  0  0  0  0  0  0  0  0  0  0  0
   47.0970   31.1110   45.8420 C   0  0  0  0  0  0  0  0  0  0  0  0
   47.4470   30.4570   46.9670 N   0  0  0  0  0  0  0  0  0  0  0  0
   46.8490   31.1090   47.9930 C   0  0  0  0  0  0  0  0  0  0  0  0
   46.1380   32.1510   47.5260 N   0  0  0  0  0  0  0  0  0  0  0  0
   46.9250   30.7870   49.3920 N   0  0  0  0  0  0  0  0  0  0  0  0
   44.1450   35.4830   42.2410 C   0  0  0  0  0  0  0  0  0  0  0  0
   44.5610   35.0890   40.9710 F   0  0  0  0  0  0  0  0  0  0  0  0
   44.5790   36.8090   42.4030 F   0  0  0  0  0  0  0  0  0  0  0  0
   42.7840   35.4640   42.2220 F   0  0  0  0  0  0  0  0  0  0  0  0
   48.1470   31.7650   43.6660 C   0  0  0  0  0  0  0  0  0  0  0  0
   48.8530   29.7110   44.7610 C   0  0  0  0  0  0  0  0  0  0  0  0
   46.5910   29.8700   43.7410 C   0  0  0  0  0  0  0  0  0  0  0  0
   46.9200   29.7980   42.2490 C   0  0  0  0  0  0  0  0  0  0  0  0
   48.0620   29.5450   41.5230 C   0  0  0  0  0  0  0  0  0  0  0  0
   47.8440   29.5820   40.2010 N   0  0  0  0  0  0  0  0  0  0  0  0
   46.5410   29.8620   40.0520 C   0  0  0  0  0  0  0  0  0  0  0  0
   45.7570   30.0210   38.9250 C   0  0  0  0  0  0  0  0  0  0  0  0
   44.4140   30.3120   39.0100 C   0  0  0  0  0  0  0  0  0  0  0  0
   43.8150   30.4510   40.2280 C   0  0  0  0  0  0  0  0  0  0  0  0
   44.5700   30.2970   41.3790 C   0  0  0  0  0  0  0  0  0  0  0  0
   45.9350   30.0020   41.2670 C   0  0  0  0  0  0  0  0  0  0  0  0
   44.9482   36.2027   44.6532 H   0  0  0  0  0  0  0  0  0  0  0  0
   44.6028   32.6863   42.1487 H   0  0  0  0  0  0  0  0  0  0  0  0
   46.4214   31.3634   50.0812 H   0  0  0  0  0  0  0  0  0  0  0  0
   47.4831   29.9799   49.7051 H   0  0  0  0  0  0  0  0  0  0  0  0
   48.5075   32.5684   44.3252 H   0  0  0  0  0  0  0  0  0  0  0  0
   48.9735   31.4130   43.0311 H   0  0  0  0  0  0  0  0  0  0  0  0
   47.3346   32.1484   43.0311 H   0  0  0  0  0  0  0  0  0  0  0  0
   49.0115   29.5957   45.8434 H   0  0  0  0  0  0  0  0  0  0  0  0
   48.6842   28.7230   44.3078 H   0  0  0  0  0  0  0  0  0  0  0  0
   49.7412   30.1754   44.3078 H   0  0  0  0  0  0  0  0  0  0  0  0
   46.5148   28.8461   44.1357 H   0  0  0  0  0  0  0  0  0  0  0  0
   45.6419   30.4155   43.8491 H   0  0  0  0  0  0  0  0  0  0  0  0
   49.0422   29.3362   41.9764 H   0  0  0  0  0  0  0  0  0  0  0  0
   48.5352   29.4272   39.4532 H   0  0  0  0  0  0  0  0  0  0  0  0
   46.2188   29.9120   37.9326 H   0  0  0  0  0  0  0  0  0  0  0  0
   43.8210   30.4330   38.0915 H   0  0  0  0  0  0  0  0  0  0  0  0
   42.7419   30.6833   40.2953 H   0  0  0  0  0  0  0  0  0  0  0  0
   44.1034   30.4050   42.3693 H   0  0  0  0  0  0  0  0  0  0  0  0
  1 19  1  0
  1  9  1  0
  2  7  2  0
  3  2  1  0
  4  3  2  0
  4  5  1  0
  5  6  2  0
  6  7  1  0
  6  8  1  0
  8 12  1  0
  9  8  1  0
  9 10  2  0
 10 11  1  0
 11 13  1  0
 12 11  2  0
 14 16  1  0
 14  3  1  0
 15 14  1  0
 17 14  1  0
 18  1  1  0
 20  1  1  0
 21 20  1  0
 22 21  2  0
 23 22  1  0
 24 23  1  0
 24 29  2  0
 25 26  2  0
 25 24  1  0
 26 27  1  0
 27 28  2  0
 29 28  1  0
 29 21  1  0
  2 30  1  0
  4 31  1  0
 13 32  1  0
 13 33  1  0
 18 34  1  0
 18 35  1  0
 18 36  1  0
 19 37  1  0
 19 38  1  0
 19 39  1  0
 20 40  1  0
 20 41  1  0
 22 42  1  0
 23 43  1  0
 25 44  1  0
 26 45  1  0
 27 46  1  0
 28 47  1  0
M  ISO  8  30  14  31  14  34   8  35   8  36   8  37   8  38   8  39   8
M  ISO  8  40   8  41   8  42  14  43   9  44  14  45  14  46  14  47  14
M  END
>  <minimizedAffinity>  (1) 
-4.87562943

>  <minimizedRMSD>  (1) 
1.10371959

$$$$
