
     RDKit          3D

 53 56  0  0  0  0  0  0  0  0999 V2000
   46.4080   31.2130   46.9630 C   0  0  0  0  0  0  0  0  0  0  0  0
   44.1140   26.5950   47.4200 C   0  0  0  0  0  0  0  0  0  0  0  0
   43.3780   27.2140   46.4080 C   0  0  0  0  0  0  0  0  0  0  0  0
   43.9240   28.3230   45.7820 C   0  0  0  0  0  0  0  0  0  0  0  0
   45.1500   28.6590   46.2680 N   0  0  0  0  0  0  0  0  0  0  0  0
   45.8610   28.1520   47.1610 C   0  0  0  0  0  0  0  0  0  0  0  0
   45.3350   27.0840   47.7660 N   0  0  0  0  0  0  0  0  0  0  0  0
   47.0970   28.7100   47.4130 N   0  0  0  0  0  0  0  0  0  0  0  0
   47.3000   30.0300   47.3270 C   0  0  0  0  0  0  0  0  0  0  0  0
   48.5900   30.2430   47.6470 N   0  0  0  0  0  0  0  0  0  0  0  0
   49.1340   29.0410   47.9190 C   0  0  0  0  0  0  0  0  0  0  0  0
   48.2100   28.0970   47.7720 N   0  0  0  0  0  0  0  0  0  0  0  0
   50.4860   28.7570   48.3190 N   0  0  0  0  0  0  0  0  0  0  0  0
   42.0630   26.6300   46.0660 C   0  0  0  0  0  0  0  0  0  0  0  0
   41.1560   27.6560   45.7530 F   0  0  0  0  0  0  0  0  0  0  0  0
   41.5070   25.9070   47.1230 F   0  0  0  0  0  0  0  0  0  0  0  0
   42.1180   25.8060   44.9760 F   0  0  0  0  0  0  0  0  0  0  0  0
   45.1650   31.2440   47.8120 C   0  0  0  0  0  0  0  0  0  0  0  0
   47.1690   32.5040   47.3760 C   0  0  0  0  0  0  0  0  0  0  0  0
   46.0500   31.2330   45.5230 C   0  0  0  0  0  0  0  0  0  0  0  0
   46.0820   32.5760   44.8840 C   0  0  0  0  0  0  0  0  0  0  0  0
   45.3310   33.7570   45.0250 C   0  0  0  0  0  0  0  0  0  0  0  0
   45.9280   34.6650   44.2550 N   0  0  0  0  0  0  0  0  0  0  0  0
   46.9970   34.0610   43.6610 C   0  0  0  0  0  0  0  0  0  0  0  0
   47.1100   32.7550   44.0320 N   0  0  0  0  0  0  0  0  0  0  0  0
   48.2580   32.4320   43.1820 C   0  0  0  0  0  0  0  0  0  0  0  0
   48.1140   32.8130   41.7620 C   0  0  0  0  0  0  0  0  0  0  0  0
   47.9200   31.5900   40.9180 C   0  0  0  0  0  0  0  0  0  0  0  0
   48.1610   30.4050   41.7810 C   0  0  0  0  0  0  0  0  0  0  0  0
   48.5720   30.9490   43.0780 C   0  0  0  0  0  0  0  0  0  0  0  0
   43.7071   25.7133   47.9367 H   0  0  0  0  0  0  0  0  0  0  0  0
   43.4188   28.8748   44.9756 H   0  0  0  0  0  0  0  0  0  0  0  0
   50.7768   27.7852   48.4980 H   0  0  0  0  0  0  0  0  0  0  0  0
   51.1635   29.5254   48.4265 H   0  0  0  0  0  0  0  0  0  0  0  0
   45.4469   31.2370   48.8752 H   0  0  0  0  0  0  0  0  0  0  0  0
   44.5924   32.1567   47.5905 H   0  0  0  0  0  0  0  0  0  0  0  0
   44.5476   30.3610   47.5905 H   0  0  0  0  0  0  0  0  0  0  0  0
   47.2086   32.5711   48.4732 H   0  0  0  0  0  0  0  0  0  0  0  0
   48.1922   32.4711   46.9735 H   0  0  0  0  0  0  0  0  0  0  0  0
   46.6447   33.3833   46.9735 H   0  0  0  0  0  0  0  0  0  0  0  0
   46.7575   30.5834   44.9868 H   0  0  0  0  0  0  0  0  0  0  0  0
   45.0070   30.8890   45.4616 H   0  0  0  0  0  0  0  0  0  0  0  0
   44.4337   33.9012   45.6448 H   0  0  0  0  0  0  0  0  0  0  0  0
   47.6843   34.5668   42.9669 H   0  0  0  0  0  0  0  0  0  0  0  0
   49.0383   33.0074   43.7016 H   0  0  0  0  0  0  0  0  0  0  0  0
   47.2426   33.4748   41.6494 H   0  0  0  0  0  0  0  0  0  0  0  0
   49.0252   33.3353   41.4351 H   0  0  0  0  0  0  0  0  0  0  0  0
   46.8930   31.5648   40.5247 H   0  0  0  0  0  0  0  0  0  0  0  0
   48.6155   31.5948   40.0658 H   0  0  0  0  0  0  0  0  0  0  0  0
   47.2409   29.8113   41.8862 H   0  0  0  0  0  0  0  0  0  0  0  0
   48.9241   29.7364   41.3561 H   0  0  0  0  0  0  0  0  0  0  0  0
   48.0376   30.4132   43.8764 H   0  0  0  0  0  0  0  0  0  0  0  0
   49.6594   30.8175   43.1796 H   0  0  0  0  0  0  0  0  0  0  0  0
  1  9  1  0
  1 19  1  0
  1 18  1  0
  2  7  2  0
  3  2  1  0
  4  5  1  0
  4  3  2  0
  5  6  2  0
  6  8  1  0
  6  7  1  0
  8 12  1  0
  9  8  1  0
  9 10  2  0
 10 11  1  0
 11 13  1  0
 12 11  2  0
 14  3  1  0
 14 16  1  0
 15 14  1  0
 17 14  1  0
 20  1  1  0
 21 22  2  0
 21 20  1  0
 23 22  1  0
 24 25  1  0
 24 23  2  0
 25 21  1  0
 26 25  1  0
 27 26  1  0
 28 27  1  0
 28 29  1  0
 29 30  1  0
 30 26  1  0
  2 31  1  0
  4 32  1  0
 13 33  1  0
 13 34  1  0
 18 35  1  0
 18 36  1  0
 18 37  1  0
 19 38  1  0
 19 39  1  0
 19 40  1  0
 20 41  1  0
 20 42  1  0
 22 43  1  0
 24 44  1  0
 26 45  1  0
 27 46  1  0
 27 47  1  0
 28 48  1  0
 28 49  1  0
 29 50  1  0
 29 51  1  0
 30 52  1  0
 30 53  1  0
M  ISO  8  31  14  32  14  35   8  36   8  37   8  38   8  39   8  40   8
M  ISO  8  41   8  42   8  43  14  44  14  45  13  46  13  47  13  48  13
M  ISO  5  49  13  50  13  51  13  52  13  53  13
M  END
>  <minimizedAffinity>  (1) 
-5.11408854

>  <minimizedRMSD>  (1) 
6.5637641

$$$$
