
     RDKit          3D

 33 36  0  0  0  0  0  0  0  0999 V2000
   44.5610   35.9810   44.4740 C   0  0  0  0  0  0  0  0  0  0  0  0
   45.3630   35.7950   43.3450 C   0  0  0  0  0  0  0  0  0  0  0  0
   46.2520   34.7060   43.3190 C   0  0  0  0  0  0  0  0  0  0  0  0
   46.2870   33.8810   44.4030 N   0  0  0  0  0  0  0  0  0  0  0  0
   45.4900   34.0960   45.4840 C   0  0  0  0  0  0  0  0  0  0  0  0
   44.6300   35.1360   45.5270 N   0  0  0  0  0  0  0  0  0  0  0  0
   45.6220   33.1550   46.5620 N   0  0  0  0  0  0  0  0  0  0  0  0
   45.0630   33.1650   47.7920 C   0  0  0  0  0  0  0  0  0  0  0  0
   45.4770   32.0740   48.4620 N   0  0  0  0  0  0  0  0  0  0  0  0
   46.3050   31.3540   47.6700 C   0  0  0  0  0  0  0  0  0  0  0  0
   46.9890   30.1590   47.8870 C   0  0  0  0  0  0  0  0  0  0  0  0
   47.7320   29.7240   46.8660 N   0  0  0  0  0  0  0  0  0  0  0  0
   47.8110   30.4050   45.6980 C   0  0  0  0  0  0  0  0  0  0  0  0
   47.1470   31.5660   45.4840 N   0  0  0  0  0  0  0  0  0  0  0  0
   46.3830   32.0470   46.4820 C   0  0  0  0  0  0  0  0  0  0  0  0
   48.6130   29.9030   44.6420 N   0  0  0  0  0  0  0  0  0  0  0  0
   48.8250   30.4930   43.3120 C   0  0  0  0  0  0  0  0  0  0  0  0
   50.0270   29.8050   42.7610 C   0  0  0  0  0  0  0  0  0  0  0  0
   50.6750   29.2010   44.0090 C   0  0  0  0  0  0  0  0  0  0  0  0
   49.4050   28.6650   44.6840 C   0  0  0  0  0  0  0  0  0  0  0  0
   43.8616   36.8294   44.5065 H   0  0  0  0  0  0  0  0  0  0  0  0
   45.3000   36.4875   42.4926 H   0  0  0  0  0  0  0  0  0  0  0  0
   46.9004   34.5253   42.4490 H   0  0  0  0  0  0  0  0  0  0  0  0
   44.3825   33.9368   48.1810 H   0  0  0  0  0  0  0  0  0  0  0  0
   46.9212   29.6098   48.8377 H   0  0  0  0  0  0  0  0  0  0  0  0
   47.9509   30.3152   42.6683 H   0  0  0  0  0  0  0  0  0  0  0  0
   48.9658   31.5826   43.3655 H   0  0  0  0  0  0  0  0  0  0  0  0
   49.7409   29.0210   42.0444 H   0  0  0  0  0  0  0  0  0  0  0  0
   50.6968   30.4776   42.2052 H   0  0  0  0  0  0  0  0  0  0  0  0
   51.3838   28.3973   43.7609 H   0  0  0  0  0  0  0  0  0  0  0  0
   51.2843   29.8894   44.6131 H   0  0  0  0  0  0  0  0  0  0  0  0
   49.5920   28.3247   45.7132 H   0  0  0  0  0  0  0  0  0  0  0  0
   48.9456   27.7819   44.2161 H   0  0  0  0  0  0  0  0  0  0  0  0
  1  6  2  0
  2  1  1  0
  3  2  2  0
  3  4  1  0
  4  5  2  0
  5  6  1  0
  5  7  1  0
  7  8  1  0
  8  9  2  0
 10 11  2  0
 10  9  1  0
 12 11  1  0
 13 12  2  0
 14 13  1  0
 14 15  2  0
 15  7  1  0
 15 10  1  0
 16 20  1  0
 16 13  1  0
 17 16  1  0
 18 17  1  0
 18 19  1  0
 19 20  1  0
  1 21  1  0
  2 22  1  0
  3 23  1  0
  8 24  1  0
 11 25  1  0
 17 26  1  0
 17 27  1  0
 18 28  1  0
 18 29  1  0
 19 30  1  0
 19 31  1  0
 20 32  1  0
 20 33  1  0
M  ISO  8  21  14  22  14  23  14  24  14  25  14  26  13  27  13  28  13
M  ISO  5  29  13  30  13  31  13  32  13  33  13
M  END
>  <minimizedAffinity>  (1) 
-5.37425184

>  <minimizedRMSD>  (1) 
0.258931458

$$$$
