
     RDKit          3D

 43 46  0  0  0  0  0  0  0  0999 V2000
   44.8340   35.6420   45.0240 C   0  0  0  0  0  0  0  0  0  0  0  0
   44.0630   35.7650   43.8400 C   0  0  0  0  0  0  0  0  0  0  0  0
   44.1190   34.7300   42.9190 C   0  0  0  0  0  0  0  0  0  0  0  0
   44.8860   33.6370   43.1460 N   0  0  0  0  0  0  0  0  0  0  0  0
   45.6280   33.5400   44.3050 C   0  0  0  0  0  0  0  0  0  0  0  0
   45.5870   34.5420   45.2190 N   0  0  0  0  0  0  0  0  0  0  0  0
   46.4480   32.3700   44.5450 C   0  0  0  0  0  0  0  0  0  0  0  0
   47.0840   31.5800   43.5940 C   0  0  0  0  0  0  0  0  0  0  0  0
   47.7630   30.5690   44.2130 N   0  0  0  0  0  0  0  0  0  0  0  0
   47.5300   30.7540   45.5490 C   0  0  0  0  0  0  0  0  0  0  0  0
   46.7400   31.8370   45.7400 N   0  0  0  0  0  0  0  0  0  0  0  0
   48.0840   29.8800   46.5260 N   0  0  0  0  0  0  0  0  0  0  0  0
   48.4720   30.2070   47.7720 C   0  0  0  0  0  0  0  0  0  0  0  0
   48.9960   29.2650   48.6310 C   0  0  0  0  0  0  0  0  0  0  0  0
   49.0860   27.9760   48.1000 C   0  0  0  0  0  0  0  0  0  0  0  0
   49.5610   27.0800   48.8480 O   0  0  0  0  0  0  0  0  0  0  0  0
   48.7010   27.6440   46.8560 N   0  0  0  0  0  0  0  0  0  0  0  0
   48.1970   28.6070   46.0660 C   0  0  0  0  0  0  0  0  0  0  0  0
   47.8550   28.2240   44.9100 O   0  0  0  0  0  0  0  0  0  0  0  0
   46.2830   32.3450   47.0100 C   0  0  0  0  0  0  0  0  0  0  0  0
   46.0570   31.3180   47.9560 F   0  0  0  0  0  0  0  0  0  0  0  0
   45.0940   33.0670   46.8930 F   0  0  0  0  0  0  0  0  0  0  0  0
   47.2390   33.1480   47.6020 F   0  0  0  0  0  0  0  0  0  0  0  0
   43.3360   34.8800   41.7410 N   0  0  0  0  0  0  0  0  0  0  0  0
   42.0430   35.2450   41.6670 C   0  0  0  0  0  0  0  0  0  0  0  0
   41.4400   35.3400   40.4280 C   0  0  0  0  0  0  0  0  0  0  0  0
   42.1060   35.0750   39.2620 C   0  0  0  0  0  0  0  0  0  0  0  0
   41.5560   35.1610   38.1460 O   0  0  0  0  0  0  0  0  0  0  0  0
   43.3990   34.7120   39.3830 N   0  0  0  0  0  0  0  0  0  0  0  0
   43.9980   34.6170   40.5930 C   0  0  0  0  0  0  0  0  0  0  0  0
   45.2160   34.2650   40.5480 O   0  0  0  0  0  0  0  0  0  0  0  0
   40.0240   35.7420   40.3700 C   0  0  0  0  0  0  0  0  0  0  0  0
   44.8173   36.4411   45.7797 H   0  0  0  0  0  0  0  0  0  0  0  0
   43.4403   36.6533   43.6581 H   0  0  0  0  0  0  0  0  0  0  0  0
   47.0462   31.7443   42.5070 H   0  0  0  0  0  0  0  0  0  0  0  0
   48.3689   31.2479   48.1124 H   0  0  0  0  0  0  0  0  0  0  0  0
   49.3180   29.5090   49.6541 H   0  0  0  0  0  0  0  0  0  0  0  0
   48.7900   26.6756   46.5166 H   0  0  0  0  0  0  0  0  0  0  0  0
   41.4733   35.4650   42.5819 H   0  0  0  0  0  0  0  0  0  0  0  0
   43.9438   34.5020   38.5345 H   0  0  0  0  0  0  0  0  0  0  0  0
   39.6323   35.8532   41.3919 H   0  0  0  0  0  0  0  0  0  0  0  0
   39.9365   36.7005   39.8374 H   0  0  0  0  0  0  0  0  0  0  0  0
   39.4459   34.9725   39.8374 H   0  0  0  0  0  0  0  0  0  0  0  0
  1  6  2  0
  2  1  1  0
  3  4  1  0
  3  2  2  0
  4  5  2  0
  5  7  1  0
  5  6  1  0
  7 11  1  0
  8  9  1  0
  8  7  2  0
  9 10  2  0
 10 11  1  0
 10 12  1  0
 11 20  1  0
 12 13  1  0
 13 14  2  0
 15 14  1  0
 15 16  2  0
 17 15  1  0
 18 12  1  0
 18 17  1  0
 19 18  2  0
 20 23  1  0
 20 21  1  0
 22 20  1  0
 24  3  1  0
 25 24  1  0
 26 25  2  0
 27 29  1  0
 27 26  1  0
 28 27  2  0
 29 30  1  0
 30 24  1  0
 31 30  2  0
 32 26  1  0
  1 33  1  0
  2 34  1  0
  8 35  1  0
 13 36  1  0
 14 37  1  0
 17 38  1  0
 25 39  1  0
 29 40  1  0
 32 41  1  0
 32 42  1  0
 32 43  1  0
M  ISO  8  33  14  34  14  35  14  36  14  37  14  38   9  39  14  40   9
M  ISO  3  41   8  42   8  43   8
M  END
>  <minimizedAffinity>  (1) 
-6.81033802

>  <minimizedRMSD>  (1) 
0.976024926

$$$$
