
     RDKit          3D

 34 37  0  0  0  0  0  0  0  0999 V2000
   44.4710   35.8550   44.5760 C   0  0  0  0  0  0  0  0  0  0  0  0
   45.0930   36.2990   43.3840 C   0  0  0  0  0  0  0  0  0  0  0  0
   46.1470   35.5320   42.8650 C   0  0  0  0  0  0  0  0  0  0  0  0
   46.5240   34.4020   43.5240 N   0  0  0  0  0  0  0  0  0  0  0  0
   45.8950   34.0140   44.6690 C   0  0  0  0  0  0  0  0  0  0  0  0
   44.8750   34.7260   45.2010 N   0  0  0  0  0  0  0  0  0  0  0  0
   46.3840   32.8040   45.2700 N   0  0  0  0  0  0  0  0  0  0  0  0
   46.1080   32.2610   46.4680 C   0  0  0  0  0  0  0  0  0  0  0  0
   46.8080   31.1100   46.6010 N   0  0  0  0  0  0  0  0  0  0  0  0
   47.5440   30.9090   45.4750 C   0  0  0  0  0  0  0  0  0  0  0  0
   48.4180   29.8910   45.1170 C   0  0  0  0  0  0  0  0  0  0  0  0
   48.9840   30.0070   43.9110 N   0  0  0  0  0  0  0  0  0  0  0  0
   48.7050   31.0580   43.1160 C   0  0  0  0  0  0  0  0  0  0  0  0
   47.8520   32.0700   43.4430 N   0  0  0  0  0  0  0  0  0  0  0  0
   47.2570   31.9810   44.6690 C   0  0  0  0  0  0  0  0  0  0  0  0
   49.3900   31.0450   41.8510 N   0  0  0  0  0  0  0  0  0  0  0  0
   49.2660   30.1270   40.9000 C   0  0  0  0  0  0  0  0  0  0  0  0
   49.9920   30.2530   39.7380 C   0  0  0  0  0  0  0  0  0  0  0  0
   49.8630   29.2340   38.6680 C   0  0  0  0  0  0  0  0  0  0  0  0
   50.8630   31.2950   39.4870 C   0  0  0  0  0  0  0  0  0  0  0  0
   51.5320   31.4270   38.4340 O   0  0  0  0  0  0  0  0  0  0  0  0
   50.9640   32.2170   40.4830 N   0  0  0  0  0  0  0  0  0  0  0  0
   50.2460   32.0820   41.6190 C   0  0  0  0  0  0  0  0  0  0  0  0
   50.4030   32.9800   42.4840 O   0  0  0  0  0  0  0  0  0  0  0  0
   43.6427   36.4401   45.0021 H   0  0  0  0  0  0  0  0  0  0  0  0
   44.7597   37.2181   42.8798 H   0  0  0  0  0  0  0  0  0  0  0  0
   46.6599   35.8385   41.9414 H   0  0  0  0  0  0  0  0  0  0  0  0
   45.4241   32.6834   47.2188 H   0  0  0  0  0  0  0  0  0  0  0  0
   48.6314   29.0424   45.7836 H   0  0  0  0  0  0  0  0  0  0  0  0
   48.5880   29.2722   41.0399 H   0  0  0  0  0  0  0  0  0  0  0  0
   49.7371   28.2398   39.1217 H   0  0  0  0  0  0  0  0  0  0  0  0
   48.9871   29.4660   38.0444 H   0  0  0  0  0  0  0  0  0  0  0  0
   50.7691   29.2404   38.0444 H   0  0  0  0  0  0  0  0  0  0  0  0
   51.5933   33.0245   40.3695 H   0  0  0  0  0  0  0  0  0  0  0  0
  1  6  2  0
  2  1  1  0
  3  2  2  0
  3  4  1  0
  4  5  2  0
  5  6  1  0
  5  7  1  0
  7  8  1  0
  8  9  2  0
 10  9  1  0
 11 10  2  0
 12 11  1  0
 13 14  1  0
 13 12  2  0
 14 15  2  0
 15  7  1  0
 15 10  1  0
 16 13  1  0
 17 16  1  0
 18 17  2  0
 19 18  1  0
 20 18  1  0
 20 22  1  0
 21 20  2  0
 22 23  1  0
 23 16  1  0
 23 24  2  0
  1 25  1  0
  2 26  1  0
  3 27  1  0
  8 28  1  0
 11 29  1  0
 17 30  1  0
 19 31  1  0
 19 32  1  0
 19 33  1  0
 22 34  1  0
M  ISO  8  25  14  26  14  27  14  28  14  29  14  30  14  31   8  32   8
M  ISO  2  33   8  34   9
M  END
>  <minimizedAffinity>  (1) 
-5.77362442

>  <minimizedRMSD>  (1) 
2.6001687

$$$$
