
     RDKit          3D

 31 34  0  0  0  0  0  0  0  0999 V2000
   44.4560   35.9060   44.6700 C   0  0  0  0  0  0  0  0  0  0  0  0
   45.0330   36.3450   43.4600 C   0  0  0  0  0  0  0  0  0  0  0  0
   46.0440   35.5700   42.9060 C   0  0  0  0  0  0  0  0  0  0  0  0
   46.4410   34.4290   43.5350 N   0  0  0  0  0  0  0  0  0  0  0  0
   45.8500   34.0470   44.7040 C   0  0  0  0  0  0  0  0  0  0  0  0
   44.8720   34.7710   45.2670 N   0  0  0  0  0  0  0  0  0  0  0  0
   46.3510   32.8230   45.2800 N   0  0  0  0  0  0  0  0  0  0  0  0
   46.0780   32.2620   46.4750 C   0  0  0  0  0  0  0  0  0  0  0  0
   46.7800   31.1160   46.5800 N   0  0  0  0  0  0  0  0  0  0  0  0
   47.5120   30.9300   45.4530 C   0  0  0  0  0  0  0  0  0  0  0  0
   48.3860   29.9210   45.0710 C   0  0  0  0  0  0  0  0  0  0  0  0
   48.9460   30.0640   43.8580 N   0  0  0  0  0  0  0  0  0  0  0  0
   48.6620   31.1210   43.0860 C   0  0  0  0  0  0  0  0  0  0  0  0
   47.8140   32.1180   43.4350 N   0  0  0  0  0  0  0  0  0  0  0  0
   47.2240   32.0110   44.6590 C   0  0  0  0  0  0  0  0  0  0  0  0
   49.2550   31.2740   41.7990 N   0  0  0  0  0  0  0  0  0  0  0  0
   48.8090   30.4330   40.8420 C   0  0  0  0  0  0  0  0  0  0  0  0
   49.3040   30.4830   39.5550 C   0  0  0  0  0  0  0  0  0  0  0  0
   50.2890   31.4060   39.1920 C   0  0  0  0  0  0  0  0  0  0  0  0
   50.7510   31.4670   38.0330 O   0  0  0  0  0  0  0  0  0  0  0  0
   50.6850   32.2090   40.1950 N   0  0  0  0  0  0  0  0  0  0  0  0
   50.2040   32.1630   41.4510 C   0  0  0  0  0  0  0  0  0  0  0  0
   50.5950   32.9300   42.3680 O   0  0  0  0  0  0  0  0  0  0  0  0
   43.6540   36.4990   45.1338 H   0  0  0  0  0  0  0  0  0  0  0  0
   44.6937   37.2703   42.9714 H   0  0  0  0  0  0  0  0  0  0  0  0
   46.5217   35.8764   41.9637 H   0  0  0  0  0  0  0  0  0  0  0  0
   45.3971   32.6706   47.2362 H   0  0  0  0  0  0  0  0  0  0  0  0
   48.6058   29.0601   45.7195 H   0  0  0  0  0  0  0  0  0  0  0  0
   48.0352   29.6927   41.0933 H   0  0  0  0  0  0  0  0  0  0  0  0
   48.9161   29.7831   38.8002 H   0  0  0  0  0  0  0  0  0  0  0  0
   51.4096   32.9108   39.9868 H   0  0  0  0  0  0  0  0  0  0  0  0
  1  6  2  0
  2  1  1  0
  3  2  2  0
  3  4  1  0
  4  5  2  0
  5  6  1  0
  5  7  1  0
  7  8  1  0
  8  9  2  0
 10  9  1  0
 11 10  2  0
 12 11  1  0
 13 14  1  0
 13 12  2  0
 14 15  2  0
 15  7  1  0
 15 10  1  0
 16 13  1  0
 17 16  1  0
 18 17  2  0
 19 18  1  0
 19 21  1  0
 20 19  2  0
 21 22  1  0
 22 16  1  0
 22 23  2  0
  1 24  1  0
  2 25  1  0
  3 26  1  0
  8 27  1  0
 11 28  1  0
 17 29  1  0
 18 30  1  0
 21 31  1  0
M  ISO  8  24  14  25  14  26  14  27  14  28  14  29  14  30  14  31   9
M  END
>  <minimizedAffinity>  (1) 
-5.80537701

>  <minimizedRMSD>  (1) 
2.52080441

$$$$
