
     RDKit          3D

 37 40  0  0  0  0  0  0  0  0999 V2000
   44.5560   36.0090   44.5370 C   0  0  0  0  0  0  0  0  0  0  0  0
   45.2840   35.8800   43.3500 C   0  0  0  0  0  0  0  0  0  0  0  0
   46.1410   34.7920   43.2490 C   0  0  0  0  0  0  0  0  0  0  0  0
   46.2280   33.9170   44.2930 N   0  0  0  0  0  0  0  0  0  0  0  0
   45.4980   34.0880   45.4260 C   0  0  0  0  0  0  0  0  0  0  0  0
   44.6620   35.1290   45.5530 N   0  0  0  0  0  0  0  0  0  0  0  0
   45.6840   33.0950   46.4500 N   0  0  0  0  0  0  0  0  0  0  0  0
   45.1910   33.0580   47.7100 C   0  0  0  0  0  0  0  0  0  0  0  0
   45.6300   31.9350   48.3070 N   0  0  0  0  0  0  0  0  0  0  0  0
   46.4100   31.2380   47.4370 C   0  0  0  0  0  0  0  0  0  0  0  0
   47.0910   30.0360   47.5630 C   0  0  0  0  0  0  0  0  0  0  0  0
   47.7760   29.6390   46.4780 N   0  0  0  0  0  0  0  0  0  0  0  0
   47.7840   30.3730   45.3640 C   0  0  0  0  0  0  0  0  0  0  0  0
   47.1310   31.5500   45.2080 N   0  0  0  0  0  0  0  0  0  0  0  0
   46.4250   31.9880   46.2850 C   0  0  0  0  0  0  0  0  0  0  0  0
   48.5590   29.9110   44.1570 C   0  0  0  0  0  0  0  0  0  0  0  0
   48.7360   31.0460   43.1740 C   0  0  0  0  0  0  0  0  0  0  0  0
   50.0280   31.0140   42.4250 C   0  0  0  0  0  0  0  0  0  0  0  0
   50.5790   29.6480   42.1700 C   0  0  0  0  0  0  0  0  0  0  0  0
   50.4980   28.7170   43.3290 C   0  0  0  0  0  0  0  0  0  0  0  0
   49.8820   29.3320   44.5660 C   0  0  0  0  0  0  0  0  0  0  0  0
   43.8699   36.8619   44.6461 H   0  0  0  0  0  0  0  0  0  0  0  0
   45.1822   36.6085   42.5321 H   0  0  0  0  0  0  0  0  0  0  0  0
   46.7414   34.6375   42.3403 H   0  0  0  0  0  0  0  0  0  0  0  0
   44.5411   33.8178   48.1685 H   0  0  0  0  0  0  0  0  0  0  0  0
   47.0713   29.4462   48.4913 H   0  0  0  0  0  0  0  0  0  0  0  0
   47.9862   29.1166   43.6563 H   0  0  0  0  0  0  0  0  0  0  0  0
   47.9137   31.0016   42.4447 H   0  0  0  0  0  0  0  0  0  0  0  0
   48.7356   31.9755   43.7623 H   0  0  0  0  0  0  0  0  0  0  0  0
   49.8709   31.5050   41.4533 H   0  0  0  0  0  0  0  0  0  0  0  0
   50.7639   31.5275   43.0612 H   0  0  0  0  0  0  0  0  0  0  0  0
   50.0191   29.2035   41.3340 H   0  0  0  0  0  0  0  0  0  0  0  0
   51.6492   29.7807   41.9530 H   0  0  0  0  0  0  0  0  0  0  0  0
   49.8902   27.8488   43.0343 H   0  0  0  0  0  0  0  0  0  0  0  0
   51.5302   28.4403   43.5896 H   0  0  0  0  0  0  0  0  0  0  0  0
   50.5357   30.1245   44.9592 H   0  0  0  0  0  0  0  0  0  0  0  0
   49.7526   28.5777   45.3561 H   0  0  0  0  0  0  0  0  0  0  0  0
  1  6  2  0
  2  1  1  0
  3  2  2  0
  3  4  1  0
  4  5  2  0
  5  6  1  0
  5  7  1  0
  7  8  1  0
  8  9  2  0
 10 11  2  0
 10  9  1  0
 12 11  1  0
 13 12  2  0
 14 13  1  0
 14 15  2  0
 15  7  1  0
 15 10  1  0
 16 21  1  0
 16 13  1  0
 17 16  1  0
 18 17  1  0
 19 18  1  0
 19 20  1  0
 20 21  1  0
  1 22  1  0
  2 23  1  0
  3 24  1  0
  8 25  1  0
 11 26  1  0
 16 27  1  0
 17 28  1  0
 17 29  1  0
 18 30  1  0
 18 31  1  0
 19 32  1  0
 19 33  1  0
 20 34  1  0
 20 35  1  0
 21 36  1  0
 21 37  1  0
M  ISO  8  22  14  23  14  24  14  25  14  26  14  27  13  28  13  29  13
M  ISO  8  30  13  31  13  32  13  33  13  34  13  35  13  36  13  37  13
M  END
>  <minimizedAffinity>  (1) 
-5.3154664

>  <minimizedRMSD>  (1) 
0.819515705

$$$$
