
     RDKit          3D

 45 48  0  0  0  0  0  0  0  0999 V2000
   44.7720   35.8550   44.9210 C   0  0  0  0  0  0  0  0  0  0  0  0
   43.9870   35.9080   43.7460 C   0  0  0  0  0  0  0  0  0  0  0  0
   44.0440   34.8200   42.8870 C   0  0  0  0  0  0  0  0  0  0  0  0
   44.8270   33.7470   43.1680 N   0  0  0  0  0  0  0  0  0  0  0  0
   45.5760   33.7270   44.3150 C   0  0  0  0  0  0  0  0  0  0  0  0
   45.5440   34.7760   45.1800 N   0  0  0  0  0  0  0  0  0  0  0  0
   46.4140   32.5770   44.6150 C   0  0  0  0  0  0  0  0  0  0  0  0
   47.2190   31.8730   43.7260 C   0  0  0  0  0  0  0  0  0  0  0  0
   47.8500   30.8600   44.3920 N   0  0  0  0  0  0  0  0  0  0  0  0
   47.4230   30.9540   45.6850 C   0  0  0  0  0  0  0  0  0  0  0  0
   46.5650   31.9820   45.8080 N   0  0  0  0  0  0  0  0  0  0  0  0
   47.8640   30.0510   46.7180 N   0  0  0  0  0  0  0  0  0  0  0  0
   48.4680   28.8120   46.2600 C   0  0  0  0  0  0  0  0  0  0  0  0
   49.1540   28.2760   47.4740 C   0  0  0  0  0  0  0  0  0  0  0  0
   48.9990   29.2670   48.5820 C   0  0  0  0  0  0  0  0  0  0  0  0
   47.8390   30.1110   48.1660 C   0  0  0  0  0  0  0  0  0  0  0  0
   45.8890   32.4040   47.0280 C   0  0  0  0  0  0  0  0  0  0  0  0
   45.2190   31.3220   47.6540 F   0  0  0  0  0  0  0  0  0  0  0  0
   44.9480   33.3990   46.8000 F   0  0  0  0  0  0  0  0  0  0  0  0
   46.7950   32.8250   47.9840 F   0  0  0  0  0  0  0  0  0  0  0  0
   43.2480   34.8970   41.7140 N   0  0  0  0  0  0  0  0  0  0  0  0
   41.9410   35.1940   41.6290 C   0  0  0  0  0  0  0  0  0  0  0  0
   41.3290   35.2240   40.3990 C   0  0  0  0  0  0  0  0  0  0  0  0
   42.0230   34.9570   39.2300 C   0  0  0  0  0  0  0  0  0  0  0  0
   41.4440   34.9890   38.1130 O   0  0  0  0  0  0  0  0  0  0  0  0
   43.3190   34.6660   39.3550 N   0  0  0  0  0  0  0  0  0  0  0  0
   43.9140   34.6390   40.5750 C   0  0  0  0  0  0  0  0  0  0  0  0
   45.1650   34.3430   40.5170 O   0  0  0  0  0  0  0  0  0  0  0  0
   39.9010   35.5490   40.3220 C   0  0  0  0  0  0  0  0  0  0  0  0
   44.7543   36.6970   45.6286 H   0  0  0  0  0  0  0  0  0  0  0  0
   43.3546   36.7796   43.5214 H   0  0  0  0  0  0  0  0  0  0  0  0
   47.3304   32.0964   42.6547 H   0  0  0  0  0  0  0  0  0  0  0  0
   47.6995   28.1106   45.9031 H   0  0  0  0  0  0  0  0  0  0  0  0
   49.1567   28.9627   45.4156 H   0  0  0  0  0  0  0  0  0  0  0  0
   48.6977   27.3186   47.7658 H   0  0  0  0  0  0  0  0  0  0  0  0
   50.2207   28.1107   47.2623 H   0  0  0  0  0  0  0  0  0  0  0  0
   48.7880   28.7571   49.5336 H   0  0  0  0  0  0  0  0  0  0  0  0
   49.9113   29.8594   48.7453 H   0  0  0  0  0  0  0  0  0  0  0  0
   47.9628   31.1462   48.5168 H   0  0  0  0  0  0  0  0  0  0  0  0
   46.8861   29.7592   48.5882 H   0  0  0  0  0  0  0  0  0  0  0  0
   41.3633   35.4121   42.5393 H   0  0  0  0  0  0  0  0  0  0  0  0
   43.8762   34.4588   38.5138 H   0  0  0  0  0  0  0  0  0  0  0  0
   39.4909   35.6423   41.3384 H   0  0  0  0  0  0  0  0  0  0  0  0
   39.7698   36.5000   39.7849 H   0  0  0  0  0  0  0  0  0  0  0  0
   39.3712   34.7485   39.7849 H   0  0  0  0  0  0  0  0  0  0  0  0
  1  6  2  0
  2  1  1  0
  3  4  1  0
  3  2  2  0
  4  5  2  0
  5  7  1  0
  5  6  1  0
  7 11  1  0
  8  9  1  0
  8  7  2  0
  9 10  2  0
 10 11  1  0
 10 12  1  0
 11 17  1  0
 12 16  1  0
 13 12  1  0
 13 14  1  0
 14 15  1  0
 16 15  1  0
 17 18  1  0
 17 20  1  0
 19 17  1  0
 21  3  1  0
 22 21  1  0
 23 22  2  0
 24 26  1  0
 24 23  1  0
 25 24  2  0
 26 27  1  0
 27 21  1  0
 28 27  2  0
 29 23  1  0
  1 30  1  0
  2 31  1  0
  8 32  1  0
 13 33  1  0
 13 34  1  0
 14 35  1  0
 14 36  1  0
 15 37  1  0
 15 38  1  0
 16 39  1  0
 16 40  1  0
 22 41  1  0
 26 42  1  0
 29 43  1  0
 29 44  1  0
 29 45  1  0
M  ISO  8  30  14  31  14  32  14  33  13  34  13  35  13  36  13  37  13
M  ISO  8  38  13  39  13  40  13  41  14  42   9  43   8  44   8  45   8
M  END
>  <minimizedAffinity>  (1) 
-6.57041168

>  <minimizedRMSD>  (1) 
0.670769274

$$$$
