
     RDKit          3D

 26 29  0  0  0  0  0  0  0  0999 V2000
   44.5360   35.9820   44.4850 C   0  0  0  0  0  0  0  0  0  0  0  0
   45.3070   35.8600   43.3260 C   0  0  0  0  0  0  0  0  0  0  0  0
   46.2020   34.7970   43.2700 C   0  0  0  0  0  0  0  0  0  0  0  0
   46.2660   33.9520   44.3430 N   0  0  0  0  0  0  0  0  0  0  0  0
   45.5040   34.1070   45.4400 C   0  0  0  0  0  0  0  0  0  0  0  0
   44.6250   35.1280   45.5270 N   0  0  0  0  0  0  0  0  0  0  0  0
   45.6740   33.1440   46.4920 N   0  0  0  0  0  0  0  0  0  0  0  0
   45.1820   33.1210   47.7400 C   0  0  0  0  0  0  0  0  0  0  0  0
   45.6190   32.0130   48.3580 N   0  0  0  0  0  0  0  0  0  0  0  0
   46.4060   31.3000   47.5080 C   0  0  0  0  0  0  0  0  0  0  0  0
   47.0930   30.1000   47.6500 C   0  0  0  0  0  0  0  0  0  0  0  0
   47.7820   29.6870   46.5810 N   0  0  0  0  0  0  0  0  0  0  0  0
   47.7990   30.4040   45.4420 C   0  0  0  0  0  0  0  0  0  0  0  0
   47.1400   31.5780   45.2700 N   0  0  0  0  0  0  0  0  0  0  0  0
   46.4330   32.0270   46.3260 C   0  0  0  0  0  0  0  0  0  0  0  0
   48.5640   29.9250   44.2900 C   0  0  0  0  0  0  0  0  0  0  0  0
   48.9760   30.6840   43.2600 N   0  0  0  0  0  0  0  0  0  0  0  0
   49.6320   29.9500   42.4010 O   0  0  0  0  0  0  0  0  0  0  0  0
   49.6710   28.7000   42.8350 C   0  0  0  0  0  0  0  0  0  0  0  0
   49.0020   28.6790   44.0200 N   0  0  0  0  0  0  0  0  0  0  0  0
   43.8210   36.8152   44.5518 H   0  0  0  0  0  0  0  0  0  0  0  0
   45.2103   36.5735   42.4944 H   0  0  0  0  0  0  0  0  0  0  0  0
   46.8401   34.6405   42.3878 H   0  0  0  0  0  0  0  0  0  0  0  0
   44.5274   33.8855   48.1840 H   0  0  0  0  0  0  0  0  0  0  0  0
   47.0712   29.5239   48.5868 H   0  0  0  0  0  0  0  0  0  0  0  0
   50.1505   27.8453   42.3355 H   0  0  0  0  0  0  0  0  0  0  0  0
  1  6  2  0
  2  1  1  0
  3  2  2  0
  3  4  1  0
  4  5  2  0
  5  6  1  0
  5  7  1  0
  7  8  1  0
  8  9  2  0
 10 11  2  0
 10  9  1  0
 12 11  1  0
 13 12  2  0
 14 13  1  0
 14 15  2  0
 15  7  1  0
 15 10  1  0
 16 13  1  0
 17 16  2  0
 18 19  1  0
 18 17  1  0
 19 20  2  0
 20 16  1  0
  1 21  1  0
  2 22  1  0
  3 23  1  0
  8 24  1  0
 11 25  1  0
 19 26  1  0
M  ISO  6  21  14  22  14  23  14  24  14  25  14  26  14
M  END
>  <minimizedAffinity>  (1) 
-4.93880463

>  <minimizedRMSD>  (1) 
0.0937091187

$$$$
