
     RDKit          3D

 40 43  0  0  0  0  0  0  0  0999 V2000
   44.8600   35.5980   45.0210 C   0  0  0  0  0  0  0  0  0  0  0  0
   44.0760   35.7390   43.8480 C   0  0  0  0  0  0  0  0  0  0  0  0
   44.1410   34.7220   42.9000 C   0  0  0  0  0  0  0  0  0  0  0  0
   44.9230   33.6390   43.0880 N   0  0  0  0  0  0  0  0  0  0  0  0
   45.6770   33.5230   44.2360 C   0  0  0  0  0  0  0  0  0  0  0  0
   45.6370   34.4980   45.1850 N   0  0  0  0  0  0  0  0  0  0  0  0
   46.5220   32.3580   44.4450 C   0  0  0  0  0  0  0  0  0  0  0  0
   47.1910   31.6170   43.4770 C   0  0  0  0  0  0  0  0  0  0  0  0
   47.8760   30.6060   44.0590 N   0  0  0  0  0  0  0  0  0  0  0  0
   47.6270   30.7220   45.3980 C   0  0  0  0  0  0  0  0  0  0  0  0
   46.8090   31.7800   45.6250 N   0  0  0  0  0  0  0  0  0  0  0  0
   48.1510   29.8580   46.3990 N   0  0  0  0  0  0  0  0  0  0  0  0
   48.6120   28.6140   46.4130 N   0  0  0  0  0  0  0  0  0  0  0  0
   48.9920   28.2790   47.6610 C   0  0  0  0  0  0  0  0  0  0  0  0
   48.7520   29.3860   48.4780 C   0  0  0  0  0  0  0  0  0  0  0  0
   48.2190   30.3760   47.6600 C   0  0  0  0  0  0  0  0  0  0  0  0
   46.3110   32.2380   46.9200 C   0  0  0  0  0  0  0  0  0  0  0  0
   46.0850   31.1670   47.8010 F   0  0  0  0  0  0  0  0  0  0  0  0
   45.1230   32.9580   46.8050 F   0  0  0  0  0  0  0  0  0  0  0  0
   47.2700   33.0080   47.5510 F   0  0  0  0  0  0  0  0  0  0  0  0
   43.3490   34.8880   41.7400 N   0  0  0  0  0  0  0  0  0  0  0  0
   42.0670   35.2650   41.6750 C   0  0  0  0  0  0  0  0  0  0  0  0
   41.4350   35.3780   40.4500 C   0  0  0  0  0  0  0  0  0  0  0  0
   42.0950   35.1110   39.2720 C   0  0  0  0  0  0  0  0  0  0  0  0
   41.5340   35.2100   38.1590 O   0  0  0  0  0  0  0  0  0  0  0  0
   43.3830   34.7340   39.3690 N   0  0  0  0  0  0  0  0  0  0  0  0
   43.9920   34.6260   40.5820 C   0  0  0  0  0  0  0  0  0  0  0  0
   45.2100   34.2600   40.5130 O   0  0  0  0  0  0  0  0  0  0  0  0
   40.0250   35.7950   40.4050 C   0  0  0  0  0  0  0  0  0  0  0  0
   44.8383   36.3784   45.7959 H   0  0  0  0  0  0  0  0  0  0  0  0
   43.4384   36.6218   43.6926 H   0  0  0  0  0  0  0  0  0  0  0  0
   47.1668   31.8227   42.3967 H   0  0  0  0  0  0  0  0  0  0  0  0
   49.4130   27.3134   47.9778 H   0  0  0  0  0  0  0  0  0  0  0  0
   48.9467   29.4602   49.5581 H   0  0  0  0  0  0  0  0  0  0  0  0
   47.9106   31.3853   47.9703 H   0  0  0  0  0  0  0  0  0  0  0  0
   41.5134   35.4860   42.5995 H   0  0  0  0  0  0  0  0  0  0  0  0
   43.9161   34.5240   38.5131 H   0  0  0  0  0  0  0  0  0  0  0  0
   39.6431   35.9079   41.4304 H   0  0  0  0  0  0  0  0  0  0  0  0
   39.9435   36.7557   39.8755 H   0  0  0  0  0  0  0  0  0  0  0  0
   39.4340   35.0332   39.8755 H   0  0  0  0  0  0  0  0  0  0  0  0
  1  6  2  0
  2  1  1  0
  3  4  1  0
  3  2  2  0
  4  5  2  0
  5  7  1  0
  5  6  1  0
  7 11  1  0
  8  9  1  0
  8  7  2  0
  9 10  2  0
 10 11  1  0
 10 12  1  0
 11 17  1  0
 12 13  1  0
 12 16  1  0
 13 14  2  0
 14 15  1  0
 16 15  2  0
 17 20  1  0
 17 18  1  0
 19 17  1  0
 21  3  1  0
 22 21  1  0
 23 22  2  0
 24 26  1  0
 24 23  1  0
 25 24  2  0
 26 27  1  0
 27 21  1  0
 28 27  2  0
 29 23  1  0
  1 30  1  0
  2 31  1  0
  8 32  1  0
 14 33  1  0
 15 34  1  0
 16 35  1  0
 22 36  1  0
 26 37  1  0
 29 38  1  0
 29 39  1  0
 29 40  1  0
M  ISO  8  30  14  31  14  32  14  33  14  34  14  35  14  36  14  37   9
M  ISO  3  38   8  39   8  40   8
M  END
>  <minimizedAffinity>  (1) 
-6.54072952

>  <minimizedRMSD>  (1) 
0.989690363

$$$$
