
     RDKit          3D

 27 30  0  0  0  0  0  0  0  0999 V2000
   44.6040   35.9320   44.4020 C   0  0  0  0  0  0  0  0  0  0  0  0
   45.4270   35.7610   43.2860 C   0  0  0  0  0  0  0  0  0  0  0  0
   46.3220   34.6900   43.2970 C   0  0  0  0  0  0  0  0  0  0  0  0
   46.3450   33.8710   44.3910 N   0  0  0  0  0  0  0  0  0  0  0  0
   45.5250   34.0770   45.4500 C   0  0  0  0  0  0  0  0  0  0  0  0
   44.6500   35.1040   45.4700 N   0  0  0  0  0  0  0  0  0  0  0  0
   45.6490   33.1390   46.5420 N   0  0  0  0  0  0  0  0  0  0  0  0
   45.1150   33.1720   47.7720 C   0  0  0  0  0  0  0  0  0  0  0  0
   45.5180   32.0720   48.4350 N   0  0  0  0  0  0  0  0  0  0  0  0
   46.3150   31.3230   47.6340 C   0  0  0  0  0  0  0  0  0  0  0  0
   46.9690   30.1180   47.8490 C   0  0  0  0  0  0  0  0  0  0  0  0
   47.6840   29.6610   46.8140 N   0  0  0  0  0  0  0  0  0  0  0  0
   47.7510   30.3310   45.6580 C   0  0  0  0  0  0  0  0  0  0  0  0
   47.1190   31.5110   45.4280 N   0  0  0  0  0  0  0  0  0  0  0  0
   46.3810   32.0140   46.4520 C   0  0  0  0  0  0  0  0  0  0  0  0
   48.5240   29.8540   44.5140 C   0  0  0  0  0  0  0  0  0  0  0  0
   49.0930   28.5640   44.4590 C   0  0  0  0  0  0  0  0  0  0  0  0
   49.9360   28.5790   42.7590 S   0  0  0  0  0  0  0  0  0  0  0  0
   49.3230   30.3530   42.4990 C   0  0  0  0  0  0  0  0  0  0  0  0
   48.7550   30.5830   43.4410 N   0  0  0  0  0  0  0  0  0  0  0  0
   43.8926   36.7709   44.4122 H   0  0  0  0  0  0  0  0  0  0  0  0
   45.3715   36.4470   42.4279 H   0  0  0  0  0  0  0  0  0  0  0  0
   46.9935   34.5092   42.4447 H   0  0  0  0  0  0  0  0  0  0  0  0
   44.4608   33.9616   48.1701 H   0  0  0  0  0  0  0  0  0  0  0  0
   46.9042   29.5760   48.8040 H   0  0  0  0  0  0  0  0  0  0  0  0
   49.0572   27.7586   45.2074 H   0  0  0  0  0  0  0  0  0  0  0  0
   49.4853   31.0058   41.6286 H   0  0  0  0  0  0  0  0  0  0  0  0
  1  6  2  0
  2  3  2  0
  2  1  1  0
  3  4  1  0
  4  5  2  0
  5  6  1  0
  5  7  1  0
  7  8  1  0
  8  9  2  0
 10 11  2  0
 10  9  1  0
 12 11  1  0
 13 12  2  0
 14 13  1  0
 14 15  2  0
 15  7  1  0
 15 10  1  0
 16 13  1  0
 17 16  2  0
 18 17  1  0
 19 18  1  0
 19 20  2  0
 20 16  1  0
  1 21  1  0
  2 22  1  0
  3 23  1  0
  8 24  1  0
 11 25  1  0
 17 26  1  0
 19 27  1  0
M  ISO  7  21  14  22  14  23  14  24  14  25  14  26  14  27  14
M  END
>  <minimizedAffinity>  (1) 
-4.96685886

>  <minimizedRMSD>  (1) 
0.224932656

$$$$
