
     RDKit          3D

 33 35  0  0  0  0  0  0  0  0999 V2000
   44.5490   36.0010   44.5360 C   0  0  0  0  0  0  0  0  0  0  0  0
   45.2920   35.8500   43.3620 C   0  0  0  0  0  0  0  0  0  0  0  0
   46.1580   34.7580   43.2760 C   0  0  0  0  0  0  0  0  0  0  0  0
   46.2490   33.8910   44.3210 N   0  0  0  0  0  0  0  0  0  0  0  0
   45.5090   34.0750   45.4460 C   0  0  0  0  0  0  0  0  0  0  0  0
   44.6700   35.1210   45.5450 N   0  0  0  0  0  0  0  0  0  0  0  0
   45.6820   33.1030   46.4870 N   0  0  0  0  0  0  0  0  0  0  0  0
   45.1900   33.0800   47.7390 C   0  0  0  0  0  0  0  0  0  0  0  0
   45.6240   31.9620   48.3540 N   0  0  0  0  0  0  0  0  0  0  0  0
   46.3990   31.2570   47.5010 C   0  0  0  0  0  0  0  0  0  0  0  0
   47.0810   30.0500   47.6360 C   0  0  0  0  0  0  0  0  0  0  0  0
   47.7740   29.6330   46.5510 N   0  0  0  0  0  0  0  0  0  0  0  0
   47.7890   30.3570   45.4230 C   0  0  0  0  0  0  0  0  0  0  0  0
   47.1320   31.5360   45.2650 N   0  0  0  0  0  0  0  0  0  0  0  0
   46.4250   31.9870   46.3340 C   0  0  0  0  0  0  0  0  0  0  0  0
   48.5680   29.8560   44.2500 C   0  0  0  0  0  0  0  0  0  0  0  0
   48.7730   30.9260   43.2130 C   0  0  0  0  0  0  0  0  0  0  0  0
   49.8260   29.1930   44.7100 C   0  0  0  0  0  0  0  0  0  0  0  0
   47.6740   28.7810   43.6200 C   0  0  0  0  0  0  0  0  0  0  0  0
   43.8569   36.8501   44.6356 H   0  0  0  0  0  0  0  0  0  0  0  0
   45.1978   36.5674   42.5334 H   0  0  0  0  0  0  0  0  0  0  0  0
   46.7621   34.5998   42.3704 H   0  0  0  0  0  0  0  0  0  0  0  0
   44.5408   33.8469   48.1867 H   0  0  0  0  0  0  0  0  0  0  0  0
   47.0576   29.4696   48.5701 H   0  0  0  0  0  0  0  0  0  0  0  0
   48.9575   31.8891   43.7114 H   0  0  0  0  0  0  0  0  0  0  0  0
   49.6378   30.6667   42.5846 H   0  0  0  0  0  0  0  0  0  0  0  0
   47.8736   31.0047   42.5846 H   0  0  0  0  0  0  0  0  0  0  0  0
   49.8522   29.1792   45.8096 H   0  0  0  0  0  0  0  0  0  0  0  0
   49.8571   28.1614   44.3295 H   0  0  0  0  0  0  0  0  0  0  0  0
   50.6946   29.7505   44.3295 H   0  0  0  0  0  0  0  0  0  0  0  0
   47.1878   28.1964   44.4149 H   0  0  0  0  0  0  0  0  0  0  0  0
   46.9059   29.2620   42.9966 H   0  0  0  0  0  0  0  0  0  0  0  0
   48.2870   28.1135   42.9966 H   0  0  0  0  0  0  0  0  0  0  0  0
  1  6  2  0
  2  1  1  0
  3  2  2  0
  3  4  1  0
  4  5  2  0
  5  6  1  0
  5  7  1  0
  7  8  1  0
  8  9  2  0
 10 11  2  0
 10  9  1  0
 12 11  1  0
 13 12  2  0
 14 13  1  0
 14 15  2  0
 15  7  1  0
 15 10  1  0
 16 18  1  0
 16 13  1  0
 17 16  1  0
 19 16  1  0
  1 20  1  0
  2 21  1  0
  3 22  1  0
  8 23  1  0
 11 24  1  0
 17 25  1  0
 17 26  1  0
 17 27  1  0
 18 28  1  0
 18 29  1  0
 18 30  1  0
 19 31  1  0
 19 32  1  0
 19 33  1  0
M  ISO  8  20  14  21  14  22  14  23  14  24  14  25   8  26   8  27   8
M  ISO  6  28   8  29   8  30   8  31   8  32   8  33   8
M  END
>  <minimizedAffinity>  (1) 
-5.0284915

>  <minimizedRMSD>  (1) 
0.156508476

$$$$
