
     RDKit          3D

 40 43  0  0  0  0  0  0  0  0999 V2000
   44.4570   35.9590   44.5080 C   0  0  0  0  0  0  0  0  0  0  0  0
   45.1170   36.0510   43.2800 C   0  0  0  0  0  0  0  0  0  0  0  0
   46.1130   35.1080   42.9850 C   0  0  0  0  0  0  0  0  0  0  0  0
   46.3900   34.1500   43.9000 N   0  0  0  0  0  0  0  0  0  0  0  0
   45.7170   34.0950   45.0940 C   0  0  0  0  0  0  0  0  0  0  0  0
   44.7570   34.9940   45.3970 N   0  0  0  0  0  0  0  0  0  0  0  0
   46.1080   33.0300   45.9740 N   0  0  0  0  0  0  0  0  0  0  0  0
   45.7940   32.8390   47.2650 C   0  0  0  0  0  0  0  0  0  0  0  0
   46.3940   31.7000   47.6730 N   0  0  0  0  0  0  0  0  0  0  0  0
   47.0850   31.1640   46.6630 C   0  0  0  0  0  0  0  0  0  0  0  0
   47.8620   30.0150   46.5700 C   0  0  0  0  0  0  0  0  0  0  0  0
   48.4270   29.7710   45.3720 N   0  0  0  0  0  0  0  0  0  0  0  0
   48.2340   30.6100   44.3390 C   0  0  0  0  0  0  0  0  0  0  0  0
   47.4790   31.7410   44.3980 N   0  0  0  0  0  0  0  0  0  0  0  0
   46.9030   32.0090   45.5850 C   0  0  0  0  0  0  0  0  0  0  0  0
   48.0730   29.0900   47.7150 C   0  0  0  0  0  0  0  0  0  0  0  0
   48.2190   27.6930   47.1570 C   0  0  0  0  0  0  0  0  0  0  0  0
   48.6930   26.6830   48.1460 C   0  0  0  0  0  0  0  0  0  0  0  0
   49.7510   27.1550   49.0900 C   0  0  0  0  0  0  0  0  0  0  0  0
   50.3150   28.4870   48.6490 C   0  0  0  0  0  0  0  0  0  0  0  0
   49.1950   29.5030   48.6160 C   0  0  0  0  0  0  0  0  0  0  0  0
   48.8730   30.3220   43.0000 C   0  0  0  0  0  0  0  0  0  0  0  0
   48.7250   31.4080   42.1740 F   0  0  0  0  0  0  0  0  0  0  0  0
   48.2630   29.2340   42.4010 F   0  0  0  0  0  0  0  0  0  0  0  0
   50.2170   30.1200   43.1710 F   0  0  0  0  0  0  0  0  0  0  0  0
   43.6744   36.6919   44.7538 H   0  0  0  0  0  0  0  0  0  0  0  0
   44.8618   36.8439   42.5616 H   0  0  0  0  0  0  0  0  0  0  0  0
   46.6574   35.1465   42.0300 H   0  0  0  0  0  0  0  0  0  0  0  0
   45.1605   33.4939   47.8812 H   0  0  0  0  0  0  0  0  0  0  0  0
   47.1989   29.1228   48.3820 H   0  0  0  0  0  0  0  0  0  0  0  0
   47.2385   27.3696   46.7775 H   0  0  0  0  0  0  0  0  0  0  0  0
   48.9858   27.7470   46.3702 H   0  0  0  0  0  0  0  0  0  0  0  0
   47.8268   26.3595   48.7419 H   0  0  0  0  0  0  0  0  0  0  0  0
   49.1520   25.8754   47.5569 H   0  0  0  0  0  0  0  0  0  0  0  0
   49.3150   27.2636   50.0940 H   0  0  0  0  0  0  0  0  0  0  0  0
   50.5656   26.4159   49.1018 H   0  0  0  0  0  0  0  0  0  0  0  0
   51.0898   28.8136   49.3582 H   0  0  0  0  0  0  0  0  0  0  0  0
   50.7624   28.3910   47.6487 H   0  0  0  0  0  0  0  0  0  0  0  0
   49.5990   30.4620   48.2595 H   0  0  0  0  0  0  0  0  0  0  0  0
   48.7909   29.5884   49.6355 H   0  0  0  0  0  0  0  0  0  0  0  0
  1  6  2  0
  2  1  1  0
  3  2  2  0
  3  4  1  0
  4  5  2  0
  5  6  1  0
  5  7  1  0
  7  8  1  0
  8  9  2  0
 10  9  1  0
 11 10  2  0
 11 16  1  0
 12 11  1  0
 13 14  1  0
 13 12  2  0
 14 15  2  0
 15  7  1  0
 15 10  1  0
 16 21  1  0
 17 16  1  0
 17 18  1  0
 18 19  1  0
 20 19  1  0
 21 20  1  0
 22 25  1  0
 22 13  1  0
 23 22  1  0
 24 22  1  0
  1 26  1  0
  2 27  1  0
  3 28  1  0
  8 29  1  0
 16 30  1  0
 17 31  1  0
 17 32  1  0
 18 33  1  0
 18 34  1  0
 19 35  1  0
 19 36  1  0
 20 37  1  0
 20 38  1  0
 21 39  1  0
 21 40  1  0
M  ISO  8  26  14  27  14  28  14  29  14  30  13  31  13  32  13  33  13
M  ISO  7  34  13  35  13  36  13  37  13  38  13  39  13  40  13
M  END
>  <minimizedAffinity>  (1) 
-5.42421865

>  <minimizedRMSD>  (1) 
2.19768572

$$$$
