
     RDKit          3D

 33 35  0  0  0  0  0  0  0  0999 V2000
   44.4500   36.0010   44.4540 C   0  0  0  0  0  0  0  0  0  0  0  0
   45.1350   36.0970   43.2500 C   0  0  0  0  0  0  0  0  0  0  0  0
   46.1370   35.1660   42.9770 C   0  0  0  0  0  0  0  0  0  0  0  0
   46.3970   34.2060   43.8990 N   0  0  0  0  0  0  0  0  0  0  0  0
   45.6970   34.1470   45.0720 C   0  0  0  0  0  0  0  0  0  0  0  0
   44.7180   35.0460   45.3560 N   0  0  0  0  0  0  0  0  0  0  0  0
   46.0700   33.0770   45.9670 N   0  0  0  0  0  0  0  0  0  0  0  0
   45.7510   32.8980   47.2600 C   0  0  0  0  0  0  0  0  0  0  0  0
   46.3320   31.7550   47.6620 N   0  0  0  0  0  0  0  0  0  0  0  0
   47.0180   31.2050   46.6450 C   0  0  0  0  0  0  0  0  0  0  0  0
   47.7800   30.0360   46.5550 C   0  0  0  0  0  0  0  0  0  0  0  0
   48.3400   29.7810   45.3580 N   0  0  0  0  0  0  0  0  0  0  0  0
   48.1640   30.6120   44.3280 C   0  0  0  0  0  0  0  0  0  0  0  0
   47.4250   31.7590   44.3870 N   0  0  0  0  0  0  0  0  0  0  0  0
   46.8510   32.0430   45.5730 C   0  0  0  0  0  0  0  0  0  0  0  0
   48.7930   30.3160   43.0050 C   0  0  0  0  0  0  0  0  0  0  0  0
   48.7130   31.4400   42.1880 F   0  0  0  0  0  0  0  0  0  0  0  0
   48.1680   29.2870   42.3620 F   0  0  0  0  0  0  0  0  0  0  0  0
   50.1510   30.0980   43.1910 F   0  0  0  0  0  0  0  0  0  0  0  0
   47.9230   29.1700   47.7510 C   0  0  0  0  0  0  0  0  0  0  0  0
   47.9560   27.7310   47.2450 C   0  0  0  0  0  0  0  0  0  0  0  0
   49.1570   29.4780   48.5570 C   0  0  0  0  0  0  0  0  0  0  0  0
   43.6601   36.7339   44.6754 H   0  0  0  0  0  0  0  0  0  0  0  0
   44.8927   36.8900   42.5272 H   0  0  0  0  0  0  0  0  0  0  0  0
   46.7036   35.2094   42.0351 H   0  0  0  0  0  0  0  0  0  0  0  0
   45.1290   33.5643   47.8758 H   0  0  0  0  0  0  0  0  0  0  0  0
   47.0788   29.3455   48.4340 H   0  0  0  0  0  0  0  0  0  0  0  0
   47.9718   27.0413   48.1018 H   0  0  0  0  0  0  0  0  0  0  0  0
   47.0621   27.5365   46.6342 H   0  0  0  0  0  0  0  0  0  0  0  0
   48.8579   27.5777   46.6342 H   0  0  0  0  0  0  0  0  0  0  0  0
   48.9189   29.4186   49.6293 H   0  0  0  0  0  0  0  0  0  0  0  0
   49.9443   28.7488   48.3153 H   0  0  0  0  0  0  0  0  0  0  0  0
   49.5093   30.4916   48.3153 H   0  0  0  0  0  0  0  0  0  0  0  0
  1  6  2  0
  2  1  1  0
  3  2  2  0
  3  4  1  0
  4  5  2  0
  5  6  1  0
  5  7  1  0
  7  8  1  0
  8  9  2  0
 10  9  1  0
 11 10  2  0
 11 20  1  0
 12 11  1  0
 13 14  1  0
 13 12  2  0
 14 15  2  0
 15  7  1  0
 15 10  1  0
 16 19  1  0
 16 13  1  0
 17 16  1  0
 18 16  1  0
 20 22  1  0
 21 20  1  0
  1 23  1  0
  2 24  1  0
  3 25  1  0
  8 26  1  0
 20 27  1  0
 21 28  1  0
 21 29  1  0
 21 30  1  0
 22 31  1  0
 22 32  1  0
 22 33  1  0
M  ISO  8  23  14  24  14  25  14  26  14  27   8  28   8  29   8  30   8
M  ISO  3  31   8  32   8  33   8
M  END
>  <minimizedAffinity>  (1) 
-4.96623373

>  <minimizedRMSD>  (1) 
1.32158101

$$$$
