
     RDKit          3D

 26 28  0  0  0  0  0  0  0  0999 V2000
   44.4600   36.0040   44.4830 C   0  0  0  0  0  0  0  0  0  0  0  0
   45.1360   36.1110   43.2750 C   0  0  0  0  0  0  0  0  0  0  0  0
   46.1380   35.1580   42.9870 C   0  0  0  0  0  0  0  0  0  0  0  0
   46.4000   34.1770   43.8940 N   0  0  0  0  0  0  0  0  0  0  0  0
   45.6980   34.1200   45.0730 C   0  0  0  0  0  0  0  0  0  0  0  0
   44.7330   35.0260   45.3690 N   0  0  0  0  0  0  0  0  0  0  0  0
   46.0700   33.0440   45.9420 N   0  0  0  0  0  0  0  0  0  0  0  0
   45.7380   32.8500   47.2370 C   0  0  0  0  0  0  0  0  0  0  0  0
   46.3200   31.7040   47.6400 N   0  0  0  0  0  0  0  0  0  0  0  0
   47.0190   31.1580   46.6240 C   0  0  0  0  0  0  0  0  0  0  0  0
   47.7840   29.9940   46.5320 C   0  0  0  0  0  0  0  0  0  0  0  0
   48.3460   29.7680   45.3360 N   0  0  0  0  0  0  0  0  0  0  0  0
   48.1790   30.6030   44.3090 C   0  0  0  0  0  0  0  0  0  0  0  0
   47.4360   31.7460   44.3710 N   0  0  0  0  0  0  0  0  0  0  0  0
   46.8560   32.0080   45.5610 C   0  0  0  0  0  0  0  0  0  0  0  0
   48.8160   30.3280   42.9770 C   0  0  0  0  0  0  0  0  0  0  0  0
   48.6870   31.4190   42.1560 F   0  0  0  0  0  0  0  0  0  0  0  0
   48.2070   29.2540   42.3510 F   0  0  0  0  0  0  0  0  0  0  0  0
   50.1570   30.1170   43.1570 F   0  0  0  0  0  0  0  0  0  0  0  0
   47.9420   29.1080   47.6790 C   0  0  0  0  0  0  0  0  0  0  0  0
   48.8370   29.3630   48.5060 O   0  0  0  0  0  0  0  0  0  0  0  0
   43.6783   36.7394   44.7240 H   0  0  0  0  0  0  0  0  0  0  0  0
   44.8981   36.9148   42.5627 H   0  0  0  0  0  0  0  0  0  0  0  0
   46.6993   35.2078   42.0423 H   0  0  0  0  0  0  0  0  0  0  0  0
   45.1066   33.5087   47.8513 H   0  0  0  0  0  0  0  0  0  0  0  0
   47.2860   28.2349   47.8106 H   0  0  0  0  0  0  0  0  0  0  0  0
  1  6  2  0
  2  1  1  0
  3  2  2  0
  3  4  1  0
  4  5  2  0
  5  6  1  0
  5  7  1  0
  7  8  1  0
  8  9  2  0
 10  9  1  0
 11 10  2  0
 11 20  1  0
 12 11  1  0
 13 14  1  0
 13 12  2  0
 14 15  2  0
 15  7  1  0
 15 10  1  0
 16 19  1  0
 16 13  1  0
 17 16  1  0
 18 16  1  0
 20 21  2  0
  1 22  1  0
  2 23  1  0
  3 24  1  0
  8 25  1  0
 20 26  1  0
M  ISO  5  22  14  23  14  24  14  25  14  26   6
M  END
>  <minimizedAffinity>  (1) 
-4.8043251

>  <minimizedRMSD>  (1) 
1.25586975

$$$$
