
     RDKit          3D

 30 32  0  0  0  0  0  0  0  0999 V2000
   44.4590   36.0170   44.4750 C   0  0  0  0  0  0  0  0  0  0  0  0
   45.1270   36.1280   43.2650 C   0  0  0  0  0  0  0  0  0  0  0  0
   46.1120   35.1810   42.9860 C   0  0  0  0  0  0  0  0  0  0  0  0
   46.3830   34.2030   43.8820 N   0  0  0  0  0  0  0  0  0  0  0  0
   45.6920   34.1400   45.0640 C   0  0  0  0  0  0  0  0  0  0  0  0
   44.7280   35.0450   45.3690 N   0  0  0  0  0  0  0  0  0  0  0  0
   46.0600   33.0630   45.9410 N   0  0  0  0  0  0  0  0  0  0  0  0
   45.7340   32.8600   47.2350 C   0  0  0  0  0  0  0  0  0  0  0  0
   46.3100   31.7190   47.6300 N   0  0  0  0  0  0  0  0  0  0  0  0
   47.0070   31.1720   46.6140 C   0  0  0  0  0  0  0  0  0  0  0  0
   47.7690   30.0150   46.5060 C   0  0  0  0  0  0  0  0  0  0  0  0
   48.3380   29.7710   45.3160 N   0  0  0  0  0  0  0  0  0  0  0  0
   48.1680   30.6170   44.2900 C   0  0  0  0  0  0  0  0  0  0  0  0
   47.4270   31.7600   44.3650 N   0  0  0  0  0  0  0  0  0  0  0  0
   46.8430   32.0280   45.5540 C   0  0  0  0  0  0  0  0  0  0  0  0
   48.8050   30.3340   42.9700 C   0  0  0  0  0  0  0  0  0  0  0  0
   48.6970   31.4470   42.1490 F   0  0  0  0  0  0  0  0  0  0  0  0
   48.1760   29.2980   42.3180 F   0  0  0  0  0  0  0  0  0  0  0  0
   50.1540   30.1230   43.1520 F   0  0  0  0  0  0  0  0  0  0  0  0
   47.8690   29.1690   47.7250 C   0  0  0  0  0  0  0  0  0  0  0  0
   49.1320   29.4980   48.5100 C   0  0  0  0  0  0  0  0  0  0  0  0
   43.6772   36.7526   44.7152 H   0  0  0  0  0  0  0  0  0  0  0  0
   44.8892   36.9319   42.5528 H   0  0  0  0  0  0  0  0  0  0  0  0
   46.6685   35.2287   42.0383 H   0  0  0  0  0  0  0  0  0  0  0  0
   45.1059   33.5165   47.8550 H   0  0  0  0  0  0  0  0  0  0  0  0
   46.9909   29.3498   48.3624 H   0  0  0  0  0  0  0  0  0  0  0  0
   47.9093   28.1132   47.4189 H   0  0  0  0  0  0  0  0  0  0  0  0
   48.9188   29.4425   49.5877 H   0  0  0  0  0  0  0  0  0  0  0  0
   49.9211   28.7754   48.2546 H   0  0  0  0  0  0  0  0  0  0  0  0
   49.4683   30.5137   48.2546 H   0  0  0  0  0  0  0  0  0  0  0  0
  1  6  2  0
  2  1  1  0
  3  2  2  0
  3  4  1  0
  4  5  2  0
  5  6  1  0
  5  7  1  0
  7  8  1  0
  8  9  2  0
 10  9  1  0
 11 10  2  0
 11 20  1  0
 12 11  1  0
 13 14  1  0
 13 12  2  0
 14 15  2  0
 15  7  1  0
 15 10  1  0
 16 19  1  0
 16 13  1  0
 17 16  1  0
 18 16  1  0
 20 21  1  0
  1 22  1  0
  2 23  1  0
  3 24  1  0
  8 25  1  0
 20 26  1  0
 20 27  1  0
 21 28  1  0
 21 29  1  0
 21 30  1  0
M  ISO  8  22  14  23  14  24  14  25  14  26   8  27   8  28   8  29   8
M  ISO  1  30   8
M  END
>  <minimizedAffinity>  (1) 
-4.87148285

>  <minimizedRMSD>  (1) 
1.26085472

$$$$
