
     RDKit          3D

 49 52  0  0  0  0  0  0  0  0999 V2000
   44.8230   35.9150   45.0640 C   0  0  0  0  0  0  0  0  0  0  0  0
   44.1990   35.8340   43.7960 C   0  0  0  0  0  0  0  0  0  0  0  0
   44.2660   34.6400   43.1190 C   0  0  0  0  0  0  0  0  0  0  0  0
   44.9110   33.5680   43.6510 N   0  0  0  0  0  0  0  0  0  0  0  0
   45.5080   33.6610   44.8780 C   0  0  0  0  0  0  0  0  0  0  0  0
   45.4560   34.8340   45.5690 N   0  0  0  0  0  0  0  0  0  0  0  0
   43.6330   34.5800   41.8480 N   0  0  0  0  0  0  0  0  0  0  0  0
   42.3170   34.6280   41.5840 C   0  0  0  0  0  0  0  0  0  0  0  0
   41.8560   34.5580   40.2930 C   0  0  0  0  0  0  0  0  0  0  0  0
   42.7150   34.4370   39.2330 C   0  0  0  0  0  0  0  0  0  0  0  0
   42.3080   34.3720   38.0400 O   0  0  0  0  0  0  0  0  0  0  0  0
   44.0290   34.3900   39.5170 N   0  0  0  0  0  0  0  0  0  0  0  0
   44.4740   34.4610   40.8060 C   0  0  0  0  0  0  0  0  0  0  0  0
   45.7490   34.4030   40.9140 O   0  0  0  0  0  0  0  0  0  0  0  0
   40.4120   34.6140   40.0360 C   0  0  0  0  0  0  0  0  0  0  0  0
   46.1960   32.5170   45.4450 C   0  0  0  0  0  0  0  0  0  0  0  0
   47.1350   31.6980   44.8230 C   0  0  0  0  0  0  0  0  0  0  0  0
   47.5420   30.7410   45.6820 N   0  0  0  0  0  0  0  0  0  0  0  0
   46.8580   30.9590   46.8470 C   0  0  0  0  0  0  0  0  0  0  0  0
   46.0420   32.0410   46.6900 N   0  0  0  0  0  0  0  0  0  0  0  0
   47.0220   30.1130   48.0580 C   0  0  0  0  0  0  0  0  0  0  0  0
   47.9150   28.9400   47.7180 C   0  0  0  0  0  0  0  0  0  0  0  0
   49.2400   28.9850   48.4040 C   0  0  0  0  0  0  0  0  0  0  0  0
   49.8710   30.3540   48.4000 C   0  0  0  0  0  0  0  0  0  0  0  0
   48.9690   31.4430   48.9010 C   0  0  0  0  0  0  0  0  0  0  0  0
   47.6310   30.8490   49.2060 C   0  0  0  0  0  0  0  0  0  0  0  0
   45.1520   32.5930   47.7010 C   0  0  0  0  0  0  0  0  0  0  0  0
   44.2740   31.6190   48.2150 F   0  0  0  0  0  0  0  0  0  0  0  0
   44.3980   33.6570   47.2010 F   0  0  0  0  0  0  0  0  0  0  0  0
   45.8690   33.0260   48.8070 F   0  0  0  0  0  0  0  0  0  0  0  0
   44.7925   36.8543   45.6356 H   0  0  0  0  0  0  0  0  0  0  0  0
   43.6762   36.7008   43.3655 H   0  0  0  0  0  0  0  0  0  0  0  0
   41.5999   34.7246   42.4125 H   0  0  0  0  0  0  0  0  0  0  0  0
   44.7103   34.2990   38.7499 H   0  0  0  0  0  0  0  0  0  0  0  0
   39.8698   34.6350   40.9929 H   0  0  0  0  0  0  0  0  0  0  0  0
   40.1768   35.5219   39.4613 H   0  0  0  0  0  0  0  0  0  0  0  0
   40.1072   33.7270   39.4613 H   0  0  0  0  0  0  0  0  0  0  0  0
   47.4907   31.8139   43.7886 H   0  0  0  0  0  0  0  0  0  0  0  0
   46.0167   29.7883   48.3647 H   0  0  0  0  0  0  0  0  0  0  0  0
   47.4009   28.0134   48.0131 H   0  0  0  0  0  0  0  0  0  0  0  0
   48.1081   28.9819   46.6359 H   0  0  0  0  0  0  0  0  0  0  0  0
   49.1028   28.6675   49.4482 H   0  0  0  0  0  0  0  0  0  0  0  0
   49.9147   28.3153   47.8506 H   0  0  0  0  0  0  0  0  0  0  0  0
   50.7657   30.3244   49.0393 H   0  0  0  0  0  0  0  0  0  0  0  0
   50.1067   30.5927   47.3524 H   0  0  0  0  0  0  0  0  0  0  0  0
   49.3945   31.8868   49.8132 H   0  0  0  0  0  0  0  0  0  0  0  0
   48.8672   32.2286   48.1378 H   0  0  0  0  0  0  0  0  0  0  0  0
   46.9493   31.6615   49.4978 H   0  0  0  0  0  0  0  0  0  0  0  0
   47.7823   30.1161   50.0122 H   0  0  0  0  0  0  0  0  0  0  0  0
  1  6  2  0
  2  1  1  0
  3  4  1  0
  3  2  2  0
  4  5  2  0
  5 16  1  0
  5  6  1  0
  7  3  1  0
  8  7  1  0
  9  8  2  0
 10 12  1  0
 10  9  1  0
 11 10  2  0
 12 13  1  0
 13 14  2  0
 13  7  1  0
 15  9  1  0
 16 20  1  0
 17 16  2  0
 17 18  1  0
 18 19  2  0
 19 21  1  0
 20 19  1  0
 20 27  1  0
 21 26  1  0
 22 21  1  0
 22 23  1  0
 24 23  1  0
 24 25  1  0
 25 26  1  0
 27 28  1  0
 27 30  1  0
 29 27  1  0
  1 31  1  0
  2 32  1  0
  8 33  1  0
 12 34  1  0
 15 35  1  0
 15 36  1  0
 15 37  1  0
 17 38  1  0
 21 39  1  0
 22 40  1  0
 22 41  1  0
 23 42  1  0
 23 43  1  0
 24 44  1  0
 24 45  1  0
 25 46  1  0
 25 47  1  0
 26 48  1  0
 26 49  1  0
M  ISO  8  31  14  32  14  33  14  34   9  35   8  36   8  37   8  38  14
M  ISO  8  39  13  40  13  41  13  42  13  43  13  44  13  45  13  46  13
M  ISO  3  47  13  48  13  49  13
M  END
>  <minimizedAffinity>  (1) 
-6.45731592

>  <minimizedRMSD>  (1) 
0.543177843

$$$$
