
     RDKit          3D

 27 29  0  0  0  0  0  0  0  0999 V2000
   44.4640   36.0090   44.5030 C   0  0  0  0  0  0  0  0  0  0  0  0
   45.1470   36.1080   43.2800 C   0  0  0  0  0  0  0  0  0  0  0  0
   46.1300   35.1480   42.9880 C   0  0  0  0  0  0  0  0  0  0  0  0
   46.3770   34.1750   43.8920 N   0  0  0  0  0  0  0  0  0  0  0  0
   45.6900   34.1100   45.0760 C   0  0  0  0  0  0  0  0  0  0  0  0
   44.7430   35.0210   45.3740 N   0  0  0  0  0  0  0  0  0  0  0  0
   46.0560   33.0280   45.9420 N   0  0  0  0  0  0  0  0  0  0  0  0
   45.7220   32.8150   47.2260 C   0  0  0  0  0  0  0  0  0  0  0  0
   46.3020   31.6770   47.6220 N   0  0  0  0  0  0  0  0  0  0  0  0
   47.0080   31.1440   46.6210 C   0  0  0  0  0  0  0  0  0  0  0  0
   47.7800   29.9790   46.5250 C   0  0  0  0  0  0  0  0  0  0  0  0
   48.3510   29.7530   45.3370 N   0  0  0  0  0  0  0  0  0  0  0  0
   48.1870   30.6030   44.3010 C   0  0  0  0  0  0  0  0  0  0  0  0
   47.4430   31.7400   44.3710 N   0  0  0  0  0  0  0  0  0  0  0  0
   46.8500   32.0030   45.5580 C   0  0  0  0  0  0  0  0  0  0  0  0
   48.8290   30.3300   42.9700 C   0  0  0  0  0  0  0  0  0  0  0  0
   48.6900   31.4220   42.1500 F   0  0  0  0  0  0  0  0  0  0  0  0
   48.2220   29.2480   42.3570 F   0  0  0  0  0  0  0  0  0  0  0  0
   50.1700   30.1220   43.1490 F   0  0  0  0  0  0  0  0  0  0  0  0
   47.9400   29.0670   47.6810 C   0  0  0  0  0  0  0  0  0  0  0  0
   43.6898   36.7494   44.7530 H   0  0  0  0  0  0  0  0  0  0  0  0
   44.9183   36.9160   42.5694 H   0  0  0  0  0  0  0  0  0  0  0  0
   46.6882   35.1878   42.0410 H   0  0  0  0  0  0  0  0  0  0  0  0
   45.0831   33.4635   47.8435 H   0  0  0  0  0  0  0  0  0  0  0  0
   47.8397   29.6385   48.6155 H   0  0  0  0  0  0  0  0  0  0  0  0
   47.1649   28.2874   47.6430 H   0  0  0  0  0  0  0  0  0  0  0  0
   48.9342   28.5978   47.6430 H   0  0  0  0  0  0  0  0  0  0  0  0
  1  6  2  0
  2  1  1  0
  3  2  2  0
  3  4  1  0
  4  5  2  0
  5  6  1  0
  5  7  1  0
  7  8  1  0
  8  9  2  0
 10  9  1  0
 11 10  2  0
 11 20  1  0
 12 11  1  0
 13 14  1  0
 13 12  2  0
 14 15  2  0
 15  7  1  0
 15 10  1  0
 16 19  1  0
 16 13  1  0
 17 16  1  0
 18 16  1  0
  1 21  1  0
  2 22  1  0
  3 23  1  0
  8 24  1  0
 20 25  1  0
 20 26  1  0
 20 27  1  0
M  ISO  7  21  14  22  14  23  14  24  14  25   8  26   8  27   8
M  END
>  <minimizedAffinity>  (1) 
-4.91252661

>  <minimizedRMSD>  (1) 
1.23662341

$$$$
