
     RDKit          3D

 37 40  0  0  0  0  0  0  0  0999 V2000
   44.4550   36.0370   44.4510 C   0  0  0  0  0  0  0  0  0  0  0  0
   45.1080   36.1320   43.2210 C   0  0  0  0  0  0  0  0  0  0  0  0
   46.0880   35.1770   42.9320 C   0  0  0  0  0  0  0  0  0  0  0  0
   46.3570   34.2210   43.8380 N   0  0  0  0  0  0  0  0  0  0  0  0
   45.6920   34.1590   45.0430 C   0  0  0  0  0  0  0  0  0  0  0  0
   44.7400   35.0690   45.3460 N   0  0  0  0  0  0  0  0  0  0  0  0
   46.0750   33.0910   45.9100 N   0  0  0  0  0  0  0  0  0  0  0  0
   45.7600   32.8810   47.1900 C   0  0  0  0  0  0  0  0  0  0  0  0
   46.3460   31.7520   47.5880 N   0  0  0  0  0  0  0  0  0  0  0  0
   47.0480   31.2070   46.5890 C   0  0  0  0  0  0  0  0  0  0  0  0
   47.8220   30.0580   46.4890 C   0  0  0  0  0  0  0  0  0  0  0  0
   48.3960   29.8230   45.2990 N   0  0  0  0  0  0  0  0  0  0  0  0
   48.2190   30.6690   44.2550 C   0  0  0  0  0  0  0  0  0  0  0  0
   47.4670   31.8020   44.3200 N   0  0  0  0  0  0  0  0  0  0  0  0
   46.8750   32.0630   45.5190 C   0  0  0  0  0  0  0  0  0  0  0  0
   48.8560   30.4090   42.9200 C   0  0  0  0  0  0  0  0  0  0  0  0
   48.6470   31.4580   42.0770 F   0  0  0  0  0  0  0  0  0  0  0  0
   48.2680   29.2830   42.3450 F   0  0  0  0  0  0  0  0  0  0  0  0
   50.1960   30.2340   43.0870 F   0  0  0  0  0  0  0  0  0  0  0  0
   47.9970   29.1330   47.6360 C   0  0  0  0  0  0  0  0  0  0  0  0
   49.3730   29.2460   48.0760 N   0  0  0  0  0  0  0  0  0  0  0  0
   50.5080   28.7260   47.5830 C   0  0  0  0  0  0  0  0  0  0  0  0
   51.7060   28.9980   48.2150 C   0  0  0  0  0  0  0  0  0  0  0  0
   51.7580   29.7910   49.3420 C   0  0  0  0  0  0  0  0  0  0  0  0
   52.8980   29.9860   49.8550 O   0  0  0  0  0  0  0  0  0  0  0  0
   50.6060   30.2970   49.8150 N   0  0  0  0  0  0  0  0  0  0  0  0
   49.4360   30.0290   49.1920 C   0  0  0  0  0  0  0  0  0  0  0  0
   48.4680   30.5920   49.7830 O   0  0  0  0  0  0  0  0  0  0  0  0
   43.6806   36.7778   44.6992 H   0  0  0  0  0  0  0  0  0  0  0  0
   44.8607   36.9294   42.5047 H   0  0  0  0  0  0  0  0  0  0  0  0
   46.6314   35.2077   41.9761 H   0  0  0  0  0  0  0  0  0  0  0  0
   45.1246   33.5296   47.8110 H   0  0  0  0  0  0  0  0  0  0  0  0
   47.3164   29.4140   48.4532 H   0  0  0  0  0  0  0  0  0  0  0  0
   47.7669   28.0988   47.3403 H   0  0  0  0  0  0  0  0  0  0  0  0
   50.4845   28.0903   46.6856 H   0  0  0  0  0  0  0  0  0  0  0  0
   52.6370   28.5735   47.8112 H   0  0  0  0  0  0  0  0  0  0  0  0
   50.6144   30.8917   50.6559 H   0  0  0  0  0  0  0  0  0  0  0  0
  1  6  2  0
  2  1  1  0
  3  2  2  0
  3  4  1  0
  4  5  2  0
  5  6  1  0
  5  7  1  0
  7  8  1  0
  8  9  2  0
 10  9  1  0
 11 10  2  0
 11 20  1  0
 12 11  1  0
 13 14  1  0
 13 12  2  0
 14 15  2  0
 15  7  1  0
 15 10  1  0
 16 19  1  0
 16 13  1  0
 17 16  1  0
 18 16  1  0
 20 21  1  0
 21 27  1  0
 22 21  1  0
 22 23  2  0
 23 24  1  0
 24 26  1  0
 24 25  2  0
 27 28  2  0
 27 26  1  0
  1 29  1  0
  2 30  1  0
  3 31  1  0
  8 32  1  0
 20 33  1  0
 20 34  1  0
 22 35  1  0
 23 36  1  0
 26 37  1  0
M  ISO  8  29  14  30  14  31  14  32  14  33   8  34   8  35  14  36  14
M  ISO  1  37   9
M  END
>  <minimizedAffinity>  (1) 
-5.67612696

>  <minimizedRMSD>  (1) 
3.54641461

$$$$
