
     RDKit          3D

 36 39  0  0  0  0  0  0  0  0999 V2000
   44.4290   35.9970   44.4400 C   0  0  0  0  0  0  0  0  0  0  0  0
   45.0700   36.0740   43.1940 C   0  0  0  0  0  0  0  0  0  0  0  0
   46.0670   35.1300   42.9140 C   0  0  0  0  0  0  0  0  0  0  0  0
   46.3690   34.1940   43.8460 N   0  0  0  0  0  0  0  0  0  0  0  0
   45.7140   34.1590   45.0560 C   0  0  0  0  0  0  0  0  0  0  0  0
   44.7470   35.0610   45.3460 N   0  0  0  0  0  0  0  0  0  0  0  0
   46.1300   33.1190   45.9490 N   0  0  0  0  0  0  0  0  0  0  0  0
   45.8540   32.9590   47.2480 C   0  0  0  0  0  0  0  0  0  0  0  0
   46.4590   31.8420   47.6690 N   0  0  0  0  0  0  0  0  0  0  0  0
   47.1240   31.2770   46.6620 C   0  0  0  0  0  0  0  0  0  0  0  0
   47.9070   30.1160   46.5780 C   0  0  0  0  0  0  0  0  0  0  0  0
   48.4310   29.8480   45.3860 N   0  0  0  0  0  0  0  0  0  0  0  0
   48.2210   30.6480   44.3190 C   0  0  0  0  0  0  0  0  0  0  0  0
   47.4630   31.7860   44.3710 N   0  0  0  0  0  0  0  0  0  0  0  0
   46.9150   32.0850   45.5740 C   0  0  0  0  0  0  0  0  0  0  0  0
   48.8170   30.3380   42.9800 C   0  0  0  0  0  0  0  0  0  0  0  0
   48.6960   31.4250   42.1510 F   0  0  0  0  0  0  0  0  0  0  0  0
   48.1840   29.2600   42.4120 F   0  0  0  0  0  0  0  0  0  0  0  0
   50.1680   30.1140   43.1280 F   0  0  0  0  0  0  0  0  0  0  0  0
   48.1280   29.2480   47.7560 C   0  0  0  0  0  0  0  0  0  0  0  0
   49.2200   29.7670   48.5910 C   0  0  0  0  0  0  0  0  0  0  0  0
   49.0710   30.4990   49.7510 C   0  0  0  0  0  0  0  0  0  0  0  0
   50.1820   30.9190   50.4270 C   0  0  0  0  0  0  0  0  0  0  0  0
   51.4650   30.6370   49.9930 C   0  0  0  0  0  0  0  0  0  0  0  0
   51.5770   29.9060   48.8340 C   0  0  0  0  0  0  0  0  0  0  0  0
   50.4880   29.4900   48.1630 N   0  0  0  0  0  0  0  0  0  0  0  0
   43.6418   36.7266   44.6808 H   0  0  0  0  0  0  0  0  0  0  0  0
   44.7990   36.8491   42.4620 H   0  0  0  0  0  0  0  0  0  0  0  0
   46.5974   35.1486   41.9505 H   0  0  0  0  0  0  0  0  0  0  0  0
   45.2365   33.6296   47.8637 H   0  0  0  0  0  0  0  0  0  0  0  0
   47.2050   29.2091   48.3532 H   0  0  0  0  0  0  0  0  0  0  0  0
   48.4009   28.2417   47.4054 H   0  0  0  0  0  0  0  0  0  0  0  0
   48.0668   30.7424   50.1284 H   0  0  0  0  0  0  0  0  0  0  0  0
   50.0513   31.5027   51.3501 H   0  0  0  0  0  0  0  0  0  0  0  0
   52.3509   30.9804   50.5473 H   0  0  0  0  0  0  0  0  0  0  0  0
   52.5764   29.6565   48.4480 H   0  0  0  0  0  0  0  0  0  0  0  0
  1  6  2  0
  2  1  1  0
  3  2  2  0
  3  4  1  0
  4  5  2  0
  5  6  1  0
  5  7  1  0
  7  8  1  0
  8  9  2  0
 10  9  1  0
 11 10  2  0
 11 20  1  0
 12 11  1  0
 13 14  1  0
 13 12  2  0
 14 15  2  0
 15  7  1  0
 15 10  1  0
 16 19  1  0
 16 13  1  0
 17 16  1  0
 18 16  1  0
 20 21  1  0
 21 22  2  0
 22 23  1  0
 24 23  2  0
 25 24  1  0
 26 21  1  0
 26 25  2  0
  1 27  1  0
  2 28  1  0
  3 29  1  0
  8 30  1  0
 20 31  1  0
 20 32  1  0
 22 33  1  0
 23 34  1  0
 24 35  1  0
 25 36  1  0
M  ISO  8  27  14  28  14  29  14  30  14  31   8  32   8  33  14  34  14
M  ISO  2  35  14  36  14
M  END
>  <minimizedAffinity>  (1) 
-5.70204306

>  <minimizedRMSD>  (1) 
2.03834677

$$$$
