
     RDKit          3D

 40 43  0  0  0  0  0  0  0  0999 V2000
   44.4090   36.0310   44.4390 C   0  0  0  0  0  0  0  0  0  0  0  0
   45.0390   36.0940   43.1720 C   0  0  0  0  0  0  0  0  0  0  0  0
   46.0200   35.1360   42.8870 C   0  0  0  0  0  0  0  0  0  0  0  0
   46.3210   34.2050   43.8140 N   0  0  0  0  0  0  0  0  0  0  0  0
   45.6880   34.1760   45.0380 C   0  0  0  0  0  0  0  0  0  0  0  0
   44.7380   35.0840   45.3450 N   0  0  0  0  0  0  0  0  0  0  0  0
   46.1100   33.1380   45.9230 N   0  0  0  0  0  0  0  0  0  0  0  0
   45.8500   32.9760   47.2260 C   0  0  0  0  0  0  0  0  0  0  0  0
   46.4630   31.8700   47.6370 N   0  0  0  0  0  0  0  0  0  0  0  0
   47.1230   31.3010   46.6250 C   0  0  0  0  0  0  0  0  0  0  0  0
   47.9100   30.1460   46.5440 C   0  0  0  0  0  0  0  0  0  0  0  0
   48.4280   29.8710   45.3480 N   0  0  0  0  0  0  0  0  0  0  0  0
   48.2000   30.6750   44.2760 C   0  0  0  0  0  0  0  0  0  0  0  0
   47.4330   31.8090   44.3380 N   0  0  0  0  0  0  0  0  0  0  0  0
   46.8990   32.1040   45.5390 C   0  0  0  0  0  0  0  0  0  0  0  0
   48.7910   30.3560   42.9340 C   0  0  0  0  0  0  0  0  0  0  0  0
   48.6490   31.4450   42.0980 F   0  0  0  0  0  0  0  0  0  0  0  0
   48.1490   29.2810   42.3740 F   0  0  0  0  0  0  0  0  0  0  0  0
   50.1450   30.1430   43.0850 F   0  0  0  0  0  0  0  0  0  0  0  0
   48.1590   29.3060   47.7320 C   0  0  0  0  0  0  0  0  0  0  0  0
   51.3160   30.7980   50.1360 C   0  0  0  0  0  0  0  0  0  0  0  0
   51.6650   30.0830   49.0010 C   0  0  0  0  0  0  0  0  0  0  0  0
   50.6930   29.5640   48.1700 C   0  0  0  0  0  0  0  0  0  0  0  0
   49.3580   29.7490   48.4510 C   0  0  0  0  0  0  0  0  0  0  0  0
   49.0360   30.4760   49.6040 C   0  0  0  0  0  0  0  0  0  0  0  0
   50.0020   30.9980   50.4430 C   0  0  0  0  0  0  0  0  0  0  0  0
   52.5580   31.4540   51.1940 S   0  0  0  0  0  0  0  0  0  0  0  0
   51.9540   31.5390   52.5710 O   0  0  0  0  0  0  0  0  0  0  0  0
   52.9120   32.8030   50.6440 O   0  0  0  0  0  0  0  0  0  0  0  0
   43.6342   36.7699   44.6912 H   0  0  0  0  0  0  0  0  0  0  0  0
   44.7676   36.8674   42.4384 H   0  0  0  0  0  0  0  0  0  0  0  0
   46.5392   35.1433   41.9173 H   0  0  0  0  0  0  0  0  0  0  0  0
   45.2355   33.6425   47.8490 H   0  0  0  0  0  0  0  0  0  0  0  0
   47.2919   29.3707   48.4057 H   0  0  0  0  0  0  0  0  0  0  0  0
   48.3145   28.2690   47.3998 H   0  0  0  0  0  0  0  0  0  0  0  0
   52.7270   29.9277   48.7603 H   0  0  0  0  0  0  0  0  0  0  0  0
   50.9877   28.9971   47.2746 H   0  0  0  0  0  0  0  0  0  0  0  0
   47.9762   30.6372   49.8505 H   0  0  0  0  0  0  0  0  0  0  0  0
   49.7167   31.5643   51.3418 H   0  0  0  0  0  0  0  0  0  0  0  0
   53.6949   30.6929   51.2647 H   0  0  0  0  0  0  0  0  0  0  0  0
  1  6  2  0
  2  1  1  0
  3  2  2  0
  3  4  1  0
  4  5  2  0
  5  6  1  0
  5  7  1  0
  7  8  1  0
  8  9  2  0
 10  9  1  0
 11 10  2  0
 11 20  1  0
 12 11  1  0
 13 14  1  0
 13 12  2  0
 14 15  2  0
 15  7  1  0
 15 10  1  0
 16 19  1  0
 16 13  1  0
 17 16  1  0
 18 16  1  0
 20 24  1  0
 21 26  2  0
 21 27  1  0
 22 21  1  0
 23 24  1  0
 23 22  2  0
 24 25  2  0
 25 26  1  0
 27 28  2  0
 29 27  2  0
  1 30  1  0
  2 31  1  0
  3 32  1  0
  8 33  1  0
 20 34  1  0
 20 35  1  0
 22 36  1  0
 23 37  1  0
 25 38  1  0
 26 39  1  0
 27 40  1  0
M  ISO  8  30  14  31  14  32  14  33  14  34   8  35   8  36  14  37  14
M  ISO  3  38  14  39  14  40  11
M  END
>  <minimizedAffinity>  (1) 
-5.96919823

>  <minimizedRMSD>  (1) 
3.90985179

$$$$
