
     RDKit          3D

 36 38  0  0  0  0  0  0  0  0999 V2000
   44.8090   35.9120   45.0450 C   0  0  0  0  0  0  0  0  0  0  0  0
   44.1630   35.8670   43.7810 C   0  0  0  0  0  0  0  0  0  0  0  0
   44.2000   34.6670   43.0840 C   0  0  0  0  0  0  0  0  0  0  0  0
   44.8290   33.5740   43.5840 N   0  0  0  0  0  0  0  0  0  0  0  0
   45.4460   33.6650   44.8220 C   0  0  0  0  0  0  0  0  0  0  0  0
   45.4300   34.8100   45.5270 N   0  0  0  0  0  0  0  0  0  0  0  0
   43.5450   34.6520   41.8210 N   0  0  0  0  0  0  0  0  0  0  0  0
   42.2310   34.7590   41.5860 C   0  0  0  0  0  0  0  0  0  0  0  0
   41.7570   34.7260   40.2980 C   0  0  0  0  0  0  0  0  0  0  0  0
   42.6050   34.5820   39.2190 C   0  0  0  0  0  0  0  0  0  0  0  0
   42.1780   34.5510   38.0350 O   0  0  0  0  0  0  0  0  0  0  0  0
   43.9200   34.4770   39.4920 N   0  0  0  0  0  0  0  0  0  0  0  0
   44.3780   34.5110   40.7670 C   0  0  0  0  0  0  0  0  0  0  0  0
   45.6380   34.3990   40.8620 O   0  0  0  0  0  0  0  0  0  0  0  0
   40.3220   34.8440   40.0410 C   0  0  0  0  0  0  0  0  0  0  0  0
   46.1190   32.4830   45.3520 C   0  0  0  0  0  0  0  0  0  0  0  0
   46.9780   31.6290   44.6930 C   0  0  0  0  0  0  0  0  0  0  0  0
   47.3920   30.6500   45.5330 N   0  0  0  0  0  0  0  0  0  0  0  0
   46.7750   30.9040   46.7350 C   0  0  0  0  0  0  0  0  0  0  0  0
   46.0100   32.0080   46.6210 N   0  0  0  0  0  0  0  0  0  0  0  0
   45.1990   32.6090   47.6550 C   0  0  0  0  0  0  0  0  0  0  0  0
   44.2420   31.7180   48.1710 F   0  0  0  0  0  0  0  0  0  0  0  0
   44.5440   33.7660   47.2220 F   0  0  0  0  0  0  0  0  0  0  0  0
   45.9800   32.9440   48.7650 F   0  0  0  0  0  0  0  0  0  0  0  0
   46.9800   30.0490   47.9060 C   0  0  0  0  0  0  0  0  0  0  0  0
   47.5490   30.7980   48.9440 F   0  0  0  0  0  0  0  0  0  0  0  0
   47.8010   28.9790   47.7250 F   0  0  0  0  0  0  0  0  0  0  0  0
   45.7670   29.5370   48.3720 F   0  0  0  0  0  0  0  0  0  0  0  0
   44.8047   36.8422   45.6322 H   0  0  0  0  0  0  0  0  0  0  0  0
   43.6523   36.7502   43.3696 H   0  0  0  0  0  0  0  0  0  0  0  0
   41.5304   34.8735   42.4262 H   0  0  0  0  0  0  0  0  0  0  0  0
   44.5899   34.3688   38.7171 H   0  0  0  0  0  0  0  0  0  0  0  0
   39.7806   34.8885   40.9975 H   0  0  0  0  0  0  0  0  0  0  0  0
   40.1267   35.7612   39.4661 H   0  0  0  0  0  0  0  0  0  0  0  0
   39.9795   33.9710   39.4661 H   0  0  0  0  0  0  0  0  0  0  0  0
   47.2822   31.7280   43.6406 H   0  0  0  0  0  0  0  0  0  0  0  0
  1  6  2  0
  2  1  1  0
  3  4  1  0
  3  2  2  0
  4  5  2  0
  5 16  1  0
  5  6  1  0
  7  3  1  0
  8  7  1  0
  9  8  2  0
 10 12  1  0
 10  9  1  0
 11 10  2  0
 12 13  1  0
 13 14  2  0
 13  7  1  0
 15  9  1  0
 16 20  1  0
 17 16  2  0
 17 18  1  0
 18 19  2  0
 19 25  1  0
 20 19  1  0
 20 21  1  0
 21 22  1  0
 21 24  1  0
 23 21  1  0
 25 28  1  0
 25 26  1  0
 27 25  1  0
  1 29  1  0
  2 30  1  0
  8 31  1  0
 12 32  1  0
 15 33  1  0
 15 34  1  0
 15 35  1  0
 17 36  1  0
M  ISO  8  29  14  30  14  31  14  32   9  33   8  34   8  35   8  36  14
M  END
>  <minimizedAffinity>  (1) 
-6.34854984

>  <minimizedRMSD>  (1) 
0.36261642

$$$$
