
     RDKit          3D

 33 36  0  0  0  0  0  0  0  0999 V2000
   44.4570   36.0300   44.4930 C   0  0  0  0  0  0  0  0  0  0  0  0
   45.1340   36.1030   43.2520 C   0  0  0  0  0  0  0  0  0  0  0  0
   46.1110   35.1250   42.9610 C   0  0  0  0  0  0  0  0  0  0  0  0
   46.3560   34.1640   43.8780 N   0  0  0  0  0  0  0  0  0  0  0  0
   45.6790   34.1300   45.0640 C   0  0  0  0  0  0  0  0  0  0  0  0
   44.7390   35.0560   45.3650 N   0  0  0  0  0  0  0  0  0  0  0  0
   46.0460   33.0640   45.9530 N   0  0  0  0  0  0  0  0  0  0  0  0
   45.7200   32.8790   47.2500 C   0  0  0  0  0  0  0  0  0  0  0  0
   46.3040   31.7610   47.6680 N   0  0  0  0  0  0  0  0  0  0  0  0
   47.0110   31.2000   46.6760 C   0  0  0  0  0  0  0  0  0  0  0  0
   47.7870   30.0480   46.6010 C   0  0  0  0  0  0  0  0  0  0  0  0
   48.3610   29.7870   45.4190 N   0  0  0  0  0  0  0  0  0  0  0  0
   48.1830   30.6200   44.3580 C   0  0  0  0  0  0  0  0  0  0  0  0
   47.4310   31.7500   44.4070 N   0  0  0  0  0  0  0  0  0  0  0  0
   46.8380   32.0400   45.5870 C   0  0  0  0  0  0  0  0  0  0  0  0
   48.8290   30.3280   43.0320 C   0  0  0  0  0  0  0  0  0  0  0  0
   48.7090   31.4080   42.2030 F   0  0  0  0  0  0  0  0  0  0  0  0
   48.2290   29.2330   42.4490 F   0  0  0  0  0  0  0  0  0  0  0  0
   50.1770   30.1270   43.2400 F   0  0  0  0  0  0  0  0  0  0  0  0
   47.9960   29.1740   47.7750 C   0  0  0  0  0  0  0  0  0  0  0  0
   49.1750   29.7790   48.5030 C   0  0  0  0  0  0  0  0  0  0  0  0
   50.4740   29.5390   48.1160 C   0  0  0  0  0  0  0  0  0  0  0  0
   51.4400   30.5070   49.3420 S   0  0  0  0  0  0  0  0  0  0  0  0
   49.8380   31.0830   50.1920 C   0  0  0  0  0  0  0  0  0  0  0  0
   49.0250   30.5850   49.5780 N   0  0  0  0  0  0  0  0  0  0  0  0
   43.6926   36.7807   44.7422 H   0  0  0  0  0  0  0  0  0  0  0  0
   44.9049   36.9020   42.5316 H   0  0  0  0  0  0  0  0  0  0  0  0
   46.6603   35.1456   42.0082 H   0  0  0  0  0  0  0  0  0  0  0  0
   45.0817   33.5392   47.8556 H   0  0  0  0  0  0  0  0  0  0  0  0
   47.1039   29.1700   48.4186 H   0  0  0  0  0  0  0  0  0  0  0  0
   48.1787   28.1284   47.4865 H   0  0  0  0  0  0  0  0  0  0  0  0
   50.8411   28.9225   47.2822 H   0  0  0  0  0  0  0  0  0  0  0  0
   49.7273   31.7401   51.0672 H   0  0  0  0  0  0  0  0  0  0  0  0
  1  6  2  0
  2  1  1  0
  3  2  2  0
  3  4  1  0
  4  5  2  0
  5  6  1  0
  5  7  1  0
  7  8  1  0
  8  9  2  0
 10  9  1  0
 11 10  2  0
 11 20  1  0
 12 11  1  0
 13 14  1  0
 13 12  2  0
 14 15  2  0
 15  7  1  0
 15 10  1  0
 16 19  1  0
 16 13  1  0
 17 16  1  0
 18 16  1  0
 20 21  1  0
 21 25  1  0
 22 21  2  0
 22 23  1  0
 23 24  1  0
 25 24  2  0
  1 26  1  0
  2 27  1  0
  3 28  1  0
  8 29  1  0
 20 30  1  0
 20 31  1  0
 22 32  1  0
 24 33  1  0
M  ISO  8  26  14  27  14  28  14  29  14  30   8  31   8  32  14  33  14
M  END
>  <minimizedAffinity>  (1) 
-5.50482178

>  <minimizedRMSD>  (1) 
0.427553743

$$$$
