
     RDKit          3D

 37 40  0  0  0  0  0  0  0  0999 V2000
   44.4670   36.1560   44.3310 C   0  0  0  0  0  0  0  0  0  0  0  0
   45.1910   36.2500   43.1330 C   0  0  0  0  0  0  0  0  0  0  0  0
   46.1690   35.2790   42.8790 C   0  0  0  0  0  0  0  0  0  0  0  0
   46.3780   34.2970   43.7860 N   0  0  0  0  0  0  0  0  0  0  0  0
   45.6400   34.2460   44.9510 C   0  0  0  0  0  0  0  0  0  0  0  0
   44.6970   35.1730   45.2080 N   0  0  0  0  0  0  0  0  0  0  0  0
   45.9630   33.1590   45.8180 N   0  0  0  0  0  0  0  0  0  0  0  0
   45.5980   32.9550   47.0950 C   0  0  0  0  0  0  0  0  0  0  0  0
   46.1340   31.8050   47.5040 N   0  0  0  0  0  0  0  0  0  0  0  0
   46.8480   31.2430   46.5230 C   0  0  0  0  0  0  0  0  0  0  0  0
   47.5870   30.0670   46.4420 C   0  0  0  0  0  0  0  0  0  0  0  0
   48.1840   29.8170   45.2730 N   0  0  0  0  0  0  0  0  0  0  0  0
   48.0650   30.6760   44.2340 C   0  0  0  0  0  0  0  0  0  0  0  0
   47.3510   31.8260   44.2880 N   0  0  0  0  0  0  0  0  0  0  0  0
   46.7360   32.1090   45.4540 C   0  0  0  0  0  0  0  0  0  0  0  0
   48.7430   30.3890   42.9140 C   0  0  0  0  0  0  0  0  0  0  0  0
   48.6380   31.4780   42.0850 F   0  0  0  0  0  0  0  0  0  0  0  0
   48.1480   29.3170   42.2980 F   0  0  0  0  0  0  0  0  0  0  0  0
   50.0850   30.1730   43.1450 F   0  0  0  0  0  0  0  0  0  0  0  0
   47.6970   29.1510   47.6000 C   0  0  0  0  0  0  0  0  0  0  0  0
   46.7010   28.0620   47.4410 C   0  0  0  0  0  0  0  0  0  0  0  0
   45.3410   28.2180   47.6110 C   0  0  0  0  0  0  0  0  0  0  0  0
   44.5210   27.1010   47.4270 C   0  0  0  0  0  0  0  0  0  0  0  0
   45.0880   25.8770   47.0840 C   0  0  0  0  0  0  0  0  0  0  0  0
   46.4480   25.7220   46.9140 C   0  0  0  0  0  0  0  0  0  0  0  0
   47.2590   26.8280   47.0950 C   0  0  0  0  0  0  0  0  0  0  0  0
   43.6941   36.9064   44.5535 H   0  0  0  0  0  0  0  0  0  0  0  0
   44.9970   37.0607   42.4153 H   0  0  0  0  0  0  0  0  0  0  0  0
   46.7604   35.3148   41.9522 H   0  0  0  0  0  0  0  0  0  0  0  0
   44.9656   33.6222   47.6991 H   0  0  0  0  0  0  0  0  0  0  0  0
   48.7098   28.7236   47.6391 H   0  0  0  0  0  0  0  0  0  0  0  0
   47.5053   29.7013   48.5330 H   0  0  0  0  0  0  0  0  0  0  0  0
   44.9137   29.1942   47.8838 H   0  0  0  0  0  0  0  0  0  0  0  0
   43.4318   27.1890   47.5528 H   0  0  0  0  0  0  0  0  0  0  0  0
   44.4309   25.0060   46.9441 H   0  0  0  0  0  0  0  0  0  0  0  0
   46.8759   24.7458   46.6420 H   0  0  0  0  0  0  0  0  0  0  0  0
   48.3475   26.7360   46.9661 H   0  0  0  0  0  0  0  0  0  0  0  0
  1  6  2  0
  2  1  1  0
  3  2  2  0
  3  4  1  0
  4  5  2  0
  5  6  1  0
  5  7  1  0
  7  8  1  0
  8  9  2  0
 10  9  1  0
 11 10  2  0
 11 20  1  0
 12 11  1  0
 13 14  1  0
 13 12  2  0
 14 15  2  0
 15  7  1  0
 15 10  1  0
 16 19  1  0
 16 13  1  0
 17 16  1  0
 18 16  1  0
 21 20  1  0
 21 22  2  0
 23 22  1  0
 24 23  2  0
 25 24  1  0
 25 26  2  0
 26 21  1  0
  1 27  1  0
  2 28  1  0
  3 29  1  0
  8 30  1  0
 20 31  1  0
 20 32  1  0
 22 33  1  0
 23 34  1  0
 24 35  1  0
 25 36  1  0
 26 37  1  0
M  ISO  8  27  14  28  14  29  14  30  14  31   8  32   8  33  14  34  14
M  ISO  3  35  14  36  14  37  14
M  END
>  <minimizedAffinity>  (1) 
-5.29050303

>  <minimizedRMSD>  (1) 
2.24932575

$$$$
