
     RDKit          3D

 44 48  0  0  0  0  0  0  0  0999 V2000
   44.4570   36.0590   44.4210 C   0  0  0  0  0  0  0  0  0  0  0  0
   45.1580   36.1320   43.2180 C   0  0  0  0  0  0  0  0  0  0  0  0
   46.1610   35.1590   42.9380 C   0  0  0  0  0  0  0  0  0  0  0  0
   46.3720   34.2070   43.8740 N   0  0  0  0  0  0  0  0  0  0  0  0
   45.6620   34.1650   45.0460 C   0  0  0  0  0  0  0  0  0  0  0  0
   44.7220   35.0920   45.2920 N   0  0  0  0  0  0  0  0  0  0  0  0
   46.0010   33.0950   45.9410 N   0  0  0  0  0  0  0  0  0  0  0  0
   45.6340   32.9120   47.2220 C   0  0  0  0  0  0  0  0  0  0  0  0
   46.1930   31.7730   47.6480 N   0  0  0  0  0  0  0  0  0  0  0  0
   46.9120   31.2140   46.6770 C   0  0  0  0  0  0  0  0  0  0  0  0
   47.6780   30.0400   46.6130 C   0  0  0  0  0  0  0  0  0  0  0  0
   48.2800   29.7860   45.4420 N   0  0  0  0  0  0  0  0  0  0  0  0
   48.1460   30.6270   44.3910 C   0  0  0  0  0  0  0  0  0  0  0  0
   47.4070   31.7690   44.4350 N   0  0  0  0  0  0  0  0  0  0  0  0
   46.7850   32.0580   45.6000 C   0  0  0  0  0  0  0  0  0  0  0  0
   48.8290   30.3270   43.0830 C   0  0  0  0  0  0  0  0  0  0  0  0
   48.7540   31.4290   42.2570 F   0  0  0  0  0  0  0  0  0  0  0  0
   48.2250   29.2600   42.4690 F   0  0  0  0  0  0  0  0  0  0  0  0
   50.1640   30.1090   43.3060 F   0  0  0  0  0  0  0  0  0  0  0  0
   47.8100   29.1350   47.7740 C   0  0  0  0  0  0  0  0  0  0  0  0
   49.1050   29.4490   48.4420 C   0  0  0  0  0  0  0  0  0  0  0  0
   50.3130   28.8130   48.4800 C   0  0  0  0  0  0  0  0  0  0  0  0
   51.1760   29.5640   49.2660 C   0  0  0  0  0  0  0  0  0  0  0  0
   50.4820   30.6400   49.6950 N   0  0  0  0  0  0  0  0  0  0  0  0
   49.2620   30.5480   49.1930 N   0  0  0  0  0  0  0  0  0  0  0  0
   50.9380   31.7060   50.5320 C   0  0  0  0  0  0  0  0  0  0  0  0
   51.1670   31.5530   51.8850 C   0  0  0  0  0  0  0  0  0  0  0  0
   51.6060   32.6290   52.6280 C   0  0  0  0  0  0  0  0  0  0  0  0
   51.8140   33.8580   52.0150 C   0  0  0  0  0  0  0  0  0  0  0  0
   51.5930   34.0350   50.6700 C   0  0  0  0  0  0  0  0  0  0  0  0
   51.1490   32.9470   49.9190 C   0  0  0  0  0  0  0  0  0  0  0  0
   43.6816   36.8050   44.6496 H   0  0  0  0  0  0  0  0  0  0  0  0
   44.9396   36.9308   42.4939 H   0  0  0  0  0  0  0  0  0  0  0  0
   46.7379   35.1818   42.0017 H   0  0  0  0  0  0  0  0  0  0  0  0
   44.9898   33.5791   47.8136 H   0  0  0  0  0  0  0  0  0  0  0  0
   46.9772   29.2981   48.4739 H   0  0  0  0  0  0  0  0  0  0  0  0
   47.7858   28.0839   47.4506 H   0  0  0  0  0  0  0  0  0  0  0  0
   50.5597   27.8677   47.9744 H   0  0  0  0  0  0  0  0  0  0  0  0
   52.2255   29.3277   49.4957 H   0  0  0  0  0  0  0  0  0  0  0  0
   51.0003   30.5787   52.3676 H   0  0  0  0  0  0  0  0  0  0  0  0
   51.7914   32.5138   53.7061 H   0  0  0  0  0  0  0  0  0  0  0  0
   52.1632   34.7083   52.6192 H   0  0  0  0  0  0  0  0  0  0  0  0
   51.7626   35.0132   50.1964 H   0  0  0  0  0  0  0  0  0  0  0  0
   50.9639   33.0642   48.8410 H   0  0  0  0  0  0  0  0  0  0  0  0
  1  6  2  0
  2  1  1  0
  3  2  2  0
  3  4  1  0
  4  5  2  0
  5  6  1  0
  5  7  1  0
  7  8  1  0
  8  9  2  0
 10  9  1  0
 11 10  2  0
 11 20  1  0
 12 11  1  0
 13 14  1  0
 13 12  2  0
 14 15  2  0
 15  7  1  0
 15 10  1  0
 16 19  1  0
 16 13  1  0
 17 16  1  0
 18 16  1  0
 20 21  1  0
 21 22  1  0
 21 25  2  0
 22 23  2  0
 23 24  1  0
 24 26  1  0
 25 24  1  0
 26 27  2  0
 27 28  1  0
 29 28  2  0
 30 29  1  0
 31 26  1  0
 31 30  2  0
  1 32  1  0
  2 33  1  0
  3 34  1  0
  8 35  1  0
 20 36  1  0
 20 37  1  0
 22 38  1  0
 23 39  1  0
 27 40  1  0
 28 41  1  0
 29 42  1  0
 30 43  1  0
 31 44  1  0
M  ISO  8  32  14  33  14  34  14  35  14  36   8  37   8  38  14  39  14
M  ISO  5  40  14  41  14  42  14  43  14  44  14
M  END
>  <minimizedAffinity>  (1) 
-6.63657188

>  <minimizedRMSD>  (1) 
1.05663598

$$$$
