
     RDKit          3D

 44 48  0  0  0  0  0  0  0  0999 V2000
   44.4540   36.0410   44.4190 C   0  0  0  0  0  0  0  0  0  0  0  0
   45.1620   36.1270   43.2020 C   0  0  0  0  0  0  0  0  0  0  0  0
   46.1570   35.1610   42.9520 C   0  0  0  0  0  0  0  0  0  0  0  0
   46.3880   34.2060   43.8750 N   0  0  0  0  0  0  0  0  0  0  0  0
   45.6650   34.1610   45.0570 C   0  0  0  0  0  0  0  0  0  0  0  0
   44.7200   35.0790   45.2970 N   0  0  0  0  0  0  0  0  0  0  0  0
   46.0140   33.0900   45.9530 N   0  0  0  0  0  0  0  0  0  0  0  0
   45.6590   32.9070   47.2290 C   0  0  0  0  0  0  0  0  0  0  0  0
   46.2240   31.7690   47.6550 N   0  0  0  0  0  0  0  0  0  0  0  0
   46.9450   31.2020   46.6720 C   0  0  0  0  0  0  0  0  0  0  0  0
   47.7070   30.0390   46.6070 C   0  0  0  0  0  0  0  0  0  0  0  0
   48.3010   29.7830   45.4360 N   0  0  0  0  0  0  0  0  0  0  0  0
   48.1540   30.6270   44.3830 C   0  0  0  0  0  0  0  0  0  0  0  0
   47.4170   31.7640   44.4260 N   0  0  0  0  0  0  0  0  0  0  0  0
   46.8030   32.0500   45.6020 C   0  0  0  0  0  0  0  0  0  0  0  0
   48.8320   30.3220   43.0700 C   0  0  0  0  0  0  0  0  0  0  0  0
   48.7420   31.4220   42.2440 F   0  0  0  0  0  0  0  0  0  0  0  0
   48.2140   29.2510   42.4550 F   0  0  0  0  0  0  0  0  0  0  0  0
   50.1560   30.0920   43.2840 F   0  0  0  0  0  0  0  0  0  0  0  0
   47.8500   29.1400   47.7600 C   0  0  0  0  0  0  0  0  0  0  0  0
   49.1170   29.4810   48.4590 C   0  0  0  0  0  0  0  0  0  0  0  0
   50.3440   28.8590   48.4980 C   0  0  0  0  0  0  0  0  0  0  0  0
   51.1660   29.6250   49.3190 C   0  0  0  0  0  0  0  0  0  0  0  0
   50.4370   30.6740   49.7540 N   0  0  0  0  0  0  0  0  0  0  0  0
   49.2210   30.5650   49.2280 N   0  0  0  0  0  0  0  0  0  0  0  0
   50.9260   31.6930   50.6210 C   0  0  0  0  0  0  0  0  0  0  0  0
   51.1150   32.8980   49.9350 C   0  0  0  0  0  0  0  0  0  0  0  0
   51.5930   33.9970   50.6570 C   0  0  0  0  0  0  0  0  0  0  0  0
   51.8840   33.9330   52.0150 C   0  0  0  0  0  0  0  0  0  0  0  0
   51.6800   32.7210   52.6390 C   0  0  0  0  0  0  0  0  0  0  0  0
   51.2090   31.6090   51.9700 C   0  0  0  0  0  0  0  0  0  0  0  0
   43.6711   36.7801   44.6446 H   0  0  0  0  0  0  0  0  0  0  0  0
   44.9447   36.9213   42.4727 H   0  0  0  0  0  0  0  0  0  0  0  0
   46.7367   35.1858   42.0175 H   0  0  0  0  0  0  0  0  0  0  0  0
   45.0167   33.5729   47.8240 H   0  0  0  0  0  0  0  0  0  0  0  0
   46.9993   29.2736   48.4444 H   0  0  0  0  0  0  0  0  0  0  0  0
   47.8701   28.0923   47.4254 H   0  0  0  0  0  0  0  0  0  0  0  0
   50.6226   27.9307   47.9779 H   0  0  0  0  0  0  0  0  0  0  0  0
   52.2166   29.4142   49.5676 H   0  0  0  0  0  0  0  0  0  0  0  0
   50.8944   32.9787   48.8604 H   0  0  0  0  0  0  0  0  0  0  0  0
   51.7447   34.9500   50.1290 H   0  0  0  0  0  0  0  0  0  0  0  0
   52.2593   34.8083   52.5655 H   0  0  0  0  0  0  0  0  0  0  0  0
   51.9014   32.6364   53.7132 H   0  0  0  0  0  0  0  0  0  0  0  0
   51.0600   30.6615   52.5085 H   0  0  0  0  0  0  0  0  0  0  0  0
  1  6  2  0
  2  1  1  0
  3  2  2  0
  3  4  1  0
  4  5  2  0
  5  6  1  0
  5  7  1  0
  7  8  1  0
  8  9  2  0
 10  9  1  0
 11 10  2  0
 11 20  1  0
 12 11  1  0
 13 14  1  0
 13 12  2  0
 14 15  2  0
 15  7  1  0
 15 10  1  0
 16 19  1  0
 16 13  1  0
 17 16  1  0
 18 16  1  0
 20 21  1  0
 21 22  1  0
 21 25  2  0
 22 23  2  0
 23 24  1  0
 24 26  1  0
 25 24  1  0
 26 31  1  0
 27 26  2  0
 27 28  1  0
 28 29  2  0
 29 30  1  0
 31 30  2  0
  1 32  1  0
  2 33  1  0
  3 34  1  0
  8 35  1  0
 20 36  1  0
 20 37  1  0
 22 38  1  0
 23 39  1  0
 27 40  1  0
 28 41  1  0
 29 42  1  0
 30 43  1  0
 31 44  1  0
M  ISO  8  32  14  33  14  34  14  35  14  36   8  37   8  38  14  39  14
M  ISO  5  40  14  41  14  42  14  43  14  44  14
M  END
>  <minimizedAffinity>  (1) 
-6.66293907

>  <minimizedRMSD>  (1) 
0.979120731

$$$$
