
     RDKit          3D

 42 46  0  0  0  0  0  0  0  0999 V2000
   44.4510   36.0380   44.4260 C   0  0  0  0  0  0  0  0  0  0  0  0
   45.1600   36.1240   43.2070 C   0  0  0  0  0  0  0  0  0  0  0  0
   46.1550   35.1550   42.9600 C   0  0  0  0  0  0  0  0  0  0  0  0
   46.3860   34.2050   43.8760 N   0  0  0  0  0  0  0  0  0  0  0  0
   45.6690   34.1600   45.0500 C   0  0  0  0  0  0  0  0  0  0  0  0
   44.7190   35.0740   45.3000 N   0  0  0  0  0  0  0  0  0  0  0  0
   46.0210   33.0880   45.9410 N   0  0  0  0  0  0  0  0  0  0  0  0
   45.6650   32.9020   47.2270 C   0  0  0  0  0  0  0  0  0  0  0  0
   46.2310   31.7690   47.6420 N   0  0  0  0  0  0  0  0  0  0  0  0
   46.9480   31.2060   46.6660 C   0  0  0  0  0  0  0  0  0  0  0  0
   47.7080   30.0410   46.6080 C   0  0  0  0  0  0  0  0  0  0  0  0
   48.3010   29.7870   45.4380 N   0  0  0  0  0  0  0  0  0  0  0  0
   48.1560   30.6270   44.3880 C   0  0  0  0  0  0  0  0  0  0  0  0
   47.4220   31.7620   44.4240 N   0  0  0  0  0  0  0  0  0  0  0  0
   46.8110   32.0460   45.5940 C   0  0  0  0  0  0  0  0  0  0  0  0
   48.8300   30.3320   43.0660 C   0  0  0  0  0  0  0  0  0  0  0  0
   48.7590   31.4310   42.2440 F   0  0  0  0  0  0  0  0  0  0  0  0
   48.2270   29.2600   42.4540 F   0  0  0  0  0  0  0  0  0  0  0  0
   50.1610   30.1070   43.2820 F   0  0  0  0  0  0  0  0  0  0  0  0
   47.8530   29.1360   47.7740 C   0  0  0  0  0  0  0  0  0  0  0  0
   49.0990   29.5210   48.4850 C   0  0  0  0  0  0  0  0  0  0  0  0
   50.3210   28.9050   48.6230 C   0  0  0  0  0  0  0  0  0  0  0  0
   51.1270   29.7250   49.4050 C   0  0  0  0  0  0  0  0  0  0  0  0
   50.3920   30.8060   49.7230 N   0  0  0  0  0  0  0  0  0  0  0  0
   49.1980   30.6670   49.1710 N   0  0  0  0  0  0  0  0  0  0  0  0
   50.9090   31.8670   50.5270 C   0  0  0  0  0  0  0  0  0  0  0  0
   51.2160   33.1270   50.0580 C   0  0  0  0  0  0  0  0  0  0  0  0
   51.7090   34.0320   50.9870 C   0  0  0  0  0  0  0  0  0  0  0  0
   51.8860   33.7130   52.2920 N   0  0  0  0  0  0  0  0  0  0  0  0
   51.5740   32.4660   52.7190 C   0  0  0  0  0  0  0  0  0  0  0  0
   51.0940   31.5670   51.8440 N   0  0  0  0  0  0  0  0  0  0  0  0
   43.6688   36.7771   44.6539 H   0  0  0  0  0  0  0  0  0  0  0  0
   44.9440   36.9179   42.4769 H   0  0  0  0  0  0  0  0  0  0  0  0
   46.7349   35.1791   42.0256 H   0  0  0  0  0  0  0  0  0  0  0  0
   45.0234   33.5651   47.8259 H   0  0  0  0  0  0  0  0  0  0  0  0
   46.9883   29.2462   48.4449 H   0  0  0  0  0  0  0  0  0  0  0  0
   47.9017   28.0869   47.4468 H   0  0  0  0  0  0  0  0  0  0  0  0
   50.6096   27.9353   48.1912 H   0  0  0  0  0  0  0  0  0  0  0  0
   52.1665   29.5276   49.7060 H   0  0  0  0  0  0  0  0  0  0  0  0
   51.0772   33.4005   49.0016 H   0  0  0  0  0  0  0  0  0  0  0  0
   51.9660   35.0475   50.6512 H   0  0  0  0  0  0  0  0  0  0  0  0
   51.7128   32.1914   53.7751 H   0  0  0  0  0  0  0  0  0  0  0  0
  1  6  2  0
  2  1  1  0
  3  2  2  0
  3  4  1  0
  4  5  2  0
  5  6  1  0
  5  7  1  0
  7  8  1  0
  8  9  2  0
 10  9  1  0
 11 10  2  0
 11 20  1  0
 12 11  1  0
 13 14  1  0
 13 12  2  0
 14 15  2  0
 15  7  1  0
 15 10  1  0
 16 19  1  0
 16 13  1  0
 17 16  1  0
 18 16  1  0
 20 21  1  0
 21 22  1  0
 21 25  2  0
 22 23  2  0
 23 24  1  0
 24 26  1  0
 25 24  1  0
 26 31  1  0
 27 26  2  0
 27 28  1  0
 28 29  2  0
 29 30  1  0
 31 30  2  0
  1 32  1  0
  2 33  1  0
  3 34  1  0
  8 35  1  0
 20 36  1  0
 20 37  1  0
 22 38  1  0
 23 39  1  0
 27 40  1  0
 28 41  1  0
 30 42  1  0
M  ISO  8  32  14  33  14  34  14  35  14  36   8  37   8  38  14  39  14
M  ISO  3  40  14  41  14  42  14
M  END
>  <minimizedAffinity>  (1) 
-6.55470991

>  <minimizedRMSD>  (1) 
1.08226085

$$$$
