
     RDKit          3D

 43 47  0  0  0  0  0  0  0  0999 V2000
   44.4500   35.9480   44.5150 C   0  0  0  0  0  0  0  0  0  0  0  0
   45.1090   36.0250   43.2750 C   0  0  0  0  0  0  0  0  0  0  0  0
   46.1080   35.0760   42.9980 C   0  0  0  0  0  0  0  0  0  0  0  0
   46.3920   34.1400   43.9230 N   0  0  0  0  0  0  0  0  0  0  0  0
   45.7190   34.1000   45.1310 C   0  0  0  0  0  0  0  0  0  0  0  0
   44.7720   35.0010   45.3940 N   0  0  0  0  0  0  0  0  0  0  0  0
   46.1340   33.0460   46.0130 N   0  0  0  0  0  0  0  0  0  0  0  0
   45.8330   32.8870   47.3220 C   0  0  0  0  0  0  0  0  0  0  0  0
   46.4380   31.7620   47.7360 N   0  0  0  0  0  0  0  0  0  0  0  0
   47.1160   31.1950   46.7370 C   0  0  0  0  0  0  0  0  0  0  0  0
   47.8920   30.0400   46.6580 C   0  0  0  0  0  0  0  0  0  0  0  0
   48.4340   29.7740   45.4640 N   0  0  0  0  0  0  0  0  0  0  0  0
   48.2330   30.5870   44.4030 C   0  0  0  0  0  0  0  0  0  0  0  0
   47.4780   31.7180   44.4600 N   0  0  0  0  0  0  0  0  0  0  0  0
   46.9200   32.0130   45.6450 C   0  0  0  0  0  0  0  0  0  0  0  0
   48.8500   30.2730   43.0680 C   0  0  0  0  0  0  0  0  0  0  0  0
   48.7150   31.3680   42.2230 F   0  0  0  0  0  0  0  0  0  0  0  0
   48.2510   29.1860   42.5030 F   0  0  0  0  0  0  0  0  0  0  0  0
   50.1980   30.0830   43.2200 F   0  0  0  0  0  0  0  0  0  0  0  0
   48.1050   29.1570   47.8320 C   0  0  0  0  0  0  0  0  0  0  0  0
   49.3940   29.5410   48.4520 C   0  0  0  0  0  0  0  0  0  0  0  0
   50.6770   29.5770   47.9960 C   0  0  0  0  0  0  0  0  0  0  0  0
   51.5000   30.0280   49.0280 C   0  0  0  0  0  0  0  0  0  0  0  0
   50.6860   30.2560   50.0940 N   0  0  0  0  0  0  0  0  0  0  0  0
   49.4490   29.9610   49.7290 N   0  0  0  0  0  0  0  0  0  0  0  0
   51.1010   30.7300   51.3790 C   0  0  0  0  0  0  0  0  0  0  0  0
   51.4450   29.8270   52.3660 C   0  0  0  0  0  0  0  0  0  0  0  0
   51.8300   30.4020   53.5640 C   0  0  0  0  0  0  0  0  0  0  0  0
   51.8880   31.7630   53.8170 C   0  0  0  0  0  0  0  0  0  0  0  0
   51.5220   32.5980   52.7560 C   0  0  0  0  0  0  0  0  0  0  0  0
   51.1340   32.0790   51.5560 N   0  0  0  0  0  0  0  0  0  0  0  0
   43.6625   36.6757   44.7607 H   0  0  0  0  0  0  0  0  0  0  0  0
   44.8503   36.8048   42.5436 H   0  0  0  0  0  0  0  0  0  0  0  0
   46.6492   35.0977   42.0406 H   0  0  0  0  0  0  0  0  0  0  0  0
   45.2087   33.5550   47.9336 H   0  0  0  0  0  0  0  0  0  0  0  0
   47.2866   29.2899   48.5549 H   0  0  0  0  0  0  0  0  0  0  0  0
   48.1236   28.1013   47.5235 H   0  0  0  0  0  0  0  0  0  0  0  0
   51.0081   29.2977   46.9849 H   0  0  0  0  0  0  0  0  0  0  0  0
   52.5899   30.1708   48.9879 H   0  0  0  0  0  0  0  0  0  0  0  0
   51.4152   28.7383   52.2119 H   0  0  0  0  0  0  0  0  0  0  0  0
   52.1131   29.7235   54.3822 H   0  0  0  0  0  0  0  0  0  0  0  0
   52.2026   32.1625   54.7924 H   0  0  0  0  0  0  0  0  0  0  0  0
   51.5475   33.6893   52.8916 H   0  0  0  0  0  0  0  0  0  0  0  0
  1  6  2  0
  2  1  1  0
  3  2  2  0
  3  4  1  0
  4  5  2  0
  5  6  1  0
  5  7  1  0
  7  8  1  0
  8  9  2  0
 10  9  1  0
 11 10  2  0
 11 20  1  0
 12 11  1  0
 13 14  1  0
 13 12  2  0
 14 15  2  0
 15  7  1  0
 15 10  1  0
 16 19  1  0
 16 13  1  0
 17 16  1  0
 18 16  1  0
 20 21  1  0
 21 25  2  0
 22 21  1  0
 22 23  2  0
 23 24  1  0
 24 26  1  0
 25 24  1  0
 26 31  1  0
 26 27  2  0
 27 28  1  0
 28 29  2  0
 30 29  1  0
 31 30  2  0
  1 32  1  0
  2 33  1  0
  3 34  1  0
  8 35  1  0
 20 36  1  0
 20 37  1  0
 22 38  1  0
 23 39  1  0
 27 40  1  0
 28 41  1  0
 29 42  1  0
 30 43  1  0
M  ISO  8  32  14  33  14  34  14  35  14  36   8  37   8  38  14  39  14
M  ISO  4  40  14  41  14  42  14  43  14
M  END
>  <minimizedAffinity>  (1) 
-6.57710361

>  <minimizedRMSD>  (1) 
1.09073699

$$$$
