
     RDKit          3D

 37 40  0  0  0  0  0  0  0  0999 V2000
   44.4490   36.0580   44.4290 C   0  0  0  0  0  0  0  0  0  0  0  0
   45.1490   36.1340   43.2110 C   0  0  0  0  0  0  0  0  0  0  0  0
   46.1390   35.1650   42.9460 C   0  0  0  0  0  0  0  0  0  0  0  0
   46.3670   34.2120   43.8710 N   0  0  0  0  0  0  0  0  0  0  0  0
   45.6630   34.1710   45.0450 C   0  0  0  0  0  0  0  0  0  0  0  0
   44.7200   35.0810   45.3170 N   0  0  0  0  0  0  0  0  0  0  0  0
   46.0140   33.0980   45.9310 N   0  0  0  0  0  0  0  0  0  0  0  0
   45.6660   32.9020   47.2230 C   0  0  0  0  0  0  0  0  0  0  0  0
   46.2320   31.7670   47.6290 N   0  0  0  0  0  0  0  0  0  0  0  0
   46.9440   31.2090   46.6440 C   0  0  0  0  0  0  0  0  0  0  0  0
   47.7030   30.0450   46.5720 C   0  0  0  0  0  0  0  0  0  0  0  0
   48.2920   29.7940   45.3980 N   0  0  0  0  0  0  0  0  0  0  0  0
   48.1430   30.6370   44.3520 C   0  0  0  0  0  0  0  0  0  0  0  0
   47.4050   31.7750   44.4090 N   0  0  0  0  0  0  0  0  0  0  0  0
   46.8010   32.0580   45.5730 C   0  0  0  0  0  0  0  0  0  0  0  0
   48.8140   30.3380   43.0320 C   0  0  0  0  0  0  0  0  0  0  0  0
   48.7380   31.4510   42.2160 F   0  0  0  0  0  0  0  0  0  0  0  0
   48.2000   29.2720   42.4160 F   0  0  0  0  0  0  0  0  0  0  0  0
   50.1440   30.1190   43.2410 F   0  0  0  0  0  0  0  0  0  0  0  0
   47.8510   29.1350   47.7360 C   0  0  0  0  0  0  0  0  0  0  0  0
   49.1210   29.4830   48.4280 C   0  0  0  0  0  0  0  0  0  0  0  0
   50.3000   28.8130   48.5750 C   0  0  0  0  0  0  0  0  0  0  0  0
   51.1420   29.6380   49.3290 C   0  0  0  0  0  0  0  0  0  0  0  0
   50.4680   30.7610   49.6130 N   0  0  0  0  0  0  0  0  0  0  0  0
   49.2690   30.6510   49.0690 N   0  0  0  0  0  0  0  0  0  0  0  0
   51.0130   31.8740   50.3880 C   0  0  0  0  0  0  0  0  0  0  0  0
   52.3950   31.8490   50.4070 F   0  0  0  0  0  0  0  0  0  0  0  0
   50.6450   33.0770   49.8530 F   0  0  0  0  0  0  0  0  0  0  0  0
   50.5920   31.7250   51.6990 F   0  0  0  0  0  0  0  0  0  0  0  0
   43.6731   36.8031   44.6588 H   0  0  0  0  0  0  0  0  0  0  0  0
   44.9297   36.9294   42.4835 H   0  0  0  0  0  0  0  0  0  0  0  0
   46.7112   35.1867   42.0068 H   0  0  0  0  0  0  0  0  0  0  0  0
   45.0292   33.5622   47.8301 H   0  0  0  0  0  0  0  0  0  0  0  0
   47.0024   29.2661   48.4235 H   0  0  0  0  0  0  0  0  0  0  0  0
   47.8699   28.0866   47.4036 H   0  0  0  0  0  0  0  0  0  0  0  0
   50.5422   27.8163   48.1775 H   0  0  0  0  0  0  0  0  0  0  0  0
   52.1731   29.4062   49.6341 H   0  0  0  0  0  0  0  0  0  0  0  0
  1  6  2  0
  2  1  1  0
  3  2  2  0
  3  4  1  0
  4  5  2  0
  5  6  1  0
  5  7  1  0
  7  8  1  0
  8  9  2  0
 10  9  1  0
 11 10  2  0
 11 20  1  0
 12 11  1  0
 13 14  1  0
 13 12  2  0
 14 15  2  0
 15  7  1  0
 15 10  1  0
 16 19  1  0
 16 13  1  0
 17 16  1  0
 18 16  1  0
 20 21  1  0
 21 22  1  0
 21 25  2  0
 22 23  2  0
 23 24  1  0
 24 26  1  0
 25 24  1  0
 26 27  1  0
 26 29  1  0
 28 26  1  0
  1 30  1  0
  2 31  1  0
  3 32  1  0
  8 33  1  0
 20 34  1  0
 20 35  1  0
 22 36  1  0
 23 37  1  0
M  ISO  8  30  14  31  14  32  14  33  14  34   8  35   8  36  14  37  14
M  END
>  <minimizedAffinity>  (1) 
-5.94223881

>  <minimizedRMSD>  (1) 
0.838736057

$$$$
