
     RDKit          3D

 47 51  0  0  0  0  0  0  0  0999 V2000
   44.4520   36.0040   44.4730 C   0  0  0  0  0  0  0  0  0  0  0  0
   45.1350   36.0980   43.2440 C   0  0  0  0  0  0  0  0  0  0  0  0
   46.1330   35.1310   42.9700 C   0  0  0  0  0  0  0  0  0  0  0  0
   46.3820   34.1720   43.8880 N   0  0  0  0  0  0  0  0  0  0  0  0
   45.6840   34.1270   45.0760 C   0  0  0  0  0  0  0  0  0  0  0  0
   44.7420   35.0370   45.3370 N   0  0  0  0  0  0  0  0  0  0  0  0
   46.0570   33.0570   45.9490 N   0  0  0  0  0  0  0  0  0  0  0  0
   45.7180   32.8660   47.2440 C   0  0  0  0  0  0  0  0  0  0  0  0
   46.2950   31.7310   47.6590 N   0  0  0  0  0  0  0  0  0  0  0  0
   47.0020   31.1780   46.6650 C   0  0  0  0  0  0  0  0  0  0  0  0
   47.7730   30.0150   46.5850 C   0  0  0  0  0  0  0  0  0  0  0  0
   48.3510   29.7680   45.4030 N   0  0  0  0  0  0  0  0  0  0  0  0
   48.1870   30.6060   44.3580 C   0  0  0  0  0  0  0  0  0  0  0  0
   47.4400   31.7420   44.4160 N   0  0  0  0  0  0  0  0  0  0  0  0
   46.8460   32.0200   45.5890 C   0  0  0  0  0  0  0  0  0  0  0  0
   48.8450   30.3150   43.0310 C   0  0  0  0  0  0  0  0  0  0  0  0
   48.7250   31.4100   42.2030 F   0  0  0  0  0  0  0  0  0  0  0  0
   48.2390   29.2390   42.4300 F   0  0  0  0  0  0  0  0  0  0  0  0
   50.1780   30.1000   43.2240 F   0  0  0  0  0  0  0  0  0  0  0  0
   47.9440   29.1080   47.7340 C   0  0  0  0  0  0  0  0  0  0  0  0
   49.1770   29.5180   48.4630 C   0  0  0  0  0  0  0  0  0  0  0  0
   50.4800   29.0820   48.3810 C   0  0  0  0  0  0  0  0  0  0  0  0
   51.2170   29.8220   49.3020 C   0  0  0  0  0  0  0  0  0  0  0  0
   50.3730   30.6690   49.9090 N   0  0  0  0  0  0  0  0  0  0  0  0
   49.1660   30.4760   49.4000 N   0  0  0  0  0  0  0  0  0  0  0  0
   50.6040   31.6460   50.9280 C   0  0  0  0  0  0  0  0  0  0  0  0
   51.1900   32.9030   50.3860 C   0  0  0  0  0  0  0  0  0  0  0  0
   52.1480   33.3270   51.5060 C   0  0  0  0  0  0  0  0  0  0  0  0
   52.7700   31.9760   51.8720 C   0  0  0  0  0  0  0  0  0  0  0  0
   51.4940   31.1410   52.0390 C   0  0  0  0  0  0  0  0  0  0  0  0
   43.6711   36.7384   44.7196 H   0  0  0  0  0  0  0  0  0  0  0  0
   44.9012   36.8947   42.5225 H   0  0  0  0  0  0  0  0  0  0  0  0
   46.6959   35.1605   42.0254 H   0  0  0  0  0  0  0  0  0  0  0  0
   45.0805   33.5266   47.8499 H   0  0  0  0  0  0  0  0  0  0  0  0
   47.0730   29.1827   48.4017 H   0  0  0  0  0  0  0  0  0  0  0  0
   48.0312   28.0668   47.3900 H   0  0  0  0  0  0  0  0  0  0  0  0
   50.8662   28.2972   47.7139 H   0  0  0  0  0  0  0  0  0  0  0  0
   52.2957   29.7287   49.4963 H   0  0  0  0  0  0  0  0  0  0  0  0
   49.6067   31.8563   51.3418 H   0  0  0  0  0  0  0  0  0  0  0  0
   51.7323   32.7172   49.4472 H   0  0  0  0  0  0  0  0  0  0  0  0
   50.4390   33.6670   50.1363 H   0  0  0  0  0  0  0  0  0  0  0  0
   52.9057   34.0377   51.1442 H   0  0  0  0  0  0  0  0  0  0  0  0
   51.6670   33.8512   52.3450 H   0  0  0  0  0  0  0  0  0  0  0  0
   53.4106   31.5883   51.0662 H   0  0  0  0  0  0  0  0  0  0  0  0
   53.4355   31.9909   52.7477 H   0  0  0  0  0  0  0  0  0  0  0  0
   51.0343   31.3154   53.0230 H   0  0  0  0  0  0  0  0  0  0  0  0
   51.6772   30.0576   51.9866 H   0  0  0  0  0  0  0  0  0  0  0  0
  1  6  2  0
  2  1  1  0
  3  2  2  0
  3  4  1  0
  4  5  2  0
  5  6  1  0
  5  7  1  0
  7  8  1  0
  8  9  2  0
 10  9  1  0
 11 10  2  0
 11 20  1  0
 12 11  1  0
 13 14  1  0
 13 12  2  0
 14 15  2  0
 15  7  1  0
 15 10  1  0
 16 19  1  0
 16 13  1  0
 17 16  1  0
 18 16  1  0
 20 21  1  0
 21 25  2  0
 22 21  1  0
 22 23  2  0
 23 24  1  0
 24 26  1  0
 25 24  1  0
 26 30  1  0
 27 26  1  0
 27 28  1  0
 28 29  1  0
 29 30  1  0
  1 31  1  0
  2 32  1  0
  3 33  1  0
  8 34  1  0
 20 35  1  0
 20 36  1  0
 22 37  1  0
 23 38  1  0
 26 39  1  0
 27 40  1  0
 27 41  1  0
 28 42  1  0
 28 43  1  0
 29 44  1  0
 29 45  1  0
 30 46  1  0
 30 47  1  0
M  ISO  8  31  14  32  14  33  14  34  14  35   8  36   8  37  14  38  14
M  ISO  8  39  13  40  13  41  13  42  13  43  13  44  13  45  13  46  13
M  ISO  1  47  13
M  END
>  <minimizedAffinity>  (1) 
-6.23287439

>  <minimizedRMSD>  (1) 
0.7135728

$$$$
