
     RDKit          3D

 49 53  0  0  0  0  0  0  0  0999 V2000
   44.4550   36.0160   44.4700 C   0  0  0  0  0  0  0  0  0  0  0  0
   45.1370   36.0950   43.2530 C   0  0  0  0  0  0  0  0  0  0  0  0
   46.1360   35.1300   42.9620 C   0  0  0  0  0  0  0  0  0  0  0  0
   46.3750   34.1740   43.8910 N   0  0  0  0  0  0  0  0  0  0  0  0
   45.6790   34.1340   45.0790 C   0  0  0  0  0  0  0  0  0  0  0  0
   44.7430   35.0500   45.3360 N   0  0  0  0  0  0  0  0  0  0  0  0
   46.0420   33.0620   45.9690 N   0  0  0  0  0  0  0  0  0  0  0  0
   45.7030   32.8730   47.2460 C   0  0  0  0  0  0  0  0  0  0  0  0
   46.2760   31.7390   47.6600 N   0  0  0  0  0  0  0  0  0  0  0  0
   46.9820   31.1810   46.6800 C   0  0  0  0  0  0  0  0  0  0  0  0
   47.7520   30.0140   46.5960 C   0  0  0  0  0  0  0  0  0  0  0  0
   48.3350   29.7680   45.4090 N   0  0  0  0  0  0  0  0  0  0  0  0
   48.1730   30.6090   44.3680 C   0  0  0  0  0  0  0  0  0  0  0  0
   47.4330   31.7420   44.4250 N   0  0  0  0  0  0  0  0  0  0  0  0
   46.8290   32.0250   45.6070 C   0  0  0  0  0  0  0  0  0  0  0  0
   48.8350   30.3120   43.0460 C   0  0  0  0  0  0  0  0  0  0  0  0
   48.7350   31.4260   42.2220 F   0  0  0  0  0  0  0  0  0  0  0  0
   48.2370   29.2470   42.4400 F   0  0  0  0  0  0  0  0  0  0  0  0
   50.1710   30.1050   43.2460 F   0  0  0  0  0  0  0  0  0  0  0  0
   47.9150   29.1110   47.7450 C   0  0  0  0  0  0  0  0  0  0  0  0
   49.1520   29.5020   48.4640 C   0  0  0  0  0  0  0  0  0  0  0  0
   50.4490   29.0640   48.4000 C   0  0  0  0  0  0  0  0  0  0  0  0
   51.1940   29.8000   49.3160 C   0  0  0  0  0  0  0  0  0  0  0  0
   50.3430   30.6650   49.9160 N   0  0  0  0  0  0  0  0  0  0  0  0
   49.1430   30.4690   49.3960 N   0  0  0  0  0  0  0  0  0  0  0  0
   52.5270   33.3860   52.2940 N   0  0  0  0  0  0  0  0  0  0  0  0
   51.6200   33.8950   51.2980 C   0  0  0  0  0  0  0  0  0  0  0  0
   51.2340   32.8750   50.2760 C   0  0  0  0  0  0  0  0  0  0  0  0
   50.6380   31.6440   50.9440 C   0  0  0  0  0  0  0  0  0  0  0  0
   51.5350   31.1470   52.0280 C   0  0  0  0  0  0  0  0  0  0  0  0
   52.7820   31.9730   52.1780 C   0  0  0  0  0  0  0  0  0  0  0  0
   43.6775   36.7555   44.7119 H   0  0  0  0  0  0  0  0  0  0  0  0
   44.9033   36.8923   42.5321 H   0  0  0  0  0  0  0  0  0  0  0  0
   46.6962   35.1575   42.0157 H   0  0  0  0  0  0  0  0  0  0  0  0
   45.0647   33.5339   47.8508 H   0  0  0  0  0  0  0  0  0  0  0  0
   47.0485   29.2015   48.4166 H   0  0  0  0  0  0  0  0  0  0  0  0
   47.9852   28.0676   47.4038 H   0  0  0  0  0  0  0  0  0  0  0  0
   50.8329   28.2711   47.7412 H   0  0  0  0  0  0  0  0  0  0  0  0
   52.2710   29.6982   49.5150 H   0  0  0  0  0  0  0  0  0  0  0  0
   53.4228   33.8864   52.2040 H   0  0  0  0  0  0  0  0  0  0  0  0
   50.7080   34.2464   51.8028 H   0  0  0  0  0  0  0  0  0  0  0  0
   52.1389   34.7077   50.7686 H   0  0  0  0  0  0  0  0  0  0  0  0
   52.1268   32.5797   49.7053 H   0  0  0  0  0  0  0  0  0  0  0  0
   50.4805   33.3135   49.6053 H   0  0  0  0  0  0  0  0  0  0  0  0
   49.6909   31.8834   51.4497 H   0  0  0  0  0  0  0  0  0  0  0  0
   50.9825   31.1691   52.9789 H   0  0  0  0  0  0  0  0  0  0  0  0
   51.8447   30.1263   51.7591 H   0  0  0  0  0  0  0  0  0  0  0  0
   53.3131   31.6401   53.0819 H   0  0  0  0  0  0  0  0  0  0  0  0
   53.3778   31.8265   51.2650 H   0  0  0  0  0  0  0  0  0  0  0  0
  1  6  2  0
  2  1  1  0
  3  2  2  0
  3  4  1  0
  4  5  2  0
  5  6  1  0
  5  7  1  0
  7  8  1  0
  8  9  2  0
 10  9  1  0
 11 10  2  0
 11 20  1  0
 12 11  1  0
 13 14  1  0
 13 12  2  0
 14 15  2  0
 15  7  1  0
 15 10  1  0
 16 19  1  0
 16 13  1  0
 17 16  1  0
 18 16  1  0
 20 21  1  0
 21 25  2  0
 22 21  1  0
 22 23  2  0
 23 24  1  0
 24 29  1  0
 25 24  1  0
 27 26  1  0
 28 29  1  0
 28 27  1  0
 29 30  1  0
 30 31  1  0
 31 26  1  0
  1 32  1  0
  2 33  1  0
  3 34  1  0
  8 35  1  0
 20 36  1  0
 20 37  1  0
 22 38  1  0
 23 39  1  0
 26 40  1  0
 27 41  1  0
 27 42  1  0
 28 43  1  0
 28 44  1  0
 29 45  1  0
 30 46  1  0
 30 47  1  0
 31 48  1  0
 31 49  1  0
M  ISO  8  32  14  33  14  34  14  35  14  36   8  37   8  38  14  39  14
M  ISO  8  40   5  41  13  42  13  43  13  44  13  45  13  46  13  47  13
M  ISO  2  48  13  49  13
M  END
>  <minimizedAffinity>  (1) 
-6.4893508

>  <minimizedRMSD>  (1) 
0.791275382

$$$$
