
     RDKit          3D

 40 43  0  0  0  0  0  0  0  0999 V2000
   44.8320   35.7820   45.0130 C   0  0  0  0  0  0  0  0  0  0  0  0
   44.0640   35.8690   43.8290 C   0  0  0  0  0  0  0  0  0  0  0  0
   44.1170   34.8140   42.9550 C   0  0  0  0  0  0  0  0  0  0  0  0
   44.8770   33.7210   43.2110 N   0  0  0  0  0  0  0  0  0  0  0  0
   45.6120   33.6550   44.3600 C   0  0  0  0  0  0  0  0  0  0  0  0
   45.5800   34.6870   45.2470 N   0  0  0  0  0  0  0  0  0  0  0  0
   43.3350   34.9230   41.7650 N   0  0  0  0  0  0  0  0  0  0  0  0
   42.0390   35.2560   41.6760 C   0  0  0  0  0  0  0  0  0  0  0  0
   41.4300   35.3130   40.4470 C   0  0  0  0  0  0  0  0  0  0  0  0
   42.1060   35.0380   39.2780 C   0  0  0  0  0  0  0  0  0  0  0  0
   41.5520   35.0900   38.1630 O   0  0  0  0  0  0  0  0  0  0  0  0
   43.3920   34.7120   39.4050 N   0  0  0  0  0  0  0  0  0  0  0  0
   43.9940   34.6560   40.6310 C   0  0  0  0  0  0  0  0  0  0  0  0
   45.2290   34.3290   40.5780 O   0  0  0  0  0  0  0  0  0  0  0  0
   40.0040   35.6840   40.3560 C   0  0  0  0  0  0  0  0  0  0  0  0
   46.4320   32.4870   44.6450 C   0  0  0  0  0  0  0  0  0  0  0  0
   47.2590   31.8160   43.7630 C   0  0  0  0  0  0  0  0  0  0  0  0
   47.8580   30.7830   44.3920 N   0  0  0  0  0  0  0  0  0  0  0  0
   47.3920   30.8180   45.6870 C   0  0  0  0  0  0  0  0  0  0  0  0
   46.5380   31.8410   45.8300 N   0  0  0  0  0  0  0  0  0  0  0  0
   47.8710   29.8200   46.6160 C   0  0  0  0  0  0  0  0  0  0  0  0
   48.7570   29.7800   47.6480 C   0  0  0  0  0  0  0  0  0  0  0  0
   48.8520   28.5620   48.2090 N   0  0  0  0  0  0  0  0  0  0  0  0
   48.0080   27.7610   47.5380 C   0  0  0  0  0  0  0  0  0  0  0  0
   47.4360   28.5280   46.5960 N   0  0  0  0  0  0  0  0  0  0  0  0
   45.8350   32.2130   47.0320 C   0  0  0  0  0  0  0  0  0  0  0  0
   45.1270   31.1450   47.6060 F   0  0  0  0  0  0  0  0  0  0  0  0
   44.9140   33.2470   46.8110 F   0  0  0  0  0  0  0  0  0  0  0  0
   46.7250   32.6470   48.0170 F   0  0  0  0  0  0  0  0  0  0  0  0
   44.8185   36.6065   45.7410 H   0  0  0  0  0  0  0  0  0  0  0  0
   43.4450   36.7531   43.6163 H   0  0  0  0  0  0  0  0  0  0  0  0
   41.4648   35.4831   42.5864 H   0  0  0  0  0  0  0  0  0  0  0  0
   43.9437   34.4978   38.5620 H   0  0  0  0  0  0  0  0  0  0  0  0
   39.5880   35.7922   41.3685 H   0  0  0  0  0  0  0  0  0  0  0  0
   39.9069   36.6373   39.8158 H   0  0  0  0  0  0  0  0  0  0  0  0
   39.4546   34.8989   39.8158 H   0  0  0  0  0  0  0  0  0  0  0  0
   47.4066   32.0841   42.7064 H   0  0  0  0  0  0  0  0  0  0  0  0
   49.3347   30.6524   47.9875 H   0  0  0  0  0  0  0  0  0  0  0  0
   47.8228   26.6926   47.7229 H   0  0  0  0  0  0  0  0  0  0  0  0
   46.7383   28.1755   45.9253 H   0  0  0  0  0  0  0  0  0  0  0  0
  1  6  2  0
  2  1  1  0
  3  4  1  0
  3  2  2  0
  4  5  2  0
  5 16  1  0
  5  6  1  0
  7  3  1  0
  8  7  1  0
  9  8  2  0
 10 12  1  0
 10  9  1  0
 11 10  2  0
 12 13  1  0
 13  7  1  0
 14 13  2  0
 15  9  1  0
 16 20  1  0
 17 18  1  0
 17 16  2  0
 18 19  2  0
 19 20  1  0
 19 21  1  0
 20 26  1  0
 21 22  2  0
 22 23  1  0
 24 23  2  0
 25 21  1  0
 25 24  1  0
 26 27  1  0
 26 29  1  0
 28 26  1  0
  1 30  1  0
  2 31  1  0
  8 32  1  0
 12 33  1  0
 15 34  1  0
 15 35  1  0
 15 36  1  0
 17 37  1  0
 22 38  1  0
 24 39  1  0
 25 40  1  0
M  ISO  8  30  14  31  14  32  14  33   9  34   8  35   8  36   8  37  14
M  ISO  3  38  14  39  14  40   9
M  END
>  <minimizedAffinity>  (1) 
-6.23982716

>  <minimizedRMSD>  (1) 
0.651730895

$$$$
