
     RDKit          3D

 22 23  0  0  0  0  0  0  0  0999 V2000
   46.4290   32.7760   45.4490 C   0  0  0  0  0  0  0  0  0  0  0  0
   46.2730   32.6180   46.8050 C   0  0  0  0  0  0  0  0  0  0  0  0
   46.7410   31.5070   47.4850 C   0  0  0  0  0  0  0  0  0  0  0  0
   47.3720   30.5710   46.7080 C   0  0  0  0  0  0  0  0  0  0  0  0
   47.5540   30.6800   45.3550 C   0  0  0  0  0  0  0  0  0  0  0  0
   47.0590   31.7990   44.8110 N   0  0  0  0  0  0  0  0  0  0  0  0
   44.5390   35.8170   44.7410 C   0  0  0  0  0  0  0  0  0  0  0  0
   44.9890   36.1900   43.4600 C   0  0  0  0  0  0  0  0  0  0  0  0
   45.9440   35.3870   42.8520 C   0  0  0  0  0  0  0  0  0  0  0  0
   46.3920   34.2830   43.5250 N   0  0  0  0  0  0  0  0  0  0  0  0
   45.9230   33.9620   44.7700 C   0  0  0  0  0  0  0  0  0  0  0  0
   45.0080   34.7270   45.3600 N   0  0  0  0  0  0  0  0  0  0  0  0
   46.5570   31.3710   48.9250 C   0  0  0  0  0  0  0  0  0  0  0  0
   45.5280   31.8050   49.4990 O   0  0  0  0  0  0  0  0  0  0  0  0
   47.5360   30.7550   49.6680 O   0  0  0  0  0  0  0  0  0  0  0  0
   45.7557   33.4056   47.3726 H   0  0  0  0  0  0  0  0  0  0  0  0
   47.7592   29.6696   47.2056 H   0  0  0  0  0  0  0  0  0  0  0  0
   48.0667   29.9087   44.7616 H   0  0  0  0  0  0  0  0  0  0  0  0
   43.7832   36.4369   45.2455 H   0  0  0  0  0  0  0  0  0  0  0  0
   44.5971   37.0871   42.9583 H   0  0  0  0  0  0  0  0  0  0  0  0
   46.3317   35.6324   41.8523 H   0  0  0  0  0  0  0  0  0  0  0  0
   47.4255   30.6552   50.6467 H   0  0  0  0  0  0  0  0  0  0  0  0
  1  2  2  0
  2  3  1  0
  3 13  1  0
  4  3  2  0
  5  4  1  0
  6  5  2  0
  6  1  1  0
  7 12  2  0
  8  7  1  0
  9  8  2  0
  9 10  1  0
 10 11  2  0
 11 12  1  0
 11  1  1  0
 13 14  2  0
 13 15  1  0
  2 16  1  0
  4 17  1  0
  5 18  1  0
  7 19  1  0
  8 20  1  0
  9 21  1  0
 15 22  1  0
M  ISO  7  16  14  17  14  18  14  19  14  20  14  21  14  22   3
M  END
>  <minimizedAffinity>  (1) 
-5.13477135

>  <minimizedRMSD>  (1) 
1.91739905

$$$$
