
     RDKit          3D

 21 22  0  0  0  0  0  0  0  0999 V2000
   46.2500   32.9380   45.6480 C   0  0  0  0  0  0  0  0  0  0  0  0
   45.8730   32.8900   46.9890 C   0  0  0  0  0  0  0  0  0  0  0  0
   46.2460   31.8400   47.8050 C   0  0  0  0  0  0  0  0  0  0  0  0
   47.0040   30.8550   47.2240 C   0  0  0  0  0  0  0  0  0  0  0  0
   47.3900   30.8730   45.9090 C   0  0  0  0  0  0  0  0  0  0  0  0
   46.9940   31.9220   45.1690 N   0  0  0  0  0  0  0  0  0  0  0  0
   44.5100   35.9430   44.5090 C   0  0  0  0  0  0  0  0  0  0  0  0
   45.0700   36.1650   43.2370 C   0  0  0  0  0  0  0  0  0  0  0  0
   46.0540   35.2730   42.7700 C   0  0  0  0  0  0  0  0  0  0  0  0
   46.4120   34.2380   43.5810 N   0  0  0  0  0  0  0  0  0  0  0  0
   45.8430   34.0610   44.8050 C   0  0  0  0  0  0  0  0  0  0  0  0
   44.9100   34.9070   45.2440 N   0  0  0  0  0  0  0  0  0  0  0  0
   45.8190   31.8510   49.2000 C   0  0  0  0  0  0  0  0  0  0  0  0
   44.7860   31.1890   49.4730 O   0  0  0  0  0  0  0  0  0  0  0  0
   45.2651   33.7062   47.4065 H   0  0  0  0  0  0  0  0  0  0  0  0
   47.3189   30.0050   47.8472 H   0  0  0  0  0  0  0  0  0  0  0  0
   47.9977   30.0636   45.4782 H   0  0  0  0  0  0  0  0  0  0  0  0
   43.7404   36.6266   44.8968 H   0  0  0  0  0  0  0  0  0  0  0  0
   44.7459   37.0169   42.6212 H   0  0  0  0  0  0  0  0  0  0  0  0
   46.5190   35.4072   41.7822 H   0  0  0  0  0  0  0  0  0  0  0  0
   46.3711   32.4084   49.9710 H   0  0  0  0  0  0  0  0  0  0  0  0
  1  2  2  0
  2  3  1  0
  3 13  1  0
  4  3  2  0
  5  4  1  0
  6  1  1  0
  6  5  2  0
  7 12  2  0
  8  7  1  0
  9  8  2  0
  9 10  1  0
 10 11  2  0
 11 12  1  0
 11  1  1  0
 13 14  2  0
  2 15  1  0
  4 16  1  0
  5 17  1  0
  7 18  1  0
  8 19  1  0
  9 20  1  0
 13 21  1  0
M  ISO  7  15  14  16  14  17  14  18  14  19  14  20  14  21   6
M  END
>  <minimizedAffinity>  (1) 
-4.56938648

>  <minimizedRMSD>  (1) 
1.40844715

$$$$
