
     RDKit          3D

 29 31  0  0  0  0  0  0  0  0999 V2000
   47.9270   31.7930   43.5530 C   0  0  0  0  0  0  0  0  0  0  0  0
   47.2820   31.9550   44.7650 C   0  0  0  0  0  0  0  0  0  0  0  0
   47.1950   30.9520   45.7040 C   0  0  0  0  0  0  0  0  0  0  0  0
   47.8020   29.7760   45.3420 C   0  0  0  0  0  0  0  0  0  0  0  0
   48.4630   29.5540   44.1430 C   0  0  0  0  0  0  0  0  0  0  0  0
   48.4900   30.6020   43.2940 N   0  0  0  0  0  0  0  0  0  0  0  0
   47.8100   35.1270   42.1100 C   0  0  0  0  0  0  0  0  0  0  0  0
   48.1530   34.9240   40.7530 C   0  0  0  0  0  0  0  0  0  0  0  0
   48.4240   33.6270   40.3450 C   0  0  0  0  0  0  0  0  0  0  0  0
   48.3410   32.6400   41.2730 N   0  0  0  0  0  0  0  0  0  0  0  0
   48.0090   32.8680   42.5720 C   0  0  0  0  0  0  0  0  0  0  0  0
   47.7440   34.1260   42.9790 N   0  0  0  0  0  0  0  0  0  0  0  0
   46.5170   31.1140   46.9840 C   0  0  0  0  0  0  0  0  0  0  0  0
   45.7810   30.0770   47.5190 C   0  0  0  0  0  0  0  0  0  0  0  0
   45.0890   30.0860   48.7150 C   0  0  0  0  0  0  0  0  0  0  0  0
   45.1540   31.2630   49.4310 C   0  0  0  0  0  0  0  0  0  0  0  0
   45.8790   32.3590   48.9570 C   0  0  0  0  0  0  0  0  0  0  0  0
   46.5510   32.2690   47.7370 C   0  0  0  0  0  0  0  0  0  0  0  0
   46.8184   32.9271   44.9887 H   0  0  0  0  0  0  0  0  0  0  0  0
   47.7612   28.9432   46.0595 H   0  0  0  0  0  0  0  0  0  0  0  0
   48.9330   28.5894   43.9010 H   0  0  0  0  0  0  0  0  0  0  0  0
   47.5908   36.1477   42.4565 H   0  0  0  0  0  0  0  0  0  0  0  0
   48.2030   35.7654   40.0463 H   0  0  0  0  0  0  0  0  0  0  0  0
   48.6974   33.4050   39.3029 H   0  0  0  0  0  0  0  0  0  0  0  0
   45.7409   29.1470   46.9330 H   0  0  0  0  0  0  0  0  0  0  0  0
   44.5239   29.2125   49.0723 H   0  0  0  0  0  0  0  0  0  0  0  0
   44.6254   31.3401   50.3926 H   0  0  0  0  0  0  0  0  0  0  0  0
   45.9201   33.2891   49.5428 H   0  0  0  0  0  0  0  0  0  0  0  0
   47.1188   33.1362   47.3689 H   0  0  0  0  0  0  0  0  0  0  0  0
  1  2  2  0
  2  3  1  0
  3 13  1  0
  4  3  2  0
  5  4  1  0
  6  1  1  0
  6  5  2  0
  7 12  2  0
  8  7  1  0
  9  8  2  0
  9 10  1  0
 10 11  2  0
 11 12  1  0
 11  1  1  0
 13 14  2  0
 13 18  1  0
 14 15  1  0
 15 16  2  0
 17 16  1  0
 18 17  2  0
  2 19  1  0
  4 20  1  0
  5 21  1  0
  7 22  1  0
  8 23  1  0
  9 24  1  0
 14 25  1  0
 15 26  1  0
 16 27  1  0
 17 28  1  0
 18 29  1  0
M  ISO  8  19  14  20  14  21  14  22  14  23  14  24  14  25  14  26  14
M  ISO  3  27  14  28  14  29  14
M  END
>  <minimizedAffinity>  (1) 
-4.84180498

>  <minimizedRMSD>  (1) 
4.00389671

$$$$
