
     RDKit          3D

 29 31  0  0  0  0  0  0  0  0999 V2000
   46.6480   32.8350   45.0780 C   0  0  0  0  0  0  0  0  0  0  0  0
   46.7410   32.7180   46.4350 C   0  0  0  0  0  0  0  0  0  0  0  0
   47.2580   31.6340   47.0970 C   0  0  0  0  0  0  0  0  0  0  0  0
   47.6980   30.6280   46.2310 C   0  0  0  0  0  0  0  0  0  0  0  0
   47.6290   30.6920   44.8500 C   0  0  0  0  0  0  0  0  0  0  0  0
   47.0980   31.8150   44.3290 N   0  0  0  0  0  0  0  0  0  0  0  0
   44.5700   35.7770   44.5270 C   0  0  0  0  0  0  0  0  0  0  0  0
   44.9880   36.2510   43.2560 C   0  0  0  0  0  0  0  0  0  0  0  0
   45.9960   35.5340   42.6070 C   0  0  0  0  0  0  0  0  0  0  0  0
   46.5150   34.4370   43.2140 N   0  0  0  0  0  0  0  0  0  0  0  0
   46.0860   34.0160   44.4290 C   0  0  0  0  0  0  0  0  0  0  0  0
   45.1190   34.6940   45.0670 N   0  0  0  0  0  0  0  0  0  0  0  0
   47.3590   31.4970   48.5480 C   0  0  0  0  0  0  0  0  0  0  0  0
   46.3110   30.6650   49.2010 C   0  0  0  0  0  0  0  0  0  0  0  0
   45.0740   31.4120   49.6310 C   0  0  0  0  0  0  0  0  0  0  0  0
   45.0110   30.3750   48.5640 C   0  0  0  0  0  0  0  0  0  0  0  0
   46.3732   33.5572   47.0437 H   0  0  0  0  0  0  0  0  0  0  0  0
   48.1298   29.7210   46.6793 H   0  0  0  0  0  0  0  0  0  0  0  0
   47.9882   29.8705   44.2127 H   0  0  0  0  0  0  0  0  0  0  0  0
   43.7802   36.3139   45.0729 H   0  0  0  0  0  0  0  0  0  0  0  0
   44.5371   37.1454   42.8012 H   0  0  0  0  0  0  0  0  0  0  0  0
   46.3629   35.8533   41.6204 H   0  0  0  0  0  0  0  0  0  0  0  0
   48.3363   31.0467   48.7760 H   0  0  0  0  0  0  0  0  0  0  0  0
   47.2250   32.5117   48.9511 H   0  0  0  0  0  0  0  0  0  0  0  0
   47.0730   30.0095   49.6479 H   0  0  0  0  0  0  0  0  0  0  0  0
   44.6262   31.2185   50.6169 H   0  0  0  0  0  0  0  0  0  0  0  0
   44.7867   32.4707   49.7126 H   0  0  0  0  0  0  0  0  0  0  0  0
   44.8345   30.6742   47.5203 H   0  0  0  0  0  0  0  0  0  0  0  0
   44.4146   29.4639   48.4083 H   0  0  0  0  0  0  0  0  0  0  0  0
  1  2  2  0
  2  3  1  0
  3 13  1  0
  4  3  2  0
  5  4  1  0
  6  5  2  0
  6  1  1  0
  7 12  2  0
  8  7  1  0
  9 10  1  0
  9  8  2  0
 10 11  2  0
 11 12  1  0
 11  1  1  0
 13 14  1  0
 14 15  1  0
 16 14  1  0
 16 15  1  0
  2 17  1  0
  4 18  1  0
  5 19  1  0
  7 20  1  0
  8 21  1  0
  9 22  1  0
 13 23  1  0
 13 24  1  0
 14 25  1  0
 15 26  1  0
 15 27  1  0
 16 28  1  0
 16 29  1  0
M  ISO  8  17  14  18  14  19  14  20  14  21  14  22  14  23   8  24   8
M  ISO  5  25  13  26  13  27  13  28  13  29  13
M  END
>  <minimizedAffinity>  (1) 
-4.81592464

>  <minimizedRMSD>  (1) 
1.49726987

$$$$
