
     RDKit          3D

 38 41  0  0  0  0  0  0  0  0999 V2000
   44.9040   35.5410   45.0570 C   0  0  0  0  0  0  0  0  0  0  0  0
   44.1350   35.7080   43.8910 C   0  0  0  0  0  0  0  0  0  0  0  0
   44.1560   34.6960   42.9560 C   0  0  0  0  0  0  0  0  0  0  0  0
   44.8930   33.5770   43.1570 N   0  0  0  0  0  0  0  0  0  0  0  0
   45.6360   33.4320   44.3010 C   0  0  0  0  0  0  0  0  0  0  0  0
   45.6290   34.4170   45.2330 N   0  0  0  0  0  0  0  0  0  0  0  0
   43.3730   34.8820   41.7830 N   0  0  0  0  0  0  0  0  0  0  0  0
   42.0840   35.2550   41.7130 C   0  0  0  0  0  0  0  0  0  0  0  0
   41.4630   35.3920   40.4920 C   0  0  0  0  0  0  0  0  0  0  0  0
   42.1360   35.1530   39.3180 C   0  0  0  0  0  0  0  0  0  0  0  0
   41.5820   35.2730   38.1940 O   0  0  0  0  0  0  0  0  0  0  0  0
   43.4220   34.7810   39.4190 N   0  0  0  0  0  0  0  0  0  0  0  0
   44.0290   34.6480   40.6300 C   0  0  0  0  0  0  0  0  0  0  0  0
   45.2460   34.2910   40.5660 O   0  0  0  0  0  0  0  0  0  0  0  0
   40.0600   35.8000   40.4340 C   0  0  0  0  0  0  0  0  0  0  0  0
   46.4280   32.2320   44.5190 C   0  0  0  0  0  0  0  0  0  0  0  0
   47.0360   31.4450   43.5530 C   0  0  0  0  0  0  0  0  0  0  0  0
   47.6870   30.4110   44.1370 N   0  0  0  0  0  0  0  0  0  0  0  0
   47.4710   30.5740   45.4780 C   0  0  0  0  0  0  0  0  0  0  0  0
   46.7130   31.6710   45.7030 N   0  0  0  0  0  0  0  0  0  0  0  0
   47.9840   29.6890   46.5190 C   0  0  0  0  0  0  0  0  0  0  0  0
   47.4110   28.4880   46.7230 N   0  0  0  0  0  0  0  0  0  0  0  0
   48.0000   27.8450   47.6870 O   0  0  0  0  0  0  0  0  0  0  0  0
   48.9680   28.5930   48.1440 C   0  0  0  0  0  0  0  0  0  0  0  0
   48.9920   29.7610   47.4380 N   0  0  0  0  0  0  0  0  0  0  0  0
   46.2710   32.1720   46.9890 C   0  0  0  0  0  0  0  0  0  0  0  0
   46.1790   31.1510   47.9570 F   0  0  0  0  0  0  0  0  0  0  0  0
   45.0290   32.8160   46.9050 F   0  0  0  0  0  0  0  0  0  0  0  0
   47.2040   33.0680   47.5060 F   0  0  0  0  0  0  0  0  0  0  0  0
   44.9142   36.3276   45.8259 H   0  0  0  0  0  0  0  0  0  0  0  0
   43.5364   36.6169   43.7308 H   0  0  0  0  0  0  0  0  0  0  0  0
   41.5213   35.4522   42.6374 H   0  0  0  0  0  0  0  0  0  0  0  0
   43.9608   34.5922   38.5617 H   0  0  0  0  0  0  0  0  0  0  0  0
   39.6687   35.9138   41.4557 H   0  0  0  0  0  0  0  0  0  0  0  0
   39.9787   36.7590   39.9013 H   0  0  0  0  0  0  0  0  0  0  0  0
   39.4771   35.0341   39.9013 H   0  0  0  0  0  0  0  0  0  0  0  0
   46.9955   31.6331   42.4700 H   0  0  0  0  0  0  0  0  0  0  0  0
   49.6517   28.3257   48.9632 H   0  0  0  0  0  0  0  0  0  0  0  0
  1  6  2  0
  2  1  1  0
  3  4  1  0
  3  2  2  0
  4  5  2  0
  5 16  1  0
  5  6  1  0
  7  3  1  0
  8  7  1  0
  9  8  2  0
 10 12  1  0
 10  9  1  0
 11 10  2  0
 12 13  1  0
 13  7  1  0
 14 13  2  0
 15  9  1  0
 16 20  1  0
 17 18  1  0
 17 16  2  0
 18 19  2  0
 19 20  1  0
 19 21  1  0
 20 26  1  0
 21 22  2  0
 21 25  1  0
 22 23  1  0
 23 24  1  0
 25 24  2  0
 26 29  1  0
 26 27  1  0
 28 26  1  0
  1 30  1  0
  2 31  1  0
  8 32  1  0
 12 33  1  0
 15 34  1  0
 15 35  1  0
 15 36  1  0
 17 37  1  0
 24 38  1  0
M  ISO  8  30  14  31  14  32  14  33   9  34   8  35   8  36   8  37  14
M  ISO  1  38  14
M  END
>  <minimizedAffinity>  (1) 
-6.1848464

>  <minimizedRMSD>  (1) 
0.964082778

$$$$
