
     RDKit          3D

 43 46  0  0  0  0  0  0  0  0999 V2000
   44.9590   35.4700   45.0770 C   0  0  0  0  0  0  0  0  0  0  0  0
   44.1710   35.6490   43.9070 C   0  0  0  0  0  0  0  0  0  0  0  0
   44.2160   34.6570   42.9540 C   0  0  0  0  0  0  0  0  0  0  0  0
   44.9840   33.5460   43.1210 N   0  0  0  0  0  0  0  0  0  0  0  0
   45.7370   33.3910   44.2600 C   0  0  0  0  0  0  0  0  0  0  0  0
   45.7140   34.3530   45.2190 N   0  0  0  0  0  0  0  0  0  0  0  0
   43.4210   34.8560   41.7900 N   0  0  0  0  0  0  0  0  0  0  0  0
   42.1350   35.2450   41.7360 C   0  0  0  0  0  0  0  0  0  0  0  0
   41.5000   35.3940   40.5310 C   0  0  0  0  0  0  0  0  0  0  0  0
   42.1620   35.1490   39.3380 C   0  0  0  0  0  0  0  0  0  0  0  0
   41.5850   35.2840   38.2240 O   0  0  0  0  0  0  0  0  0  0  0  0
   43.4370   34.7640   39.4200 N   0  0  0  0  0  0  0  0  0  0  0  0
   44.0510   34.6210   40.6370 C   0  0  0  0  0  0  0  0  0  0  0  0
   45.2750   34.2470   40.5440 O   0  0  0  0  0  0  0  0  0  0  0  0
   40.0970   35.8200   40.4840 C   0  0  0  0  0  0  0  0  0  0  0  0
   46.5510   32.2110   44.4380 C   0  0  0  0  0  0  0  0  0  0  0  0
   47.2530   31.5130   43.4640 C   0  0  0  0  0  0  0  0  0  0  0  0
   47.8980   30.4600   44.0260 N   0  0  0  0  0  0  0  0  0  0  0  0
   47.5920   30.5110   45.3550 C   0  0  0  0  0  0  0  0  0  0  0  0
   46.7760   31.5710   45.6060 N   0  0  0  0  0  0  0  0  0  0  0  0
   48.0690   29.5670   46.3600 C   0  0  0  0  0  0  0  0  0  0  0  0
   49.0470   29.7470   47.3150 C   0  0  0  0  0  0  0  0  0  0  0  0
   49.3570   28.7200   48.1820 C   0  0  0  0  0  0  0  0  0  0  0  0
   48.7190   27.4990   48.1350 C   0  0  0  0  0  0  0  0  0  0  0  0
   47.7310   27.3250   47.1670 C   0  0  0  0  0  0  0  0  0  0  0  0
   47.4100   28.3380   46.2950 C   0  0  0  0  0  0  0  0  0  0  0  0
   46.2350   31.9620   46.8840 C   0  0  0  0  0  0  0  0  0  0  0  0
   46.0300   30.8460   47.7330 F   0  0  0  0  0  0  0  0  0  0  0  0
   45.0150   32.6240   46.7660 F   0  0  0  0  0  0  0  0  0  0  0  0
   47.1330   32.7540   47.5760 F   0  0  0  0  0  0  0  0  0  0  0  0
   44.9560   36.2367   45.8657 H   0  0  0  0  0  0  0  0  0  0  0  0
   43.5493   36.5459   43.7689 H   0  0  0  0  0  0  0  0  0  0  0  0
   41.5872   35.4456   42.6686 H   0  0  0  0  0  0  0  0  0  0  0  0
   43.9665   34.5718   38.5577 H   0  0  0  0  0  0  0  0  0  0  0  0
   39.7145   35.9361   41.5088 H   0  0  0  0  0  0  0  0  0  0  0  0
   40.0232   36.7811   39.9540 H   0  0  0  0  0  0  0  0  0  0  0  0
   39.5013   35.0622   39.9540 H   0  0  0  0  0  0  0  0  0  0  0  0
   47.2818   31.7749   42.3960 H   0  0  0  0  0  0  0  0  0  0  0  0
   49.5788   30.7073   47.3853 H   0  0  0  0  0  0  0  0  0  0  0  0
   50.1405   28.8809   48.9371 H   0  0  0  0  0  0  0  0  0  0  0  0
   48.9798   26.6918   48.8353 H   0  0  0  0  0  0  0  0  0  0  0  0
   47.2008   26.3635   47.1000 H   0  0  0  0  0  0  0  0  0  0  0  0
   46.6268   28.1788   45.5392 H   0  0  0  0  0  0  0  0  0  0  0  0
  1  6  2  0
  2  1  1  0
  3  4  1  0
  3  2  2  0
  4  5  2  0
  5 16  1  0
  5  6  1  0
  7  3  1  0
  8  7  1  0
  9  8  2  0
 10 12  1  0
 10  9  1  0
 11 10  2  0
 12 13  1  0
 13  7  1  0
 14 13  2  0
 15  9  1  0
 16 20  1  0
 17 18  1  0
 17 16  2  0
 18 19  2  0
 19 20  1  0
 19 21  1  0
 20 27  1  0
 21 22  2  0
 22 23  1  0
 24 23  2  0
 25 24  1  0
 26 21  1  0
 26 25  2  0
 27 30  1  0
 27 28  1  0
 29 27  1  0
  1 31  1  0
  2 32  1  0
  8 33  1  0
 12 34  1  0
 15 35  1  0
 15 36  1  0
 15 37  1  0
 17 38  1  0
 22 39  1  0
 23 40  1  0
 24 41  1  0
 25 42  1  0
 26 43  1  0
M  ISO  8  31  14  32  14  33  14  34   9  35   8  36   8  37   8  38  14
M  ISO  5  39  14  40  14  41  14  42  14  43  14
M  END
>  <minimizedAffinity>  (1) 
-6.11093426

>  <minimizedRMSD>  (1) 
1.06293666

$$$$
