
     RDKit          3D

 33 35  0  0  1  0  0  0  0  0999 V2000
   45.6850   33.6710   45.2520 C   0  0  0  0  0  0  0  0  0  0  0  0
   45.8860   33.7580   43.8770 C   0  0  0  0  0  0  0  0  0  0  0  0
   45.3940   34.8110   43.1580 C   0  0  0  0  0  0  0  0  0  0  0  0
   44.6960   35.7700   43.8450 C   0  0  0  0  0  0  0  0  0  0  0  0
   44.4790   35.7140   45.2000 C   0  0  0  0  0  0  0  0  0  0  0  0
   44.9880   34.6590   45.8430 N   0  0  0  0  0  0  0  0  0  0  0  0
   46.4580   30.2580   46.2570 C   0  0  0  0  0  0  0  0  0  0  0  0
   47.2070   30.4350   47.4260 C   0  0  0  0  0  0  0  0  0  0  0  0
   47.4520   31.7500   47.8750 C   0  0  0  0  0  0  0  0  0  0  0  0
   46.9550   32.7730   47.1600 N   0  0  0  0  0  0  0  0  0  0  0  0
   46.2250   32.5440   46.0190 C   0  0  0  0  0  0  0  0  0  0  0  0
   45.9940   31.3250   45.5940 N   0  0  0  0  0  0  0  0  0  0  0  0
   45.6960   34.8590   41.6820 C   0  0  2  0  0  0  0  0  0  0  0  0
   45.1540   33.7310   41.1010 N   0  0  0  0  0  0  0  0  0  0  0  0
   44.0180   33.8430   40.2700 C   0  0  0  0  0  0  0  0  0  0  0  0
   44.1120   33.9140   38.8680 N   0  0  0  0  0  0  0  0  0  0  0  0
   42.7790   33.9000   40.5110 O   0  0  0  0  0  0  0  0  0  0  0  0
   47.1440   34.6860   41.6030 C   0  0  0  0  0  0  0  0  0  0  0  0
   47.7600   33.6180   41.0580 N   0  0  0  0  0  0  0  0  0  0  0  0
   49.0480   33.7340   41.1270 O   0  0  0  0  0  0  0  0  0  0  0  0
   49.3280   34.8830   41.7220 C   0  0  0  0  0  0  0  0  0  0  0  0
   48.1510   35.4750   42.0190 N   0  0  0  0  0  0  0  0  0  0  0  0
   46.4497   32.9667   43.3612 H   0  0  0  0  0  0  0  0  0  0  0  0
   44.2904   36.6251   43.2844 H   0  0  0  0  0  0  0  0  0  0  0  0
   43.9154   36.4970   45.7285 H   0  0  0  0  0  0  0  0  0  0  0  0
   46.2508   29.2443   45.8835 H   0  0  0  0  0  0  0  0  0  0  0  0
   47.5957   29.5690   47.9818 H   0  0  0  0  0  0  0  0  0  0  0  0
   48.0361   31.9332   48.7889 H   0  0  0  0  0  0  0  0  0  0  0  0
   45.3188   35.7755   41.2047 H   0  0  0  0  0  0  0  0  0  0  0  0
   45.5777   32.8081   41.2733 H   0  0  0  0  0  0  0  0  0  0  0  0
   45.0350   33.8866   38.4117 H   0  0  0  0  0  0  0  0  0  0  0  0
   43.2578   33.9934   38.2979 H   0  0  0  0  0  0  0  0  0  0  0  0
   50.3312   35.2809   41.9346 H   0  0  0  0  0  0  0  0  0  0  0  0
  1  6  1  0
  1 11  1  0
  2  1  2  0
  3  4  2  0
  3  2  1  0
  4  5  1  0
  5  6  2  0
  7  8  2  0
  8  9  1  0
 10  9  2  0
 11 10  1  0
 12 11  2  0
 12  7  1  0
 13  3  1  0
 14 13  1  0
 15 17  2  0
 15 14  1  0
 16 15  1  0
 18 13  1  0
 18 22  1  0
 19 20  1  0
 19 18  2  0
 20 21  1  0
 21 22  2  0
  2 23  1  0
  4 24  1  0
  5 25  1  0
  7 26  1  0
  8 27  1  0
  9 28  1  0
 13 29  1  6
 14 30  1  0
 16 31  1  0
 16 32  1  0
 21 33  1  0
M  ISO  8  23  14  24  14  25  14  26  14  27  14  28  14  29   8  33  14
M  END
>  <minimizedAffinity>  (1) 
-5.43624067

>  <minimizedRMSD>  (1) 
6.96610355

$$$$
