
     RDKit          3D

 29 30  0  0  1  0  0  0  0  0999 V2000
   46.6140   32.4820   45.3020 C   0  0  0  0  0  0  0  0  0  0  0  0
   46.5180   32.0580   46.6300 C   0  0  0  0  0  0  0  0  0  0  0  0
   47.1370   30.9090   47.0410 C   0  0  0  0  0  0  0  0  0  0  0  0
   47.8420   30.2030   46.1020 C   0  0  0  0  0  0  0  0  0  0  0  0
   47.9510   30.6010   44.7880 C   0  0  0  0  0  0  0  0  0  0  0  0
   47.3220   31.7330   44.4590 N   0  0  0  0  0  0  0  0  0  0  0  0
   44.5630   35.4900   45.3800 C   0  0  0  0  0  0  0  0  0  0  0  0
   44.7680   36.0560   44.1140 C   0  0  0  0  0  0  0  0  0  0  0  0
   45.6250   35.3760   43.2240 C   0  0  0  0  0  0  0  0  0  0  0  0
   46.1950   34.2340   43.6250 N   0  0  0  0  0  0  0  0  0  0  0  0
   45.9570   33.7270   44.8790 C   0  0  0  0  0  0  0  0  0  0  0  0
   45.1570   34.3450   45.7330 N   0  0  0  0  0  0  0  0  0  0  0  0
   47.0400   30.5430   48.5050 C   0  0  2  0  0  0  0  0  0  0  0  0
   45.7190   30.2270   48.7670 N   0  0  0  0  0  0  0  0  0  0  0  0
   45.1090   29.1330   48.1190 C   0  0  0  0  0  0  0  0  0  0  0  0
   45.0120   27.8650   48.7220 N   0  0  0  0  0  0  0  0  0  0  0  0
   44.5570   29.0040   46.9970 O   0  0  0  0  0  0  0  0  0  0  0  0
   47.2430   31.7400   49.1430 O   0  0  0  0  0  0  0  0  0  0  0  0
   45.9395   32.6534   47.3517 H   0  0  0  0  0  0  0  0  0  0  0  0
   48.3445   29.2749   46.4121 H   0  0  0  0  0  0  0  0  0  0  0  0
   48.5238   30.0195   44.0506 H   0  0  0  0  0  0  0  0  0  0  0  0
   43.9008   35.9975   46.0969 H   0  0  0  0  0  0  0  0  0  0  0  0
   44.2777   36.9973   43.8250 H   0  0  0  0  0  0  0  0  0  0  0  0
   45.8212   35.7772   42.2187 H   0  0  0  0  0  0  0  0  0  0  0  0
   47.7219   29.7293   48.7929 H   0  0  0  0  0  0  0  0  0  0  0  0
   45.1792   30.7926   49.4375 H   0  0  0  0  0  0  0  0  0  0  0  0
   44.5595   27.0886   48.2186 H   0  0  0  0  0  0  0  0  0  0  0  0
   45.3935   27.7134   49.6667 H   0  0  0  0  0  0  0  0  0  0  0  0
   47.2192   31.5999   50.1228 H   0  0  0  0  0  0  0  0  0  0  0  0
  1  2  2  0
  2  3  1  0
  3 13  1  0
  4  3  2  0
  5  4  1  0
  6  5  2  0
  6  1  1  0
  7 12  2  0
  8  7  1  0
  9 10  1  0
  9  8  2  0
 10 11  2  0
 11  1  1  0
 11 12  1  0
 13 14  1  0
 13 18  1  0
 15 16  1  0
 15 14  1  0
 17 15  2  0
  2 19  1  0
  4 20  1  0
  5 21  1  0
  7 22  1  0
  8 23  1  0
  9 24  1  0
 13 25  1  1
 14 26  1  0
 16 27  1  0
 16 28  1  0
 18 29  1  0
M  ISO  8  19  14  20  14  21  14  22  14  23  14  24  14  25   8  29   3
M  END
>  <minimizedAffinity>  (1) 
-5.14167547

>  <minimizedRMSD>  (1) 
0.155862153

$$$$
