
     RDKit          3D

 36 38  0  0  0  0  0  0  0  0999 V2000
   44.8430   35.8900   45.0470 C   0  0  0  0  0  0  0  0  0  0  0  0
   44.1240   35.9080   43.8260 C   0  0  0  0  0  0  0  0  0  0  0  0
   44.1090   34.7410   43.0680 C   0  0  0  0  0  0  0  0  0  0  0  0
   44.7590   33.6280   43.4840 N   0  0  0  0  0  0  0  0  0  0  0  0
   45.4460   33.6380   44.6690 C   0  0  0  0  0  0  0  0  0  0  0  0
   45.4800   34.7670   45.4350 N   0  0  0  0  0  0  0  0  0  0  0  0
   43.3820   34.7890   41.8500 N   0  0  0  0  0  0  0  0  0  0  0  0
   42.0710   34.9780   41.6770 C   0  0  0  0  0  0  0  0  0  0  0  0
   41.5350   34.9960   40.4190 C   0  0  0  0  0  0  0  0  0  0  0  0
   42.2920   34.8230   39.2920 C   0  0  0  0  0  0  0  0  0  0  0  0
   41.7940   34.8400   38.1400 O   0  0  0  0  0  0  0  0  0  0  0  0
   43.6070   34.6350   39.4890 N   0  0  0  0  0  0  0  0  0  0  0  0
   44.1360   34.6180   40.7410 C   0  0  0  0  0  0  0  0  0  0  0  0
   45.4050   34.4290   40.7590 O   0  0  0  0  0  0  0  0  0  0  0  0
   40.0840   35.2080   40.2590 C   0  0  0  0  0  0  0  0  0  0  0  0
   46.1390   32.4490   45.1130 C   0  0  0  0  0  0  0  0  0  0  0  0
   46.9570   31.6080   44.3560 C   0  0  0  0  0  0  0  0  0  0  0  0
   47.4230   30.5990   45.1300 N   0  0  0  0  0  0  0  0  0  0  0  0
   46.8890   30.8190   46.3720 C   0  0  0  0  0  0  0  0  0  0  0  0
   46.1210   31.9290   46.3570 N   0  0  0  0  0  0  0  0  0  0  0  0
   45.3830   32.4950   47.4790 C   0  0  0  0  0  0  0  0  0  0  0  0
   44.4970   31.5540   48.0390 F   0  0  0  0  0  0  0  0  0  0  0  0
   44.6580   33.6290   47.1210 F   0  0  0  0  0  0  0  0  0  0  0  0
   46.2510   32.8070   48.5170 F   0  0  0  0  0  0  0  0  0  0  0  0
   47.1010   29.9820   47.5910 C   0  0  0  0  0  0  0  0  0  0  0  0
   44.8813   36.7908   45.6771 H   0  0  0  0  0  0  0  0  0  0  0  0
   43.5963   36.8125   43.4892 H   0  0  0  0  0  0  0  0  0  0  0  0
   41.4189   35.1200   42.5514 H   0  0  0  0  0  0  0  0  0  0  0  0
   44.2260   34.5013   38.6767 H   0  0  0  0  0  0  0  0  0  0  0  0
   39.6120   35.2770   41.2502 H   0  0  0  0  0  0  0  0  0  0  0  0
   39.9088   36.1413   39.7037 H   0  0  0  0  0  0  0  0  0  0  0  0
   39.6491   34.3639   39.7037 H   0  0  0  0  0  0  0  0  0  0  0  0
   47.1886   31.7446   43.2894 H   0  0  0  0  0  0  0  0  0  0  0  0
   46.9452   30.5969   48.4897 H   0  0  0  0  0  0  0  0  0  0  0  0
   46.3863   29.1458   47.5905 H   0  0  0  0  0  0  0  0  0  0  0  0
   48.1276   29.5869   47.5905 H   0  0  0  0  0  0  0  0  0  0  0  0
  1  6  2  0
  2  1  1  0
  3  4  1  0
  3  2  2  0
  4  5  2  0
  5 16  1  0
  5  6  1  0
  7  3  1  0
  8  7  1  0
  9  8  2  0
 10 12  1  0
 10  9  1  0
 11 10  2  0
 12 13  1  0
 13 14  2  0
 13  7  1  0
 15  9  1  0
 16 20  1  0
 17 16  2  0
 17 18  1  0
 18 19  2  0
 19 25  1  0
 20 19  1  0
 20 21  1  0
 21 22  1  0
 21 24  1  0
 23 21  1  0
  1 26  1  0
  2 27  1  0
  8 28  1  0
 12 29  1  0
 15 30  1  0
 15 31  1  0
 15 32  1  0
 17 33  1  0
 25 34  1  0
 25 35  1  0
 25 36  1  0
M  ISO  8  26  14  27  14  28  14  29   9  30   8  31   8  32   8  33  14
M  ISO  3  34   8  35   8  36   8
M  END
>  <minimizedAffinity>  (1) 
-6.08357668

>  <minimizedRMSD>  (1) 
0.0215839446

$$$$
