
     RDKit          3D

 42 45  0  0  1  0  0  0  0  0999 V2000
   47.4920   29.6510   46.2740 C   0  0  2  0  0  0  0  0  0  0  0  0
   46.9180   32.7090   44.1610 C   0  0  0  0  0  0  0  0  0  0  0  0
   46.8580   31.7480   45.1690 C   0  0  0  0  0  0  0  0  0  0  0  0
   47.6170   30.6230   45.1240 C   0  0  0  0  0  0  0  0  0  0  0  0
   48.4440   30.4640   44.0530 C   0  0  0  0  0  0  0  0  0  0  0  0
   48.5370   31.3870   43.0340 C   0  0  0  0  0  0  0  0  0  0  0  0
   47.7650   32.4720   43.1380 N   0  0  0  0  0  0  0  0  0  0  0  0
   44.6810   35.2690   45.4250 C   0  0  0  0  0  0  0  0  0  0  0  0
   44.6120   36.1950   44.3690 C   0  0  0  0  0  0  0  0  0  0  0  0
   45.3560   35.9140   43.2070 C   0  0  0  0  0  0  0  0  0  0  0  0
   46.0840   34.7950   43.1590 N   0  0  0  0  0  0  0  0  0  0  0  0
   46.1150   33.9280   44.2170 C   0  0  0  0  0  0  0  0  0  0  0  0
   45.4300   34.1700   45.3070 N   0  0  0  0  0  0  0  0  0  0  0  0
   46.5310   30.0860   47.1180 N   0  0  0  0  0  0  0  0  0  0  0  0
   45.3500   29.3910   47.3950 C   0  0  0  0  0  0  0  0  0  0  0  0
   45.2190   28.7830   48.6640 N   0  0  0  0  0  0  0  0  0  0  0  0
   44.2830   29.1510   46.7420 O   0  0  0  0  0  0  0  0  0  0  0  0
   48.7750   29.7450   47.0020 C   0  0  2  0  0  0  0  0  0  0  0  0
   49.8490   28.7440   46.7850 C   0  0  0  0  0  0  0  0  0  0  0  0
   49.0560   28.6300   48.0250 C   0  0  1  0  0  0  0  0  0  0  0  0
   49.6130   29.0470   49.2970 N   0  0  0  0  0  0  0  0  0  0  0  0
   50.4080   28.2270   50.0220 C   0  0  0  0  0  0  0  0  0  0  0  0
   50.7540   28.9320   51.1570 C   0  0  0  0  0  0  0  0  0  0  0  0
   50.1660   30.1350   51.0850 N   0  0  0  0  0  0  0  0  0  0  0  0
   49.4520   30.2190   49.9290 C   0  0  0  0  0  0  0  0  0  0  0  0
   47.2558   28.6358   45.9226 H   0  0  0  0  0  0  0  0  0  0  0  0
   46.1799   31.9047   46.0208 H   0  0  0  0  0  0  0  0  0  0  0  0
   49.0655   29.5580   43.9993 H   0  0  0  0  0  0  0  0  0  0  0  0
   49.2125   31.2379   42.1787 H   0  0  0  0  0  0  0  0  0  0  0  0
   44.1161   35.4506   46.3512 H   0  0  0  0  0  0  0  0  0  0  0  0
   43.9994   37.1053   44.4478 H   0  0  0  0  0  0  0  0  0  0  0  0
   45.3380   36.6055   42.3517 H   0  0  0  0  0  0  0  0  0  0  0  0
   46.6783   30.9901   47.5889 H   0  0  0  0  0  0  0  0  0  0  0  0
   44.3616   28.2634   48.9001 H   0  0  0  0  0  0  0  0  0  0  0  0
   45.9810   28.8595   49.3528 H   0  0  0  0  0  0  0  0  0  0  0  0
   48.7462   30.8445   46.9825 H   0  0  0  0  0  0  0  0  0  0  0  0
   49.7334   27.9868   45.9956 H   0  0  0  0  0  0  0  0  0  0  0  0
   50.9260   28.8159   46.5733 H   0  0  0  0  0  0  0  0  0  0  0  0
   48.4987   27.8082   48.4983 H   0  0  0  0  0  0  0  0  0  0  0  0
   50.7166   27.2043   49.7597 H   0  0  0  0  0  0  0  0  0  0  0  0
   51.3966   28.5718   51.9739 H   0  0  0  0  0  0  0  0  0  0  0  0
   48.8598   31.0785   49.5817 H   0  0  0  0  0  0  0  0  0  0  0  0
  1 18  1  0
  1 14  1  0
  2 12  1  0
  2  3  2  0
  4  3  1  0
  4  1  1  0
  5  4  2  0
  6  7  2  0
  6  5  1  0
  7  2  1  0
  9  8  2  0
 10  9  1  0
 11 10  2  0
 11 12  1  0
 12 13  2  0
 13  8  1  0
 14 15  1  0
 15 16  1  0
 17 15  2  0
 18 20  1  0
 19 18  1  0
 19 20  1  0
 20 21  1  0
 21 25  1  0
 21 22  1  0
 22 23  2  0
 24 23  1  0
 25 24  2  0
  1 26  1  6
  3 27  1  0
  5 28  1  0
  6 29  1  0
  8 30  1  0
  9 31  1  0
 10 32  1  0
 14 33  1  0
 16 34  1  0
 16 35  1  0
 18 36  1  1
 19 37  1  0
 19 38  1  0
 20 39  1  1
 22 40  1  0
 23 41  1  0
 25 42  1  0
M  ISO  8  26   8  27  14  28  14  29  14  30  14  31  14  32  14  36  13
M  ISO  6  37  13  38  13  39  13  40  14  41  14  42  14
M  END
>  <minimizedAffinity>  (1) 
-5.35932684

>  <minimizedRMSD>  (1) 
4.07183123

$$$$
