
     RDKit          3D

 34 36  0  0  0  0  0  0  0  0999 V2000
   44.8460   35.8880   45.0420 C   0  0  0  0  0  0  0  0  0  0  0  0
   44.1300   35.9010   43.8190 C   0  0  0  0  0  0  0  0  0  0  0  0
   44.1160   34.7430   43.0630 C   0  0  0  0  0  0  0  0  0  0  0  0
   44.7600   33.6280   43.4650 N   0  0  0  0  0  0  0  0  0  0  0  0
   45.4520   33.6330   44.6600 C   0  0  0  0  0  0  0  0  0  0  0  0
   45.4860   34.7580   45.4300 N   0  0  0  0  0  0  0  0  0  0  0  0
   43.3850   34.7930   41.8360 N   0  0  0  0  0  0  0  0  0  0  0  0
   42.0720   34.9880   41.6850 C   0  0  0  0  0  0  0  0  0  0  0  0
   41.5170   35.0100   40.4250 C   0  0  0  0  0  0  0  0  0  0  0  0
   42.2960   34.8330   39.2940 C   0  0  0  0  0  0  0  0  0  0  0  0
   41.7930   34.8520   38.1410 O   0  0  0  0  0  0  0  0  0  0  0  0
   43.6010   34.6410   39.4910 N   0  0  0  0  0  0  0  0  0  0  0  0
   44.1390   34.6220   40.7400 C   0  0  0  0  0  0  0  0  0  0  0  0
   45.4060   34.4260   40.7480 O   0  0  0  0  0  0  0  0  0  0  0  0
   40.0790   35.2240   40.2680 C   0  0  0  0  0  0  0  0  0  0  0  0
   46.1450   32.4390   45.0970 C   0  0  0  0  0  0  0  0  0  0  0  0
   46.9520   31.6040   44.3420 C   0  0  0  0  0  0  0  0  0  0  0  0
   47.4200   30.5890   45.1140 N   0  0  0  0  0  0  0  0  0  0  0  0
   46.8940   30.8020   46.3580 C   0  0  0  0  0  0  0  0  0  0  0  0
   46.1290   31.9150   46.3420 N   0  0  0  0  0  0  0  0  0  0  0  0
   45.3910   32.4860   47.4680 C   0  0  0  0  0  0  0  0  0  0  0  0
   44.5070   31.5450   48.0320 F   0  0  0  0  0  0  0  0  0  0  0  0
   44.6720   33.6090   47.1070 F   0  0  0  0  0  0  0  0  0  0  0  0
   46.2810   32.7900   48.4990 F   0  0  0  0  0  0  0  0  0  0  0  0
   47.0620   30.0500   47.5150 O   0  0  0  0  0  0  0  0  0  0  0  0
   44.8821   36.7889   45.6721 H   0  0  0  0  0  0  0  0  0  0  0  0
   43.6015   36.8047   43.4813 H   0  0  0  0  0  0  0  0  0  0  0  0
   41.4331   35.1313   42.5689 H   0  0  0  0  0  0  0  0  0  0  0  0
   44.2168   34.5037   38.6769 H   0  0  0  0  0  0  0  0  0  0  0  0
   39.6083   35.2940   41.2597 H   0  0  0  0  0  0  0  0  0  0  0  0
   39.9057   36.1578   39.7131 H   0  0  0  0  0  0  0  0  0  0  0  0
   39.6413   34.3811   39.7131 H   0  0  0  0  0  0  0  0  0  0  0  0
   47.1802   31.7424   43.2749 H   0  0  0  0  0  0  0  0  0  0  0  0
   46.6154   30.3264   48.3542 H   0  0  0  0  0  0  0  0  0  0  0  0
  1  6  2  0
  2  1  1  0
  3  4  1  0
  3  2  2  0
  4  5  2  0
  5 16  1  0
  5  6  1  0
  7  3  1  0
  8  7  1  0
  9  8  2  0
 10 12  1  0
 10  9  1  0
 11 10  2  0
 12 13  1  0
 13 14  2  0
 13  7  1  0
 15  9  1  0
 16 20  1  0
 17 16  2  0
 17 18  1  0
 18 19  2  0
 19 25  1  0
 20 19  1  0
 20 21  1  0
 21 22  1  0
 21 24  1  0
 23 21  1  0
  1 26  1  0
  2 27  1  0
  8 28  1  0
 12 29  1  0
 15 30  1  0
 15 31  1  0
 15 32  1  0
 17 33  1  0
 25 34  1  0
M  ISO  8  26  14  27  14  28  14  29   9  30   8  31   8  32   8  33  14
M  ISO  1  34   3
M  END
>  <minimizedAffinity>  (1) 
-6.05496931

>  <minimizedRMSD>  (1) 
0.00783490483

$$$$
