
     RDKit          3D

 38 40  0  0  1  0  0  0  0  0999 V2000
   46.9150   30.3570   46.5100 C   0  0  2  0  0  0  0  0  0  0  0  0
   48.4120   31.5180   43.2700 C   0  0  0  0  0  0  0  0  0  0  0  0
   47.6460   31.4340   44.4310 C   0  0  0  0  0  0  0  0  0  0  0  0
   47.7500   30.3660   45.2640 C   0  0  0  0  0  0  0  0  0  0  0  0
   48.6260   29.3790   44.9270 C   0  0  0  0  0  0  0  0  0  0  0  0
   49.4000   29.4210   43.7900 C   0  0  0  0  0  0  0  0  0  0  0  0
   49.2560   30.4950   43.0100 N   0  0  0  0  0  0  0  0  0  0  0  0
   48.1870   34.9640   42.1580 C   0  0  0  0  0  0  0  0  0  0  0  0
   48.1800   34.8650   40.7600 C   0  0  0  0  0  0  0  0  0  0  0  0
   48.2470   33.5790   40.2010 C   0  0  0  0  0  0  0  0  0  0  0  0
   48.3170   32.5050   41.0280 N   0  0  0  0  0  0  0  0  0  0  0  0
   48.3200   32.6750   42.3790 C   0  0  0  0  0  0  0  0  0  0  0  0
   48.2570   33.8650   42.9140 N   0  0  0  0  0  0  0  0  0  0  0  0
   45.9860   29.3740   46.4240 N   0  0  0  0  0  0  0  0  0  0  0  0
   46.0090   28.2130   47.2020 C   0  0  0  0  0  0  0  0  0  0  0  0
   45.0380   28.0720   48.2180 N   0  0  0  0  0  0  0  0  0  0  0  0
   46.7400   27.1720   47.2250 O   0  0  0  0  0  0  0  0  0  0  0  0
   46.1550   31.6400   46.4680 C   0  0  2  0  0  0  0  0  0  0  0  0
   46.6650   32.8710   47.1170 C   0  0  0  0  0  0  0  0  0  0  0  0
   45.5740   32.1450   47.7970 C   0  0  2  0  0  0  0  0  0  0  0  0
   45.9400   31.4950   49.0610 C   0  0  0  0  0  0  0  0  0  0  0  0
   44.9960   31.2760   49.8950 O   0  0  0  0  0  0  0  0  0  0  0  0
   47.1340   31.0420   49.5850 O   0  0  0  0  0  0  0  0  0  0  0  0
   47.5361   30.2201   47.4075 H   0  0  0  0  0  0  0  0  0  0  0  0
   46.9457   32.2458   44.6770 H   0  0  0  0  0  0  0  0  0  0  0  0
   48.7190   28.5091   45.5938 H   0  0  0  0  0  0  0  0  0  0  0  0
   50.1009   28.6118   43.5369 H   0  0  0  0  0  0  0  0  0  0  0  0
   48.1345   35.9534   42.6359 H   0  0  0  0  0  0  0  0  0  0  0  0
   48.1241   35.7612   40.1247 H   0  0  0  0  0  0  0  0  0  0  0  0
   48.2428   33.4438   39.1094 H   0  0  0  0  0  0  0  0  0  0  0  0
   45.2189   29.4891   45.7464 H   0  0  0  0  0  0  0  0  0  0  0  0
   45.0289   27.2278   48.8081 H   0  0  0  0  0  0  0  0  0  0  0  0
   44.3390   28.8133   48.3688 H   0  0  0  0  0  0  0  0  0  0  0  0
   45.7932   31.4121   45.4545 H   0  0  0  0  0  0  0  0  0  0  0  0
   47.6725   32.8744   47.5585 H   0  0  0  0  0  0  0  0  0  0  0  0
   46.7967   33.9107   46.7828 H   0  0  0  0  0  0  0  0  0  0  0  0
   44.5516   32.3544   48.1446 H   0  0  0  0  0  0  0  0  0  0  0  0
   47.1538   30.6231   50.4818 H   0  0  0  0  0  0  0  0  0  0  0  0
  2  3  2  0
  3  4  1  0
  4  1  1  0
  5  4  2  0
  6  5  1  0
  7  2  1  0
  7  6  2  0
  8 13  2  0
  9  8  1  0
 10  9  2  0
 10 11  1  0
 11 12  2  0
 12 13  1  0
 12  2  1  0
 14  1  1  0
 14 15  1  0
 15 17  2  0
 15 16  1  0
 18  1  1  0
 18 19  1  0
 18 20  1  0
 19 20  1  0
 20 21  1  0
 21 23  1  0
 21 22  2  0
  1 24  1  1
  3 25  1  0
  5 26  1  0
  6 27  1  0
  8 28  1  0
  9 29  1  0
 10 30  1  0
 14 31  1  0
 16 32  1  0
 16 33  1  0
 18 34  1  6
 19 35  1  0
 19 36  1  0
 20 37  1  6
 23 38  1  0
M  ISO  8  24   8  25  14  26  14  27  14  28  14  29  14  30  14  34  13
M  ISO  4  35  13  36  13  37  13  38   3
M  END
>  <minimizedAffinity>  (1) 
-4.90775013

>  <minimizedRMSD>  (1) 
2.58321309

$$$$
