
     RDKit          3D

 41 43  0  0  1  0  0  0  0  0999 V2000
   46.9890   30.5440   45.9800 C   0  0  2  0  0  0  0  0  0  0  0  0
   48.2420   31.9730   42.7430 C   0  0  0  0  0  0  0  0  0  0  0  0
   47.7300   31.8380   44.0310 C   0  0  0  0  0  0  0  0  0  0  0  0
   47.5260   30.6020   44.5680 C   0  0  0  0  0  0  0  0  0  0  0  0
   47.8280   29.5120   43.8280 C   0  0  0  0  0  0  0  0  0  0  0  0
   48.3360   29.5990   42.5530 C   0  0  0  0  0  0  0  0  0  0  0  0
   48.5210   30.8400   42.0650 N   0  0  0  0  0  0  0  0  0  0  0  0
   49.5380   35.3290   42.3130 C   0  0  0  0  0  0  0  0  0  0  0  0
   49.0090   35.7440   41.0860 C   0  0  0  0  0  0  0  0  0  0  0  0
   48.1900   34.8390   40.4090 C   0  0  0  0  0  0  0  0  0  0  0  0
   47.9410   33.6160   40.9500 N   0  0  0  0  0  0  0  0  0  0  0  0
   48.4870   33.2750   42.1460 C   0  0  0  0  0  0  0  0  0  0  0  0
   49.2600   34.1140   42.7990 N   0  0  0  0  0  0  0  0  0  0  0  0
   46.2770   29.4110   46.1320 N   0  0  0  0  0  0  0  0  0  0  0  0
   46.5190   28.4170   47.0720 C   0  0  0  0  0  0  0  0  0  0  0  0
   45.5620   28.2710   48.1180 N   0  0  0  0  0  0  0  0  0  0  0  0
   47.4540   27.5470   47.2300 O   0  0  0  0  0  0  0  0  0  0  0  0
   46.0460   31.6730   46.0770 C   0  0  2  0  0  0  0  0  0  0  0  0
   46.4350   33.0220   46.4920 C   0  0  0  0  0  0  0  0  0  0  0  0
   45.7400   32.2150   47.4920 C   0  0  2  0  0  0  0  0  0  0  0  0
   46.5320   31.7550   48.6390 C   0  0  0  0  0  0  0  0  0  0  0  0
   45.9440   31.0560   49.5200 O   0  0  0  0  0  0  0  0  0  0  0  0
   47.8320   31.9240   48.9890 O   0  0  0  0  0  0  0  0  0  0  0  0
   48.7030   30.9820   49.4330 C   0  0  0  0  0  0  0  0  0  0  0  0
   49.7260   31.3660   50.0420 O   0  0  0  0  0  0  0  0  0  0  0  0
   48.4360   29.6240   49.2010 O   0  0  0  0  0  0  0  0  0  0  0  0
   47.7945   30.5807   46.7282 H   0  0  0  0  0  0  0  0  0  0  0  0
   47.4884   32.7355   44.6193 H   0  0  0  0  0  0  0  0  0  0  0  0
   47.6608   28.5156   44.2629 H   0  0  0  0  0  0  0  0  0  0  0  0
   48.5782   28.7025   41.9634 H   0  0  0  0  0  0  0  0  0  0  0  0
   50.1886   36.0082   42.8834 H   0  0  0  0  0  0  0  0  0  0  0  0
   49.2289   36.7396   40.6731 H   0  0  0  0  0  0  0  0  0  0  0  0
   47.7470   35.1140   39.4404 H   0  0  0  0  0  0  0  0  0  0  0  0
   45.4812   29.2685   45.4938 H   0  0  0  0  0  0  0  0  0  0  0  0
   45.6947   27.5488   48.8403 H   0  0  0  0  0  0  0  0  0  0  0  0
   44.7377   28.8876   48.1516 H   0  0  0  0  0  0  0  0  0  0  0  0
   45.5012   31.2832   45.2045 H   0  0  0  0  0  0  0  0  0  0  0  0
   47.5004   33.2563   46.6338 H   0  0  0  0  0  0  0  0  0  0  0  0
   46.2548   34.0224   46.0715 H   0  0  0  0  0  0  0  0  0  0  0  0
   44.8307   32.2987   48.1054 H   0  0  0  0  0  0  0  0  0  0  0  0
   49.0680   28.9333   49.5228 H   0  0  0  0  0  0  0  0  0  0  0  0
  1 18  1  0
  1 14  1  0
  2  3  2  0
  3  4  1  0
  4  1  1  0
  5  4  2  0
  6  5  1  0
  7  6  2  0
  7  2  1  0
  8 13  2  0
  9  8  1  0
 10 11  1  0
 10  9  2  0
 11 12  2  0
 12  2  1  0
 12 13  1  0
 14 15  1  0
 15 17  2  0
 15 16  1  0
 18 19  1  0
 18 20  1  0
 19 20  1  0
 20 21  1  0
 21 23  1  0
 21 22  2  0
 23 24  1  0
 24 25  2  0
 26 24  1  0
  1 27  1  1
  3 28  1  0
  5 29  1  0
  6 30  1  0
  8 31  1  0
  9 32  1  0
 10 33  1  0
 14 34  1  0
 16 35  1  0
 16 36  1  0
 18 37  1  6
 19 38  1  0
 19 39  1  0
 20 40  1  1
 26 41  1  0
M  ISO  8  27   8  28  14  29  14  30  14  31  14  32  14  33  14  37  13
M  ISO  4  38  13  39  13  40  13  41   3
M  END
>  <minimizedAffinity>  (1) 
-5.15989161

>  <minimizedRMSD>  (1) 
1.20373356

$$$$
