
     RDKit          3D

 40 42  0  0  1  0  0  0  0  0999 V2000
   46.8570   30.5320   46.0720 C   0  0  2  0  0  0  0  0  0  0  0  0
   48.1290   31.9270   42.8290 C   0  0  0  0  0  0  0  0  0  0  0  0
   47.6230   31.7990   44.1200 C   0  0  0  0  0  0  0  0  0  0  0  0
   47.3900   30.5730   44.6570 C   0  0  0  0  0  0  0  0  0  0  0  0
   47.6580   29.4760   43.9140 C   0  0  0  0  0  0  0  0  0  0  0  0
   48.1580   29.5550   42.6320 C   0  0  0  0  0  0  0  0  0  0  0  0
   48.3730   30.7780   42.1460 N   0  0  0  0  0  0  0  0  0  0  0  0
   49.5380   35.2330   42.3820 C   0  0  0  0  0  0  0  0  0  0  0  0
   48.9990   35.6780   41.1740 C   0  0  0  0  0  0  0  0  0  0  0  0
   48.1240   34.8090   40.5050 C   0  0  0  0  0  0  0  0  0  0  0  0
   47.8500   33.5960   41.0580 N   0  0  0  0  0  0  0  0  0  0  0  0
   48.4040   33.2220   42.2310 C   0  0  0  0  0  0  0  0  0  0  0  0
   49.2260   34.0280   42.8680 N   0  0  0  0  0  0  0  0  0  0  0  0
   46.0720   29.4450   46.2120 N   0  0  0  0  0  0  0  0  0  0  0  0
   46.2190   28.4520   47.1730 C   0  0  0  0  0  0  0  0  0  0  0  0
   45.2240   28.3750   48.1900 N   0  0  0  0  0  0  0  0  0  0  0  0
   47.0930   27.5290   47.3750 O   0  0  0  0  0  0  0  0  0  0  0  0
   45.9890   31.7150   46.1890 C   0  0  2  0  0  0  0  0  0  0  0  0
   46.4700   33.0280   46.6320 C   0  0  0  0  0  0  0  0  0  0  0  0
   45.7290   32.2500   47.6190 C   0  0  2  0  0  0  0  0  0  0  0  0
   46.4690   31.7110   48.7530 C   0  0  0  0  0  0  0  0  0  0  0  0
   45.7850   31.0650   49.6220 O   0  0  0  0  0  0  0  0  0  0  0  0
   47.7850   31.7510   49.0990 O   0  0  0  0  0  0  0  0  0  0  0  0
   48.5890   30.6390   49.2690 C   0  0  0  0  0  0  0  0  0  0  0  0
   49.3620   30.5810   50.2440 O   0  0  0  0  0  0  0  0  0  0  0  0
   47.6673   30.5078   46.8156 H   0  0  0  0  0  0  0  0  0  0  0  0
   47.4094   32.7012   44.7120 H   0  0  0  0  0  0  0  0  0  0  0  0
   47.4700   28.4832   44.3488 H   0  0  0  0  0  0  0  0  0  0  0  0
   48.3694   28.6532   42.0387 H   0  0  0  0  0  0  0  0  0  0  0  0
   50.2281   35.8822   42.9409 H   0  0  0  0  0  0  0  0  0  0  0  0
   49.2495   36.6675   40.7640 H   0  0  0  0  0  0  0  0  0  0  0  0
   47.6667   35.1034   39.5488 H   0  0  0  0  0  0  0  0  0  0  0  0
   45.2928   29.3411   45.5465 H   0  0  0  0  0  0  0  0  0  0  0  0
   45.2918   27.6549   48.9233 H   0  0  0  0  0  0  0  0  0  0  0  0
   44.4370   29.0395   48.1919 H   0  0  0  0  0  0  0  0  0  0  0  0
   45.4152   31.3807   45.3121 H   0  0  0  0  0  0  0  0  0  0  0  0
   47.5494   33.1874   46.7716 H   0  0  0  0  0  0  0  0  0  0  0  0
   46.3545   34.0469   46.2339 H   0  0  0  0  0  0  0  0  0  0  0  0
   44.8326   32.3879   48.2414 H   0  0  0  0  0  0  0  0  0  0  0  0
   48.5462   29.8101   48.5471 H   0  0  0  0  0  0  0  0  0  0  0  0
  1 18  1  0
  1 14  1  0
  2  3  2  0
  3  4  1  0
  4  1  1  0
  5  4  2  0
  6  5  1  0
  7  6  2  0
  7  2  1  0
  8 13  2  0
  9  8  1  0
 10 11  1  0
 10  9  2  0
 11 12  2  0
 12  2  1  0
 12 13  1  0
 14 15  1  0
 15 17  2  0
 15 16  1  0
 18 19  1  0
 18 20  1  0
 19 20  1  0
 20 21  1  0
 21 23  1  0
 21 22  2  0
 23 24  1  0
 24 25  2  0
  1 26  1  1
  3 27  1  0
  5 28  1  0
  6 29  1  0
  8 30  1  0
  9 31  1  0
 10 32  1  0
 14 33  1  0
 16 34  1  0
 16 35  1  0
 18 36  1  6
 19 37  1  0
 19 38  1  0
 20 39  1  1
 24 40  1  0
M  ISO  8  26   8  27  14  28  14  29  14  30  14  31  14  32  14  36  13
M  ISO  4  37  13  38  13  39  13  40   6
M  END
>  <minimizedAffinity>  (1) 
-4.94433546

>  <minimizedRMSD>  (1) 
1.01415861

$$$$
