
     RDKit          3D

 26 27  0  0  0  0  0  0  0  0999 V2000
   45.7240   35.0150   42.5150 C   0  0  0  0  0  0  0  0  0  0  0  0
   44.6670   35.6000   44.6410 C   0  0  0  0  0  0  0  0  0  0  0  0
   45.4710   34.7220   43.9020 C   0  0  0  0  0  0  0  0  0  0  0  0
   45.9760   33.6100   44.5650 C   0  0  0  0  0  0  0  0  0  0  0  0
   45.6670   33.4360   45.8780 N   0  0  0  0  0  0  0  0  0  0  0  0
   44.8880   34.2980   46.5670 C   0  0  0  0  0  0  0  0  0  0  0  0
   44.3900   35.3760   45.9510 N   0  0  0  0  0  0  0  0  0  0  0  0
   47.2140   34.8600   42.2420 C   0  0  0  0  0  0  0  0  0  0  0  0
   47.4660   34.5530   40.8310 N   0  0  0  0  0  0  0  0  0  0  0  0
   46.7020   33.6380   40.1660 C   0  0  0  0  0  0  0  0  0  0  0  0
   46.9580   33.3640   38.8290 C   0  0  0  0  0  0  0  0  0  0  0  0
   47.9920   34.0240   38.1820 C   0  0  0  0  0  0  0  0  0  0  0  0
   48.2730   33.8170   36.9700 O   0  0  0  0  0  0  0  0  0  0  0  0
   48.6970   34.9100   38.9090 N   0  0  0  0  0  0  0  0  0  0  0  0
   48.4740   35.1990   40.2080 C   0  0  0  0  0  0  0  0  0  0  0  0
   49.1860   36.0440   40.8050 O   0  0  0  0  0  0  0  0  0  0  0  0
   45.1578   34.3169   41.8809 H   0  0  0  0  0  0  0  0  0  0  0  0
   45.4086   36.0440   42.2879 H   0  0  0  0  0  0  0  0  0  0  0  0
   44.2508   36.4911   44.1484 H   0  0  0  0  0  0  0  0  0  0  0  0
   46.6133   32.8846   44.0381 H   0  0  0  0  0  0  0  0  0  0  0  0
   44.6644   34.1146   47.6283 H   0  0  0  0  0  0  0  0  0  0  0  0
   47.7258   35.7984   42.5018 H   0  0  0  0  0  0  0  0  0  0  0  0
   47.5950   34.0281   42.8526 H   0  0  0  0  0  0  0  0  0  0  0  0
   45.8850   33.1186   40.6883 H   0  0  0  0  0  0  0  0  0  0  0  0
   46.3451   32.6288   38.2870 H   0  0  0  0  0  0  0  0  0  0  0  0
   49.4666   35.4061   38.4373 H   0  0  0  0  0  0  0  0  0  0  0  0
  1  3  1  0
  2  7  2  0
  3  4  2  0
  3  2  1  0
  4  5  1  0
  5  6  2  0
  7  6  1  0
  8  1  1  0
  9  8  1  0
 10  9  1  0
 11 10  2  0
 12 11  1  0
 12 14  1  0
 13 12  2  0
 14 15  1  0
 15 16  2  0
 15  9  1  0
  1 17  1  0
  1 18  1  0
  2 19  1  0
  4 20  1  0
  6 21  1  0
  8 22  1  0
  8 23  1  0
 10 24  1  0
 11 25  1  0
 14 26  1  0
M  ISO  8  17   8  18   8  19  14  20  14  21  14  22   8  23   8  24  14
M  ISO  2  25  14  26   9
M  END
>  <minimizedAffinity>  (1) 
-4.61683846

>  <minimizedRMSD>  (1) 
2.148036

$$$$
