
     RDKit          3D

 25 26  0  0  1  0  0  0  0  0999 V2000
   47.1220   34.3670   41.2830 C   0  0  0  0  0  0  0  0  0  0  0  0
   48.0240   35.3750   41.9930 C   0  0  2  0  0  0  0  0  0  0  0  0
   49.1780   35.9860   41.3030 C   0  0  0  0  0  0  0  0  0  0  0  0
   49.3690   34.9440   42.3820 C   0  0  2  0  0  0  0  0  0  0  0  0
   49.9910   33.6590   42.0300 C   0  0  0  0  0  0  0  0  0  0  0  0
   51.1280   33.4950   42.4460 O   0  0  0  0  0  0  0  0  0  0  0  0
   45.7140   34.6100   41.5810 C   0  0  0  0  0  0  0  0  0  0  0  0
   44.8620   36.0020   43.4080 C   0  0  0  0  0  0  0  0  0  0  0  0
   45.3840   34.7950   42.9560 C   0  0  0  0  0  0  0  0  0  0  0  0
   45.5690   33.7820   43.8500 C   0  0  0  0  0  0  0  0  0  0  0  0
   45.2350   33.9840   45.1630 N   0  0  0  0  0  0  0  0  0  0  0  0
   44.7270   35.1690   45.5820 C   0  0  0  0  0  0  0  0  0  0  0  0
   44.5480   36.1570   44.7070 N   0  0  0  0  0  0  0  0  0  0  0  0
   47.3882   33.3526   41.6149 H   0  0  0  0  0  0  0  0  0  0  0  0
   47.2698   34.4741   40.1982 H   0  0  0  0  0  0  0  0  0  0  0  0
   47.1539   35.7989   42.5158 H   0  0  0  0  0  0  0  0  0  0  0  0
   49.3885   35.7395   40.2518 H   0  0  0  0  0  0  0  0  0  0  0  0
   49.5363   37.0113   41.1290 H   0  0  0  0  0  0  0  0  0  0  0  0
   49.8671   34.8563   43.3588 H   0  0  0  0  0  0  0  0  0  0  0  0
   49.4683   32.8973   41.4329 H   0  0  0  0  0  0  0  0  0  0  0  0
   45.4075   35.5159   41.0375 H   0  0  0  0  0  0  0  0  0  0  0  0
   45.1858   33.6959   41.2720 H   0  0  0  0  0  0  0  0  0  0  0  0
   44.7056   36.8313   42.7024 H   0  0  0  0  0  0  0  0  0  0  0  0
   45.9806   32.8163   43.5214 H   0  0  0  0  0  0  0  0  0  0  0  0
   44.4638   35.3139   46.6402 H   0  0  0  0  0  0  0  0  0  0  0  0
  1  7  1  0
  1  2  1  0
  2  4  1  0
  3  2  1  0
  3  4  1  0
  5  4  1  0
  5  6  2  0
  7  9  1  0
  8 13  2  0
  9  8  1  0
  9 10  2  0
 10 11  1  0
 11 12  2  0
 13 12  1  0
  1 14  1  0
  1 15  1  0
  2 16  1  1
  3 17  1  0
  3 18  1  0
  4 19  1  1
  5 20  1  0
  7 21  1  0
  7 22  1  0
  8 23  1  0
 10 24  1  0
 12 25  1  0
M  ISO  8  14   8  15   8  16  13  17  13  18  13  19  13  20   6  21   8
M  ISO  4  22   8  23  14  24  14  25  14
M  END
>  <minimizedAffinity>  (1) 
-4.54221153

>  <minimizedRMSD>  (1) 
1.5862124

$$$$
