
     RDKit          3D

 30 32  0  0  1  0  0  0  0  0999 V2000
   44.8560   34.5700   41.1140 C   0  0  0  0  0  0  0  0  0  0  0  0
   45.6250   34.0190   42.3080 C   0  0  2  0  0  0  0  0  0  0  0  0
   45.9290   34.8240   43.4720 C   0  0  0  0  0  0  0  0  0  0  0  0
   47.0080   34.3620   42.5080 C   0  0  2  0  0  0  0  0  0  0  0  0
   47.8690   35.4790   42.1190 C   0  0  0  0  0  0  0  0  0  0  0  0
   48.7150   35.3960   40.8760 C   0  0  0  0  0  0  0  0  0  0  0  0
   49.3970   35.1380   42.1460 C   0  0  0  0  0  0  0  0  0  0  0  0
   43.7740   35.4450   41.5680 C   0  0  0  0  0  0  0  0  0  0  0  0
   41.3250   35.5750   41.4510 C   0  0  0  0  0  0  0  0  0  0  0  0
   42.5530   35.3480   40.8390 C   0  0  0  0  0  0  0  0  0  0  0  0
   42.5650   35.0410   39.5090 C   0  0  0  0  0  0  0  0  0  0  0  0
   41.3770   34.9680   38.8310 N   0  0  0  0  0  0  0  0  0  0  0  0
   40.1940   35.1960   39.4580 C   0  0  0  0  0  0  0  0  0  0  0  0
   40.1730   35.4970   40.7560 N   0  0  0  0  0  0  0  0  0  0  0  0
   44.4302   33.7343   40.5393 H   0  0  0  0  0  0  0  0  0  0  0  0
   45.5441   35.1498   40.4812 H   0  0  0  0  0  0  0  0  0  0  0  0
   45.0796   33.0727   42.1776 H   0  0  0  0  0  0  0  0  0  0  0  0
   45.6326   35.8827   43.5081 H   0  0  0  0  0  0  0  0  0  0  0  0
   45.7512   34.7453   44.5547 H   0  0  0  0  0  0  0  0  0  0  0  0
   47.8692   33.7025   42.3253 H   0  0  0  0  0  0  0  0  0  0  0  0
   47.1759   36.2358   42.5150 H   0  0  0  0  0  0  0  0  0  0  0  0
   48.5572   34.5673   40.1700 H   0  0  0  0  0  0  0  0  0  0  0  0
   48.9049   36.0890   40.0431 H   0  0  0  0  0  0  0  0  0  0  0  0
   50.1179   35.8678   42.5430 H   0  0  0  0  0  0  0  0  0  0  0  0
   50.0069   34.3176   42.5522 H   0  0  0  0  0  0  0  0  0  0  0  0
   43.5603   35.2007   42.6190 H   0  0  0  0  0  0  0  0  0  0  0  0
   44.1346   36.4726   41.4131 H   0  0  0  0  0  0  0  0  0  0  0  0
   41.2934   35.8228   42.5223 H   0  0  0  0  0  0  0  0  0  0  0  0
   43.5160   34.8547   38.9886 H   0  0  0  0  0  0  0  0  0  0  0  0
   39.2520   35.1321   38.8936 H   0  0  0  0  0  0  0  0  0  0  0  0
  1  8  1  0
  1  2  1  0
  2  4  1  0
  2  3  1  0
  4  3  1  0
  5  7  1  0
  5  4  1  0
  6  5  1  0
  6  7  1  0
 10  9  2  0
 10  8  1  0
 11 10  1  0
 12 13  1  0
 12 11  2  0
 13 14  2  0
 14  9  1  0
  1 15  1  0
  1 16  1  0
  2 17  1  1
  3 18  1  0
  3 19  1  0
  4 20  1  1
  5 21  1  0
  6 22  1  0
  6 23  1  0
  7 24  1  0
  7 25  1  0
  8 26  1  0
  8 27  1  0
  9 28  1  0
 11 29  1  0
 13 30  1  0
M  ISO  8  15   8  16   8  17  13  18  13  19  13  20  13  21  13  22  13
M  ISO  8  23  13  24  13  25  13  26   8  27   8  28  14  29  14  30  14
M  END
>  <minimizedAffinity>  (1) 
-4.47532606

>  <minimizedRMSD>  (1) 
4.72486305

$$$$
