
     RDKit          3D

 24 25  0  0  1  0  0  0  0  0999 V2000
   45.5180   34.9200   42.1050 C   0  0  0  0  0  0  0  0  0  0  0  0
   44.6660   35.6350   44.3300 C   0  0  0  0  0  0  0  0  0  0  0  0
   45.3390   34.7270   43.5220 C   0  0  0  0  0  0  0  0  0  0  0  0
   45.8440   33.6120   44.1400 C   0  0  0  0  0  0  0  0  0  0  0  0
   45.6820   33.4270   45.4700 N   0  0  0  0  0  0  0  0  0  0  0  0
   45.0120   34.3450   46.2320 C   0  0  0  0  0  0  0  0  0  0  0  0
   44.5050   35.4510   45.6490 N   0  0  0  0  0  0  0  0  0  0  0  0
   46.2780   33.8150   41.4660 C   0  0  0  0  0  0  0  0  0  0  0  0
   47.2440   34.3810   40.4280 C   0  0  2  0  0  0  0  0  0  0  0  0
   48.4690   33.6440   40.0910 C   0  0  0  0  0  0  0  0  0  0  0  0
   48.5210   34.8820   40.9250 C   0  0  2  0  0  0  0  0  0  0  0  0
   49.2650   34.6260   42.5120 S   0  0  0  0  0  0  0  0  0  0  0  0
   44.5275   34.9855   41.6311 H   0  0  0  0  0  0  0  0  0  0  0  0
   46.0978   35.8445   41.9669 H   0  0  0  0  0  0  0  0  0  0  0  0
   44.2480   36.5421   43.8692 H   0  0  0  0  0  0  0  0  0  0  0  0
   46.3865   32.8602   43.5480 H   0  0  0  0  0  0  0  0  0  0  0  0
   44.8876   34.1823   47.3128 H   0  0  0  0  0  0  0  0  0  0  0  0
   46.8464   33.2710   42.2348 H   0  0  0  0  0  0  0  0  0  0  0  0
   45.5739   33.1306   40.9702 H   0  0  0  0  0  0  0  0  0  0  0  0
   46.4199   34.7861   39.8224 H   0  0  0  0  0  0  0  0  0  0  0  0
   48.6663   32.6622   40.5462 H   0  0  0  0  0  0  0  0  0  0  0  0
   48.9487   33.3049   39.1610 H   0  0  0  0  0  0  0  0  0  0  0  0
   48.9047   35.9129   40.9274 H   0  0  0  0  0  0  0  0  0  0  0  0
   48.3625   34.9365   43.4949 H   0  0  0  0  0  0  0  0  0  0  0  0
  1  3  1  0
  2  7  2  0
  3  4  2  0
  3  2  1  0
  4  5  1  0
  5  6  2  0
  7  6  1  0
  8  1  1  0
  9 11  1  0
  9  8  1  0
 10  9  1  0
 10 11  1  0
 11 12  1  0
  1 13  1  0
  1 14  1  0
  2 15  1  0
  4 16  1  0
  6 17  1  0
  8 18  1  0
  8 19  1  0
  9 20  1  6
 10 21  1  0
 10 22  1  0
 11 23  1  6
 12 24  1  0
M  ISO  8  13   8  14   8  15  14  16  14  17  14  18   8  19   8  20  13
M  ISO  4  21  13  22  13  23  13  24  11
M  END
>  <minimizedAffinity>  (1) 
-3.62431502

>  <minimizedRMSD>  (1) 
1.63969898

$$$$
