
     RDKit          3D

 26 27  0  0  1  0  0  0  0  0999 V2000
   45.8370   35.1170   42.5610 C   0  0  0  0  0  0  0  0  0  0  0  0
   44.6860   35.6440   44.6620 C   0  0  0  0  0  0  0  0  0  0  0  0
   45.5350   34.8280   43.9280 C   0  0  0  0  0  0  0  0  0  0  0  0
   46.0820   33.7280   44.5240 C   0  0  0  0  0  0  0  0  0  0  0  0
   45.7710   33.4650   45.8370 N   0  0  0  0  0  0  0  0  0  0  0  0
   44.9350   34.2770   46.5420 C   0  0  0  0  0  0  0  0  0  0  0  0
   44.4140   35.3450   45.9400 N   0  0  0  0  0  0  0  0  0  0  0  0
   46.5960   34.0940   41.8430 C   0  0  0  0  0  0  0  0  0  0  0  0
   47.4410   34.7470   40.7520 C   0  0  2  0  0  0  0  0  0  0  0  0
   48.6530   34.1010   40.2440 C   0  0  0  0  0  0  0  0  0  0  0  0
   48.7080   35.3490   41.1030 C   0  0  2  0  0  0  0  0  0  0  0  0
   49.5280   35.1440   42.3220 C   0  0  0  0  0  0  0  0  0  0  0  0
   44.8851   35.2649   42.0299 H   0  0  0  0  0  0  0  0  0  0  0  0
   46.4835   36.0068   42.5814 H   0  0  0  0  0  0  0  0  0  0  0  0
   44.2374   36.5339   44.1963 H   0  0  0  0  0  0  0  0  0  0  0  0
   46.7584   33.0652   43.9644 H   0  0  0  0  0  0  0  0  0  0  0  0
   44.6939   34.0544   47.5919 H   0  0  0  0  0  0  0  0  0  0  0  0
   47.2548   33.5660   42.5481 H   0  0  0  0  0  0  0  0  0  0  0  0
   45.8974   33.3799   41.3825 H   0  0  0  0  0  0  0  0  0  0  0  0
   46.5232   35.1081   40.2650 H   0  0  0  0  0  0  0  0  0  0  0  0
   48.9781   33.1320   40.6507 H   0  0  0  0  0  0  0  0  0  0  0  0
   49.0349   33.8057   39.2556 H   0  0  0  0  0  0  0  0  0  0  0  0
   48.9859   36.4133   41.0934 H   0  0  0  0  0  0  0  0  0  0  0  0
   48.9039   35.3000   43.2143 H   0  0  0  0  0  0  0  0  0  0  0  0
   49.9263   34.1186   42.3278 H   0  0  0  0  0  0  0  0  0  0  0  0
   50.3619   35.8613   42.3278 H   0  0  0  0  0  0  0  0  0  0  0  0
  1  3  1  0
  2  7  2  0
  3  4  2  0
  3  2  1  0
  4  5  1  0
  5  6  2  0
  7  6  1  0
  8  1  1  0
  9 11  1  0
  9  8  1  0
 10  9  1  0
 10 11  1  0
 11 12  1  0
  1 13  1  0
  1 14  1  0
  2 15  1  0
  4 16  1  0
  6 17  1  0
  8 18  1  0
  8 19  1  0
  9 20  1  6
 10 21  1  0
 10 22  1  0
 11 23  1  6
 12 24  1  0
 12 25  1  0
 12 26  1  0
M  ISO  8  13   8  14   8  15  14  16  14  17  14  18   8  19   8  20  13
M  ISO  6  21  13  22  13  23  13  24   8  25   8  26   8
M  END
>  <minimizedAffinity>  (1) 
-4.03239536

>  <minimizedRMSD>  (1) 
1.57509887

$$$$
