
     RDKit          3D

 42 44  0  0  1  0  0  0  0  0999 V2000
   45.9790   34.4710   42.0040 C   0  0  2  0  0  0  0  0  0  0  0  0
   46.7040   33.5030   42.8600 C   0  0  0  0  0  0  0  0  0  0  0  0
   47.3340   34.7900   42.5350 C   0  0  1  0  0  0  0  0  0  0  0  0
   44.8320   35.2960   42.6020 C   0  0  0  0  0  0  0  0  0  0  0  0
   44.0930   35.9530   41.4750 C   0  0  0  0  0  0  0  0  0  0  0  0
   41.7860   35.1880   41.7880 C   0  0  0  0  0  0  0  0  0  0  0  0
   42.9530   35.1730   41.0480 C   0  0  0  0  0  0  0  0  0  0  0  0
   42.9840   34.3970   39.9150 C   0  0  0  0  0  0  0  0  0  0  0  0
   41.8960   33.6760   39.5470 N   0  0  0  0  0  0  0  0  0  0  0  0
   40.7560   33.7170   40.3090 C   0  0  0  0  0  0  0  0  0  0  0  0
   40.7140   34.4640   41.4070 N   0  0  0  0  0  0  0  0  0  0  0  0
   39.6210   32.9100   39.8470 C   0  0  0  0  0  0  0  0  0  0  0  0
   38.3290   33.7310   39.7300 C   0  0  0  0  0  0  0  0  0  0  0  0
   38.4690   32.6030   40.7230 C   0  0  0  0  0  0  0  0  0  0  0  0
   48.4990   34.8600   41.5760 C   0  0  0  0  0  0  0  0  0  0  0  0
   48.0300   34.5700   40.1850 C   0  0  0  0  0  0  0  0  0  0  0  0
   49.5390   33.8310   41.9350 C   0  0  0  0  0  0  0  0  0  0  0  0
   49.1710   36.2110   41.5390 C   0  0  0  0  0  0  0  0  0  0  0  0
   45.4946   34.3977   41.0191 H   0  0  0  0  0  0  0  0  0  0  0  0
   46.3537   33.3072   43.8842 H   0  0  0  0  0  0  0  0  0  0  0  0
   46.9997   32.4485   42.7569 H   0  0  0  0  0  0  0  0  0  0  0  0
   47.7746   35.6010   43.1334 H   0  0  0  0  0  0  0  0  0  0  0  0
   44.1508   34.6372   43.1605 H   0  0  0  0  0  0  0  0  0  0  0  0
   45.2286   36.0558   43.2914 H   0  0  0  0  0  0  0  0  0  0  0  0
   43.7427   36.9411   41.8081 H   0  0  0  0  0  0  0  0  0  0  0  0
   44.7825   36.0422   40.6226 H   0  0  0  0  0  0  0  0  0  0  0  0
   41.7307   35.7992   42.7009 H   0  0  0  0  0  0  0  0  0  0  0  0
   43.8969   34.3602   39.3025 H   0  0  0  0  0  0  0  0  0  0  0  0
   40.2523   32.2559   39.2276 H   0  0  0  0  0  0  0  0  0  0  0  0
   38.3014   34.7748   40.0759 H   0  0  0  0  0  0  0  0  0  0  0  0
   37.6283   33.9878   38.9219 H   0  0  0  0  0  0  0  0  0  0  0  0
   37.9033   31.6716   40.5730 H   0  0  0  0  0  0  0  0  0  0  0  0
   38.3342   32.5181   41.8114 H   0  0  0  0  0  0  0  0  0  0  0  0
   47.0951   33.9919   40.2263 H   0  0  0  0  0  0  0  0  0  0  0  0
   47.8527   35.5164   39.6530 H   0  0  0  0  0  0  0  0  0  0  0  0
   48.7974   33.9886   39.6530 H   0  0  0  0  0  0  0  0  0  0  0  0
   49.6164   33.7544   43.0296 H   0  0  0  0  0  0  0  0  0  0  0  0
   49.2483   32.8552   41.5188 H   0  0  0  0  0  0  0  0  0  0  0  0
   50.5117   34.1321   41.5188 H   0  0  0  0  0  0  0  0  0  0  0  0
   49.3456   36.5620   42.5668 H   0  0  0  0  0  0  0  0  0  0  0  0
   50.1327   36.1278   41.0116 H   0  0  0  0  0  0  0  0  0  0  0  0
   48.5244   36.9278   41.0116 H   0  0  0  0  0  0  0  0  0  0  0  0
  1  3  1  0
  1  4  1  0
  1  2  1  0
  3  2  1  0
  5  4  1  0
  7  5  1  0
  7  6  2  0
  8  7  1  0
  9  8  2  0
  9 10  1  0
 10 11  2  0
 11  6  1  0
 12 10  1  0
 12 14  1  0
 13 12  1  0
 13 14  1  0
 15 17  1  0
 15  3  1  0
 16 15  1  0
 18 15  1  0
  1 19  1  6
  2 20  1  0
  2 21  1  0
  3 22  1  1
  4 23  1  0
  4 24  1  0
  5 25  1  0
  5 26  1  0
  6 27  1  0
  8 28  1  0
 12 29  1  0
 13 30  1  0
 13 31  1  0
 14 32  1  0
 14 33  1  0
 16 34  1  0
 16 35  1  0
 16 36  1  0
 17 37  1  0
 17 38  1  0
 17 39  1  0
 18 40  1  0
 18 41  1  0
 18 42  1  0
M  ISO  8  19  13  20  13  21  13  22  13  23   8  24   8  25   8  26   8
M  ISO  8  27  14  28  14  29  13  30  13  31  13  32  13  33  13  34   8
M  ISO  8  35   8  36   8  37   8  38   8  39   8  40   8  41   8  42   8
M  END
>  <minimizedAffinity>  (1) 
-5.24943399

>  <minimizedRMSD>  (1) 
8.16950607

$$$$
