
     RDKit          3D

 38 39  0  0  1  0  0  0  0  0999 V2000
   41.7740   33.9280   41.2580 C   0  0  2  0  0  0  0  0  0  0  0  0
   40.8810   32.7720   41.0420 C   0  0  0  0  0  0  0  0  0  0  0  0
   41.1280   33.6960   39.9320 C   0  0  1  0  0  0  0  0  0  0  0  0
   43.2950   33.7260   41.2480 C   0  0  0  0  0  0  0  0  0  0  0  0
   43.9160   34.6800   42.2190 C   0  0  0  0  0  0  0  0  0  0  0  0
   46.0100   34.4400   43.4900 C   0  0  0  0  0  0  0  0  0  0  0  0
   45.3600   34.5490   42.2510 C   0  0  0  0  0  0  0  0  0  0  0  0
   46.1170   34.5370   41.1040 C   0  0  0  0  0  0  0  0  0  0  0  0
   47.4720   34.4200   41.2030 N   0  0  0  0  0  0  0  0  0  0  0  0
   48.0670   34.3180   42.4190 C   0  0  0  0  0  0  0  0  0  0  0  0
   47.3630   34.3250   43.5470 N   0  0  0  0  0  0  0  0  0  0  0  0
   49.5200   34.1970   42.4520 C   0  0  0  0  0  0  0  0  0  0  0  0
   50.1120   33.2630   41.8850 O   0  0  0  0  0  0  0  0  0  0  0  0
   50.3000   35.1270   43.1230 O   0  0  0  0  0  0  0  0  0  0  0  0
   40.0430   34.6390   39.4560 C   0  0  0  0  0  0  0  0  0  0  0  0
   40.1760   35.9500   40.1690 C   0  0  0  0  0  0  0  0  0  0  0  0
   38.6780   34.0860   39.7770 C   0  0  0  0  0  0  0  0  0  0  0  0
   40.0770   34.9020   37.9730 C   0  0  0  0  0  0  0  0  0  0  0  0
   41.8080   34.7161   42.0247 H   0  0  0  0  0  0  0  0  0  0  0  0
   41.2998   31.7553   41.0112 H   0  0  0  0  0  0  0  0  0  0  0  0
   39.9788   32.3896   41.5418 H   0  0  0  0  0  0  0  0  0  0  0  0
   41.4800   33.5812   38.8962 H   0  0  0  0  0  0  0  0  0  0  0  0
   43.5324   32.6929   41.5419 H   0  0  0  0  0  0  0  0  0  0  0  0
   43.6894   33.9119   40.2381 H   0  0  0  0  0  0  0  0  0  0  0  0
   43.6578   35.7077   41.9237 H   0  0  0  0  0  0  0  0  0  0  0  0
   43.5285   34.4488   43.2222 H   0  0  0  0  0  0  0  0  0  0  0  0
   45.4216   34.4477   44.4194 H   0  0  0  0  0  0  0  0  0  0  0  0
   45.6358   34.6207   40.1184 H   0  0  0  0  0  0  0  0  0  0  0  0
   51.2851   35.0299   43.1355 H   0  0  0  0  0  0  0  0  0  0  0  0
   40.1587   35.7798   41.2556 H   0  0  0  0  0  0  0  0  0  0  0  0
   41.1270   36.4257   39.8874 H   0  0  0  0  0  0  0  0  0  0  0  0
   39.3399   36.6070   39.8874 H   0  0  0  0  0  0  0  0  0  0  0  0
   38.5507   34.0344   40.8684 H   0  0  0  0  0  0  0  0  0  0  0  0
   37.9064   34.7424   39.3484 H   0  0  0  0  0  0  0  0  0  0  0  0
   38.5808   33.0776   39.3484 H   0  0  0  0  0  0  0  0  0  0  0  0
   40.2162   35.9785   37.7946 H   0  0  0  0  0  0  0  0  0  0  0  0
   40.9106   34.3446   37.5208 H   0  0  0  0  0  0  0  0  0  0  0  0
   39.1291   34.5749   37.5208 H   0  0  0  0  0  0  0  0  0  0  0  0
  2  1  1  0
  3  2  1  0
  3  1  1  0
  4  1  1  0
  4  5  1  0
  5  7  1  0
  6 11  2  0
  7  6  1  0
  8  9  1  0
  8  7  2  0
  9 10  2  0
 10 12  1  0
 10 11  1  0
 12 14  1  0
 13 12  2  0
 15 17  1  0
 15  3  1  0
 15 16  1  0
 18 15  1  0
  1 19  1  1
  2 20  1  0
  2 21  1  0
  3 22  1  6
  4 23  1  0
  4 24  1  0
  5 25  1  0
  5 26  1  0
  6 27  1  0
  8 28  1  0
 14 29  1  0
 16 30  1  0
 16 31  1  0
 16 32  1  0
 17 33  1  0
 17 34  1  0
 17 35  1  0
 18 36  1  0
 18 37  1  0
 18 38  1  0
M  ISO  8  19  13  20  13  21  13  22  13  23   8  24   8  25   8  26   8
M  ISO  8  27  14  28  14  29   3  30   8  31   8  32   8  33   8  34   8
M  ISO  4  35   8  36   8  37   8  38   8
M  END
>  <minimizedAffinity>  (1) 
-5.38429642

>  <minimizedRMSD>  (1) 
3.17736936

$$$$
