
     RDKit          3D

 48 50  0  0  1  0  0  0  0  0999 V2000
   40.8490   35.0390   40.5380 C   0  0  2  0  0  0  0  0  0  0  0  0
   39.5500   34.5250   40.9930 C   0  0  0  0  0  0  0  0  0  0  0  0
   40.3220   33.7450   40.0180 C   0  0  1  0  0  0  0  0  0  0  0  0
   42.0880   34.9050   41.4430 C   0  0  0  0  0  0  0  0  0  0  0  0
   43.2850   35.3650   40.6670 C   0  0  0  0  0  0  0  0  0  0  0  0
   45.4240   34.1540   40.7530 C   0  0  0  0  0  0  0  0  0  0  0  0
   44.5160   35.0380   41.3480 C   0  0  0  0  0  0  0  0  0  0  0  0
   44.8420   35.5580   42.5750 C   0  0  0  0  0  0  0  0  0  0  0  0
   46.0110   35.2120   43.1700 N   0  0  0  0  0  0  0  0  0  0  0  0
   46.8710   34.3470   42.5590 C   0  0  0  0  0  0  0  0  0  0  0  0
   46.5790   33.8310   41.3720 N   0  0  0  0  0  0  0  0  0  0  0  0
   48.1530   33.9660   43.2080 C   0  0  0  0  0  0  0  0  0  0  0  0
   48.4840   32.5330   42.8320 C   0  0  0  0  0  0  0  0  0  0  0  0
   49.5470   32.6720   41.7420 C   0  0  0  0  0  0  0  0  0  0  0  0
   50.3790   33.8030   42.3280 C   0  0  0  0  0  0  0  0  0  0  0  0
   49.2990   34.8070   42.6620 C   0  0  0  0  0  0  0  0  0  0  0  0
   39.8840   33.6500   38.5730 C   0  0  0  0  0  0  0  0  0  0  0  0
   38.3950   33.5110   38.5080 C   0  0  0  0  0  0  0  0  0  0  0  0
   40.4760   32.4180   37.9250 C   0  0  0  0  0  0  0  0  0  0  0  0
   40.2670   34.8350   37.7380 C   0  0  0  0  0  0  0  0  0  0  0  0
   41.1709   36.0087   40.1304 H   0  0  0  0  0  0  0  0  0  0  0  0
   39.4379   34.1561   42.0232 H   0  0  0  0  0  0  0  0  0  0  0  0
   38.5273   34.9291   41.0222 H   0  0  0  0  0  0  0  0  0  0  0  0
   40.6810   32.7062   39.9730 H   0  0  0  0  0  0  0  0  0  0  0  0
   41.9633   35.5290   42.3403 H   0  0  0  0  0  0  0  0  0  0  0  0
   42.2177   33.8591   41.7582 H   0  0  0  0  0  0  0  0  0  0  0  0
   43.2281   36.4557   40.5358 H   0  0  0  0  0  0  0  0  0  0  0  0
   43.2827   34.8524   39.6938 H   0  0  0  0  0  0  0  0  0  0  0  0
   45.1935   33.7177   39.7699 H   0  0  0  0  0  0  0  0  0  0  0  0
   44.1552   36.2557   43.0765 H   0  0  0  0  0  0  0  0  0  0  0  0
   48.0404   34.1069   44.2931 H   0  0  0  0  0  0  0  0  0  0  0  0
   48.8817   31.9835   43.6980 H   0  0  0  0  0  0  0  0  0  0  0  0
   47.6018   31.9699   42.4933 H   0  0  0  0  0  0  0  0  0  0  0  0
   49.1051   32.9495   40.7737 H   0  0  0  0  0  0  0  0  0  0  0  0
   50.1068   31.7514   41.5204 H   0  0  0  0  0  0  0  0  0  0  0  0
   50.9238   33.4805   43.2275 H   0  0  0  0  0  0  0  0  0  0  0  0
   51.1638   34.1847   41.6584 H   0  0  0  0  0  0  0  0  0  0  0  0
   49.6529   35.5211   43.4202 H   0  0  0  0  0  0  0  0  0  0  0  0
   48.9998   35.4057   41.7891 H   0  0  0  0  0  0  0  0  0  0  0  0
   37.9854   33.4728   39.5282 H   0  0  0  0  0  0  0  0  0  0  0  0
   37.9692   34.3733   37.9740 H   0  0  0  0  0  0  0  0  0  0  0  0
   38.1362   32.5848   37.9740 H   0  0  0  0  0  0  0  0  0  0  0  0
   40.8119   31.7189   38.7050 H   0  0  0  0  0  0  0  0  0  0  0  0
   39.7138   31.9306   37.2994 H   0  0  0  0  0  0  0  0  0  0  0  0
   41.3328   32.7086   37.2994 H   0  0  0  0  0  0  0  0  0  0  0  0
   40.5383   35.6743   38.3952 H   0  0  0  0  0  0  0  0  0  0  0  0
   41.1265   34.5738   37.1031 H   0  0  0  0  0  0  0  0  0  0  0  0
   39.4172   35.1262   37.1031 H   0  0  0  0  0  0  0  0  0  0  0  0
  1  2  1  0
  1  4  1  0
  3  1  1  0
  3  2  1  0
  5  7  1  0
  5  4  1  0
  6  7  2  0
  6 11  1  0
  7  8  1  0
  8  9  2  0
 10  9  1  0
 10 12  1  0
 11 10  2  0
 13 12  1  0
 14 15  1  0
 14 13  1  0
 15 16  1  0
 16 12  1  0
 17  3  1  0
 18 17  1  0
 19 17  1  0
 20 17  1  0
  1 21  1  6
  2 22  1  0
  2 23  1  0
  3 24  1  1
  4 25  1  0
  4 26  1  0
  5 27  1  0
  5 28  1  0
  6 29  1  0
  8 30  1  0
 12 31  1  0
 13 32  1  0
 13 33  1  0
 14 34  1  0
 14 35  1  0
 15 36  1  0
 15 37  1  0
 16 38  1  0
 16 39  1  0
 18 40  1  0
 18 41  1  0
 18 42  1  0
 19 43  1  0
 19 44  1  0
 19 45  1  0
 20 46  1  0
 20 47  1  0
 20 48  1  0
M  ISO  8  21  13  22  13  23  13  24  13  25   8  26   8  27   8  28   8
M  ISO  8  29  14  30  14  31  13  32  13  33  13  34  13  35  13  36  13
M  ISO  8  37  13  38  13  39  13  40   8  41   8  42   8  43   8  44   8
M  ISO  4  45   8  46   8  47   8  48   8
M  END
>  <minimizedAffinity>  (1) 
-5.45716667

>  <minimizedRMSD>  (1) 
4.0100975

$$$$
