
     RDKit          3D

 37 38  0  0  1  0  0  0  0  0999 V2000
   44.5440   34.6590   42.6310 C   0  0  2  0  0  0  0  0  0  0  0  0
   44.3530   33.2200   42.3620 C   0  0  0  0  0  0  0  0  0  0  0  0
   44.1040   34.1810   41.2860 C   0  0  1  0  0  0  0  0  0  0  0  0
   45.9720   35.2300   42.6600 C   0  0  0  0  0  0  0  0  0  0  0  0
   46.6360   34.8980   41.3560 C   0  0  0  0  0  0  0  0  0  0  0  0
   48.2880   33.1700   40.8120 C   0  0  0  0  0  0  0  0  0  0  0  0
   47.9280   34.2810   41.5490 C   0  0  0  0  0  0  0  0  0  0  0  0
   48.8280   34.7640   42.4570 C   0  0  0  0  0  0  0  0  0  0  0  0
   50.0300   34.1510   42.6100 N   0  0  0  0  0  0  0  0  0  0  0  0
   50.3550   33.0610   41.8710 C   0  0  0  0  0  0  0  0  0  0  0  0
   49.4880   32.5840   40.9870 N   0  0  0  0  0  0  0  0  0  0  0  0
   51.6210   32.4870   42.0920 N   0  0  0  0  0  0  0  0  0  0  0  0
   42.6930   34.4680   40.8170 C   0  0  0  0  0  0  0  0  0  0  0  0
   42.0440   35.4400   41.7520 C   0  0  0  0  0  0  0  0  0  0  0  0
   41.8640   33.1990   40.8340 C   0  0  0  0  0  0  0  0  0  0  0  0
   42.6090   35.0250   39.4320 C   0  0  0  0  0  0  0  0  0  0  0  0
   44.1732   35.3379   43.4130 H   0  0  0  0  0  0  0  0  0  0  0  0
   45.2260   32.5529   42.3085 H   0  0  0  0  0  0  0  0  0  0  0  0
   43.7642   32.4187   42.8323 H   0  0  0  0  0  0  0  0  0  0  0  0
   44.4676   34.2953   40.2541 H   0  0  0  0  0  0  0  0  0  0  0  0
   45.9340   36.3215   42.7913 H   0  0  0  0  0  0  0  0  0  0  0  0
   46.5384   34.7948   43.4965 H   0  0  0  0  0  0  0  0  0  0  0  0
   46.7676   35.8248   40.7783 H   0  0  0  0  0  0  0  0  0  0  0  0
   45.9944   34.1831   40.8200 H   0  0  0  0  0  0  0  0  0  0  0  0
   47.5855   32.7583   40.0724 H   0  0  0  0  0  0  0  0  0  0  0  0
   48.5791   35.6478   43.0628 H   0  0  0  0  0  0  0  0  0  0  0  0
   51.9116   31.6580   41.5542 H   0  0  0  0  0  0  0  0  0  0  0  0
   52.2569   32.8959   42.7916 H   0  0  0  0  0  0  0  0  0  0  0  0
   42.2448   35.1393   42.7909 H   0  0  0  0  0  0  0  0  0  0  0  0
   42.4521   36.4463   41.5761 H   0  0  0  0  0  0  0  0  0  0  0  0
   40.9582   35.4488   41.5761 H   0  0  0  0  0  0  0  0  0  0  0  0
   41.6698   32.9018   41.8751 H   0  0  0  0  0  0  0  0  0  0  0  0
   40.9084   33.3784   40.3196 H   0  0  0  0  0  0  0  0  0  0  0  0
   42.4122   32.3960   40.3196 H   0  0  0  0  0  0  0  0  0  0  0  0
   42.4451   36.1115   39.4831 H   0  0  0  0  0  0  0  0  0  0  0  0
   43.5481   34.8206   38.8970 H   0  0  0  0  0  0  0  0  0  0  0  0
   41.7719   34.5527   38.8970 H   0  0  0  0  0  0  0  0  0  0  0  0
  1  4  1  0
  2  1  1  0
  3  2  1  0
  3  1  1  0
  5  7  1  0
  5  4  1  0
  6 11  2  0
  6  7  1  0
  7  8  2  0
  8  9  1  0
 10 12  1  0
 10  9  2  0
 11 10  1  0
 13 15  1  0
 13  3  1  0
 13 14  1  0
 16 13  1  0
  1 17  1  1
  2 18  1  0
  2 19  1  0
  3 20  1  6
  4 21  1  0
  4 22  1  0
  5 23  1  0
  5 24  1  0
  6 25  1  0
  8 26  1  0
 12 27  1  0
 12 28  1  0
 14 29  1  0
 14 30  1  0
 14 31  1  0
 15 32  1  0
 15 33  1  0
 15 34  1  0
 16 35  1  0
 16 36  1  0
 16 37  1  0
M  ISO  8  17  13  18  13  19  13  20  13  21   8  22   8  23   8  24   8
M  ISO  8  25  14  26  14  29   8  30   8  31   8  32   8  33   8  34   8
M  ISO  3  35   8  36   8  37   8
M  END
>  <minimizedAffinity>  (1) 
-4.07236576

>  <minimizedRMSD>  (1) 
0.440400571

$$$$
