
     RDKit          3D

 38 39  0  0  1  0  0  0  0  0999 V2000
   41.6680   33.7510   41.1880 C   0  0  2  0  0  0  0  0  0  0  0  0
   40.4390   33.0620   41.6300 C   0  0  0  0  0  0  0  0  0  0  0  0
   40.5990   33.3820   40.2130 C   0  0  1  0  0  0  0  0  0  0  0  0
   42.9670   32.9540   41.0090 C   0  0  0  0  0  0  0  0  0  0  0  0
   43.8110   33.6460   39.9800 C   0  0  0  0  0  0  0  0  0  0  0  0
   46.2550   33.6470   39.8080 C   0  0  0  0  0  0  0  0  0  0  0  0
   45.1120   34.0040   40.4980 C   0  0  0  0  0  0  0  0  0  0  0  0
   45.2640   34.6980   41.6720 C   0  0  0  0  0  0  0  0  0  0  0  0
   46.5120   35.0060   42.1130 N   0  0  0  0  0  0  0  0  0  0  0  0
   47.6090   34.6390   41.4100 C   0  0  0  0  0  0  0  0  0  0  0  0
   47.4860   33.9660   40.2700 N   0  0  0  0  0  0  0  0  0  0  0  0
   48.9840   34.9620   41.8670 C   0  0  0  0  0  0  0  0  0  0  0  0
   49.8720   34.0130   41.3840 F   0  0  0  0  0  0  0  0  0  0  0  0
   49.0240   34.8830   43.2570 F   0  0  0  0  0  0  0  0  0  0  0  0
   49.3690   36.2060   41.4360 F   0  0  0  0  0  0  0  0  0  0  0  0
   39.7580   34.4580   39.5610 C   0  0  0  0  0  0  0  0  0  0  0  0
   39.9540   35.7490   40.3060 C   0  0  0  0  0  0  0  0  0  0  0  0
   38.2870   34.1040   39.6330 C   0  0  0  0  0  0  0  0  0  0  0  0
   40.0870   34.7150   38.1260 C   0  0  0  0  0  0  0  0  0  0  0  0
   42.1844   34.6585   41.5341 H   0  0  0  0  0  0  0  0  0  0  0  0
   40.4887   32.0149   41.9633 H   0  0  0  0  0  0  0  0  0  0  0  0
   39.6671   33.2703   42.3855 H   0  0  0  0  0  0  0  0  0  0  0  0
   40.5592   32.8026   39.2788 H   0  0  0  0  0  0  0  0  0  0  0  0
   43.5096   32.9089   41.9648 H   0  0  0  0  0  0  0  0  0  0  0  0
   42.7386   31.9288   40.6822 H   0  0  0  0  0  0  0  0  0  0  0  0
   43.2945   34.5609   39.6541 H   0  0  0  0  0  0  0  0  0  0  0  0
   43.9593   32.9518   39.1397 H   0  0  0  0  0  0  0  0  0  0  0  0
   46.1619   33.0917   38.8630 H   0  0  0  0  0  0  0  0  0  0  0  0
   44.3810   35.0032   42.2526 H   0  0  0  0  0  0  0  0  0  0  0  0
   39.9247   35.5558   41.3885 H   0  0  0  0  0  0  0  0  0  0  0  0
   40.9283   36.1831   40.0373 H   0  0  0  0  0  0  0  0  0  0  0  0
   39.1524   36.4527   40.0373 H   0  0  0  0  0  0  0  0  0  0  0  0
   37.9788   34.0298   40.6863 H   0  0  0  0  0  0  0  0  0  0  0  0
   37.6968   34.8858   39.1325 H   0  0  0  0  0  0  0  0  0  0  0  0
   38.1171   33.1393   39.1325 H   0  0  0  0  0  0  0  0  0  0  0  0
   40.9525   35.3911   38.0636 H   0  0  0  0  0  0  0  0  0  0  0  0
   40.3282   33.7638   37.6291 H   0  0  0  0  0  0  0  0  0  0  0  0
   39.2224   35.1793   37.6291 H   0  0  0  0  0  0  0  0  0  0  0  0
  1  2  1  0
  3  1  1  0
  3  2  1  0
  4  1  1  0
  5  7  1  0
  5  4  1  0
  6 11  2  0
  6  7  1  0
  7  8  2  0
  8  9  1  0
 10 12  1  0
 10  9  2  0
 11 10  1  0
 12 14  1  0
 13 12  1  0
 15 12  1  0
 16 18  1  0
 16  3  1  0
 16 17  1  0
 19 16  1  0
  1 20  1  1
  2 21  1  0
  2 22  1  0
  3 23  1  6
  4 24  1  0
  4 25  1  0
  5 26  1  0
  5 27  1  0
  6 28  1  0
  8 29  1  0
 17 30  1  0
 17 31  1  0
 17 32  1  0
 18 33  1  0
 18 34  1  0
 18 35  1  0
 19 36  1  0
 19 37  1  0
 19 38  1  0
M  ISO  8  20  13  21  13  22  13  23  13  24   8  25   8  26   8  27   8
M  ISO  8  28  14  29  14  30   8  31   8  32   8  33   8  34   8  35   8
M  ISO  3  36   8  37   8  38   8
M  END
>  <minimizedAffinity>  (1) 
-5.2026124

>  <minimizedRMSD>  (1) 
3.67175984

$$$$
