
     RDKit          3D

 62 64  0  0  1  0  0  0  0  0999 V2000
   41.9320   35.2380   40.2500 C   0  0  0  0  0  0  0  0  0  0  0  0
   40.4880   34.7290   40.4540 C   0  0  2  0  0  0  0  0  0  0  0  0
   40.0840   34.2010   41.7740 C   0  0  0  0  0  0  0  0  0  0  0  0
   40.3620   33.2620   40.6880 C   0  0  1  0  0  0  0  0  0  0  0  0
   39.2390   32.5230   39.9650 C   0  0  0  0  0  0  0  0  0  0  0  0
   38.4050   33.4850   39.2180 C   0  0  0  0  0  0  0  0  0  0  0  0
   38.3430   31.8780   41.0310 C   0  0  0  0  0  0  0  0  0  0  0  0
   39.7190   31.4210   39.0930 C   0  0  0  0  0  0  0  0  0  0  0  0
   38.8320   30.6990   38.3190 N   0  0  0  0  0  0  0  0  0  0  0  0
   37.9100   29.7740   38.8040 C   0  0  0  0  0  0  0  0  0  0  0  0
   37.9410   28.5120   37.9540 C   0  0  0  0  0  0  0  0  0  0  0  0
   38.9320   28.5490   36.8410 C   0  0  0  0  0  0  0  0  0  0  0  0
   39.0610   29.8410   36.1140 C   0  0  0  0  0  0  0  0  0  0  0  0
   38.6700   31.0390   36.9500 C   0  0  0  0  0  0  0  0  0  0  0  0
   42.5510   35.4430   41.5930 C   0  0  0  0  0  0  0  0  0  0  0  0
   44.7800   35.6930   42.6080 C   0  0  0  0  0  0  0  0  0  0  0  0
   43.9650   35.1730   41.6090 C   0  0  0  0  0  0  0  0  0  0  0  0
   44.5390   34.4060   40.6470 C   0  0  0  0  0  0  0  0  0  0  0  0
   45.8840   34.1550   40.6630 N   0  0  0  0  0  0  0  0  0  0  0  0
   46.6550   34.6780   41.6540 C   0  0  0  0  0  0  0  0  0  0  0  0
   46.1060   35.4270   42.6000 N   0  0  0  0  0  0  0  0  0  0  0  0
   48.1130   34.4330   41.7220 C   0  0  0  0  0  0  0  0  0  0  0  0
   48.9060   35.7330   41.5190 C   0  0  0  0  0  0  0  0  0  0  0  0
   48.5470   33.8400   43.0200 C   0  0  0  0  0  0  0  0  0  0  0  0
   48.4620   33.5170   40.5530 C   0  0  0  0  0  0  0  0  0  0  0  0
   42.5117   34.4948   39.6828 H   0  0  0  0  0  0  0  0  0  0  0  0
   41.9247   36.1835   39.6878 H   0  0  0  0  0  0  0  0  0  0  0  0
   40.0600   35.4794   39.7731 H   0  0  0  0  0  0  0  0  0  0  0  0
   40.7752   34.2718   42.6268 H   0  0  0  0  0  0  0  0  0  0  0  0
   39.2307   34.3733   42.4465 H   0  0  0  0  0  0  0  0  0  0  0  0
   41.0124   32.3791   40.6014 H   0  0  0  0  0  0  0  0  0  0  0  0
   37.8541   34.1205   39.9269 H   0  0  0  0  0  0  0  0  0  0  0  0
   39.0484   34.1140   38.5852 H   0  0  0  0  0  0  0  0  0  0  0  0
   37.6911   32.9374   38.5852 H   0  0  0  0  0  0  0  0  0  0  0  0
   38.7136   32.1448   42.0318 H   0  0  0  0  0  0  0  0  0  0  0  0
   37.3119   32.2424   40.9127 H   0  0  0  0  0  0  0  0  0  0  0  0
   38.3613   30.7845   40.9127 H   0  0  0  0  0  0  0  0  0  0  0  0
   40.4518   31.8632   38.4020 H   0  0  0  0  0  0  0  0  0  0  0  0
   40.0789   30.6742   39.8160 H   0  0  0  0  0  0  0  0  0  0  0  0
   38.1627   29.5190   39.8438 H   0  0  0  0  0  0  0  0  0  0  0  0
   36.9023   30.2129   38.7613 H   0  0  0  0  0  0  0  0  0  0  0  0
   38.1876   27.6621   38.6073 H   0  0  0  0  0  0  0  0  0  0  0  0
   36.9480   28.4190   37.4900 H   0  0  0  0  0  0  0  0  0  0  0  0
   39.9177   28.3017   37.2619 H   0  0  0  0  0  0  0  0  0  0  0  0
   38.5621   27.8295   36.0957 H   0  0  0  0  0  0  0  0  0  0  0  0
   40.1081   29.9616   35.7993 H   0  0  0  0  0  0  0  0  0  0  0  0
   38.3725   29.8029   35.2569 H   0  0  0  0  0  0  0  0  0  0  0  0
   39.3157   31.8937   36.7001 H   0  0  0  0  0  0  0  0  0  0  0  0
   37.6246   31.3163   36.7494 H   0  0  0  0  0  0  0  0  0  0  0  0
   42.3904   36.4879   41.8969 H   0  0  0  0  0  0  0  0  0  0  0  0
   42.0735   34.7350   42.2864 H   0  0  0  0  0  0  0  0  0  0  0  0
   44.3477   36.3189   43.4026 H   0  0  0  0  0  0  0  0  0  0  0  0
   43.9160   33.9817   39.8459 H   0  0  0  0  0  0  0  0  0  0  0  0
   49.1666   36.1603   42.4985 H   0  0  0  0  0  0  0  0  0  0  0  0
   49.8263   35.5171   40.9565 H   0  0  0  0  0  0  0  0  0  0  0  0
   48.2928   36.4525   40.9565 H   0  0  0  0  0  0  0  0  0  0  0  0
   48.1207   34.4225   43.8500 H   0  0  0  0  0  0  0  0  0  0  0  0
   48.1954   32.7996   43.0836 H   0  0  0  0  0  0  0  0  0  0  0  0
   49.6450   33.8605   43.0836 H   0  0  0  0  0  0  0  0  0  0  0  0
   48.8288   32.5542   40.9384 H   0  0  0  0  0  0  0  0  0  0  0  0
   47.5651   33.3484   39.9389 H   0  0  0  0  0  0  0  0  0  0  0  0
   49.2437   33.9879   39.9389 H   0  0  0  0  0  0  0  0  0  0  0  0
  1  2  1  0
  1 15  1  0
  2  4  1  0
  2  3  1  0
  4  3  1  0
  5  4  1  0
  5  7  1  0
  6  5  1  0
  8  5  1  0
  9 10  1  0
  9  8  1  0
 11 10  1  0
 12 11  1  0
 13 12  1  0
 13 14  1  0
 14  9  1  0
 15 17  1  0
 17 16  2  0
 18 19  2  0
 18 17  1  0
 19 20  1  0
 20 22  1  0
 20 21  2  0
 21 16  1  0
 22 24  1  0
 23 22  1  0
 25 22  1  0
  1 26  1  0
  1 27  1  0
  2 28  1  6
  3 29  1  0
  3 30  1  0
  4 31  1  1
  6 32  1  0
  6 33  1  0
  6 34  1  0
  7 35  1  0
  7 36  1  0
  7 37  1  0
  8 38  1  0
  8 39  1  0
 10 40  1  0
 10 41  1  0
 11 42  1  0
 11 43  1  0
 12 44  1  0
 12 45  1  0
 13 46  1  0
 13 47  1  0
 14 48  1  0
 14 49  1  0
 15 50  1  0
 15 51  1  0
 16 52  1  0
 18 53  1  0
 23 54  1  0
 23 55  1  0
 23 56  1  0
 24 57  1  0
 24 58  1  0
 24 59  1  0
 25 60  1  0
 25 61  1  0
 25 62  1  0
M  ISO  8  26   8  27   8  28  13  29  13  30  13  31  13  32   8  33   8
M  ISO  8  34   8  35   8  36   8  37   8  38   8  39   8  40  13  41  13
M  ISO  8  42  13  43  13  44  13  45  13  46  13  47  13  48  13  49  13
M  ISO  8  50   8  51   8  52  14  53  14  54   8  55   8  56   8  57   8
M  ISO  5  58   8  59   8  60   8  61   8  62   8
M  END
>  <minimizedAffinity>  (1) 
-5.60776758

>  <minimizedRMSD>  (1) 
3.07508731

$$$$
