
     RDKit          3D

 61 63  0  0  1  0  0  0  0  0999 V2000
   42.0420   35.5730   40.6670 C   0  0  0  0  0  0  0  0  0  0  0  0
   41.2040   34.6080   39.8120 C   0  0  2  0  0  0  0  0  0  0  0  0
   39.8690   34.9920   39.3580 C   0  0  0  0  0  0  0  0  0  0  0  0
   39.9920   34.0450   40.4920 C   0  0  1  0  0  0  0  0  0  0  0  0
   39.6910   32.5590   40.2860 C   0  0  0  0  0  0  0  0  0  0  0  0
   39.7840   32.2110   38.8500 C   0  0  0  0  0  0  0  0  0  0  0  0
   38.2510   32.3140   40.7370 C   0  0  0  0  0  0  0  0  0  0  0  0
   40.6050   31.6760   41.0510 C   0  0  0  0  0  0  0  0  0  0  0  0
   40.1160   30.7050   41.9370 N   0  0  0  0  0  0  0  0  0  0  0  0
   40.2290   29.4240   41.1890 C   0  0  0  0  0  0  0  0  0  0  0  0
   39.6220   28.2750   41.9080 C   0  0  0  0  0  0  0  0  0  0  0  0
   40.1290   28.1450   43.2670 N   0  0  0  0  0  0  0  0  0  0  0  0
   40.0670   29.3820   43.9700 C   0  0  0  0  0  0  0  0  0  0  0  0
   40.7740   30.4790   43.1760 C   0  0  0  0  0  0  0  0  0  0  0  0
   42.6440   34.8060   41.7930 C   0  0  0  0  0  0  0  0  0  0  0  0
   44.8790   35.3140   42.6930 C   0  0  0  0  0  0  0  0  0  0  0  0
   44.0740   34.7170   41.7180 C   0  0  0  0  0  0  0  0  0  0  0  0
   44.6810   34.0600   40.7010 C   0  0  0  0  0  0  0  0  0  0  0  0
   46.0460   33.9850   40.6330 N   0  0  0  0  0  0  0  0  0  0  0  0
   46.8030   34.5700   41.5870 C   0  0  0  0  0  0  0  0  0  0  0  0
   46.2260   35.2140   42.5860 N   0  0  0  0  0  0  0  0  0  0  0  0
   48.2860   34.5150   41.5590 C   0  0  0  0  0  0  0  0  0  0  0  0
   48.8940   35.8610   41.2050 C   0  0  0  0  0  0  0  0  0  0  0  0
   48.8710   34.0780   42.8830 C   0  0  0  0  0  0  0  0  0  0  0  0
   48.6690   33.5460   40.4440 C   0  0  0  0  0  0  0  0  0  0  0  0
   41.3980   36.3714   41.0643 H   0  0  0  0  0  0  0  0  0  0  0  0
   42.8346   36.0278   40.0546 H   0  0  0  0  0  0  0  0  0  0  0  0
   42.0892   34.2207   39.2863 H   0  0  0  0  0  0  0  0  0  0  0  0
   39.5039   36.0142   39.5367 H   0  0  0  0  0  0  0  0  0  0  0  0
   39.3488   34.9703   38.3890 H   0  0  0  0  0  0  0  0  0  0  0  0
   39.5919   34.0124   41.5161 H   0  0  0  0  0  0  0  0  0  0  0  0
   40.0667   31.1530   38.7467 H   0  0  0  0  0  0  0  0  0  0  0  0
   38.8095   32.3788   38.3682 H   0  0  0  0  0  0  0  0  0  0  0  0
   40.5449   32.8426   38.3682 H   0  0  0  0  0  0  0  0  0  0  0  0
   38.2072   32.3066   41.8361 H   0  0  0  0  0  0  0  0  0  0  0  0
   37.6042   33.1150   40.3497 H   0  0  0  0  0  0  0  0  0  0  0  0
   37.9054   31.3442   40.3497 H   0  0  0  0  0  0  0  0  0  0  0  0
   41.2124   31.1394   40.3073 H   0  0  0  0  0  0  0  0  0  0  0  0
   41.1044   32.3839   41.7289 H   0  0  0  0  0  0  0  0  0  0  0  0
   41.2947   29.2090   41.0216 H   0  0  0  0  0  0  0  0  0  0  0  0
   39.6805   29.5464   40.2434 H   0  0  0  0  0  0  0  0  0  0  0  0
   38.5322   28.4188   41.9490 H   0  0  0  0  0  0  0  0  0  0  0  0
   39.8852   27.3578   41.3608 H   0  0  0  0  0  0  0  0  0  0  0  0
   39.5632   27.4462   43.7695 H   0  0  0  0  0  0  0  0  0  0  0  0
   39.0138   29.6627   44.1183 H   0  0  0  0  0  0  0  0  0  0  0  0
   40.5666   29.2660   44.9431 H   0  0  0  0  0  0  0  0  0  0  0  0
   41.8127   30.1727   42.9828 H   0  0  0  0  0  0  0  0  0  0  0  0
   40.7536   31.4094   43.7624 H   0  0  0  0  0  0  0  0  0  0  0  0
   42.3740   35.3018   42.7371 H   0  0  0  0  0  0  0  0  0  0  0  0
   42.2501   33.7805   41.7363 H   0  0  0  0  0  0  0  0  0  0  0  0
   44.4252   35.8572   43.5350 H   0  0  0  0  0  0  0  0  0  0  0  0
   44.0704   33.5815   39.9212 H   0  0  0  0  0  0  0  0  0  0  0  0
   49.1403   36.4062   42.1281 H   0  0  0  0  0  0  0  0  0  0  0  0
   49.8095   35.7061   40.6153 H   0  0  0  0  0  0  0  0  0  0  0  0
   48.1725   36.4455   40.6153 H   0  0  0  0  0  0  0  0  0  0  0  0
   48.2853   34.5155   43.7049 H   0  0  0  0  0  0  0  0  0  0  0  0
   48.8391   32.9807   42.9537 H   0  0  0  0  0  0  0  0  0  0  0  0
   49.9141   34.4198   42.9537 H   0  0  0  0  0  0  0  0  0  0  0  0
   49.0396   32.6085   40.8842 H   0  0  0  0  0  0  0  0  0  0  0  0
   47.7865   33.3354   39.8221 H   0  0  0  0  0  0  0  0  0  0  0  0
   49.4570   33.9957   39.8221 H   0  0  0  0  0  0  0  0  0  0  0  0
  1 15  1  0
  2  4  1  0
  2  1  1  0
  3  2  1  0
  3  4  1  0
  5  4  1  0
  5  7  1  0
  5  8  1  0
  6  5  1  0
  8  9  1  0
  9 14  1  0
 10 11  1  0
 10  9  1  0
 11 12  1  0
 12 13  1  0
 14 13  1  0
 17 15  1  0
 17 16  2  0
 18 17  1  0
 19 18  2  0
 19 20  1  0
 20 21  2  0
 21 16  1  0
 22 20  1  0
 22 24  1  0
 23 22  1  0
 25 22  1  0
  1 26  1  0
  1 27  1  0
  2 28  1  6
  3 29  1  0
  3 30  1  0
  4 31  1  1
  6 32  1  0
  6 33  1  0
  6 34  1  0
  7 35  1  0
  7 36  1  0
  7 37  1  0
  8 38  1  0
  8 39  1  0
 10 40  1  0
 10 41  1  0
 11 42  1  0
 11 43  1  0
 12 44  1  0
 13 45  1  0
 13 46  1  0
 14 47  1  0
 14 48  1  0
 15 49  1  0
 15 50  1  0
 16 51  1  0
 18 52  1  0
 23 53  1  0
 23 54  1  0
 23 55  1  0
 24 56  1  0
 24 57  1  0
 24 58  1  0
 25 59  1  0
 25 60  1  0
 25 61  1  0
M  ISO  8  26   8  27   8  28  13  29  13  30  13  31  13  32   8  33   8
M  ISO  8  34   8  35   8  36   8  37   8  38   8  39   8  40  13  41  13
M  ISO  8  42  13  43  13  44   5  45  13  46  13  47  13  48  13  49   8
M  ISO  8  50   8  51  14  52  14  53   8  54   8  55   8  56   8  57   8
M  ISO  4  58   8  59   8  60   8  61   8
M  END
>  <minimizedAffinity>  (1) 
-5.52532244

>  <minimizedRMSD>  (1) 
4.82543278

$$$$
