
     RDKit          3D

 49 50  0  0  1  0  0  0  0  0999 V2000
   41.9730   35.3620   40.5210 C   0  0  0  0  0  0  0  0  0  0  0  0
   40.7880   34.3800   40.6190 C   0  0  2  0  0  0  0  0  0  0  0  0
   41.0490   32.9290   40.7410 C   0  0  0  0  0  0  0  0  0  0  0  0
   40.6050   33.4810   39.4450 C   0  0  1  0  0  0  0  0  0  0  0  0
   39.2060   33.2090   38.9400 C   0  0  0  0  0  0  0  0  0  0  0  0
   38.2070   33.6370   39.9750 C   0  0  0  0  0  0  0  0  0  0  0  0
   39.0120   31.7440   38.6690 C   0  0  0  0  0  0  0  0  0  0  0  0
   38.8780   33.9650   37.6870 C   0  0  0  0  0  0  0  0  0  0  0  0
   37.7410   33.3530   36.9960 N   0  0  0  0  0  0  0  0  0  0  0  0
   42.6350   35.4300   41.8530 C   0  0  0  0  0  0  0  0  0  0  0  0
   44.9130   35.7160   42.7650 C   0  0  0  0  0  0  0  0  0  0  0  0
   44.0520   35.1960   41.8020 C   0  0  0  0  0  0  0  0  0  0  0  0
   44.5870   34.4530   40.8000 C   0  0  0  0  0  0  0  0  0  0  0  0
   45.9360   34.2180   40.7330 N   0  0  0  0  0  0  0  0  0  0  0  0
   46.7460   34.7390   41.6870 C   0  0  0  0  0  0  0  0  0  0  0  0
   46.2340   35.4650   42.6680 N   0  0  0  0  0  0  0  0  0  0  0  0
   48.2170   34.5150   41.6690 C   0  0  0  0  0  0  0  0  0  0  0  0
   48.9740   35.8140   41.5010 C   0  0  0  0  0  0  0  0  0  0  0  0
   48.7100   33.8650   42.9430 C   0  0  0  0  0  0  0  0  0  0  0  0
   48.5190   33.6440   40.4610 C   0  0  0  0  0  0  0  0  0  0  0  0
   42.6902   35.0055   39.7670 H   0  0  0  0  0  0  0  0  0  0  0  0
   41.6155   36.3590   40.2240 H   0  0  0  0  0  0  0  0  0  0  0  0
   40.1734   35.0883   41.1939 H   0  0  0  0  0  0  0  0  0  0  0  0
   42.0805   32.5651   40.8578 H   0  0  0  0  0  0  0  0  0  0  0  0
   40.6897   32.1305   41.4069 H   0  0  0  0  0  0  0  0  0  0  0  0
   40.9927   33.4426   38.4163 H   0  0  0  0  0  0  0  0  0  0  0  0
   38.6203   33.4599   40.9789 H   0  0  0  0  0  0  0  0  0  0  0  0
   37.9879   34.7080   39.8524 H   0  0  0  0  0  0  0  0  0  0  0  0
   37.2805   33.0568   39.8524 H   0  0  0  0  0  0  0  0  0  0  0  0
   38.9401   31.2010   39.6229 H   0  0  0  0  0  0  0  0  0  0  0  0
   38.0866   31.5971   38.0928 H   0  0  0  0  0  0  0  0  0  0  0  0
   39.8673   31.3613   38.0928 H   0  0  0  0  0  0  0  0  0  0  0  0
   38.6259   35.0036   37.9474 H   0  0  0  0  0  0  0  0  0  0  0  0
   39.7523   33.9404   37.0199 H   0  0  0  0  0  0  0  0  0  0  0  0
   37.0710   32.9924   37.6902 H   0  0  0  0  0  0  0  0  0  0  0  0
   37.2776   34.0586   36.4059 H   0  0  0  0  0  0  0  0  0  0  0  0
   42.4624   36.4303   42.2768 H   0  0  0  0  0  0  0  0  0  0  0  0
   42.1978   34.6331   42.4724 H   0  0  0  0  0  0  0  0  0  0  0  0
   44.5205   36.3235   43.5938 H   0  0  0  0  0  0  0  0  0  0  0  0
   43.9264   34.0319   40.0279 H   0  0  0  0  0  0  0  0  0  0  0  0
   49.2155   36.2283   42.4910 H   0  0  0  0  0  0  0  0  0  0  0  0
   49.9045   35.6269   40.9449 H   0  0  0  0  0  0  0  0  0  0  0  0
   48.3525   36.5313   40.9449 H   0  0  0  0  0  0  0  0  0  0  0  0
   48.3017   34.4033   43.8110 H   0  0  0  0  0  0  0  0  0  0  0  0
   48.3778   32.8168   42.9722 H   0  0  0  0  0  0  0  0  0  0  0  0
   49.8090   33.9023   42.9722 H   0  0  0  0  0  0  0  0  0  0  0  0
   48.8620   32.6549   40.7987 H   0  0  0  0  0  0  0  0  0  0  0  0
   47.6082   33.5291   39.8549 H   0  0  0  0  0  0  0  0  0  0  0  0
   49.3054   34.1175   39.8549 H   0  0  0  0  0  0  0  0  0  0  0  0
  1  2  1  0
  1 10  1  0
  2  3  1  0
  4  2  1  0
  4  3  1  0
  5  4  1  0
  5  6  1  0
  7  5  1  0
  8  5  1  0
  9  8  1  0
 12 10  1  0
 12 11  2  0
 13 12  1  0
 14 13  2  0
 14 15  1  0
 15 16  2  0
 16 11  1  0
 17 15  1  0
 17 19  1  0
 18 17  1  0
 20 17  1  0
  1 21  1  0
  1 22  1  0
  2 23  1  1
  3 24  1  0
  3 25  1  0
  4 26  1  6
  6 27  1  0
  6 28  1  0
  6 29  1  0
  7 30  1  0
  7 31  1  0
  7 32  1  0
  8 33  1  0
  8 34  1  0
  9 35  1  0
  9 36  1  0
 10 37  1  0
 10 38  1  0
 11 39  1  0
 13 40  1  0
 18 41  1  0
 18 42  1  0
 18 43  1  0
 19 44  1  0
 19 45  1  0
 19 46  1  0
 20 47  1  0
 20 48  1  0
 20 49  1  0
M  ISO  8  21   8  22   8  23  13  24  13  25  13  26  13  27   8  28   8
M  ISO  8  29   8  30   8  31   8  32   8  33   8  34   8  35   5  36   5
M  ISO  8  37   8  38   8  39  14  40  14  41   8  42   8  43   8  44   8
M  ISO  5  45   8  46   8  47   8  48   8  49   8
M  END
>  <minimizedAffinity>  (1) 
-5.2551713

>  <minimizedRMSD>  (1) 
0.242953971

$$$$
