
     RDKit          3D

 27 28  0  0  0  0  0  0  0  0999 V2000
   44.6990   35.7010   44.4720 C   0  0  0  0  0  0  0  0  0  0  0  0
   45.7260   35.1600   43.6840 C   0  0  0  0  0  0  0  0  0  0  0  0
   46.4560   34.1030   44.2160 C   0  0  0  0  0  0  0  0  0  0  0  0
   46.1310   33.6510   45.4730 N   0  0  0  0  0  0  0  0  0  0  0  0
   45.1400   34.1940   46.1950 C   0  0  0  0  0  0  0  0  0  0  0  0
   44.4460   35.2050   45.6840 N   0  0  0  0  0  0  0  0  0  0  0  0
   44.8410   33.6930   47.4920 N   0  0  0  0  0  0  0  0  0  0  0  0
   45.3270   32.4430   47.9590 C   0  0  0  0  0  0  0  0  0  0  0  0
   45.5240   31.5220   47.0810 N   0  0  0  0  0  0  0  0  0  0  0  0
   45.5760   32.2520   49.3490 N   0  0  0  0  0  0  0  0  0  0  0  0
   45.8990   30.5860   47.3060 H   0  0  0  0  0  0  0  0  0  0  0  0
   47.5250   33.4890   43.4790 C   0  0  0  0  0  0  0  0  0  0  0  0
   47.7240   32.1470   43.3670 C   0  0  0  0  0  0  0  0  0  0  0  0
   48.7560   31.5600   42.6560 C   0  0  0  0  0  0  0  0  0  0  0  0
   49.6710   32.3930   42.0000 C   0  0  0  0  0  0  0  0  0  0  0  0
   49.4910   33.7460   42.0980 C   0  0  0  0  0  0  0  0  0  0  0  0
   48.4470   34.2860   42.8180 C   0  0  0  0  0  0  0  0  0  0  0  0
   44.0989   36.5391   44.0880 H   0  0  0  0  0  0  0  0  0  0  0  0
   45.9456   35.5575   42.6821 H   0  0  0  0  0  0  0  0  0  0  0  0
   44.2490   34.2587   48.1169 H   0  0  0  0  0  0  0  0  0  0  0  0
   45.9285   31.3460   49.6893 H   0  0  0  0  0  0  0  0  0  0  0  0
   45.4035   33.0199   50.0134 H   0  0  0  0  0  0  0  0  0  0  0  0
   47.0133   31.4812   43.8785 H   0  0  0  0  0  0  0  0  0  0  0  0
   48.8552   30.4656   42.6073 H   0  0  0  0  0  0  0  0  0  0  0  0
   50.5085   31.9727   41.4238 H   0  0  0  0  0  0  0  0  0  0  0  0
   50.1969   34.4193   41.5896 H   0  0  0  0  0  0  0  0  0  0  0  0
   48.3424   35.3798   42.8696 H   0  0  0  0  0  0  0  0  0  0  0  0
  1  6  2  0
  2  3  2  0
  2  1  1  0
  3  4  1  0
  4  5  2  0
  5  7  1  0
  6  5  1  0
  7  8  1  0
  8 10  1  0
  9 11  1  0
  9  8  2  0
 12  3  1  0
 13 12  2  0
 14 13  1  0
 15 16  1  0
 15 14  2  0
 16 17  2  0
 17 12  1  0
  1 18  1  0
  2 19  1  0
  7 20  1  0
 10 21  1  0
 10 22  1  0
 13 23  1  0
 14 24  1  0
 15 25  1  0
 16 26  1  0
 17 27  1  0
M  ISO  7  18  14  19  14  23  14  24  14  25  14  26  14  27  14
M  END
>  <minimizedAffinity>  (1) 
-6.16549206

>  <minimizedRMSD>  (1) 
0.853703022

$$$$
