
     RDKit          3D

 31 33  0  0  0  0  0  0  0  0999 V2000
   44.7510   35.6520   44.5280 C   0  0  0  0  0  0  0  0  0  0  0  0
   45.6330   34.9540   43.6730 C   0  0  0  0  0  0  0  0  0  0  0  0
   46.2640   33.8030   44.1860 C   0  0  0  0  0  0  0  0  0  0  0  0
   45.9860   33.4330   45.4720 N   0  0  0  0  0  0  0  0  0  0  0  0
   45.1400   34.1270   46.2470 C   0  0  0  0  0  0  0  0  0  0  0  0
   44.5400   35.2180   45.7700 N   0  0  0  0  0  0  0  0  0  0  0  0
   44.8770   33.7080   47.5900 N   0  0  0  0  0  0  0  0  0  0  0  0
   45.2180   32.4190   48.0490 C   0  0  0  0  0  0  0  0  0  0  0  0
   45.2220   31.4500   47.1910 N   0  0  0  0  0  0  0  0  0  0  0  0
   45.5440   32.2320   49.4330 N   0  0  0  0  0  0  0  0  0  0  0  0
   45.5190   30.4860   47.4290 H   0  0  0  0  0  0  0  0  0  0  0  0
   47.1780   33.0760   43.3190 C   0  0  0  0  0  0  0  0  0  0  0  0
   47.8920   31.9440   43.6430 C   0  0  0  0  0  0  0  0  0  0  0  0
   48.6270   31.5560   42.5890 N   0  0  0  0  0  0  0  0  0  0  0  0
   48.4300   32.3940   41.5560 C   0  0  0  0  0  0  0  0  0  0  0  0
   48.9530   32.4010   40.2940 C   0  0  0  0  0  0  0  0  0  0  0  0
   48.5550   33.4060   39.4400 C   0  0  0  0  0  0  0  0  0  0  0  0
   47.6560   34.3760   39.8450 C   0  0  0  0  0  0  0  0  0  0  0  0
   47.1660   34.3120   41.1270 C   0  0  0  0  0  0  0  0  0  0  0  0
   47.5270   33.3380   42.0130 C   0  0  0  0  0  0  0  0  0  0  0  0
   44.2375   36.5555   44.1676 H   0  0  0  0  0  0  0  0  0  0  0  0
   45.8203   35.2964   42.6446 H   0  0  0  0  0  0  0  0  0  0  0  0
   44.4255   34.3671   48.2401 H   0  0  0  0  0  0  0  0  0  0  0  0
   45.7948   31.2956   49.7811 H   0  0  0  0  0  0  0  0  0  0  0  0
   45.5273   33.0341   50.0789 H   0  0  0  0  0  0  0  0  0  0  0  0
   47.8642   31.4349   44.6177 H   0  0  0  0  0  0  0  0  0  0  0  0
   49.2506   30.7364   42.5737 H   0  0  0  0  0  0  0  0  0  0  0  0
   49.6679   31.6301   39.9706 H   0  0  0  0  0  0  0  0  0  0  0  0
   48.9595   33.4376   38.4175 H   0  0  0  0  0  0  0  0  0  0  0  0
   47.3419   35.1768   39.1594 H   0  0  0  0  0  0  0  0  0  0  0  0
   46.4503   35.0805   41.4544 H   0  0  0  0  0  0  0  0  0  0  0  0
  1  6  2  0
  2  3  2  0
  2  1  1  0
  3  4  1  0
  4  5  2  0
  5  7  1  0
  6  5  1  0
  7  8  1  0
  8 10  1  0
  9 11  1  0
  9  8  2  0
 12 13  2  0
 12  3  1  0
 14 13  1  0
 15 20  2  0
 15 14  1  0
 16 15  1  0
 17 18  1  0
 17 16  2  0
 18 19  2  0
 19 20  1  0
 20 12  1  0
  1 21  1  0
  2 22  1  0
  7 23  1  0
 10 24  1  0
 10 25  1  0
 13 26  1  0
 14 27  1  0
 16 28  1  0
 17 29  1  0
 18 30  1  0
 19 31  1  0
M  ISO  8  21  14  22  14  26  14  27   9  28  14  29  14  30  14  31  14
M  END
>  <minimizedAffinity>  (1) 
-6.66900635

>  <minimizedRMSD>  (1) 
0.417142421

$$$$
