
     RDKit          3D

 28 29  0  0  0  0  0  0  0  0999 V2000
   44.6010   35.7880   44.4540 C   0  0  0  0  0  0  0  0  0  0  0  0
   45.5990   35.2530   43.6240 C   0  0  0  0  0  0  0  0  0  0  0  0
   46.3480   34.1940   44.1250 C   0  0  0  0  0  0  0  0  0  0  0  0
   46.0840   33.7220   45.3970 N   0  0  0  0  0  0  0  0  0  0  0  0
   45.1190   34.2670   46.1510 C   0  0  0  0  0  0  0  0  0  0  0  0
   44.3900   35.2900   45.6730 N   0  0  0  0  0  0  0  0  0  0  0  0
   44.8590   33.7650   47.4650 N   0  0  0  0  0  0  0  0  0  0  0  0
   45.3550   32.5070   47.8920 C   0  0  0  0  0  0  0  0  0  0  0  0
   45.5050   31.5980   47.0080 N   0  0  0  0  0  0  0  0  0  0  0  0
   45.6660   32.3010   49.2730 N   0  0  0  0  0  0  0  0  0  0  0  0
   45.8680   30.6480   47.1950 H   0  0  0  0  0  0  0  0  0  0  0  0
   47.4040   33.4960   43.4760 N   0  0  0  0  0  0  0  0  0  0  0  0
   48.3430   34.3080   42.9590 C   0  0  0  0  0  0  0  0  0  0  0  0
   49.4290   33.7760   42.3000 C   0  0  0  0  0  0  0  0  0  0  0  0
   49.4820   32.3960   42.2110 C   0  0  0  0  0  0  0  0  0  0  0  0
   50.5870   31.7940   41.5380 N   0  0  0  0  0  0  0  0  0  0  0  0
   48.5100   31.6480   42.7510 N   0  0  0  0  0  0  0  0  0  0  0  0
   47.4500   32.1670   43.3940 C   0  0  0  0  0  0  0  0  0  0  0  0
   46.5140   31.5050   43.9160 O   0  0  0  0  0  0  0  0  0  0  0  0
   43.9866   36.6268   44.0950 H   0  0  0  0  0  0  0  0  0  0  0  0
   45.7813   35.6558   42.6168 H   0  0  0  0  0  0  0  0  0  0  0  0
   44.2977   34.3312   48.1171 H   0  0  0  0  0  0  0  0  0  0  0  0
   46.0266   31.3895   49.5893 H   0  0  0  0  0  0  0  0  0  0  0  0
   45.5293   33.0642   49.9511 H   0  0  0  0  0  0  0  0  0  0  0  0
   48.2436   35.3986   43.0626 H   0  0  0  0  0  0  0  0  0  0  0  0
   50.2132   34.4145   41.8671 H   0  0  0  0  0  0  0  0  0  0  0  0
   50.6461   30.7686   41.4603 H   0  0  0  0  0  0  0  0  0  0  0  0
   51.3254   32.3848   41.1299 H   0  0  0  0  0  0  0  0  0  0  0  0
  1  6  2  0
  2  3  2  0
  2  1  1  0
  3  4  1  0
  4  5  2  0
  5  7  1  0
  6  5  1  0
  7  8  1  0
  8 10  1  0
  9 11  1  0
  9  8  2  0
 12  3  1  0
 13 12  1  0
 14 13  2  0
 15 14  1  0
 15 17  2  0
 16 15  1  0
 17 18  1  0
 18 12  1  0
 18 19  2  0
  1 20  1  0
  2 21  1  0
  7 22  1  0
 10 23  1  0
 10 24  1  0
 13 25  1  0
 14 26  1  0
 16 27  1  0
 16 28  1  0
M  ISO  4  20  14  21  14  25  14  26  14
M  END
>  <minimizedAffinity>  (1) 
-6.19755983

>  <minimizedRMSD>  (1) 
1.17035115

$$$$
