
     RDKit          3D

 30 31  0  0  0  0  0  0  0  0999 V2000
   44.5980   35.7850   44.4750 C   0  0  0  0  0  0  0  0  0  0  0  0
   45.5610   35.2170   43.6280 C   0  0  0  0  0  0  0  0  0  0  0  0
   46.2980   34.1330   44.1120 C   0  0  0  0  0  0  0  0  0  0  0  0
   46.0430   33.6780   45.3930 N   0  0  0  0  0  0  0  0  0  0  0  0
   45.1110   34.2580   46.1620 C   0  0  0  0  0  0  0  0  0  0  0  0
   44.3990   35.3020   45.7000 N   0  0  0  0  0  0  0  0  0  0  0  0
   44.8590   33.7760   47.4890 N   0  0  0  0  0  0  0  0  0  0  0  0
   45.3240   32.5080   47.9170 C   0  0  0  0  0  0  0  0  0  0  0  0
   45.4290   31.5870   47.0430 N   0  0  0  0  0  0  0  0  0  0  0  0
   45.6580   32.2950   49.2880 N   0  0  0  0  0  0  0  0  0  0  0  0
   45.7560   30.6250   47.2330 H   0  0  0  0  0  0  0  0  0  0  0  0
   47.3110   33.4280   43.4070 N   0  0  0  0  0  0  0  0  0  0  0  0
   47.7020   32.1560   43.6120 C   0  0  0  0  0  0  0  0  0  0  0  0
   48.7060   31.6100   42.8400 C   0  0  0  0  0  0  0  0  0  0  0  0
   49.1210   30.2030   43.0840 C   0  0  0  0  0  0  0  0  0  0  0  0
   49.2920   32.3940   41.8640 C   0  0  0  0  0  0  0  0  0  0  0  0
   50.2110   31.9270   41.1420 O   0  0  0  0  0  0  0  0  0  0  0  0
   48.8750   33.6670   41.6850 N   0  0  0  0  0  0  0  0  0  0  0  0
   47.9000   34.1910   42.4380 C   0  0  0  0  0  0  0  0  0  0  0  0
   47.5870   35.3820   42.1910 O   0  0  0  0  0  0  0  0  0  0  0  0
   44.0004   36.6390   44.1235 H   0  0  0  0  0  0  0  0  0  0  0  0
   45.7305   35.6121   42.6155 H   0  0  0  0  0  0  0  0  0  0  0  0
   44.3278   34.3652   48.1459 H   0  0  0  0  0  0  0  0  0  0  0  0
   45.9960   31.3729   49.5985 H   0  0  0  0  0  0  0  0  0  0  0  0
   45.5611   33.0634   49.9671 H   0  0  0  0  0  0  0  0  0  0  0  0
   47.2206   31.5522   44.3954 H   0  0  0  0  0  0  0  0  0  0  0  0
   49.1752   30.0193   44.1672 H   0  0  0  0  0  0  0  0  0  0  0  0
   48.3859   29.5204   42.6326 H   0  0  0  0  0  0  0  0  0  0  0  0
   50.1089   30.0286   42.6326 H   0  0  0  0  0  0  0  0  0  0  0  0
   49.3158   34.2451   40.9553 H   0  0  0  0  0  0  0  0  0  0  0  0
  1  6  2  0
  2  3  2  0
  2  1  1  0
  3  4  1  0
  4  5  2  0
  5  7  1  0
  6  5  1  0
  7  8  1  0
  8 10  1  0
  9 11  1  0
  9  8  2  0
 12 13  1  0
 12  3  1  0
 14 15  1  0
 14 13  2  0
 16 14  1  0
 17 16  2  0
 18 16  1  0
 18 19  1  0
 19 12  1  0
 20 19  2  0
  1 21  1  0
  2 22  1  0
  7 23  1  0
 10 24  1  0
 10 25  1  0
 13 26  1  0
 15 27  1  0
 15 28  1  0
 15 29  1  0
 18 30  1  0
M  ISO  7  21  14  22  14  26  14  27   8  28   8  29   8  30   9
M  END
>  <minimizedAffinity>  (1) 
-6.47323179

>  <minimizedRMSD>  (1) 
0.315617293

$$$$
