
     RDKit          3D

 30 32  0  0  0  0  0  0  0  0999 V2000
   44.7110   35.7000   44.5260 C   0  0  0  0  0  0  0  0  0  0  0  0
   45.5980   35.0240   43.6580 C   0  0  0  0  0  0  0  0  0  0  0  0
   46.2440   33.8800   44.1450 C   0  0  0  0  0  0  0  0  0  0  0  0
   45.9820   33.4790   45.4330 N   0  0  0  0  0  0  0  0  0  0  0  0
   45.1310   34.1530   46.2200 C   0  0  0  0  0  0  0  0  0  0  0  0
   44.5110   35.2460   45.7620 N   0  0  0  0  0  0  0  0  0  0  0  0
   44.8710   33.7260   47.5570 N   0  0  0  0  0  0  0  0  0  0  0  0
   45.2380   32.4400   48.0060 C   0  0  0  0  0  0  0  0  0  0  0  0
   45.2790   31.4890   47.1590 N   0  0  0  0  0  0  0  0  0  0  0  0
   45.5560   32.2340   49.3940 N   0  0  0  0  0  0  0  0  0  0  0  0
   45.5320   30.5130   47.3720 H   0  0  0  0  0  0  0  0  0  0  0  0
   47.1470   33.1580   43.3170 N   0  0  0  0  0  0  0  0  0  0  0  0
   47.8360   32.0510   43.7170 C   0  0  0  0  0  0  0  0  0  0  0  0
   48.6190   31.5740   42.7240 N   0  0  0  0  0  0  0  0  0  0  0  0
   48.4450   32.3710   41.6680 C   0  0  0  0  0  0  0  0  0  0  0  0
   48.9260   32.4480   40.3760 C   0  0  0  0  0  0  0  0  0  0  0  0
   48.5340   33.4120   39.5300 N   0  0  0  0  0  0  0  0  0  0  0  0
   47.6420   34.3500   39.9300 C   0  0  0  0  0  0  0  0  0  0  0  0
   47.1510   34.3000   41.1970 N   0  0  0  0  0  0  0  0  0  0  0  0
   47.5390   33.3450   42.0340 C   0  0  0  0  0  0  0  0  0  0  0  0
   49.8730   31.4450   39.9650 N   0  0  0  0  0  0  0  0  0  0  0  0
   44.1851   36.6022   44.1804 H   0  0  0  0  0  0  0  0  0  0  0  0
   45.7754   35.3841   42.6338 H   0  0  0  0  0  0  0  0  0  0  0  0
   44.4044   34.3722   48.2094 H   0  0  0  0  0  0  0  0  0  0  0  0
   45.8246   31.2971   49.7273 H   0  0  0  0  0  0  0  0  0  0  0  0
   45.5151   33.0234   50.0544 H   0  0  0  0  0  0  0  0  0  0  0  0
   47.7637   31.6037   44.7194 H   0  0  0  0  0  0  0  0  0  0  0  0
   47.3190   35.1421   39.2384 H   0  0  0  0  0  0  0  0  0  0  0  0
   50.2593   31.4619   39.0103 H   0  0  0  0  0  0  0  0  0  0  0  0
   50.1644   30.7104   40.6255 H   0  0  0  0  0  0  0  0  0  0  0  0
  1  6  2  0
  2  3  2  0
  2  1  1  0
  3  4  1  0
  4  5  2  0
  5  7  1  0
  6  5  1  0
  7  8  1  0
  8 10  1  0
  9 11  1  0
  9  8  2  0
 12 13  1  0
 12  3  1  0
 14 13  2  0
 15 20  2  0
 15 14  1  0
 16 15  1  0
 17 18  1  0
 17 16  2  0
 18 19  2  0
 19 20  1  0
 20 12  1  0
 21 16  1  0
  1 22  1  0
  2 23  1  0
  7 24  1  0
 10 25  1  0
 10 26  1  0
 13 27  1  0
 18 28  1  0
 21 29  1  0
 21 30  1  0
M  ISO  4  22  14  23  14  27  14  28  14
M  END
>  <minimizedAffinity>  (1) 
-6.62531281

>  <minimizedRMSD>  (1) 
0.471685946

$$$$
