
     RDKit          3D

 31 32  0  0  0  0  0  0  0  0999 V2000
   44.6330   35.7500   44.5170 C   0  0  0  0  0  0  0  0  0  0  0  0
   45.6360   35.2030   43.7020 C   0  0  0  0  0  0  0  0  0  0  0  0
   46.3730   34.1340   44.2050 C   0  0  0  0  0  0  0  0  0  0  0  0
   46.0790   33.6790   45.4610 N   0  0  0  0  0  0  0  0  0  0  0  0
   45.1110   34.2290   46.2160 C   0  0  0  0  0  0  0  0  0  0  0  0
   44.4070   35.2510   45.7320 N   0  0  0  0  0  0  0  0  0  0  0  0
   44.8370   33.7230   47.5210 N   0  0  0  0  0  0  0  0  0  0  0  0
   45.3090   32.4550   47.9530 C   0  0  0  0  0  0  0  0  0  0  0  0
   45.4570   31.5390   47.0640 N   0  0  0  0  0  0  0  0  0  0  0  0
   45.5980   32.2320   49.3270 N   0  0  0  0  0  0  0  0  0  0  0  0
   45.7850   30.5810   47.2500 H   0  0  0  0  0  0  0  0  0  0  0  0
   47.4250   33.4590   43.5150 N   0  0  0  0  0  0  0  0  0  0  0  0
   47.6790   32.0250   43.6800 C   0  0  0  0  0  0  0  0  0  0  0  0
   48.2580   31.4910   42.4120 C   0  0  0  0  0  0  0  0  0  0  0  0
   49.5240   32.1020   42.1200 N   0  0  0  0  0  0  0  0  0  0  0  0
   49.6140   33.4800   42.4990 C   0  0  0  0  0  0  0  0  0  0  0  0
   48.2950   34.1850   42.6100 C   0  0  0  0  0  0  0  0  0  0  0  0
   44.0305   36.5946   44.1513 H   0  0  0  0  0  0  0  0  0  0  0  0
   45.8337   35.6059   42.6977 H   0  0  0  0  0  0  0  0  0  0  0  0
   44.2791   34.2953   48.1708 H   0  0  0  0  0  0  0  0  0  0  0  0
   45.9402   31.3118   49.6385 H   0  0  0  0  0  0  0  0  0  0  0  0
   45.4652   32.9906   50.0109 H   0  0  0  0  0  0  0  0  0  0  0  0
   48.3886   31.8676   44.5057 H   0  0  0  0  0  0  0  0  0  0  0  0
   46.7389   31.5027   43.9112 H   0  0  0  0  0  0  0  0  0  0  0  0
   48.3987   30.4046   42.5117 H   0  0  0  0  0  0  0  0  0  0  0  0
   47.5639   31.7191   41.5897 H   0  0  0  0  0  0  0  0  0  0  0  0
   50.2572   31.5808   42.6217 H   0  0  0  0  0  0  0  0  0  0  0  0
   50.1155   33.5348   43.4765 H   0  0  0  0  0  0  0  0  0  0  0  0
   50.1720   33.9875   41.6983 H   0  0  0  0  0  0  0  0  0  0  0  0
   48.4560   35.2025   42.9958 H   0  0  0  0  0  0  0  0  0  0  0  0
   47.8252   34.2354   41.6166 H   0  0  0  0  0  0  0  0  0  0  0  0
  1  6  2  0
  2  3  2  0
  2  1  1  0
  3  4  1  0
  4  5  2  0
  5  7  1  0
  6  5  1  0
  7  8  1  0
  8 10  1  0
  9 11  1  0
  9  8  2  0
 12 13  1  0
 12  3  1  0
 14 13  1  0
 15 14  1  0
 15 16  1  0
 16 17  1  0
 17 12  1  0
  1 18  1  0
  2 19  1  0
  7 20  1  0
 10 21  1  0
 10 22  1  0
 13 23  1  0
 13 24  1  0
 14 25  1  0
 14 26  1  0
 15 27  1  0
 16 28  1  0
 16 29  1  0
 17 30  1  0
 17 31  1  0
M  ISO  8  18  14  19  14  23  13  24  13  25  13  26  13  27   5  28  13
M  ISO  3  29  13  30  13  31  13
M  END
>  <minimizedAffinity>  (1) 
-5.78197145

>  <minimizedRMSD>  (1) 
0.852487326

$$$$
