
     RDKit          3D

 25 26  0  0  0  0  0  0  0  0999 V2000
   44.7030   35.6980   44.4790 C   0  0  0  0  0  0  0  0  0  0  0  0
   45.7170   35.1410   43.6850 C   0  0  0  0  0  0  0  0  0  0  0  0
   46.4400   34.0750   44.2090 C   0  0  0  0  0  0  0  0  0  0  0  0
   46.1370   33.6130   45.4750 N   0  0  0  0  0  0  0  0  0  0  0  0
   45.1520   34.1850   46.1970 C   0  0  0  0  0  0  0  0  0  0  0  0
   44.4450   35.2170   45.6970 N   0  0  0  0  0  0  0  0  0  0  0  0
   44.8440   33.7030   47.5090 N   0  0  0  0  0  0  0  0  0  0  0  0
   45.3070   32.4480   47.9660 C   0  0  0  0  0  0  0  0  0  0  0  0
   45.4720   31.5240   47.1050 N   0  0  0  0  0  0  0  0  0  0  0  0
   45.5770   32.2350   49.3490 N   0  0  0  0  0  0  0  0  0  0  0  0
   45.8220   30.5730   47.3100 H   0  0  0  0  0  0  0  0  0  0  0  0
   47.5230   33.3830   43.5220 C   0  0  0  0  0  0  0  0  0  0  0  0
   48.4820   34.0550   42.7960 C   0  0  0  0  0  0  0  0  0  0  0  0
   49.5080   33.4230   42.1420 C   0  0  0  0  0  0  0  0  0  0  0  0
   49.6050   32.0730   42.1980 N   0  0  0  0  0  0  0  0  0  0  0  0
   48.6710   31.4150   42.9070 C   0  0  0  0  0  0  0  0  0  0  0  0
   47.6720   32.0450   43.5420 N   0  0  0  0  0  0  0  0  0  0  0  0
   44.1130   36.5421   44.0926 H   0  0  0  0  0  0  0  0  0  0  0  0
   45.9329   35.5347   42.6808 H   0  0  0  0  0  0  0  0  0  0  0  0
   44.2706   34.2852   48.1360 H   0  0  0  0  0  0  0  0  0  0  0  0
   45.9141   31.3171   49.6725 H   0  0  0  0  0  0  0  0  0  0  0  0
   45.4351   32.9990   50.0251 H   0  0  0  0  0  0  0  0  0  0  0  0
   48.4215   35.1518   42.7383 H   0  0  0  0  0  0  0  0  0  0  0  0
   50.2474   34.0082   41.5756 H   0  0  0  0  0  0  0  0  0  0  0  0
   48.7286   30.3182   42.9684 H   0  0  0  0  0  0  0  0  0  0  0  0
  1  6  2  0
  2  3  2  0
  2  1  1  0
  3  4  1  0
  4  5  2  0
  5  7  1  0
  6  5  1  0
  7  8  1  0
  8 10  1  0
  9 11  1  0
  9  8  2  0
 12 17  1  0
 12  3  1  0
 13 12  2  0
 14 15  2  0
 14 13  1  0
 15 16  1  0
 16 17  2  0
  1 18  1  0
  2 19  1  0
  7 20  1  0
 10 21  1  0
 10 22  1  0
 13 23  1  0
 14 24  1  0
 16 25  1  0
M  ISO  5  18  14  19  14  23  14  24  14  25  14
M  END
>  <minimizedAffinity>  (1) 
-5.89477777

>  <minimizedRMSD>  (1) 
0.395924449

$$$$
