
     RDKit          3D

 24 25  0  0  0  0  0  0  0  0999 V2000
   44.6330   35.7840   44.5350 C   0  0  0  0  0  0  0  0  0  0  0  0
   45.5630   35.1800   43.6760 C   0  0  0  0  0  0  0  0  0  0  0  0
   46.2610   34.0640   44.1510 C   0  0  0  0  0  0  0  0  0  0  0  0
   46.0010   33.6170   45.4320 N   0  0  0  0  0  0  0  0  0  0  0  0
   45.1000   34.2330   46.2110 C   0  0  0  0  0  0  0  0  0  0  0  0
   44.4390   35.2910   45.7580 N   0  0  0  0  0  0  0  0  0  0  0  0
   44.8500   33.7490   47.5340 N   0  0  0  0  0  0  0  0  0  0  0  0
   45.2710   32.4660   47.9590 C   0  0  0  0  0  0  0  0  0  0  0  0
   45.3480   31.5390   47.0720 N   0  0  0  0  0  0  0  0  0  0  0  0
   45.5890   32.2370   49.3260 N   0  0  0  0  0  0  0  0  0  0  0  0
   45.6070   30.5620   47.2610 H   0  0  0  0  0  0  0  0  0  0  0  0
   47.2050   33.4390   43.3020 N   0  0  0  0  0  0  0  0  0  0  0  0
   48.3370   34.0700   43.0370 N   0  0  0  0  0  0  0  0  0  0  0  0
   49.0370   33.2500   42.2140 C   0  0  0  0  0  0  0  0  0  0  0  0
   48.3480   32.0910   41.9510 C   0  0  0  0  0  0  0  0  0  0  0  0
   47.1600   32.2420   42.6710 C   0  0  0  0  0  0  0  0  0  0  0  0
   44.0643   36.6638   44.1995 H   0  0  0  0  0  0  0  0  0  0  0  0
   45.7378   35.5706   42.6627 H   0  0  0  0  0  0  0  0  0  0  0  0
   44.3472   34.3539   48.1990 H   0  0  0  0  0  0  0  0  0  0  0  0
   45.8952   31.3031   49.6341 H   0  0  0  0  0  0  0  0  0  0  0  0
   45.5131   33.0051   50.0081 H   0  0  0  0  0  0  0  0  0  0  0  0
   50.0322   33.4838   41.8078 H   0  0  0  0  0  0  0  0  0  0  0  0
   48.6584   31.2437   41.3219 H   0  0  0  0  0  0  0  0  0  0  0  0
   46.3343   31.5167   42.7170 H   0  0  0  0  0  0  0  0  0  0  0  0
  1  6  2  0
  2  3  2  0
  2  1  1  0
  3  4  1  0
  4  5  2  0
  5  7  1  0
  6  5  1  0
  7  8  1  0
  8 10  1  0
  9 11  1  0
  9  8  2  0
 12  3  1  0
 13 12  1  0
 14 13  2  0
 15 14  1  0
 15 16  2  0
 16 12  1  0
  1 17  1  0
  2 18  1  0
  7 19  1  0
 10 20  1  0
 10 21  1  0
 14 22  1  0
 15 23  1  0
 16 24  1  0
M  ISO  5  17  14  18  14  22  14  23  14  24  14
M  END
>  <minimizedAffinity>  (1) 
-5.67958403

>  <minimizedRMSD>  (1) 
0.14263539

$$$$
