
     RDKit          3D

 24 25  0  0  0  0  0  0  0  0999 V2000
   44.7430   35.6970   44.4790 C   0  0  0  0  0  0  0  0  0  0  0  0
   45.7240   35.0900   43.6790 C   0  0  0  0  0  0  0  0  0  0  0  0
   46.4170   33.9950   44.1890 C   0  0  0  0  0  0  0  0  0  0  0  0
   46.1020   33.5580   45.4630 N   0  0  0  0  0  0  0  0  0  0  0  0
   45.1560   34.1670   46.1910 C   0  0  0  0  0  0  0  0  0  0  0  0
   44.4870   35.2260   45.6980 N   0  0  0  0  0  0  0  0  0  0  0  0
   44.8400   33.7090   47.5150 N   0  0  0  0  0  0  0  0  0  0  0  0
   45.2840   32.4470   47.9770 C   0  0  0  0  0  0  0  0  0  0  0  0
   45.4060   31.5120   47.1150 N   0  0  0  0  0  0  0  0  0  0  0  0
   45.5820   32.2470   49.3630 N   0  0  0  0  0  0  0  0  0  0  0  0
   45.6710   30.5410   47.3260 H   0  0  0  0  0  0  0  0  0  0  0  0
   47.4310   33.3190   43.4440 N   0  0  0  0  0  0  0  0  0  0  0  0
   48.3920   34.1010   42.8710 C   0  0  0  0  0  0  0  0  0  0  0  0
   49.2830   33.3160   42.1970 C   0  0  0  0  0  0  0  0  0  0  0  0
   48.8610   32.0520   42.3650 N   0  0  0  0  0  0  0  0  0  0  0  0
   47.7430   32.0470   43.1160 C   0  0  0  0  0  0  0  0  0  0  0  0
   44.1841   36.5643   44.0977 H   0  0  0  0  0  0  0  0  0  0  0  0
   45.9408   35.4714   42.6703 H   0  0  0  0  0  0  0  0  0  0  0  0
   44.2811   34.3088   48.1386 H   0  0  0  0  0  0  0  0  0  0  0  0
   45.9047   31.3261   49.6927 H   0  0  0  0  0  0  0  0  0  0  0  0
   45.4737   33.0240   50.0304 H   0  0  0  0  0  0  0  0  0  0  0  0
   48.4412   35.1976   42.9416 H   0  0  0  0  0  0  0  0  0  0  0  0
   50.1657   33.6503   41.6321 H   0  0  0  0  0  0  0  0  0  0  0  0
   47.1764   31.1524   43.4136 H   0  0  0  0  0  0  0  0  0  0  0  0
  1  6  2  0
  2  3  2  0
  2  1  1  0
  3  4  1  0
  4  5  2  0
  5  7  1  0
  6  5  1  0
  7  8  1  0
  8 10  1  0
  9 11  1  0
  9  8  2  0
 12  3  1  0
 13 12  1  0
 14 15  1  0
 14 13  2  0
 15 16  2  0
 16 12  1  0
  1 17  1  0
  2 18  1  0
  7 19  1  0
 10 20  1  0
 10 21  1  0
 13 22  1  0
 14 23  1  0
 16 24  1  0
M  ISO  5  17  14  18  14  22  14  23  14  24  14
M  END
>  <minimizedAffinity>  (1) 
-5.69329786

>  <minimizedRMSD>  (1) 
0.541791201

$$$$
