
     RDKit          3D

 23 24  0  0  0  0  0  0  0  0999 V2000
   44.6550   35.6540   44.3620 C   0  0  0  0  0  0  0  0  0  0  0  0
   44.4990   35.1020   43.0920 C   0  0  0  0  0  0  0  0  0  0  0  0
   44.8060   33.7650   42.9050 C   0  0  0  0  0  0  0  0  0  0  0  0
   45.2500   33.0350   43.9710 N   0  0  0  0  0  0  0  0  0  0  0  0
   45.3880   33.6000   45.1830 C   0  0  0  0  0  0  0  0  0  0  0  0
   45.0980   34.8920   45.3880 N   0  0  0  0  0  0  0  0  0  0  0  0
   45.8420   32.9170   46.3460 N   0  0  0  0  0  0  0  0  0  0  0  0
   45.1870   33.0240   47.5160 C   0  0  0  0  0  0  0  0  0  0  0  0
   45.6770   32.3380   48.6090 C   0  0  0  0  0  0  0  0  0  0  0  0
   46.8180   31.5820   48.4240 C   0  0  0  0  0  0  0  0  0  0  0  0
   47.3490   30.8640   49.5310 N   0  0  0  0  0  0  0  0  0  0  0  0
   47.4490   31.5040   47.2200 N   0  0  0  0  0  0  0  0  0  0  0  0
   46.9560   32.1840   46.1500 C   0  0  0  0  0  0  0  0  0  0  0  0
   47.5460   32.1020   45.0530 O   0  0  0  0  0  0  0  0  0  0  0  0
   44.0220   35.9520   42.0150 C   0  0  0  0  0  0  0  0  0  0  0  0
   43.0580   35.5310   41.3410 O   0  0  0  0  0  0  0  0  0  0  0  0
   44.4167   36.7145   44.5309 H   0  0  0  0  0  0  0  0  0  0  0  0
   44.6943   33.2985   41.9151 H   0  0  0  0  0  0  0  0  0  0  0  0
   44.2820   33.6437   47.5998 H   0  0  0  0  0  0  0  0  0  0  0  0
   45.1787   32.3913   49.5882 H   0  0  0  0  0  0  0  0  0  0  0  0
   48.1991   30.2940   49.4152 H   0  0  0  0  0  0  0  0  0  0  0  0
   46.8835   30.9140   50.4484 H   0  0  0  0  0  0  0  0  0  0  0  0
   44.4895   36.9247   41.8020 H   0  0  0  0  0  0  0  0  0  0  0  0
  1  6  2  0
  2  1  1  0
  3  2  2  0
  3  4  1  0
  4  5  2  0
  5  6  1  0
  5  7  1  0
  7  8  1  0
  8  9  2  0
 10  9  1  0
 10 11  1  0
 12 10  2  0
 13  7  1  0
 13 12  1  0
 14 13  2  0
 15  2  1  0
 16 15  2  0
  1 17  1  0
  3 18  1  0
  8 19  1  0
  9 20  1  0
 11 21  1  0
 11 22  1  0
 15 23  1  0
M  ISO  5  17  14  18  14  19  14  20  14  23   6
M  END
>  <minimizedAffinity>  (1) 
-5.10102892

>  <minimizedRMSD>  (1) 
1.65996706

$$$$
