
     RDKit          3D

 19 19  0  0  0  0  0  0  0  0999 V2000
   44.7690   35.4270   44.6870 C   0  0  0  0  0  0  0  0  0  0  0  0
   45.6540   34.7250   43.8680 C   0  0  0  0  0  0  0  0  0  0  0  0
   46.3180   33.6280   44.4050 C   0  0  0  0  0  0  0  0  0  0  0  0
   46.0730   33.2980   45.6930 N   0  0  0  0  0  0  0  0  0  0  0  0
   45.2210   33.9780   46.4690 C   0  0  0  0  0  0  0  0  0  0  0  0
   44.5620   35.0510   45.9680 N   0  0  0  0  0  0  0  0  0  0  0  0
   44.9950   33.5930   47.8200 N   0  0  0  0  0  0  0  0  0  0  0  0
   45.8970   32.6900   48.4520 C   0  0  0  0  0  0  0  0  0  0  0  0
   47.1450   32.7100   48.0810 N   0  0  0  0  0  0  0  0  0  0  0  0
   45.3810   31.8060   49.4640 N   0  0  0  0  0  0  0  0  0  0  0  0
   47.8850   32.1050   48.4670 H   0  0  0  0  0  0  0  0  0  0  0  0
   45.8300   35.1780   42.5080 C   0  0  0  0  0  0  0  0  0  0  0  0
   44.8350   35.2000   41.7650 O   0  0  0  0  0  0  0  0  0  0  0  0
   44.2324   36.2986   44.2841 H   0  0  0  0  0  0  0  0  0  0  0  0
   47.0246   33.0435   43.7975 H   0  0  0  0  0  0  0  0  0  0  0  0
   44.1853   33.9645   48.3370 H   0  0  0  0  0  0  0  0  0  0  0  0
   46.0104   31.1425   49.9378 H   0  0  0  0  0  0  0  0  0  0  0  0
   44.3824   31.8370   49.7144 H   0  0  0  0  0  0  0  0  0  0  0  0
   46.8173   35.4946   42.1406 H   0  0  0  0  0  0  0  0  0  0  0  0
  1  6  2  0
  2  3  2  0
  2  1  1  0
  3  4  1  0
  4  5  2  0
  5  7  1  0
  6  5  1  0
  7  8  1  0
  8 10  1  0
  9  8  2  0
  9 11  1  0
 12  2  1  0
 13 12  2  0
  1 14  1  0
  3 15  1  0
  7 16  1  0
 10 17  1  0
 10 18  1  0
 12 19  1  0
M  ISO  3  14  14  15  14  19   6
M  END
>  <minimizedAffinity>  (1) 
-4.93482256

>  <minimizedRMSD>  (1) 
2.12760973

$$$$
