
     RDKit          3D

 28 29  0  0  0  0  0  0  0  0999 V2000
   44.7150   35.2710   45.1640 C   0  0  0  0  0  0  0  0  0  0  0  0
   45.4000   35.2760   43.9350 C   0  0  0  0  0  0  0  0  0  0  0  0
   46.3460   34.2970   43.6950 C   0  0  0  0  0  0  0  0  0  0  0  0
   46.5820   33.3650   44.6540 N   0  0  0  0  0  0  0  0  0  0  0  0
   45.9190   33.3710   45.8290 C   0  0  0  0  0  0  0  0  0  0  0  0
   45.0000   34.3130   46.0750 N   0  0  0  0  0  0  0  0  0  0  0  0
   46.1420   32.3740   46.9060 C   0  0  0  0  0  0  0  0  0  0  0  0
   45.9030   30.9710   46.4380 C   0  0  0  0  0  0  0  0  0  0  0  0
   45.2320   30.1160   47.4910 C   0  0  0  0  0  0  0  0  0  0  0  0
   45.7600   30.4320   48.8850 C   0  0  0  0  0  0  0  0  0  0  0  0
   45.5450   31.8840   49.2520 C   0  0  0  0  0  0  0  0  0  0  0  0
   45.1620   32.6940   48.0140 C   0  0  0  0  0  0  0  0  0  0  0  0
   45.0910   36.3070   42.9590 C   0  0  0  0  0  0  0  0  0  0  0  0
   45.2230   37.5050   43.3390 O   0  0  0  0  0  0  0  0  0  0  0  0
   43.9565   36.0374   45.3813 H   0  0  0  0  0  0  0  0  0  0  0  0
   46.8980   34.2734   42.7438 H   0  0  0  0  0  0  0  0  0  0  0  0
   47.1884   32.4324   47.2402 H   0  0  0  0  0  0  0  0  0  0  0  0
   45.2603   31.0013   45.5458 H   0  0  0  0  0  0  0  0  0  0  0  0
   46.8819   30.5211   46.2157 H   0  0  0  0  0  0  0  0  0  0  0  0
   44.1485   30.3046   47.4677 H   0  0  0  0  0  0  0  0  0  0  0  0
   45.4501   29.0608   47.2698 H   0  0  0  0  0  0  0  0  0  0  0  0
   45.2361   29.7987   49.6161 H   0  0  0  0  0  0  0  0  0  0  0  0
   46.8420   30.2340   48.8936 H   0  0  0  0  0  0  0  0  0  0  0  0
   44.7375   31.9544   49.9956 H   0  0  0  0  0  0  0  0  0  0  0  0
   46.4786   32.2891   49.6693 H   0  0  0  0  0  0  0  0  0  0  0  0
   45.2033   33.7683   48.2466 H   0  0  0  0  0  0  0  0  0  0  0  0
   44.1402   32.4372   47.6980 H   0  0  0  0  0  0  0  0  0  0  0  0
   44.7589   36.0573   41.9405 H   0  0  0  0  0  0  0  0  0  0  0  0
  1  6  2  0
  2  1  1  0
  3  2  2  0
  3  4  1  0
  4  5  2  0
  5  6  1  0
  5  7  1  0
  7 12  1  0
  8  7  1  0
  8  9  1  0
  9 10  1  0
 10 11  1  0
 12 11  1  0
 13 14  2  0
 13  2  1  0
  1 15  1  0
  3 16  1  0
  7 17  1  0
  8 18  1  0
  8 19  1  0
  9 20  1  0
  9 21  1  0
 10 22  1  0
 10 23  1  0
 11 24  1  0
 11 25  1  0
 12 26  1  0
 12 27  1  0
 13 28  1  0
M  ISO  8  15  14  16  14  17  13  18  13  19  13  20  13  21  13  22  13
M  ISO  6  23  13  24  13  25  13  26  13  27  13  28   6
M  END
>  <minimizedAffinity>  (1) 
-4.71893549

>  <minimizedRMSD>  (1) 
1.34711587

$$$$
