
     RDKit          3D

 20 21  0  0  0  0  0  0  0  0999 V2000
   44.6000   35.3770   45.2380 C   0  0  0  0  0  0  0  0  0  0  0  0
   45.2760   35.2370   44.0240 C   0  0  0  0  0  0  0  0  0  0  0  0
   46.1950   34.1890   43.9010 C   0  0  0  0  0  0  0  0  0  0  0  0
   46.3860   33.3590   44.9700 N   0  0  0  0  0  0  0  0  0  0  0  0
   45.7170   33.5300   46.1150 C   0  0  0  0  0  0  0  0  0  0  0  0
   44.8240   34.5280   46.2680 N   0  0  0  0  0  0  0  0  0  0  0  0
   45.9520   32.6190   47.2320 C   0  0  0  0  0  0  0  0  0  0  0  0
   47.2300   32.2190   47.5640 C   0  0  0  0  0  0  0  0  0  0  0  0
   47.4030   31.3580   48.6260 C   0  0  0  0  0  0  0  0  0  0  0  0
   46.3500   30.9000   49.3450 N   0  0  0  0  0  0  0  0  0  0  0  0
   45.1150   31.3080   48.9970 C   0  0  0  0  0  0  0  0  0  0  0  0
   44.9230   32.1500   47.9620 N   0  0  0  0  0  0  0  0  0  0  0  0
   45.0140   36.1590   42.9460 C   0  0  0  0  0  0  0  0  0  0  0  0
   45.1760   37.3820   43.2060 O   0  0  0  0  0  0  0  0  0  0  0  0
   43.8719   36.1925   45.3594 H   0  0  0  0  0  0  0  0  0  0  0  0
   46.7515   34.0365   42.9645 H   0  0  0  0  0  0  0  0  0  0  0  0
   48.0961   32.5812   46.9907 H   0  0  0  0  0  0  0  0  0  0  0  0
   48.4193   31.0352   48.8961 H   0  0  0  0  0  0  0  0  0  0  0  0
   44.2466   30.9475   49.5679 H   0  0  0  0  0  0  0  0  0  0  0  0
   44.6909   35.8143   41.9526 H   0  0  0  0  0  0  0  0  0  0  0  0
  1  6  2  0
  2  1  1  0
  3  2  2  0
  3  4  1  0
  4  5  2  0
  5  6  1  0
  5  7  1  0
  7  8  2  0
  7 12  1  0
  8  9  1  0
  9 10  2  0
 11 10  1  0
 12 11  2  0
 13 14  2  0
 13  2  1  0
  1 15  1  0
  3 16  1  0
  8 17  1  0
  9 18  1  0
 11 19  1  0
 13 20  1  0
M  ISO  6  15  14  16  14  17  14  18  14  19  14  20   6
M  END
>  <minimizedAffinity>  (1) 
-4.56637907

>  <minimizedRMSD>  (1) 
1.03376663

$$$$
