
     RDKit          3D

 25 26  0  0  0  0  0  0  0  0999 V2000
   44.6940   35.2200   45.2590 C   0  0  0  0  0  0  0  0  0  0  0  0
   45.3710   35.0120   44.0600 C   0  0  0  0  0  0  0  0  0  0  0  0
   46.2780   33.9710   43.9880 C   0  0  0  0  0  0  0  0  0  0  0  0
   46.4750   33.1910   45.0880 N   0  0  0  0  0  0  0  0  0  0  0  0
   45.8100   33.4090   46.2440 C   0  0  0  0  0  0  0  0  0  0  0  0
   44.9260   34.4140   46.3310 N   0  0  0  0  0  0  0  0  0  0  0  0
   46.0420   32.5740   47.3730 N   0  0  0  0  0  0  0  0  0  0  0  0
   47.3660   32.4750   47.9560 C   0  0  0  0  0  0  0  0  0  0  0  0
   47.5330   31.0140   48.3730 C   0  0  0  0  0  0  0  0  0  0  0  0
   46.6130   30.6540   49.3370 O   0  0  0  0  0  0  0  0  0  0  0  0
   45.4740   31.4380   49.3740 C   0  0  0  0  0  0  0  0  0  0  0  0
   44.9920   31.8080   47.9650 C   0  0  0  0  0  0  0  0  0  0  0  0
   45.0940   35.8830   42.9550 C   0  0  0  0  0  0  0  0  0  0  0  0
   45.1550   37.1110   43.1340 O   0  0  0  0  0  0  0  0  0  0  0  0
   43.9668   36.0413   45.3403 H   0  0  0  0  0  0  0  0  0  0  0  0
   46.8317   33.7755   43.0578 H   0  0  0  0  0  0  0  0  0  0  0  0
   48.1314   32.7514   47.2159 H   0  0  0  0  0  0  0  0  0  0  0  0
   47.4814   33.1549   48.8130 H   0  0  0  0  0  0  0  0  0  0  0  0
   47.3950   30.3725   47.4902 H   0  0  0  0  0  0  0  0  0  0  0  0
   48.5412   30.8889   48.7948 H   0  0  0  0  0  0  0  0  0  0  0  0
   44.6761   30.8830   49.8891 H   0  0  0  0  0  0  0  0  0  0  0  0
   45.7162   32.3685   49.9083 H   0  0  0  0  0  0  0  0  0  0  0  0
   44.0699   32.4051   48.0220 H   0  0  0  0  0  0  0  0  0  0  0  0
   44.7660   30.9107   47.3702 H   0  0  0  0  0  0  0  0  0  0  0  0
   44.8327   35.4722   41.9686 H   0  0  0  0  0  0  0  0  0  0  0  0
  1  6  2  0
  2  1  1  0
  3  2  2  0
  3  4  1  0
  4  5  2  0
  5  6  1  0
  5  7  1  0
  7  8  1  0
  7 12  1  0
  8  9  1  0
  9 10  1  0
 10 11  1  0
 12 11  1  0
 13 14  2  0
 13  2  1  0
  1 15  1  0
  3 16  1  0
  8 17  1  0
  8 18  1  0
  9 19  1  0
  9 20  1  0
 11 21  1  0
 11 22  1  0
 12 23  1  0
 12 24  1  0
 13 25  1  0
M  ISO  8  15  14  16  14  17  13  18  13  19  13  20  13  21  13  22  13
M  ISO  3  23  13  24  13  25   6
M  END
>  <minimizedAffinity>  (1) 
-4.62361383

>  <minimizedRMSD>  (1) 
0.939155757

$$$$
