
     RDKit          3D

 21 22  0  0  0  0  0  0  0  0999 V2000
   44.6590   35.3080   45.1490 C   0  0  0  0  0  0  0  0  0  0  0  0
   45.3480   35.2490   43.9330 C   0  0  0  0  0  0  0  0  0  0  0  0
   46.3280   34.2680   43.7770 C   0  0  0  0  0  0  0  0  0  0  0  0
   46.5650   33.4210   44.8060 N   0  0  0  0  0  0  0  0  0  0  0  0
   45.8950   33.4910   45.9630 C   0  0  0  0  0  0  0  0  0  0  0  0
   44.9460   34.4290   46.1390 N   0  0  0  0  0  0  0  0  0  0  0  0
   46.1520   32.5750   47.0760 C   0  0  0  0  0  0  0  0  0  0  0  0
   45.2040   32.4400   48.0920 C   0  0  0  0  0  0  0  0  0  0  0  0
   45.4450   31.5770   49.1410 C   0  0  0  0  0  0  0  0  0  0  0  0
   46.6170   30.8390   49.2010 C   0  0  0  0  0  0  0  0  0  0  0  0
   47.5510   30.9910   48.1710 C   0  0  0  0  0  0  0  0  0  0  0  0
   47.2730   31.8450   47.1690 N   0  0  0  0  0  0  0  0  0  0  0  0
   45.0270   36.1970   42.8890 C   0  0  0  0  0  0  0  0  0  0  0  0
   45.1520   37.4090   43.1670 O   0  0  0  0  0  0  0  0  0  0  0  0
   43.8814   36.0709   45.3018 H   0  0  0  0  0  0  0  0  0  0  0  0
   46.8955   34.1848   42.8384 H   0  0  0  0  0  0  0  0  0  0  0  0
   44.2694   33.0190   48.0563 H   0  0  0  0  0  0  0  0  0  0  0  0
   44.6970   31.4731   49.9408 H   0  0  0  0  0  0  0  0  0  0  0  0
   46.8077   30.1510   50.0378 H   0  0  0  0  0  0  0  0  0  0  0  0
   48.4936   30.4240   48.1799 H   0  0  0  0  0  0  0  0  0  0  0  0
   44.6884   35.8665   41.8960 H   0  0  0  0  0  0  0  0  0  0  0  0
  1  6  2  0
  2  1  1  0
  3  2  2  0
  3  4  1  0
  4  5  2  0
  5  6  1  0
  5  7  1  0
  7 12  1  0
  7  8  2  0
  8  9  1  0
  9 10  2  0
 11 10  1  0
 12 11  2  0
 13 14  2  0
 13  2  1  0
  1 15  1  0
  3 16  1  0
  8 17  1  0
  9 18  1  0
 10 19  1  0
 11 20  1  0
 13 21  1  0
M  ISO  7  15  14  16  14  17  14  18  14  19  14  20  14  21   6
M  END
>  <minimizedAffinity>  (1) 
-4.64997673

>  <minimizedRMSD>  (1) 
0.709030807

$$$$
