
     RDKit          3D

 19 20  0  0  0  0  0  0  0  0999 V2000
   44.8960   34.9560   45.1690 C   0  0  0  0  0  0  0  0  0  0  0  0
   45.6410   34.8030   44.0000 C   0  0  0  0  0  0  0  0  0  0  0  0
   46.6080   33.8150   43.9660 C   0  0  0  0  0  0  0  0  0  0  0  0
   46.7890   33.0400   45.0720 N   0  0  0  0  0  0  0  0  0  0  0  0
   46.0640   33.1970   46.1940 C   0  0  0  0  0  0  0  0  0  0  0  0
   45.1120   34.1580   46.2460 N   0  0  0  0  0  0  0  0  0  0  0  0
   46.2510   32.3710   47.3820 C   0  0  0  0  0  0  0  0  0  0  0  0
   45.1590   32.1640   48.2300 C   0  0  0  0  0  0  0  0  0  0  0  0
   45.5880   31.3580   49.2720 C   0  0  0  0  0  0  0  0  0  0  0  0
   46.9390   31.1150   48.9930 C   0  0  0  0  0  0  0  0  0  0  0  0
   47.2860   31.7190   47.8890 O   0  0  0  0  0  0  0  0  0  0  0  0
   45.3600   35.6800   42.8970 C   0  0  0  0  0  0  0  0  0  0  0  0
   45.1720   36.8840   43.1380 O   0  0  0  0  0  0  0  0  0  0  0  0
   44.1213   35.7353   45.2192 H   0  0  0  0  0  0  0  0  0  0  0  0
   47.2185   33.6580   43.0646 H   0  0  0  0  0  0  0  0  0  0  0  0
   44.1446   32.5673   48.0947 H   0  0  0  0  0  0  0  0  0  0  0  0
   45.0000   30.9914   50.1263 H   0  0  0  0  0  0  0  0  0  0  0  0
   47.6102   30.5038   49.6142 H   0  0  0  0  0  0  0  0  0  0  0  0
   45.3127   35.2957   41.8674 H   0  0  0  0  0  0  0  0  0  0  0  0
  1  6  2  0
  2  1  1  0
  3  2  2  0
  3  4  1  0
  4  5  2  0
  5  6  1  0
  5  7  1  0
  7 11  1  0
  7  8  2  0
  8  9  1  0
 10  9  2  0
 11 10  1  0
 12 13  2  0
 12  2  1  0
  1 14  1  0
  3 15  1  0
  8 16  1  0
  9 17  1  0
 10 18  1  0
 12 19  1  0
M  ISO  6  14  14  15  14  16  14  17  14  18  14  19   6
M  END
>  <minimizedAffinity>  (1) 
-4.4588995

>  <minimizedRMSD>  (1) 
0.77736938

$$$$
