
     RDKit          3D

 18 19  0  0  0  0  0  0  0  0999 V2000
   44.6470   35.3060   45.1640 C   0  0  0  0  0  0  0  0  0  0  0  0
   45.3570   35.2050   43.9480 C   0  0  0  0  0  0  0  0  0  0  0  0
   46.3200   34.2230   43.8260 C   0  0  0  0  0  0  0  0  0  0  0  0
   46.5520   33.3930   44.8710 N   0  0  0  0  0  0  0  0  0  0  0  0
   45.8560   33.5120   46.0300 C   0  0  0  0  0  0  0  0  0  0  0  0
   44.9140   34.4550   46.1780 N   0  0  0  0  0  0  0  0  0  0  0  0
   46.2390   32.5220   47.0660 C   0  0  0  0  0  0  0  0  0  0  0  0
   47.3010   31.5630   47.0570 C   0  0  0  0  0  0  0  0  0  0  0  0
   47.0170   30.7800   48.7380 S   0  0  0  0  0  0  0  0  0  0  0  0
   45.6170   31.8240   49.1010 C   0  0  0  0  0  0  0  0  0  0  0  0
   45.4250   32.6040   48.1240 N   0  0  0  0  0  0  0  0  0  0  0  0
   45.0250   36.1480   42.8960 C   0  0  0  0  0  0  0  0  0  0  0  0
   45.1520   37.3740   43.1670 O   0  0  0  0  0  0  0  0  0  0  0  0
   43.8746   36.0796   45.2858 H   0  0  0  0  0  0  0  0  0  0  0  0
   46.8914   34.1161   42.8922 H   0  0  0  0  0  0  0  0  0  0  0  0
   48.0601   31.3482   46.2904 H   0  0  0  0  0  0  0  0  0  0  0  0
   45.0186   31.7943   50.0235 H   0  0  0  0  0  0  0  0  0  0  0  0
   44.6787   35.8098   41.9082 H   0  0  0  0  0  0  0  0  0  0  0  0
  1  6  2  0
  2  1  1  0
  3  2  2  0
  3  4  1  0
  4  5  2  0
  5  6  1  0
  5  7  1  0
  7 11  1  0
  8  7  2  0
  8  9  1  0
  9 10  1  0
 11 10  2  0
 12 13  2  0
 12  2  1  0
  1 14  1  0
  3 15  1  0
  8 16  1  0
 10 17  1  0
 12 18  1  0
M  ISO  5  14  14  15  14  16  14  17  14  18   6
M  END
>  <minimizedAffinity>  (1) 
-4.1438303

>  <minimizedRMSD>  (1) 
0.747356951

$$$$
