
     RDKit          3D

 13 13  0  0  0  0  0  0  0  0999 V2000
   44.8250   34.9810   45.2340 C   0  0  0  0  0  0  0  0  0  0  0  0
   45.4310   35.0190   43.9700 C   0  0  0  0  0  0  0  0  0  0  0  0
   46.4820   34.1340   43.7130 C   0  0  0  0  0  0  0  0  0  0  0  0
   46.8670   33.2820   44.6910 N   0  0  0  0  0  0  0  0  0  0  0  0
   46.2620   33.2730   45.8960 C   0  0  0  0  0  0  0  0  0  0  0  0
   45.2510   34.1070   46.1810 N   0  0  0  0  0  0  0  0  0  0  0  0
   44.9330   35.9720   43.0070 C   0  0  0  0  0  0  0  0  0  0  0  0
   45.1620   37.1810   43.2240 O   0  0  0  0  0  0  0  0  0  0  0  0
   46.8840   32.0870   47.0920 S   0  0  0  0  0  0  0  0  0  0  0  0
   43.9954   35.6669   45.4605 H   0  0  0  0  0  0  0  0  0  0  0  0
   46.9860   34.1303   42.7352 H   0  0  0  0  0  0  0  0  0  0  0  0
   44.3740   35.6467   42.1172 H   0  0  0  0  0  0  0  0  0  0  0  0
   46.6426   32.5473   48.3596 H   0  0  0  0  0  0  0  0  0  0  0  0
  1  6  2  0
  2  1  1  0
  3  2  2  0
  3  4  1  0
  4  5  2  0
  5  6  1  0
  5  9  1  0
  7  8  2  0
  7  2  1  0
  1 10  1  0
  3 11  1  0
  7 12  1  0
  9 13  1  0
M  ISO  4  10  14  11  14  12   6  13  11
M  END
>  <minimizedAffinity>  (1) 
-3.11642408

>  <minimizedRMSD>  (1) 
0.103516981

$$$$
