
     RDKit          3D

 18 18  0  0  0  0  0  0  0  0999 V2000
   44.9320   34.9080   45.1440 C   0  0  0  0  0  0  0  0  0  0  0  0
   45.6170   34.8660   43.9310 C   0  0  0  0  0  0  0  0  0  0  0  0
   46.6400   33.9420   43.8040 C   0  0  0  0  0  0  0  0  0  0  0  0
   46.9330   33.1210   44.8510 N   0  0  0  0  0  0  0  0  0  0  0  0
   46.2570   33.1820   46.0070 C   0  0  0  0  0  0  0  0  0  0  0  0
   45.2610   34.0730   46.1520 N   0  0  0  0  0  0  0  0  0  0  0  0
   45.2410   35.7710   42.8790 C   0  0  0  0  0  0  0  0  0  0  0  0
   45.1510   36.9810   43.1500 O   0  0  0  0  0  0  0  0  0  0  0  0
   46.6050   32.2700   47.1300 C   0  0  0  0  0  0  0  0  0  0  0  0
   45.5600   32.4090   48.2350 C   0  0  0  0  0  0  0  0  0  0  0  0
   44.1137   35.6301   45.2814 H   0  0  0  0  0  0  0  0  0  0  0  0
   47.2110   33.8713   42.8665 H   0  0  0  0  0  0  0  0  0  0  0  0
   45.0385   35.4030   41.8624 H   0  0  0  0  0  0  0  0  0  0  0  0
   46.6215   31.2313   46.7683 H   0  0  0  0  0  0  0  0  0  0  0  0
   47.5970   32.5340   47.5254 H   0  0  0  0  0  0  0  0  0  0  0  0
   46.0529   32.3434   49.2162 H   0  0  0  0  0  0  0  0  0  0  0  0
   45.0556   33.3821   48.1424 H   0  0  0  0  0  0  0  0  0  0  0  0
   44.8188   31.6015   48.1424 H   0  0  0  0  0  0  0  0  0  0  0  0
  1  6  2  0
  2  1  1  0
  3  2  2  0
  3  4  1  0
  4  5  2  0
  5  6  1  0
  5  9  1  0
  7  8  2  0
  7  2  1  0
  9 10  1  0
  1 11  1  0
  3 12  1  0
  7 13  1  0
  9 14  1  0
  9 15  1  0
 10 16  1  0
 10 17  1  0
 10 18  1  0
M  ISO  8  11  14  12  14  13   6  14   8  15   8  16   8  17   8  18   8
M  END
>  <minimizedAffinity>  (1) 
-3.41846395

>  <minimizedRMSD>  (1) 
0.534914136

$$$$
