
     RDKit          3D

 32 34  0  0  0  0  0  0  0  0999 V2000
   45.0370   34.7760   45.1880 C   0  0  0  0  0  0  0  0  0  0  0  0
   45.9160   34.5300   44.1210 C   0  0  0  0  0  0  0  0  0  0  0  0
   46.8460   33.5000   44.2560 C   0  0  0  0  0  0  0  0  0  0  0  0
   46.8720   32.7710   45.4100 N   0  0  0  0  0  0  0  0  0  0  0  0
   46.0200   33.0310   46.4090 C   0  0  0  0  0  0  0  0  0  0  0  0
   45.1130   34.0280   46.2890 N   0  0  0  0  0  0  0  0  0  0  0  0
   46.1560   32.2050   47.5590 N   0  0  0  0  0  0  0  0  0  0  0  0
   47.1260   31.4630   48.0570 N   0  0  0  0  0  0  0  0  0  0  0  0
   46.7250   30.8760   49.2020 C   0  0  0  0  0  0  0  0  0  0  0  0
   45.4160   31.2830   49.4270 C   0  0  0  0  0  0  0  0  0  0  0  0
   45.1060   32.1210   48.3610 C   0  0  0  0  0  0  0  0  0  0  0  0
   45.8980   35.3010   42.9080 C   0  0  0  0  0  0  0  0  0  0  0  0
   45.1860   36.3150   42.9360 O   0  0  0  0  0  0  0  0  0  0  0  0
   47.8080   34.0450   39.3810 C   0  0  0  0  0  0  0  0  0  0  0  0
   46.4960   33.6790   39.6710 C   0  0  0  0  0  0  0  0  0  0  0  0
   45.9210   34.1310   40.8620 C   0  0  0  0  0  0  0  0  0  0  0  0
   46.6590   34.9280   41.7250 C   0  0  0  0  0  0  0  0  0  0  0  0
   47.9520   35.2930   41.4490 C   0  0  0  0  0  0  0  0  0  0  0  0
   48.5050   34.8390   40.2680 C   0  0  0  0  0  0  0  0  0  0  0  0
   48.5370   33.4850   37.8910 S   0  0  0  0  0  0  0  0  0  0  0  0
   47.4810   33.2410   36.8490 O   0  0  0  0  0  0  0  0  0  0  0  0
   49.2340   32.1530   38.0960 O   0  0  0  0  0  0  0  0  0  0  0  0
   44.2905   35.5807   45.1159 H   0  0  0  0  0  0  0  0  0  0  0  0
   47.5511   33.2772   43.4416 H   0  0  0  0  0  0  0  0  0  0  0  0
   47.3203   30.2033   49.8369 H   0  0  0  0  0  0  0  0  0  0  0  0
   44.7644   31.0027   50.2678 H   0  0  0  0  0  0  0  0  0  0  0  0
   44.1436   32.6316   48.2089 H   0  0  0  0  0  0  0  0  0  0  0  0
   45.9235   33.0467   38.9764 H   0  0  0  0  0  0  0  0  0  0  0  0
   44.8864   33.8556   41.1143 H   0  0  0  0  0  0  0  0  0  0  0  0
   48.5271   35.9239   42.1427 H   0  0  0  0  0  0  0  0  0  0  0  0
   49.5402   35.1210   40.0254 H   0  0  0  0  0  0  0  0  0  0  0  0
   49.4230   34.4529   37.4972 H   0  0  0  0  0  0  0  0  0  0  0  0
  1  6  2  0
  2  3  2  0
  2  1  1  0
  3  4  1  0
  4  5  2  0
  5  7  1  0
  6  5  1  0
  7  8  1  0
  7 11  1  0
  8  9  2  0
  9 10  1  0
 11 10  2  0
 12 13  2  0
 12  2  1  0
 14 15  2  0
 14 19  1  0
 15 16  1  0
 16 17  2  0
 17 12  1  0
 18 17  1  0
 19 18  2  0
 20 22  2  0
 20 14  1  0
 21 20  2  0
  1 23  1  0
  3 24  1  0
  9 25  1  0
 10 26  1  0
 11 27  1  0
 15 28  1  0
 16 29  1  0
 18 30  1  0
 19 31  1  0
 20 32  1  0
M  ISO  8  23  14  24  14  25  14  26  14  27  14  28  14  29  14  30  14
M  ISO  2  31  14  32  11
M  END
>  <minimizedAffinity>  (1) 
-6.34467936

>  <minimizedRMSD>  (1) 
1.54286242

$$$$
