
     RDKit          3D

 42 44  0  0  1  0  0  0  0  0999 V2000
   48.2250   34.6660   41.3480 N   0  0  0  0  0  0  0  0  0  0  0  0
   49.4430   34.9930   42.0030 C   0  0  0  0  0  0  0  0  0  0  0  0
   50.2860   33.8400   42.4150 C   0  0  0  0  0  0  0  0  0  0  0  0
   49.3940   32.8810   42.9410 O   0  0  0  0  0  0  0  0  0  0  0  0
   48.8450   32.3240   41.7630 C   0  0  0  0  0  0  0  0  0  0  0  0
   48.0710   33.3080   40.9460 C   0  0  2  0  0  0  0  0  0  0  0  0
   48.4460   33.2180   39.5260 C   0  0  0  0  0  0  0  0  0  0  0  0
   48.0030   34.3070   38.7650 C   0  0  0  0  0  0  0  0  0  0  0  0
   48.2450   34.4020   37.3910 C   0  0  0  0  0  0  0  0  0  0  0  0
   48.9360   33.4170   36.7350 C   0  0  0  0  0  0  0  0  0  0  0  0
   49.3710   32.3480   37.4770 C   0  0  0  0  0  0  0  0  0  0  0  0
   49.1220   32.2740   38.8250 C   0  0  0  0  0  0  0  0  0  0  0  0
   47.1360   35.2930   41.9780 C   0  0  0  0  0  0  0  0  0  0  0  0
   45.8750   34.4920   42.1680 C   0  0  1  0  0  0  0  0  0  0  0  0
   44.7850   35.4340   44.2730 C   0  0  0  0  0  0  0  0  0  0  0  0
   45.5750   34.4390   43.6120 C   0  0  0  0  0  0  0  0  0  0  0  0
   46.0640   33.4000   44.4000 C   0  0  0  0  0  0  0  0  0  0  0  0
   45.7570   33.4060   45.7230 N   0  0  0  0  0  0  0  0  0  0  0  0
   45.0150   34.3490   46.3190 C   0  0  0  0  0  0  0  0  0  0  0  0
   44.5240   35.3760   45.5780 N   0  0  0  0  0  0  0  0  0  0  0  0
   44.7260   35.0250   41.3970 C   0  0  0  0  0  0  0  0  0  0  0  0
   50.0366   35.6178   41.3194 H   0  0  0  0  0  0  0  0  0  0  0  0
   49.1539   35.4999   42.9355 H   0  0  0  0  0  0  0  0  0  0  0  0
   50.8230   33.4287   41.5476 H   0  0  0  0  0  0  0  0  0  0  0  0
   51.0445   34.1364   43.1545 H   0  0  0  0  0  0  0  0  0  0  0  0
   49.6672   31.9300   41.1476 H   0  0  0  0  0  0  0  0  0  0  0  0
   48.1431   31.5358   42.0729 H   0  0  0  0  0  0  0  0  0  0  0  0
   47.0195   33.0288   41.1088 H   0  0  0  0  0  0  0  0  0  0  0  0
   47.4466   35.1139   39.2643 H   0  0  0  0  0  0  0  0  0  0  0  0
   47.8775   35.2751   36.8318 H   0  0  0  0  0  0  0  0  0  0  0  0
   49.1343   33.4809   35.6549 H   0  0  0  0  0  0  0  0  0  0  0  0
   49.9280   31.5376   36.9840 H   0  0  0  0  0  0  0  0  0  0  0  0
   49.4939   31.3942   39.3706 H   0  0  0  0  0  0  0  0  0  0  0  0
   47.4740   35.6130   42.9746 H   0  0  0  0  0  0  0  0  0  0  0  0
   46.8479   36.1018   41.2904 H   0  0  0  0  0  0  0  0  0  0  0  0
   46.0418   33.4785   41.7743 H   0  0  0  0  0  0  0  0  0  0  0  0
   44.3815   36.2716   43.6852 H   0  0  0  0  0  0  0  0  0  0  0  0
   46.6798   32.5993   43.9644 H   0  0  0  0  0  0  0  0  0  0  0  0
   44.8056   34.2921   47.3974 H   0  0  0  0  0  0  0  0  0  0  0  0
   43.9527   35.3837   42.0922 H   0  0  0  0  0  0  0  0  0  0  0  0
   45.0644   35.8581   40.7634 H   0  0  0  0  0  0  0  0  0  0  0  0
   44.3085   34.2286   40.7634 H   0  0  0  0  0  0  0  0  0  0  0  0
  1 13  1  0
  1  2  1  0
  2  3  1  0
  3  4  1  0
  5  4  1  0
  6  1  1  0
  6  5  1  0
  7  6  1  0
  8  7  2  0
  9  8  1  0
 10  9  2  0
 10 11  1  0
 11 12  2  0
 12  7  1  0
 13 14  1  0
 14 16  1  0
 15 20  2  0
 16 15  1  0
 16 17  2  0
 17 18  1  0
 18 19  2  0
 20 19  1  0
 21 14  1  0
  2 22  1  0
  2 23  1  0
  3 24  1  0
  3 25  1  0
  5 26  1  0
  5 27  1  0
  6 28  1  6
  8 29  1  0
  9 30  1  0
 10 31  1  0
 11 32  1  0
 12 33  1  0
 13 34  1  0
 13 35  1  0
 14 36  1  6
 15 37  1  0
 17 38  1  0
 19 39  1  0
 21 40  1  0
 21 41  1  0
 21 42  1  0
M  ISO  8  22  13  23  13  24  13  25  13  26  13  27  13  28  13  29  14
M  ISO  8  30  14  31  14  32  14  33  14  34   8  35   8  36   8  37  14
M  ISO  5  38  14  39  14  40   8  41   8  42   8
M  END
>  <minimizedAffinity>  (1) 
-5.24212408

>  <minimizedRMSD>  (1) 
1.00179827

$$$$
