
     RDKit          3D

 33 35  0  0  0  0  0  0  0  0999 V2000
   44.7400   34.9320   45.3430 C   0  0  0  0  0  0  0  0  0  0  0  0
   45.4420   34.7890   44.1570 C   0  0  0  0  0  0  0  0  0  0  0  0
   46.4500   33.8560   44.1090 C   0  0  0  0  0  0  0  0  0  0  0  0
   46.7050   33.1220   45.2290 N   0  0  0  0  0  0  0  0  0  0  0  0
   46.0190   33.2690   46.3680 C   0  0  0  0  0  0  0  0  0  0  0  0
   45.0250   34.1820   46.4350 N   0  0  0  0  0  0  0  0  0  0  0  0
   46.4280   32.4100   47.4350 N   0  0  0  0  0  0  0  0  0  0  0  0
   47.5450   31.7700   47.7450 N   0  0  0  0  0  0  0  0  0  0  0  0
   47.3690   31.0850   48.8930 C   0  0  0  0  0  0  0  0  0  0  0  0
   46.0740   31.3230   49.3050 C   0  0  0  0  0  0  0  0  0  0  0  0
   45.4790   32.1790   48.3540 C   0  0  0  0  0  0  0  0  0  0  0  0
   45.0710   35.6240   43.0550 C   0  0  0  0  0  0  0  0  0  0  0  0
   45.3010   36.8350   43.1030 O   0  0  0  0  0  0  0  0  0  0  0  0
   44.4460   35.2730   41.8400 N   0  0  0  0  0  0  0  0  0  0  0  0
   45.1290   34.3190   40.9850 C   0  0  0  0  0  0  0  0  0  0  0  0
   44.2540   33.0620   41.0600 C   0  0  0  0  0  0  0  0  0  0  0  0
   43.0100   33.4030   40.3970 N   0  0  0  0  0  0  0  0  0  0  0  0
   42.3340   34.4740   41.0840 C   0  0  0  0  0  0  0  0  0  0  0  0
   43.1880   35.6980   41.2440 C   0  0  0  0  0  0  0  0  0  0  0  0
   43.9299   35.6740   45.3996 H   0  0  0  0  0  0  0  0  0  0  0  0
   47.0360   33.7054   43.1903 H   0  0  0  0  0  0  0  0  0  0  0  0
   48.1145   30.4572   49.4030 H   0  0  0  0  0  0  0  0  0  0  0  0
   45.5937   30.9197   50.2086 H   0  0  0  0  0  0  0  0  0  0  0  0
   44.4524   32.5739   48.3643 H   0  0  0  0  0  0  0  0  0  0  0  0
   46.1424   34.1131   41.3601 H   0  0  0  0  0  0  0  0  0  0  0  0
   45.2550   34.6867   39.9560 H   0  0  0  0  0  0  0  0  0  0  0  0
   44.7446   32.2231   40.5447 H   0  0  0  0  0  0  0  0  0  0  0  0
   44.0842   32.7498   42.1010 H   0  0  0  0  0  0  0  0  0  0  0  0
   43.2131   33.6979   39.4312 H   0  0  0  0  0  0  0  0  0  0  0  0
   41.4351   34.7459   40.5112 H   0  0  0  0  0  0  0  0  0  0  0  0
   42.0839   34.1126   42.0924 H   0  0  0  0  0  0  0  0  0  0  0  0
   43.3731   36.1588   40.2625 H   0  0  0  0  0  0  0  0  0  0  0  0
   42.6870   36.4419   41.8808 H   0  0  0  0  0  0  0  0  0  0  0  0
  1  6  2  0
  2  1  1  0
  3  2  2  0
  3  4  1  0
  4  5  2  0
  5  6  1  0
  5  7  1  0
  7  8  1  0
  7 11  1  0
  8  9  2  0
  9 10  1  0
 11 10  2  0
 12 13  2  0
 12  2  1  0
 14 12  1  0
 15 16  1  0
 15 14  1  0
 17 16  1  0
 17 18  1  0
 18 19  1  0
 19 14  1  0
  1 20  1  0
  3 21  1  0
  9 22  1  0
 10 23  1  0
 11 24  1  0
 15 25  1  0
 15 26  1  0
 16 27  1  0
 16 28  1  0
 17 29  1  0
 18 30  1  0
 18 31  1  0
 19 32  1  0
 19 33  1  0
M  ISO  8  20  14  21  14  22  14  23  14  24  14  25  13  26  13  27  13
M  ISO  6  28  13  29   5  30  13  31  13  32  13  33  13
M  END
>  <minimizedAffinity>  (1) 
-5.762321

>  <minimizedRMSD>  (1) 
0.892846346

$$$$
