
     RDKit          3D

 28 30  0  0  0  0  0  0  0  0999 V2000
   45.1490   34.6910   44.9930 C   0  0  0  0  0  0  0  0  0  0  0  0
   46.0360   34.4170   43.9640 C   0  0  0  0  0  0  0  0  0  0  0  0
   46.9700   33.4170   44.1540 C   0  0  0  0  0  0  0  0  0  0  0  0
   46.9740   32.7470   45.3440 N   0  0  0  0  0  0  0  0  0  0  0  0
   46.1180   33.0190   46.3220 C   0  0  0  0  0  0  0  0  0  0  0  0
   45.1850   34.0060   46.1550 N   0  0  0  0  0  0  0  0  0  0  0  0
   46.2440   32.2370   47.5020 N   0  0  0  0  0  0  0  0  0  0  0  0
   47.2220   31.5350   48.0460 N   0  0  0  0  0  0  0  0  0  0  0  0
   46.8230   30.9660   49.1960 C   0  0  0  0  0  0  0  0  0  0  0  0
   45.4960   31.3490   49.3730 C   0  0  0  0  0  0  0  0  0  0  0  0
   45.1690   32.1540   48.2770 C   0  0  0  0  0  0  0  0  0  0  0  0
   45.9540   35.1760   42.7530 C   0  0  0  0  0  0  0  0  0  0  0  0
   45.4080   36.2960   42.7900 O   0  0  0  0  0  0  0  0  0  0  0  0
   46.4950   34.6600   41.4860 C   0  0  0  0  0  0  0  0  0  0  0  0
   47.7590   34.9920   41.0710 C   0  0  0  0  0  0  0  0  0  0  0  0
   48.2690   34.5090   39.8820 C   0  0  0  0  0  0  0  0  0  0  0  0
   47.4510   33.6700   39.1190 C   0  0  0  0  0  0  0  0  0  0  0  0
   46.1690   33.3480   39.5620 C   0  0  0  0  0  0  0  0  0  0  0  0
   45.7050   33.8420   40.7350 N   0  0  0  0  0  0  0  0  0  0  0  0
   44.3990   35.4845   44.8595 H   0  0  0  0  0  0  0  0  0  0  0  0
   47.6940   33.1661   43.3648 H   0  0  0  0  0  0  0  0  0  0  0  0
   47.4224   30.3278   49.8619 H   0  0  0  0  0  0  0  0  0  0  0  0
   44.8361   31.0732   50.2087 H   0  0  0  0  0  0  0  0  0  0  0  0
   44.1962   32.6324   48.0906 H   0  0  0  0  0  0  0  0  0  0  0  0
   48.3770   35.6540   41.6954 H   0  0  0  0  0  0  0  0  0  0  0  0
   49.2825   34.7748   39.5471 H   0  0  0  0  0  0  0  0  0  0  0  0
   47.8202   33.2628   38.1662 H   0  0  0  0  0  0  0  0  0  0  0  0
   45.5304   32.6889   38.9555 H   0  0  0  0  0  0  0  0  0  0  0  0
  1  6  2  0
  2  3  2  0
  2  1  1  0
  3  4  1  0
  4  5  2  0
  5  7  1  0
  6  5  1  0
  7  8  1  0
  7 11  1  0
  8  9  2  0
  9 10  1  0
 11 10  2  0
 12 13  2  0
 12  2  1  0
 14 12  1  0
 15 14  2  0
 16 15  1  0
 17 18  1  0
 17 16  2  0
 18 19  2  0
 19 14  1  0
  1 20  1  0
  3 21  1  0
  9 22  1  0
 10 23  1  0
 11 24  1  0
 15 25  1  0
 16 26  1  0
 17 27  1  0
 18 28  1  0
M  ISO  8  20  14  21  14  22  14  23  14  24  14  25  14  26  14  27  14
M  ISO  1  28  14
M  END
>  <minimizedAffinity>  (1) 
-5.8874011

>  <minimizedRMSD>  (1) 
1.15508568

$$$$
