
     RDKit          3D

 27 29  0  0  0  0  0  0  0  0999 V2000
   44.7270   34.9800   45.2900 C   0  0  0  0  0  0  0  0  0  0  0  0
   45.4280   34.8080   44.1010 C   0  0  0  0  0  0  0  0  0  0  0  0
   46.4280   33.8400   44.0680 C   0  0  0  0  0  0  0  0  0  0  0  0
   46.6670   33.1130   45.1990 N   0  0  0  0  0  0  0  0  0  0  0  0
   45.9850   33.2950   46.3230 C   0  0  0  0  0  0  0  0  0  0  0  0
   44.9970   34.2380   46.3860 N   0  0  0  0  0  0  0  0  0  0  0  0
   46.3550   32.4590   47.4130 N   0  0  0  0  0  0  0  0  0  0  0  0
   47.4740   31.8560   47.7790 N   0  0  0  0  0  0  0  0  0  0  0  0
   47.2640   31.1680   48.9260 C   0  0  0  0  0  0  0  0  0  0  0  0
   45.9380   31.3670   49.2780 C   0  0  0  0  0  0  0  0  0  0  0  0
   45.3840   32.1950   48.2930 C   0  0  0  0  0  0  0  0  0  0  0  0
   45.1040   35.6200   42.9630 C   0  0  0  0  0  0  0  0  0  0  0  0
   45.3560   36.8250   43.0230 O   0  0  0  0  0  0  0  0  0  0  0  0
   44.4930   35.1040   41.7390 C   0  0  0  0  0  0  0  0  0  0  0  0
   43.2270   35.5460   41.4060 C   0  0  0  0  0  0  0  0  0  0  0  0
   42.6110   35.0810   40.2530 C   0  0  0  0  0  0  0  0  0  0  0  0
   43.2960   34.1930   39.4870 N   0  0  0  0  0  0  0  0  0  0  0  0
   44.5240   33.7670   39.8150 C   0  0  0  0  0  0  0  0  0  0  0  0
   45.1380   34.2080   40.9330 N   0  0  0  0  0  0  0  0  0  0  0  0
   43.9327   35.7394   45.3390 H   0  0  0  0  0  0  0  0  0  0  0  0
   47.0119   33.6649   43.1524 H   0  0  0  0  0  0  0  0  0  0  0  0
   48.0041   30.5662   49.4738 H   0  0  0  0  0  0  0  0  0  0  0  0
   45.4220   30.9555   50.1580 H   0  0  0  0  0  0  0  0  0  0  0  0
   44.3467   32.5589   48.2516 H   0  0  0  0  0  0  0  0  0  0  0  0
   42.7075   36.2665   42.0549 H   0  0  0  0  0  0  0  0  0  0  0  0
   41.6036   35.4196   39.9694 H   0  0  0  0  0  0  0  0  0  0  0  0
   45.0393   33.0467   39.1626 H   0  0  0  0  0  0  0  0  0  0  0  0
  1  6  2  0
  2  1  1  0
  3  2  2  0
  3  4  1  0
  4  5  2  0
  5  6  1  0
  5  7  1  0
  7  8  1  0
  7 11  1  0
  8  9  2  0
  9 10  1  0
 11 10  2  0
 12 13  2  0
 12  2  1  0
 14 12  1  0
 15 14  2  0
 16 15  1  0
 17 18  1  0
 17 16  2  0
 18 19  2  0
 19 14  1  0
  1 20  1  0
  3 21  1  0
  9 22  1  0
 10 23  1  0
 11 24  1  0
 15 25  1  0
 16 26  1  0
 18 27  1  0
M  ISO  8  20  14  21  14  22  14  23  14  24  14  25  14  26  14  27  14
M  END
>  <minimizedAffinity>  (1) 
-5.6808219

>  <minimizedRMSD>  (1) 
0.85260123

$$$$
