
     RDKit          3D

 29 31  0  0  0  0  0  0  0  0999 V2000
   44.8240   34.8130   45.2150 C   0  0  0  0  0  0  0  0  0  0  0  0
   45.5310   34.6110   44.0160 C   0  0  0  0  0  0  0  0  0  0  0  0
   46.5350   33.6740   44.0250 C   0  0  0  0  0  0  0  0  0  0  0  0
   46.7980   32.9920   45.1730 N   0  0  0  0  0  0  0  0  0  0  0  0
   46.1150   33.2000   46.3010 C   0  0  0  0  0  0  0  0  0  0  0  0
   45.1020   34.1220   46.3550 N   0  0  0  0  0  0  0  0  0  0  0  0
   46.5180   32.4170   47.4200 N   0  0  0  0  0  0  0  0  0  0  0  0
   47.6430   31.8140   47.7620 N   0  0  0  0  0  0  0  0  0  0  0  0
   47.4870   31.1980   48.9620 C   0  0  0  0  0  0  0  0  0  0  0  0
   46.1940   31.4430   49.3690 C   0  0  0  0  0  0  0  0  0  0  0  0
   45.6190   32.2150   48.3680 C   0  0  0  0  0  0  0  0  0  0  0  0
   45.0940   35.4350   42.9290 C   0  0  0  0  0  0  0  0  0  0  0  0
   45.3900   36.6630   42.9690 O   0  0  0  0  0  0  0  0  0  0  0  0
   44.3360   35.0950   41.7310 C   0  0  0  0  0  0  0  0  0  0  0  0
   44.8740   34.1850   40.8270 C   0  0  0  0  0  0  0  0  0  0  0  0
   44.1960   33.8230   39.6600 C   0  0  0  0  0  0  0  0  0  0  0  0
   42.9740   34.3490   39.3580 C   0  0  0  0  0  0  0  0  0  0  0  0
   42.4190   35.2530   40.2390 C   0  0  0  0  0  0  0  0  0  0  0  0
   43.1030   35.5910   41.3730 C   0  0  0  0  0  0  0  0  0  0  0  0
   44.0150   35.5582   45.2325 H   0  0  0  0  0  0  0  0  0  0  0  0
   47.1200   33.4769   43.1146 H   0  0  0  0  0  0  0  0  0  0  0  0
   48.2465   30.6158   49.5044 H   0  0  0  0  0  0  0  0  0  0  0  0
   45.7149   31.0978   50.2971 H   0  0  0  0  0  0  0  0  0  0  0  0
   44.5868   32.5953   48.3645 H   0  0  0  0  0  0  0  0  0  0  0  0
   45.8577   33.7392   41.0360 H   0  0  0  0  0  0  0  0  0  0  0  0
   44.6567   33.0996   38.9712 H   0  0  0  0  0  0  0  0  0  0  0  0
   42.4461   34.0600   38.4373 H   0  0  0  0  0  0  0  0  0  0  0  0
   41.4348   35.6980   40.0310 H   0  0  0  0  0  0  0  0  0  0  0  0
   42.6313   36.3160   42.0526 H   0  0  0  0  0  0  0  0  0  0  0  0
  1  6  2  0
  2  3  2  0
  2  1  1  0
  3  4  1  0
  4  5  2  0
  5  6  1  0
  5  7  1  0
  7  8  1  0
  7 11  1  0
  8  9  2  0
  9 10  1  0
 11 10  2  0
 12 13  2  0
 12  2  1  0
 14 12  1  0
 15 14  2  0
 16 15  1  0
 17 16  2  0
 17 18  1  0
 18 19  2  0
 19 14  1  0
  1 20  1  0
  3 21  1  0
  9 22  1  0
 10 23  1  0
 11 24  1  0
 15 25  1  0
 16 26  1  0
 17 27  1  0
 18 28  1  0
 19 29  1  0
M  ISO  8  20  14  21  14  22  14  23  14  24  14  25  14  26  14  27  14
M  ISO  2  28  14  29  14
M  END
>  <minimizedAffinity>  (1) 
-5.67410469

>  <minimizedRMSD>  (1) 
0.812957287

$$$$
