
     RDKit          3D

 21 22  0  0  0  0  0  0  0  0999 V2000
   44.7940   35.0160   45.2360 C   0  0  0  0  0  0  0  0  0  0  0  0
   45.5370   34.8280   44.0820 C   0  0  0  0  0  0  0  0  0  0  0  0
   46.4960   33.8290   44.0820 C   0  0  0  0  0  0  0  0  0  0  0  0
   46.6660   33.0750   45.2150 N   0  0  0  0  0  0  0  0  0  0  0  0
   45.9330   33.2770   46.3190 C   0  0  0  0  0  0  0  0  0  0  0  0
   44.9910   34.2540   46.3290 N   0  0  0  0  0  0  0  0  0  0  0  0
   46.2180   32.4230   47.4130 N   0  0  0  0  0  0  0  0  0  0  0  0
   47.2940   31.7620   47.8080 N   0  0  0  0  0  0  0  0  0  0  0  0
   47.0040   31.0850   48.9490 C   0  0  0  0  0  0  0  0  0  0  0  0
   45.6870   31.3490   49.2590 C   0  0  0  0  0  0  0  0  0  0  0  0
   45.2210   32.2020   48.2620 C   0  0  0  0  0  0  0  0  0  0  0  0
   45.3050   35.6520   42.9370 C   0  0  0  0  0  0  0  0  0  0  0  0
   45.1980   36.8730   43.1020 O   0  0  0  0  0  0  0  0  0  0  0  0
   45.2140   34.9870   41.6720 N   0  0  0  0  0  0  0  0  0  0  0  0
   44.0270   35.8042   45.2602 H   0  0  0  0  0  0  0  0  0  0  0  0
   47.1107   33.6434   43.1889 H   0  0  0  0  0  0  0  0  0  0  0  0
   47.6924   30.4447   49.5200 H   0  0  0  0  0  0  0  0  0  0  0  0
   45.1196   30.9640   50.1191 H   0  0  0  0  0  0  0  0  0  0  0  0
   44.2058   32.6193   48.1902 H   0  0  0  0  0  0  0  0  0  0  0  0
   45.3147   33.9633   41.6199 H   0  0  0  0  0  0  0  0  0  0  0  0
   45.0479   35.5324   40.8142 H   0  0  0  0  0  0  0  0  0  0  0  0
  1  6  2  0
  2  3  2  0
  2  1  1  0
  3  4  1  0
  4  5  2  0
  5  6  1  0
  5  7  1  0
  7  8  1  0
  7 11  1  0
  8  9  2  0
  9 10  1  0
 11 10  2  0
 12 13  2  0
 12  2  1  0
 14 12  1  0
  1 15  1  0
  3 16  1  0
  9 17  1  0
 10 18  1  0
 11 19  1  0
 14 20  1  0
 14 21  1  0
M  ISO  5  15  14  16  14  17  14  18  14  19  14
M  END
>  <minimizedAffinity>  (1) 
-4.79326487

>  <minimizedRMSD>  (1) 
0.0711948648

$$$$
