
     RDKit          3D

 37 41  0  0  0  0  0  0  0  0999 V2000
   45.0690   35.7600   43.0790 C   0  0  0  0  0  0  0  0  0  0  0  0
   45.3070   36.9760   43.1600 O   0  0  0  0  0  0  0  0  0  0  0  0
   44.6890   35.0610   45.3560 C   0  0  0  0  0  0  0  0  0  0  0  0
   45.3970   34.9030   44.1790 C   0  0  0  0  0  0  0  0  0  0  0  0
   46.3730   33.9430   44.1120 C   0  0  0  0  0  0  0  0  0  0  0  0
   46.6010   33.1820   45.2220 N   0  0  0  0  0  0  0  0  0  0  0  0
   45.9090   33.3390   46.3670 C   0  0  0  0  0  0  0  0  0  0  0  0
   44.9470   34.2880   46.4270 N   0  0  0  0  0  0  0  0  0  0  0  0
   46.2800   32.4600   47.4200 N   0  0  0  0  0  0  0  0  0  0  0  0
   47.3650   31.8100   47.7610 N   0  0  0  0  0  0  0  0  0  0  0  0
   47.1410   31.0970   48.8990 C   0  0  0  0  0  0  0  0  0  0  0  0
   45.8210   31.3400   49.2620 C   0  0  0  0  0  0  0  0  0  0  0  0
   45.3000   32.2090   48.3050 C   0  0  0  0  0  0  0  0  0  0  0  0
   44.4540   35.2250   41.8500 C   0  0  0  0  0  0  0  0  0  0  0  0
   43.2050   35.5490   41.4100 C   0  0  0  0  0  0  0  0  0  0  0  0
   43.0290   34.8420   40.2510 C   0  0  0  0  0  0  0  0  0  0  0  0
   44.1360   34.1530   40.0580 N   0  0  0  0  0  0  0  0  0  0  0  0
   45.0500   34.3460   41.0060 N   0  0  0  0  0  0  0  0  0  0  0  0
   42.4600   31.1950   36.8390 N   0  0  0  0  0  0  0  0  0  0  0  0
   41.4840   31.6900   37.6420 C   0  0  0  0  0  0  0  0  0  0  0  0
   42.0310   32.5420   38.5560 N   0  0  0  0  0  0  0  0  0  0  0  0
   43.3620   32.5760   38.3180 C   0  0  0  0  0  0  0  0  0  0  0  0
   44.3680   33.2770   38.9510 C   0  0  0  0  0  0  0  0  0  0  0  0
   45.6030   33.0820   38.4540 N   0  0  0  0  0  0  0  0  0  0  0  0
   45.8800   32.2700   37.4150 C   0  0  0  0  0  0  0  0  0  0  0  0
   44.8940   31.5930   36.8060 N   0  0  0  0  0  0  0  0  0  0  0  0
   43.6290   31.7340   37.2440 C   0  0  0  0  0  0  0  0  0  0  0  0
   43.9040   35.8291   45.4179 H   0  0  0  0  0  0  0  0  0  0  0  0
   46.9551   33.7904   43.1912 H   0  0  0  0  0  0  0  0  0  0  0  0
   47.8619   30.4554   49.4270 H   0  0  0  0  0  0  0  0  0  0  0  0
   45.2917   30.9273   50.1335 H   0  0  0  0  0  0  0  0  0  0  0  0
   44.2776   32.6139   48.2788 H   0  0  0  0  0  0  0  0  0  0  0  0
   42.4888   36.2347   41.8864 H   0  0  0  0  0  0  0  0  0  0  0  0
   42.1376   34.8478   39.6065 H   0  0  0  0  0  0  0  0  0  0  0  0
   42.3319   30.5300   36.0629 H   0  0  0  0  0  0  0  0  0  0  0  0
   40.4150   31.4419   37.5671 H   0  0  0  0  0  0  0  0  0  0  0  0
   46.9172   32.1617   37.0649 H   0  0  0  0  0  0  0  0  0  0  0  0
  1  2  2  0
  1  4  1  0
  3  8  2  0
  4  3  1  0
  5  4  2  0
  5  6  1  0
  6  7  2  0
  7  8  1  0
  7  9  1  0
  9 10  1  0
  9 13  1  0
 10 11  2  0
 11 12  1  0
 13 12  2  0
 14  1  1  0
 15 14  1  0
 16 15  2  0
 17 16  1  0
 17 18  1  0
 18 14  2  0
 19 27  1  0
 19 20  1  0
 20 21  2  0
 22 21  1  0
 22 23  2  0
 23 17  1  0
 24 23  1  0
 25 24  2  0
 26 27  2  0
 26 25  1  0
 27 22  1  0
  3 28  1  0
  5 29  1  0
 11 30  1  0
 12 31  1  0
 13 32  1  0
 15 33  1  0
 16 34  1  0
 19 35  1  0
 20 36  1  0
 25 37  1  0
M  ISO  8  28  14  29  14  30  14  31  14  32  14  33  14  34  14  35   9
M  ISO  2  36  14  37  14
M  END
>  <minimizedAffinity>  (1) 
-6.63747549

>  <minimizedRMSD>  (1) 
0.335790157

$$$$
