
     RDKit          3D

 41 44  0  0  0  0  0  0  0  0999 V2000
   44.6610   35.1050   45.2780 C   0  0  0  0  0  0  0  0  0  0  0  0
   45.3400   34.9470   44.0870 C   0  0  0  0  0  0  0  0  0  0  0  0
   46.3170   33.9860   44.0150 C   0  0  0  0  0  0  0  0  0  0  0  0
   46.5670   33.2350   45.1290 N   0  0  0  0  0  0  0  0  0  0  0  0
   45.9050   33.3950   46.2750 C   0  0  0  0  0  0  0  0  0  0  0  0
   44.9330   34.3460   46.3560 N   0  0  0  0  0  0  0  0  0  0  0  0
   46.2880   32.5300   47.3400 N   0  0  0  0  0  0  0  0  0  0  0  0
   47.3900   31.8800   47.6530 N   0  0  0  0  0  0  0  0  0  0  0  0
   47.1860   31.1900   48.8100 C   0  0  0  0  0  0  0  0  0  0  0  0
   45.8860   31.4470   49.2060 C   0  0  0  0  0  0  0  0  0  0  0  0
   45.3270   32.3060   48.2540 C   0  0  0  0  0  0  0  0  0  0  0  0
   44.9800   35.8000   42.9950 C   0  0  0  0  0  0  0  0  0  0  0  0
   45.2610   37.0030   43.0350 O   0  0  0  0  0  0  0  0  0  0  0  0
   44.2780   35.2610   41.8160 C   0  0  0  0  0  0  0  0  0  0  0  0
   42.9780   35.5350   41.5080 C   0  0  0  0  0  0  0  0  0  0  0  0
   42.7190   34.8430   40.3470 C   0  0  0  0  0  0  0  0  0  0  0  0
   43.8410   34.2110   40.0280 N   0  0  0  0  0  0  0  0  0  0  0  0
   44.8150   34.4340   40.8900 N   0  0  0  0  0  0  0  0  0  0  0  0
   43.8960   32.1790   36.6160 N   0  0  0  0  0  0  0  0  0  0  0  0
   45.2200   32.2920   37.1520 C   0  0  0  0  0  0  0  0  0  0  0  0
   45.1520   32.6510   38.6420 C   0  0  0  0  0  0  0  0  0  0  0  0
   43.8640   33.3840   38.8220 C   0  0  0  0  0  0  0  0  0  0  0  0
   42.7580   32.3590   38.8060 C   0  0  0  0  0  0  0  0  0  0  0  0
   42.9400   31.5750   37.5150 C   0  0  0  0  0  0  0  0  0  0  0  0
   43.8759   35.8723   45.3484 H   0  0  0  0  0  0  0  0  0  0  0  0
   46.8834   33.8246   43.0860 H   0  0  0  0  0  0  0  0  0  0  0  0
   47.9153   30.5511   49.3295 H   0  0  0  0  0  0  0  0  0  0  0  0
   45.3855   31.0503   50.1016 H   0  0  0  0  0  0  0  0  0  0  0  0
   44.3063   32.7160   48.2530 H   0  0  0  0  0  0  0  0  0  0  0  0
   42.2821   36.1752   42.0700 H   0  0  0  0  0  0  0  0  0  0  0  0
   41.7691   34.8187   39.7928 H   0  0  0  0  0  0  0  0  0  0  0  0
   43.5626   33.1241   36.3781 H   0  0  0  0  0  0  0  0  0  0  0  0
   45.7452   31.3330   37.0316 H   0  0  0  0  0  0  0  0  0  0  0  0
   45.7621   33.0833   36.6135 H   0  0  0  0  0  0  0  0  0  0  0  0
   45.1637   31.7392   39.2572 H   0  0  0  0  0  0  0  0  0  0  0  0
   46.0132   33.2607   38.9526 H   0  0  0  0  0  0  0  0  0  0  0  0
   43.7292   34.1019   37.9995 H   0  0  0  0  0  0  0  0  0  0  0  0
   42.8423   31.6905   39.6755 H   0  0  0  0  0  0  0  0  0  0  0  0
   41.7662   32.8320   38.8567 H   0  0  0  0  0  0  0  0  0  0  0  0
   41.9684   31.5130   37.0030 H   0  0  0  0  0  0  0  0  0  0  0  0
   43.3264   30.5814   37.7860 H   0  0  0  0  0  0  0  0  0  0  0  0
  1  6  2  0
  2  1  1  0
  3  2  2  0
  3  4  1  0
  4  5  2  0
  5  6  1  0
  5  7  1  0
  7  8  1  0
  7 11  1  0
  8  9  2  0
  9 10  1  0
 11 10  2  0
 12 13  2  0
 12  2  1  0
 14 12  1  0
 15 14  1  0
 16 15  2  0
 17 16  1  0
 17 18  1  0
 18 14  2  0
 19 20  1  0
 19 24  1  0
 20 21  1  0
 21 22  1  0
 22 17  1  0
 23 22  1  0
 24 23  1  0
  1 25  1  0
  3 26  1  0
  9 27  1  0
 10 28  1  0
 11 29  1  0
 15 30  1  0
 16 31  1  0
 19 32  1  0
 20 33  1  0
 20 34  1  0
 21 35  1  0
 21 36  1  0
 22 37  1  0
 23 38  1  0
 23 39  1  0
 24 40  1  0
 24 41  1  0
M  ISO  8  25  14  26  14  27  14  28  14  29  14  30  14  31  14  32   5
M  ISO  8  33  13  34  13  35  13  36  13  37  13  38  13  39  13  40  13
M  ISO  1  41  13
M  END
>  <minimizedAffinity>  (1) 
-6.28164196

>  <minimizedRMSD>  (1) 
0.62861532

$$$$
