
     RDKit          3D

 34 37  0  0  0  0  0  0  0  0999 V2000
   44.6890   35.0840   45.2730 C   0  0  0  0  0  0  0  0  0  0  0  0
   45.3860   34.9250   44.0880 C   0  0  0  0  0  0  0  0  0  0  0  0
   46.3710   33.9600   44.0300 C   0  0  0  0  0  0  0  0  0  0  0  0
   46.6070   33.2130   45.1460 N   0  0  0  0  0  0  0  0  0  0  0  0
   45.9320   33.3720   46.2850 C   0  0  0  0  0  0  0  0  0  0  0  0
   44.9580   34.3210   46.3520 N   0  0  0  0  0  0  0  0  0  0  0  0
   46.3010   32.5100   47.3580 N   0  0  0  0  0  0  0  0  0  0  0  0
   47.3880   31.8740   47.7030 N   0  0  0  0  0  0  0  0  0  0  0  0
   47.1670   31.1800   48.8510 C   0  0  0  0  0  0  0  0  0  0  0  0
   45.8590   31.4160   49.2200 C   0  0  0  0  0  0  0  0  0  0  0  0
   45.3230   32.2730   48.2450 C   0  0  0  0  0  0  0  0  0  0  0  0
   45.0390   35.7770   42.9850 C   0  0  0  0  0  0  0  0  0  0  0  0
   45.2740   36.9800   43.0500 O   0  0  0  0  0  0  0  0  0  0  0  0
   44.4050   35.2190   41.7840 C   0  0  0  0  0  0  0  0  0  0  0  0
   43.1270   35.4950   41.3760 C   0  0  0  0  0  0  0  0  0  0  0  0
   42.9170   34.7820   40.2180 C   0  0  0  0  0  0  0  0  0  0  0  0
   44.0630   34.1300   40.0010 N   0  0  0  0  0  0  0  0  0  0  0  0
   45.0000   34.3480   40.9040 N   0  0  0  0  0  0  0  0  0  0  0  0
   44.4240   33.2280   38.9300 C   0  0  0  0  0  0  0  0  0  0  0  0
   43.4500   32.5330   38.2120 C   0  0  0  0  0  0  0  0  0  0  0  0
   43.9170   31.6970   37.2090 C   0  0  0  0  0  0  0  0  0  0  0  0
   45.2180   31.5390   36.9150 N   0  0  0  0  0  0  0  0  0  0  0  0
   46.1370   32.2370   37.6410 C   0  0  0  0  0  0  0  0  0  0  0  0
   45.7450   33.0680   38.6320 N   0  0  0  0  0  0  0  0  0  0  0  0
   43.9000   35.8478   45.3360 H   0  0  0  0  0  0  0  0  0  0  0  0
   46.9498   33.7980   43.1087 H   0  0  0  0  0  0  0  0  0  0  0  0
   47.8936   30.5497   49.3845 H   0  0  0  0  0  0  0  0  0  0  0  0
   45.3394   31.0133   50.1020 H   0  0  0  0  0  0  0  0  0  0  0  0
   44.2987   32.6728   48.2146 H   0  0  0  0  0  0  0  0  0  0  0  0
   42.4072   36.1587   41.8774 H   0  0  0  0  0  0  0  0  0  0  0  0
   42.0044   34.7547   39.6045 H   0  0  0  0  0  0  0  0  0  0  0  0
   42.3770   32.6417   38.4285 H   0  0  0  0  0  0  0  0  0  0  0  0
   43.1799   31.1309   36.6206 H   0  0  0  0  0  0  0  0  0  0  0  0
   47.2081   32.1226   37.4179 H   0  0  0  0  0  0  0  0  0  0  0  0
  1  6  2  0
  2  1  1  0
  3  2  2  0
  3  4  1  0
  4  5  2  0
  5  6  1  0
  5  7  1  0
  7  8  1  0
  7 11  1  0
  8  9  2  0
  9 10  1  0
 11 10  2  0
 12 13  2  0
 12  2  1  0
 14 12  1  0
 15 14  1  0
 16 15  2  0
 17 16  1  0
 17 18  1  0
 18 14  2  0
 19 17  1  0
 20 19  2  0
 21 20  1  0
 22 21  2  0
 22 23  1  0
 23 24  2  0
 24 19  1  0
  1 25  1  0
  3 26  1  0
  9 27  1  0
 10 28  1  0
 11 29  1  0
 15 30  1  0
 16 31  1  0
 20 32  1  0
 21 33  1  0
 23 34  1  0
M  ISO  8  25  14  26  14  27  14  28  14  29  14  30  14  31  14  32  14
M  ISO  2  33  14  34  14
M  END
>  <minimizedAffinity>  (1) 
-6.12230444

>  <minimizedRMSD>  (1) 
0.516593575

$$$$
