
     RDKit          3D

 33 36  0  0  0  0  0  0  0  0999 V2000
   44.7030   35.0610   45.2680 C   0  0  0  0  0  0  0  0  0  0  0  0
   45.4090   34.8990   44.0970 C   0  0  0  0  0  0  0  0  0  0  0  0
   46.4050   33.9420   44.0400 C   0  0  0  0  0  0  0  0  0  0  0  0
   46.6270   33.2030   45.1760 N   0  0  0  0  0  0  0  0  0  0  0  0
   45.9330   33.3730   46.3030 C   0  0  0  0  0  0  0  0  0  0  0  0
   44.9560   34.3100   46.3650 N   0  0  0  0  0  0  0  0  0  0  0  0
   46.3150   32.5060   47.3750 N   0  0  0  0  0  0  0  0  0  0  0  0
   47.3990   31.8670   47.7350 N   0  0  0  0  0  0  0  0  0  0  0  0
   47.1780   31.1740   48.8730 C   0  0  0  0  0  0  0  0  0  0  0  0
   45.8720   31.4070   49.2240 C   0  0  0  0  0  0  0  0  0  0  0  0
   45.3320   32.2570   48.2640 C   0  0  0  0  0  0  0  0  0  0  0  0
   45.0670   35.7430   42.9910 C   0  0  0  0  0  0  0  0  0  0  0  0
   45.2910   36.9610   43.0530 O   0  0  0  0  0  0  0  0  0  0  0  0
   44.4500   35.1870   41.7730 C   0  0  0  0  0  0  0  0  0  0  0  0
   43.1800   35.4890   41.3490 C   0  0  0  0  0  0  0  0  0  0  0  0
   43.0080   34.7600   40.1830 C   0  0  0  0  0  0  0  0  0  0  0  0
   44.1430   34.0910   39.9890 N   0  0  0  0  0  0  0  0  0  0  0  0
   45.0670   34.3120   40.9310 N   0  0  0  0  0  0  0  0  0  0  0  0
   44.3690   33.2070   38.8680 C   0  0  0  0  0  0  0  0  0  0  0  0
   43.4970   32.4680   38.1830 C   0  0  0  0  0  0  0  0  0  0  0  0
   43.9160   31.6910   37.1460 C   0  0  0  0  0  0  0  0  0  0  0  0
   45.2800   31.7230   36.8650 C   0  0  0  0  0  0  0  0  0  0  0  0
   45.9300   32.9140   38.1480 S   0  0  0  0  0  0  0  0  0  0  0  0
   43.9106   35.8227   45.3131 H   0  0  0  0  0  0  0  0  0  0  0  0
   46.9937   33.7796   43.1251 H   0  0  0  0  0  0  0  0  0  0  0  0
   47.9025   30.5462   49.4125 H   0  0  0  0  0  0  0  0  0  0  0  0
   45.3493   30.9979   50.1012 H   0  0  0  0  0  0  0  0  0  0  0  0
   44.3046   32.6491   48.2357 H   0  0  0  0  0  0  0  0  0  0  0  0
   42.4561   36.1631   41.8301 H   0  0  0  0  0  0  0  0  0  0  0  0
   42.1123   34.7383   39.5448 H   0  0  0  0  0  0  0  0  0  0  0  0
   42.4318   32.4857   38.4569 H   0  0  0  0  0  0  0  0  0  0  0  0
   43.2169   31.0731   36.5633 H   0  0  0  0  0  0  0  0  0  0  0  0
   45.8347   31.1826   36.0838 H   0  0  0  0  0  0  0  0  0  0  0  0
  1  6  2  0
  2  1  1  0
  3  2  2  0
  3  4  1  0
  4  5  2  0
  5  6  1  0
  5  7  1  0
  7  8  1  0
  7 11  1  0
  8  9  2  0
  9 10  1  0
 11 10  2  0
 12 13  2  0
 12  2  1  0
 14 12  1  0
 15 14  1  0
 16 15  2  0
 17 16  1  0
 17 18  1  0
 18 14  2  0
 19 17  1  0
 20 19  2  0
 21 20  1  0
 22 21  2  0
 22 23  1  0
 23 19  1  0
  1 24  1  0
  3 25  1  0
  9 26  1  0
 10 27  1  0
 11 28  1  0
 15 29  1  0
 16 30  1  0
 20 31  1  0
 21 32  1  0
 22 33  1  0
M  ISO  8  24  14  25  14  26  14  27  14  28  14  29  14  30  14  31  14
M  ISO  2  32  14  33  14
M  END
>  <minimizedAffinity>  (1) 
-6.0034399

>  <minimizedRMSD>  (1) 
0.309472919

$$$$
