
     RDKit          3D

 38 41  0  0  1  0  0  0  0  0999 V2000
   44.6790   35.0810   45.2920 C   0  0  0  0  0  0  0  0  0  0  0  0
   45.3780   34.9050   44.0970 C   0  0  0  0  0  0  0  0  0  0  0  0
   46.3460   33.9480   44.0380 C   0  0  0  0  0  0  0  0  0  0  0  0
   46.5930   33.2020   45.1540 N   0  0  0  0  0  0  0  0  0  0  0  0
   45.9220   33.3700   46.3020 C   0  0  0  0  0  0  0  0  0  0  0  0
   44.9510   34.3220   46.3760 N   0  0  0  0  0  0  0  0  0  0  0  0
   46.3000   32.5150   47.3630 N   0  0  0  0  0  0  0  0  0  0  0  0
   47.4030   31.8770   47.7020 N   0  0  0  0  0  0  0  0  0  0  0  0
   47.1890   31.1840   48.8600 C   0  0  0  0  0  0  0  0  0  0  0  0
   45.8810   31.4210   49.2370 C   0  0  0  0  0  0  0  0  0  0  0  0
   45.3470   32.2720   48.2590 C   0  0  0  0  0  0  0  0  0  0  0  0
   45.0170   35.7620   42.9940 C   0  0  0  0  0  0  0  0  0  0  0  0
   45.2810   36.9600   43.0370 O   0  0  0  0  0  0  0  0  0  0  0  0
   44.3330   35.2020   41.8170 C   0  0  0  0  0  0  0  0  0  0  0  0
   42.9990   35.3790   41.5520 C   0  0  0  0  0  0  0  0  0  0  0  0
   42.7430   34.7050   40.3730 C   0  0  0  0  0  0  0  0  0  0  0  0
   43.9230   34.1810   40.0240 N   0  0  0  0  0  0  0  0  0  0  0  0
   44.9210   34.4400   40.8460 N   0  0  0  0  0  0  0  0  0  0  0  0
   45.4960   33.6220   38.2730 N   0  0  0  0  0  0  0  0  0  0  0  0
   46.4310   32.6890   38.8740 C   0  0  0  0  0  0  0  0  0  0  0  0
   45.6520   31.5070   39.3600 C   0  0  0  0  0  0  0  0  0  0  0  0
   44.2020   31.8920   39.1850 C   0  0  0  0  0  0  0  0  0  0  0  0
   44.2080   33.3600   38.8360 C   0  0  1  0  0  0  0  0  0  0  0  0
   43.8944   35.8496   45.3522 H   0  0  0  0  0  0  0  0  0  0  0  0
   46.9155   33.7804   43.1120 H   0  0  0  0  0  0  0  0  0  0  0  0
   47.9196   30.5564   49.3914 H   0  0  0  0  0  0  0  0  0  0  0  0
   45.3644   31.0234   50.1230 H   0  0  0  0  0  0  0  0  0  0  0  0
   44.3213   32.6687   48.2365 H   0  0  0  0  0  0  0  0  0  0  0  0
   42.2762   35.9452   42.1578 H   0  0  0  0  0  0  0  0  0  0  0  0
   41.7840   34.6188   39.8410 H   0  0  0  0  0  0  0  0  0  0  0  0
   45.4686   33.4846   37.2526 H   0  0  0  0  0  0  0  0  0  0  0  0
   47.1709   32.3673   38.1263 H   0  0  0  0  0  0  0  0  0  0  0  0
   46.9652   33.1658   39.7090 H   0  0  0  0  0  0  0  0  0  0  0  0
   45.8897   30.6153   38.7614 H   0  0  0  0  0  0  0  0  0  0  0  0
   45.8891   31.2587   40.4050 H   0  0  0  0  0  0  0  0  0  0  0  0
   43.7452   31.3068   38.3733 H   0  0  0  0  0  0  0  0  0  0  0  0
   43.6168   31.6937   40.0951 H   0  0  0  0  0  0  0  0  0  0  0  0
   43.4201   33.6198   38.1137 H   0  0  0  0  0  0  0  0  0  0  0  0
  1  6  2  0
  2  1  1  0
  3  2  2  0
  3  4  1  0
  4  5  2  0
  5  6  1  0
  5  7  1  0
  7  8  1  0
  7 11  1  0
  8  9  2  0
  9 10  1  0
 11 10  2  0
 12 13  2  0
 12  2  1  0
 14 12  1  0
 15 14  1  0
 16 15  2  0
 17 16  1  0
 17 18  1  0
 18 14  2  0
 19 23  1  0
 19 20  1  0
 20 21  1  0
 22 21  1  0
 23 22  1  0
 23 17  1  0
  1 24  1  0
  3 25  1  0
  9 26  1  0
 10 27  1  0
 11 28  1  0
 15 29  1  0
 16 30  1  0
 19 31  1  0
 20 32  1  0
 20 33  1  0
 21 34  1  0
 21 35  1  0
 22 36  1  0
 22 37  1  0
 23 38  1  6
M  ISO  8  24  14  25  14  26  14  27  14  28  14  29  14  30  14  31   5
M  ISO  7  32  13  33  13  34  13  35  13  36  13  37  13  38  13
M  END
>  <minimizedAffinity>  (1) 
-6.02170897

>  <minimizedRMSD>  (1) 
0.374657422

$$$$
