
     RDKit          3D

 47 51  0  0  1  0  0  0  0  0999 V2000
   43.7930   35.3240   41.9970 C   0  0  0  0  0  0  0  0  0  0  0  0
   42.4710   35.6440   42.0900 C   0  0  0  0  0  0  0  0  0  0  0  0
   41.8440   35.0380   41.0210 C   0  0  0  0  0  0  0  0  0  0  0  0
   42.8110   34.4050   40.3680 N   0  0  0  0  0  0  0  0  0  0  0  0
   44.0070   34.5360   40.9010 N   0  0  0  0  0  0  0  0  0  0  0  0
   43.5770   34.0250   38.1000 N   0  0  0  0  0  0  0  0  0  0  0  0
   44.8010   33.2650   38.2260 C   0  0  0  0  0  0  0  0  0  0  0  0
   44.4770   31.9930   38.9530 C   0  0  0  0  0  0  0  0  0  0  0  0
   43.0550   32.1530   39.4170 C   0  0  0  0  0  0  0  0  0  0  0  0
   42.6870   33.6040   39.1520 C   0  0  1  0  0  0  0  0  0  0  0  0
   41.2730   33.5530   38.6780 C   0  0  0  0  0  0  0  0  0  0  0  0
   40.6990   34.6050   37.9970 C   0  0  0  0  0  0  0  0  0  0  0  0
   39.4100   34.6640   37.5160 C   0  0  0  0  0  0  0  0  0  0  0  0
   38.6590   33.5110   37.7770 C   0  0  0  0  0  0  0  0  0  0  0  0
   39.1890   32.4310   38.4540 C   0  0  0  0  0  0  0  0  0  0  0  0
   40.4720   32.4680   38.8900 N   0  0  0  0  0  0  0  0  0  0  0  0
   44.8170   35.7750   42.9450 C   0  0  0  0  0  0  0  0  0  0  0  0
   45.3370   36.8880   42.8110 O   0  0  0  0  0  0  0  0  0  0  0  0
   44.6190   35.1440   45.2680 C   0  0  0  0  0  0  0  0  0  0  0  0
   45.2220   34.9260   44.0310 C   0  0  0  0  0  0  0  0  0  0  0  0
   46.1520   33.9280   43.9210 C   0  0  0  0  0  0  0  0  0  0  0  0
   46.4450   33.1970   45.0290 N   0  0  0  0  0  0  0  0  0  0  0  0
   45.8720   33.4000   46.2170 C   0  0  0  0  0  0  0  0  0  0  0  0
   44.9420   34.3930   46.3390 N   0  0  0  0  0  0  0  0  0  0  0  0
   46.2870   32.5570   47.2630 N   0  0  0  0  0  0  0  0  0  0  0  0
   47.3770   31.8780   47.5400 N   0  0  0  0  0  0  0  0  0  0  0  0
   47.2280   31.2070   48.7280 C   0  0  0  0  0  0  0  0  0  0  0  0
   45.9680   31.5040   49.1890 C   0  0  0  0  0  0  0  0  0  0  0  0
   45.3880   32.3690   48.2340 C   0  0  0  0  0  0  0  0  0  0  0  0
   41.9972   36.2639   42.8654 H   0  0  0  0  0  0  0  0  0  0  0  0
   40.7747   35.0720   40.7652 H   0  0  0  0  0  0  0  0  0  0  0  0
   43.7780   35.0309   38.1927 H   0  0  0  0  0  0  0  0  0  0  0  0
   45.2027   33.0341   37.2283 H   0  0  0  0  0  0  0  0  0  0  0  0
   45.5570   33.8421   38.7787 H   0  0  0  0  0  0  0  0  0  0  0  0
   44.5672   31.1294   38.2777 H   0  0  0  0  0  0  0  0  0  0  0  0
   45.1648   31.8134   39.7924 H   0  0  0  0  0  0  0  0  0  0  0  0
   42.3912   31.4814   38.8527 H   0  0  0  0  0  0  0  0  0  0  0  0
   42.9483   31.8989   40.4819 H   0  0  0  0  0  0  0  0  0  0  0  0
   41.3341   35.4855   37.8200 H   0  0  0  0  0  0  0  0  0  0  0  0
   39.0080   35.5348   36.9774 H   0  0  0  0  0  0  0  0  0  0  0  0
   37.6155   33.4646   37.4322 H   0  0  0  0  0  0  0  0  0  0  0  0
   38.5704   31.5406   38.6396 H   0  0  0  0  0  0  0  0  0  0  0  0
   43.8681   35.9411   45.3718 H   0  0  0  0  0  0  0  0  0  0  0  0
   46.6492   33.7228   42.9615 H   0  0  0  0  0  0  0  0  0  0  0  0
   47.9712   30.5588   49.2154 H   0  0  0  0  0  0  0  0  0  0  0  0
   45.5031   31.1405   50.1173 H   0  0  0  0  0  0  0  0  0  0  0  0
   44.3804   32.8077   48.2811 H   0  0  0  0  0  0  0  0  0  0  0  0
  1  2  1  0
  1 17  1  0
  3  2  2  0
  4  5  1  0
  4  3  1  0
  5  1  2  0
  6  7  1  0
  6 10  1  0
  7  8  1  0
  8  9  1  0
 10 11  1  0
 10  9  1  0
 10  4  1  1
 11 16  1  0
 12 11  2  0
 13 14  2  0
 13 12  1  0
 14 15  1  0
 15 16  2  0
 17 20  1  0
 18 17  2  0
 19 24  2  0
 20 19  1  0
 21 20  2  0
 21 22  1  0
 22 23  2  0
 23 24  1  0
 23 25  1  0
 25 26  1  0
 25 29  1  0
 26 27  2  0
 27 28  1  0
 29 28  2  0
  2 30  1  0
  3 31  1  0
  6 32  1  0
  7 33  1  0
  7 34  1  0
  8 35  1  0
  8 36  1  0
  9 37  1  0
  9 38  1  0
 12 39  1  0
 13 40  1  0
 14 41  1  0
 15 42  1  0
 19 43  1  0
 21 44  1  0
 27 45  1  0
 28 46  1  0
 29 47  1  0
M  ISO  8  30  14  31  14  32   5  33  13  34  13  35  13  36  13  37  13
M  ISO  8  38  13  39  14  40  14  41  14  42  14  43  14  44  14  45  14
M  ISO  2  46  14  47  14
M  END
>  <minimizedAffinity>  (1) 
-7.23331165

>  <minimizedRMSD>  (1) 
1.43096542

$$$$
