
     RDKit          3D

 41 44  0  0  1  0  0  0  0  0999 V2000
   43.5850   35.3760   41.8490 C   0  0  0  0  0  0  0  0  0  0  0  0
   42.2820   35.1360   42.1670 C   0  0  0  0  0  0  0  0  0  0  0  0
   41.6680   34.7160   41.0000 C   0  0  0  0  0  0  0  0  0  0  0  0
   42.6320   34.7330   40.0810 N   0  0  0  0  0  0  0  0  0  0  0  0
   43.7990   35.1190   40.5260 N   0  0  0  0  0  0  0  0  0  0  0  0
   43.7370   33.8740   38.1110 N   0  0  0  0  0  0  0  0  0  0  0  0
   43.7240   32.4290   38.2550 C   0  0  0  0  0  0  0  0  0  0  0  0
   42.2980   31.9850   38.3700 C   0  0  0  0  0  0  0  0  0  0  0  0
   41.4980   33.2600   38.4750 C   0  0  0  0  0  0  0  0  0  0  0  0
   42.5050   34.3720   38.6650 C   0  0  1  0  0  0  0  0  0  0  0  0
   42.1500   35.5880   37.9120 C   0  0  0  0  0  0  0  0  0  0  0  0
   41.0580   36.1630   38.1560 O   0  0  0  0  0  0  0  0  0  0  0  0
   42.7540   36.3210   36.9290 O   0  0  0  0  0  0  0  0  0  0  0  0
   44.5960   35.8460   42.8160 C   0  0  0  0  0  0  0  0  0  0  0  0
   45.0740   36.9690   42.6970 O   0  0  0  0  0  0  0  0  0  0  0  0
   44.5540   35.2930   45.1620 C   0  0  0  0  0  0  0  0  0  0  0  0
   45.0220   34.9860   43.8930 C   0  0  0  0  0  0  0  0  0  0  0  0
   45.8440   33.9060   43.7270 C   0  0  0  0  0  0  0  0  0  0  0  0
   46.1720   33.1710   44.8320 N   0  0  0  0  0  0  0  0  0  0  0  0
   45.7220   33.4680   46.0510 C   0  0  0  0  0  0  0  0  0  0  0  0
   44.9030   34.5400   46.2320 N   0  0  0  0  0  0  0  0  0  0  0  0
   46.1540   32.6050   47.0930 N   0  0  0  0  0  0  0  0  0  0  0  0
   47.2100   31.8370   47.2890 N   0  0  0  0  0  0  0  0  0  0  0  0
   47.0970   31.2190   48.4910 C   0  0  0  0  0  0  0  0  0  0  0  0
   45.9150   31.6290   49.0600 C   0  0  0  0  0  0  0  0  0  0  0  0
   45.3260   32.5230   48.1360 C   0  0  0  0  0  0  0  0  0  0  0  0
   41.8118   35.2528   43.1545 H   0  0  0  0  0  0  0  0  0  0  0  0
   40.6147   34.4307   40.8617 H   0  0  0  0  0  0  0  0  0  0  0  0
   44.5387   34.2716   38.6210 H   0  0  0  0  0  0  0  0  0  0  0  0
   44.1898   31.9625   37.3744 H   0  0  0  0  0  0  0  0  0  0  0  0
   44.2892   32.1304   39.1502 H   0  0  0  0  0  0  0  0  0  0  0  0
   41.9984   31.4130   37.4794 H   0  0  0  0  0  0  0  0  0  0  0  0
   42.1396   31.3259   39.2363 H   0  0  0  0  0  0  0  0  0  0  0  0
   40.9177   33.4235   37.5550 H   0  0  0  0  0  0  0  0  0  0  0  0
   40.7828   33.2183   39.3097 H   0  0  0  0  0  0  0  0  0  0  0  0
   42.3071   37.1268   36.5669 H   0  0  0  0  0  0  0  0  0  0  0  0
   43.8907   36.1594   45.3011 H   0  0  0  0  0  0  0  0  0  0  0  0
   46.2302   33.6364   42.7330 H   0  0  0  0  0  0  0  0  0  0  0  0
   47.8204   30.5167   48.9309 H   0  0  0  0  0  0  0  0  0  0  0  0
   45.5095   31.3238   50.0359 H   0  0  0  0  0  0  0  0  0  0  0  0
   44.3679   33.0502   48.2546 H   0  0  0  0  0  0  0  0  0  0  0  0
  1  2  1  0
  1 14  1  0
  3  2  2  0
  4  5  1  0
  4  3  1  0
  5  1  2  0
  6  7  1  0
  6 10  1  0
  7  8  1  0
  8  9  1  0
  9 10  1  0
 10 11  1  0
 10  4  1  1
 11 12  2  0
 13 11  1  0
 14 17  1  0
 15 14  2  0
 16 21  2  0
 17 16  1  0
 18 17  2  0
 18 19  1  0
 19 20  2  0
 20 21  1  0
 20 22  1  0
 22 23  1  0
 22 26  1  0
 23 24  2  0
 24 25  1  0
 26 25  2  0
  2 27  1  0
  3 28  1  0
  6 29  1  0
  7 30  1  0
  7 31  1  0
  8 32  1  0
  8 33  1  0
  9 34  1  0
  9 35  1  0
 13 36  1  0
 16 37  1  0
 18 38  1  0
 24 39  1  0
 25 40  1  0
 26 41  1  0
M  ISO  8  27  14  28  14  29   5  30  13  31  13  32  13  33  13  34  13
M  ISO  7  35  13  36   3  37  14  38  14  39  14  40  14  41  14
M  END
>  <minimizedAffinity>  (1) 
-6.59042263

>  <minimizedRMSD>  (1) 
1.59143186

$$$$
