
     RDKit          3D

 44 48  0  0  1  0  0  0  0  0999 V2000
   43.8010   35.3050   41.9410 C   0  0  0  0  0  0  0  0  0  0  0  0
   42.4540   35.6050   42.0000 C   0  0  0  0  0  0  0  0  0  0  0  0
   41.8860   34.9820   40.9170 C   0  0  0  0  0  0  0  0  0  0  0  0
   42.8850   34.3690   40.2940 N   0  0  0  0  0  0  0  0  0  0  0  0
   44.0600   34.5220   40.8570 N   0  0  0  0  0  0  0  0  0  0  0  0
   43.7620   33.9400   38.0830 N   0  0  0  0  0  0  0  0  0  0  0  0
   44.9670   33.1550   38.2800 C   0  0  0  0  0  0  0  0  0  0  0  0
   44.5670   31.9040   39.0030 C   0  0  0  0  0  0  0  0  0  0  0  0
   43.1280   32.1060   39.3780 C   0  0  0  0  0  0  0  0  0  0  0  0
   42.8150   33.5620   39.0700 C   0  0  1  0  0  0  0  0  0  0  0  0
   41.4080   33.6660   38.5650 C   0  0  0  0  0  0  0  0  0  0  0  0
   40.4890   32.5720   38.7140 C   0  0  0  0  0  0  0  0  0  0  0  0
   38.9290   33.2530   37.9250 S   0  0  0  0  0  0  0  0  0  0  0  0
   39.8170   34.8620   37.5530 C   0  0  0  0  0  0  0  0  0  0  0  0
   40.9080   34.7210   37.9690 N   0  0  0  0  0  0  0  0  0  0  0  0
   44.7840   35.7840   42.9260 C   0  0  0  0  0  0  0  0  0  0  0  0
   45.2590   36.9210   42.8130 O   0  0  0  0  0  0  0  0  0  0  0  0
   44.6060   35.1630   45.2540 C   0  0  0  0  0  0  0  0  0  0  0  0
   45.1920   34.9360   44.0130 C   0  0  0  0  0  0  0  0  0  0  0  0
   46.1080   33.9390   43.8910 C   0  0  0  0  0  0  0  0  0  0  0  0
   46.4140   33.2010   45.0000 N   0  0  0  0  0  0  0  0  0  0  0  0
   45.8510   33.4190   46.1930 C   0  0  0  0  0  0  0  0  0  0  0  0
   44.9290   34.4180   46.3270 N   0  0  0  0  0  0  0  0  0  0  0  0
   46.2710   32.5730   47.2430 N   0  0  0  0  0  0  0  0  0  0  0  0
   47.3640   31.8940   47.5090 N   0  0  0  0  0  0  0  0  0  0  0  0
   47.2260   31.2290   48.6910 C   0  0  0  0  0  0  0  0  0  0  0  0
   45.9660   31.5290   49.1710 C   0  0  0  0  0  0  0  0  0  0  0  0
   45.3800   32.3890   48.2230 C   0  0  0  0  0  0  0  0  0  0  0  0
   41.9425   36.2165   42.7579 H   0  0  0  0  0  0  0  0  0  0  0  0
   40.8252   34.9892   40.6262 H   0  0  0  0  0  0  0  0  0  0  0  0
   43.9806   34.9422   38.1763 H   0  0  0  0  0  0  0  0  0  0  0  0
   45.4151   32.9017   37.3079 H   0  0  0  0  0  0  0  0  0  0  0  0
   45.7113   33.7205   38.8599 H   0  0  0  0  0  0  0  0  0  0  0  0
   44.6747   31.0282   38.3461 H   0  0  0  0  0  0  0  0  0  0  0  0
   45.1986   31.7202   39.8847 H   0  0  0  0  0  0  0  0  0  0  0  0
   42.4817   31.4424   38.7848 H   0  0  0  0  0  0  0  0  0  0  0  0
   42.9511   31.8714   40.4380 H   0  0  0  0  0  0  0  0  0  0  0  0
   40.6570   31.5867   39.1733 H   0  0  0  0  0  0  0  0  0  0  0  0
   39.4047   35.7501   37.0517 H   0  0  0  0  0  0  0  0  0  0  0  0
   43.8636   35.9677   45.3603 H   0  0  0  0  0  0  0  0  0  0  0  0
   46.5906   33.7315   42.9245 H   0  0  0  0  0  0  0  0  0  0  0  0
   47.9734   30.5793   49.1698 H   0  0  0  0  0  0  0  0  0  0  0  0
   45.5119   31.1685   50.1058 H   0  0  0  0  0  0  0  0  0  0  0  0
   44.3734   32.8291   48.2783 H   0  0  0  0  0  0  0  0  0  0  0  0
  1  2  1  0
  1 16  1  0
  3  2  2  0
  4  5  1  0
  4  3  1  0
  5  1  2  0
  6  7  1  0
  6 10  1  0
  7  8  1  0
  8  9  1  0
 10 11  1  0
 10  9  1  0
 10  4  1  1
 11 12  2  0
 13 12  1  0
 14 13  1  0
 14 15  2  0
 15 11  1  0
 16 19  1  0
 17 16  2  0
 18 23  2  0
 19 18  1  0
 20 19  2  0
 20 21  1  0
 21 22  2  0
 22 23  1  0
 22 24  1  0
 24 25  1  0
 24 28  1  0
 25 26  2  0
 26 27  1  0
 28 27  2  0
  2 29  1  0
  3 30  1  0
  6 31  1  0
  7 32  1  0
  7 33  1  0
  8 34  1  0
  8 35  1  0
  9 36  1  0
  9 37  1  0
 12 38  1  0
 14 39  1  0
 18 40  1  0
 20 41  1  0
 26 42  1  0
 27 43  1  0
 28 44  1  0
M  ISO  8  29  14  30  14  31   5  32  13  33  13  34  13  35  13  36  13
M  ISO  8  37  13  38  14  39  14  40  14  41  14  42  14  43  14  44  14
M  END
>  <minimizedAffinity>  (1) 
-6.69290781

>  <minimizedRMSD>  (1) 
1.21249998

$$$$
