
     RDKit          3D

 22 22  0  0  0  0  0  0  0  0999 V2000
   46.1210   35.0020   43.0970 C   0  0  0  0  0  0  0  0  0  0  0  0
   46.4080   34.0060   44.0230 C   0  0  0  0  0  0  0  0  0  0  0  0
   45.7210   33.9900   45.2540 C   0  0  0  0  0  0  0  0  0  0  0  0
   44.8080   34.9570   45.4670 N   0  0  0  0  0  0  0  0  0  0  0  0
   44.5350   35.9150   44.5730 C   0  0  0  0  0  0  0  0  0  0  0  0
   45.1870   35.9310   43.4040 N   0  0  0  0  0  0  0  0  0  0  0  0
   47.4380   33.0140   43.6450 C   0  0  0  0  0  0  0  0  0  0  0  0
   47.6090   32.0820   44.6750 F   0  0  0  0  0  0  0  0  0  0  0  0
   48.6600   33.5540   43.3840 F   0  0  0  0  0  0  0  0  0  0  0  0
   47.0380   32.2310   42.5710 F   0  0  0  0  0  0  0  0  0  0  0  0
   46.7380   35.1660   41.7640 C   0  0  0  0  0  0  0  0  0  0  0  0
   46.4100   33.9330   40.9540 C   0  0  0  0  0  0  0  0  0  0  0  0
   48.2700   35.2230   41.8750 C   0  0  0  0  0  0  0  0  0  0  0  0
   45.9228   33.2178   46.0110 H   0  0  0  0  0  0  0  0  0  0  0  0
   43.7805   36.6834   44.7972 H   0  0  0  0  0  0  0  0  0  0  0  0
   46.3606   36.0930   41.3075 H   0  0  0  0  0  0  0  0  0  0  0  0
   46.1875   33.0967   41.6330 H   0  0  0  0  0  0  0  0  0  0  0  0
   45.5339   34.1333   40.3197 H   0  0  0  0  0  0  0  0  0  0  0  0
   47.2698   33.6715   40.3197 H   0  0  0  0  0  0  0  0  0  0  0  0
   48.5606   35.2338   42.9359 H   0  0  0  0  0  0  0  0  0  0  0  0
   48.7063   34.3405   41.3843 H   0  0  0  0  0  0  0  0  0  0  0  0
   48.6395   36.1355   41.3843 H   0  0  0  0  0  0  0  0  0  0  0  0
  1  6  2  0
  1  2  1  0
  2  3  2  0
  3  4  1  0
  5  4  2  0
  6  5  1  0
  7  2  1  0
  7  8  1  0
  9  7  1  0
 10  7  1  0
 11 13  1  0
 11  1  1  0
 12 11  1  0
  3 14  1  0
  5 15  1  0
 11 16  1  0
 12 17  1  0
 12 18  1  0
 12 19  1  0
 13 20  1  0
 13 21  1  0
 13 22  1  0
M  ISO  8  14  14  15  14  16   8  17   8  18   8  19   8  20   8  21   8
M  ISO  1  22   8
M  END
>  <minimizedAffinity>  (1) 
-4.18597126

>  <minimizedRMSD>  (1) 
3.71645784

$$$$
