
     RDKit          3D

 39 41  0  0  1  0  0  0  0  0999 V2000
   47.0170   35.4110   42.1340 C   0  0  0  0  0  0  0  0  0  0  0  0
   48.0830   34.8200   41.4030 N   0  0  0  0  0  0  0  0  0  0  0  0
   49.3320   35.1350   42.0510 C   0  0  0  0  0  0  0  0  0  0  0  0
   50.2120   33.9950   42.3680 C   0  0  0  0  0  0  0  0  0  0  0  0
   49.3640   32.9750   42.8550 O   0  0  0  0  0  0  0  0  0  0  0  0
   48.7750   32.4750   41.6830 C   0  0  0  0  0  0  0  0  0  0  0  0
   47.9560   33.4930   40.9430 C   0  0  2  0  0  0  0  0  0  0  0  0
   48.3320   33.4350   39.5010 C   0  0  0  0  0  0  0  0  0  0  0  0
   48.1760   34.3830   38.5210 C   0  0  0  0  0  0  0  0  0  0  0  0
   48.6050   34.0970   37.2520 C   0  0  0  0  0  0  0  0  0  0  0  0
   49.1870   32.8610   36.9780 C   0  0  0  0  0  0  0  0  0  0  0  0
   49.1140   32.0330   38.6820 S   0  0  0  0  0  0  0  0  0  0  0  0
   45.7760   34.5770   42.3160 C   0  0  1  0  0  0  0  0  0  0  0  0
   44.7950   35.2910   44.5550 C   0  0  0  0  0  0  0  0  0  0  0  0
   45.5650   34.3750   43.7700 C   0  0  0  0  0  0  0  0  0  0  0  0
   46.1110   33.2890   44.4270 C   0  0  0  0  0  0  0  0  0  0  0  0
   45.8830   33.1620   45.7570 N   0  0  0  0  0  0  0  0  0  0  0  0
   45.1610   34.0220   46.4850 C   0  0  0  0  0  0  0  0  0  0  0  0
   44.6080   35.1100   45.8630 N   0  0  0  0  0  0  0  0  0  0  0  0
   44.5790   35.1590   41.6670 C   0  0  0  0  0  0  0  0  0  0  0  0
   46.7248   36.3330   41.6101 H   0  0  0  0  0  0  0  0  0  0  0  0
   47.4131   35.5642   43.1487 H   0  0  0  0  0  0  0  0  0  0  0  0
   49.8898   35.8147   41.3901 H   0  0  0  0  0  0  0  0  0  0  0  0
   49.0555   35.5697   43.0229 H   0  0  0  0  0  0  0  0  0  0  0  0
   50.7389   33.6554   41.4641 H   0  0  0  0  0  0  0  0  0  0  0  0
   50.9788   34.2700   43.1072 H   0  0  0  0  0  0  0  0  0  0  0  0
   49.5742   32.1195   41.0160 H   0  0  0  0  0  0  0  0  0  0  0  0
   48.0921   31.6667   41.9835 H   0  0  0  0  0  0  0  0  0  0  0  0
   46.9031   33.2271   41.1184 H   0  0  0  0  0  0  0  0  0  0  0  0
   47.7148   35.3549   38.7504 H   0  0  0  0  0  0  0  0  0  0  0  0
   48.4903   34.8418   36.4506 H   0  0  0  0  0  0  0  0  0  0  0  0
   49.5824   32.4707   36.0286 H   0  0  0  0  0  0  0  0  0  0  0  0
   45.9271   33.6102   41.8135 H   0  0  0  0  0  0  0  0  0  0  0  0
   44.3453   36.1679   44.0664 H   0  0  0  0  0  0  0  0  0  0  0  0
   46.7151   32.5467   43.8847 H   0  0  0  0  0  0  0  0  0  0  0  0
   45.0143   33.8583   47.5628 H   0  0  0  0  0  0  0  0  0  0  0  0
   43.8738   35.5019   42.4385 H   0  0  0  0  0  0  0  0  0  0  0  0
   44.8797   36.0115   41.0402 H   0  0  0  0  0  0  0  0  0  0  0  0
   44.0943   34.3960   41.0402 H   0  0  0  0  0  0  0  0  0  0  0  0
  1 13  1  0
  2  3  1  0
  2  1  1  0
  3  4  1  0
  4  5  1  0
  6  5  1  0
  7  2  1  0
  7  6  1  0
  8  7  1  0
  9  8  2  0
 10  9  1  0
 11 10  2  0
 11 12  1  0
 12  8  1  0
 13 15  1  0
 14 19  2  0
 15 16  2  0
 15 14  1  0
 16 17  1  0
 17 18  2  0
 19 18  1  0
 20 13  1  0
  1 21  1  0
  1 22  1  0
  3 23  1  0
  3 24  1  0
  4 25  1  0
  4 26  1  0
  6 27  1  0
  6 28  1  0
  7 29  1  6
  9 30  1  0
 10 31  1  0
 11 32  1  0
 13 33  1  6
 14 34  1  0
 16 35  1  0
 18 36  1  0
 20 37  1  0
 20 38  1  0
 20 39  1  0
M  ISO  8  21   8  22   8  23  13  24  13  25  13  26  13  27  13  28  13
M  ISO  8  29  13  30  14  31  14  32  14  33   8  34  14  35  14  36  14
M  ISO  3  37   8  38   8  39   8
M  END
>  <minimizedAffinity>  (1) 
-4.94488859

>  <minimizedRMSD>  (1) 
1.08110225

$$$$
