
     RDKit          3D

 40 43  0  0  1  0  0  0  0  0999 V2000
   43.5360   35.4340   41.8910 C   0  0  0  0  0  0  0  0  0  0  0  0
   42.2420   35.1610   42.2550 C   0  0  0  0  0  0  0  0  0  0  0  0
   41.5830   34.7870   41.1000 C   0  0  0  0  0  0  0  0  0  0  0  0
   42.5170   34.8600   40.1440 N   0  0  0  0  0  0  0  0  0  0  0  0
   43.7110   35.2410   40.5500 N   0  0  0  0  0  0  0  0  0  0  0  0
   43.5610   34.4040   38.0180 N   0  0  0  0  0  0  0  0  0  0  0  0
   43.9230   32.9970   38.0440 C   0  0  0  0  0  0  0  0  0  0  0  0
   42.6560   32.2110   38.2550 C   0  0  0  0  0  0  0  0  0  0  0  0
   41.5950   33.2460   38.5350 C   0  0  0  0  0  0  0  0  0  0  0  0
   42.3320   34.5590   38.7130 C   0  0  1  0  0  0  0  0  0  0  0  0
   41.5380   35.6500   38.0860 C   0  0  0  0  0  0  0  0  0  0  0  0
   42.0270   36.4000   37.2620 O   0  0  0  0  0  0  0  0  0  0  0  0
   44.5890   35.8730   42.8340 C   0  0  0  0  0  0  0  0  0  0  0  0
   45.0990   36.9800   42.6960 O   0  0  0  0  0  0  0  0  0  0  0  0
   44.5520   35.3130   45.1820 C   0  0  0  0  0  0  0  0  0  0  0  0
   45.0080   35.0040   43.9020 C   0  0  0  0  0  0  0  0  0  0  0  0
   45.8090   33.9190   43.7280 C   0  0  0  0  0  0  0  0  0  0  0  0
   46.1390   33.1670   44.8310 N   0  0  0  0  0  0  0  0  0  0  0  0
   45.6950   33.4730   46.0600 C   0  0  0  0  0  0  0  0  0  0  0  0
   44.8950   34.5530   46.2480 N   0  0  0  0  0  0  0  0  0  0  0  0
   46.1280   32.5950   47.0880 N   0  0  0  0  0  0  0  0  0  0  0  0
   47.1680   31.8060   47.2690 N   0  0  0  0  0  0  0  0  0  0  0  0
   47.0640   31.1820   48.4690 C   0  0  0  0  0  0  0  0  0  0  0  0
   45.8990   31.6150   49.0460 C   0  0  0  0  0  0  0  0  0  0  0  0
   45.3190   32.5190   48.1430 C   0  0  0  0  0  0  0  0  0  0  0  0
   41.8139   35.2268   43.2661 H   0  0  0  0  0  0  0  0  0  0  0  0
   40.5281   34.4949   40.9905 H   0  0  0  0  0  0  0  0  0  0  0  0
   44.2946   34.9613   38.4785 H   0  0  0  0  0  0  0  0  0  0  0  0
   44.3887   32.7107   37.0895 H   0  0  0  0  0  0  0  0  0  0  0  0
   44.6441   32.7959   38.8499 H   0  0  0  0  0  0  0  0  0  0  0  0
   42.4044   31.6340   37.3529 H   0  0  0  0  0  0  0  0  0  0  0  0
   42.7522   31.4859   39.0766 H   0  0  0  0  0  0  0  0  0  0  0  0
   40.8932   33.3126   37.6906 H   0  0  0  0  0  0  0  0  0  0  0  0
   41.0060   32.9892   39.4278 H   0  0  0  0  0  0  0  0  0  0  0  0
   40.4846   35.7816   38.3740 H   0  0  0  0  0  0  0  0  0  0  0  0
   43.9027   36.1888   45.3283 H   0  0  0  0  0  0  0  0  0  0  0  0
   46.1837   33.6495   42.7295 H   0  0  0  0  0  0  0  0  0  0  0  0
   47.7792   30.4645   48.8976 H   0  0  0  0  0  0  0  0  0  0  0  0
   45.4974   31.3133   50.0246 H   0  0  0  0  0  0  0  0  0  0  0  0
   44.3730   33.0631   48.2808 H   0  0  0  0  0  0  0  0  0  0  0  0
  1  2  1  0
  1 13  1  0
  3  2  2  0
  4  5  1  0
  4  3  1  0
  5  1  2  0
  6  7  1  0
  6 10  1  0
  7  8  1  0
  8  9  1  0
  9 10  1  0
 10 11  1  0
 10  4  1  1
 12 11  2  0
 13 16  1  0
 14 13  2  0
 15 20  2  0
 16 15  1  0
 17 16  2  0
 17 18  1  0
 18 19  2  0
 19 20  1  0
 19 21  1  0
 21 22  1  0
 21 25  1  0
 22 23  2  0
 23 24  1  0
 25 24  2  0
  2 26  1  0
  3 27  1  0
  6 28  1  0
  7 29  1  0
  7 30  1  0
  8 31  1  0
  8 32  1  0
  9 33  1  0
  9 34  1  0
 11 35  1  0
 15 36  1  0
 17 37  1  0
 23 38  1  0
 24 39  1  0
 25 40  1  0
M  ISO  8  26  14  27  14  28   5  29  13  30  13  31  13  32  13  33  13
M  ISO  7  34  13  35   6  36  14  37  14  38  14  39  14  40  14
M  END
>  <minimizedAffinity>  (1) 
-6.19850636

>  <minimizedRMSD>  (1) 
1.51664996

$$$$
