
     RDKit          3D

 16 16  0  0  0  0  0  0  0  0999 V2000
   45.5720   34.3590   44.6790 C   0  0  0  0  0  0  0  0  0  0  0  0
   46.5040   33.8180   43.8030 C   0  0  0  0  0  0  0  0  0  0  0  0
   47.2830   32.7770   44.2810 C   0  0  0  0  0  0  0  0  0  0  0  0
   47.0890   32.3660   45.5460 N   0  0  0  0  0  0  0  0  0  0  0  0
   46.1900   32.9020   46.3670 C   0  0  0  0  0  0  0  0  0  0  0  0
   45.4230   33.9100   45.9290 N   0  0  0  0  0  0  0  0  0  0  0  0
   46.5690   34.4100   42.4560 C   0  0  0  0  0  0  0  0  0  0  0  0
   47.4510   33.6540   41.6680 F   0  0  0  0  0  0  0  0  0  0  0  0
   47.0030   35.7000   42.4140 F   0  0  0  0  0  0  0  0  0  0  0  0
   45.3660   34.3060   41.7790 F   0  0  0  0  0  0  0  0  0  0  0  0
   44.6290   35.4310   44.4460 C   0  0  0  0  0  0  0  0  0  0  0  0
   44.7450   36.6720   44.4880 O   0  0  0  0  0  0  0  0  0  0  0  0
   43.3660   35.8330   44.1270 O   0  0  0  0  0  0  0  0  0  0  0  0
   48.0404   32.2993   43.6422 H   0  0  0  0  0  0  0  0  0  0  0  0
   46.0775   32.5224   47.3933 H   0  0  0  0  0  0  0  0  0  0  0  0
   42.6644   35.1598   43.9409 H   0  0  0  0  0  0  0  0  0  0  0  0
  1  6  2  0
  2  3  2  0
  2  1  1  0
  3  4  1  0
  4  5  2  0
  6  5  1  0
  7  2  1  0
  8  7  1  0
  9  7  1  0
 10  7  1  0
 11 12  2  0
 11  1  1  0
 13 11  1  0
  3 14  1  0
  5 15  1  0
 13 16  1  0
M  ISO  3  14  14  15  14  16   3
M  END
>  <minimizedAffinity>  (1) 
-4.52550745

>  <minimizedRMSD>  (1) 
1.36429381

$$$$
