
     RDKit          3D

 41 44  0  0  1  0  0  0  0  0999 V2000
   45.0300   34.7070   41.6470 C   0  0  0  0  0  0  0  0  0  0  0  0
   43.7550   34.5040   41.2080 C   0  0  0  0  0  0  0  0  0  0  0  0
   43.8670   33.8740   39.9910 C   0  0  0  0  0  0  0  0  0  0  0  0
   45.1700   33.7390   39.7800 N   0  0  0  0  0  0  0  0  0  0  0  0
   45.9330   34.2220   40.7420 N   0  0  0  0  0  0  0  0  0  0  0  0
   46.9960   33.8490   38.2040 N   0  0  0  0  0  0  0  0  0  0  0  0
   48.1410   33.2770   38.8930 C   0  0  0  0  0  0  0  0  0  0  0  0
   47.7870   31.8740   39.2820 C   0  0  0  0  0  0  0  0  0  0  0  0
   46.3270   31.7340   38.9560 C   0  0  0  0  0  0  0  0  0  0  0  0
   45.8440   33.1380   38.6330 C   0  0  1  0  0  0  0  0  0  0  0  0
   44.8710   33.0170   37.4520 C   0  0  0  0  0  0  0  0  0  0  0  0
   44.1630   31.8530   37.5660 F   0  0  0  0  0  0  0  0  0  0  0  0
   43.9880   34.1010   37.5430 F   0  0  0  0  0  0  0  0  0  0  0  0
   45.5740   33.1450   36.2790 F   0  0  0  0  0  0  0  0  0  0  0  0
   45.3630   35.3620   42.9280 C   0  0  0  0  0  0  0  0  0  0  0  0
   45.3780   36.5910   42.9990 O   0  0  0  0  0  0  0  0  0  0  0  0
   44.8900   34.7850   45.2240 C   0  0  0  0  0  0  0  0  0  0  0  0
   45.6700   34.5660   44.0910 C   0  0  0  0  0  0  0  0  0  0  0  0
   46.6620   33.6310   44.1400 C   0  0  0  0  0  0  0  0  0  0  0  0
   46.8430   32.9500   45.3040 N   0  0  0  0  0  0  0  0  0  0  0  0
   46.0900   33.1610   46.4010 C   0  0  0  0  0  0  0  0  0  0  0  0
   45.1050   34.0860   46.3610 N   0  0  0  0  0  0  0  0  0  0  0  0
   46.4230   32.3590   47.5190 N   0  0  0  0  0  0  0  0  0  0  0  0
   47.5060   31.7540   47.9610 N   0  0  0  0  0  0  0  0  0  0  0  0
   47.2240   31.1100   49.1210 C   0  0  0  0  0  0  0  0  0  0  0  0
   45.9010   31.3350   49.3980 C   0  0  0  0  0  0  0  0  0  0  0  0
   45.4110   32.1320   48.3650 C   0  0  0  0  0  0  0  0  0  0  0  0
   42.8252   34.7870   41.7232 H   0  0  0  0  0  0  0  0  0  0  0  0
   43.0486   33.5501   39.3312 H   0  0  0  0  0  0  0  0  0  0  0  0
   47.1122   33.7495   37.1854 H   0  0  0  0  0  0  0  0  0  0  0  0
   49.0150   33.2710   38.2251 H   0  0  0  0  0  0  0  0  0  0  0  0
   48.3899   33.8718   39.7842 H   0  0  0  0  0  0  0  0  0  0  0  0
   48.3826   31.1513   38.7049 H   0  0  0  0  0  0  0  0  0  0  0  0
   47.9929   31.6764   40.3443 H   0  0  0  0  0  0  0  0  0  0  0  0
   46.1890   31.0715   38.0888 H   0  0  0  0  0  0  0  0  0  0  0  0
   45.7640   31.2920   39.7913 H   0  0  0  0  0  0  0  0  0  0  0  0
   44.0879   35.5372   45.1932 H   0  0  0  0  0  0  0  0  0  0  0  0
   47.2972   33.4333   43.2640 H   0  0  0  0  0  0  0  0  0  0  0  0
   47.9261   30.5178   49.7262 H   0  0  0  0  0  0  0  0  0  0  0  0
   45.3369   30.9604   50.2648 H   0  0  0  0  0  0  0  0  0  0  0  0
   44.3815   32.5059   48.2636 H   0  0  0  0  0  0  0  0  0  0  0  0
  1 15  1  0
  2  1  1  0
  3  2  2  0
  4  3  1  0
  4  5  1  0
  5  1  2  0
  6 10  1  0
  6  7  1  0
  7  8  1  0
  9  8  1  0
 10 11  1  6
 10  9  1  0
 10  4  1  0
 11 13  1  0
 11 12  1  0
 14 11  1  0
 15 16  2  0
 15 18  1  0
 17 22  2  0
 18 19  2  0
 18 17  1  0
 19 20  1  0
 20 21  2  0
 21 23  1  0
 22 21  1  0
 23 24  1  0
 23 27  1  0
 24 25  2  0
 25 26  1  0
 27 26  2  0
  2 28  1  0
  3 29  1  0
  6 30  1  0
  7 31  1  0
  7 32  1  0
  8 33  1  0
  8 34  1  0
  9 35  1  0
  9 36  1  0
 17 37  1  0
 19 38  1  0
 25 39  1  0
 26 40  1  0
 27 41  1  0
M  ISO  8  28  14  29  14  30   5  31  13  32  13  33  13  34  13  35  13
M  ISO  6  36  13  37  14  38  14  39  14  40  14  41  14
M  END
>  <minimizedAffinity>  (1) 
-6.10925865

>  <minimizedRMSD>  (1) 
1.23860216

$$$$
