
     RDKit          3D

 36 39  0  0  1  0  0  0  0  0999 V2000
   45.6940   33.7600   42.2910 N   0  0  0  0  0  0  0  0  0  0  0  0
   45.0910   33.7190   43.5980 C   0  0  0  0  0  0  0  0  0  0  0  0
   45.3690   35.1090   44.0760 C   0  0  0  0  0  0  0  0  0  0  0  0
   45.1710   35.9360   42.8520 C   0  0  0  0  0  0  0  0  0  0  0  0
   45.0320   34.9330   41.7200 C   0  0  2  0  0  0  0  0  0  0  0  0
   43.7030   34.6740   41.2990 N   0  0  0  0  0  0  0  0  0  0  0  0
   42.5190   34.9970   41.8740 C   0  0  0  0  0  0  0  0  0  0  0  0
   41.5120   34.5240   41.0820 N   0  0  0  0  0  0  0  0  0  0  0  0
   42.0800   33.9050   40.0120 C   0  0  0  0  0  0  0  0  0  0  0  0
   41.5170   33.2660   38.9280 C   0  0  0  0  0  0  0  0  0  0  0  0
   42.2980   32.7150   37.9700 N   0  0  0  0  0  0  0  0  0  0  0  0
   43.6440   32.8120   38.1130 C   0  0  0  0  0  0  0  0  0  0  0  0
   44.1810   33.4430   39.1820 N   0  0  0  0  0  0  0  0  0  0  0  0
   43.4310   33.9990   40.1480 C   0  0  0  0  0  0  0  0  0  0  0  0
   46.6730   33.0000   41.5800 C   0  0  0  0  0  0  0  0  0  0  0  0
   48.0320   33.3420   41.4760 C   0  0  0  0  0  0  0  0  0  0  0  0
   48.8660   32.5030   40.7420 C   0  0  0  0  0  0  0  0  0  0  0  0
   48.3290   31.4150   40.1740 N   0  0  0  0  0  0  0  0  0  0  0  0
   47.0270   31.1080   40.2870 C   0  0  0  0  0  0  0  0  0  0  0  0
   46.1840   31.9020   40.9940 N   0  0  0  0  0  0  0  0  0  0  0  0
   48.4590   34.5840   42.1750 C   0  0  0  0  0  0  0  0  0  0  0  0
   49.8490   34.7250   42.0520 F   0  0  0  0  0  0  0  0  0  0  0  0
   48.2100   34.5660   43.5100 F   0  0  0  0  0  0  0  0  0  0  0  0
   47.9780   35.7110   41.6020 F   0  0  0  0  0  0  0  0  0  0  0  0
   44.0109   33.5189   43.5399 H   0  0  0  0  0  0  0  0  0  0  0  0
   45.4772   32.9250   44.2541 H   0  0  0  0  0  0  0  0  0  0  0  0
   44.6644   35.4020   44.8683 H   0  0  0  0  0  0  0  0  0  0  0  0
   46.3711   35.2218   44.5154 H   0  0  0  0  0  0  0  0  0  0  0  0
   44.2609   36.5473   42.9412 H   0  0  0  0  0  0  0  0  0  0  0  0
   46.0040   36.6349   42.6856 H   0  0  0  0  0  0  0  0  0  0  0  0
   45.4728   35.2962   40.7799 H   0  0  0  0  0  0  0  0  0  0  0  0
   42.3909   35.5467   42.8181 H   0  0  0  0  0  0  0  0  0  0  0  0
   40.4222   33.2034   38.8409 H   0  0  0  0  0  0  0  0  0  0  0  0
   44.3052   32.3728   37.3515 H   0  0  0  0  0  0  0  0  0  0  0  0
   49.9372   32.7274   40.6314 H   0  0  0  0  0  0  0  0  0  0  0  0
   46.6387   30.2012   39.8002 H   0  0  0  0  0  0  0  0  0  0  0  0
  1  2  1  0
  2  3  1  0
  4  3  1  0
  5  1  1  0
  5  4  1  0
  6  5  1  0
  6  7  1  0
  8  7  2  0
  9 14  2  0
  9  8  1  0
 10  9  1  0
 11 12  1  0
 11 10  2  0
 12 13  2  0
 13 14  1  0
 14  6  1  0
 15  1  1  0
 16 15  2  0
 16 21  1  0
 17 16  1  0
 18 19  1  0
 18 17  2  0
 19 20  2  0
 20 15  1  0
 21 23  1  0
 22 21  1  0
 24 21  1  0
  2 25  1  0
  2 26  1  0
  3 27  1  0
  3 28  1  0
  4 29  1  0
  4 30  1  0
  5 31  1  6
  7 32  1  0
 10 33  1  0
 12 34  1  0
 17 35  1  0
 19 36  1  0
M  ISO  8  25  13  26  13  27  13  28  13  29  13  30  13  31  13  32  14
M  ISO  4  33  14  34  14  35  14  36  14
M  END
>  <minimizedAffinity>  (1) 
-5.05533409

>  <minimizedRMSD>  (1) 
6.66720104

$$$$
