
     RDKit          3D

 39 42  0  0  1  0  0  0  0  0999 V2000
   46.2080   33.0160   42.9210 N   0  0  0  0  0  0  0  0  0  0  0  0
   44.8480   33.2570   43.3600 C   0  0  0  0  0  0  0  0  0  0  0  0
   44.1310   32.1880   42.6000 C   0  0  0  0  0  0  0  0  0  0  0  0
   45.0610   31.0420   42.6520 C   0  0  0  0  0  0  0  0  0  0  0  0
   46.3650   31.5770   43.2090 C   0  0  2  0  0  0  0  0  0  0  0  0
   46.6020   31.2990   44.6240 C   0  0  0  0  0  0  0  0  0  0  0  0
   45.9130   31.7190   45.6990 N   0  0  0  0  0  0  0  0  0  0  0  0
   46.2030   31.4280   46.9750 C   0  0  0  0  0  0  0  0  0  0  0  0
   47.2540   30.6580   47.3130 N   0  0  0  0  0  0  0  0  0  0  0  0
   47.9950   30.1960   46.2920 C   0  0  0  0  0  0  0  0  0  0  0  0
   49.0630   29.4080   46.6690 C   0  0  0  0  0  0  0  0  0  0  0  0
   49.8850   28.8810   45.6950 C   0  0  0  0  0  0  0  0  0  0  0  0
   49.6250   29.1530   44.3680 C   0  0  0  0  0  0  0  0  0  0  0  0
   48.5390   29.9500   44.0740 C   0  0  0  0  0  0  0  0  0  0  0  0
   47.6740   30.5110   44.9880 C   0  0  0  0  0  0  0  0  0  0  0  0
   47.2490   33.8000   42.3270 C   0  0  0  0  0  0  0  0  0  0  0  0
   47.3310   34.1140   40.9580 C   0  0  0  0  0  0  0  0  0  0  0  0
   48.3960   34.8830   40.5220 C   0  0  0  0  0  0  0  0  0  0  0  0
   49.2970   35.2890   41.4350 N   0  0  0  0  0  0  0  0  0  0  0  0
   49.1990   34.9770   42.7480 C   0  0  0  0  0  0  0  0  0  0  0  0
   48.1700   34.2290   43.1940 N   0  0  0  0  0  0  0  0  0  0  0  0
   46.2460   33.5810   40.0900 C   0  0  0  0  0  0  0  0  0  0  0  0
   46.5450   33.8750   38.7510 F   0  0  0  0  0  0  0  0  0  0  0  0
   45.0400   34.1600   40.3260 F   0  0  0  0  0  0  0  0  0  0  0  0
   46.1470   32.2340   40.1070 F   0  0  0  0  0  0  0  0  0  0  0  0
   44.7414   33.1254   44.4469 H   0  0  0  0  0  0  0  0  0  0  0  0
   44.4791   34.2775   43.1798 H   0  0  0  0  0  0  0  0  0  0  0  0
   43.9492   32.4995   41.5608 H   0  0  0  0  0  0  0  0  0  0  0  0
   43.1415   31.9550   43.0203 H   0  0  0  0  0  0  0  0  0  0  0  0
   44.6603   30.2559   43.3089 H   0  0  0  0  0  0  0  0  0  0  0  0
   45.2042   30.5979   41.6559 H   0  0  0  0  0  0  0  0  0  0  0  0
   47.2508   31.1017   42.7625 H   0  0  0  0  0  0  0  0  0  0  0  0
   45.5611   31.8317   47.7719 H   0  0  0  0  0  0  0  0  0  0  0  0
   49.2563   29.2028   47.7323 H   0  0  0  0  0  0  0  0  0  0  0  0
   50.7409   28.2490   45.9741 H   0  0  0  0  0  0  0  0  0  0  0  0
   50.2637   28.7470   43.5697 H   0  0  0  0  0  0  0  0  0  0  0  0
   48.3452   30.1572   43.0112 H   0  0  0  0  0  0  0  0  0  0  0  0
   48.5025   35.1540   39.4612 H   0  0  0  0  0  0  0  0  0  0  0  0
   49.9622   35.3353   43.4545 H   0  0  0  0  0  0  0  0  0  0  0  0
  1  5  1  0
  1  2  1  0
  3  4  1  0
  3  2  1  0
  4  5  1  0
  5  6  1  0
  6 15  1  0
  6  7  2  0
  7  8  1  0
  8  9  2  0
 10 11  2  0
 10  9  1  0
 12 11  1  0
 13 12  2  0
 14 13  1  0
 14 15  2  0
 15 10  1  0
 16  1  1  0
 16 21  1  0
 17 16  2  0
 18 17  1  0
 18 19  2  0
 19 20  1  0
 20 21  2  0
 22 25  1  0
 22 24  1  0
 22 17  1  0
 23 22  1  0
  2 26  1  0
  2 27  1  0
  3 28  1  0
  3 29  1  0
  4 30  1  0
  4 31  1  0
  5 32  1  6
  8 33  1  0
 11 34  1  0
 12 35  1  0
 13 36  1  0
 14 37  1  0
 18 38  1  0
 20 39  1  0
M  ISO  8  26  13  27  13  28  13  29  13  30  13  31  13  32  13  33  14
M  ISO  6  34  14  35  14  36  14  37  14  38  14  39  14
M  END
>  <minimizedAffinity>  (1) 
-4.41885138

>  <minimizedRMSD>  (1) 
3.29363155

$$$$
