
     RDKit          3D

 35 37  0  0  1  0  0  0  0  0999 V2000
   45.7560   31.8040   43.2950 N   0  0  0  0  0  0  0  0  0  0  0  0
   46.8960   31.0360   42.8500 C   0  0  0  0  0  0  0  0  0  0  0  0
   47.9780   31.6540   43.6790 C   0  0  0  0  0  0  0  0  0  0  0  0
   47.3190   31.8880   44.9950 C   0  0  0  0  0  0  0  0  0  0  0  0
   45.8540   31.6100   44.7440 C   0  0  2  0  0  0  0  0  0  0  0  0
   45.3460   30.3900   45.2260 N   0  0  0  0  0  0  0  0  0  0  0  0
   44.9350   29.3330   44.5100 C   0  0  0  0  0  0  0  0  0  0  0  0
   44.4440   28.1590   45.0250 C   0  0  0  0  0  0  0  0  0  0  0  0
   44.3590   28.0360   46.3970 C   0  0  0  0  0  0  0  0  0  0  0  0
   43.9220   26.9950   46.9080 O   0  0  0  0  0  0  0  0  0  0  0  0
   44.7690   29.0920   47.1280 N   0  0  0  0  0  0  0  0  0  0  0  0
   45.2440   30.2250   46.5800 C   0  0  0  0  0  0  0  0  0  0  0  0
   45.5870   31.1230   47.4180 O   0  0  0  0  0  0  0  0  0  0  0  0
   44.7410   32.5970   42.6820 C   0  0  0  0  0  0  0  0  0  0  0  0
   44.8160   33.9800   42.5000 C   0  0  0  0  0  0  0  0  0  0  0  0
   43.7380   34.6300   41.8880 C   0  0  0  0  0  0  0  0  0  0  0  0
   42.6900   33.8810   41.5070 N   0  0  0  0  0  0  0  0  0  0  0  0
   42.6440   32.5580   41.6910 C   0  0  0  0  0  0  0  0  0  0  0  0
   43.6700   31.9090   42.2800 N   0  0  0  0  0  0  0  0  0  0  0  0
   46.0530   34.6570   42.9720 C   0  0  0  0  0  0  0  0  0  0  0  0
   45.9570   36.0340   42.7140 F   0  0  0  0  0  0  0  0  0  0  0  0
   47.1790   34.2440   42.3330 F   0  0  0  0  0  0  0  0  0  0  0  0
   46.2070   34.5990   44.3150 F   0  0  0  0  0  0  0  0  0  0  0  0
   46.7761   29.9651   43.0709 H   0  0  0  0  0  0  0  0  0  0  0  0
   47.0748   31.0657   41.7650 H   0  0  0  0  0  0  0  0  0  0  0  0
   48.8325   30.9692   43.7837 H   0  0  0  0  0  0  0  0  0  0  0  0
   48.3849   32.5743   43.2345 H   0  0  0  0  0  0  0  0  0  0  0  0
   47.7191   31.2027   45.7568 H   0  0  0  0  0  0  0  0  0  0  0  0
   47.4912   32.9070   45.3719 H   0  0  0  0  0  0  0  0  0  0  0  0
   45.1997   32.2766   45.3250 H   0  0  0  0  0  0  0  0  0  0  0  0
   44.9967   29.4138   43.4147 H   0  0  0  0  0  0  0  0  0  0  0  0
   44.1273   27.3396   44.3629 H   0  0  0  0  0  0  0  0  0  0  0  0
   44.7160   29.0282   48.1547 H   0  0  0  0  0  0  0  0  0  0  0  0
   43.7486   35.7177   41.7245 H   0  0  0  0  0  0  0  0  0  0  0  0
   41.7609   31.9925   41.3589 H   0  0  0  0  0  0  0  0  0  0  0  0
  1  5  1  0
  2  1  1  0
  2  3  1  0
  3  4  1  0
  5  4  1  0
  5  6  1  0
  6 12  1  0
  7  8  2  0
  7  6  1  0
  8  9  1  0
  9 10  2  0
  9 11  1  0
 12 11  1  0
 12 13  2  0
 14  1  1  0
 15 14  2  0
 15 20  1  0
 16 15  1  0
 17 18  1  0
 17 16  2  0
 18 19  2  0
 19 14  1  0
 20 23  1  0
 21 20  1  0
 22 20  1  0
  2 24  1  0
  2 25  1  0
  3 26  1  0
  3 27  1  0
  4 28  1  0
  4 29  1  0
  5 30  1  1
  7 31  1  0
  8 32  1  0
 11 33  1  0
 16 34  1  0
 18 35  1  0
M  ISO  8  24  13  25  13  26  13  27  13  28  13  29  13  30  13  31  14
M  ISO  4  32  14  33   9  34  14  35  14
M  END
>  <minimizedAffinity>  (1) 
-4.17115068

>  <minimizedRMSD>  (1) 
4.20683384

$$$$
