
     RDKit          3D

 35 37  0  0  1  0  0  0  0  0999 V2000
   47.2450   32.5820   44.6910 N   0  0  0  0  0  0  0  0  0  0  0  0
   47.1510   32.5660   46.1250 C   0  0  0  0  0  0  0  0  0  0  0  0
   45.8160   31.9140   46.3080 C   0  0  0  0  0  0  0  0  0  0  0  0
   45.7970   30.8770   45.2410 C   0  0  0  0  0  0  0  0  0  0  0  0
   47.0200   31.1800   44.3700 C   0  0  2  0  0  0  0  0  0  0  0  0
   47.4580   33.5680   43.6810 C   0  0  0  0  0  0  0  0  0  0  0  0
   46.4920   34.4730   43.2200 C   0  0  0  0  0  0  0  0  0  0  0  0
   46.8400   35.3800   42.2140 C   0  0  0  0  0  0  0  0  0  0  0  0
   48.1010   35.3290   41.7400 N   0  0  0  0  0  0  0  0  0  0  0  0
   49.0030   34.4590   42.1930 C   0  0  0  0  0  0  0  0  0  0  0  0
   48.6830   33.5850   43.1570 N   0  0  0  0  0  0  0  0  0  0  0  0
   45.1490   34.3950   43.8570 C   0  0  0  0  0  0  0  0  0  0  0  0
   44.2940   35.3340   43.2620 F   0  0  0  0  0  0  0  0  0  0  0  0
   45.1610   34.7110   45.1810 F   0  0  0  0  0  0  0  0  0  0  0  0
   44.5280   33.2160   43.6440 F   0  0  0  0  0  0  0  0  0  0  0  0
   48.1410   30.2810   44.6560 C   0  0  0  0  0  0  0  0  0  0  0  0
   49.1870   30.1940   43.7270 C   0  0  0  0  0  0  0  0  0  0  0  0
   50.2720   29.3610   43.9000 C   0  0  0  0  0  0  0  0  0  0  0  0
   50.3840   28.5530   45.0260 C   0  0  0  0  0  0  0  0  0  0  0  0
   49.3640   28.6170   45.9650 C   0  0  0  0  0  0  0  0  0  0  0  0
   48.3190   29.4540   45.7420 C   0  0  0  0  0  0  0  0  0  0  0  0
   47.9581   31.9712   46.5775 H   0  0  0  0  0  0  0  0  0  0  0  0
   47.2459   33.5536   46.6000 H   0  0  0  0  0  0  0  0  0  0  0  0
   45.7335   31.4563   47.3048 H   0  0  0  0  0  0  0  0  0  0  0  0
   44.9765   32.6213   46.2381 H   0  0  0  0  0  0  0  0  0  0  0  0
   45.8741   29.8708   45.6787 H   0  0  0  0  0  0  0  0  0  0  0  0
   44.8622   30.8982   44.6615 H   0  0  0  0  0  0  0  0  0  0  0  0
   46.8871   31.0137   43.2908 H   0  0  0  0  0  0  0  0  0  0  0  0
   46.1125   36.1073   41.8243 H   0  0  0  0  0  0  0  0  0  0  0  0
   50.0192   34.4583   41.7719 H   0  0  0  0  0  0  0  0  0  0  0  0
   49.1403   30.8168   42.8215 H   0  0  0  0  0  0  0  0  0  0  0  0
   51.0618   29.3352   43.1348 H   0  0  0  0  0  0  0  0  0  0  0  0
   51.2487   27.8879   45.1673 H   0  0  0  0  0  0  0  0  0  0  0  0
   49.4018   27.9997   46.8747 H   0  0  0  0  0  0  0  0  0  0  0  0
   47.5315   29.4735   46.5098 H   0  0  0  0  0  0  0  0  0  0  0  0
  1  2  1  0
  2  3  1  0
  4  3  1  0
  5 16  1  0
  5  1  1  0
  5  4  1  0
  6  1  1  0
  7  6  2  0
  7 12  1  0
  8  7  1  0
  9 10  1  0
  9  8  2  0
 10 11  2  0
 11  6  1  0
 12 14  1  0
 13 12  1  0
 15 12  1  0
 16 21  2  0
 17 18  2  0
 17 16  1  0
 18 19  1  0
 19 20  2  0
 21 20  1  0
  2 22  1  0
  2 23  1  0
  3 24  1  0
  3 25  1  0
  4 26  1  0
  4 27  1  0
  5 28  1  6
  8 29  1  0
 10 30  1  0
 17 31  1  0
 18 32  1  0
 19 33  1  0
 20 34  1  0
 21 35  1  0
M  ISO  8  22  13  23  13  24  13  25  13  26  13  27  13  28  13  29  14
M  ISO  6  30  14  31  14  32  14  33  14  34  14  35  14
M  END
>  <minimizedAffinity>  (1) 
-4.13250828

>  <minimizedRMSD>  (1) 
0.902860701

$$$$
