
     RDKit          3D

 45 47  0  0  1  0  0  0  0  0999 V2000
   48.3940   34.4770   41.3000 N   0  0  0  0  0  0  0  0  0  0  0  0
   49.6110   34.6700   42.0380 C   0  0  0  0  0  0  0  0  0  0  0  0
   50.3760   33.4440   42.3700 C   0  0  0  0  0  0  0  0  0  0  0  0
   49.4250   32.4850   42.7510 O   0  0  0  0  0  0  0  0  0  0  0  0
   48.8900   32.0690   41.5390 C   0  0  0  0  0  0  0  0  0  0  0  0
   48.2260   33.1890   40.7670 C   0  0  2  0  0  0  0  0  0  0  0  0
   48.7190   33.1880   39.3790 N   0  0  0  0  0  0  0  0  0  0  0  0
   48.2620   34.4010   38.7450 C   0  0  0  0  0  0  0  0  0  0  0  0
   47.9950   34.1850   37.2550 C   0  0  0  0  0  0  0  0  0  0  0  0
   46.8400   33.4270   37.1090 O   0  0  0  0  0  0  0  0  0  0  0  0
   46.6680   32.5550   38.1770 C   0  0  0  0  0  0  0  0  0  0  0  0
   48.0020   32.0850   38.7290 C   0  0  0  0  0  0  0  0  0  0  0  0
   47.3210   35.1160   41.9670 C   0  0  0  0  0  0  0  0  0  0  0  0
   46.0550   34.3140   42.1330 C   0  0  1  0  0  0  0  0  0  0  0  0
   44.8300   35.5000   44.0220 C   0  0  0  0  0  0  0  0  0  0  0  0
   45.6310   34.4160   43.5400 C   0  0  0  0  0  0  0  0  0  0  0  0
   45.9910   33.4690   44.4810 C   0  0  0  0  0  0  0  0  0  0  0  0
   45.5740   33.6250   45.7650 N   0  0  0  0  0  0  0  0  0  0  0  0
   44.8230   34.6520   46.1850 C   0  0  0  0  0  0  0  0  0  0  0  0
   44.4490   35.6030   45.2940 N   0  0  0  0  0  0  0  0  0  0  0  0
   44.9740   34.7310   41.2080 C   0  0  0  0  0  0  0  0  0  0  0  0
   50.2653   35.3228   41.4416 H   0  0  0  0  0  0  0  0  0  0  0  0
   49.3050   35.0971   43.0044 H   0  0  0  0  0  0  0  0  0  0  0  0
   50.9393   33.0956   41.4917 H   0  0  0  0  0  0  0  0  0  0  0  0
   51.1048   33.6293   43.1728 H   0  0  0  0  0  0  0  0  0  0  0  0
   49.7006   31.6521   40.9233 H   0  0  0  0  0  0  0  0  0  0  0  0
   48.1154   31.3205   41.7622 H   0  0  0  0  0  0  0  0  0  0  0  0
   47.1487   32.9757   40.8306 H   0  0  0  0  0  0  0  0  0  0  0  0
   47.3319   34.7305   39.2312 H   0  0  0  0  0  0  0  0  0  0  0  0
   49.0480   35.1635   38.8490 H   0  0  0  0  0  0  0  0  0  0  0  0
   47.8631   35.1579   36.7589 H   0  0  0  0  0  0  0  0  0  0  0  0
   48.8457   33.6592   36.7968 H   0  0  0  0  0  0  0  0  0  0  0  0
   46.1125   33.0707   38.9742 H   0  0  0  0  0  0  0  0  0  0  0  0
   46.1121   31.6756   37.8198 H   0  0  0  0  0  0  0  0  0  0  0  0
   47.8258   31.2869   39.4652 H   0  0  0  0  0  0  0  0  0  0  0  0
   48.6146   31.7112   37.8954 H   0  0  0  0  0  0  0  0  0  0  0  0
   47.6721   35.3968   42.9709 H   0  0  0  0  0  0  0  0  0  0  0  0
   47.0443   35.9645   41.3240 H   0  0  0  0  0  0  0  0  0  0  0  0
   46.2655   33.2667   41.8705 H   0  0  0  0  0  0  0  0  0  0  0  0
   44.5162   36.2800   43.3127 H   0  0  0  0  0  0  0  0  0  0  0  0
   46.6055   32.6027   44.1947 H   0  0  0  0  0  0  0  0  0  0  0  0
   44.5141   34.7226   47.2384 H   0  0  0  0  0  0  0  0  0  0  0  0
   44.1030   35.0670   41.7897 H   0  0  0  0  0  0  0  0  0  0  0  0
   45.3317   35.5557   40.5740 H   0  0  0  0  0  0  0  0  0  0  0  0
   44.6853   33.8797   40.5740 H   0  0  0  0  0  0  0  0  0  0  0  0
  1 13  1  0
  1  2  1  0
  2  3  1  0
  3  4  1  0
  5  4  1  0
  6  1  1  0
  6  5  1  0
  7  6  1  0
  8  7  1  0
  9  8  1  0
 10  9  1  0
 10 11  1  0
 11 12  1  0
 12  7  1  0
 13 14  1  0
 14 16  1  0
 15 20  2  0
 16 15  1  0
 16 17  2  0
 17 18  1  0
 18 19  2  0
 20 19  1  0
 21 14  1  0
  2 22  1  0
  2 23  1  0
  3 24  1  0
  3 25  1  0
  5 26  1  0
  5 27  1  0
  6 28  1  6
  8 29  1  0
  8 30  1  0
  9 31  1  0
  9 32  1  0
 11 33  1  0
 11 34  1  0
 12 35  1  0
 12 36  1  0
 13 37  1  0
 13 38  1  0
 14 39  1  6
 15 40  1  0
 17 41  1  0
 19 42  1  0
 21 43  1  0
 21 44  1  0
 21 45  1  0
M  ISO  8  22  13  23  13  24  13  25  13  26  13  27  13  28  13  29  13
M  ISO  8  30  13  31  13  32  13  33  13  34  13  35  13  36  13  37   8
M  ISO  8  38   8  39   8  40  14  41  14  42  14  43   8  44   8  45   8
M  END
>  <minimizedAffinity>  (1) 
-4.89082813

>  <minimizedRMSD>  (1) 
1.40194058

$$$$
