
     RDKit          3D

 41 43  0  0  1  0  0  0  0  0999 V2000
   47.2430   32.4480   44.6620 N   0  0  0  0  0  0  0  0  0  0  0  0
   47.1430   32.3930   46.1160 C   0  0  0  0  0  0  0  0  0  0  0  0
   45.8330   31.6840   46.2640 C   0  0  0  0  0  0  0  0  0  0  0  0
   45.8550   30.6830   45.1840 C   0  0  0  0  0  0  0  0  0  0  0  0
   47.0800   31.0540   44.3450 C   0  0  2  0  0  0  0  0  0  0  0  0
   47.4190   33.4840   43.7000 C   0  0  0  0  0  0  0  0  0  0  0  0
   46.4020   34.3240   43.2290 C   0  0  0  0  0  0  0  0  0  0  0  0
   46.7230   35.2820   42.2630 C   0  0  0  0  0  0  0  0  0  0  0  0
   48.0020   35.3380   41.8410 N   0  0  0  0  0  0  0  0  0  0  0  0
   48.9550   34.5280   42.3020 C   0  0  0  0  0  0  0  0  0  0  0  0
   48.6580   33.6060   43.2300 N   0  0  0  0  0  0  0  0  0  0  0  0
   45.0500   34.1300   43.8130 C   0  0  0  0  0  0  0  0  0  0  0  0
   44.1470   35.0220   43.2150 F   0  0  0  0  0  0  0  0  0  0  0  0
   44.9960   34.4100   45.1500 F   0  0  0  0  0  0  0  0  0  0  0  0
   44.5240   32.9140   43.5450 F   0  0  0  0  0  0  0  0  0  0  0  0
   48.2270   30.1560   44.5980 C   0  0  0  0  0  0  0  0  0  0  0  0
   47.8080   28.6990   44.7420 C   0  0  0  0  0  0  0  0  0  0  0  0
   48.3330   27.8560   43.6090 C   0  0  0  0  0  0  0  0  0  0  0  0
   48.0120   28.4840   42.2740 C   0  0  0  0  0  0  0  0  0  0  0  0
   48.6460   29.8440   42.2050 C   0  0  0  0  0  0  0  0  0  0  0  0
   49.2820   30.1560   43.5330 C   0  0  0  0  0  0  0  0  0  0  0  0
   47.9696   31.8188   46.5599 H   0  0  0  0  0  0  0  0  0  0  0  0
   47.1992   33.3692   46.6199 H   0  0  0  0  0  0  0  0  0  0  0  0
   45.7588   31.1980   47.2480 H   0  0  0  0  0  0  0  0  0  0  0  0
   44.9703   32.3634   46.1986 H   0  0  0  0  0  0  0  0  0  0  0  0
   45.9583   29.6683   45.5960 H   0  0  0  0  0  0  0  0  0  0  0  0
   44.9270   30.6834   44.5934 H   0  0  0  0  0  0  0  0  0  0  0  0
   46.9775   30.9163   43.2585 H   0  0  0  0  0  0  0  0  0  0  0  0
   45.9598   35.9652   41.8619 H   0  0  0  0  0  0  0  0  0  0  0  0
   49.9836   34.6155   41.9220 H   0  0  0  0  0  0  0  0  0  0  0  0
   48.6383   30.5700   45.5305 H   0  0  0  0  0  0  0  0  0  0  0  0
   48.2018   28.3065   45.6911 H   0  0  0  0  0  0  0  0  0  0  0  0
   46.7091   28.6538   44.7238 H   0  0  0  0  0  0  0  0  0  0  0  0
   49.4243   27.7594   43.7081 H   0  0  0  0  0  0  0  0  0  0  0  0
   47.8530   26.8674   43.6559 H   0  0  0  0  0  0  0  0  0  0  0  0
   48.4073   27.8519   41.4651 H   0  0  0  0  0  0  0  0  0  0  0  0
   46.9218   28.5774   42.1611 H   0  0  0  0  0  0  0  0  0  0  0  0
   49.4136   29.8536   41.4171 H   0  0  0  0  0  0  0  0  0  0  0  0
   47.8809   30.5994   41.9727 H   0  0  0  0  0  0  0  0  0  0  0  0
   50.0398   29.3934   43.7660 H   0  0  0  0  0  0  0  0  0  0  0  0
   49.7623   31.1447   43.4891 H   0  0  0  0  0  0  0  0  0  0  0  0
  1  2  1  0
  2  3  1  0
  4  3  1  0
  5 16  1  0
  5  1  1  0
  5  4  1  0
  6  1  1  0
  7  6  2  0
  7 12  1  0
  8  7  1  0
  9  8  2  0
  9 10  1  0
 10 11  2  0
 11  6  1  0
 12 14  1  0
 13 12  1  0
 15 12  1  0
 16 17  1  0
 18 17  1  0
 19 18  1  0
 20 19  1  0
 20 21  1  0
 21 16  1  0
  2 22  1  0
  2 23  1  0
  3 24  1  0
  3 25  1  0
  4 26  1  0
  4 27  1  0
  5 28  1  6
  8 29  1  0
 10 30  1  0
 16 31  1  0
 17 32  1  0
 17 33  1  0
 18 34  1  0
 18 35  1  0
 19 36  1  0
 19 37  1  0
 20 38  1  0
 20 39  1  0
 21 40  1  0
 21 41  1  0
M  ISO  8  22  13  23  13  24  13  25  13  26  13  27  13  28  13  29  14
M  ISO  8  30  14  31  13  32  13  33  13  34  13  35  13  36  13  37  13
M  ISO  4  38  13  39  13  40  13  41  13
M  END
>  <minimizedAffinity>  (1) 
-3.85738945

>  <minimizedRMSD>  (1) 
1.86146176

$$$$
