
     RDKit          3D

 31 33  0  0  1  0  0  0  0  0999 V2000
   47.2380   32.4250   44.6360 N   0  0  0  0  0  0  0  0  0  0  0  0
   47.1820   32.3410   46.0850 C   0  0  0  0  0  0  0  0  0  0  0  0
   45.8550   31.6600   46.2590 C   0  0  0  0  0  0  0  0  0  0  0  0
   45.8280   30.6790   45.1530 C   0  0  0  0  0  0  0  0  0  0  0  0
   47.0270   31.0410   44.2910 C   0  0  2  0  0  0  0  0  0  0  0  0
   47.4130   33.4620   43.6800 C   0  0  0  0  0  0  0  0  0  0  0  0
   46.3980   34.3200   43.2260 C   0  0  0  0  0  0  0  0  0  0  0  0
   46.7160   35.2880   42.2680 C   0  0  0  0  0  0  0  0  0  0  0  0
   47.9950   35.3370   41.8340 N   0  0  0  0  0  0  0  0  0  0  0  0
   48.9450   34.5140   42.2770 C   0  0  0  0  0  0  0  0  0  0  0  0
   48.6500   33.5820   43.1960 N   0  0  0  0  0  0  0  0  0  0  0  0
   45.0530   34.1260   43.8160 C   0  0  0  0  0  0  0  0  0  0  0  0
   44.1490   35.0320   43.2380 F   0  0  0  0  0  0  0  0  0  0  0  0
   45.0060   34.3740   45.1540 F   0  0  0  0  0  0  0  0  0  0  0  0
   44.5140   32.9180   43.5240 F   0  0  0  0  0  0  0  0  0  0  0  0
   48.1760   30.1400   44.5210 C   0  0  0  0  0  0  0  0  0  0  0  0
   49.2760   30.2380   43.6330 C   0  0  0  0  0  0  0  0  0  0  0  0
   50.4000   28.9460   44.3400 S   0  0  0  0  0  0  0  0  0  0  0  0
   49.1780   28.5060   45.7100 C   0  0  0  0  0  0  0  0  0  0  0  0
   48.1360   29.3010   45.5220 N   0  0  0  0  0  0  0  0  0  0  0  0
   48.0067   31.7365   46.4905 H   0  0  0  0  0  0  0  0  0  0  0  0
   47.2792   33.3040   46.6077 H   0  0  0  0  0  0  0  0  0  0  0  0
   45.7960   31.1554   47.2347 H   0  0  0  0  0  0  0  0  0  0  0  0
   45.0061   32.3592   46.2348 H   0  0  0  0  0  0  0  0  0  0  0  0
   45.9235   29.6540   45.5405 H   0  0  0  0  0  0  0  0  0  0  0  0
   44.8838   30.7110   44.5895 H   0  0  0  0  0  0  0  0  0  0  0  0
   46.8750   30.9147   43.2089 H   0  0  0  0  0  0  0  0  0  0  0  0
   45.9548   35.9824   41.8828 H   0  0  0  0  0  0  0  0  0  0  0  0
   49.9709   34.5988   41.8892 H   0  0  0  0  0  0  0  0  0  0  0  0
   49.4220   30.8978   42.7651 H   0  0  0  0  0  0  0  0  0  0  0  0
   49.3048   27.7491   46.4980 H   0  0  0  0  0  0  0  0  0  0  0  0
  1  2  1  0
  2  3  1  0
  4  3  1  0
  5 16  1  0
  5  1  1  0
  5  4  1  0
  6  1  1  0
  7  6  2  0
  7 12  1  0
  8  7  1  0
  9  8  2  0
  9 10  1  0
 10 11  2  0
 11  6  1  0
 12 14  1  0
 13 12  1  0
 15 12  1  0
 16 20  1  0
 17 18  1  0
 17 16  2  0
 18 19  1  0
 20 19  2  0
  2 21  1  0
  2 22  1  0
  3 23  1  0
  3 24  1  0
  4 25  1  0
  4 26  1  0
  5 27  1  6
  8 28  1  0
 10 29  1  0
 17 30  1  0
 19 31  1  0
M  ISO  8  21  13  22  13  23  13  24  13  25  13  26  13  27  13  28  14
M  ISO  3  29  14  30  14  31  14
M  END
>  <minimizedAffinity>  (1) 
-3.85362983

>  <minimizedRMSD>  (1) 
0.790802717

$$$$
