
     RDKit          3D

 28 29  0  0  1  0  0  0  0  0999 V2000
   47.2220   32.4240   44.6840 N   0  0  0  0  0  0  0  0  0  0  0  0
   47.1460   32.3900   46.1230 C   0  0  0  0  0  0  0  0  0  0  0  0
   45.8270   31.7080   46.3150 C   0  0  0  0  0  0  0  0  0  0  0  0
   45.8020   30.6910   45.2260 C   0  0  0  0  0  0  0  0  0  0  0  0
   47.0020   31.0310   44.3590 C   0  0  2  0  0  0  0  0  0  0  0  0
   47.4180   33.4450   43.7020 C   0  0  0  0  0  0  0  0  0  0  0  0
   46.4160   34.3040   43.2240 C   0  0  0  0  0  0  0  0  0  0  0  0
   46.7550   35.2470   42.2620 C   0  0  0  0  0  0  0  0  0  0  0  0
   48.0310   35.2850   41.8400 N   0  0  0  0  0  0  0  0  0  0  0  0
   48.9710   34.4560   42.3100 C   0  0  0  0  0  0  0  0  0  0  0  0
   48.6730   33.5250   43.2470 N   0  0  0  0  0  0  0  0  0  0  0  0
   45.0570   34.1220   43.8050 C   0  0  0  0  0  0  0  0  0  0  0  0
   44.1680   35.0160   43.1920 F   0  0  0  0  0  0  0  0  0  0  0  0
   44.9930   34.3970   45.1330 F   0  0  0  0  0  0  0  0  0  0  0  0
   44.5100   32.9110   43.5400 F   0  0  0  0  0  0  0  0  0  0  0  0
   48.1660   30.1550   44.4790 C   0  0  0  0  0  0  0  0  0  0  0  0
   48.7080   29.9520   45.7030 F   0  0  0  0  0  0  0  0  0  0  0  0
   47.8080   28.9110   43.9830 F   0  0  0  0  0  0  0  0  0  0  0  0
   49.1430   30.6320   43.6280 F   0  0  0  0  0  0  0  0  0  0  0  0
   47.9709   31.8073   46.5588 H   0  0  0  0  0  0  0  0  0  0  0  0
   47.2261   33.3741   46.6079 H   0  0  0  0  0  0  0  0  0  0  0  0
   45.7723   31.2279   47.3032 H   0  0  0  0  0  0  0  0  0  0  0  0
   44.9747   32.4022   46.2738 H   0  0  0  0  0  0  0  0  0  0  0  0
   45.8965   29.6762   45.6397 H   0  0  0  0  0  0  0  0  0  0  0  0
   44.8591   30.7082   44.6598 H   0  0  0  0  0  0  0  0  0  0  0  0
   46.8090   30.8611   43.2895 H   0  0  0  0  0  0  0  0  0  0  0  0
   46.0031   35.9409   41.8581 H   0  0  0  0  0  0  0  0  0  0  0  0
   50.0003   34.5321   41.9296 H   0  0  0  0  0  0  0  0  0  0  0  0
  1  2  1  0
  2  3  1  0
  4  3  1  0
  5 16  1  0
  5  1  1  0
  5  4  1  0
  6  1  1  0
  7  6  2  0
  7 12  1  0
  8  7  1  0
  9  8  2  0
  9 10  1  0
 10 11  2  0
 11  6  1  0
 12 14  1  0
 13 12  1  0
 15 12  1  0
 16 17  1  0
 18 16  1  0
 19 16  1  0
  2 20  1  0
  2 21  1  0
  3 22  1  0
  3 23  1  0
  4 24  1  0
  4 25  1  0
  5 26  1  6
  8 27  1  0
 10 28  1  0
M  ISO  8  20  13  21  13  22  13  23  13  24  13  25  13  26  13  27  14
M  ISO  1  28  14
M  END
>  <minimizedAffinity>  (1) 
-3.83083797

>  <minimizedRMSD>  (1) 
0.25981921

$$$$
