
     RDKit          3D

 26 27  0  0  1  0  0  0  0  0999 V2000
   47.2390   32.3970   44.6400 N   0  0  0  0  0  0  0  0  0  0  0  0
   47.1730   32.2520   46.0750 C   0  0  0  0  0  0  0  0  0  0  0  0
   45.8260   31.5990   46.2170 C   0  0  0  0  0  0  0  0  0  0  0  0
   45.7900   30.6530   45.0790 C   0  0  0  0  0  0  0  0  0  0  0  0
   46.9930   31.0050   44.2210 C   0  0  2  0  0  0  0  0  0  0  0  0
   47.4420   33.4410   43.6950 C   0  0  0  0  0  0  0  0  0  0  0  0
   46.4790   34.3750   43.2990 C   0  0  0  0  0  0  0  0  0  0  0  0
   46.8190   35.3330   42.3510 C   0  0  0  0  0  0  0  0  0  0  0  0
   48.0760   35.3040   41.8620 N   0  0  0  0  0  0  0  0  0  0  0  0
   48.9890   34.4100   42.2450 C   0  0  0  0  0  0  0  0  0  0  0  0
   48.6790   33.4670   43.1700 N   0  0  0  0  0  0  0  0  0  0  0  0
   45.1440   34.2550   43.9470 C   0  0  0  0  0  0  0  0  0  0  0  0
   44.2840   35.2380   43.4300 F   0  0  0  0  0  0  0  0  0  0  0  0
   45.1610   34.4730   45.2920 F   0  0  0  0  0  0  0  0  0  0  0  0
   44.5200   33.0960   43.6510 F   0  0  0  0  0  0  0  0  0  0  0  0
   48.4200   29.9670   44.4850 S   0  0  0  0  0  0  0  0  0  0  0  0
   47.9795   31.6086   46.4566 H   0  0  0  0  0  0  0  0  0  0  0  0
   47.2923   33.1891   46.6386 H   0  0  0  0  0  0  0  0  0  0  0  0
   45.7445   31.0664   47.1760 H   0  0  0  0  0  0  0  0  0  0  0  0
   44.9937   32.3182   46.2080 H   0  0  0  0  0  0  0  0  0  0  0  0
   45.8643   29.6161   45.4385 H   0  0  0  0  0  0  0  0  0  0  0  0
   44.8492   30.7295   44.5141 H   0  0  0  0  0  0  0  0  0  0  0  0
   46.8048   30.8642   43.1464 H   0  0  0  0  0  0  0  0  0  0  0  0
   46.0915   36.0855   42.0127 H   0  0  0  0  0  0  0  0  0  0  0  0
   49.9984   34.4375   41.8087 H   0  0  0  0  0  0  0  0  0  0  0  0
   48.6307   29.8138   45.8300 H   0  0  0  0  0  0  0  0  0  0  0  0
  1  2  1  0
  2  3  1  0
  4  3  1  0
  5 16  1  0
  5  1  1  0
  5  4  1  0
  6  1  1  0
  7  6  2  0
  7 12  1  0
  8  7  1  0
  9 10  1  0
  9  8  2  0
 10 11  2  0
 11  6  1  0
 12 14  1  0
 13 12  1  0
 15 12  1  0
  2 17  1  0
  2 18  1  0
  3 19  1  0
  3 20  1  0
  4 21  1  0
  4 22  1  0
  5 23  1  6
  8 24  1  0
 10 25  1  0
 16 26  1  0
M  ISO  8  17  13  18  13  19  13  20  13  21  13  22  13  23  13  24  14
M  ISO  2  25  14  26  11
M  END
>  <minimizedAffinity>  (1) 
-3.67870736

>  <minimizedRMSD>  (1) 
0.183907852

$$$$
