
     RDKit          3D

 39 41  0  0  1  0  0  0  0  0999 V2000
   47.0020   35.3610   41.9680 C   0  0  0  0  0  0  0  0  0  0  0  0
   48.1030   34.7590   41.3060 N   0  0  0  0  0  0  0  0  0  0  0  0
   49.3210   35.0920   41.9780 C   0  0  0  0  0  0  0  0  0  0  0  0
   50.1880   33.9510   42.3550 C   0  0  0  0  0  0  0  0  0  0  0  0
   49.3260   32.9510   42.8350 O   0  0  0  0  0  0  0  0  0  0  0  0
   48.7850   32.4210   41.6570 C   0  0  0  0  0  0  0  0  0  0  0  0
   48.0110   33.4280   40.8580 C   0  0  2  0  0  0  0  0  0  0  0  0
   48.3920   33.4200   39.4460 N   0  0  0  0  0  0  0  0  0  0  0  0
   48.1680   34.3300   38.4950 C   0  0  0  0  0  0  0  0  0  0  0  0
   48.7230   33.8830   37.2930 C   0  0  0  0  0  0  0  0  0  0  0  0
   49.2730   32.6940   37.5680 N   0  0  0  0  0  0  0  0  0  0  0  0
   49.0730   32.4110   38.8690 C   0  0  0  0  0  0  0  0  0  0  0  0
   45.7820   34.4960   42.1710 C   0  0  1  0  0  0  0  0  0  0  0  0
   44.7690   35.4380   44.3130 C   0  0  0  0  0  0  0  0  0  0  0  0
   45.5100   34.4340   43.6120 C   0  0  0  0  0  0  0  0  0  0  0  0
   45.9680   33.3780   44.3960 C   0  0  0  0  0  0  0  0  0  0  0  0
   45.6950   33.3700   45.7180 N   0  0  0  0  0  0  0  0  0  0  0  0
   45.0050   34.3160   46.3420 C   0  0  0  0  0  0  0  0  0  0  0  0
   44.5300   35.3790   45.6190 N   0  0  0  0  0  0  0  0  0  0  0  0
   44.5990   34.9730   41.4190 C   0  0  0  0  0  0  0  0  0  0  0  0
   46.6957   36.2372   41.3776 H   0  0  0  0  0  0  0  0  0  0  0  0
   47.3640   35.5951   42.9800 H   0  0  0  0  0  0  0  0  0  0  0  0
   49.9014   35.7512   41.3157 H   0  0  0  0  0  0  0  0  0  0  0  0
   49.0180   35.5601   42.9262 H   0  0  0  0  0  0  0  0  0  0  0  0
   50.7441   33.5876   41.4782 H   0  0  0  0  0  0  0  0  0  0  0  0
   50.9292   34.2420   43.1139 H   0  0  0  0  0  0  0  0  0  0  0  0
   49.6079   32.0388   41.0351 H   0  0  0  0  0  0  0  0  0  0  0  0
   48.0837   31.6250   41.9480 H   0  0  0  0  0  0  0  0  0  0  0  0
   46.9720   33.0958   40.9995 H   0  0  0  0  0  0  0  0  0  0  0  0
   47.6319   35.2802   38.6354 H   0  0  0  0  0  0  0  0  0  0  0  0
   48.7105   34.4006   36.3225 H   0  0  0  0  0  0  0  0  0  0  0  0
   49.4126   31.4985   39.3808 H   0  0  0  0  0  0  0  0  0  0  0  0
   45.9890   33.4922   41.7716 H   0  0  0  0  0  0  0  0  0  0  0  0
   44.3801   36.2964   43.7457 H   0  0  0  0  0  0  0  0  0  0  0  0
   46.5460   32.5592   43.9428 H   0  0  0  0  0  0  0  0  0  0  0  0
   44.8170   34.2481   47.4237 H   0  0  0  0  0  0  0  0  0  0  0  0
   43.8176   35.2881   42.1262 H   0  0  0  0  0  0  0  0  0  0  0  0
   44.8862   35.8256   40.7861 H   0  0  0  0  0  0  0  0  0  0  0  0
   44.2144   34.1597   40.7861 H   0  0  0  0  0  0  0  0  0  0  0  0
  1 13  1  0
  2  1  1  0
  2  3  1  0
  3  4  1  0
  4  5  1  0
  6  5  1  0
  7  2  1  0
  7  6  1  0
  8  7  1  0
  9  8  1  0
 10 11  1  0
 10  9  2  0
 11 12  2  0
 12  8  1  0
 13 15  1  0
 14 19  2  0
 15 14  1  0
 15 16  2  0
 16 17  1  0
 17 18  2  0
 19 18  1  0
 20 13  1  0
  1 21  1  0
  1 22  1  0
  3 23  1  0
  3 24  1  0
  4 25  1  0
  4 26  1  0
  6 27  1  0
  6 28  1  0
  7 29  1  6
  9 30  1  0
 10 31  1  0
 12 32  1  0
 13 33  1  6
 14 34  1  0
 16 35  1  0
 18 36  1  0
 20 37  1  0
 20 38  1  0
 20 39  1  0
M  ISO  8  21   8  22   8  23  13  24  13  25  13  26  13  27  13  28  13
M  ISO  8  29  13  30  14  31  14  32  14  33   8  34  14  35  14  36  14
M  ISO  3  37   8  38   8  39   8
M  END
>  <minimizedAffinity>  (1) 
-4.81101036

>  <minimizedRMSD>  (1) 
0.968086362

$$$$
