
     RDKit          3D

 45 48  0  0  1  0  0  0  0  0999 V2000
   47.2230   32.4730   44.6350 N   0  0  0  0  0  0  0  0  0  0  0  0
   47.1010   32.3860   46.0620 C   0  0  0  0  0  0  0  0  0  0  0  0
   45.8450   31.6240   46.2070 C   0  0  0  0  0  0  0  0  0  0  0  0
   45.8820   30.6490   45.0800 C   0  0  0  0  0  0  0  0  0  0  0  0
   47.0820   31.0510   44.2640 C   0  0  2  0  0  0  0  0  0  0  0  0
   47.4130   33.5120   43.6590 C   0  0  0  0  0  0  0  0  0  0  0  0
   46.3840   34.3570   43.2180 C   0  0  0  0  0  0  0  0  0  0  0  0
   46.6990   35.3250   42.2610 C   0  0  0  0  0  0  0  0  0  0  0  0
   47.9590   35.3860   41.8270 N   0  0  0  0  0  0  0  0  0  0  0  0
   48.9220   34.5660   42.2660 C   0  0  0  0  0  0  0  0  0  0  0  0
   48.6440   33.6250   43.1870 N   0  0  0  0  0  0  0  0  0  0  0  0
   45.0280   34.1380   43.8170 C   0  0  0  0  0  0  0  0  0  0  0  0
   44.1160   35.0120   43.1970 F   0  0  0  0  0  0  0  0  0  0  0  0
   45.0010   34.4280   45.1280 F   0  0  0  0  0  0  0  0  0  0  0  0
   44.5170   32.9280   43.5110 F   0  0  0  0  0  0  0  0  0  0  0  0
   48.2630   30.2530   44.5250 C   0  0  0  0  0  0  0  0  0  0  0  0
   48.6510   29.4410   45.5300 C   0  0  0  0  0  0  0  0  0  0  0  0
   49.8350   28.8140   45.4910 C   0  0  0  0  0  0  0  0  0  0  0  0
   50.6400   29.0490   44.3560 C   0  0  0  0  0  0  0  0  0  0  0  0
   49.5940   30.2170   43.3620 S   0  0  0  0  0  0  0  0  0  0  0  0
   51.9470   28.5710   43.9480 C   0  0  0  0  0  0  0  0  0  0  0  0
   51.9820   28.4750   42.4370 C   0  0  0  0  0  0  0  0  0  0  0  0
   53.1660   29.2970   41.9790 C   0  0  0  0  0  0  0  0  0  0  0  0
   54.0540   29.3120   43.1970 C   0  0  0  0  0  0  0  0  0  0  0  0
   53.0500   29.5490   44.3080 C   0  0  0  0  0  0  0  0  0  0  0  0
   47.9511   31.8467   46.5053 H   0  0  0  0  0  0  0  0  0  0  0  0
   47.0938   33.3613   46.5707 H   0  0  0  0  0  0  0  0  0  0  0  0
   45.8140   31.1019   47.1747 H   0  0  0  0  0  0  0  0  0  0  0  0
   44.9537   32.2682   46.1802 H   0  0  0  0  0  0  0  0  0  0  0  0
   45.9970   29.6227   45.4589 H   0  0  0  0  0  0  0  0  0  0  0  0
   44.9544   30.6616   44.4889 H   0  0  0  0  0  0  0  0  0  0  0  0
   46.9558   30.8894   43.1833 H   0  0  0  0  0  0  0  0  0  0  0  0
   45.9326   36.0147   41.8777 H   0  0  0  0  0  0  0  0  0  0  0  0
   49.9446   34.6618   41.8723 H   0  0  0  0  0  0  0  0  0  0  0  0
   47.9863   29.2914   46.3936 H   0  0  0  0  0  0  0  0  0  0  0  0
   50.1630   28.1491   46.3036 H   0  0  0  0  0  0  0  0  0  0  0  0
   52.1070   27.6079   44.4547 H   0  0  0  0  0  0  0  0  0  0  0  0
   52.1045   27.4270   42.1260 H   0  0  0  0  0  0  0  0  0  0  0  0
   51.0461   28.8465   41.9942 H   0  0  0  0  0  0  0  0  0  0  0  0
   53.6719   28.8217   41.1257 H   0  0  0  0  0  0  0  0  0  0  0  0
   52.8888   30.3027   41.6300 H   0  0  0  0  0  0  0  0  0  0  0  0
   54.5745   28.3515   43.3254 H   0  0  0  0  0  0  0  0  0  0  0  0
   54.8573   30.0623   43.1542 H   0  0  0  0  0  0  0  0  0  0  0  0
   52.6831   30.5860   44.3010 H   0  0  0  0  0  0  0  0  0  0  0  0
   53.4617   29.4023   45.3175 H   0  0  0  0  0  0  0  0  0  0  0  0
  1  2  1  0
  2  3  1  0
  4  3  1  0
  5 16  1  0
  5  1  1  0
  5  4  1  0
  6  1  1  0
  7  6  2  0
  7 12  1  0
  8  7  1  0
  9  8  2  0
  9 10  1  0
 10 11  2  0
 11  6  1  0
 12 14  1  0
 13 12  1  0
 15 12  1  0
 16 17  2  0
 18 17  1  0
 19 18  2  0
 20 19  1  0
 20 16  1  0
 21 25  1  0
 21 19  1  0
 22 21  1  0
 23 22  1  0
 23 24  1  0
 24 25  1  0
  2 26  1  0
  2 27  1  0
  3 28  1  0
  3 29  1  0
  4 30  1  0
  4 31  1  0
  5 32  1  6
  8 33  1  0
 10 34  1  0
 17 35  1  0
 18 36  1  0
 21 37  1  0
 22 38  1  0
 22 39  1  0
 23 40  1  0
 23 41  1  0
 24 42  1  0
 24 43  1  0
 25 44  1  0
 25 45  1  0
M  ISO  8  26  13  27  13  28  13  29  13  30  13  31  13  32  13  33  14
M  ISO  8  34  14  35  14  36  14  37  13  38  13  39  13  40  13  41  13
M  ISO  4  42  13  43  13  44  13  45  13
M  END
>  <minimizedAffinity>  (1) 
-4.19818926

>  <minimizedRMSD>  (1) 
0.965010703

$$$$
