
     RDKit          3D

 38 41  0  0  1  0  0  0  0  0999 V2000
   47.2300   32.4640   44.6050 N   0  0  0  0  0  0  0  0  0  0  0  0
   47.1170   32.3650   46.0290 C   0  0  0  0  0  0  0  0  0  0  0  0
   45.8620   31.5880   46.1680 C   0  0  0  0  0  0  0  0  0  0  0  0
   45.9050   30.6270   45.0340 C   0  0  0  0  0  0  0  0  0  0  0  0
   47.0930   31.0470   44.2100 C   0  0  2  0  0  0  0  0  0  0  0  0
   47.4120   33.5160   43.6420 C   0  0  0  0  0  0  0  0  0  0  0  0
   46.3700   34.3620   43.2140 C   0  0  0  0  0  0  0  0  0  0  0  0
   46.6820   35.3410   42.2690 C   0  0  0  0  0  0  0  0  0  0  0  0
   47.9370   35.4160   41.8330 N   0  0  0  0  0  0  0  0  0  0  0  0
   48.9060   34.6010   42.2570 C   0  0  0  0  0  0  0  0  0  0  0  0
   48.6400   33.6470   43.1660 N   0  0  0  0  0  0  0  0  0  0  0  0
   45.0190   34.1250   43.8150 C   0  0  0  0  0  0  0  0  0  0  0  0
   44.1130   35.0110   43.2130 F   0  0  0  0  0  0  0  0  0  0  0  0
   44.9960   34.3970   45.1280 F   0  0  0  0  0  0  0  0  0  0  0  0
   44.5150   32.9250   43.5000 F   0  0  0  0  0  0  0  0  0  0  0  0
   48.2830   30.2520   44.4640 C   0  0  0  0  0  0  0  0  0  0  0  0
   48.6840   29.4210   45.4460 C   0  0  0  0  0  0  0  0  0  0  0  0
   49.8780   28.8100   45.4330 C   0  0  0  0  0  0  0  0  0  0  0  0
   50.6960   29.1060   44.2980 C   0  0  0  0  0  0  0  0  0  0  0  0
   49.6310   30.2810   43.3130 S   0  0  0  0  0  0  0  0  0  0  0  0
   52.0010   28.6400   43.9650 N   0  0  0  0  0  0  0  0  0  0  0  0
   52.4650   27.3940   43.9880 C   0  0  0  0  0  0  0  0  0  0  0  0
   53.7650   27.4490   43.5890 N   0  0  0  0  0  0  0  0  0  0  0  0
   54.0750   28.7370   43.3270 C   0  0  0  0  0  0  0  0  0  0  0  0
   52.9740   29.4720   43.5630 N   0  0  0  0  0  0  0  0  0  0  0  0
   47.9729   31.8286   46.4645 H   0  0  0  0  0  0  0  0  0  0  0  0
   47.1061   33.3346   46.5483 H   0  0  0  0  0  0  0  0  0  0  0  0
   45.8364   31.0559   47.1304 H   0  0  0  0  0  0  0  0  0  0  0  0
   44.9657   32.2253   46.1485 H   0  0  0  0  0  0  0  0  0  0  0  0
   46.0350   29.5991   45.4034 H   0  0  0  0  0  0  0  0  0  0  0  0
   44.9733   30.6368   44.4494 H   0  0  0  0  0  0  0  0  0  0  0  0
   46.9592   30.9013   43.1279 H   0  0  0  0  0  0  0  0  0  0  0  0
   45.9116   36.0314   41.8951 H   0  0  0  0  0  0  0  0  0  0  0  0
   49.9263   34.7107   41.8608 H   0  0  0  0  0  0  0  0  0  0  0  0
   48.0053   29.2364   46.2918 H   0  0  0  0  0  0  0  0  0  0  0  0
   50.2037   28.1318   46.2355 H   0  0  0  0  0  0  0  0  0  0  0  0
   51.9052   26.4915   44.2747 H   0  0  0  0  0  0  0  0  0  0  0  0
   55.0491   29.1153   42.9836 H   0  0  0  0  0  0  0  0  0  0  0  0
  1  2  1  0
  2  3  1  0
  4  3  1  0
  5 16  1  0
  5  1  1  0
  5  4  1  0
  6  1  1  0
  7  6  2  0
  7 12  1  0
  8  7  1  0
  9 10  1  0
  9  8  2  0
 10 11  2  0
 11  6  1  0
 12 14  1  0
 13 12  1  0
 15 12  1  0
 16 17  2  0
 18 17  1  0
 19 18  2  0
 20 19  1  0
 20 16  1  0
 21 22  1  0
 21 19  1  0
 23 22  2  0
 24 25  2  0
 24 23  1  0
 25 21  1  0
  2 26  1  0
  2 27  1  0
  3 28  1  0
  3 29  1  0
  4 30  1  0
  4 31  1  0
  5 32  1  6
  8 33  1  0
 10 34  1  0
 17 35  1  0
 18 36  1  0
 22 37  1  0
 24 38  1  0
M  ISO  8  26  13  27  13  28  13  29  13  30  13  31  13  32  13  33  14
M  ISO  5  34  14  35  14  36  14  37  14  38  14
M  END
>  <minimizedAffinity>  (1) 
-4.03392076

>  <minimizedRMSD>  (1) 
0.20900169

$$$$
