
     RDKit          3D

 26 27  0  0  0  0  0  0  0  0999 V2000
   46.4090   34.9010   42.8180 C   0  0  0  0  0  0  0  0  0  0  0  0
   46.6450   34.0160   43.8910 C   0  0  0  0  0  0  0  0  0  0  0  0
   45.8220   34.1210   45.0160 C   0  0  0  0  0  0  0  0  0  0  0  0
   44.8480   35.0600   45.0140 N   0  0  0  0  0  0  0  0  0  0  0  0
   44.6460   35.9010   43.9600 C   0  0  0  0  0  0  0  0  0  0  0  0
   45.4320   35.8190   42.8560 N   0  0  0  0  0  0  0  0  0  0  0  0
   46.0320   33.2450   46.1130 N   0  0  0  0  0  0  0  0  0  0  0  0
   46.9180   32.2280   46.2100 C   0  0  0  0  0  0  0  0  0  0  0  0
   46.9580   31.4970   47.3750 C   0  0  0  0  0  0  0  0  0  0  0  0
   47.9350   30.3850   47.4620 C   0  0  0  0  0  0  0  0  0  0  0  0
   46.1160   31.7760   48.4540 C   0  0  0  0  0  0  0  0  0  0  0  0
   46.2220   31.0490   49.4930 O   0  0  0  0  0  0  0  0  0  0  0  0
   45.2580   32.7930   48.3080 N   0  0  0  0  0  0  0  0  0  0  0  0
   45.2120   33.5150   47.1680 C   0  0  0  0  0  0  0  0  0  0  0  0
   44.3570   34.4300   47.1890 O   0  0  0  0  0  0  0  0  0  0  0  0
   47.2920   34.7860   41.6180 C   0  0  0  0  0  0  0  0  0  0  0  0
   47.4501   33.2680   43.8439 H   0  0  0  0  0  0  0  0  0  0  0  0
   43.8417   36.6501   44.0044 H   0  0  0  0  0  0  0  0  0  0  0  0
   47.5929   31.9900   45.3746 H   0  0  0  0  0  0  0  0  0  0  0  0
   48.1364   30.1557   48.5188 H   0  0  0  0  0  0  0  0  0  0  0  0
   47.5220   29.4944   46.9659 H   0  0  0  0  0  0  0  0  0  0  0  0
   48.8714   30.6800   46.9659 H   0  0  0  0  0  0  0  0  0  0  0  0
   44.6199   33.0296   49.0811 H   0  0  0  0  0  0  0  0  0  0  0  0
   48.3345   34.6502   41.9416 H   0  0  0  0  0  0  0  0  0  0  0  0
   46.9797   33.9209   41.0145 H   0  0  0  0  0  0  0  0  0  0  0  0
   47.2117   35.7022   41.0145 H   0  0  0  0  0  0  0  0  0  0  0  0
  1  6  2  0
  1  2  1  0
  2  3  2  0
  3  7  1  0
  4  3  1  0
  5  4  2  0
  6  5  1  0
  7  8  1  0
  7 14  1  0
  8  9  2  0
  9 10  1  0
  9 11  1  0
 11 12  2  0
 13 11  1  0
 14 15  2  0
 14 13  1  0
 16  1  1  0
  2 17  1  0
  5 18  1  0
  8 19  1  0
 10 20  1  0
 10 21  1  0
 10 22  1  0
 13 23  1  0
 16 24  1  0
 16 25  1  0
 16 26  1  0
M  ISO  8  17  14  18  14  19  14  20   8  21   8  22   8  23   9  24   8
M  ISO  2  25   8  26   8
M  END
>  <minimizedAffinity>  (1) 
-5.49056482

>  <minimizedRMSD>  (1) 
0.552134931

$$$$
