
     RDKit          3D

 35 37  0  0  1  0  0  0  0  0999 V2000
   47.2310   32.4700   44.6150 N   0  0  0  0  0  0  0  0  0  0  0  0
   47.1140   32.3730   46.0410 C   0  0  0  0  0  0  0  0  0  0  0  0
   45.8620   31.6040   46.1840 C   0  0  0  0  0  0  0  0  0  0  0  0
   45.8970   30.6370   45.0500 C   0  0  0  0  0  0  0  0  0  0  0  0
   47.0940   31.0520   44.2320 C   0  0  2  0  0  0  0  0  0  0  0  0
   47.4160   33.5180   43.6470 C   0  0  0  0  0  0  0  0  0  0  0  0
   46.3810   34.3620   43.2130 C   0  0  0  0  0  0  0  0  0  0  0  0
   46.6890   35.3370   42.2640 C   0  0  0  0  0  0  0  0  0  0  0  0
   47.9500   35.4050   41.8300 N   0  0  0  0  0  0  0  0  0  0  0  0
   48.9160   34.5910   42.2590 C   0  0  0  0  0  0  0  0  0  0  0  0
   48.6450   33.6430   43.1740 N   0  0  0  0  0  0  0  0  0  0  0  0
   45.0280   34.1290   43.8170 C   0  0  0  0  0  0  0  0  0  0  0  0
   44.1110   35.0150   43.2210 F   0  0  0  0  0  0  0  0  0  0  0  0
   45.0020   34.4150   45.1270 F   0  0  0  0  0  0  0  0  0  0  0  0
   44.5200   32.9300   43.5090 F   0  0  0  0  0  0  0  0  0  0  0  0
   48.2800   30.2580   44.4800 C   0  0  0  0  0  0  0  0  0  0  0  0
   48.6730   29.4380   45.4870 C   0  0  0  0  0  0  0  0  0  0  0  0
   49.8600   28.8170   45.4410 C   0  0  0  0  0  0  0  0  0  0  0  0
   50.6650   29.0620   44.3060 C   0  0  0  0  0  0  0  0  0  0  0  0
   49.6070   30.2390   43.3160 S   0  0  0  0  0  0  0  0  0  0  0  0
   51.9770   28.5560   43.9560 C   0  0  0  0  0  0  0  0  0  0  0  0
   52.4950   27.9700   45.0650 F   0  0  0  0  0  0  0  0  0  0  0  0
   52.8150   29.6200   43.6090 F   0  0  0  0  0  0  0  0  0  0  0  0
   51.8820   27.7460   42.8520 F   0  0  0  0  0  0  0  0  0  0  0  0
   47.9679   31.8348   46.4782 H   0  0  0  0  0  0  0  0  0  0  0  0
   47.1039   33.3447   46.5565 H   0  0  0  0  0  0  0  0  0  0  0  0
   45.8370   31.0746   47.1479 H   0  0  0  0  0  0  0  0  0  0  0  0
   44.9684   32.2452   46.1643 H   0  0  0  0  0  0  0  0  0  0  0  0
   46.0178   29.6084   45.4206 H   0  0  0  0  0  0  0  0  0  0  0  0
   44.9667   30.6489   44.4632 H   0  0  0  0  0  0  0  0  0  0  0  0
   46.9631   30.8987   43.1506 H   0  0  0  0  0  0  0  0  0  0  0  0
   45.9194   36.0262   41.8861 H   0  0  0  0  0  0  0  0  0  0  0  0
   49.9371   34.6954   41.8633 H   0  0  0  0  0  0  0  0  0  0  0  0
   48.0102   29.2811   46.3507 H   0  0  0  0  0  0  0  0  0  0  0  0
   50.1917   28.1482   46.2488 H   0  0  0  0  0  0  0  0  0  0  0  0
  1  2  1  0
  2  3  1  0
  4  3  1  0
  5 16  1  0
  5  1  1  0
  5  4  1  0
  6  1  1  0
  7  6  2  0
  7 12  1  0
  8  7  1  0
  9 10  1  0
  9  8  2  0
 10 11  2  0
 11  6  1  0
 12 14  1  0
 13 12  1  0
 15 12  1  0
 16 17  2  0
 18 17  1  0
 19 18  2  0
 20 19  1  0
 20 16  1  0
 21 19  1  0
 21 22  1  0
 23 21  1  0
 24 21  1  0
  2 25  1  0
  2 26  1  0
  3 27  1  0
  3 28  1  0
  4 29  1  0
  4 30  1  0
  5 31  1  6
  8 32  1  0
 10 33  1  0
 17 34  1  0
 18 35  1  0
M  ISO  8  25  13  26  13  27  13  28  13  29  13  30  13  31  13  32  14
M  ISO  3  33  14  34  14  35  14
M  END
>  <minimizedAffinity>  (1) 
-3.99502897

>  <minimizedRMSD>  (1) 
0.273465186

$$$$
