
     RDKit          3D

 34 36  0  0  1  0  0  0  0  0999 V2000
   47.2230   32.4850   44.6800 N   0  0  0  0  0  0  0  0  0  0  0  0
   47.1220   32.4260   46.1060 C   0  0  0  0  0  0  0  0  0  0  0  0
   45.8490   31.6820   46.2780 C   0  0  0  0  0  0  0  0  0  0  0  0
   45.8580   30.6880   45.1710 C   0  0  0  0  0  0  0  0  0  0  0  0
   47.0500   31.0630   44.3290 C   0  0  2  0  0  0  0  0  0  0  0  0
   47.4210   33.5050   43.6890 C   0  0  0  0  0  0  0  0  0  0  0  0
   46.3870   34.3500   43.2290 C   0  0  0  0  0  0  0  0  0  0  0  0
   46.7160   35.2970   42.2580 C   0  0  0  0  0  0  0  0  0  0  0  0
   47.9760   35.3430   41.8290 N   0  0  0  0  0  0  0  0  0  0  0  0
   48.9320   34.5360   42.2790 C   0  0  0  0  0  0  0  0  0  0  0  0
   48.6540   33.6070   43.2180 N   0  0  0  0  0  0  0  0  0  0  0  0
   45.0330   34.1440   43.8340 C   0  0  0  0  0  0  0  0  0  0  0  0
   44.1430   35.0340   43.2150 F   0  0  0  0  0  0  0  0  0  0  0  0
   45.0050   34.4580   45.1410 F   0  0  0  0  0  0  0  0  0  0  0  0
   44.5110   32.9440   43.5560 F   0  0  0  0  0  0  0  0  0  0  0  0
   48.2270   30.2460   44.5880 C   0  0  0  0  0  0  0  0  0  0  0  0
   48.6500   29.4900   45.6240 C   0  0  0  0  0  0  0  0  0  0  0  0
   49.8180   28.8310   45.5960 C   0  0  0  0  0  0  0  0  0  0  0  0
   50.5750   28.9830   44.4110 C   0  0  0  0  0  0  0  0  0  0  0  0
   49.5020   30.1170   43.3690 S   0  0  0  0  0  0  0  0  0  0  0  0
   51.8500   28.4400   44.0280 N   0  0  0  0  0  0  0  0  0  0  0  0
   47.9695   31.8810   46.5473 H   0  0  0  0  0  0  0  0  0  0  0  0
   47.1390   33.4090   46.5994 H   0  0  0  0  0  0  0  0  0  0  0  0
   45.8201   31.1780   47.2553 H   0  0  0  0  0  0  0  0  0  0  0  0
   44.9679   32.3398   46.2480 H   0  0  0  0  0  0  0  0  0  0  0  0
   45.9684   29.6677   45.5669 H   0  0  0  0  0  0  0  0  0  0  0  0
   44.9214   30.6992   44.5943 H   0  0  0  0  0  0  0  0  0  0  0  0
   46.9013   30.8927   43.2525 H   0  0  0  0  0  0  0  0  0  0  0  0
   45.9567   35.9854   41.8586 H   0  0  0  0  0  0  0  0  0  0  0  0
   49.9547   34.6258   41.8841 H   0  0  0  0  0  0  0  0  0  0  0  0
   48.0163   29.4121   46.5197 H   0  0  0  0  0  0  0  0  0  0  0  0
   50.1639   28.2137   46.4382 H   0  0  0  0  0  0  0  0  0  0  0  0
   52.2504   28.6665   43.1064 H   0  0  0  0  0  0  0  0  0  0  0  0
   52.3630   27.8245   44.6752 H   0  0  0  0  0  0  0  0  0  0  0  0
  1  2  1  0
  2  3  1  0
  4  3  1  0
  5 16  1  0
  5  1  1  0
  5  4  1  0
  6  1  1  0
  7  6  2  0
  7 12  1  0
  8  7  1  0
  9  8  2  0
  9 10  1  0
 10 11  2  0
 11  6  1  0
 12 14  1  0
 13 12  1  0
 15 12  1  0
 16 17  2  0
 18 17  1  0
 19 18  2  0
 20 19  1  0
 20 16  1  0
 21 19  1  0
  2 22  1  0
  2 23  1  0
  3 24  1  0
  3 25  1  0
  4 26  1  0
  4 27  1  0
  5 28  1  6
  8 29  1  0
 10 30  1  0
 17 31  1  0
 18 32  1  0
 21 33  1  0
 21 34  1  0
M  ISO  8  22  13  23  13  24  13  25  13  26  13  27  13  28  13  29  14
M  ISO  3  30  14  31  14  32  14
M  END
>  <minimizedAffinity>  (1) 
-4.02320385

>  <minimizedRMSD>  (1) 
0.0242050663

$$$$
