
     RDKit          3D

 44 46  0  0  1  0  0  0  0  0999 V2000
   48.4190   34.5300   41.3070 N   0  0  0  0  0  0  0  0  0  0  0  0
   49.6370   34.7600   42.0470 C   0  0  0  0  0  0  0  0  0  0  0  0
   50.4360   33.5600   42.3860 C   0  0  0  0  0  0  0  0  0  0  0  0
   49.5080   32.5750   42.7720 O   0  0  0  0  0  0  0  0  0  0  0  0
   48.9860   32.1390   41.5640 C   0  0  0  0  0  0  0  0  0  0  0  0
   48.2720   33.2310   40.7800 C   0  0  2  0  0  0  0  0  0  0  0  0
   48.7640   33.2460   39.3920 N   0  0  0  0  0  0  0  0  0  0  0  0
   48.5490   31.9850   38.7430 C   0  0  0  0  0  0  0  0  0  0  0  0
   47.9470   32.2210   37.3940 C   0  0  0  0  0  0  0  0  0  0  0  0
   47.6830   33.6920   37.3240 C   0  0  0  0  0  0  0  0  0  0  0  0
   48.1020   34.2630   38.6530 C   0  0  0  0  0  0  0  0  0  0  0  0
   47.3330   35.1420   41.9770 C   0  0  0  0  0  0  0  0  0  0  0  0
   46.0820   34.3140   42.1370 C   0  0  1  0  0  0  0  0  0  0  0  0
   44.8380   35.5030   44.0180 C   0  0  0  0  0  0  0  0  0  0  0  0
   45.6460   34.4230   43.5350 C   0  0  0  0  0  0  0  0  0  0  0  0
   46.0040   33.4740   44.4860 C   0  0  0  0  0  0  0  0  0  0  0  0
   45.5900   33.6090   45.7650 N   0  0  0  0  0  0  0  0  0  0  0  0
   44.8330   34.6360   46.1820 C   0  0  0  0  0  0  0  0  0  0  0  0
   44.4540   35.5930   45.2930 N   0  0  0  0  0  0  0  0  0  0  0  0
   45.0010   34.7070   41.2040 C   0  0  0  0  0  0  0  0  0  0  0  0
   50.2729   35.4272   41.4466 H   0  0  0  0  0  0  0  0  0  0  0  0
   49.3186   35.1821   43.0116 H   0  0  0  0  0  0  0  0  0  0  0  0
   51.0100   33.2227   41.5104 H   0  0  0  0  0  0  0  0  0  0  0  0
   51.1593   33.7697   43.1878 H   0  0  0  0  0  0  0  0  0  0  0  0
   49.8109   31.7513   40.9482 H   0  0  0  0  0  0  0  0  0  0  0  0
   48.2383   31.3661   41.7955 H   0  0  0  0  0  0  0  0  0  0  0  0
   47.2032   32.9785   40.8431 H   0  0  0  0  0  0  0  0  0  0  0  0
   49.5096   31.4609   38.6304 H   0  0  0  0  0  0  0  0  0  0  0  0
   47.8675   31.3697   39.3487 H   0  0  0  0  0  0  0  0  0  0  0  0
   48.6481   31.9184   36.6022 H   0  0  0  0  0  0  0  0  0  0  0  0
   47.0274   31.6348   37.2500 H   0  0  0  0  0  0  0  0  0  0  0  0
   48.2709   34.1458   36.5126 H   0  0  0  0  0  0  0  0  0  0  0  0
   46.6221   33.8974   37.1184 H   0  0  0  0  0  0  0  0  0  0  0  0
   48.7850   35.1105   38.4940 H   0  0  0  0  0  0  0  0  0  0  0  0
   47.2196   34.6171   39.2061 H   0  0  0  0  0  0  0  0  0  0  0  0
   47.6777   35.4229   42.9831 H   0  0  0  0  0  0  0  0  0  0  0  0
   47.0396   35.9885   41.3388 H   0  0  0  0  0  0  0  0  0  0  0  0
   46.3144   33.2693   41.8830 H   0  0  0  0  0  0  0  0  0  0  0  0
   44.5228   36.2861   43.3127 H   0  0  0  0  0  0  0  0  0  0  0  0
   46.6245   32.6130   44.1970 H   0  0  0  0  0  0  0  0  0  0  0  0
   44.5215   34.7031   47.2348 H   0  0  0  0  0  0  0  0  0  0  0  0
   44.1194   35.0275   41.7785 H   0  0  0  0  0  0  0  0  0  0  0  0
   45.3472   35.5368   40.5703 H   0  0  0  0  0  0  0  0  0  0  0  0
   44.7335   33.8486   40.5703 H   0  0  0  0  0  0  0  0  0  0  0  0
  1 12  1  0
  1  2  1  0
  2  3  1  0
  3  4  1  0
  5  4  1  0
  6  1  1  0
  6  5  1  0
  7  8  1  0
  7  6  1  0
  9  8  1  0
 10  9  1  0
 10 11  1  0
 11  7  1  0
 12 13  1  0
 13 15  1  0
 14 19  2  0
 15 14  1  0
 15 16  2  0
 16 17  1  0
 17 18  2  0
 19 18  1  0
 20 13  1  0
  2 21  1  0
  2 22  1  0
  3 23  1  0
  3 24  1  0
  5 25  1  0
  5 26  1  0
  6 27  1  6
  8 28  1  0
  8 29  1  0
  9 30  1  0
  9 31  1  0
 10 32  1  0
 10 33  1  0
 11 34  1  0
 11 35  1  0
 12 36  1  0
 12 37  1  0
 13 38  1  6
 14 39  1  0
 16 40  1  0
 18 41  1  0
 20 42  1  0
 20 43  1  0
 20 44  1  0
M  ISO  8  21  13  22  13  23  13  24  13  25  13  26  13  27  13  28  13
M  ISO  8  29  13  30  13  31  13  32  13  33  13  34  13  35  13  36   8
M  ISO  8  37   8  38   8  39  14  40  14  41  14  42   8  43   8  44   8
M  END
>  <minimizedAffinity>  (1) 
-4.67933035

>  <minimizedRMSD>  (1) 
0.938652694

$$$$
