
     RDKit          3D

 39 42  0  0  1  0  0  0  0  0999 V2000
   47.2300   32.4600   44.6020 N   0  0  0  0  0  0  0  0  0  0  0  0
   47.1190   32.3650   46.0260 C   0  0  0  0  0  0  0  0  0  0  0  0
   45.8630   31.5860   46.1690 C   0  0  0  0  0  0  0  0  0  0  0  0
   45.9080   30.6220   45.0370 C   0  0  0  0  0  0  0  0  0  0  0  0
   47.0950   31.0420   44.2110 C   0  0  2  0  0  0  0  0  0  0  0  0
   47.4130   33.5130   43.6400 C   0  0  0  0  0  0  0  0  0  0  0  0
   46.3710   34.3570   43.2100 C   0  0  0  0  0  0  0  0  0  0  0  0
   46.6850   35.3380   42.2660 C   0  0  0  0  0  0  0  0  0  0  0  0
   47.9400   35.4140   41.8330 N   0  0  0  0  0  0  0  0  0  0  0  0
   48.9080   34.5990   42.2580 C   0  0  0  0  0  0  0  0  0  0  0  0
   48.6410   33.6430   43.1680 N   0  0  0  0  0  0  0  0  0  0  0  0
   45.0180   34.1210   43.8100 C   0  0  0  0  0  0  0  0  0  0  0  0
   44.1130   35.0040   43.2050 F   0  0  0  0  0  0  0  0  0  0  0  0
   44.9930   34.3970   45.1230 F   0  0  0  0  0  0  0  0  0  0  0  0
   44.5170   32.9190   43.5020 F   0  0  0  0  0  0  0  0  0  0  0  0
   48.2870   30.2480   44.4660 C   0  0  0  0  0  0  0  0  0  0  0  0
   48.6840   29.4120   45.4480 C   0  0  0  0  0  0  0  0  0  0  0  0
   49.8810   28.8050   45.4280 C   0  0  0  0  0  0  0  0  0  0  0  0
   50.7020   29.1010   44.3080 C   0  0  0  0  0  0  0  0  0  0  0  0
   49.6350   30.2900   43.3170 S   0  0  0  0  0  0  0  0  0  0  0  0
   51.9900   28.6350   43.9980 N   0  0  0  0  0  0  0  0  0  0  0  0
   52.6160   27.5850   44.4660 N   0  0  0  0  0  0  0  0  0  0  0  0
   53.8450   27.4500   43.9380 C   0  0  0  0  0  0  0  0  0  0  0  0
   53.9540   28.5330   43.0660 C   0  0  0  0  0  0  0  0  0  0  0  0
   52.7680   29.2610   43.1270 C   0  0  0  0  0  0  0  0  0  0  0  0
   47.9760   31.8307   46.4619 H   0  0  0  0  0  0  0  0  0  0  0  0
   47.1079   33.3361   46.5426 H   0  0  0  0  0  0  0  0  0  0  0  0
   45.8386   31.0566   47.1329 H   0  0  0  0  0  0  0  0  0  0  0  0
   44.9654   32.2216   46.1490 H   0  0  0  0  0  0  0  0  0  0  0  0
   46.0403   29.5953   45.4091 H   0  0  0  0  0  0  0  0  0  0  0  0
   44.9761   30.6288   44.4526 H   0  0  0  0  0  0  0  0  0  0  0  0
   46.9609   30.8940   43.1293 H   0  0  0  0  0  0  0  0  0  0  0  0
   45.9151   36.0286   41.8912 H   0  0  0  0  0  0  0  0  0  0  0  0
   49.9287   34.7089   41.8630 H   0  0  0  0  0  0  0  0  0  0  0  0
   48.0048   29.2218   46.2921 H   0  0  0  0  0  0  0  0  0  0  0  0
   50.2049   28.1225   46.2275 H   0  0  0  0  0  0  0  0  0  0  0  0
   54.5904   26.6681   44.1453 H   0  0  0  0  0  0  0  0  0  0  0  0
   54.8257   28.7711   42.4387 H   0  0  0  0  0  0  0  0  0  0  0  0
   52.5254   30.1743   42.5639 H   0  0  0  0  0  0  0  0  0  0  0  0
  1  2  1  0
  2  3  1  0
  4  3  1  0
  5 16  1  0
  5  1  1  0
  5  4  1  0
  6  1  1  0
  7  6  2  0
  7 12  1  0
  8  7  1  0
  9 10  1  0
  9  8  2  0
 10 11  2  0
 11  6  1  0
 12 14  1  0
 13 12  1  0
 15 12  1  0
 16 17  2  0
 18 17  1  0
 19 18  2  0
 20 19  1  0
 20 16  1  0
 21 19  1  0
 21 22  1  0
 23 22  2  0
 24 25  2  0
 24 23  1  0
 25 21  1  0
  2 26  1  0
  2 27  1  0
  3 28  1  0
  3 29  1  0
  4 30  1  0
  4 31  1  0
  5 32  1  6
  8 33  1  0
 10 34  1  0
 17 35  1  0
 18 36  1  0
 23 37  1  0
 24 38  1  0
 25 39  1  0
M  ISO  8  26  13  27  13  28  13  29  13  30  13  31  13  32  13  33  14
M  ISO  6  34  14  35  14  36  14  37  14  38  14  39  14
M  END
>  <minimizedAffinity>  (1) 
-4.0212245

>  <minimizedRMSD>  (1) 
0.220786422

$$$$
