
     RDKit          3D

 23 24  0  0  0  0  0  0  0  0999 V2000
   46.3630   34.9030   42.7790 C   0  0  0  0  0  0  0  0  0  0  0  0
   46.6320   34.0240   43.8290 C   0  0  0  0  0  0  0  0  0  0  0  0
   45.8360   34.1310   44.9860 C   0  0  0  0  0  0  0  0  0  0  0  0
   44.8530   35.0690   45.0330 N   0  0  0  0  0  0  0  0  0  0  0  0
   44.6360   35.8940   43.9880 C   0  0  0  0  0  0  0  0  0  0  0  0
   45.3820   35.8180   42.8610 N   0  0  0  0  0  0  0  0  0  0  0  0
   46.0160   33.2910   46.1190 N   0  0  0  0  0  0  0  0  0  0  0  0
   46.9110   32.2960   46.2100 C   0  0  0  0  0  0  0  0  0  0  0  0
   47.0260   31.5180   47.3570 C   0  0  0  0  0  0  0  0  0  0  0  0
   46.1950   31.7750   48.4350 C   0  0  0  0  0  0  0  0  0  0  0  0
   46.3200   31.0520   49.4670 O   0  0  0  0  0  0  0  0  0  0  0  0
   45.3000   32.7800   48.3260 N   0  0  0  0  0  0  0  0  0  0  0  0
   45.2120   33.5190   47.1980 C   0  0  0  0  0  0  0  0  0  0  0  0
   44.3320   34.4420   47.2050 O   0  0  0  0  0  0  0  0  0  0  0  0
   47.1960   34.7970   41.5600 C   0  0  0  0  0  0  0  0  0  0  0  0
   47.4352   33.2760   43.7558 H   0  0  0  0  0  0  0  0  0  0  0  0
   43.8351   36.6452   44.0531 H   0  0  0  0  0  0  0  0  0  0  0  0
   47.5714   32.0900   45.3548 H   0  0  0  0  0  0  0  0  0  0  0  0
   47.7684   30.7078   47.4076 H   0  0  0  0  0  0  0  0  0  0  0  0
   44.6732   32.9871   49.1166 H   0  0  0  0  0  0  0  0  0  0  0  0
   48.2496   34.6629   41.8464 H   0  0  0  0  0  0  0  0  0  0  0  0
   46.8654   33.9337   40.9639 H   0  0  0  0  0  0  0  0  0  0  0  0
   47.0921   35.7156   40.9639 H   0  0  0  0  0  0  0  0  0  0  0  0
  1  6  2  0
  1  2  1  0
  2  3  2  0
  3  4  1  0
  3  7  1  0
  5  4  2  0
  6  5  1  0
  7  8  1  0
  7 13  1  0
  8  9  2  0
  9 10  1  0
 10 11  2  0
 12 10  1  0
 13 14  2  0
 13 12  1  0
 15  1  1  0
  2 16  1  0
  5 17  1  0
  8 18  1  0
  9 19  1  0
 12 20  1  0
 15 21  1  0
 15 22  1  0
 15 23  1  0
M  ISO  8  16  14  17  14  18  14  19  14  20   9  21   8  22   8  23   8
M  END
>  <minimizedAffinity>  (1) 
-5.22151041

>  <minimizedRMSD>  (1) 
0.577527404

$$$$
