
     RDKit          3D

 45 48  0  0  1  0  0  0  0  0999 V2000
   45.0630   33.5640   40.1060 N   0  0  0  0  0  0  0  0  0  0  0  0
   44.1430   34.5830   40.5160 C   0  0  0  0  0  0  0  0  0  0  0  0
   43.5350   34.4070   41.8550 C   0  0  0  0  0  0  0  0  0  0  0  0
   43.2330   33.0390   41.9680 O   0  0  0  0  0  0  0  0  0  0  0  0
   44.4700   32.4600   42.2230 C   0  0  0  0  0  0  0  0  0  0  0  0
   45.4770   32.6810   41.1100 C   0  0  2  0  0  0  0  0  0  0  0  0
   46.7090   33.1960   41.7160 N   0  0  0  0  0  0  0  0  0  0  0  0
   46.8250   34.1550   42.6810 C   0  0  0  0  0  0  0  0  0  0  0  0
   48.1540   34.3190   42.9440 N   0  0  0  0  0  0  0  0  0  0  0  0
   48.8180   33.4780   42.1550 C   0  0  0  0  0  0  0  0  0  0  0  0
   50.1480   33.1700   41.9490 C   0  0  0  0  0  0  0  0  0  0  0  0
   50.5470   32.2360   41.0490 N   0  0  0  0  0  0  0  0  0  0  0  0
   49.6370   31.5630   40.3110 C   0  0  0  0  0  0  0  0  0  0  0  0
   48.3350   31.8350   40.4830 N   0  0  0  0  0  0  0  0  0  0  0  0
   47.9500   32.7480   41.3640 C   0  0  0  0  0  0  0  0  0  0  0  0
   51.1630   33.8370   42.6920 N   0  0  0  0  0  0  0  0  0  0  0  0
   44.6880   33.0600   38.8310 C   0  0  0  0  0  0  0  0  0  0  0  0
   45.7970   32.4870   37.9830 C   0  0  1  0  0  0  0  0  0  0  0  0
   45.6510   32.3160   35.4480 C   0  0  0  0  0  0  0  0  0  0  0  0
   45.1940   31.9510   36.7550 C   0  0  0  0  0  0  0  0  0  0  0  0
   44.1340   31.0580   36.7910 C   0  0  0  0  0  0  0  0  0  0  0  0
   43.6130   30.6020   35.6310 N   0  0  0  0  0  0  0  0  0  0  0  0
   44.0530   30.9540   34.4230 C   0  0  0  0  0  0  0  0  0  0  0  0
   45.0870   31.8240   34.3400 N   0  0  0  0  0  0  0  0  0  0  0  0
   46.8690   33.4630   37.6810 C   0  0  0  0  0  0  0  0  0  0  0  0
   44.6806   35.5427   40.5138 H   0  0  0  0  0  0  0  0  0  0  0  0
   43.3078   34.5338   39.8018 H   0  0  0  0  0  0  0  0  0  0  0  0
   44.2452   34.7074   42.6395 H   0  0  0  0  0  0  0  0  0  0  0  0
   42.6353   35.0287   41.9732 H   0  0  0  0  0  0  0  0  0  0  0  0
   44.8737   32.8930   43.1501 H   0  0  0  0  0  0  0  0  0  0  0  0
   44.3106   31.3749   42.3074 H   0  0  0  0  0  0  0  0  0  0  0  0
   45.6155   31.7103   40.6114 H   0  0  0  0  0  0  0  0  0  0  0  0
   45.9966   34.6975   43.1600 H   0  0  0  0  0  0  0  0  0  0  0  0
   49.9585   30.8050   39.5816 H   0  0  0  0  0  0  0  0  0  0  0  0
   52.1538   33.6037   42.5347 H   0  0  0  0  0  0  0  0  0  0  0  0
   50.9064   34.5528   43.3868 H   0  0  0  0  0  0  0  0  0  0  0  0
   43.9443   32.2654   38.9908 H   0  0  0  0  0  0  0  0  0  0  0  0
   44.3126   33.9298   38.2720 H   0  0  0  0  0  0  0  0  0  0  0  0
   46.2968   31.6876   38.5497 H   0  0  0  0  0  0  0  0  0  0  0  0
   46.4899   33.0212   35.3528 H   0  0  0  0  0  0  0  0  0  0  0  0
   43.7214   30.7242   37.7545 H   0  0  0  0  0  0  0  0  0  0  0  0
   43.5864   30.5467   33.5139 H   0  0  0  0  0  0  0  0  0  0  0  0
   47.2908   33.8470   38.6215 H   0  0  0  0  0  0  0  0  0  0  0  0
   47.6609   32.9693   37.0986 H   0  0  0  0  0  0  0  0  0  0  0  0
   46.4516   34.2976   37.0986 H   0  0  0  0  0  0  0  0  0  0  0  0
  1  2  1  0
  1  6  1  0
  2  3  1  0
  3  4  1  0
  4  5  1  0
  6  7  1  0
  6  5  1  0
  7  8  1  0
  8  9  2  0
 10  9  1  0
 11 10  2  0
 11 16  1  0
 12 11  1  0
 13 14  1  0
 13 12  2  0
 14 15  2  0
 15  7  1  0
 15 10  1  0
 17  1  1  0
 18 17  1  0
 19 20  2  0
 20 21  1  0
 20 18  1  0
 22 21  2  0
 23 22  1  0
 24 23  2  0
 24 19  1  0
 25 18  1  0
  2 26  1  0
  2 27  1  0
  3 28  1  0
  3 29  1  0
  5 30  1  0
  5 31  1  0
  6 32  1  6
  8 33  1  0
 13 34  1  0
 16 35  1  0
 16 36  1  0
 17 37  1  0
 17 38  1  0
 18 39  1  1
 19 40  1  0
 21 41  1  0
 23 42  1  0
 25 43  1  0
 25 44  1  0
 25 45  1  0
M  ISO  8  26  13  27  13  28  13  29  13  30  13  31  13  32  13  33  14
M  ISO  8  34  14  37   8  38   8  39   8  40  14  41  14  42  14  43   8
M  ISO  2  44   8  45   8
M  END
>  <minimizedAffinity>  (1) 
-4.59875536

>  <minimizedRMSD>  (1) 
6.7038269

$$$$
