
     RDKit          3D

 21 22  0  0  0  0  0  0  0  0999 V2000
   46.0480   34.8210   43.3740 C   0  0  0  0  0  0  0  0  0  0  0  0
   46.3620   33.8370   44.3380 C   0  0  0  0  0  0  0  0  0  0  0  0
   45.6910   33.9000   45.5570 C   0  0  0  0  0  0  0  0  0  0  0  0
   44.7830   34.8720   45.7810 N   0  0  0  0  0  0  0  0  0  0  0  0
   44.5050   35.8060   44.8250 C   0  0  0  0  0  0  0  0  0  0  0  0
   45.1330   35.7760   43.6370 N   0  0  0  0  0  0  0  0  0  0  0  0
   45.9810   32.9140   46.5740 C   0  0  0  0  0  0  0  0  0  0  0  0
   47.0130   32.0170   46.4080 C   0  0  0  0  0  0  0  0  0  0  0  0
   47.2370   31.0930   47.4260 C   0  0  0  0  0  0  0  0  0  0  0  0
   46.4570   31.1050   48.5170 N   0  0  0  0  0  0  0  0  0  0  0  0
   45.4410   31.9760   48.6960 C   0  0  0  0  0  0  0  0  0  0  0  0
   45.2630   32.8410   47.6960 N   0  0  0  0  0  0  0  0  0  0  0  0
   46.7610   34.7610   42.0670 C   0  0  0  0  0  0  0  0  0  0  0  0
   47.1061   33.0530   44.1342 H   0  0  0  0  0  0  0  0  0  0  0  0
   43.7607   36.5899   45.0287 H   0  0  0  0  0  0  0  0  0  0  0  0
   47.6384   32.0299   45.5032 H   0  0  0  0  0  0  0  0  0  0  0  0
   48.0496   30.3571   47.3356 H   0  0  0  0  0  0  0  0  0  0  0  0
   44.8091   31.9727   49.5964 H   0  0  0  0  0  0  0  0  0  0  0  0
   47.8429   34.6700   42.2434 H   0  0  0  0  0  0  0  0  0  0  0  0
   46.4079   33.8894   41.4964 H   0  0  0  0  0  0  0  0  0  0  0  0
   46.5585   35.6794   41.4964 H   0  0  0  0  0  0  0  0  0  0  0  0
  1  6  2  0
  1  2  1  0
  2  3  2  0
  3  4  1  0
  3  7  1  0
  5  4  2  0
  6  5  1  0
  7 12  1  0
  8  7  2  0
  8  9  1  0
  9 10  2  0
 10 11  1  0
 12 11  2  0
 13  1  1  0
  2 14  1  0
  5 15  1  0
  8 16  1  0
  9 17  1  0
 11 18  1  0
 13 19  1  0
 13 20  1  0
 13 21  1  0
M  ISO  8  14  14  15  14  16  14  17  14  18  14  19   8  20   8  21   8
M  END
>  <minimizedAffinity>  (1) 
-4.66271544

>  <minimizedRMSD>  (1) 
0.502218187

$$$$
