
     RDKit          3D

 22 23  0  0  0  0  0  0  0  0999 V2000
   46.1340   34.8020   43.2920 C   0  0  0  0  0  0  0  0  0  0  0  0
   46.4370   33.8530   44.2800 C   0  0  0  0  0  0  0  0  0  0  0  0
   45.7450   33.9140   45.4910 C   0  0  0  0  0  0  0  0  0  0  0  0
   44.8170   34.8850   45.6510 N   0  0  0  0  0  0  0  0  0  0  0  0
   44.5430   35.7870   44.6880 C   0  0  0  0  0  0  0  0  0  0  0  0
   45.1910   35.7590   43.5070 N   0  0  0  0  0  0  0  0  0  0  0  0
   46.0240   32.9550   46.5400 C   0  0  0  0  0  0  0  0  0  0  0  0
   45.2030   32.9160   47.6450 C   0  0  0  0  0  0  0  0  0  0  0  0
   45.4680   31.9980   48.6530 C   0  0  0  0  0  0  0  0  0  0  0  0
   46.5770   31.1750   48.4410 C   0  0  0  0  0  0  0  0  0  0  0  0
   47.4030   31.2120   47.3310 C   0  0  0  0  0  0  0  0  0  0  0  0
   47.0780   32.1320   46.3980 N   0  0  0  0  0  0  0  0  0  0  0  0
   46.8620   34.7500   41.9980 C   0  0  0  0  0  0  0  0  0  0  0  0
   47.2004   33.0806   44.1049 H   0  0  0  0  0  0  0  0  0  0  0  0
   43.7790   36.5575   44.8688 H   0  0  0  0  0  0  0  0  0  0  0  0
   44.3481   33.6032   47.7282 H   0  0  0  0  0  0  0  0  0  0  0  0
   44.8465   31.9239   49.5575 H   0  0  0  0  0  0  0  0  0  0  0  0
   46.8133   30.4363   49.2211 H   0  0  0  0  0  0  0  0  0  0  0  0
   48.2649   30.5382   47.2169 H   0  0  0  0  0  0  0  0  0  0  0  0
   47.9427   34.6728   42.1881 H   0  0  0  0  0  0  0  0  0  0  0  0
   46.5272   33.8735   41.4239 H   0  0  0  0  0  0  0  0  0  0  0  0
   46.6552   35.6652   41.4239 H   0  0  0  0  0  0  0  0  0  0  0  0
  1  6  2  0
  1  2  1  0
  2  3  2  0
  3  4  1  0
  3  7  1  0
  5  4  2  0
  6  5  1  0
  7  8  2  0
  8  9  1  0
 10  9  2  0
 11 10  1  0
 12  7  1  0
 12 11  2  0
 13  1  1  0
  2 14  1  0
  5 15  1  0
  8 16  1  0
  9 17  1  0
 10 18  1  0
 11 19  1  0
 13 20  1  0
 13 21  1  0
 13 22  1  0
M  ISO  8  14  14  15  14  16  14  17  14  18  14  19  14  20   8  21   8
M  ISO  1  22   8
M  END
>  <minimizedAffinity>  (1) 
-4.81186485

>  <minimizedRMSD>  (1) 
0.433644027

$$$$
