
     RDKit          3D

 16 16  0  0  0  0  0  0  0  0999 V2000
   46.1330   34.8700   43.2270 C   0  0  0  0  0  0  0  0  0  0  0  0
   46.3410   33.9160   44.2230 C   0  0  0  0  0  0  0  0  0  0  0  0
   45.6120   34.0340   45.4120 C   0  0  0  0  0  0  0  0  0  0  0  0
   44.7440   35.0670   45.5370 N   0  0  0  0  0  0  0  0  0  0  0  0
   44.5670   35.9720   44.5570 C   0  0  0  0  0  0  0  0  0  0  0  0
   45.2610   35.8820   43.3930 N   0  0  0  0  0  0  0  0  0  0  0  0
   46.9110   34.7380   41.9680 C   0  0  0  0  0  0  0  0  0  0  0  0
   45.8180   33.0170   46.5020 C   0  0  0  0  0  0  0  0  0  0  0  0
   44.9180   33.2120   47.5190 F   0  0  0  0  0  0  0  0  0  0  0  0
   47.1250   33.0760   46.9780 F   0  0  0  0  0  0  0  0  0  0  0  0
   45.6730   31.7700   45.9250 F   0  0  0  0  0  0  0  0  0  0  0  0
   47.0577   33.0942   44.0782 H   0  0  0  0  0  0  0  0  0  0  0  0
   43.8513   36.7949   44.7004 H   0  0  0  0  0  0  0  0  0  0  0  0
   47.9694   34.5584   42.2081 H   0  0  0  0  0  0  0  0  0  0  0  0
   46.5196   33.8934   41.3819 H   0  0  0  0  0  0  0  0  0  0  0  0
   46.8200   35.6644   41.3819 H   0  0  0  0  0  0  0  0  0  0  0  0
  1  6  2  0
  1  2  1  0
  2  3  2  0
  3  4  1  0
  3  8  1  0
  5  4  2  0
  6  5  1  0
  7  1  1  0
  8 10  1  0
  8  9  1  0
 11  8  1  0
  2 12  1  0
  5 13  1  0
  7 14  1  0
  7 15  1  0
  7 16  1  0
M  ISO  5  12  14  13  14  14   8  15   8  16   8
M  END
>  <minimizedAffinity>  (1) 
-4.23321438

>  <minimizedRMSD>  (1) 
0.768899858

$$$$
