
     RDKit          3D

 16 16  0  0  0  0  0  0  0  0999 V2000
   46.1170   34.8690   43.2080 C   0  0  0  0  0  0  0  0  0  0  0  0
   46.2210   33.9630   44.2700 C   0  0  0  0  0  0  0  0  0  0  0  0
   45.4490   34.2160   45.4030 C   0  0  0  0  0  0  0  0  0  0  0  0
   44.6480   35.3030   45.4350 N   0  0  0  0  0  0  0  0  0  0  0  0
   44.5750   36.1560   44.3860 C   0  0  0  0  0  0  0  0  0  0  0  0
   45.3130   35.9440   43.2620 N   0  0  0  0  0  0  0  0  0  0  0  0
   46.9430   34.6040   41.9890 C   0  0  0  0  0  0  0  0  0  0  0  0
   45.5320   33.3070   46.5120 C   0  0  0  0  0  0  0  0  0  0  0  0
   46.3090   32.3320   46.4860 O   0  0  0  0  0  0  0  0  0  0  0  0
   44.7310   33.5080   47.6440 O   0  0  0  0  0  0  0  0  0  0  0  0
   46.8845   33.0875   44.2129 H   0  0  0  0  0  0  0  0  0  0  0  0
   43.9111   37.0312   44.4428 H   0  0  0  0  0  0  0  0  0  0  0  0
   47.9500   34.2809   42.2916 H   0  0  0  0  0  0  0  0  0  0  0  0
   46.4688   33.8129   41.3896 H   0  0  0  0  0  0  0  0  0  0  0  0
   47.0175   35.5233   41.3896 H   0  0  0  0  0  0  0  0  0  0  0  0
   44.7882   32.8815   48.4084 H   0  0  0  0  0  0  0  0  0  0  0  0
  1  6  2  0
  1  2  1  0
  2  3  2  0
  3  4  1  0
  3  8  1  0
  5  4  2  0
  6  5  1  0
  7  1  1  0
  8 10  1  0
  9  8  2  0
  2 11  1  0
  5 12  1  0
  7 13  1  0
  7 14  1  0
  7 15  1  0
 10 16  1  0
M  ISO  6  11  14  12  14  13   8  14   8  15   8  16   3
M  END
>  <minimizedAffinity>  (1) 
-4.20671892

>  <minimizedRMSD>  (1) 
0.296444595

$$$$
