
     RDKit          3D

 34 35  0  0  1  0  0  0  0  0999 V2000
   47.2060   35.3970   42.0600 C   0  0  0  0  0  0  0  0  0  0  0  0
   48.3340   34.8920   41.3610 N   0  0  0  0  0  0  0  0  0  0  0  0
   49.5180   35.0980   42.1490 C   0  0  0  0  0  0  0  0  0  0  0  0
   50.3580   33.9090   42.3910 C   0  0  0  0  0  0  0  0  0  0  0  0
   49.4660   32.8490   42.6560 O   0  0  0  0  0  0  0  0  0  0  0  0
   48.9900   32.5170   41.3810 C   0  0  0  0  0  0  0  0  0  0  0  0
   48.2590   33.6540   40.7120 C   0  0  2  0  0  0  0  0  0  0  0  0
   48.8800   33.7940   39.3860 N   0  0  0  0  0  0  0  0  0  0  0  0
   46.0390   34.4550   42.2200 C   0  0  1  0  0  0  0  0  0  0  0  0
   44.8600   35.3840   44.2710 C   0  0  0  0  0  0  0  0  0  0  0  0
   45.6880   34.3960   43.6510 C   0  0  0  0  0  0  0  0  0  0  0  0
   46.1490   33.3810   44.4680 C   0  0  0  0  0  0  0  0  0  0  0  0
   45.7950   33.3840   45.7810 N   0  0  0  0  0  0  0  0  0  0  0  0
   45.0190   34.3170   46.3400 C   0  0  0  0  0  0  0  0  0  0  0  0
   44.5430   35.3370   45.5650 N   0  0  0  0  0  0  0  0  0  0  0  0
   44.8730   34.8240   41.3820 C   0  0  0  0  0  0  0  0  0  0  0  0
   46.8474   36.2852   41.5192 H   0  0  0  0  0  0  0  0  0  0  0  0
   47.5613   35.5980   43.0814 H   0  0  0  0  0  0  0  0  0  0  0  0
   50.1375   35.8466   41.6335 H   0  0  0  0  0  0  0  0  0  0  0  0
   49.1593   35.4102   43.1409 H   0  0  0  0  0  0  0  0  0  0  0  0
   50.9660   33.6836   41.5025 H   0  0  0  0  0  0  0  0  0  0  0  0
   51.0518   34.0702   43.2292 H   0  0  0  0  0  0  0  0  0  0  0  0
   49.8450   32.2306   40.7509 H   0  0  0  0  0  0  0  0  0  0  0  0
   48.2744   31.6903   41.5012 H   0  0  0  0  0  0  0  0  0  0  0  0
   47.1882   33.4024   40.7056 H   0  0  0  0  0  0  0  0  0  0  0  0
   49.8790   34.0192   39.4968 H   0  0  0  0  0  0  0  0  0  0  0  0
   48.7829   32.9100   38.8663 H   0  0  0  0  0  0  0  0  0  0  0  0
   46.3387   33.4588   41.8625 H   0  0  0  0  0  0  0  0  0  0  0  0
   44.4714   36.2112   43.6588 H   0  0  0  0  0  0  0  0  0  0  0  0
   46.7910   32.5847   44.0633 H   0  0  0  0  0  0  0  0  0  0  0  0
   44.7667   34.2648   47.4094 H   0  0  0  0  0  0  0  0  0  0  0  0
   44.0257   35.0921   42.0303 H   0  0  0  0  0  0  0  0  0  0  0  0
   45.1351   35.6831   40.7470 H   0  0  0  0  0  0  0  0  0  0  0  0
   44.5931   33.9705   40.7470 H   0  0  0  0  0  0  0  0  0  0  0  0
  1  9  1  0
  2  1  1  0
  2  3  1  0
  3  4  1  0
  4  5  1  0
  6  5  1  0
  7  2  1  0
  7  6  1  0
  8  7  1  0
  9 11  1  0
 10 15  2  0
 11 10  1  0
 11 12  2  0
 12 13  1  0
 13 14  2  0
 15 14  1  0
 16  9  1  0
  1 17  1  0
  1 18  1  0
  3 19  1  0
  3 20  1  0
  4 21  1  0
  4 22  1  0
  6 23  1  0
  6 24  1  0
  7 25  1  6
  8 26  1  0
  8 27  1  0
  9 28  1  6
 10 29  1  0
 12 30  1  0
 14 31  1  0
 16 32  1  0
 16 33  1  0
 16 34  1  0
M  ISO  8  17   8  18   8  19  13  20  13  21  13  22  13  23  13  24  13
M  ISO  8  25  13  26   5  27   5  28   8  29  14  30  14  31  14  32   8
M  ISO  2  33   8  34   8
M  END
>  <minimizedAffinity>  (1) 
-4.4390831

>  <minimizedRMSD>  (1) 
0.595808625

$$$$
