
     RDKit          3D

 33 35  0  0  0  0  0  0  0  0999 V2000
   46.0460   34.9580   43.3690 C   0  0  0  0  0  0  0  0  0  0  0  0
   46.2960   33.9820   44.3450 C   0  0  0  0  0  0  0  0  0  0  0  0
   45.5830   34.0600   45.5490 C   0  0  0  0  0  0  0  0  0  0  0  0
   44.6860   35.0810   45.7030 N   0  0  0  0  0  0  0  0  0  0  0  0
   44.4780   35.9930   44.7450 C   0  0  0  0  0  0  0  0  0  0  0  0
   45.1470   35.9560   43.5630 N   0  0  0  0  0  0  0  0  0  0  0  0
   45.8700   33.0600   46.4950 N   0  0  0  0  0  0  0  0  0  0  0  0
   45.1670   32.7050   47.5970 C   0  0  0  0  0  0  0  0  0  0  0  0
   45.8720   31.6740   48.1850 C   0  0  0  0  0  0  0  0  0  0  0  0
   46.9660   31.4400   47.4300 N   0  0  0  0  0  0  0  0  0  0  0  0
   46.9860   32.2830   46.3810 C   0  0  0  0  0  0  0  0  0  0  0  0
   46.8030   34.8670   42.1090 C   0  0  0  0  0  0  0  0  0  0  0  0
   45.9080   34.3720   41.0830 N   0  0  0  0  0  0  0  0  0  0  0  0
   44.5640   34.4100   41.1020 C   0  0  0  0  0  0  0  0  0  0  0  0
   43.8250   33.9050   40.0610 C   0  0  0  0  0  0  0  0  0  0  0  0
   42.3450   33.9540   40.0960 C   0  0  0  0  0  0  0  0  0  0  0  0
   44.4290   33.3450   38.9700 C   0  0  0  0  0  0  0  0  0  0  0  0
   43.8430   32.8630   37.9810 O   0  0  0  0  0  0  0  0  0  0  0  0
   45.7900   33.3060   38.9490 N   0  0  0  0  0  0  0  0  0  0  0  0
   46.4700   33.8170   39.9980 C   0  0  0  0  0  0  0  0  0  0  0  0
   47.7380   33.7430   39.9040 O   0  0  0  0  0  0  0  0  0  0  0  0
   47.0288   33.1804   44.1708 H   0  0  0  0  0  0  0  0  0  0  0  0
   43.7451   36.7945   44.9198 H   0  0  0  0  0  0  0  0  0  0  0  0
   44.2249   33.1485   47.9517 H   0  0  0  0  0  0  0  0  0  0  0  0
   45.5922   31.1389   49.1044 H   0  0  0  0  0  0  0  0  0  0  0  0
   47.7489   32.3352   45.5903 H   0  0  0  0  0  0  0  0  0  0  0  0
   47.1799   35.8613   41.8274 H   0  0  0  0  0  0  0  0  0  0  0  0
   47.6609   34.1887   42.2271 H   0  0  0  0  0  0  0  0  0  0  0  0
   44.0479   34.8533   41.9664 H   0  0  0  0  0  0  0  0  0  0  0  0
   42.0031   33.9653   41.1415 H   0  0  0  0  0  0  0  0  0  0  0  0
   41.9961   34.8642   39.5863 H   0  0  0  0  0  0  0  0  0  0  0  0
   41.9367   33.0689   39.5863 H   0  0  0  0  0  0  0  0  0  0  0  0
   46.2911   32.8948   38.1486 H   0  0  0  0  0  0  0  0  0  0  0  0
  1  6  1  0
  1  2  2  0
  2  3  1  0
  3  4  2  0
  3  7  1  0
  5  4  1  0
  6  5  2  0
  7  8  1  0
  8  9  2  0
 10  9  1  0
 11  7  1  0
 11 10  2  0
 12  1  1  0
 13 14  1  0
 13 12  1  0
 15 16  1  0
 15 14  2  0
 17 15  1  0
 18 17  2  0
 19 17  1  0
 19 20  1  0
 20 13  1  0
 21 20  2  0
  2 22  1  0
  5 23  1  0
  8 24  1  0
  9 25  1  0
 11 26  1  0
 12 27  1  0
 12 28  1  0
 14 29  1  0
 16 30  1  0
 16 31  1  0
 16 32  1  0
 19 33  1  0
M  ISO  8  22  14  23  14  24  14  25  14  26  14  27   8  28   8  29  14
M  ISO  4  30   8  31   8  32   8  33   9
M  END
>  <minimizedAffinity>  (1) 
-5.8682313

>  <minimizedRMSD>  (1) 
1.04562879

$$$$
