
     RDKit          3D

 34 37  0  0  0  0  0  0  0  0999 V2000
   46.3120   34.6370   43.4420 C   0  0  0  0  0  0  0  0  0  0  0  0
   46.4560   33.7740   44.5280 C   0  0  0  0  0  0  0  0  0  0  0  0
   45.6620   33.9150   45.6490 C   0  0  0  0  0  0  0  0  0  0  0  0
   44.7480   34.9090   45.6580 N   0  0  0  0  0  0  0  0  0  0  0  0
   44.6010   35.7490   44.6110 C   0  0  0  0  0  0  0  0  0  0  0  0
   45.3730   35.6330   43.4880 N   0  0  0  0  0  0  0  0  0  0  0  0
   45.9090   32.9880   46.6700 N   0  0  0  0  0  0  0  0  0  0  0  0
   45.1800   32.7570   47.7990 C   0  0  0  0  0  0  0  0  0  0  0  0
   45.8270   31.7490   48.4890 C   0  0  0  0  0  0  0  0  0  0  0  0
   46.9010   31.4110   47.7680 N   0  0  0  0  0  0  0  0  0  0  0  0
   46.9700   32.1500   46.6630 C   0  0  0  0  0  0  0  0  0  0  0  0
   47.1520   34.5320   42.2450 C   0  0  0  0  0  0  0  0  0  0  0  0
   46.5090   33.8560   41.0910 C   0  0  0  0  0  0  0  0  0  0  0  0
   45.3500   33.1980   41.3970 N   0  0  0  0  0  0  0  0  0  0  0  0
   44.6100   32.5520   40.4800 C   0  0  0  0  0  0  0  0  0  0  0  0
   44.9930   32.5280   39.1930 N   0  0  0  0  0  0  0  0  0  0  0  0
   46.1140   33.1460   38.8170 C   0  0  0  0  0  0  0  0  0  0  0  0
   46.5910   33.1650   37.5100 C   0  0  0  0  0  0  0  0  0  0  0  0
   47.7690   33.8160   37.1700 C   0  0  0  0  0  0  0  0  0  0  0  0
   48.4750   34.4570   38.1580 C   0  0  0  0  0  0  0  0  0  0  0  0
   48.0080   34.4410   39.4520 C   0  0  0  0  0  0  0  0  0  0  0  0
   46.8520   33.7990   39.7700 C   0  0  0  0  0  0  0  0  0  0  0  0
   47.2093   32.9733   44.4913 H   0  0  0  0  0  0  0  0  0  0  0  0
   43.8432   36.5446   44.6625 H   0  0  0  0  0  0  0  0  0  0  0  0
   44.2567   33.2725   48.1018 H   0  0  0  0  0  0  0  0  0  0  0  0
   45.5173   31.3089   49.4484 H   0  0  0  0  0  0  0  0  0  0  0  0
   47.7473   32.0899   45.8869 H   0  0  0  0  0  0  0  0  0  0  0  0
   47.4321   35.5490   41.9332 H   0  0  0  0  0  0  0  0  0  0  0  0
   48.0153   33.9110   42.5260 H   0  0  0  0  0  0  0  0  0  0  0  0
   43.6855   32.0400   40.7852 H   0  0  0  0  0  0  0  0  0  0  0  0
   46.0188   32.6499   36.7244 H   0  0  0  0  0  0  0  0  0  0  0  0
   48.1294   33.8183   36.1307 H   0  0  0  0  0  0  0  0  0  0  0  0
   49.4110   34.9816   37.9156 H   0  0  0  0  0  0  0  0  0  0  0  0
   48.5776   34.9547   40.2405 H   0  0  0  0  0  0  0  0  0  0  0  0
  1  6  1  0
  1  2  2  0
  2  3  1  0
  3  4  2  0
  3  7  1  0
  5  4  1  0
  6  5  2  0
  7  8  1  0
  8  9  2  0
 10  9  1  0
 11  7  1  0
 11 10  2  0
 12  1  1  0
 13 14  2  0
 13 12  1  0
 15 14  1  0
 16 15  2  0
 17 16  1  0
 17 22  2  0
 18 17  1  0
 19 18  2  0
 19 20  1  0
 20 21  2  0
 21 22  1  0
 22 13  1  0
  2 23  1  0
  5 24  1  0
  8 25  1  0
  9 26  1  0
 11 27  1  0
 12 28  1  0
 12 29  1  0
 15 30  1  0
 18 31  1  0
 19 32  1  0
 20 33  1  0
 21 34  1  0
M  ISO  8  23  14  24  14  25  14  26  14  27  14  28   8  29   8  30  14
M  ISO  4  31  14  32  14  33  14  34  14
M  END
>  <minimizedAffinity>  (1) 
-6.24285889

>  <minimizedRMSD>  (1) 
4.03714132

$$$$
