
     RDKit          3D

 27 29  0  0  0  0  0  0  0  0999 V2000
   45.9460   33.9310   43.9820 C   0  0  0  0  0  0  0  0  0  0  0  0
   46.2300   33.0790   45.0610 C   0  0  0  0  0  0  0  0  0  0  0  0
   45.6500   33.3940   46.3030 C   0  0  0  0  0  0  0  0  0  0  0  0
   44.8530   34.5000   46.4000 N   0  0  0  0  0  0  0  0  0  0  0  0
   44.6150   35.2830   45.3330 C   0  0  0  0  0  0  0  0  0  0  0  0
   45.1530   35.0190   44.1080 N   0  0  0  0  0  0  0  0  0  0  0  0
   45.9670   32.5090   47.3520 N   0  0  0  0  0  0  0  0  0  0  0  0
   45.3480   32.3550   48.5510 C   0  0  0  0  0  0  0  0  0  0  0  0
   46.0510   31.3560   49.2130 C   0  0  0  0  0  0  0  0  0  0  0  0
   47.0530   30.9510   48.4030 N   0  0  0  0  0  0  0  0  0  0  0  0
   47.0220   31.6470   47.2500 C   0  0  0  0  0  0  0  0  0  0  0  0
   46.5670   33.5790   42.6940 C   0  0  0  0  0  0  0  0  0  0  0  0
   47.8220   34.2690   42.4760 N   0  0  0  0  0  0  0  0  0  0  0  0
   49.0650   34.0540   42.9290 N   0  0  0  0  0  0  0  0  0  0  0  0
   49.9040   34.9760   42.4400 C   0  0  0  0  0  0  0  0  0  0  0  0
   49.2030   35.8490   41.6270 C   0  0  0  0  0  0  0  0  0  0  0  0
   47.9130   35.3640   41.6840 C   0  0  0  0  0  0  0  0  0  0  0  0
   46.8802   32.2001   44.9399 H   0  0  0  0  0  0  0  0  0  0  0  0
   43.9665   36.1635   45.4519 H   0  0  0  0  0  0  0  0  0  0  0  0
   44.4715   32.9069   48.9213 H   0  0  0  0  0  0  0  0  0  0  0  0
   45.8308   30.9649   50.2173 H   0  0  0  0  0  0  0  0  0  0  0  0
   47.7087   31.5422   46.3971 H   0  0  0  0  0  0  0  0  0  0  0  0
   46.7528   32.4950   42.6766 H   0  0  0  0  0  0  0  0  0  0  0  0
   45.8750   33.8837   41.8951 H   0  0  0  0  0  0  0  0  0  0  0  0
   50.9821   35.0308   42.6516 H   0  0  0  0  0  0  0  0  0  0  0  0
   49.5823   36.7186   41.0704 H   0  0  0  0  0  0  0  0  0  0  0  0
   47.0615   35.8121   41.1509 H   0  0  0  0  0  0  0  0  0  0  0  0
  1  6  1  0
  1  2  2  0
  2  3  1  0
  3  4  2  0
  3  7  1  0
  5  4  1  0
  6  5  2  0
  7  8  1  0
  8  9  2  0
 10  9  1  0
 11  7  1  0
 11 10  2  0
 12  1  1  0
 13 12  1  0
 13 14  1  0
 15 14  2  0
 16 17  2  0
 16 15  1  0
 17 13  1  0
  2 18  1  0
  5 19  1  0
  8 20  1  0
  9 21  1  0
 11 22  1  0
 12 23  1  0
 12 24  1  0
 15 25  1  0
 16 26  1  0
 17 27  1  0
M  ISO  8  18  14  19  14  20  14  21  14  22  14  23   8  24   8  25  14
M  ISO  2  26  14  27  14
M  END
>  <minimizedAffinity>  (1) 
-5.28318739

>  <minimizedRMSD>  (1) 
1.15315175

$$$$
