
     RDKit          3D

 32 34  0  0  0  0  0  0  0  0999 V2000
   45.8360   34.2120   43.2900 C   0  0  0  0  0  0  0  0  0  0  0  0
   46.1100   33.4150   44.4240 C   0  0  0  0  0  0  0  0  0  0  0  0
   45.5640   33.8110   45.6410 C   0  0  0  0  0  0  0  0  0  0  0  0
   44.7970   34.9440   45.6730 N   0  0  0  0  0  0  0  0  0  0  0  0
   44.5610   35.6730   44.5750 C   0  0  0  0  0  0  0  0  0  0  0  0
   45.0710   35.3240   43.3720 N   0  0  0  0  0  0  0  0  0  0  0  0
   45.8630   32.9900   46.7420 N   0  0  0  0  0  0  0  0  0  0  0  0
   45.2770   32.9460   47.9570 C   0  0  0  0  0  0  0  0  0  0  0  0
   45.9530   31.9560   48.6790 C   0  0  0  0  0  0  0  0  0  0  0  0
   46.9060   31.4520   47.8720 N   0  0  0  0  0  0  0  0  0  0  0  0
   46.8700   32.0680   46.6870 C   0  0  0  0  0  0  0  0  0  0  0  0
   46.4090   33.8020   42.0000 C   0  0  0  0  0  0  0  0  0  0  0  0
   47.7740   34.1340   41.8140 N   0  0  0  0  0  0  0  0  0  0  0  0
   48.0970   35.5020   41.7720 C   0  0  0  0  0  0  0  0  0  0  0  0
   49.5190   35.8730   41.9590 C   0  0  0  0  0  0  0  0  0  0  0  0
   50.2450   34.9880   42.8440 N   0  0  0  0  0  0  0  0  0  0  0  0
   50.0710   33.5980   42.5740 C   0  0  0  0  0  0  0  0  0  0  0  0
   48.7260   33.1690   42.1310 C   0  0  0  0  0  0  0  0  0  0  0  0
   46.7337   32.5122   44.3474 H   0  0  0  0  0  0  0  0  0  0  0  0
   43.9382   36.5763   44.6532 H   0  0  0  0  0  0  0  0  0  0  0  0
   44.4375   33.5637   48.3087 H   0  0  0  0  0  0  0  0  0  0  0  0
   45.7446   31.6468   49.7139 H   0  0  0  0  0  0  0  0  0  0  0  0
   47.5278   31.8700   45.8279 H   0  0  0  0  0  0  0  0  0  0  0  0
   46.3097   32.7098   41.9151 H   0  0  0  0  0  0  0  0  0  0  0  0
   45.8523   34.3547   41.2289 H   0  0  0  0  0  0  0  0  0  0  0  0
   47.7824   35.8852   40.7901 H   0  0  0  0  0  0  0  0  0  0  0  0
   47.5760   35.9406   42.6358 H   0  0  0  0  0  0  0  0  0  0  0  0
   50.0122   35.8605   40.9759 H   0  0  0  0  0  0  0  0  0  0  0  0
   49.5301   36.8694   42.4248 H   0  0  0  0  0  0  0  0  0  0  0  0
   50.8410   35.3345   43.6093 H   0  0  0  0  0  0  0  0  0  0  0  0
   50.8965   32.8802   42.6895 H   0  0  0  0  0  0  0  0  0  0  0  0
   48.4810   32.0995   42.0530 H   0  0  0  0  0  0  0  0  0  0  0  0
  1  6  1  0
  1  2  2  0
  2  3  1  0
  3  4  2  0
  3  7  1  0
  5  4  1  0
  6  5  2  0
  7  8  1  0
  8  9  2  0
 10  9  1  0
 11  7  1  0
 11 10  2  0
 12  1  1  0
 13 12  1  0
 13 18  1  0
 14 13  1  0
 14 15  1  0
 15 16  1  0
 17 16  1  0
 18 17  2  0
  2 19  1  0
  5 20  1  0
  8 21  1  0
  9 22  1  0
 11 23  1  0
 12 24  1  0
 12 25  1  0
 14 26  1  0
 14 27  1  0
 15 28  1  0
 15 29  1  0
 16 30  1  0
 17 31  1  0
 18 32  1  0
M  ISO  8  19  14  20  14  21  14  22  14  23  14  24   8  25   8  26  13
M  ISO  5  27  13  28  13  29  13  31  13  32  13
M  END
>  <minimizedAffinity>  (1) 
-5.76852083

>  <minimizedRMSD>  (1) 
0.931092441

$$$$
