
     RDKit          3D

 30 32  0  0  0  0  0  0  0  0999 V2000
   46.0340   34.9810   43.3490 C   0  0  0  0  0  0  0  0  0  0  0  0
   46.2960   33.9890   44.3140 C   0  0  0  0  0  0  0  0  0  0  0  0
   45.5900   34.0610   45.5180 C   0  0  0  0  0  0  0  0  0  0  0  0
   44.6930   35.0780   45.6950 N   0  0  0  0  0  0  0  0  0  0  0  0
   44.4760   36.0030   44.7450 C   0  0  0  0  0  0  0  0  0  0  0  0
   45.1390   35.9680   43.5660 N   0  0  0  0  0  0  0  0  0  0  0  0
   45.8850   33.0500   46.4540 N   0  0  0  0  0  0  0  0  0  0  0  0
   45.1980   32.6820   47.5520 C   0  0  0  0  0  0  0  0  0  0  0  0
   45.9200   31.6370   48.1220 C   0  0  0  0  0  0  0  0  0  0  0  0
   47.0070   31.4170   47.3500 N   0  0  0  0  0  0  0  0  0  0  0  0
   47.0030   32.2730   46.3240 C   0  0  0  0  0  0  0  0  0  0  0  0
   46.7840   34.9080   42.0710 C   0  0  0  0  0  0  0  0  0  0  0  0
   45.9220   34.3040   40.9970 C   0  0  0  0  0  0  0  0  0  0  0  0
   46.4980   33.5770   39.9970 C   0  0  0  0  0  0  0  0  0  0  0  0
   45.7700   32.9960   38.9810 C   0  0  0  0  0  0  0  0  0  0  0  0
   44.3920   33.1930   39.0330 C   0  0  0  0  0  0  0  0  0  0  0  0
   43.7670   33.9220   40.0280 C   0  0  0  0  0  0  0  0  0  0  0  0
   44.5670   34.4720   41.0090 C   0  0  0  0  0  0  0  0  0  0  0  0
   47.0276   33.1890   44.1273 H   0  0  0  0  0  0  0  0  0  0  0  0
   43.7452   36.8043   44.9293 H   0  0  0  0  0  0  0  0  0  0  0  0
   44.2585   33.1178   47.9228 H   0  0  0  0  0  0  0  0  0  0  0  0
   45.6532   31.0884   49.0373 H   0  0  0  0  0  0  0  0  0  0  0  0
   47.7566   32.3401   45.5255 H   0  0  0  0  0  0  0  0  0  0  0  0
   47.0852   35.9216   41.7680 H   0  0  0  0  0  0  0  0  0  0  0  0
   47.6747   34.2783   42.2129 H   0  0  0  0  0  0  0  0  0  0  0  0
   47.5905   33.4488   40.0015 H   0  0  0  0  0  0  0  0  0  0  0  0
   46.2473   32.4133   38.1793 H   0  0  0  0  0  0  0  0  0  0  0  0
   43.7701   32.7464   38.2432 H   0  0  0  0  0  0  0  0  0  0  0  0
   42.6755   34.0582   40.0373 H   0  0  0  0  0  0  0  0  0  0  0  0
   44.1037   35.0575   41.8168 H   0  0  0  0  0  0  0  0  0  0  0  0
  1  6  1  0
  1  2  2  0
  2  3  1  0
  3  4  2  0
  3  7  1  0
  5  4  1  0
  6  5  2  0
  7  8  1  0
  8  9  2  0
 10  9  1  0
 11  7  1  0
 11 10  2  0
 12  1  1  0
 13 18  1  0
 13 12  1  0
 14 13  2  0
 15 16  2  0
 15 14  1  0
 16 17  1  0
 17 18  2  0
  2 19  1  0
  5 20  1  0
  8 21  1  0
  9 22  1  0
 11 23  1  0
 12 24  1  0
 12 25  1  0
 14 26  1  0
 15 27  1  0
 16 28  1  0
 17 29  1  0
 18 30  1  0
M  ISO  8  19  14  20  14  21  14  22  14  23  14  24   8  25   8  26  14
M  ISO  4  27  14  28  14  29  14  30  14
M  END
>  <minimizedAffinity>  (1) 
-5.43785715

>  <minimizedRMSD>  (1) 
0.653953373

$$$$
