
     RDKit          3D

 28 30  0  0  0  0  0  0  0  0999 V2000
   45.9010   34.7430   43.1270 C   0  0  0  0  0  0  0  0  0  0  0  0
   46.1530   33.8400   44.1800 C   0  0  0  0  0  0  0  0  0  0  0  0
   45.5400   34.0910   45.4180 C   0  0  0  0  0  0  0  0  0  0  0  0
   44.7330   35.1880   45.5470 N   0  0  0  0  0  0  0  0  0  0  0  0
   44.5210   36.0240   44.5130 C   0  0  0  0  0  0  0  0  0  0  0  0
   45.0880   35.8290   43.2950 N   0  0  0  0  0  0  0  0  0  0  0  0
   45.8290   33.1580   46.4290 N   0  0  0  0  0  0  0  0  0  0  0  0
   45.1950   32.9570   47.6030 C   0  0  0  0  0  0  0  0  0  0  0  0
   45.8690   31.9230   48.2410 C   0  0  0  0  0  0  0  0  0  0  0  0
   46.8770   31.5410   47.4350 N   0  0  0  0  0  0  0  0  0  0  0  0
   46.8750   32.2850   46.3140 C   0  0  0  0  0  0  0  0  0  0  0  0
   46.5480   34.4810   41.8240 C   0  0  0  0  0  0  0  0  0  0  0  0
   47.9950   34.1170   41.9920 C   0  0  0  0  0  0  0  0  0  0  0  0
   48.9140   35.0900   42.3720 C   0  0  0  0  0  0  0  0  0  0  0  0
   50.2480   34.7680   42.5290 C   0  0  0  0  0  0  0  0  0  0  0  0
   50.6910   33.5350   42.3260 N   0  0  0  0  0  0  0  0  0  0  0  0
   49.7810   32.5990   41.9550 C   0  0  0  0  0  0  0  0  0  0  0  0
   48.4550   32.8690   41.7870 N   0  0  0  0  0  0  0  0  0  0  0  0
   46.8080   32.9680   44.0365 H   0  0  0  0  0  0  0  0  0  0  0  0
   43.8657   36.8951   44.6603 H   0  0  0  0  0  0  0  0  0  0  0  0
   44.3181   33.5036   47.9803 H   0  0  0  0  0  0  0  0  0  0  0  0
   45.6238   31.4951   49.2243 H   0  0  0  0  0  0  0  0  0  0  0  0
   47.5769   32.2064   45.4707 H   0  0  0  0  0  0  0  0  0  0  0  0
   46.4767   35.3849   41.2012 H   0  0  0  0  0  0  0  0  0  0  0  0
   46.0323   33.6350   41.3463 H   0  0  0  0  0  0  0  0  0  0  0  0
   48.5762   36.1219   42.5485 H   0  0  0  0  0  0  0  0  0  0  0  0
   50.9587   35.5521   42.8292 H   0  0  0  0  0  0  0  0  0  0  0  0
   50.1307   31.5707   41.7810 H   0  0  0  0  0  0  0  0  0  0  0  0
  1  6  1  0
  1  2  2  0
  2  3  1  0
  3  4  2  0
  3  7  1  0
  5  4  1  0
  6  5  2  0
  7  8  1  0
  8  9  2  0
 10  9  1  0
 11  7  1  0
 11 10  2  0
 12 13  1  0
 12  1  1  0
 13 14  2  0
 14 15  1  0
 16 15  2  0
 17 16  1  0
 18 17  2  0
 18 13  1  0
  2 19  1  0
  5 20  1  0
  8 21  1  0
  9 22  1  0
 11 23  1  0
 12 24  1  0
 12 25  1  0
 14 26  1  0
 15 27  1  0
 17 28  1  0
M  ISO  8  19  14  20  14  21  14  22  14  23  14  24   8  25   8  26  14
M  ISO  2  27  14  28  14
M  END
>  <minimizedAffinity>  (1) 
-5.59324837

>  <minimizedRMSD>  (1) 
1.54725933

$$$$
