
     RDKit          3D

 35 37  0  0  0  0  0  0  0  0999 V2000
   45.8150   34.5650   43.2790 C   0  0  0  0  0  0  0  0  0  0  0  0
   46.0910   33.6700   44.3300 C   0  0  0  0  0  0  0  0  0  0  0  0
   45.5290   33.9520   45.5760 C   0  0  0  0  0  0  0  0  0  0  0  0
   44.7480   35.0650   45.7220 N   0  0  0  0  0  0  0  0  0  0  0  0
   44.5100   35.8930   44.6970 C   0  0  0  0  0  0  0  0  0  0  0  0
   45.0370   35.6530   43.4720 N   0  0  0  0  0  0  0  0  0  0  0  0
   45.8320   33.0280   46.6010 N   0  0  0  0  0  0  0  0  0  0  0  0
   45.2460   32.8620   47.8050 C   0  0  0  0  0  0  0  0  0  0  0  0
   45.9140   31.8270   48.4300 C   0  0  0  0  0  0  0  0  0  0  0  0
   46.8710   31.4080   47.5870 N   0  0  0  0  0  0  0  0  0  0  0  0
   46.8470   32.1230   46.4590 C   0  0  0  0  0  0  0  0  0  0  0  0
   46.3930   34.2980   41.9520 C   0  0  0  0  0  0  0  0  0  0  0  0
   47.6150   35.0170   41.7050 N   0  0  0  0  0  0  0  0  0  0  0  0
   48.5080   34.7840   42.7970 C   0  0  0  0  0  0  0  0  0  0  0  0
   49.8460   34.2450   42.3830 C   0  0  0  0  0  0  0  0  0  0  0  0
   49.7770   33.0960   41.4290 C   0  0  0  0  0  0  0  0  0  0  0  0
   48.6650   33.2570   40.3910 C   0  0  0  0  0  0  0  0  0  0  0  0
   48.2520   34.7120   40.4640 C   0  0  0  0  0  0  0  0  0  0  0  0
   46.7242   32.7839   44.1754 H   0  0  0  0  0  0  0  0  0  0  0  0
   43.8781   36.7800   44.8515 H   0  0  0  0  0  0  0  0  0  0  0  0
   44.4011   33.4384   48.2099 H   0  0  0  0  0  0  0  0  0  0  0  0
   45.7017   31.4222   49.4305 H   0  0  0  0  0  0  0  0  0  0  0  0
   47.5110   32.0069   45.5897 H   0  0  0  0  0  0  0  0  0  0  0  0
   46.6003   33.2206   41.8725 H   0  0  0  0  0  0  0  0  0  0  0  0
   45.6604   34.6370   41.2048 H   0  0  0  0  0  0  0  0  0  0  0  0
   48.6662   35.7362   43.3245 H   0  0  0  0  0  0  0  0  0  0  0  0
   48.0396   34.0206   43.4357 H   0  0  0  0  0  0  0  0  0  0  0  0
   50.4116   35.0576   41.9036 H   0  0  0  0  0  0  0  0  0  0  0  0
   50.3305   33.8683   43.2959 H   0  0  0  0  0  0  0  0  0  0  0  0
   50.7401   33.0164   40.9036 H   0  0  0  0  0  0  0  0  0  0  0  0
   49.5570   32.1909   42.0141 H   0  0  0  0  0  0  0  0  0  0  0  0
   47.8145   32.6032   40.6341 H   0  0  0  0  0  0  0  0  0  0  0  0
   49.0045   32.9790   39.3823 H   0  0  0  0  0  0  0  0  0  0  0  0
   49.1470   35.3427   40.3579 H   0  0  0  0  0  0  0  0  0  0  0  0
   47.5351   34.9068   39.6528 H   0  0  0  0  0  0  0  0  0  0  0  0
  1  6  1  0
  1  2  2  0
  2  3  1  0
  3  4  2  0
  3  7  1  0
  5  4  1  0
  6  5  2  0
  7  8  1  0
  8  9  2  0
 10  9  1  0
 11  7  1  0
 11 10  2  0
 12  1  1  0
 13 12  1  0
 13 14  1  0
 15 14  1  0
 16 15  1  0
 17 18  1  0
 17 16  1  0
 18 13  1  0
  2 19  1  0
  5 20  1  0
  8 21  1  0
  9 22  1  0
 11 23  1  0
 12 24  1  0
 12 25  1  0
 14 26  1  0
 14 27  1  0
 15 28  1  0
 15 29  1  0
 16 30  1  0
 16 31  1  0
 17 32  1  0
 17 33  1  0
 18 34  1  0
 18 35  1  0
M  ISO  8  19  14  20  14  21  14  22  14  23  14  24   8  25   8  26  13
M  ISO  8  27  13  28  13  29  13  30  13  31  13  32  13  33  13  34  13
M  ISO  1  35  13
M  END
>  <minimizedAffinity>  (1) 
-5.5545311

>  <minimizedRMSD>  (1) 
0.525951803

$$$$
