
     RDKit          3D

 27 29  0  0  0  0  0  0  0  0999 V2000
   46.0340   34.9620   43.3810 C   0  0  0  0  0  0  0  0  0  0  0  0
   46.3040   33.9720   44.3490 C   0  0  0  0  0  0  0  0  0  0  0  0
   45.5920   34.0620   45.5430 C   0  0  0  0  0  0  0  0  0  0  0  0
   44.6890   35.0750   45.7200 N   0  0  0  0  0  0  0  0  0  0  0  0
   44.4700   35.9920   44.7680 C   0  0  0  0  0  0  0  0  0  0  0  0
   45.1360   35.9470   43.5930 N   0  0  0  0  0  0  0  0  0  0  0  0
   45.8830   33.0590   46.4910 N   0  0  0  0  0  0  0  0  0  0  0  0
   45.1850   32.7080   47.6140 C   0  0  0  0  0  0  0  0  0  0  0  0
   45.8980   31.6630   48.1970 C   0  0  0  0  0  0  0  0  0  0  0  0
   46.9780   31.4260   47.4230 N   0  0  0  0  0  0  0  0  0  0  0  0
   46.9720   32.2690   46.3880 C   0  0  0  0  0  0  0  0  0  0  0  0
   46.7710   34.8970   42.1070 C   0  0  0  0  0  0  0  0  0  0  0  0
   45.8700   34.3140   41.1250 N   0  0  0  0  0  0  0  0  0  0  0  0
   44.5380   34.3490   40.9620 C   0  0  0  0  0  0  0  0  0  0  0  0
   44.1810   33.6120   39.8430 C   0  0  0  0  0  0  0  0  0  0  0  0
   45.3220   33.1120   39.3070 N   0  0  0  0  0  0  0  0  0  0  0  0
   46.3200   33.5560   40.1060 C   0  0  0  0  0  0  0  0  0  0  0  0
   47.0374   33.1719   44.1706 H   0  0  0  0  0  0  0  0  0  0  0  0
   43.7374   36.7932   44.9454 H   0  0  0  0  0  0  0  0  0  0  0  0
   44.2514   33.1589   47.9815 H   0  0  0  0  0  0  0  0  0  0  0  0
   45.6297   31.1283   49.1201 H   0  0  0  0  0  0  0  0  0  0  0  0
   47.7258   32.3122   45.5881 H   0  0  0  0  0  0  0  0  0  0  0  0
   47.0709   35.9073   41.7919 H   0  0  0  0  0  0  0  0  0  0  0  0
   47.6835   34.2917   42.2113 H   0  0  0  0  0  0  0  0  0  0  0  0
   43.8347   34.8827   41.6182 H   0  0  0  0  0  0  0  0  0  0  0  0
   43.1607   33.4608   39.4607 H   0  0  0  0  0  0  0  0  0  0  0  0
   47.3825   33.3235   39.9415 H   0  0  0  0  0  0  0  0  0  0  0  0
  1  6  1  0
  1  2  2  0
  2  3  1  0
  3  4  2  0
  3  7  1  0
  5  4  1  0
  6  5  2  0
  7  8  1  0
  8  9  2  0
 10  9  1  0
 11  7  1  0
 11 10  2  0
 12  1  1  0
 13 12  1  0
 14 13  1  0
 15 14  2  0
 16 15  1  0
 16 17  2  0
 17 13  1  0
  2 18  1  0
  5 19  1  0
  8 20  1  0
  9 21  1  0
 11 22  1  0
 12 23  1  0
 12 24  1  0
 14 25  1  0
 15 26  1  0
 17 27  1  0
M  ISO  8  18  14  19  14  20  14  21  14  22  14  23   8  24   8  25  14
M  ISO  2  26  14  27  14
M  END
>  <minimizedAffinity>  (1) 
-4.9543047

>  <minimizedRMSD>  (1) 
0.45826

$$$$
