
     RDKit          3D

 38 39  0  0  1  0  0  0  0  0999 V2000
   47.1080   35.2730   41.9620 C   0  0  0  0  0  0  0  0  0  0  0  0
   48.1720   34.5750   41.3380 N   0  0  0  0  0  0  0  0  0  0  0  0
   49.4020   34.8450   42.0050 C   0  0  0  0  0  0  0  0  0  0  0  0
   50.1890   33.6710   42.4400 C   0  0  0  0  0  0  0  0  0  0  0  0
   49.2510   32.7440   42.9460 O   0  0  0  0  0  0  0  0  0  0  0  0
   48.6840   32.2050   41.7950 C   0  0  0  0  0  0  0  0  0  0  0  0
   47.9850   33.2340   40.9320 C   0  0  2  0  0  0  0  0  0  0  0  0
   48.6190   33.1070   39.5400 C   0  0  0  0  0  0  0  0  0  0  0  0
   47.9860   34.1250   38.6330 C   0  0  0  0  0  0  0  0  0  0  0  0
   45.8200   34.5130   42.1540 C   0  0  1  0  0  0  0  0  0  0  0  0
   44.7720   35.4450   44.2770 C   0  0  0  0  0  0  0  0  0  0  0  0
   45.5430   34.4450   43.6000 C   0  0  0  0  0  0  0  0  0  0  0  0
   46.0170   33.4100   44.3840 C   0  0  0  0  0  0  0  0  0  0  0  0
   45.7370   33.3990   45.7070 N   0  0  0  0  0  0  0  0  0  0  0  0
   45.0140   34.3460   46.3220 C   0  0  0  0  0  0  0  0  0  0  0  0
   44.5230   35.3900   45.5840 N   0  0  0  0  0  0  0  0  0  0  0  0
   44.6810   35.0910   41.4060 C   0  0  0  0  0  0  0  0  0  0  0  0
   46.8845   36.1579   41.3480 H   0  0  0  0  0  0  0  0  0  0  0  0
   47.4657   35.4970   42.9778 H   0  0  0  0  0  0  0  0  0  0  0  0
   50.0307   35.4338   41.3209 H   0  0  0  0  0  0  0  0  0  0  0  0
   49.1217   35.3669   42.9319 H   0  0  0  0  0  0  0  0  0  0  0  0
   50.7338   33.2382   41.5880 H   0  0  0  0  0  0  0  0  0  0  0  0
   50.9374   33.9442   43.1985 H   0  0  0  0  0  0  0  0  0  0  0  0
   49.4812   31.7347   41.2006 H   0  0  0  0  0  0  0  0  0  0  0  0
   47.9227   31.4790   42.1167 H   0  0  0  0  0  0  0  0  0  0  0  0
   46.9046   33.0342   40.9853 H   0  0  0  0  0  0  0  0  0  0  0  0
   49.7013   33.2917   39.6070 H   0  0  0  0  0  0  0  0  0  0  0  0
   48.4556   32.0945   39.1423 H   0  0  0  0  0  0  0  0  0  0  0  0
   47.5012   34.9047   39.2388 H   0  0  0  0  0  0  0  0  0  0  0  0
   48.7595   34.5819   37.9982 H   0  0  0  0  0  0  0  0  0  0  0  0
   47.2341   33.6334   37.9982 H   0  0  0  0  0  0  0  0  0  0  0  0
   45.9430   33.5018   41.7388 H   0  0  0  0  0  0  0  0  0  0  0  0
   44.3712   36.2888   43.6961 H   0  0  0  0  0  0  0  0  0  0  0  0
   46.6160   32.6033   43.9363 H   0  0  0  0  0  0  0  0  0  0  0  0
   44.8182   34.2853   47.4027 H   0  0  0  0  0  0  0  0  0  0  0  0
   43.9315   35.4713   42.1156 H   0  0  0  0  0  0  0  0  0  0  0  0
   45.0390   35.9165   40.7732 H   0  0  0  0  0  0  0  0  0  0  0  0
   44.2261   34.3147   40.7732 H   0  0  0  0  0  0  0  0  0  0  0  0
  1 10  1  0
  2  1  1  0
  2  3  1  0
  3  4  1  0
  4  5  1  0
  6  5  1  0
  7  2  1  0
  7  6  1  0
  8  7  1  0
  9  8  1  0
 10 12  1  0
 11 16  2  0
 12 11  1  0
 12 13  2  0
 13 14  1  0
 14 15  2  0
 16 15  1  0
 17 10  1  0
  1 18  1  0
  1 19  1  0
  3 20  1  0
  3 21  1  0
  4 22  1  0
  4 23  1  0
  6 24  1  0
  6 25  1  0
  7 26  1  6
  8 27  1  0
  8 28  1  0
  9 29  1  0
  9 30  1  0
  9 31  1  0
 10 32  1  6
 11 33  1  0
 13 34  1  0
 15 35  1  0
 17 36  1  0
 17 37  1  0
 17 38  1  0
M  ISO  8  18   8  19   8  20  13  21  13  22  13  23  13  24  13  25  13
M  ISO  8  26  13  27   8  28   8  29   8  30   8  31   8  32   8  33  14
M  ISO  5  34  14  35  14  36   8  37   8  38   8
M  END
>  <minimizedAffinity>  (1) 
-4.17904186

>  <minimizedRMSD>  (1) 
0.778251529

$$$$
