
     RDKit          3D

 21 22  0  0  0  0  0  0  0  0999 V2000
   46.1020   34.8350   43.2660 C   0  0  0  0  0  0  0  0  0  0  0  0
   46.3340   33.9050   44.2970 C   0  0  0  0  0  0  0  0  0  0  0  0
   45.6050   34.0630   45.4790 C   0  0  0  0  0  0  0  0  0  0  0  0
   44.7150   35.0970   45.5760 N   0  0  0  0  0  0  0  0  0  0  0  0
   44.5280   35.9610   44.5610 C   0  0  0  0  0  0  0  0  0  0  0  0
   45.2140   35.8460   43.3970 N   0  0  0  0  0  0  0  0  0  0  0  0
   45.8640   33.1170   46.4870 N   0  0  0  0  0  0  0  0  0  0  0  0
   45.2020   32.8800   47.6390 C   0  0  0  0  0  0  0  0  0  0  0  0
   45.8820   31.8330   48.2700 C   0  0  0  0  0  0  0  0  0  0  0  0
   46.9130   31.4830   47.4850 N   0  0  0  0  0  0  0  0  0  0  0  0
   46.9240   32.2590   46.3830 C   0  0  0  0  0  0  0  0  0  0  0  0
   46.8710   34.6690   42.0210 C   0  0  0  0  0  0  0  0  0  0  0  0
   45.9700   33.8660   40.6920 S   0  0  0  0  0  0  0  0  0  0  0  0
   47.0597   33.0870   44.1772 H   0  0  0  0  0  0  0  0  0  0  0  0
   43.8021   36.7791   44.6784 H   0  0  0  0  0  0  0  0  0  0  0  0
   44.3080   33.4044   48.0074 H   0  0  0  0  0  0  0  0  0  0  0  0
   45.6190   31.3780   49.2363 H   0  0  0  0  0  0  0  0  0  0  0  0
   47.6483   32.2113   45.5565 H   0  0  0  0  0  0  0  0  0  0  0  0
   47.1810   35.6654   41.6731 H   0  0  0  0  0  0  0  0  0  0  0  0
   47.7213   34.0145   42.2630 H   0  0  0  0  0  0  0  0  0  0  0  0
   45.0270   33.0255   41.2223 H   0  0  0  0  0  0  0  0  0  0  0  0
  1  6  2  0
  1  2  1  0
  2  3  2  0
  3  4  1  0
  3  7  1  0
  5  4  2  0
  6  5  1  0
  7  8  1  0
  8  9  2  0
 10  9  1  0
 11  7  1  0
 11 10  2  0
 12  1  1  0
 13 12  1  0
  2 14  1  0
  5 15  1  0
  8 16  1  0
  9 17  1  0
 11 18  1  0
 12 19  1  0
 12 20  1  0
 13 21  1  0
M  ISO  8  14  14  15  14  16  14  17  14  18  14  19   8  20   8  21  11
M  END
>  <minimizedAffinity>  (1) 
-4.18038225

>  <minimizedRMSD>  (1) 
0.0799348205

$$$$
