
     RDKit          3D

 48 51  0  0  0  0  0  0  0  0999 V2000
   46.4250   33.7960   41.9970 C   0  0  0  0  0  0  0  0  0  0  0  0
   45.8390   34.2170   43.2990 C   0  0  0  0  0  0  0  0  0  0  0  0
   46.1150   33.4280   44.4410 C   0  0  0  0  0  0  0  0  0  0  0  0
   45.5710   33.8050   45.6560 C   0  0  0  0  0  0  0  0  0  0  0  0
   44.7910   34.9300   45.6870 N   0  0  0  0  0  0  0  0  0  0  0  0
   44.5500   35.6560   44.5860 C   0  0  0  0  0  0  0  0  0  0  0  0
   45.0650   35.3130   43.3890 N   0  0  0  0  0  0  0  0  0  0  0  0
   45.8820   32.9760   46.7550 N   0  0  0  0  0  0  0  0  0  0  0  0
   45.2820   32.9230   47.9650 C   0  0  0  0  0  0  0  0  0  0  0  0
   45.9780   31.9310   48.6840 C   0  0  0  0  0  0  0  0  0  0  0  0
   46.9390   31.4510   47.8850 N   0  0  0  0  0  0  0  0  0  0  0  0
   46.9000   32.0730   46.7040 C   0  0  0  0  0  0  0  0  0  0  0  0
   47.8040   34.1890   41.8840 N   0  0  0  0  0  0  0  0  0  0  0  0
   48.0610   35.5220   41.7370 C   0  0  0  0  0  0  0  0  0  0  0  0
   49.4860   35.9480   41.9510 C   0  0  0  0  0  0  0  0  0  0  0  0
   50.2390   35.0920   42.8350 N   0  0  0  0  0  0  0  0  0  0  0  0
   50.0730   33.6770   42.5900 C   0  0  0  0  0  0  0  0  0  0  0  0
   48.7290   33.2100   42.1080 C   0  0  0  0  0  0  0  0  0  0  0  0
   48.5920   31.7610   41.9130 C   0  0  0  0  0  0  0  0  0  0  0  0
   49.0350   31.3560   40.5350 C   0  0  0  0  0  0  0  0  0  0  0  0
   50.3460   30.7000   40.3980 C   0  0  0  0  0  0  0  0  0  0  0  0
   50.8010   29.8140   41.5020 C   0  0  0  0  0  0  0  0  0  0  0  0
   50.7200   30.6930   42.7640 C   0  0  0  0  0  0  0  0  0  0  0  0
   49.2380   30.9040   42.9420 C   0  0  0  0  0  0  0  0  0  0  0  0
   46.3580   32.7013   41.9129 H   0  0  0  0  0  0  0  0  0  0  0  0
   45.8605   34.2878   41.1911 H   0  0  0  0  0  0  0  0  0  0  0  0
   46.7495   32.5327   44.3642 H   0  0  0  0  0  0  0  0  0  0  0  0
   43.9171   36.5525   44.6616 H   0  0  0  0  0  0  0  0  0  0  0  0
   44.4310   33.5262   48.3143 H   0  0  0  0  0  0  0  0  0  0  0  0
   45.7695   31.6093   49.7150 H   0  0  0  0  0  0  0  0  0  0  0  0
   47.5667   31.8899   45.8484 H   0  0  0  0  0  0  0  0  0  0  0  0
   47.7745   35.8088   40.7144 H   0  0  0  0  0  0  0  0  0  0  0  0
   47.4811   36.0235   42.5258 H   0  0  0  0  0  0  0  0  0  0  0  0
   49.9909   35.9624   40.9738 H   0  0  0  0  0  0  0  0  0  0  0  0
   49.4486   36.9376   42.4299 H   0  0  0  0  0  0  0  0  0  0  0  0
   50.8464   35.4597   43.5812 H   0  0  0  0  0  0  0  0  0  0  0  0
   50.8995   32.9691   42.7504 H   0  0  0  0  0  0  0  0  0  0  0  0
   47.5143   31.5764   42.0334 H   0  0  0  0  0  0  0  0  0  0  0  0
   48.2787   30.6627   40.1383 H   0  0  0  0  0  0  0  0  0  0  0  0
   49.1431   32.3053   39.9898 H   0  0  0  0  0  0  0  0  0  0  0  0
   50.3133   30.0914   39.4823 H   0  0  0  0  0  0  0  0  0  0  0  0
   51.0693   31.5287   40.3944 H   0  0  0  0  0  0  0  0  0  0  0  0
   50.1407   28.9392   41.5951 H   0  0  0  0  0  0  0  0  0  0  0  0
   51.8143   29.4216   41.3313 H   0  0  0  0  0  0  0  0  0  0  0  0
   51.1521   30.1758   43.6334 H   0  0  0  0  0  0  0  0  0  0  0  0
   51.2817   31.6342   42.6710 H   0  0  0  0  0  0  0  0  0  0  0  0
   49.0765   31.3717   43.9244 H   0  0  0  0  0  0  0  0  0  0  0  0
   48.7748   29.9109   42.8464 H   0  0  0  0  0  0  0  0  0  0  0  0
  1  2  1  0
  2  7  1  0
  2  3  2  0
  3  4  1  0
  4  5  2  0
  4  8  1  0
  6  5  1  0
  7  6  2  0
  8  9  1  0
  9 10  2  0
 11 10  1  0
 12  8  1  0
 12 11  2  0
 13  1  1  0
 13 18  1  0
 14 13  1  0
 14 15  1  0
 15 16  1  0
 17 16  1  0
 18 17  2  0
 19 18  1  0
 19 24  1  0
 20 19  1  0
 21 20  1  0
 21 22  1  0
 22 23  1  0
 23 24  1  0
  1 25  1  0
  1 26  1  0
  3 27  1  0
  6 28  1  0
  9 29  1  0
 10 30  1  0
 12 31  1  0
 14 32  1  0
 14 33  1  0
 15 34  1  0
 15 35  1  0
 16 36  1  0
 17 37  1  0
 19 38  1  0
 20 39  1  0
 20 40  1  0
 21 41  1  0
 21 42  1  0
 22 43  1  0
 22 44  1  0
 23 45  1  0
 23 46  1  0
 24 47  1  0
 24 48  1  0
M  ISO  8  25   8  26   8  27  14  28  14  29  14  30  14  31  14  32  13
M  ISO  8  33  13  34  13  35  13  37  13  38  13  39  13  40  13  41  13
M  ISO  7  42  13  43  13  44  13  45  13  46  13  47  13  48  13
M  END
>  <minimizedAffinity>  (1) 
-6.22483683

>  <minimizedRMSD>  (1) 
0.397811681

$$$$
