
     RDKit          3D

 44 47  0  0  0  0  0  0  0  0999 V2000
   46.4780   33.6010   42.1410 C   0  0  0  0  0  0  0  0  0  0  0  0
   45.8970   34.0330   43.4380 C   0  0  0  0  0  0  0  0  0  0  0  0
   46.1860   33.2590   44.5980 C   0  0  0  0  0  0  0  0  0  0  0  0
   45.6400   33.6720   45.8020 C   0  0  0  0  0  0  0  0  0  0  0  0
   44.8580   34.7930   45.8160 N   0  0  0  0  0  0  0  0  0  0  0  0
   44.6060   35.4990   44.7050 C   0  0  0  0  0  0  0  0  0  0  0  0
   45.1160   35.1360   43.5100 N   0  0  0  0  0  0  0  0  0  0  0  0
   45.9620   32.8640   46.9140 N   0  0  0  0  0  0  0  0  0  0  0  0
   45.3730   32.8220   48.1270 C   0  0  0  0  0  0  0  0  0  0  0  0
   46.0580   31.8620   48.8670 C   0  0  0  0  0  0  0  0  0  0  0  0
   47.0350   31.3650   48.0660 N   0  0  0  0  0  0  0  0  0  0  0  0
   46.9840   31.9670   46.8800 C   0  0  0  0  0  0  0  0  0  0  0  0
   47.8250   34.0810   41.9750 N   0  0  0  0  0  0  0  0  0  0  0  0
   47.9920   35.4180   41.7700 C   0  0  0  0  0  0  0  0  0  0  0  0
   49.3920   35.9420   41.9290 C   0  0  0  0  0  0  0  0  0  0  0  0
   50.2190   35.1730   42.8270 N   0  0  0  0  0  0  0  0  0  0  0  0
   50.1390   33.7440   42.6430 C   0  0  0  0  0  0  0  0  0  0  0  0
   48.8200   33.1680   42.2200 C   0  0  0  0  0  0  0  0  0  0  0  0
   48.7600   31.7630   42.1280 N   0  0  0  0  0  0  0  0  0  0  0  0
   48.6930   30.8550   43.2850 C   0  0  0  0  0  0  0  0  0  0  0  0
   49.9080   29.9830   42.9380 C   0  0  0  0  0  0  0  0  0  0  0  0
   49.5020   29.5930   41.5110 C   0  0  0  0  0  0  0  0  0  0  0  0
   48.7470   30.8320   41.0130 C   0  0  0  0  0  0  0  0  0  0  0  0
   46.4838   32.5017   42.1014 H   0  0  0  0  0  0  0  0  0  0  0  0
   45.8620   34.0212   41.3323 H   0  0  0  0  0  0  0  0  0  0  0  0
   46.8216   32.3631   44.5397 H   0  0  0  0  0  0  0  0  0  0  0  0
   43.9695   36.3939   44.7689 H   0  0  0  0  0  0  0  0  0  0  0  0
   44.5191   33.4274   48.4651 H   0  0  0  0  0  0  0  0  0  0  0  0
   45.8474   31.5628   49.9044 H   0  0  0  0  0  0  0  0  0  0  0  0
   47.6491   31.7738   46.0255 H   0  0  0  0  0  0  0  0  0  0  0  0
   47.3504   35.9507   42.4873 H   0  0  0  0  0  0  0  0  0  0  0  0
   47.7303   35.5900   40.7155 H   0  0  0  0  0  0  0  0  0  0  0  0
   49.8717   35.9470   40.9391 H   0  0  0  0  0  0  0  0  0  0  0  0
   49.3027   36.9466   42.3680 H   0  0  0  0  0  0  0  0  0  0  0  0
   50.8185   35.6091   43.5421 H   0  0  0  0  0  0  0  0  0  0  0  0
   51.0150   33.0993   42.8072 H   0  0  0  0  0  0  0  0  0  0  0  0
   48.8196   31.3860   44.2400 H   0  0  0  0  0  0  0  0  0  0  0  0
   47.7408   30.3234   43.4287 H   0  0  0  0  0  0  0  0  0  0  0  0
   50.8484   30.5532   42.9609 H   0  0  0  0  0  0  0  0  0  0  0  0
   50.1100   29.1474   43.6242 H   0  0  0  0  0  0  0  0  0  0  0  0
   50.3872   29.3936   40.8892 H   0  0  0  0  0  0  0  0  0  0  0  0
   48.8994   28.6737   41.4689 H   0  0  0  0  0  0  0  0  0  0  0  0
   49.2557   31.2684   40.1408 H   0  0  0  0  0  0  0  0  0  0  0  0
   47.7228   30.5876   40.6949 H   0  0  0  0  0  0  0  0  0  0  0  0
  1  2  1  0
  2  7  1  0
  2  3  2  0
  3  4  1  0
  4  5  2  0
  4  8  1  0
  6  5  1  0
  7  6  2  0
  8  9  1  0
  9 10  2  0
 11 10  1  0
 12  8  1  0
 12 11  2  0
 13  1  1  0
 13 18  1  0
 14 15  1  0
 14 13  1  0
 15 16  1  0
 17 16  1  0
 18 17  2  0
 19 18  1  0
 19 20  1  0
 21 20  1  0
 22 21  1  0
 23 22  1  0
 23 19  1  0
  1 24  1  0
  1 25  1  0
  3 26  1  0
  6 27  1  0
  9 28  1  0
 10 29  1  0
 12 30  1  0
 14 31  1  0
 14 32  1  0
 15 33  1  0
 15 34  1  0
 16 35  1  0
 17 36  1  0
 20 37  1  0
 20 38  1  0
 21 39  1  0
 21 40  1  0
 22 41  1  0
 22 42  1  0
 23 43  1  0
 23 44  1  0
M  ISO  8  24   8  25   8  26  14  27  14  28  14  29  14  30  14  31  13
M  ISO  8  32  13  33  13  34  13  36  13  37  13  38  13  39  13  40  13
M  ISO  4  41  13  42  13  43  13  44  13
M  END
>  <minimizedAffinity>  (1) 
-6.03939486

>  <minimizedRMSD>  (1) 
0.651347101

$$$$
