
     RDKit          3D

 39 42  0  0  0  0  0  0  0  0999 V2000
   46.4650   33.6520   42.1410 C   0  0  0  0  0  0  0  0  0  0  0  0
   45.8830   34.0750   43.4520 C   0  0  0  0  0  0  0  0  0  0  0  0
   46.1810   33.2720   44.5920 C   0  0  0  0  0  0  0  0  0  0  0  0
   45.6350   33.6670   45.8050 C   0  0  0  0  0  0  0  0  0  0  0  0
   44.8530   34.7890   45.8360 N   0  0  0  0  0  0  0  0  0  0  0  0
   44.6020   35.5120   44.7350 C   0  0  0  0  0  0  0  0  0  0  0  0
   45.1060   35.1730   43.5370 N   0  0  0  0  0  0  0  0  0  0  0  0
   45.9580   32.8570   46.9100 N   0  0  0  0  0  0  0  0  0  0  0  0
   45.3920   32.8180   48.1280 C   0  0  0  0  0  0  0  0  0  0  0  0
   46.0880   31.8440   48.8540 C   0  0  0  0  0  0  0  0  0  0  0  0
   47.0300   31.3450   48.0490 N   0  0  0  0  0  0  0  0  0  0  0  0
   46.9800   31.9420   46.8490 C   0  0  0  0  0  0  0  0  0  0  0  0
   47.8060   34.0990   41.9770 N   0  0  0  0  0  0  0  0  0  0  0  0
   47.9820   35.4330   41.7440 C   0  0  0  0  0  0  0  0  0  0  0  0
   49.3830   35.9500   41.9010 C   0  0  0  0  0  0  0  0  0  0  0  0
   50.1980   35.1920   42.8280 N   0  0  0  0  0  0  0  0  0  0  0  0
   50.1120   33.7690   42.6800 C   0  0  0  0  0  0  0  0  0  0  0  0
   48.7850   33.1890   42.2480 C   0  0  0  0  0  0  0  0  0  0  0  0
   48.9060   31.8030   42.2360 C   0  0  0  0  0  0  0  0  0  0  0  0
   48.7970   30.9040   43.2150 C   0  0  0  0  0  0  0  0  0  0  0  0
   48.9690   29.5860   43.2100 C   0  0  0  0  0  0  0  0  0  0  0  0
   49.3390   29.1460   41.8500 C   0  0  0  0  0  0  0  0  0  0  0  0
   49.3670   30.7370   40.8320 S   0  0  0  0  0  0  0  0  0  0  0  0
   46.4487   32.5536   42.0845 H   0  0  0  0  0  0  0  0  0  0  0  0
   45.8591   34.1040   41.3419 H   0  0  0  0  0  0  0  0  0  0  0  0
   46.8165   32.3776   44.5132 H   0  0  0  0  0  0  0  0  0  0  0  0
   43.9666   36.4063   44.8150 H   0  0  0  0  0  0  0  0  0  0  0  0
   44.5497   33.4295   48.4838 H   0  0  0  0  0  0  0  0  0  0  0  0
   45.8948   31.5450   49.8948 H   0  0  0  0  0  0  0  0  0  0  0  0
   47.6302   31.7385   45.9854 H   0  0  0  0  0  0  0  0  0  0  0  0
   47.3392   35.9848   42.4457 H   0  0  0  0  0  0  0  0  0  0  0  0
   47.7271   35.5849   40.6848 H   0  0  0  0  0  0  0  0  0  0  0  0
   49.8709   35.9275   40.9154 H   0  0  0  0  0  0  0  0  0  0  0  0
   49.2992   36.9662   42.3136 H   0  0  0  0  0  0  0  0  0  0  0  0
   50.7933   35.6409   43.5386 H   0  0  0  0  0  0  0  0  0  0  0  0
   50.9805   33.1224   42.8738 H   0  0  0  0  0  0  0  0  0  0  0  0
   48.5174   31.3245   44.1922 H   0  0  0  0  0  0  0  0  0  0  0  0
   48.8537   28.9262   44.0826 H   0  0  0  0  0  0  0  0  0  0  0  0
   49.5506   28.1225   41.5069 H   0  0  0  0  0  0  0  0  0  0  0  0
  1  2  1  0
  2  7  1  0
  2  3  2  0
  3  4  1  0
  4  5  2  0
  4  8  1  0
  6  5  1  0
  7  6  2  0
  8  9  1  0
  9 10  2  0
 11 10  1  0
 12  8  1  0
 12 11  2  0
 13  1  1  0
 13 18  1  0
 14 15  1  0
 14 13  1  0
 15 16  1  0
 17 16  1  0
 18 17  2  0
 19 18  1  0
 19 20  2  0
 21 20  1  0
 22 21  2  0
 23 22  1  0
 23 19  1  0
  1 24  1  0
  1 25  1  0
  3 26  1  0
  6 27  1  0
  9 28  1  0
 10 29  1  0
 12 30  1  0
 14 31  1  0
 14 32  1  0
 15 33  1  0
 15 34  1  0
 16 35  1  0
 17 36  1  0
 20 37  1  0
 21 38  1  0
 22 39  1  0
M  ISO  8  24   8  25   8  26  14  27  14  28  14  29  14  30  14  31  13
M  ISO  7  32  13  33  13  34  13  36  13  37  14  38  14  39  14
M  END
>  <minimizedAffinity>  (1) 
-6.03361607

>  <minimizedRMSD>  (1) 
0.298457652

$$$$
