
     RDKit          3D

 35 37  0  0  0  0  0  0  0  0999 V2000
   46.4010   33.7910   41.9950 C   0  0  0  0  0  0  0  0  0  0  0  0
   45.8240   34.2150   43.2970 C   0  0  0  0  0  0  0  0  0  0  0  0
   46.1080   33.4120   44.4390 C   0  0  0  0  0  0  0  0  0  0  0  0
   45.5600   33.8200   45.6560 C   0  0  0  0  0  0  0  0  0  0  0  0
   44.7920   34.9490   45.6860 N   0  0  0  0  0  0  0  0  0  0  0  0
   44.5520   35.6740   44.5840 C   0  0  0  0  0  0  0  0  0  0  0  0
   45.0550   35.3260   43.3870 N   0  0  0  0  0  0  0  0  0  0  0  0
   45.8630   32.9890   46.7560 N   0  0  0  0  0  0  0  0  0  0  0  0
   45.2610   32.9330   47.9610 C   0  0  0  0  0  0  0  0  0  0  0  0
   45.9440   31.9420   48.6850 C   0  0  0  0  0  0  0  0  0  0  0  0
   46.9090   31.4600   47.8920 N   0  0  0  0  0  0  0  0  0  0  0  0
   46.8850   32.0790   46.7070 C   0  0  0  0  0  0  0  0  0  0  0  0
   47.7870   34.1610   41.8820 N   0  0  0  0  0  0  0  0  0  0  0  0
   48.0750   35.4850   41.7440 C   0  0  0  0  0  0  0  0  0  0  0  0
   49.5140   35.8740   41.9570 C   0  0  0  0  0  0  0  0  0  0  0  0
   50.2390   35.0100   42.8470 N   0  0  0  0  0  0  0  0  0  0  0  0
   50.0450   33.6010   42.6030 C   0  0  0  0  0  0  0  0  0  0  0  0
   48.6940   33.1600   42.1130 C   0  0  0  0  0  0  0  0  0  0  0  0
   48.5140   31.7270   41.9450 C   0  0  0  0  0  0  0  0  0  0  0  0
   46.3153   32.6980   41.9060 H   0  0  0  0  0  0  0  0  0  0  0  0
   45.8443   34.2964   41.1921 H   0  0  0  0  0  0  0  0  0  0  0  0
   46.7323   32.5093   44.3648 H   0  0  0  0  0  0  0  0  0  0  0  0
   43.9277   36.5764   44.6614 H   0  0  0  0  0  0  0  0  0  0  0  0
   44.4101   33.5387   48.3061 H   0  0  0  0  0  0  0  0  0  0  0  0
   45.7261   31.6209   49.7143 H   0  0  0  0  0  0  0  0  0  0  0  0
   47.5571   31.8929   45.8563 H   0  0  0  0  0  0  0  0  0  0  0  0
   47.7925   35.7862   40.7245 H   0  0  0  0  0  0  0  0  0  0  0  0
   47.5096   35.9954   42.5376 H   0  0  0  0  0  0  0  0  0  0  0  0
   50.0206   35.8648   40.9806 H   0  0  0  0  0  0  0  0  0  0  0  0
   49.5031   36.8688   42.4264 H   0  0  0  0  0  0  0  0  0  0  0  0
   50.8473   35.3670   43.5976 H   0  0  0  0  0  0  0  0  0  0  0  0
   50.8558   32.8764   42.7694 H   0  0  0  0  0  0  0  0  0  0  0  0
   48.4537   31.2467   42.9328 H   0  0  0  0  0  0  0  0  0  0  0  0
   47.5849   31.5370   41.3876 H   0  0  0  0  0  0  0  0  0  0  0  0
   49.3672   31.3131   41.3876 H   0  0  0  0  0  0  0  0  0  0  0  0
  1  2  1  0
  2  7  1  0
  2  3  2  0
  3  4  1  0
  4  5  2  0
  4  8  1  0
  6  5  1  0
  7  6  2  0
  8  9  1  0
  9 10  2  0
 11 10  1  0
 12  8  1  0
 12 11  2  0
 13  1  1  0
 13 18  1  0
 14 13  1  0
 14 15  1  0
 15 16  1  0
 17 16  1  0
 18 17  2  0
 19 18  1  0
  1 20  1  0
  1 21  1  0
  3 22  1  0
  6 23  1  0
  9 24  1  0
 10 25  1  0
 12 26  1  0
 14 27  1  0
 14 28  1  0
 15 29  1  0
 15 30  1  0
 16 31  1  0
 17 32  1  0
 19 33  1  0
 19 34  1  0
 19 35  1  0
M  ISO  8  20   8  21   8  22  14  23  14  24  14  25  14  26  14  27  13
M  ISO  7  28  13  29  13  30  13  32  13  33   8  34   8  35   8
M  END
>  <minimizedAffinity>  (1) 
-5.93916655

>  <minimizedRMSD>  (1) 
0.0163930338

$$$$
