
     RDKit          3D

 38 41  0  0  0  0  0  0  0  0999 V2000
   46.4190   33.6780   42.1580 C   0  0  0  0  0  0  0  0  0  0  0  0
   45.8520   34.0890   43.4670 C   0  0  0  0  0  0  0  0  0  0  0  0
   46.1520   33.2870   44.6080 C   0  0  0  0  0  0  0  0  0  0  0  0
   45.6200   33.6850   45.8260 C   0  0  0  0  0  0  0  0  0  0  0  0
   44.8450   34.8130   45.8670 N   0  0  0  0  0  0  0  0  0  0  0  0
   44.5870   35.5400   44.7710 C   0  0  0  0  0  0  0  0  0  0  0  0
   45.0840   35.1860   43.5700 N   0  0  0  0  0  0  0  0  0  0  0  0
   45.9430   32.8660   46.9230 N   0  0  0  0  0  0  0  0  0  0  0  0
   45.3830   32.8100   48.1440 C   0  0  0  0  0  0  0  0  0  0  0  0
   46.0720   31.8260   48.8560 C   0  0  0  0  0  0  0  0  0  0  0  0
   47.0130   31.3330   48.0380 N   0  0  0  0  0  0  0  0  0  0  0  0
   46.9620   31.9460   46.8500 C   0  0  0  0  0  0  0  0  0  0  0  0
   47.7760   34.0950   41.9950 N   0  0  0  0  0  0  0  0  0  0  0  0
   47.9800   35.4090   41.6960 C   0  0  0  0  0  0  0  0  0  0  0  0
   49.3840   35.9140   41.8580 C   0  0  0  0  0  0  0  0  0  0  0  0
   50.1710   35.1940   42.8420 N   0  0  0  0  0  0  0  0  0  0  0  0
   50.0590   33.7530   42.7560 C   0  0  0  0  0  0  0  0  0  0  0  0
   48.7390   33.1910   42.3370 C   0  0  0  0  0  0  0  0  0  0  0  0
   48.7110   31.7520   42.3600 C   0  0  0  0  0  0  0  0  0  0  0  0
   48.7970   30.9900   41.2220 C   0  0  0  0  0  0  0  0  0  0  0  0
   48.6980   29.2620   41.7820 S   0  0  0  0  0  0  0  0  0  0  0  0
   48.5450   29.8630   43.5800 C   0  0  0  0  0  0  0  0  0  0  0  0
   48.5960   30.9430   43.3560 N   0  0  0  0  0  0  0  0  0  0  0  0
   46.3754   32.5814   42.0832 H   0  0  0  0  0  0  0  0  0  0  0  0
   45.8236   34.1608   41.3691 H   0  0  0  0  0  0  0  0  0  0  0  0
   46.7806   32.3881   44.5254 H   0  0  0  0  0  0  0  0  0  0  0  0
   43.9596   36.4398   44.8534 H   0  0  0  0  0  0  0  0  0  0  0  0
   44.5449   33.4207   48.5109 H   0  0  0  0  0  0  0  0  0  0  0  0
   45.8790   31.5140   49.8930 H   0  0  0  0  0  0  0  0  0  0  0  0
   47.6100   31.7516   45.9826 H   0  0  0  0  0  0  0  0  0  0  0  0
   47.3301   36.0074   42.3515 H   0  0  0  0  0  0  0  0  0  0  0  0
   47.7535   35.5061   40.6240 H   0  0  0  0  0  0  0  0  0  0  0  0
   49.8925   35.8343   40.8858 H   0  0  0  0  0  0  0  0  0  0  0  0
   49.3049   36.9507   42.2173 H   0  0  0  0  0  0  0  0  0  0  0  0
   50.7593   35.6679   43.5422 H   0  0  0  0  0  0  0  0  0  0  0  0
   50.9113   33.0981   42.9897 H   0  0  0  0  0  0  0  0  0  0  0  0
   48.9035   31.3489   40.1877 H   0  0  0  0  0  0  0  0  0  0  0  0
   48.4404   29.3160   44.5286 H   0  0  0  0  0  0  0  0  0  0  0  0
  1  2  1  0
  2  7  1  0
  2  3  2  0
  3  4  1  0
  4  5  2  0
  4  8  1  0
  6  5  1  0
  7  6  2  0
  8  9  1  0
  9 10  2  0
 11 10  1  0
 12  8  1  0
 12 11  2  0
 13  1  1  0
 13 18  1  0
 14 15  1  0
 14 13  1  0
 15 16  1  0
 17 16  1  0
 18 19  1  0
 18 17  2  0
 19 23  1  0
 20 21  1  0
 20 19  2  0
 21 22  1  0
 23 22  2  0
  1 24  1  0
  1 25  1  0
  3 26  1  0
  6 27  1  0
  9 28  1  0
 10 29  1  0
 12 30  1  0
 14 31  1  0
 14 32  1  0
 15 33  1  0
 15 34  1  0
 16 35  1  0
 17 36  1  0
 20 37  1  0
 22 38  1  0
M  ISO  8  24   8  25   8  26  14  27  14  28  14  29  14  30  14  31  13
M  ISO  6  32  13  33  13  34  13  36  13  37  14  38  14
M  END
>  <minimizedAffinity>  (1) 
-5.97564983

>  <minimizedRMSD>  (1) 
0.559401989

$$$$
