
     RDKit          3D

 45 48  0  0  0  0  0  0  0  0999 V2000
   47.8380   34.0590   41.9860 N   0  0  0  0  0  0  0  0  0  0  0  0
   47.9840   35.4000   41.7500 C   0  0  0  0  0  0  0  0  0  0  0  0
   49.3780   35.9410   41.9020 C   0  0  0  0  0  0  0  0  0  0  0  0
   50.2060   35.2060   42.8230 N   0  0  0  0  0  0  0  0  0  0  0  0
   50.1450   33.7730   42.6680 C   0  0  0  0  0  0  0  0  0  0  0  0
   48.8360   33.1720   42.2700 C   0  0  0  0  0  0  0  0  0  0  0  0
   49.4800   28.9210   42.0930 C   0  0  0  0  0  0  0  0  0  0  0  0
   49.6730   29.7580   41.0220 C   0  0  0  0  0  0  0  0  0  0  0  0
   49.4300   31.1110   41.1220 C   0  0  0  0  0  0  0  0  0  0  0  0
   48.9840   31.7650   42.2530 C   0  0  0  0  0  0  0  0  0  0  0  0
   48.8220   30.8630   43.2590 C   0  0  0  0  0  0  0  0  0  0  0  0
   49.0350   29.5110   43.2570 C   0  0  0  0  0  0  0  0  0  0  0  0
   49.7880   27.2080   41.9600 S   0  0  0  0  0  0  0  0  0  0  0  0
   50.0850   26.6790   43.3440 O   0  0  0  0  0  0  0  0  0  0  0  0
   48.5750   26.4830   41.4520 O   0  0  0  0  0  0  0  0  0  0  0  0
   46.5080   33.6020   42.1580 C   0  0  0  0  0  0  0  0  0  0  0  0
   45.9180   33.9980   43.4560 C   0  0  0  0  0  0  0  0  0  0  0  0
   46.2120   33.2250   44.6050 C   0  0  0  0  0  0  0  0  0  0  0  0
   45.6550   33.6490   45.8180 C   0  0  0  0  0  0  0  0  0  0  0  0
   44.8740   34.7600   45.8340 N   0  0  0  0  0  0  0  0  0  0  0  0
   44.6190   35.4650   44.7280 C   0  0  0  0  0  0  0  0  0  0  0  0
   45.1270   35.1060   43.5390 N   0  0  0  0  0  0  0  0  0  0  0  0
   45.9780   32.8400   46.9280 N   0  0  0  0  0  0  0  0  0  0  0  0
   45.3950   32.7840   48.1390 C   0  0  0  0  0  0  0  0  0  0  0  0
   46.0750   31.8240   48.8750 C   0  0  0  0  0  0  0  0  0  0  0  0
   47.0420   31.3390   48.0790 N   0  0  0  0  0  0  0  0  0  0  0  0
   47.0130   31.9350   46.8850 C   0  0  0  0  0  0  0  0  0  0  0  0
   47.3335   35.9397   42.4539 H   0  0  0  0  0  0  0  0  0  0  0  0
   47.7184   35.5489   40.6930 H   0  0  0  0  0  0  0  0  0  0  0  0
   49.8629   35.9237   40.9148 H   0  0  0  0  0  0  0  0  0  0  0  0
   49.2768   36.9561   42.3134 H   0  0  0  0  0  0  0  0  0  0  0  0
   50.7932   35.6655   43.5336 H   0  0  0  0  0  0  0  0  0  0  0  0
   51.0317   33.1443   42.8370 H   0  0  0  0  0  0  0  0  0  0  0  0
   50.0277   29.3416   40.0676 H   0  0  0  0  0  0  0  0  0  0  0  0
   49.6065   31.7217   40.2242 H   0  0  0  0  0  0  0  0  0  0  0  0
   48.4683   31.2815   44.2128 H   0  0  0  0  0  0  0  0  0  0  0  0
   48.8557   28.9104   44.1610 H   0  0  0  0  0  0  0  0  0  0  0  0
   50.8313   27.0113   41.0941 H   0  0  0  0  0  0  0  0  0  0  0  0
   45.8881   34.0189   41.3506 H   0  0  0  0  0  0  0  0  0  0  0  0
   46.5347   32.5026   42.1333 H   0  0  0  0  0  0  0  0  0  0  0  0
   46.8499   32.3307   44.5476 H   0  0  0  0  0  0  0  0  0  0  0  0
   43.9797   36.3578   44.7935 H   0  0  0  0  0  0  0  0  0  0  0  0
   44.5402   33.3858   48.4814 H   0  0  0  0  0  0  0  0  0  0  0  0
   45.8630   31.5191   49.9104 H   0  0  0  0  0  0  0  0  0  0  0  0
   47.6838   31.7409   46.0351 H   0  0  0  0  0  0  0  0  0  0  0  0
  1 16  1  0
  1  6  1  0
  2  3  1  0
  2  1  1  0
  3  4  1  0
  5  4  1  0
  6  5  2  0
  7 12  2  0
  8  9  2  0
  8  7  1  0
  9 10  1  0
 10  6  1  0
 10 11  2  0
 12 11  1  0
 13  7  1  0
 13 14  2  0
 15 13  2  0
 16 17  1  0
 17 22  1  0
 17 18  2  0
 18 19  1  0
 19 20  2  0
 19 23  1  0
 21 20  1  0
 22 21  2  0
 23 24  1  0
 24 25  2  0
 26 25  1  0
 27 23  1  0
 27 26  2  0
  2 28  1  0
  2 29  1  0
  3 30  1  0
  3 31  1  0
  4 32  1  0
  5 33  1  0
  8 34  1  0
  9 35  1  0
 11 36  1  0
 12 37  1  0
 13 38  1  0
 16 39  1  0
 16 40  1  0
 18 41  1  0
 21 42  1  0
 24 43  1  0
 25 44  1  0
 27 45  1  0
M  ISO  8  28  13  29  13  30  13  31  13  33  13  34  14  35  14  36  14
M  ISO  8  37  14  38  11  39   8  40   8  41  14  42  14  43  14  44  14
M  ISO  1  45  14
M  END
>  <minimizedAffinity>  (1) 
-5.87011099

>  <minimizedRMSD>  (1) 
1.00778139

$$$$
