
     RDKit          3D

 55 60  0  0  0  0  0  0  0  0999 V2000
   47.5120   34.1370   42.3880 N   0  0  0  0  0  0  0  0  0  0  0  0
   47.8640   35.3830   42.0040 C   0  0  0  0  0  0  0  0  0  0  0  0
   49.3440   35.6650   42.0040 C   0  0  0  0  0  0  0  0  0  0  0  0
   50.1060   34.7870   42.8710 N   0  0  0  0  0  0  0  0  0  0  0  0
   49.7440   33.4190   42.7940 C   0  0  0  0  0  0  0  0  0  0  0  0
   48.3220   33.0430   42.6120 C   0  0  0  0  0  0  0  0  0  0  0  0
   48.0490   31.6760   42.6720 N   0  0  0  0  0  0  0  0  0  0  0  0
   47.9600   30.8630   41.5980 N   0  0  0  0  0  0  0  0  0  0  0  0
   47.6580   29.6480   41.9980 C   0  0  0  0  0  0  0  0  0  0  0  0
   47.5530   29.6590   43.3610 C   0  0  0  0  0  0  0  0  0  0  0  0
   47.8140   30.9770   43.7700 C   0  0  0  0  0  0  0  0  0  0  0  0
   47.8340   30.7650   45.1840 C   0  0  0  0  0  0  0  0  0  0  0  0
   48.6590   29.6980   45.5150 C   0  0  0  0  0  0  0  0  0  0  0  0
   48.7590   29.1720   46.8080 C   0  0  0  0  0  0  0  0  0  0  0  0
   47.9870   29.7510   47.8240 C   0  0  0  0  0  0  0  0  0  0  0  0
   47.1850   30.8050   47.4680 C   0  0  0  0  0  0  0  0  0  0  0  0
   46.3990   31.5130   48.3440 C   0  0  0  0  0  0  0  0  0  0  0  0
   45.5960   32.6020   48.0820 C   0  0  0  0  0  0  0  0  0  0  0  0
   45.5810   33.0450   46.7540 C   0  0  0  0  0  0  0  0  0  0  0  0
   46.3240   32.4060   45.8270 C   0  0  0  0  0  0  0  0  0  0  0  0
   47.0900   31.3220   46.1970 C   0  0  0  0  0  0  0  0  0  0  0  0
   46.1090   33.9480   42.6590 C   0  0  0  0  0  0  0  0  0  0  0  0
   45.3390   33.8240   41.3900 C   0  0  0  0  0  0  0  0  0  0  0  0
   44.0320   34.3370   41.3440 C   0  0  0  0  0  0  0  0  0  0  0  0
   43.3310   34.2410   40.1630 C   0  0  0  0  0  0  0  0  0  0  0  0
   43.9300   33.6490   39.0890 N   0  0  0  0  0  0  0  0  0  0  0  0
   45.1750   33.1650   39.1570 C   0  0  0  0  0  0  0  0  0  0  0  0
   45.8870   33.2480   40.2970 N   0  0  0  0  0  0  0  0  0  0  0  0
   42.0340   34.8040   40.1600 N   0  0  0  0  0  0  0  0  0  0  0  0
   41.0450   34.6610   39.2650 C   0  0  0  0  0  0  0  0  0  0  0  0
   39.9710   35.4390   39.7220 C   0  0  0  0  0  0  0  0  0  0  0  0
   40.3730   36.0070   40.8620 N   0  0  0  0  0  0  0  0  0  0  0  0
   41.6140   35.6450   41.1530 C   0  0  0  0  0  0  0  0  0  0  0  0
   47.3823   36.0976   42.6876 H   0  0  0  0  0  0  0  0  0  0  0  0
   47.5365   35.4820   40.9586 H   0  0  0  0  0  0  0  0  0  0  0  0
   49.7193   35.5493   40.9765 H   0  0  0  0  0  0  0  0  0  0  0  0
   49.4758   36.6877   42.3871 H   0  0  0  0  0  0  0  0  0  0  0  0
   50.8513   35.1305   43.4935 H   0  0  0  0  0  0  0  0  0  0  0  0
   50.5158   32.6389   42.8691 H   0  0  0  0  0  0  0  0  0  0  0  0
   47.5144   28.7725   41.3477 H   0  0  0  0  0  0  0  0  0  0  0  0
   47.3116   28.8040   44.0096 H   0  0  0  0  0  0  0  0  0  0  0  0
   49.2659   29.2422   44.7188 H   0  0  0  0  0  0  0  0  0  0  0  0
   49.4273   28.3248   47.0215 H   0  0  0  0  0  0  0  0  0  0  0  0
   48.0225   29.3778   48.8581 H   0  0  0  0  0  0  0  0  0  0  0  0
   46.4121   31.1666   49.3880 H   0  0  0  0  0  0  0  0  0  0  0  0
   45.0033   33.0929   48.8680 H   0  0  0  0  0  0  0  0  0  0  0  0
   44.9658   33.9107   46.4676 H   0  0  0  0  0  0  0  0  0  0  0  0
   46.3184   32.7483   44.7816 H   0  0  0  0  0  0  0  0  0  0  0  0
   45.9763   33.0316   43.2527 H   0  0  0  0  0  0  0  0  0  0  0  0
   45.7358   34.8207   43.2149 H   0  0  0  0  0  0  0  0  0  0  0  0
   43.5793   34.8045   42.2309 H   0  0  0  0  0  0  0  0  0  0  0  0
   45.6231   32.6930   38.2702 H   0  0  0  0  0  0  0  0  0  0  0  0
   41.0712   34.0515   38.3497 H   0  0  0  0  0  0  0  0  0  0  0  0
   38.9909   35.5579   39.2370 H   0  0  0  0  0  0  0  0  0  0  0  0
   42.1976   35.9620   42.0299 H   0  0  0  0  0  0  0  0  0  0  0  0
  1  6  1  0
  1 22  1  0
  2  3  1  0
  2  1  1  0
  3  4  1  0
  5  4  1  0
  6  7  1  0
  6  5  2  0
  7 11  1  0
  8  9  2  0
  8  7  1  0
  9 10  1  0
 10 11  2  0
 11 12  1  0
 12 13  2  0
 12 21  1  0
 13 14  1  0
 14 15  2  0
 16 15  1  0
 16 17  2  0
 18 17  1  0
 19 18  2  0
 20 21  2  0
 20 19  1  0
 21 16  1  0
 23 22  1  0
 24 23  2  0
 25 24  1  0
 26 27  1  0
 26 25  2  0
 27 28  2  0
 28 23  1  0
 29 25  1  0
 29 33  1  0
 30 31  2  0
 30 29  1  0
 31 32  1  0
 32 33  2  0
  2 34  1  0
  2 35  1  0
  3 36  1  0
  3 37  1  0
  4 38  1  0
  5 39  1  0
  9 40  1  0
 10 41  1  0
 13 42  1  0
 14 43  1  0
 15 44  1  0
 17 45  1  0
 18 46  1  0
 19 47  1  0
 20 48  1  0
 22 49  1  0
 22 50  1  0
 24 51  1  0
 27 52  1  0
 30 53  1  0
 31 54  1  0
 33 55  1  0
M  ISO  8  34  13  35  13  36  13  37  13  39  13  40  14  41  14  42  14
M  ISO  8  43  14  44  14  45  14  46  14  47  14  48  14  49   8  50   8
M  ISO  5  51  14  52  14  53  14  54  14  55  14
M  END
>  <minimizedAffinity>  (1) 
-6.87328577

>  <minimizedRMSD>  (1) 
4.99660349

$$$$
