
     RDKit          3D

 55 59  0  0  0  0  0  0  0  0999 V2000
   47.8970   34.1530   41.8570 N   0  0  0  0  0  0  0  0  0  0  0  0
   48.2200   35.4640   41.9030 C   0  0  0  0  0  0  0  0  0  0  0  0
   49.6690   35.7540   42.2220 C   0  0  0  0  0  0  0  0  0  0  0  0
   50.3540   34.6710   42.9110 N   0  0  0  0  0  0  0  0  0  0  0  0
   50.0770   33.3640   42.4190 C   0  0  0  0  0  0  0  0  0  0  0  0
   48.7470   33.0650   41.8780 C   0  0  0  0  0  0  0  0  0  0  0  0
   48.5490   31.7420   41.4710 N   0  0  0  0  0  0  0  0  0  0  0  0
   48.4820   31.2740   40.2010 N   0  0  0  0  0  0  0  0  0  0  0  0
   48.1950   29.9750   40.2150 C   0  0  0  0  0  0  0  0  0  0  0  0
   48.0770   29.5740   41.5460 C   0  0  0  0  0  0  0  0  0  0  0  0
   48.3170   30.7110   42.2910 C   0  0  0  0  0  0  0  0  0  0  0  0
   48.5550   30.3610   43.7120 C   0  0  0  0  0  0  0  0  0  0  0  0
   47.4580   29.5080   44.2860 C   0  0  0  0  0  0  0  0  0  0  0  0
   47.8550   28.8760   45.5960 C   0  0  0  0  0  0  0  0  0  0  0  0
   49.1350   29.4940   46.0910 C   0  0  0  0  0  0  0  0  0  0  0  0
   50.1920   29.0160   45.0940 C   0  0  0  0  0  0  0  0  0  0  0  0
   49.7010   29.2340   43.7240 C   0  0  0  0  0  0  0  0  0  0  0  0
   46.4860   33.8670   41.8510 C   0  0  0  0  0  0  0  0  0  0  0  0
   45.8550   34.3070   43.1290 C   0  0  0  0  0  0  0  0  0  0  0  0
   46.1030   33.5520   44.2930 C   0  0  0  0  0  0  0  0  0  0  0  0
   45.5130   33.9800   45.4770 C   0  0  0  0  0  0  0  0  0  0  0  0
   44.7310   35.0990   45.4570 N   0  0  0  0  0  0  0  0  0  0  0  0
   44.5180   35.7900   44.3330 C   0  0  0  0  0  0  0  0  0  0  0  0
   45.0710   35.4070   43.1710 N   0  0  0  0  0  0  0  0  0  0  0  0
   45.7940   33.2100   46.6180 N   0  0  0  0  0  0  0  0  0  0  0  0
   45.1380   33.1450   47.7880 C   0  0  0  0  0  0  0  0  0  0  0  0
   45.8270   32.2070   48.5780 C   0  0  0  0  0  0  0  0  0  0  0  0
   46.8660   31.7540   47.8430 N   0  0  0  0  0  0  0  0  0  0  0  0
   46.8520   32.3580   46.6560 C   0  0  0  0  0  0  0  0  0  0  0  0
   47.9913   35.9064   40.9222 H   0  0  0  0  0  0  0  0  0  0  0  0
   47.6315   35.8970   42.7253 H   0  0  0  0  0  0  0  0  0  0  0  0
   50.1977   35.9517   41.2778 H   0  0  0  0  0  0  0  0  0  0  0  0
   49.6771   36.6181   42.9026 H   0  0  0  0  0  0  0  0  0  0  0  0
   50.9948   34.8382   43.6999 H   0  0  0  0  0  0  0  0  0  0  0  0
   50.8536   32.5854   42.4444 H   0  0  0  0  0  0  0  0  0  0  0  0
   48.0723   29.3304   39.3322 H   0  0  0  0  0  0  0  0  0  0  0  0
   47.8428   28.5670   41.9215 H   0  0  0  0  0  0  0  0  0  0  0  0
   48.7185   31.3136   44.2371 H   0  0  0  0  0  0  0  0  0  0  0  0
   46.5700   30.1360   44.4503 H   0  0  0  0  0  0  0  0  0  0  0  0
   47.2492   28.6993   43.5702 H   0  0  0  0  0  0  0  0  0  0  0  0
   47.0591   29.0406   46.3373 H   0  0  0  0  0  0  0  0  0  0  0  0
   48.0054   27.7964   45.4484 H   0  0  0  0  0  0  0  0  0  0  0  0
   49.0647   30.5917   46.0888 H   0  0  0  0  0  0  0  0  0  0  0  0
   49.3702   29.2046   47.1258 H   0  0  0  0  0  0  0  0  0  0  0  0
   51.1228   29.5823   45.2454 H   0  0  0  0  0  0  0  0  0  0  0  0
   50.3880   27.9448   45.2495 H   0  0  0  0  0  0  0  0  0  0  0  0
   49.2876   28.2926   43.3331 H   0  0  0  0  0  0  0  0  0  0  0  0
   50.5381   29.5697   43.0942 H   0  0  0  0  0  0  0  0  0  0  0  0
   46.0130   34.3991   41.0125 H   0  0  0  0  0  0  0  0  0  0  0  0
   46.3449   32.7816   41.7415 H   0  0  0  0  0  0  0  0  0  0  0  0
   46.7406   32.6561   44.2657 H   0  0  0  0  0  0  0  0  0  0  0  0
   43.8802   36.6858   44.3603 H   0  0  0  0  0  0  0  0  0  0  0  0
   44.2398   33.7128   48.0723 H   0  0  0  0  0  0  0  0  0  0  0  0
   45.5683   31.9000   49.6021 H   0  0  0  0  0  0  0  0  0  0  0  0
   47.5751   32.1947   45.8433 H   0  0  0  0  0  0  0  0  0  0  0  0
  1  6  1  0
  1  2  1  0
  2  3  1  0
  3  4  1  0
  5  4  1  0
  6  5  2  0
  7  6  1  0
  7 11  1  0
  8  9  2  0
  8  7  1  0
  9 10  1  0
 10 11  2  0
 11 12  1  0
 12 17  1  0
 12 13  1  0
 13 14  1  0
 14 15  1  0
 16 15  1  0
 17 16  1  0
 18  1  1  0
 18 19  1  0
 19 24  1  0
 19 20  2  0
 20 21  1  0
 21 25  1  0
 22 21  2  0
 23 22  1  0
 24 23  2  0
 25 29  1  0
 25 26  1  0
 26 27  2  0
 28 27  1  0
 29 28  2  0
  2 30  1  0
  2 31  1  0
  3 32  1  0
  3 33  1  0
  4 34  1  0
  5 35  1  0
  9 36  1  0
 10 37  1  0
 12 38  1  0
 13 39  1  0
 13 40  1  0
 14 41  1  0
 14 42  1  0
 15 43  1  0
 15 44  1  0
 16 45  1  0
 16 46  1  0
 17 47  1  0
 17 48  1  0
 18 49  1  0
 18 50  1  0
 20 51  1  0
 23 52  1  0
 26 53  1  0
 27 54  1  0
 29 55  1  0
M  ISO  8  30  13  31  13  32  13  33  13  35  13  36  14  37  14  38  13
M  ISO  8  39  13  40  13  41  13  42  13  43  13  44  13  45  13  46  13
M  ISO  8  47  13  48  13  49   8  50   8  51  14  52  14  53  14  54  14
M  ISO  1  55  14
M  END
>  <minimizedAffinity>  (1) 
-6.10523224

>  <minimizedRMSD>  (1) 
1.19129193

$$$$
