
     RDKit          3D

 35 39  0  0  0  0  0  0  0  0999 V2000
   44.5360   36.0380   44.5650 C   0  0  0  0  0  0  0  0  0  0  0  0
   45.2410   36.0590   43.3620 C   0  0  0  0  0  0  0  0  0  0  0  0
   46.1490   35.0480   43.1020 C   0  0  0  0  0  0  0  0  0  0  0  0
   46.2910   34.0820   44.0630 N   0  0  0  0  0  0  0  0  0  0  0  0
   45.6000   34.0860   45.2140 C   0  0  0  0  0  0  0  0  0  0  0  0
   44.7230   35.0590   45.4680 N   0  0  0  0  0  0  0  0  0  0  0  0
   45.8720   32.9910   46.1150 N   0  0  0  0  0  0  0  0  0  0  0  0
   45.4310   32.7940   47.3670 C   0  0  0  0  0  0  0  0  0  0  0  0
   45.9510   31.6330   47.8100 N   0  0  0  0  0  0  0  0  0  0  0  0
   46.7290   31.0740   46.8510 C   0  0  0  0  0  0  0  0  0  0  0  0
   47.4720   29.9030   46.8160 C   0  0  0  0  0  0  0  0  0  0  0  0
   48.1320   29.6680   45.6750 N   0  0  0  0  0  0  0  0  0  0  0  0
   48.0700   30.5130   44.6460 C   0  0  0  0  0  0  0  0  0  0  0  0
   47.3500   31.6690   44.6530 N   0  0  0  0  0  0  0  0  0  0  0  0
   46.6680   31.9420   45.7920 C   0  0  0  0  0  0  0  0  0  0  0  0
   46.9900   34.9020   41.9430 C   0  0  0  0  0  0  0  0  0  0  0  0
   48.2750   35.4090   41.8920 C   0  0  0  0  0  0  0  0  0  0  0  0
   48.8780   35.1390   40.7280 N   0  0  0  0  0  0  0  0  0  0  0  0
   48.0410   34.4450   39.9470 C   0  0  0  0  0  0  0  0  0  0  0  0
   48.1020   33.8940   38.6840 C   0  0  0  0  0  0  0  0  0  0  0  0
   47.0360   33.1920   38.1310 C   0  0  0  0  0  0  0  0  0  0  0  0
   45.8860   33.0650   38.9150 C   0  0  0  0  0  0  0  0  0  0  0  0
   45.8530   33.6240   40.1710 C   0  0  0  0  0  0  0  0  0  0  0  0
   46.9040   34.3140   40.7070 C   0  0  0  0  0  0  0  0  0  0  0  0
   43.8124   36.8382   44.7797 H   0  0  0  0  0  0  0  0  0  0  0  0
   45.0780   36.8657   42.6322 H   0  0  0  0  0  0  0  0  0  0  0  0
   44.7635   33.4619   47.9312 H   0  0  0  0  0  0  0  0  0  0  0  0
   47.5161   29.2120   47.6707 H   0  0  0  0  0  0  0  0  0  0  0  0
   48.6346   30.2614   43.7361 H   0  0  0  0  0  0  0  0  0  0  0  0
   48.7470   35.9692   42.7126 H   0  0  0  0  0  0  0  0  0  0  0  0
   49.8354   35.4208   40.4732 H   0  0  0  0  0  0  0  0  0  0  0  0
   49.0233   34.0136   38.0951 H   0  0  0  0  0  0  0  0  0  0  0  0
   47.0954   32.7567   37.1226 H   0  0  0  0  0  0  0  0  0  0  0  0
   45.0115   32.5205   38.5293 H   0  0  0  0  0  0  0  0  0  0  0  0
   44.9387   33.5106   40.7719 H   0  0  0  0  0  0  0  0  0  0  0  0
  1  6  2  0
  2  1  1  0
  3  2  2  0
  3  4  1  0
  4  5  2  0
  5  6  1  0
  5  7  1  0
  7  8  1  0
  8  9  2  0
 10  9  1  0
 11 10  2  0
 12 11  1  0
 13 14  1  0
 13 12  2  0
 14 15  2  0
 15  7  1  0
 15 10  1  0
 16  3  1  0
 17 16  2  0
 18 17  1  0
 19 24  2  0
 19 18  1  0
 20 19  1  0
 21 20  2  0
 21 22  1  0
 22 23  2  0
 23 24  1  0
 24 16  1  0
  1 25  1  0
  2 26  1  0
  8 27  1  0
 11 28  1  0
 13 29  1  0
 17 30  1  0
 18 31  1  0
 20 32  1  0
 21 33  1  0
 22 34  1  0
 23 35  1  0
M  ISO  8  25  14  26  14  27  14  28  14  29  14  30  14  31   9  32  14
M  ISO  3  33  14  34  14  35  14
M  END
>  <minimizedAffinity>  (1) 
-7.44646645

>  <minimizedRMSD>  (1) 
0.878021061

$$$$
