
     RDKit          3D

 34 37  0  0  0  0  0  0  0  0999 V2000
   44.5860   36.1100   44.2880 C   0  0  0  0  0  0  0  0  0  0  0  0
   45.2340   35.9050   43.0490 C   0  0  0  0  0  0  0  0  0  0  0  0
   46.0370   34.7830   42.8960 C   0  0  0  0  0  0  0  0  0  0  0  0
   46.1620   33.9320   43.9450 N   0  0  0  0  0  0  0  0  0  0  0  0
   45.5230   34.1600   45.1240 C   0  0  0  0  0  0  0  0  0  0  0  0
   44.7390   35.2360   45.3050 N   0  0  0  0  0  0  0  0  0  0  0  0
   45.7480   33.1700   46.1540 N   0  0  0  0  0  0  0  0  0  0  0  0
   45.3370   33.1700   47.4430 C   0  0  0  0  0  0  0  0  0  0  0  0
   45.7840   32.0320   48.0340 N   0  0  0  0  0  0  0  0  0  0  0  0
   46.4770   31.3070   47.1290 C   0  0  0  0  0  0  0  0  0  0  0  0
   47.1340   30.0820   47.2170 C   0  0  0  0  0  0  0  0  0  0  0  0
   47.7370   29.6460   46.0840 N   0  0  0  0  0  0  0  0  0  0  0  0
   47.6950   30.3630   44.9580 C   0  0  0  0  0  0  0  0  0  0  0  0
   47.0610   31.5580   44.8560 N   0  0  0  0  0  0  0  0  0  0  0  0
   46.4410   32.0380   45.9580 C   0  0  0  0  0  0  0  0  0  0  0  0
   46.6960   34.5640   41.6540 N   0  0  0  0  0  0  0  0  0  0  0  0
   46.0800   33.8910   40.6660 C   0  0  0  0  0  0  0  0  0  0  0  0
   46.7000   33.6670   39.4540 C   0  0  0  0  0  0  0  0  0  0  0  0
   46.1390   32.9470   38.2950 C   0  0  0  0  0  0  0  0  0  0  0  0
   47.9770   34.1410   39.2430 C   0  0  0  0  0  0  0  0  0  0  0  0
   48.6290   33.9830   38.1580 O   0  0  0  0  0  0  0  0  0  0  0  0
   48.6040   34.8240   40.2430 N   0  0  0  0  0  0  0  0  0  0  0  0
   47.9400   35.0060   41.3990 C   0  0  0  0  0  0  0  0  0  0  0  0
   48.5730   35.6430   42.2790 O   0  0  0  0  0  0  0  0  0  0  0  0
   43.9474   36.9950   44.4256 H   0  0  0  0  0  0  0  0  0  0  0  0
   45.1048   36.6197   42.2229 H   0  0  0  0  0  0  0  0  0  0  0  0
   44.7423   33.9573   47.9293 H   0  0  0  0  0  0  0  0  0  0  0  0
   47.1619   29.5022   48.1514 H   0  0  0  0  0  0  0  0  0  0  0  0
   48.2010   29.9637   44.0666 H   0  0  0  0  0  0  0  0  0  0  0  0
   45.0604   33.5111   40.8276 H   0  0  0  0  0  0  0  0  0  0  0  0
   45.4988   32.1253   38.6486 H   0  0  0  0  0  0  0  0  0  0  0  0
   45.5415   33.6414   37.6861 H   0  0  0  0  0  0  0  0  0  0  0  0
   46.9584   32.5374   37.6861 H   0  0  0  0  0  0  0  0  0  0  0  0
   49.5585   35.1900   40.1170 H   0  0  0  0  0  0  0  0  0  0  0  0
  1  6  2  0
  2  1  1  0
  3  2  2  0
  3  4  1  0
  4  5  2  0
  5  6  1  0
  5  7  1  0
  7  8  1  0
  8  9  2  0
 10 11  2  0
 10  9  1  0
 12 11  1  0
 13 12  2  0
 14 13  1  0
 14 15  2  0
 15  7  1  0
 15 10  1  0
 16  3  1  0
 17 16  1  0
 18 17  2  0
 19 18  1  0
 20 18  1  0
 20 22  1  0
 21 20  2  0
 22 23  1  0
 23 16  1  0
 23 24  2  0
  1 25  1  0
  2 26  1  0
  8 27  1  0
 11 28  1  0
 13 29  1  0
 17 30  1  0
 19 31  1  0
 19 32  1  0
 19 33  1  0
 22 34  1  0
M  ISO  8  25  14  26  14  27  14  28  14  29  14  30  14  31   8  32   8
M  ISO  2  33   8  34   9
M  END
>  <minimizedAffinity>  (1) 
-6.78127432

>  <minimizedRMSD>  (1) 
0.763801217

$$$$
