
     RDKit          3D

 32 36  0  0  0  0  0  0  0  0999 V2000
   44.5270   36.0820   44.6790 C   0  0  0  0  0  0  0  0  0  0  0  0
   45.2610   35.9640   43.4860 C   0  0  0  0  0  0  0  0  0  0  0  0
   46.1030   34.8720   43.3300 C   0  0  0  0  0  0  0  0  0  0  0  0
   46.1810   33.9630   44.3360 N   0  0  0  0  0  0  0  0  0  0  0  0
   45.4630   34.1030   45.4710 C   0  0  0  0  0  0  0  0  0  0  0  0
   44.6290   35.1550   45.6630 N   0  0  0  0  0  0  0  0  0  0  0  0
   45.6350   33.0710   46.4610 N   0  0  0  0  0  0  0  0  0  0  0  0
   45.0950   32.9600   47.6980 C   0  0  0  0  0  0  0  0  0  0  0  0
   45.5470   31.8260   48.2550 N   0  0  0  0  0  0  0  0  0  0  0  0
   46.3740   31.1990   47.3940 C   0  0  0  0  0  0  0  0  0  0  0  0
   47.0890   30.0070   47.4910 C   0  0  0  0  0  0  0  0  0  0  0  0
   47.8260   29.6750   46.4270 N   0  0  0  0  0  0  0  0  0  0  0  0
   47.8620   30.4590   45.3380 C   0  0  0  0  0  0  0  0  0  0  0  0
   47.1790   31.6240   45.2100 N   0  0  0  0  0  0  0  0  0  0  0  0
   46.4220   31.9880   46.2720 C   0  0  0  0  0  0  0  0  0  0  0  0
   46.8490   34.7450   42.1260 N   0  0  0  0  0  0  0  0  0  0  0  0
   48.0960   35.2480   41.9590 C   0  0  0  0  0  0  0  0  0  0  0  0
   48.5530   34.9720   40.7130 N   0  0  0  0  0  0  0  0  0  0  0  0
   47.5990   34.2840   40.0570 C   0  0  0  0  0  0  0  0  0  0  0  0
   47.5290   33.7570   38.7830 C   0  0  0  0  0  0  0  0  0  0  0  0
   46.4010   33.1050   38.4230 N   0  0  0  0  0  0  0  0  0  0  0  0
   45.3880   32.9870   39.3120 C   0  0  0  0  0  0  0  0  0  0  0  0
   45.4540   33.5070   40.5710 N   0  0  0  0  0  0  0  0  0  0  0  0
   46.5590   34.1590   40.9560 C   0  0  0  0  0  0  0  0  0  0  0  0
   43.8568   36.9433   44.8169 H   0  0  0  0  0  0  0  0  0  0  0  0
   45.1699   36.7210   42.6931 H   0  0  0  0  0  0  0  0  0  0  0  0
   44.4041   33.6767   48.1660 H   0  0  0  0  0  0  0  0  0  0  0  0
   47.0491   29.3760   48.3911 H   0  0  0  0  0  0  0  0  0  0  0  0
   48.4872   30.1351   44.4929 H   0  0  0  0  0  0  0  0  0  0  0  0
   48.6578   35.8017   42.7257 H   0  0  0  0  0  0  0  0  0  0  0  0
   48.3682   33.8647   38.0801 H   0  0  0  0  0  0  0  0  0  0  0  0
   44.4767   32.4514   39.0078 H   0  0  0  0  0  0  0  0  0  0  0  0
  1  6  2  0
  2  1  1  0
  3  2  2  0
  3  4  1  0
  4  5  2  0
  5  6  1  0
  5  7  1  0
  7  8  1  0
  8  9  2  0
 10 11  2  0
 10  9  1  0
 12 11  1  0
 13 12  2  0
 14 13  1  0
 14 15  2  0
 15  7  1  0
 15 10  1  0
 16  3  1  0
 17 16  1  0
 18 17  2  0
 19 18  1  0
 19 24  2  0
 20 19  1  0
 21 20  2  0
 21 22  1  0
 22 23  2  0
 23 24  1  0
 24 16  1  0
  1 25  1  0
  2 26  1  0
  8 27  1  0
 11 28  1  0
 13 29  1  0
 17 30  1  0
 20 31  1  0
 22 32  1  0
M  ISO  8  25  14  26  14  27  14  28  14  29  14  30  14  31  14  32  14
M  END
>  <minimizedAffinity>  (1) 
-6.76049948

>  <minimizedRMSD>  (1) 
0.520548463

$$$$
