
     RDKit          3D

 28 31  0  0  0  0  0  0  0  0999 V2000
   44.5850   36.0910   44.4030 C   0  0  0  0  0  0  0  0  0  0  0  0
   45.3530   36.0050   43.2370 C   0  0  0  0  0  0  0  0  0  0  0  0
   46.2370   34.9400   43.1180 C   0  0  0  0  0  0  0  0  0  0  0  0
   46.3250   34.0350   44.1220 N   0  0  0  0  0  0  0  0  0  0  0  0
   45.5590   34.1550   45.2430 C   0  0  0  0  0  0  0  0  0  0  0  0
   44.6920   35.1750   45.3880 N   0  0  0  0  0  0  0  0  0  0  0  0
   45.7420   33.1270   46.2430 N   0  0  0  0  0  0  0  0  0  0  0  0
   45.2260   33.0380   47.4880 C   0  0  0  0  0  0  0  0  0  0  0  0
   45.6770   31.9060   48.0490 N   0  0  0  0  0  0  0  0  0  0  0  0
   46.4760   31.2590   47.1890 C   0  0  0  0  0  0  0  0  0  0  0  0
   47.1870   30.0580   47.2780 C   0  0  0  0  0  0  0  0  0  0  0  0
   47.8990   29.7120   46.1960 N   0  0  0  0  0  0  0  0  0  0  0  0
   47.9230   30.4800   45.1000 C   0  0  0  0  0  0  0  0  0  0  0  0
   47.2490   31.6530   44.9700 N   0  0  0  0  0  0  0  0  0  0  0  0
   46.5140   32.0370   46.0460 C   0  0  0  0  0  0  0  0  0  0  0  0
   47.0510   34.8260   41.9130 C   0  0  0  0  0  0  0  0  0  0  0  0
   46.7550   34.1010   40.7860 C   0  0  0  0  0  0  0  0  0  0  0  0
   47.8320   34.3220   39.9470 C   0  0  0  0  0  0  0  0  0  0  0  0
   48.6960   35.1400   40.5840 N   0  0  0  0  0  0  0  0  0  0  0  0
   48.2330   35.4500   41.7690 N   0  0  0  0  0  0  0  0  0  0  0  0
   43.8772   36.9249   44.5197 H   0  0  0  0  0  0  0  0  0  0  0  0
   45.2599   36.7569   42.4395 H   0  0  0  0  0  0  0  0  0  0  0  0
   44.5522   33.7679   47.9605 H   0  0  0  0  0  0  0  0  0  0  0  0
   47.1634   29.4335   48.1832 H   0  0  0  0  0  0  0  0  0  0  0  0
   48.5288   30.1389   44.2475 H   0  0  0  0  0  0  0  0  0  0  0  0
   45.8643   33.4847   40.5938 H   0  0  0  0  0  0  0  0  0  0  0  0
   47.9616   33.9044   38.9377 H   0  0  0  0  0  0  0  0  0  0  0  0
   49.5898   35.4722   40.1946 H   0  0  0  0  0  0  0  0  0  0  0  0
  1  6  2  0
  2  1  1  0
  3  2  2  0
  3  4  1  0
  4  5  2  0
  5  6  1  0
  5  7  1  0
  7  8  1  0
  8  9  2  0
 10 11  2  0
 10  9  1  0
 12 11  1  0
 13 12  2  0
 14 13  1  0
 14 15  2  0
 15  7  1  0
 15 10  1  0
 16  3  1  0
 17 16  1  0
 18 19  1  0
 18 17  2  0
 19 20  1  0
 20 16  2  0
  1 21  1  0
  2 22  1  0
  8 23  1  0
 11 24  1  0
 13 25  1  0
 17 26  1  0
 18 27  1  0
 19 28  1  0
M  ISO  8  21  14  22  14  23  14  24  14  25  14  26  14  27  14  28   9
M  END
>  <minimizedAffinity>  (1) 
-6.36766052

>  <minimizedRMSD>  (1) 
0.649088562

$$$$
