
     RDKit          3D

 24 26  0  0  0  0  0  0  0  0999 V2000
   44.4990   36.1240   44.4880 C   0  0  0  0  0  0  0  0  0  0  0  0
   45.2030   36.0120   43.2630 C   0  0  0  0  0  0  0  0  0  0  0  0
   46.0610   34.9290   43.1050 C   0  0  0  0  0  0  0  0  0  0  0  0
   46.1910   34.0320   44.1140 N   0  0  0  0  0  0  0  0  0  0  0  0
   45.4930   34.1840   45.2740 C   0  0  0  0  0  0  0  0  0  0  0  0
   44.6470   35.2200   45.4760 N   0  0  0  0  0  0  0  0  0  0  0  0
   45.7220   33.1590   46.2730 N   0  0  0  0  0  0  0  0  0  0  0  0
   45.2710   33.0920   47.5450 C   0  0  0  0  0  0  0  0  0  0  0  0
   45.7400   31.9530   48.0970 N   0  0  0  0  0  0  0  0  0  0  0  0
   46.4850   31.2850   47.1960 C   0  0  0  0  0  0  0  0  0  0  0  0
   47.1760   30.0810   47.2720 C   0  0  0  0  0  0  0  0  0  0  0  0
   47.8240   29.7180   46.1500 N   0  0  0  0  0  0  0  0  0  0  0  0
   47.7950   30.4810   45.0440 C   0  0  0  0  0  0  0  0  0  0  0  0
   47.1290   31.6580   44.9480 N   0  0  0  0  0  0  0  0  0  0  0  0
   46.4610   32.0590   46.0610 C   0  0  0  0  0  0  0  0  0  0  0  0
   46.7760   34.8200   41.8520 C   0  0  0  0  0  0  0  0  0  0  0  0
   48.0070   35.0720   41.8760 O   0  0  0  0  0  0  0  0  0  0  0  0
   46.1690   34.4580   40.6620 O   0  0  0  0  0  0  0  0  0  0  0  0
   43.8136   36.9715   44.6360 H   0  0  0  0  0  0  0  0  0  0  0  0
   45.0750   36.7569   42.4638 H   0  0  0  0  0  0  0  0  0  0  0  0
   44.6327   33.8362   48.0438 H   0  0  0  0  0  0  0  0  0  0  0  0
   47.1919   29.4681   48.1853 H   0  0  0  0  0  0  0  0  0  0  0  0
   48.3468   30.1280   44.1603 H   0  0  0  0  0  0  0  0  0  0  0  0
   45.1994   34.2592   40.6414 H   0  0  0  0  0  0  0  0  0  0  0  0
  1  6  2  0
  2  1  1  0
  3  2  2  0
  3  4  1  0
  4  5  2  0
  5  6  1  0
  5  7  1  0
  7  8  1  0
  8  9  2  0
 10 11  2  0
 10  9  1  0
 12 11  1  0
 13 12  2  0
 14 13  1  0
 14 15  2  0
 15  7  1  0
 15 10  1  0
 16 17  2  0
 16  3  1  0
 18 16  1  0
  1 19  1  0
  2 20  1  0
  8 21  1  0
 11 22  1  0
 13 23  1  0
 18 24  1  0
M  ISO  6  19  14  20  14  21  14  22  14  23  14  24   3
M  END
>  <minimizedAffinity>  (1) 
-5.40725565

>  <minimizedRMSD>  (1) 
0.35114193

$$$$
