
     RDKit          3D

 23 25  0  0  0  0  0  0  0  0999 V2000
   44.5340   36.0300   44.5160 C   0  0  0  0  0  0  0  0  0  0  0  0
   45.2920   35.8860   43.3450 C   0  0  0  0  0  0  0  0  0  0  0  0
   46.1750   34.8110   43.2250 C   0  0  0  0  0  0  0  0  0  0  0  0
   46.2580   33.9390   44.2760 N   0  0  0  0  0  0  0  0  0  0  0  0
   45.5050   34.1140   45.3990 C   0  0  0  0  0  0  0  0  0  0  0  0
   44.6540   35.1390   45.5240 N   0  0  0  0  0  0  0  0  0  0  0  0
   45.6870   33.1190   46.4380 N   0  0  0  0  0  0  0  0  0  0  0  0
   45.2060   33.0880   47.6890 C   0  0  0  0  0  0  0  0  0  0  0  0
   45.6440   31.9660   48.2790 N   0  0  0  0  0  0  0  0  0  0  0  0
   46.4110   31.2660   47.4150 C   0  0  0  0  0  0  0  0  0  0  0  0
   47.0910   30.0570   47.5310 C   0  0  0  0  0  0  0  0  0  0  0  0
   47.7680   29.6490   46.4530 N   0  0  0  0  0  0  0  0  0  0  0  0
   47.7810   30.3760   45.3260 C   0  0  0  0  0  0  0  0  0  0  0  0
   47.1250   31.5630   45.1810 N   0  0  0  0  0  0  0  0  0  0  0  0
   46.4340   31.9980   46.2550 C   0  0  0  0  0  0  0  0  0  0  0  0
   46.9860   34.5560   42.1120 N   0  0  0  0  0  0  0  0  0  0  0  0
   43.8365   36.8749   44.6144 H   0  0  0  0  0  0  0  0  0  0  0  0
   45.1917   36.6146   42.5270 H   0  0  0  0  0  0  0  0  0  0  0  0
   44.5630   33.8512   48.1517 H   0  0  0  0  0  0  0  0  0  0  0  0
   47.0723   29.4687   48.4603 H   0  0  0  0  0  0  0  0  0  0  0  0
   48.3540   29.9927   44.4688 H   0  0  0  0  0  0  0  0  0  0  0  0
   47.6108   33.7371   42.1068 H   0  0  0  0  0  0  0  0  0  0  0  0
   46.9577   35.1873   41.2987 H   0  0  0  0  0  0  0  0  0  0  0  0
  1  6  2  0
  2  1  1  0
  3  2  2  0
  3  4  1  0
  4  5  2  0
  5  6  1  0
  5  7  1  0
  7  8  1  0
  8  9  2  0
 10 11  2  0
 10  9  1  0
 12 11  1  0
 13 12  2  0
 14 13  1  0
 14 15  2  0
 15  7  1  0
 15 10  1  0
 16  3  1  0
  1 17  1  0
  2 18  1  0
  8 19  1  0
 11 20  1  0
 13 21  1  0
 16 22  1  0
 16 23  1  0
M  ISO  5  17  14  18  14  19  14  20  14  21  14
M  END
>  <minimizedAffinity>  (1) 
-5.0249486

>  <minimizedRMSD>  (1) 
0.079793185

$$$$
