
     RDKit          3D

 40 44  0  0  1  0  0  0  0  0999 V2000
   44.6650   36.0430   44.3890 C   0  0  0  0  0  0  0  0  0  0  0  0
   45.1780   35.6980   43.1320 C   0  0  0  0  0  0  0  0  0  0  0  0
   45.7970   34.4760   43.0150 C   0  0  0  0  0  0  0  0  0  0  0  0
   45.8850   33.6640   44.1040 N   0  0  0  0  0  0  0  0  0  0  0  0
   45.3750   34.0350   45.3020 C   0  0  0  0  0  0  0  0  0  0  0  0
   44.7560   35.2320   45.4610 N   0  0  0  0  0  0  0  0  0  0  0  0
   45.5160   33.0990   46.3700 N   0  0  0  0  0  0  0  0  0  0  0  0
   45.2500   33.2330   47.7010 C   0  0  0  0  0  0  0  0  0  0  0  0
   45.5450   32.0590   48.3000 N   0  0  0  0  0  0  0  0  0  0  0  0
   45.9950   31.1680   47.3930 C   0  0  0  0  0  0  0  0  0  0  0  0
   46.4140   29.8550   47.5220 C   0  0  0  0  0  0  0  0  0  0  0  0
   46.8030   29.2540   46.3890 N   0  0  0  0  0  0  0  0  0  0  0  0
   46.7800   29.9050   45.2020 C   0  0  0  0  0  0  0  0  0  0  0  0
   46.3730   31.1890   45.0700 N   0  0  0  0  0  0  0  0  0  0  0  0
   45.9760   31.8260   46.1770 C   0  0  0  0  0  0  0  0  0  0  0  0
   46.3580   34.0030   41.7200 C   0  0  1  0  0  0  0  0  0  0  0  0
   47.3790   34.8560   41.0100 C   0  0  0  0  0  0  0  0  0  0  0  0
   47.7360   33.5270   41.6680 C   0  0  1  0  0  0  0  0  0  0  0  0
   48.6290   33.4940   42.7690 N   0  0  0  0  0  0  0  0  0  0  0  0
   49.7930   34.3000   42.7090 C   0  0  0  0  0  0  0  0  0  0  0  0
   50.9470   33.4300   42.2700 C   0  0  0  0  0  0  0  0  0  0  0  0
   50.2950   32.1120   41.9560 C   0  0  0  0  0  0  0  0  0  0  0  0
   49.1230   32.1380   42.9280 C   0  0  0  0  0  0  0  0  0  0  0  0
   44.1670   37.0168   44.5057 H   0  0  0  0  0  0  0  0  0  0  0  0
   45.0891   36.3782   42.2721 H   0  0  0  0  0  0  0  0  0  0  0  0
   44.8643   34.1356   48.1976 H   0  0  0  0  0  0  0  0  0  0  0  0
   46.4269   29.3378   48.4927 H   0  0  0  0  0  0  0  0  0  0  0  0
   47.1078   29.3644   44.3018 H   0  0  0  0  0  0  0  0  0  0  0  0
   45.3879   33.5688   41.4366 H   0  0  0  0  0  0  0  0  0  0  0  0
   47.7165   35.8048   41.4525 H   0  0  0  0  0  0  0  0  0  0  0  0
   47.4836   35.2972   40.0078 H   0  0  0  0  0  0  0  0  0  0  0  0
   48.1829   32.5709   41.3580 H   0  0  0  0  0  0  0  0  0  0  0  0
   49.6447   35.1150   41.9853 H   0  0  0  0  0  0  0  0  0  0  0  0
   50.0022   34.7396   43.6954 H   0  0  0  0  0  0  0  0  0  0  0  0
   51.4374   33.8481   41.3785 H   0  0  0  0  0  0  0  0  0  0  0  0
   51.7347   33.3467   43.0333 H   0  0  0  0  0  0  0  0  0  0  0  0
   49.9541   32.0672   40.9111 H   0  0  0  0  0  0  0  0  0  0  0  0
   50.9561   31.2391   42.0612 H   0  0  0  0  0  0  0  0  0  0  0  0
   49.4554   31.9522   43.9600 H   0  0  0  0  0  0  0  0  0  0  0  0
   48.3662   31.3643   42.7311 H   0  0  0  0  0  0  0  0  0  0  0  0
  1  6  2  0
  2  1  1  0
  3  2  2  0
  3  4  1  0
  4  5  2  0
  5  6  1  0
  5  7  1  0
  7  8  1  0
  8  9  2  0
 10 11  2  0
 10  9  1  0
 12 11  1  0
 13 12  2  0
 14 13  1  0
 14 15  2  0
 15  7  1  0
 15 10  1  0
 16  3  1  0
 17 18  1  0
 17 16  1  0
 18 16  1  0
 18 19  1  0
 19 20  1  0
 19 23  1  0
 21 20  1  0
 22 21  1  0
 22 23  1  0
  1 24  1  0
  2 25  1  0
  8 26  1  0
 11 27  1  0
 13 28  1  0
 16 29  1  6
 17 30  1  0
 17 31  1  0
 18 32  1  6
 20 33  1  0
 20 34  1  0
 21 35  1  0
 21 36  1  0
 22 37  1  0
 22 38  1  0
 23 39  1  0
 23 40  1  0
M  ISO  8  24  14  25  14  26  14  27  14  28  14  29  13  30  13  31  13
M  ISO  8  32  13  33  13  34  13  35  13  36  13  37  13  38  13  39  13
M  ISO  1  40  13
M  END
>  <minimizedAffinity>  (1) 
-5.98552847

>  <minimizedRMSD>  (1) 
0.838140607

$$$$
