
     RDKit          3D

 35 38  0  0  1  0  0  0  0  0999 V2000
   44.4990   35.8090   44.7380 C   0  0  0  0  0  0  0  0  0  0  0  0
   44.8730   35.4300   43.4480 C   0  0  0  0  0  0  0  0  0  0  0  0
   45.4960   34.2120   43.3050 C   0  0  0  0  0  0  0  0  0  0  0  0
   45.7150   33.4390   44.4010 N   0  0  0  0  0  0  0  0  0  0  0  0
   45.3360   33.8420   45.6360 C   0  0  0  0  0  0  0  0  0  0  0  0
   44.7230   35.0340   45.8070 N   0  0  0  0  0  0  0  0  0  0  0  0
   45.6080   32.9470   46.7130 N   0  0  0  0  0  0  0  0  0  0  0  0
   45.4700   33.1220   48.0510 C   0  0  0  0  0  0  0  0  0  0  0  0
   45.8480   31.9900   48.6840 N   0  0  0  0  0  0  0  0  0  0  0  0
   46.2310   31.0800   47.7710 C   0  0  0  0  0  0  0  0  0  0  0  0
   46.7020   29.7750   47.8800 C   0  0  0  0  0  0  0  0  0  0  0  0
   46.9940   29.1460   46.7350 N   0  0  0  0  0  0  0  0  0  0  0  0
   46.8400   29.7540   45.5370 C   0  0  0  0  0  0  0  0  0  0  0  0
   46.3860   31.0190   45.4000 N   0  0  0  0  0  0  0  0  0  0  0  0
   46.0800   31.6840   46.5270 C   0  0  0  0  0  0  0  0  0  0  0  0
   45.9340   33.6910   41.9710 C   0  0  1  0  0  0  0  0  0  0  0  0
   46.7780   34.5880   41.0900 C   0  0  0  0  0  0  0  0  0  0  0  0
   47.3400   33.3400   41.7700 C   0  0  1  0  0  0  0  0  0  0  0  0
   48.3310   33.7030   42.7650 N   0  0  0  0  0  0  0  0  0  0  0  0
   49.6830   33.9160   42.3290 C   0  0  0  0  0  0  0  0  0  0  0  0
   50.2220   33.1950   41.4130 N   0  0  0  0  0  0  0  0  0  0  0  0
   50.5140   34.9300   42.8810 N   0  0  0  0  0  0  0  0  0  0  0  0
   49.6910   32.4390   40.9620 H   0  0  0  0  0  0  0  0  0  0  0  0
   44.0021   36.7797   44.8820 H   0  0  0  0  0  0  0  0  0  0  0  0
   44.6776   36.0786   42.5813 H   0  0  0  0  0  0  0  0  0  0  0  0
   45.1086   34.0379   48.5415 H   0  0  0  0  0  0  0  0  0  0  0  0
   46.8279   29.2855   48.8570 H   0  0  0  0  0  0  0  0  0  0  0  0
   47.0974   29.1902   44.6282 H   0  0  0  0  0  0  0  0  0  0  0  0
   44.9858   33.1493   41.8383 H   0  0  0  0  0  0  0  0  0  0  0  0
   47.0720   35.5903   41.4350 H   0  0  0  0  0  0  0  0  0  0  0  0
   46.7184   34.9704   40.0603 H   0  0  0  0  0  0  0  0  0  0  0  0
   47.8115   32.3854   41.4936 H   0  0  0  0  0  0  0  0  0  0  0  0
   48.0724   33.8052   43.7568 H   0  0  0  0  0  0  0  0  0  0  0  0
   51.4783   35.0484   42.5389 H   0  0  0  0  0  0  0  0  0  0  0  0
   50.1514   35.5458   43.6228 H   0  0  0  0  0  0  0  0  0  0  0  0
  1  6  2  0
  2  1  1  0
  3  2  2  0
  3  4  1  0
  4  5  2  0
  5  6  1  0
  5  7  1  0
  7  8  1  0
  8  9  2  0
 10 11  2  0
 10  9  1  0
 12 11  1  0
 13 12  2  0
 14 13  1  0
 14 15  2  0
 15  7  1  0
 15 10  1  0
 16  3  1  0
 17 18  1  0
 17 16  1  0
 18 16  1  0
 18 19  1  0
 20 19  1  0
 20 22  1  0
 21 20  2  0
 23 21  1  0
  1 24  1  0
  2 25  1  0
  8 26  1  0
 11 27  1  0
 13 28  1  0
 16 29  1  6
 17 30  1  0
 17 31  1  0
 18 32  1  6
 19 33  1  0
 22 34  1  0
 22 35  1  0
M  ISO  8  24  14  25  14  26  14  27  14  28  14  29  13  30  13  31  13
M  ISO  1  32  13
M  END
>  <minimizedAffinity>  (1) 
-6.3721571

>  <minimizedRMSD>  (1) 
1.6922183

$$$$
