
     RDKit          3D

 31 34  0  0  1  0  0  0  0  0999 V2000
   44.8650   35.8470   43.7420 C   0  0  0  0  0  0  0  0  0  0  0  0
   45.5440   35.3980   42.6090 C   0  0  0  0  0  0  0  0  0  0  0  0
   46.2440   34.2090   42.7130 C   0  0  0  0  0  0  0  0  0  0  0  0
   46.2530   33.5240   43.8800 N   0  0  0  0  0  0  0  0  0  0  0  0
   45.5670   34.0080   44.9650 C   0  0  0  0  0  0  0  0  0  0  0  0
   44.8760   35.1670   44.8960 N   0  0  0  0  0  0  0  0  0  0  0  0
   45.6350   33.2130   46.1490 N   0  0  0  0  0  0  0  0  0  0  0  0
   45.1810   33.4800   47.3970 C   0  0  0  0  0  0  0  0  0  0  0  0
   45.4740   32.4240   48.1990 N   0  0  0  0  0  0  0  0  0  0  0  0
   46.1080   31.4890   47.4820 C   0  0  0  0  0  0  0  0  0  0  0  0
   46.6170   30.2410   47.8210 C   0  0  0  0  0  0  0  0  0  0  0  0
   47.2120   29.5460   46.8280 N   0  0  0  0  0  0  0  0  0  0  0  0
   47.2990   30.0540   45.5660 C   0  0  0  0  0  0  0  0  0  0  0  0
   46.8090   31.2590   45.2310 N   0  0  0  0  0  0  0  0  0  0  0  0
   46.2110   31.9840   46.1810 C   0  0  0  0  0  0  0  0  0  0  0  0
   47.0140   33.6010   41.5810 C   0  0  1  0  0  0  0  0  0  0  0  0
   47.5110   34.4350   40.4920 C   0  0  0  0  0  0  0  0  0  0  0  0
   48.4690   33.8050   41.5090 C   0  0  1  0  0  0  0  0  0  0  0  0
   49.3100   34.8700   42.0950 C   0  0  0  0  0  0  0  0  0  0  0  0
   50.6410   34.4070   42.0980 F   0  0  0  0  0  0  0  0  0  0  0  0
   49.3860   36.0380   41.3400 F   0  0  0  0  0  0  0  0  0  0  0  0
   49.0430   35.1420   43.4080 F   0  0  0  0  0  0  0  0  0  0  0  0
   44.3021   36.7904   43.6858 H   0  0  0  0  0  0  0  0  0  0  0  0
   45.5236   35.9678   41.6683 H   0  0  0  0  0  0  0  0  0  0  0  0
   44.6619   34.3984   47.7086 H   0  0  0  0  0  0  0  0  0  0  0  0
   46.5393   29.8411   48.8428 H   0  0  0  0  0  0  0  0  0  0  0  0
   47.7916   29.4513   44.7887 H   0  0  0  0  0  0  0  0  0  0  0  0
   46.3652   32.7133   41.6126 H   0  0  0  0  0  0  0  0  0  0  0  0
   47.3312   35.5202   40.4999 H   0  0  0  0  0  0  0  0  0  0  0  0
   47.4174   34.4320   39.3960 H   0  0  0  0  0  0  0  0  0  0  0  0
   49.2576   33.0559   41.6736 H   0  0  0  0  0  0  0  0  0  0  0  0
  1  6  2  0
  2  3  2  0
  2  1  1  0
  3  4  1  0
  4  5  2  0
  5  7  1  0
  6  5  1  0
  7 15  1  0
  7  8  1  0
  8  9  2  0
 10 11  2  0
 10  9  1  0
 12 11  1  0
 13 12  2  0
 14 13  1  0
 14 15  2  0
 15 10  1  0
 16  3  1  0
 17 18  1  0
 17 16  1  0
 18 16  1  0
 18 19  1  0
 19 20  1  0
 19 22  1  0
 21 19  1  0
  1 23  1  0
  2 24  1  0
  8 25  1  0
 11 26  1  0
 13 27  1  0
 16 28  1  6
 17 29  1  0
 17 30  1  0
 18 31  1  6
M  ISO  8  23  14  24  14  25  14  26  14  27  14  28  13  29  13  30  13
M  ISO  1  31  13
M  END
>  <minimizedAffinity>  (1) 
-6.05404329

>  <minimizedRMSD>  (1) 
0.988986969

$$$$
