
     RDKit          3D

 40 44  0  0  1  0  0  0  0  0999 V2000
   44.4500   36.1580   44.7020 C   0  0  0  0  0  0  0  0  0  0  0  0
   45.0480   36.0640   43.4430 C   0  0  0  0  0  0  0  0  0  0  0  0
   45.8540   34.9740   43.2070 C   0  0  0  0  0  0  0  0  0  0  0  0
   46.0470   34.0370   44.1740 N   0  0  0  0  0  0  0  0  0  0  0  0
   45.4460   34.1670   45.3830 C   0  0  0  0  0  0  0  0  0  0  0  0
   44.6410   35.2280   45.6640 N   0  0  0  0  0  0  0  0  0  0  0  0
   45.6810   33.1240   46.3490 N   0  0  0  0  0  0  0  0  0  0  0  0
   45.3300   33.0350   47.6430 C   0  0  0  0  0  0  0  0  0  0  0  0
   45.7830   31.8430   48.1040 N   0  0  0  0  0  0  0  0  0  0  0  0
   46.4120   31.1760   47.1360 C   0  0  0  0  0  0  0  0  0  0  0  0
   47.0370   29.9330   47.1140 C   0  0  0  0  0  0  0  0  0  0  0  0
   47.5780   29.5670   45.9380 N   0  0  0  0  0  0  0  0  0  0  0  0
   47.5100   30.3720   44.8490 C   0  0  0  0  0  0  0  0  0  0  0  0
   46.9070   31.5790   44.8560 N   0  0  0  0  0  0  0  0  0  0  0  0
   46.3550   31.9840   46.0050 C   0  0  0  0  0  0  0  0  0  0  0  0
   46.5140   34.7730   41.8810 C   0  0  1  0  0  0  0  0  0  0  0  0
   48.0170   35.0280   41.7860 C   0  0  0  0  0  0  0  0  0  0  0  0
   47.4180   33.6420   41.7090 C   0  0  2  0  0  0  0  0  0  0  0  0
   47.3670   32.9060   40.4980 N   0  0  0  0  0  0  0  0  0  0  0  0
   48.5360   33.1710   39.7060 C   0  0  0  0  0  0  0  0  0  0  0  0
   48.1500   34.3200   38.7860 C   0  0  0  0  0  0  0  0  0  0  0  0
   47.2880   33.7020   37.8040 N   0  0  0  0  0  0  0  0  0  0  0  0
   46.1160   33.1050   38.3650 C   0  0  0  0  0  0  0  0  0  0  0  0
   46.1560   32.7820   39.8150 C   0  0  0  0  0  0  0  0  0  0  0  0
   43.8008   37.0193   44.9181 H   0  0  0  0  0  0  0  0  0  0  0  0
   44.8813   36.8303   42.6716 H   0  0  0  0  0  0  0  0  0  0  0  0
   44.7772   33.7898   48.2215 H   0  0  0  0  0  0  0  0  0  0  0  0
   47.0857   29.2887   48.0042 H   0  0  0  0  0  0  0  0  0  0  0  0
   47.9697   30.0234   43.9124 H   0  0  0  0  0  0  0  0  0  0  0  0
   45.6265   35.1351   41.3413 H   0  0  0  0  0  0  0  0  0  0  0  0
   48.4466   35.5000   40.8901 H   0  0  0  0  0  0  0  0  0  0  0  0
   48.7767   35.5306   42.4026 H   0  0  0  0  0  0  0  0  0  0  0  0
   47.6246   32.7090   42.2538 H   0  0  0  0  0  0  0  0  0  0  0  0
   49.3795   33.4605   40.3500 H   0  0  0  0  0  0  0  0  0  0  0  0
   48.8558   32.2838   39.1398 H   0  0  0  0  0  0  0  0  0  0  0  0
   47.6128   35.1030   39.3413 H   0  0  0  0  0  0  0  0  0  0  0  0
   49.0227   34.8144   38.3344 H   0  0  0  0  0  0  0  0  0  0  0  0
   47.4981   33.6925   36.7957 H   0  0  0  0  0  0  0  0  0  0  0  0
   45.2269   32.8948   37.7523 H   0  0  0  0  0  0  0  0  0  0  0  0
   45.2479   32.4513   40.3404 H   0  0  0  0  0  0  0  0  0  0  0  0
  1  6  2  0
  2  1  1  0
  3  2  2  0
  3  4  1  0
  4  5  2  0
  5  6  1  0
  5  7  1  0
  7  8  1  0
  8  9  2  0
 10  9  1  0
 11 10  2  0
 12 11  1  0
 13 14  1  0
 13 12  2  0
 14 15  2  0
 15  7  1  0
 15 10  1  0
 16  3  1  0
 17 16  1  0
 18 17  1  0
 18 16  1  0
 19 18  1  0
 20 19  1  0
 21 20  1  0
 22 23  1  0
 22 21  1  0
 23 24  2  0
 24 19  1  0
  1 25  1  0
  2 26  1  0
  8 27  1  0
 11 28  1  0
 13 29  1  0
 16 30  1  6
 17 31  1  0
 17 32  1  0
 18 33  1  1
 20 34  1  0
 20 35  1  0
 21 36  1  0
 21 37  1  0
 22 38  1  0
 23 39  1  0
 24 40  1  0
M  ISO  8  25  14  26  14  27  14  28  14  29  14  30  13  31  13  32  13
M  ISO  7  33  13  34  13  35  13  36  13  37  13  39  13  40  13
M  END
>  <minimizedAffinity>  (1) 
-6.33348274

>  <minimizedRMSD>  (1) 
1.16282403

$$$$
