
     RDKit          3D

 35 38  0  0  1  0  0  0  0  0999 V2000
   44.4960   35.5400   45.2510 C   0  0  0  0  0  0  0  0  0  0  0  0
   44.7510   35.2360   43.9170 C   0  0  0  0  0  0  0  0  0  0  0  0
   45.3610   34.0290   43.6340 C   0  0  0  0  0  0  0  0  0  0  0  0
   45.6960   33.1760   44.6280 N   0  0  0  0  0  0  0  0  0  0  0  0
   45.4280   33.5130   45.9270 C   0  0  0  0  0  0  0  0  0  0  0  0
   44.8260   34.6970   46.2510 N   0  0  0  0  0  0  0  0  0  0  0  0
   45.8130   32.5710   46.9250 N   0  0  0  0  0  0  0  0  0  0  0  0
   45.7830   32.6620   48.2870 C   0  0  0  0  0  0  0  0  0  0  0  0
   46.2510   31.5130   48.7920 N   0  0  0  0  0  0  0  0  0  0  0  0
   46.5900   30.6660   47.7870 C   0  0  0  0  0  0  0  0  0  0  0  0
   47.1090   29.3800   47.7870 C   0  0  0  0  0  0  0  0  0  0  0  0
   47.3230   28.8320   46.5770 N   0  0  0  0  0  0  0  0  0  0  0  0
   47.0440   29.5110   45.4480 C   0  0  0  0  0  0  0  0  0  0  0  0
   46.5390   30.7600   45.4390 N   0  0  0  0  0  0  0  0  0  0  0  0
   46.3070   31.3490   46.6180 C   0  0  0  0  0  0  0  0  0  0  0  0
   45.6820   33.6150   42.2440 C   0  0  1  0  0  0  0  0  0  0  0  0
   45.4860   34.5640   41.1120 C   0  0  0  0  0  0  0  0  0  0  0  0
   46.8740   34.1960   41.5950 C   0  0  1  0  0  0  0  0  0  0  0  0
   47.6600   35.3470   42.0700 C   0  0  0  0  0  0  0  0  0  0  0  0
   48.9040   35.4900   41.1840 C   0  0  0  0  0  0  0  0  0  0  0  0
   49.0970   34.3310   40.4400 O   0  0  0  0  0  0  0  0  0  0  0  0
   44.0110   36.4961   45.4972 H   0  0  0  0  0  0  0  0  0  0  0  0
   44.4756   35.9347   43.1133 H   0  0  0  0  0  0  0  0  0  0  0  0
   45.4350   33.5284   48.8686 H   0  0  0  0  0  0  0  0  0  0  0  0
   47.3321   28.8408   48.7195 H   0  0  0  0  0  0  0  0  0  0  0  0
   47.2385   29.0203   44.4829 H   0  0  0  0  0  0  0  0  0  0  0  0
   45.3239   32.5954   42.4492 H   0  0  0  0  0  0  0  0  0  0  0  0
   45.0846   35.5712   41.2977 H   0  0  0  0  0  0  0  0  0  0  0  0
   44.9580   34.5363   40.1474 H   0  0  0  0  0  0  0  0  0  0  0  0
   47.7970   33.7064   41.2510 H   0  0  0  0  0  0  0  0  0  0  0  0
   47.0527   36.2619   42.0064 H   0  0  0  0  0  0  0  0  0  0  0  0
   47.9603   35.1904   43.1166 H   0  0  0  0  0  0  0  0  0  0  0  0
   48.7686   36.3420   40.5016 H   0  0  0  0  0  0  0  0  0  0  0  0
   49.7835   35.6581   41.8229 H   0  0  0  0  0  0  0  0  0  0  0  0
   49.2248   33.5634   41.0520 H   0  0  0  0  0  0  0  0  0  0  0  0
  1  6  2  0
  2  1  1  0
  3  2  2  0
  3  4  1  0
  4  5  2  0
  5  6  1  0
  5  7  1  0
  7  8  1  0
  8  9  2  0
 10  9  1  0
 11 10  2  0
 12 11  1  0
 13 12  2  0
 14 13  1  0
 14 15  2  0
 15  7  1  0
 15 10  1  0
 16  3  1  0
 17 18  1  0
 17 16  1  0
 18 19  1  0
 18 16  1  0
 20 19  1  0
 21 20  1  0
  1 22  1  0
  2 23  1  0
  8 24  1  0
 11 25  1  0
 13 26  1  0
 16 27  1  6
 17 28  1  0
 17 29  1  0
 18 30  1  6
 19 31  1  0
 19 32  1  0
 20 33  1  0
 20 34  1  0
 21 35  1  0
M  ISO  8  22  14  23  14  24  14  25  14  26  14  27  13  28  13  29  13
M  ISO  6  30  13  31   8  32   8  33   8  34   8  35   3
M  END
>  <minimizedAffinity>  (1) 
-5.30535269

>  <minimizedRMSD>  (1) 
1.02413571

$$$$
