
     RDKit          3D

 49 54  0  0  1  0  0  0  0  0999 V2000
   47.3300   35.0920   41.5350 C   0  0  1  0  0  0  0  0  0  0  0  0
   48.7110   35.4000   41.9500 C   0  0  0  0  0  0  0  0  0  0  0  0
   48.4580   34.5390   40.7330 C   0  0  1  0  0  0  0  0  0  0  0  0
   46.0660   32.6790   44.1370 C   0  0  0  0  0  0  0  0  0  0  0  0
   46.9060   33.5840   43.5010 C   0  0  0  0  0  0  0  0  0  0  0  0
   46.4880   34.1310   42.2920 C   0  0  0  0  0  0  0  0  0  0  0  0
   45.2970   33.7760   41.7720 N   0  0  0  0  0  0  0  0  0  0  0  0
   44.5000   32.8850   42.4210 C   0  0  0  0  0  0  0  0  0  0  0  0
   44.8720   32.3220   43.6150 N   0  0  0  0  0  0  0  0  0  0  0  0
   43.2640   32.5620   41.7930 N   0  0  0  0  0  0  0  0  0  0  0  0
   42.3110   31.6540   42.1510 C   0  0  0  0  0  0  0  0  0  0  0  0
   41.3290   31.7090   41.2490 N   0  0  0  0  0  0  0  0  0  0  0  0
   41.6080   32.6340   40.2990 C   0  0  0  0  0  0  0  0  0  0  0  0
   40.9140   33.0490   39.1740 C   0  0  0  0  0  0  0  0  0  0  0  0
   41.5190   34.0090   38.4480 N   0  0  0  0  0  0  0  0  0  0  0  0
   42.7220   34.5160   38.8150 C   0  0  0  0  0  0  0  0  0  0  0  0
   43.3850   34.1100   39.9020 N   0  0  0  0  0  0  0  0  0  0  0  0
   42.8320   33.1600   40.6590 C   0  0  0  0  0  0  0  0  0  0  0  0
   49.0100   33.1920   40.7980 C   0  0  0  0  0  0  0  0  0  0  0  0
   48.9340   32.5390   39.4140 C   0  0  0  0  0  0  0  0  0  0  0  0
   48.3480   33.4290   38.5140 O   0  0  0  0  0  0  0  0  0  0  0  0
   47.8160   33.0620   37.3030 C   0  0  0  0  0  0  0  0  0  0  0  0
   48.4570   33.2260   36.1040 C   0  0  0  0  0  0  0  0  0  0  0  0
   47.6200   32.7490   35.1630 N   0  0  0  0  0  0  0  0  0  0  0  0
   46.4890   32.2990   35.7470 C   0  0  0  0  0  0  0  0  0  0  0  0
   45.3830   31.7370   35.1580 C   0  0  0  0  0  0  0  0  0  0  0  0
   44.3550   31.3620   36.0120 C   0  0  0  0  0  0  0  0  0  0  0  0
   44.4500   31.5480   37.3770 C   0  0  0  0  0  0  0  0  0  0  0  0
   45.5620   32.1090   37.9240 C   0  0  0  0  0  0  0  0  0  0  0  0
   46.5910   32.4870   37.0950 C   0  0  0  0  0  0  0  0  0  0  0  0
   46.4512   35.7234   41.3375 H   0  0  0  0  0  0  0  0  0  0  0  0
   49.1073   36.4191   41.8304 H   0  0  0  0  0  0  0  0  0  0  0  0
   49.2890   35.2848   42.8788 H   0  0  0  0  0  0  0  0  0  0  0  0
   48.6231   34.5264   39.6455 H   0  0  0  0  0  0  0  0  0  0  0  0
   46.3823   32.2397   45.0945 H   0  0  0  0  0  0  0  0  0  0  0  0
   47.8754   33.8607   43.9412 H   0  0  0  0  0  0  0  0  0  0  0  0
   42.3458   30.9925   43.0292 H   0  0  0  0  0  0  0  0  0  0  0  0
   39.9386   32.6249   38.8936 H   0  0  0  0  0  0  0  0  0  0  0  0
   43.1737   35.2989   38.1880 H   0  0  0  0  0  0  0  0  0  0  0  0
   50.0599   33.2417   41.1224 H   0  0  0  0  0  0  0  0  0  0  0  0
   48.4309   32.5938   41.5169 H   0  0  0  0  0  0  0  0  0  0  0  0
   49.9481   32.2852   39.0717 H   0  0  0  0  0  0  0  0  0  0  0  0
   48.3280   31.6229   39.4725 H   0  0  0  0  0  0  0  0  0  0  0  0
   49.4547   33.6600   35.9421 H   0  0  0  0  0  0  0  0  0  0  0  0
   47.8133   32.7303   34.1515 H   0  0  0  0  0  0  0  0  0  0  0  0
   45.3155   31.5920   34.0697 H   0  0  0  0  0  0  0  0  0  0  0  0
   43.4455   30.9071   35.5926 H   0  0  0  0  0  0  0  0  0  0  0  0
   43.6187   31.2397   38.0281 H   0  0  0  0  0  0  0  0  0  0  0  0
   45.6364   32.2576   39.0114 H   0  0  0  0  0  0  0  0  0  0  0  0
  1  2  1  0
  1  6  1  0
  3 19  1  0
  3  1  1  0
  3  2  1  0
  5  4  2  0
  6  5  1  0
  7  6  2  0
  7  8  1  0
  8  9  2  0
  9  4  1  0
 10 11  1  0
 10  8  1  0
 12 11  2  0
 13 18  2  0
 13 12  1  0
 14 13  1  0
 15 16  1  0
 15 14  2  0
 16 17  2  0
 17 18  1  0
 18 10  1  0
 20 19  1  0
 21 20  1  0
 22 21  1  0
 23 22  2  0
 24 25  1  0
 24 23  1  0
 25 30  2  0
 26 25  1  0
 26 27  2  0
 27 28  1  0
 28 29  2  0
 30 22  1  0
 30 29  1  0
  1 31  1  6
  2 32  1  0
  2 33  1  0
  3 34  1  6
  4 35  1  0
  5 36  1  0
 11 37  1  0
 14 38  1  0
 16 39  1  0
 19 40  1  0
 19 41  1  0
 20 42  1  0
 20 43  1  0
 23 44  1  0
 24 45  1  0
 26 46  1  0
 27 47  1  0
 28 48  1  0
 29 49  1  0
M  ISO  8  31  13  32  13  33  13  34  13  35  14  36  14  37  14  38  14
M  ISO  8  39  14  40   8  41   8  42   8  43   8  44  14  45   9  46  14
M  ISO  3  47  14  48  14  49  14
M  END
>  <minimizedAffinity>  (1) 
-5.54294443

>  <minimizedRMSD>  (1) 
6.34673262

$$$$
