
     RDKit          3D

 51 55  0  0  1  0  0  0  0  0999 V2000
   44.5760   35.4720   45.3370 C   0  0  0  0  0  0  0  0  0  0  0  0
   44.4770   35.2210   43.9680 C   0  0  0  0  0  0  0  0  0  0  0  0
   44.9550   34.0080   43.4820 C   0  0  0  0  0  0  0  0  0  0  0  0
   45.4940   33.1150   44.3340 N   0  0  0  0  0  0  0  0  0  0  0  0
   45.5750   33.3940   45.6710 C   0  0  0  0  0  0  0  0  0  0  0  0
   45.1180   34.5690   46.1830 N   0  0  0  0  0  0  0  0  0  0  0  0
   46.1700   32.3890   46.4840 N   0  0  0  0  0  0  0  0  0  0  0  0
   46.4850   32.4170   47.8220 C   0  0  0  0  0  0  0  0  0  0  0  0
   47.0340   31.2490   48.1450 N   0  0  0  0  0  0  0  0  0  0  0  0
   47.0910   30.4430   47.0510 C   0  0  0  0  0  0  0  0  0  0  0  0
   47.5610   29.1550   46.8570 C   0  0  0  0  0  0  0  0  0  0  0  0
   47.4600   28.6580   45.6230 N   0  0  0  0  0  0  0  0  0  0  0  0
   46.9190   29.3940   44.6200 C   0  0  0  0  0  0  0  0  0  0  0  0
   46.4590   30.6520   44.7980 N   0  0  0  0  0  0  0  0  0  0  0  0
   46.5420   31.1830   46.0170 C   0  0  0  0  0  0  0  0  0  0  0  0
   44.8990   33.6670   42.0420 C   0  0  1  0  0  0  0  0  0  0  0  0
   44.7330   34.7090   41.0110 C   0  0  0  0  0  0  0  0  0  0  0  0
   46.0720   34.0350   41.2000 C   0  0  1  0  0  0  0  0  0  0  0  0
   47.1720   34.9250   41.5590 C   0  0  0  0  0  0  0  0  0  0  0  0
   48.3060   34.7610   40.5380 C   0  0  0  0  0  0  0  0  0  0  0  0
   48.5410   33.4180   40.3090 O   0  0  0  0  0  0  0  0  0  0  0  0
   48.5600   33.0500   38.9800 C   0  0  0  0  0  0  0  0  0  0  0  0
   47.7100   31.8610   38.6630 C   0  0  0  0  0  0  0  0  0  0  0  0
   48.3000   31.3100   37.3610 C   0  0  0  0  0  0  0  0  0  0  0  0
   48.2360   32.3150   36.2560 C   0  0  0  0  0  0  0  0  0  0  0  0
   48.4830   33.7170   36.6320 C   0  0  0  0  0  0  0  0  0  0  0  0
   48.1810   34.1330   38.0240 C   0  0  0  0  0  0  0  0  0  0  0  0
   44.2042   36.4271   45.7365 H   0  0  0  0  0  0  0  0  0  0  0  0
   44.0320   35.9638   43.2896 H   0  0  0  0  0  0  0  0  0  0  0  0
   46.3128   33.2600   48.5074 H   0  0  0  0  0  0  0  0  0  0  0  0
   47.9965   28.5700   47.6804 H   0  0  0  0  0  0  0  0  0  0  0  0
   46.8518   28.9468   43.6172 H   0  0  0  0  0  0  0  0  0  0  0  0
   44.3439   32.7449   42.2691 H   0  0  0  0  0  0  0  0  0  0  0  0
   44.5991   35.7599   41.3071 H   0  0  0  0  0  0  0  0  0  0  0  0
   44.0514   34.8622   40.1614 H   0  0  0  0  0  0  0  0  0  0  0  0
   46.7928   33.4013   40.6625 H   0  0  0  0  0  0  0  0  0  0  0  0
   46.8194   35.9669   41.5533 H   0  0  0  0  0  0  0  0  0  0  0  0
   47.5397   34.6719   42.5643 H   0  0  0  0  0  0  0  0  0  0  0  0
   48.0202   35.2477   39.5938 H   0  0  0  0  0  0  0  0  0  0  0  0
   49.2205   35.2268   40.9338 H   0  0  0  0  0  0  0  0  0  0  0  0
   49.6218   32.7998   38.8383 H   0  0  0  0  0  0  0  0  0  0  0  0
   47.7721   31.1123   39.4665 H   0  0  0  0  0  0  0  0  0  0  0  0
   46.6453   32.1196   38.5655 H   0  0  0  0  0  0  0  0  0  0  0  0
   49.3514   31.0366   37.5337 H   0  0  0  0  0  0  0  0  0  0  0  0
   47.7086   30.4324   37.0610 H   0  0  0  0  0  0  0  0  0  0  0  0
   47.2316   32.2597   35.8109 H   0  0  0  0  0  0  0  0  0  0  0  0
   49.0532   32.0478   35.5699 H   0  0  0  0  0  0  0  0  0  0  0  0
   49.5498   33.9190   36.4553 H   0  0  0  0  0  0  0  0  0  0  0  0
   47.7768   34.2930   36.0160 H   0  0  0  0  0  0  0  0  0  0  0  0
   48.7500   35.0437   38.2626 H   0  0  0  0  0  0  0  0  0  0  0  0
   47.1024   34.3296   38.1137 H   0  0  0  0  0  0  0  0  0  0  0  0
  1  6  2  0
  2  1  1  0
  3  2  2  0
  3  4  1  0
  4  5  2  0
  5  6  1  0
  5  7  1  0
  7  8  1  0
  8  9  2  0
 10  9  1  0
 11 10  2  0
 12 11  1  0
 13 14  1  0
 13 12  2  0
 14 15  2  0
 15  7  1  0
 15 10  1  0
 16  3  1  0
 17 18  1  0
 17 16  1  0
 18 19  1  0
 18 16  1  0
 20 19  1  0
 21 20  1  0
 22 21  1  0
 23 22  1  0
 24 23  1  0
 25 26  1  0
 25 24  1  0
 26 27  1  0
 27 22  1  0
  1 28  1  0
  2 29  1  0
  8 30  1  0
 11 31  1  0
 13 32  1  0
 16 33  1  1
 17 34  1  0
 17 35  1  0
 18 36  1  6
 19 37  1  0
 19 38  1  0
 20 39  1  0
 20 40  1  0
 22 41  1  0
 23 42  1  0
 23 43  1  0
 24 44  1  0
 24 45  1  0
 25 46  1  0
 25 47  1  0
 26 48  1  0
 26 49  1  0
 27 50  1  0
 27 51  1  0
M  ISO  8  28  14  29  14  30  14  31  14  32  14  33  13  34  13  35  13
M  ISO  8  36  13  37   8  38   8  39   8  40   8  41  13  42  13  43  13
M  ISO  8  44  13  45  13  46  13  47  13  48  13  49  13  50  13  51  13
M  END
>  <minimizedAffinity>  (1) 
-5.260921

>  <minimizedRMSD>  (1) 
1.8117857

$$$$
