
     RDKit          3D

 39 42  0  0  1  0  0  0  0  0999 V2000
   44.5520   35.6650   44.8440 C   0  0  0  0  0  0  0  0  0  0  0  0
   44.4200   35.2940   43.5050 C   0  0  0  0  0  0  0  0  0  0  0  0
   44.8180   34.0140   43.1350 C   0  0  0  0  0  0  0  0  0  0  0  0
   45.3140   33.1750   44.0590 N   0  0  0  0  0  0  0  0  0  0  0  0
   45.4310   33.5710   45.3630 C   0  0  0  0  0  0  0  0  0  0  0  0
   45.0530   34.8140   45.7680 N   0  0  0  0  0  0  0  0  0  0  0  0
   45.9830   32.6090   46.2610 N   0  0  0  0  0  0  0  0  0  0  0  0
   46.3130   32.7430   47.5760 C   0  0  0  0  0  0  0  0  0  0  0  0
   46.8020   31.5710   48.0010 N   0  0  0  0  0  0  0  0  0  0  0  0
   46.8000   30.6640   46.9890 C   0  0  0  0  0  0  0  0  0  0  0  0
   47.1980   29.3430   46.9240 C   0  0  0  0  0  0  0  0  0  0  0  0
   47.0480   28.7490   45.7320 N   0  0  0  0  0  0  0  0  0  0  0  0
   46.5390   29.4200   44.6770 C   0  0  0  0  0  0  0  0  0  0  0  0
   46.1490   30.7080   44.7340 N   0  0  0  0  0  0  0  0  0  0  0  0
   46.2790   31.3440   45.9020 C   0  0  0  0  0  0  0  0  0  0  0  0
   44.7230   33.5550   41.7300 C   0  0  1  0  0  0  0  0  0  0  0  0
   44.5850   34.4940   40.6080 C   0  0  0  0  0  0  0  0  0  0  0  0
   45.8980   33.7780   40.8410 C   0  0  1  0  0  0  0  0  0  0  0  0
   47.0420   34.6450   41.1010 C   0  0  0  0  0  0  0  0  0  0  0  0
   48.1360   34.3600   40.0680 C   0  0  0  0  0  0  0  0  0  0  0  0
   47.5950   33.6460   38.9990 O   0  0  0  0  0  0  0  0  0  0  0  0
   48.2230   33.7270   37.7560 C   0  0  0  0  0  0  0  0  0  0  0  0
   47.5670   34.6120   36.8260 N   0  0  0  0  0  0  0  0  0  0  0  0
   49.2740   33.0360   37.5760 O   0  0  0  0  0  0  0  0  0  0  0  0
   44.2412   36.6733   45.1551 H   0  0  0  0  0  0  0  0  0  0  0  0
   44.0121   35.9954   42.7623 H   0  0  0  0  0  0  0  0  0  0  0  0
   46.1980   33.6537   48.1821 H   0  0  0  0  0  0  0  0  0  0  0  0
   47.6115   28.8126   47.7945 H   0  0  0  0  0  0  0  0  0  0  0  0
   46.4374   28.8868   43.7203 H   0  0  0  0  0  0  0  0  0  0  0  0
   44.1256   32.6900   42.0540 H   0  0  0  0  0  0  0  0  0  0  0  0
   44.5054   35.5740   40.8010 H   0  0  0  0  0  0  0  0  0  0  0  0
   43.8938   34.5952   39.7583 H   0  0  0  0  0  0  0  0  0  0  0  0
   46.5782   33.0620   40.3566 H   0  0  0  0  0  0  0  0  0  0  0  0
   46.7305   35.6973   41.0259 H   0  0  0  0  0  0  0  0  0  0  0  0
   47.4296   34.4516   42.1121 H   0  0  0  0  0  0  0  0  0  0  0  0
   48.5499   35.3109   39.7012 H   0  0  0  0  0  0  0  0  0  0  0  0
   48.9354   33.7670   40.5364 H   0  0  0  0  0  0  0  0  0  0  0  0
   47.9521   34.7418   35.8796 H   0  0  0  0  0  0  0  0  0  0  0  0
   46.7132   35.1145   37.1080 H   0  0  0  0  0  0  0  0  0  0  0  0
  1  6  2  0
  2  1  1  0
  3  2  2  0
  3  4  1  0
  4  5  2  0
  5  6  1  0
  5  7  1  0
  7  8  1  0
  8  9  2  0
 10  9  1  0
 11 10  2  0
 12 11  1  0
 13 14  1  0
 13 12  2  0
 14 15  2  0
 15  7  1  0
 15 10  1  0
 16  3  1  0
 17 18  1  0
 17 16  1  0
 18 19  1  0
 18 16  1  0
 20 19  1  0
 21 20  1  0
 22 21  1  0
 23 22  1  0
 24 22  2  0
  1 25  1  0
  2 26  1  0
  8 27  1  0
 11 28  1  0
 13 29  1  0
 16 30  1  1
 17 31  1  0
 17 32  1  0
 18 33  1  6
 19 34  1  0
 19 35  1  0
 20 36  1  0
 20 37  1  0
 23 38  1  0
 23 39  1  0
M  ISO  8  25  14  26  14  27  14  28  14  29  14  30  13  31  13  32  13
M  ISO  5  33  13  34   8  35   8  36   8  37   8
M  END
>  <minimizedAffinity>  (1) 
-5.22660828

>  <minimizedRMSD>  (1) 
1.41276515

$$$$
