
     RDKit          3D

 20 20  0  0  0  0  0  0  0  0999 V2000
   46.1210   33.8310   44.7710 C   0  0  0  0  0  0  0  0  0  0  0  0
   46.6100   34.2710   43.5220 C   0  0  0  0  0  0  0  0  0  0  0  0
   46.0230   35.3990   42.9340 C   0  0  0  0  0  0  0  0  0  0  0  0
   45.0020   36.0140   43.6110 N   0  0  0  0  0  0  0  0  0  0  0  0
   44.5690   35.5540   44.8050 C   0  0  0  0  0  0  0  0  0  0  0  0
   45.1140   34.4800   45.3840 N   0  0  0  0  0  0  0  0  0  0  0  0
   46.7790   32.6200   45.3600 C   0  0  0  0  0  0  0  0  0  0  0  0
   45.9970   31.3630   45.0660 C   0  0  0  0  0  0  0  0  0  0  0  0
   46.7340   32.8200   46.8730 C   0  0  0  0  0  0  0  0  0  0  0  0
   47.9600   33.4010   42.7010 S   0  0  0  0  0  0  0  0  0  0  0  0
   46.3698   35.7785   41.9615 H   0  0  0  0  0  0  0  0  0  0  0  0
   43.7462   36.0772   45.3141 H   0  0  0  0  0  0  0  0  0  0  0  0
   47.7922   32.5110   44.9459 H   0  0  0  0  0  0  0  0  0  0  0  0
   45.7003   30.8861   46.0118 H   0  0  0  0  0  0  0  0  0  0  0  0
   45.0978   31.6178   44.4860 H   0  0  0  0  0  0  0  0  0  0  0  0
   46.6230   30.6690   44.4860 H   0  0  0  0  0  0  0  0  0  0  0  0
   46.9488   31.8654   47.3756 H   0  0  0  0  0  0  0  0  0  0  0  0
   47.4866   33.5665   47.1667 H   0  0  0  0  0  0  0  0  0  0  0  0
   45.7342   33.1722   47.1667 H   0  0  0  0  0  0  0  0  0  0  0  0
   48.7960   32.8623   43.6432 H   0  0  0  0  0  0  0  0  0  0  0  0
  1  7  1  0
  1  6  2  0
  2  1  1  0
  3  2  2  0
  3  4  1  0
  4  5  2  0
  5  6  1  0
  7  9  1  0
  8  7  1  0
 10  2  1  0
  3 11  1  0
  5 12  1  0
  7 13  1  0
  8 14  1  0
  8 15  1  0
  8 16  1  0
  9 17  1  0
  9 18  1  0
  9 19  1  0
 10 20  1  0
M  ISO  8  11  14  12  14  13   8  14   8  15   8  16   8  17   8  18   8
M  ISO  2  19   8  20  11
M  END
>  <minimizedAffinity>  (1) 
-3.35283136

>  <minimizedRMSD>  (1) 
4.08816671

$$$$
