
     RDKit          3D

 13 13  0  0  0  0  0  0  0  0999 V2000
   45.7340   33.9740   45.0840 C   0  0  0  0  0  0  0  0  0  0  0  0
   46.4020   34.0480   43.8460 C   0  0  0  0  0  0  0  0  0  0  0  0
   46.1240   35.1030   42.9790 C   0  0  0  0  0  0  0  0  0  0  0  0
   45.1890   36.0350   43.3900 N   0  0  0  0  0  0  0  0  0  0  0  0
   44.5770   35.9210   44.5830 C   0  0  0  0  0  0  0  0  0  0  0  0
   44.8340   34.9120   45.4280 N   0  0  0  0  0  0  0  0  0  0  0  0
   46.0700   32.8470   45.9460 C   0  0  0  0  0  0  0  0  0  0  0  0
   46.8770   32.9590   46.9280 O   0  0  0  0  0  0  0  0  0  0  0  0
   47.6120   32.8010   43.3690 S   0  0  0  0  0  0  0  0  0  0  0  0
   46.6287   35.1909   42.0056 H   0  0  0  0  0  0  0  0  0  0  0  0
   43.8394   36.6828   44.8755 H   0  0  0  0  0  0  0  0  0  0  0  0
   45.6125   31.8675   45.7429 H   0  0  0  0  0  0  0  0  0  0  0  0
   48.1568   32.2396   44.4937 H   0  0  0  0  0  0  0  0  0  0  0  0
  1  6  2  0
  1  7  1  0
  2  1  1  0
  3  4  1  0
  3  2  2  0
  4  5  2  0
  5  6  1  0
  7  8  2  0
  9  2  1  0
  3 10  1  0
  5 11  1  0
  7 12  1  0
  9 13  1  0
M  ISO  4  10  14  11  14  12   6  13  11
M  END
>  <minimizedAffinity>  (1) 
-3.2434907

>  <minimizedRMSD>  (1) 
3.72291565

$$$$
