
     RDKit          3D

 14 14  0  0  0  0  0  0  0  0999 V2000
   45.1970   35.1200   44.1210 C   0  0  0  0  0  0  0  0  0  0  0  0
   45.7010   34.1170   43.2630 C   0  0  0  0  0  0  0  0  0  0  0  0
   46.0800   32.9000   43.8150 C   0  0  0  0  0  0  0  0  0  0  0  0
   45.9490   32.7200   45.1600 N   0  0  0  0  0  0  0  0  0  0  0  0
   45.4580   33.7140   45.9500 C   0  0  0  0  0  0  0  0  0  0  0  0
   45.0850   34.8970   45.4520 N   0  0  0  0  0  0  0  0  0  0  0  0
   45.8480   34.4200   41.4930 S   0  0  0  0  0  0  0  0  0  0  0  0
   44.7870   36.4290   43.5520 C   0  0  0  0  0  0  0  0  0  0  0  0
   46.4785   32.0962   43.1786 H   0  0  0  0  0  0  0  0  0  0  0  0
   45.3653   33.5381   47.0319 H   0  0  0  0  0  0  0  0  0  0  0  0
   46.4391   35.6384   41.2858 H   0  0  0  0  0  0  0  0  0  0  0  0
   44.5670   37.1314   44.3695 H   0  0  0  0  0  0  0  0  0  0  0  0
   45.6022   36.8311   42.9325 H   0  0  0  0  0  0  0  0  0  0  0  0
   43.8881   36.2941   42.9325 H   0  0  0  0  0  0  0  0  0  0  0  0
  1  6  2  0
  2  3  2  0
  2  1  1  0
  3  4  1  0
  4  5  2  0
  6  5  1  0
  7  2  1  0
  8  1  1  0
  3  9  1  0
  5 10  1  0
  7 11  1  0
  8 12  1  0
  8 13  1  0
  8 14  1  0
M  ISO  6   9  14  10  14  11  11  12   8  13   8  14   8
M  END
>  <minimizedAffinity>  (1) 
-2.54809046

>  <minimizedRMSD>  (1) 
1.26137018

$$$$
