
     RDKit          3D

 14 14  0  0  0  0  0  0  0  0999 V2000
   46.4440   34.3490   43.5250 C   0  0  0  0  0  0  0  0  0  0  0  0
   45.9180   34.0750   44.8030 C   0  0  0  0  0  0  0  0  0  0  0  0
   44.9150   34.9090   45.3060 C   0  0  0  0  0  0  0  0  0  0  0  0
   44.4790   35.9680   44.5340 N   0  0  0  0  0  0  0  0  0  0  0  0
   45.0290   36.1740   43.3120 C   0  0  0  0  0  0  0  0  0  0  0  0
   45.9960   35.3850   42.8050 N   0  0  0  0  0  0  0  0  0  0  0  0
   46.5060   32.6890   45.7840 S   0  0  0  0  0  0  0  0  0  0  0  0
   47.4890   33.4560   43.0360 C   0  0  0  0  0  0  0  0  0  0  0  0
   48.6860   33.7650   43.1720 O   0  0  0  0  0  0  0  0  0  0  0  0
   47.1880   32.2650   42.4210 O   0  0  0  0  0  0  0  0  0  0  0  0
   44.4805   34.7249   46.2996 H   0  0  0  0  0  0  0  0  0  0  0  0
   44.6704   37.0213   42.7090 H   0  0  0  0  0  0  0  0  0  0  0  0
   46.3800   32.9859   47.1155 H   0  0  0  0  0  0  0  0  0  0  0  0
   46.2432   31.9952   42.3002 H   0  0  0  0  0  0  0  0  0  0  0  0
  1  2  2  0
  2  3  1  0
  2  7  1  0
  4  3  2  0
  5  4  1  0
  6  5  2  0
  6  1  1  0
  8  9  2  0
  8  1  1  0
 10  8  1  0
  3 11  1  0
  5 12  1  0
  7 13  1  0
 10 14  1  0
M  ISO  4  11  14  12  14  13  11  14   3
M  END
>  <minimizedAffinity>  (1) 
-3.22365117

>  <minimizedRMSD>  (1) 
4.39861393

$$$$
