
     RDKit          3D

 49 52  0  0  1  0  0  0  0  0999 V2000
   45.5850   34.8170   42.5910 C   0  0  2  0  0  0  0  0  0  0  0  0
   44.6680   35.2680   44.9440 C   0  0  0  0  0  0  0  0  0  0  0  0
   45.4440   34.4830   44.0230 C   0  0  0  0  0  0  0  0  0  0  0  0
   46.0730   33.3580   44.5800 C   0  0  0  0  0  0  0  0  0  0  0  0
   45.8960   33.1200   45.9050 N   0  0  0  0  0  0  0  0  0  0  0  0
   45.1660   33.8770   46.7270 C   0  0  0  0  0  0  0  0  0  0  0  0
   44.5320   34.9850   46.2280 N   0  0  0  0  0  0  0  0  0  0  0  0
   46.8680   35.6100   42.4700 C   0  0  0  0  0  0  0  0  0  0  0  0
   47.8470   35.0740   41.5820 N   0  0  0  0  0  0  0  0  0  0  0  0
   49.1550   35.2170   42.1450 C   0  0  0  0  0  0  0  0  0  0  0  0
   49.9810   34.0030   42.2150 C   0  0  0  0  0  0  0  0  0  0  0  0
   49.1030   32.9710   42.6080 O   0  0  0  0  0  0  0  0  0  0  0  0
   48.3950   32.6910   41.4520 C   0  0  0  0  0  0  0  0  0  0  0  0
   47.6210   33.8790   40.9130 C   0  0  2  0  0  0  0  0  0  0  0  0
   48.1600   34.1190   39.4870 C   0  0  0  0  0  0  0  0  0  0  0  0
   44.4130   35.5250   42.0980 C   0  0  0  0  0  0  0  0  0  0  0  0
   43.6080   34.9590   41.0120 C   0  0  0  0  0  0  0  0  0  0  0  0
   44.1020   34.0410   40.0710 C   0  0  0  0  0  0  0  0  0  0  0  0
   43.1680   33.6640   39.1740 N   0  0  0  0  0  0  0  0  0  0  0  0
   42.0300   34.3120   39.4840 C   0  0  0  0  0  0  0  0  0  0  0  0
   40.7780   34.3050   38.9080 C   0  0  0  0  0  0  0  0  0  0  0  0
   39.7960   35.0980   39.4690 C   0  0  0  0  0  0  0  0  0  0  0  0
   40.0500   35.8900   40.5850 C   0  0  0  0  0  0  0  0  0  0  0  0
   41.3190   35.8920   41.1610 C   0  0  0  0  0  0  0  0  0  0  0  0
   42.3020   35.0900   40.5900 C   0  0  0  0  0  0  0  0  0  0  0  0
   45.6456   33.9181   41.9600 H   0  0  0  0  0  0  0  0  0  0  0  0
   44.1551   36.1603   44.5558 H   0  0  0  0  0  0  0  0  0  0  0  0
   46.6904   32.6898   43.9617 H   0  0  0  0  0  0  0  0  0  0  0  0
   45.0744   33.6149   47.7914 H   0  0  0  0  0  0  0  0  0  0  0  0
   46.6091   36.6193   42.1176 H   0  0  0  0  0  0  0  0  0  0  0  0
   47.3275   35.5895   43.4692 H   0  0  0  0  0  0  0  0  0  0  0  0
   49.6996   35.9560   41.5389 H   0  0  0  0  0  0  0  0  0  0  0  0
   48.9881   35.5133   43.1911 H   0  0  0  0  0  0  0  0  0  0  0  0
   50.4205   33.7800   41.2316 H   0  0  0  0  0  0  0  0  0  0  0  0
   50.8166   34.1184   42.9210 H   0  0  0  0  0  0  0  0  0  0  0  0
   49.1055   32.3594   40.6804 H   0  0  0  0  0  0  0  0  0  0  0  0
   47.6592   31.9132   41.7040 H   0  0  0  0  0  0  0  0  0  0  0  0
   46.5522   33.6351   41.0037 H   0  0  0  0  0  0  0  0  0  0  0  0
   49.1635   34.5658   39.5447 H   0  0  0  0  0  0  0  0  0  0  0  0
   48.2157   33.1606   38.9499 H   0  0  0  0  0  0  0  0  0  0  0  0
   47.4850   34.8016   38.9499 H   0  0  0  0  0  0  0  0  0  0  0  0
   43.7380   35.6548   42.9568 H   0  0  0  0  0  0  0  0  0  0  0  0
   44.8420   36.4304   41.6439 H   0  0  0  0  0  0  0  0  0  0  0  0
   45.1375   33.6700   40.0661 H   0  0  0  0  0  0  0  0  0  0  0  0
   43.3011   33.0026   38.3958 H   0  0  0  0  0  0  0  0  0  0  0  0
   40.5663   33.6843   38.0249 H   0  0  0  0  0  0  0  0  0  0  0  0
   38.7902   35.1037   39.0236 H   0  0  0  0  0  0  0  0  0  0  0  0
   39.2504   36.5134   41.0117 H   0  0  0  0  0  0  0  0  0  0  0  0
   41.5376   36.5112   42.0435 H   0  0  0  0  0  0  0  0  0  0  0  0
  1  3  1  0
  2  7  2  0
  3  4  2  0
  3  2  1  0
  4  5  1  0
  5  6  2  0
  7  6  1  0
  8  1  1  0
  9 10  1  0
  9  8  1  0
 10 11  1  0
 11 12  1  0
 13 12  1  0
 14 13  1  0
 14  9  1  0
 15 14  1  0
 16  1  1  0
 17 16  1  0
 18 17  2  0
 19 20  1  0
 19 18  1  0
 20 25  2  0
 21 22  2  0
 21 20  1  0
 22 23  1  0
 23 24  2  0
 25 17  1  0
 25 24  1  0
  1 26  1  6
  2 27  1  0
  4 28  1  0
  6 29  1  0
  8 30  1  0
  8 31  1  0
 10 32  1  0
 10 33  1  0
 11 34  1  0
 11 35  1  0
 13 36  1  0
 13 37  1  0
 14 38  1  6
 15 39  1  0
 15 40  1  0
 15 41  1  0
 16 42  1  0
 16 43  1  0
 18 44  1  0
 19 45  1  0
 21 46  1  0
 22 47  1  0
 23 48  1  0
 24 49  1  0
M  ISO  8  26   8  27  14  28  14  29  14  30   8  31   8  32  13  33  13
M  ISO  8  34  13  35  13  36  13  37  13  38  13  39   8  40   8  41   8
M  ISO  8  42   8  43   8  44  14  45   9  46  14  47  14  48  14  49  14
M  END
>  <minimizedAffinity>  (1) 
-6.30628395

>  <minimizedRMSD>  (1) 
2.5780344

$$$$
