
     RDKit          3D

 35 35  0  0  0  0  0  0  0  0999 V2000
   46.7190   34.7880   41.6320 C   0  0  0  0  0  0  0  0  0  0  0  0
   45.7040   34.0250   41.0110 C   0  0  0  0  0  0  0  0  0  0  0  0
   44.4270   34.1060   41.5180 C   0  0  0  0  0  0  0  0  0  0  0  0
   44.1680   34.8980   42.5870 N   0  0  0  0  0  0  0  0  0  0  0  0
   45.1610   35.6100   43.1560 C   0  0  0  0  0  0  0  0  0  0  0  0
   46.4150   35.5670   42.7000 N   0  0  0  0  0  0  0  0  0  0  0  0
   48.0890   34.6750   41.0200 C   0  0  0  0  0  0  0  0  0  0  0  0
   48.0770   34.4780   39.5540 C   0  0  0  0  0  0  0  0  0  0  0  0
   48.6630   33.4210   41.6650 C   0  0  0  0  0  0  0  0  0  0  0  0
   48.9820   35.8180   41.4740 C   0  0  0  0  0  0  0  0  0  0  0  0
   46.1040   32.9790   39.6680 S   0  0  0  0  0  0  0  0  0  0  0  0
   45.0020   32.8680   38.3190 C   0  0  0  0  0  0  0  0  0  0  0  0
   45.5660   33.1800   36.9570 C   0  0  0  0  0  0  0  0  0  0  0  0
   44.5860   31.3840   38.2030 C   0  0  0  0  0  0  0  0  0  0  0  0
   43.7080   33.6190   38.4620 C   0  0  0  0  0  0  0  0  0  0  0  0
   43.6148   33.5267   41.0546 H   0  0  0  0  0  0  0  0  0  0  0  0
   44.9310   36.2464   44.0232 H   0  0  0  0  0  0  0  0  0  0  0  0
   48.0115   33.4033   39.3290 H   0  0  0  0  0  0  0  0  0  0  0  0
   47.2088   34.9967   39.1214 H   0  0  0  0  0  0  0  0  0  0  0  0
   49.0018   34.8875   39.1214 H   0  0  0  0  0  0  0  0  0  0  0  0
   48.6184   33.5185   42.7598 H   0  0  0  0  0  0  0  0  0  0  0  0
   48.0760   32.5454   41.3506 H   0  0  0  0  0  0  0  0  0  0  0  0
   49.7093   33.2931   41.3506 H   0  0  0  0  0  0  0  0  0  0  0  0
   49.0067   35.8496   42.5733 H   0  0  0  0  0  0  0  0  0  0  0  0
   50.0005   35.6629   41.0887 H   0  0  0  0  0  0  0  0  0  0  0  0
   48.5850   36.7688   41.0887 H   0  0  0  0  0  0  0  0  0  0  0  0
   46.5235   33.7097   37.0692 H   0  0  0  0  0  0  0  0  0  0  0  0
   45.7279   32.2431   36.4038 H   0  0  0  0  0  0  0  0  0  0  0  0
   44.8583   33.8149   36.4038 H   0  0  0  0  0  0  0  0  0  0  0  0
   44.4663   30.9570   39.2096 H   0  0  0  0  0  0  0  0  0  0  0  0
   43.6330   31.3118   37.6584 H   0  0  0  0  0  0  0  0  0  0  0  0
   45.3626   30.8270   37.6584 H   0  0  0  0  0  0  0  0  0  0  0  0
   43.4777   33.7527   39.5293 H   0  0  0  0  0  0  0  0  0  0  0  0
   43.8005   34.6038   37.9807 H   0  0  0  0  0  0  0  0  0  0  0  0
   42.8988   33.0502   37.9807 H   0  0  0  0  0  0  0  0  0  0  0  0
  1  6  2  0
  2  3  2  0
  2  1  1  0
  3  4  1  0
  4  5  2  0
  6  5  1  0
  7 10  1  0
  7  1  1  0
  7  9  1  0
  8  7  1  0
 11  2  1  0
 12 15  1  0
 12 11  1  0
 13 12  1  0
 14 12  1  0
  3 16  1  0
  5 17  1  0
  8 18  1  0
  8 19  1  0
  8 20  1  0
  9 21  1  0
  9 22  1  0
  9 23  1  0
 10 24  1  0
 10 25  1  0
 10 26  1  0
 13 27  1  0
 13 28  1  0
 13 29  1  0
 14 30  1  0
 14 31  1  0
 14 32  1  0
 15 33  1  0
 15 34  1  0
 15 35  1  0
M  ISO  8  16  14  17  14  18   8  19   8  20   8  21   8  22   8  23   8
M  ISO  8  24   8  25   8  26   8  27   8  28   8  29   8  30   8  31   8
M  ISO  4  32   8  33   8  34   8  35   8
M  END
>  <minimizedAffinity>  (1) 
-4.03720236

>  <minimizedRMSD>  (1) 
0.64301157

$$$$
