
     RDKit          3D

 32 32  0  0  0  0  0  0  0  0999 V2000
   48.1180   34.6990   41.0320 C   0  0  0  0  0  0  0  0  0  0  0  0
   46.7350   34.8120   41.6110 C   0  0  0  0  0  0  0  0  0  0  0  0
   45.7410   34.0710   40.9360 C   0  0  0  0  0  0  0  0  0  0  0  0
   44.4370   34.1300   41.4050 C   0  0  0  0  0  0  0  0  0  0  0  0
   44.1530   34.8920   42.4930 N   0  0  0  0  0  0  0  0  0  0  0  0
   45.1350   35.5840   43.1120 C   0  0  0  0  0  0  0  0  0  0  0  0
   46.3980   35.5550   42.6930 N   0  0  0  0  0  0  0  0  0  0  0  0
   46.1610   33.0750   39.5460 S   0  0  0  0  0  0  0  0  0  0  0  0
   44.9450   33.0490   38.2430 C   0  0  0  0  0  0  0  0  0  0  0  0
   45.4940   33.1750   36.8660 C   0  0  0  0  0  0  0  0  0  0  0  0
   44.2250   31.6970   38.3320 C   0  0  0  0  0  0  0  0  0  0  0  0
   48.1530   34.4940   39.5710 C   0  0  0  0  0  0  0  0  0  0  0  0
   48.6840   33.4560   41.7050 C   0  0  0  0  0  0  0  0  0  0  0  0
   48.9980   35.8440   41.5120 C   0  0  0  0  0  0  0  0  0  0  0  0
   43.6398   33.5646   40.9002 H   0  0  0  0  0  0  0  0  0  0  0  0
   44.8817   36.1924   43.9927 H   0  0  0  0  0  0  0  0  0  0  0  0
   44.2946   33.9229   38.3956 H   0  0  0  0  0  0  0  0  0  0  0  0
   46.5649   33.4208   36.9193 H   0  0  0  0  0  0  0  0  0  0  0  0
   45.3624   32.2233   36.3303 H   0  0  0  0  0  0  0  0  0  0  0  0
   44.9606   33.9741   36.3303 H   0  0  0  0  0  0  0  0  0  0  0  0
   44.0812   31.4270   39.3886 H   0  0  0  0  0  0  0  0  0  0  0  0
   43.2461   31.7695   37.8356 H   0  0  0  0  0  0  0  0  0  0  0  0
   44.8315   30.9252   37.8356 H   0  0  0  0  0  0  0  0  0  0  0  0
   48.3345   33.4310   39.3541 H   0  0  0  0  0  0  0  0  0  0  0  0
   47.1900   34.7980   39.1349 H   0  0  0  0  0  0  0  0  0  0  0  0
   48.9606   35.1003   39.1349 H   0  0  0  0  0  0  0  0  0  0  0  0
   48.6303   33.5739   42.7974 H   0  0  0  0  0  0  0  0  0  0  0  0
   48.0979   32.5759   41.4019 H   0  0  0  0  0  0  0  0  0  0  0  0
   49.7327   33.3203   41.4019 H   0  0  0  0  0  0  0  0  0  0  0  0
   49.0107   35.8605   42.6118 H   0  0  0  0  0  0  0  0  0  0  0  0
   50.0218   35.7023   41.1356 H   0  0  0  0  0  0  0  0  0  0  0  0
   48.5976   36.7969   41.1356 H   0  0  0  0  0  0  0  0  0  0  0  0
  1 14  1  0
  1  2  1  0
  1 13  1  0
  2  7  2  0
  3  4  2  0
  3  2  1  0
  4  5  1  0
  5  6  2  0
  7  6  1  0
  8  3  1  0
  9 11  1  0
  9  8  1  0
 10  9  1  0
 12  1  1  0
  4 15  1  0
  6 16  1  0
  9 17  1  0
 10 18  1  0
 10 19  1  0
 10 20  1  0
 11 21  1  0
 11 22  1  0
 11 23  1  0
 12 24  1  0
 12 25  1  0
 12 26  1  0
 13 27  1  0
 13 28  1  0
 13 29  1  0
 14 30  1  0
 14 31  1  0
 14 32  1  0
M  ISO  8  15  14  16  14  17   8  18   8  19   8  20   8  21   8  22   8
M  ISO  8  23   8  24   8  25   8  26   8  27   8  28   8  29   8  30   8
M  ISO  2  31   8  32   8
M  END
>  <minimizedAffinity>  (1) 
-3.91587043

>  <minimizedRMSD>  (1) 
0.635462284

$$$$
