
     RDKit          3D

 26 26  0  0  0  0  0  0  0  0999 V2000
   46.7140   34.8650   41.6760 C   0  0  0  0  0  0  0  0  0  0  0  0
   45.6930   34.1900   40.9450 C   0  0  0  0  0  0  0  0  0  0  0  0
   44.3830   34.3200   41.3980 C   0  0  0  0  0  0  0  0  0  0  0  0
   44.1190   35.0790   42.5140 N   0  0  0  0  0  0  0  0  0  0  0  0
   45.1410   35.6880   43.1570 C   0  0  0  0  0  0  0  0  0  0  0  0
   46.4070   35.5990   42.7680 N   0  0  0  0  0  0  0  0  0  0  0  0
   48.0870   34.6930   41.0920 C   0  0  0  0  0  0  0  0  0  0  0  0
   48.1280   34.5210   39.6080 C   0  0  0  0  0  0  0  0  0  0  0  0
   48.5990   33.4280   41.7290 C   0  0  0  0  0  0  0  0  0  0  0  0
   49.0010   35.8280   41.5390 C   0  0  0  0  0  0  0  0  0  0  0  0
   46.0540   33.2290   39.5300 S   0  0  0  0  0  0  0  0  0  0  0  0
   46.1230   31.4680   39.7360 C   0  0  0  0  0  0  0  0  0  0  0  0
   47.4160   30.9650   39.6390 F   0  0  0  0  0  0  0  0  0  0  0  0
   45.7000   31.1200   41.0300 F   0  0  0  0  0  0  0  0  0  0  0  0
   45.3440   30.7270   38.8840 F   0  0  0  0  0  0  0  0  0  0  0  0
   43.5622   33.8175   40.8653 H   0  0  0  0  0  0  0  0  0  0  0  0
   44.9111   36.2887   44.0493 H   0  0  0  0  0  0  0  0  0  0  0  0
   48.3768   33.4771   39.3666 H   0  0  0  0  0  0  0  0  0  0  0  0
   47.1450   34.7714   39.1826 H   0  0  0  0  0  0  0  0  0  0  0  0
   48.8923   35.1879   39.1826 H   0  0  0  0  0  0  0  0  0  0  0  0
   48.5591   33.5266   42.8238 H   0  0  0  0  0  0  0  0  0  0  0  0
   47.9734   32.5797   41.4142 H   0  0  0  0  0  0  0  0  0  0  0  0
   49.6385   33.2537   41.4142 H   0  0  0  0  0  0  0  0  0  0  0  0
   49.0301   35.8641   42.6380 H   0  0  0  0  0  0  0  0  0  0  0  0
   50.0158   35.6561   41.1508 H   0  0  0  0  0  0  0  0  0  0  0  0
   48.6167   36.7828   41.1508 H   0  0  0  0  0  0  0  0  0  0  0  0
  1  6  2  0
  2  3  2  0
  2  1  1  0
  3  4  1  0
  4  5  2  0
  6  5  1  0
  7 10  1  0
  7  1  1  0
  7  9  1  0
  8  7  1  0
 11 12  1  0
 11  2  1  0
 12 14  1  0
 13 12  1  0
 15 12  1  0
  3 16  1  0
  5 17  1  0
  8 18  1  0
  8 19  1  0
  8 20  1  0
  9 21  1  0
  9 22  1  0
  9 23  1  0
 10 24  1  0
 10 25  1  0
 10 26  1  0
M  ISO  8  16  14  17  14  18   8  19   8  20   8  21   8  22   8  23   8
M  ISO  3  24   8  25   8  26   8
M  END
>  <minimizedAffinity>  (1) 
-3.68357086

>  <minimizedRMSD>  (1) 
0.280583054

$$$$
