
     RDKit          3D

 49 52  0  0  1  0  0  0  0  0999 V2000
   45.4180   34.5310   42.1710 C   0  0  2  0  0  0  0  0  0  0  0  0
   44.6380   35.4590   44.4170 C   0  0  0  0  0  0  0  0  0  0  0  0
   45.2840   34.4390   43.6380 C   0  0  0  0  0  0  0  0  0  0  0  0
   45.7790   33.3500   44.3400 C   0  0  0  0  0  0  0  0  0  0  0  0
   45.6180   33.3300   45.6950 N   0  0  0  0  0  0  0  0  0  0  0  0
   45.0160   34.2870   46.3970 C   0  0  0  0  0  0  0  0  0  0  0  0
   44.5080   35.3890   45.7410 N   0  0  0  0  0  0  0  0  0  0  0  0
   46.6220   35.4210   41.8990 C   0  0  0  0  0  0  0  0  0  0  0  0
   47.7350   34.7870   41.2770 N   0  0  0  0  0  0  0  0  0  0  0  0
   48.9550   35.2920   41.8000 C   0  0  0  0  0  0  0  0  0  0  0  0
   49.9290   34.2990   42.2990 C   0  0  0  0  0  0  0  0  0  0  0  0
   49.1680   33.3230   42.9740 O   0  0  0  0  0  0  0  0  0  0  0  0
   48.5980   32.5920   41.9340 C   0  0  0  0  0  0  0  0  0  0  0  0
   47.7200   33.4200   41.0180 C   0  0  2  0  0  0  0  0  0  0  0  0
   48.3430   33.2660   39.6140 C   0  0  0  0  0  0  0  0  0  0  0  0
   44.2130   35.0530   41.5230 C   0  0  0  0  0  0  0  0  0  0  0  0
   43.2440   34.1190   41.0550 N   0  0  0  0  0  0  0  0  0  0  0  0
   42.8480   32.9230   41.5250 C   0  0  0  0  0  0  0  0  0  0  0  0
   41.8860   32.3540   40.7750 N   0  0  0  0  0  0  0  0  0  0  0  0
   41.6150   33.1860   39.7660 C   0  0  0  0  0  0  0  0  0  0  0  0
   40.7640   33.2280   38.6640 C   0  0  0  0  0  0  0  0  0  0  0  0
   40.0160   32.2290   38.5320 O   0  0  0  0  0  0  0  0  0  0  0  0
   40.7640   34.2840   37.8120 N   0  0  0  0  0  0  0  0  0  0  0  0
   41.5930   35.3330   38.0070 C   0  0  0  0  0  0  0  0  0  0  0  0
   41.5970   36.4440   37.1150 N   0  0  0  0  0  0  0  0  0  0  0  0
   42.4190   35.2990   39.0690 N   0  0  0  0  0  0  0  0  0  0  0  0
   42.4550   34.2680   39.9470 C   0  0  0  0  0  0  0  0  0  0  0  0
   45.5579   33.5265   41.7451 H   0  0  0  0  0  0  0  0  0  0  0  0
   44.2319   36.3385   43.8959 H   0  0  0  0  0  0  0  0  0  0  0  0
   46.2873   32.5253   43.8190 H   0  0  0  0  0  0  0  0  0  0  0  0
   44.9244   34.2001   47.4897 H   0  0  0  0  0  0  0  0  0  0  0  0
   46.2933   36.2425   41.2455 H   0  0  0  0  0  0  0  0  0  0  0  0
   46.9793   35.7492   42.8863 H   0  0  0  0  0  0  0  0  0  0  0  0
   49.4462   35.8675   41.0015 H   0  0  0  0  0  0  0  0  0  0  0  0
   48.6670   35.8810   42.6833 H   0  0  0  0  0  0  0  0  0  0  0  0
   50.4776   33.8451   41.4605 H   0  0  0  0  0  0  0  0  0  0  0  0
   50.6759   34.7608   42.9615 H   0  0  0  0  0  0  0  0  0  0  0  0
   49.4081   32.1518   41.3341 H   0  0  0  0  0  0  0  0  0  0  0  0
   47.9535   31.8281   42.3933 H   0  0  0  0  0  0  0  0  0  0  0  0
   46.6846   33.0697   41.1417 H   0  0  0  0  0  0  0  0  0  0  0  0
   49.4066   33.0031   39.7117 H   0  0  0  0  0  0  0  0  0  0  0  0
   47.8176   32.4707   39.0649 H   0  0  0  0  0  0  0  0  0  0  0  0
   48.2487   34.2145   39.0649 H   0  0  0  0  0  0  0  0  0  0  0  0
   43.7102   35.7092   42.2487 H   0  0  0  0  0  0  0  0  0  0  0  0
   44.5836   35.5429   40.6105 H   0  0  0  0  0  0  0  0  0  0  0  0
   43.2671   32.4576   42.4293 H   0  0  0  0  0  0  0  0  0  0  0  0
   40.1233   34.2860   37.0055 H   0  0  0  0  0  0  0  0  0  0  0  0
   42.2362   37.2346   37.2800 H   0  0  0  0  0  0  0  0  0  0  0  0
   40.9607   36.4565   36.3051 H   0  0  0  0  0  0  0  0  0  0  0  0
  1  3  1  0
  2  7  2  0
  3  4  2  0
  3  2  1  0
  4  5  1  0
  5  6  2  0
  7  6  1  0
  8  1  1  0
  9 10  1  0
  9  8  1  0
 10 11  1  0
 11 12  1  0
 13 12  1  0
 14  9  1  0
 14 13  1  0
 15 14  1  0
 16  1  1  0
 17 16  1  0
 17 18  1  0
 19 18  2  0
 20 27  2  0
 20 19  1  0
 21 20  1  0
 22 21  2  0
 23 24  1  0
 23 21  1  0
 24 26  2  0
 25 24  1  0
 26 27  1  0
 27 17  1  0
  1 28  1  6
  2 29  1  0
  4 30  1  0
  6 31  1  0
  8 32  1  0
  8 33  1  0
 10 34  1  0
 10 35  1  0
 11 36  1  0
 11 37  1  0
 13 38  1  0
 13 39  1  0
 14 40  1  6
 15 41  1  0
 15 42  1  0
 15 43  1  0
 16 44  1  0
 16 45  1  0
 18 46  1  0
 23 47  1  0
 25 48  1  0
 25 49  1  0
M  ISO  8  28   8  29  14  30  14  31  14  32   8  33   8  34  13  35  13
M  ISO  8  36  13  37  13  38  13  39  13  40  13  41   8  42   8  43   8
M  ISO  4  44   8  45   8  46  14  47   9
M  END
>  <minimizedAffinity>  (1) 
-6.05598545

>  <minimizedRMSD>  (1) 
0.98843807

$$$$
