
     RDKit          3D

 48 50  0  0  1  0  0  0  0  0999 V2000
   45.8290   34.1970   41.7200 C   0  0  2  0  0  0  0  0  0  0  0  0
   44.9700   35.8810   43.4240 C   0  0  0  0  0  0  0  0  0  0  0  0
   45.4460   34.5730   43.0820 C   0  0  0  0  0  0  0  0  0  0  0  0
   45.5220   33.6640   44.1280 C   0  0  0  0  0  0  0  0  0  0  0  0
   45.1480   34.0740   45.3680 N   0  0  0  0  0  0  0  0  0  0  0  0
   44.7030   35.3120   45.6540 C   0  0  0  0  0  0  0  0  0  0  0  0
   44.6120   36.2480   44.6440 N   0  0  0  0  0  0  0  0  0  0  0  0
   47.0910   34.9780   41.3850 C   0  0  0  0  0  0  0  0  0  0  0  0
   48.2230   34.1920   41.0310 N   0  0  0  0  0  0  0  0  0  0  0  0
   49.3790   34.6310   41.7630 C   0  0  0  0  0  0  0  0  0  0  0  0
   50.1250   33.5940   42.5040 C   0  0  0  0  0  0  0  0  0  0  0  0
   49.1520   32.7520   43.0600 O   0  0  0  0  0  0  0  0  0  0  0  0
   48.7220   31.9910   41.9700 C   0  0  0  0  0  0  0  0  0  0  0  0
   48.1380   32.8230   40.8580 C   0  0  2  0  0  0  0  0  0  0  0  0
   48.9790   32.5190   39.6010 C   0  0  0  0  0  0  0  0  0  0  0  0
   44.7760   34.4510   40.7290 C   0  0  0  0  0  0  0  0  0  0  0  0
   43.4390   34.0860   41.0170 N   0  0  0  0  0  0  0  0  0  0  0  0
   42.5720   35.1370   40.7990 C   0  0  0  0  0  0  0  0  0  0  0  0
   41.1920   35.1030   40.9470 C   0  0  0  0  0  0  0  0  0  0  0  0
   40.3060   36.2590   40.6990 C   0  0  0  0  0  0  0  0  0  0  0  0
   40.6110   33.9270   41.3480 C   0  0  0  0  0  0  0  0  0  0  0  0
   39.3920   33.7220   41.5290 O   0  0  0  0  0  0  0  0  0  0  0  0
   41.4190   32.9020   41.5650 N   0  0  0  0  0  0  0  0  0  0  0  0
   42.7350   33.0140   41.4010 C   0  0  0  0  0  0  0  0  0  0  0  0
   43.4990   32.0450   41.6140 O   0  0  0  0  0  0  0  0  0  0  0  0
   46.0010   33.1113   41.6795 H   0  0  0  0  0  0  0  0  0  0  0  0
   44.8976   36.6283   42.6201 H   0  0  0  0  0  0  0  0  0  0  0  0
   45.8764   32.6367   43.9572 H   0  0  0  0  0  0  0  0  0  0  0  0
   44.4148   35.5748   46.6825 H   0  0  0  0  0  0  0  0  0  0  0  0
   46.8630   35.6436   40.5394 H   0  0  0  0  0  0  0  0  0  0  0  0
   47.3697   35.5103   42.3064 H   0  0  0  0  0  0  0  0  0  0  0  0
   50.0730   35.0928   41.0453 H   0  0  0  0  0  0  0  0  0  0  0  0
   48.9926   35.3160   42.5321 H   0  0  0  0  0  0  0  0  0  0  0  0
   50.7768   33.0288   41.8215 H   0  0  0  0  0  0  0  0  0  0  0  0
   50.7719   34.0335   43.2775 H   0  0  0  0  0  0  0  0  0  0  0  0
   49.5820   31.4316   41.5733 H   0  0  0  0  0  0  0  0  0  0  0  0
   47.9257   31.3236   42.3314 H   0  0  0  0  0  0  0  0  0  0  0  0
   47.0701   32.5642   40.8060 H   0  0  0  0  0  0  0  0  0  0  0  0
   49.9736   32.1595   39.9034 H   0  0  0  0  0  0  0  0  0  0  0  0
   48.4762   31.7457   39.0016 H   0  0  0  0  0  0  0  0  0  0  0  0
   49.0869   33.4350   39.0016 H   0  0  0  0  0  0  0  0  0  0  0  0
   45.0633   33.9133   39.8134 H   0  0  0  0  0  0  0  0  0  0  0  0
   44.7356   35.5489   40.6740 H   0  0  0  0  0  0  0  0  0  0  0  0
   43.0157   36.0910   40.4779 H   0  0  0  0  0  0  0  0  0  0  0  0
   39.9802   36.6841   41.6598 H   0  0  0  0  0  0  0  0  0  0  0  0
   40.8519   37.0232   40.1263 H   0  0  0  0  0  0  0  0  0  0  0  0
   39.4262   35.9305   40.1263 H   0  0  0  0  0  0  0  0  0  0  0  0
   41.0222   32.0006   41.8665 H   0  0  0  0  0  0  0  0  0  0  0  0
  1  3  1  0
  2  7  2  0
  3  2  1  0
  3  4  2  0
  4  5  1  0
  5  6  2  0
  7  6  1  0
  8  1  1  0
  9  8  1  0
  9 10  1  0
 10 11  1  0
 11 12  1  0
 13 12  1  0
 14  9  1  0
 14 13  1  0
 15 14  1  0
 16 17  1  0
 16  1  1  0
 17 24  1  0
 18 19  2  0
 18 17  1  0
 19 21  1  0
 20 19  1  0
 21 22  2  0
 21 23  1  0
 24 23  1  0
 24 25  2  0
  1 26  1  1
  2 27  1  0
  4 28  1  0
  6 29  1  0
  8 30  1  0
  8 31  1  0
 10 32  1  0
 10 33  1  0
 11 34  1  0
 11 35  1  0
 13 36  1  0
 13 37  1  0
 14 38  1  6
 15 39  1  0
 15 40  1  0
 15 41  1  0
 16 42  1  0
 16 43  1  0
 18 44  1  0
 20 45  1  0
 20 46  1  0
 20 47  1  0
 23 48  1  0
M  ISO  8  26   8  27  14  28  14  29  14  30   8  31   8  32  13  33  13
M  ISO  8  34  13  35  13  36  13  37  13  38  13  39   8  40   8  41   8
M  ISO  7  42   8  43   8  44  14  45   8  46   8  47   8  48   9
M  END
>  <minimizedAffinity>  (1) 
-5.7818284

>  <minimizedRMSD>  (1) 
0.965471387

$$$$
