
     RDKit          3D

 45 46  0  0  0  0  0  0  0  0999 V2000
   46.5730   34.5400   41.4780 C   0  0  0  0  0  0  0  0  0  0  0  0
   45.4810   33.9670   40.7990 C   0  0  0  0  0  0  0  0  0  0  0  0
   44.1890   34.2830   41.2040 C   0  0  0  0  0  0  0  0  0  0  0  0
   43.9980   35.1320   42.2390 N   0  0  0  0  0  0  0  0  0  0  0  0
   45.0780   35.6740   42.8820 C   0  0  0  0  0  0  0  0  0  0  0  0
   46.3180   35.3840   42.5080 N   0  0  0  0  0  0  0  0  0  0  0  0
   47.9010   34.1270   40.9560 C   0  0  0  0  0  0  0  0  0  0  0  0
   48.0910   34.3010   39.5130 C   0  0  0  0  0  0  0  0  0  0  0  0
   48.0330   32.6810   41.3310 C   0  0  0  0  0  0  0  0  0  0  0  0
   48.9950   34.8430   41.7730 C   0  0  0  0  0  0  0  0  0  0  0  0
   49.2630   36.1530   41.3150 N   0  0  0  0  0  0  0  0  0  0  0  0
   45.7020   32.8650   39.4550 S   0  0  0  0  0  0  0  0  0  0  0  0
   44.5890   33.2460   38.0800 C   0  0  0  0  0  0  0  0  0  0  0  0
   45.3420   33.2140   36.7980 C   0  0  0  0  0  0  0  0  0  0  0  0
   45.2270   32.1520   35.9240 N   0  0  0  0  0  0  0  0  0  0  0  0
   44.2840   31.1230   36.2270 C   0  0  0  0  0  0  0  0  0  0  0  0
   44.8630   29.8120   35.8300 C   0  0  0  0  0  0  0  0  0  0  0  0
   45.9020   29.8330   34.8660 N   0  0  0  0  0  0  0  0  0  0  0  0
   45.9030   30.9150   33.9310 C   0  0  0  0  0  0  0  0  0  0  0  0
   45.4560   32.2310   34.5460 C   0  0  0  0  0  0  0  0  0  0  0  0
   43.3249   33.8437   40.6841 H   0  0  0  0  0  0  0  0  0  0  0  0
   44.9152   36.3626   43.7242 H   0  0  0  0  0  0  0  0  0  0  0  0
   48.8915   35.0340   39.3343 H   0  0  0  0  0  0  0  0  0  0  0  0
   48.3686   33.3374   39.0609 H   0  0  0  0  0  0  0  0  0  0  0  0
   47.1555   34.6621   39.0609 H   0  0  0  0  0  0  0  0  0  0  0  0
   48.0417   32.5857   42.4268 H   0  0  0  0  0  0  0  0  0  0  0  0
   47.1826   32.1167   40.9206 H   0  0  0  0  0  0  0  0  0  0  0  0
   48.9715   32.2800   40.9206 H   0  0  0  0  0  0  0  0  0  0  0  0
   48.6680   34.8992   42.8218 H   0  0  0  0  0  0  0  0  0  0  0  0
   49.9215   34.2609   41.6602 H   0  0  0  0  0  0  0  0  0  0  0  0
   49.3912   36.7795   42.1224 H   0  0  0  0  0  0  0  0  0  0  0  0
   50.1205   36.1485   40.7444 H   0  0  0  0  0  0  0  0  0  0  0  0
   43.7807   32.5007   38.0473 H   0  0  0  0  0  0  0  0  0  0  0  0
   44.1626   34.2495   38.2255 H   0  0  0  0  0  0  0  0  0  0  0  0
   45.0410   34.1117   36.2380 H   0  0  0  0  0  0  0  0  0  0  0  0
   46.3853   33.1316   37.1367 H   0  0  0  0  0  0  0  0  0  0  0  0
   44.0716   31.1220   37.3063 H   0  0  0  0  0  0  0  0  0  0  0  0
   43.3474   31.3002   35.6780 H   0  0  0  0  0  0  0  0  0  0  0  0
   45.2625   29.3369   36.7382 H   0  0  0  0  0  0  0  0  0  0  0  0
   44.0368   29.2690   35.3478 H   0  0  0  0  0  0  0  0  0  0  0  0
   46.7968   29.8625   35.3752 H   0  0  0  0  0  0  0  0  0  0  0  0
   45.2216   30.6648   33.1045 H   0  0  0  0  0  0  0  0  0  0  0  0
   46.9380   31.0488   33.5833 H   0  0  0  0  0  0  0  0  0  0  0  0
   46.2377   32.9835   34.3652 H   0  0  0  0  0  0  0  0  0  0  0  0
   44.5003   32.5017   34.0734 H   0  0  0  0  0  0  0  0  0  0  0  0
  1  6  2  0
  2  3  2  0
  2  1  1  0
  3  4  1  0
  4  5  2  0
  6  5  1  0
  7  9  1  0
  7  1  1  0
  7 10  1  0
  8  7  1  0
 11 10  1  0
 12  2  1  0
 13 12  1  0
 14 13  1  0
 15 16  1  0
 15 14  1  0
 17 16  1  0
 18 17  1  0
 19 20  1  0
 19 18  1  0
 20 15  1  0
  3 21  1  0
  5 22  1  0
  8 23  1  0
  8 24  1  0
  8 25  1  0
  9 26  1  0
  9 27  1  0
  9 28  1  0
 10 29  1  0
 10 30  1  0
 11 31  1  0
 11 32  1  0
 13 33  1  0
 13 34  1  0
 14 35  1  0
 14 36  1  0
 16 37  1  0
 16 38  1  0
 17 39  1  0
 17 40  1  0
 18 41  1  0
 19 42  1  0
 19 43  1  0
 20 44  1  0
 20 45  1  0
M  ISO  8  21  14  22  14  23   8  24   8  25   8  26   8  27   8  28   8
M  ISO  8  29   8  30   8  31   5  32   5  33   8  34   8  35   8  36   8
M  ISO  8  37  13  38  13  39  13  40  13  41   5  42  13  43  13  44  13
M  ISO  1  45  13
M  END
>  <minimizedAffinity>  (1) 
-4.04367113

>  <minimizedRMSD>  (1) 
1.5735203

$$$$
