
     RDKit          3D

 32 32  0  0  0  0  0  0  0  0999 V2000
   46.6690   34.6760   41.6340 C   0  0  0  0  0  0  0  0  0  0  0  0
   45.6300   34.0850   40.8770 C   0  0  0  0  0  0  0  0  0  0  0  0
   44.3190   34.3600   41.2350 C   0  0  0  0  0  0  0  0  0  0  0  0
   44.0650   35.1770   42.2840 N   0  0  0  0  0  0  0  0  0  0  0  0
   45.0900   35.7230   42.9850 C   0  0  0  0  0  0  0  0  0  0  0  0
   46.3540   35.4810   42.6690 N   0  0  0  0  0  0  0  0  0  0  0  0
   48.0410   34.3080   41.1570 C   0  0  0  0  0  0  0  0  0  0  0  0
   48.2870   34.4920   39.7280 C   0  0  0  0  0  0  0  0  0  0  0  0
   48.2000   32.8650   41.5400 C   0  0  0  0  0  0  0  0  0  0  0  0
   49.0680   35.0420   42.0410 C   0  0  0  0  0  0  0  0  0  0  0  0
   49.2700   36.3880   41.6220 N   0  0  0  0  0  0  0  0  0  0  0  0
   45.9540   33.0370   39.5290 S   0  0  0  0  0  0  0  0  0  0  0  0
   44.6550   33.1150   38.2810 C   0  0  0  0  0  0  0  0  0  0  0  0
   45.2910   33.0950   36.9020 C   0  0  0  0  0  0  0  0  0  0  0  0
   46.2980   34.0570   36.8440 O   0  0  0  0  0  0  0  0  0  0  0  0
   43.4877   33.9155   40.6682 H   0  0  0  0  0  0  0  0  0  0  0  0
   44.8665   36.3827   43.8364 H   0  0  0  0  0  0  0  0  0  0  0  0
   49.1606   35.1455   39.5875 H   0  0  0  0  0  0  0  0  0  0  0  0
   48.4807   33.5153   39.2605 H   0  0  0  0  0  0  0  0  0  0  0  0
   47.4048   34.9537   39.2605 H   0  0  0  0  0  0  0  0  0  0  0  0
   48.2099   32.7756   42.6363 H   0  0  0  0  0  0  0  0  0  0  0  0
   47.3606   32.2827   41.1321 H   0  0  0  0  0  0  0  0  0  0  0  0
   49.1461   32.4795   41.1321 H   0  0  0  0  0  0  0  0  0  0  0  0
   48.7049   35.0444   43.0793 H   0  0  0  0  0  0  0  0  0  0  0  0
   50.0285   34.5127   41.9555 H   0  0  0  0  0  0  0  0  0  0  0  0
   49.3611   36.9951   42.4491 H   0  0  0  0  0  0  0  0  0  0  0  0
   50.1292   36.4464   41.0569 H   0  0  0  0  0  0  0  0  0  0  0  0
   43.9858   32.2489   38.3909 H   0  0  0  0  0  0  0  0  0  0  0  0
   44.0732   34.0398   38.4081 H   0  0  0  0  0  0  0  0  0  0  0  0
   45.7213   32.1009   36.7104 H   0  0  0  0  0  0  0  0  0  0  0  0
   44.5275   33.3152   36.1414 H   0  0  0  0  0  0  0  0  0  0  0  0
   46.5645   34.3116   37.7628 H   0  0  0  0  0  0  0  0  0  0  0  0
  1  6  2  0
  2  3  2  0
  2  1  1  0
  3  4  1  0
  4  5  2  0
  6  5  1  0
  7  9  1  0
  7  1  1  0
  7 10  1  0
  8  7  1  0
 11 10  1  0
 12  2  1  0
 13 12  1  0
 14 13  1  0
 15 14  1  0
  3 16  1  0
  5 17  1  0
  8 18  1  0
  8 19  1  0
  8 20  1  0
  9 21  1  0
  9 22  1  0
  9 23  1  0
 10 24  1  0
 10 25  1  0
 11 26  1  0
 11 27  1  0
 13 28  1  0
 13 29  1  0
 14 30  1  0
 14 31  1  0
 15 32  1  0
M  ISO  8  16  14  17  14  18   8  19   8  20   8  21   8  22   8  23   8
M  ISO  8  24   8  25   8  26   5  27   5  28   8  29   8  30   8  31   8
M  ISO  1  32   3
M  END
>  <minimizedAffinity>  (1) 
-3.93186951

>  <minimizedRMSD>  (1) 
0.612437904

$$$$
