
     RDKit          3D

 38 39  0  0  0  0  0  0  0  0999 V2000
   46.5960   34.5710   41.5970 C   0  0  0  0  0  0  0  0  0  0  0  0
   45.4890   33.9230   41.0060 C   0  0  0  0  0  0  0  0  0  0  0  0
   44.2160   34.2330   41.4500 C   0  0  0  0  0  0  0  0  0  0  0  0
   44.0480   35.1440   42.4350 N   0  0  0  0  0  0  0  0  0  0  0  0
   45.1490   35.7550   42.9880 C   0  0  0  0  0  0  0  0  0  0  0  0
   46.3750   35.4710   42.5760 N   0  0  0  0  0  0  0  0  0  0  0  0
   47.9240   34.1530   41.0330 C   0  0  0  0  0  0  0  0  0  0  0  0
   48.0570   34.2890   39.5790 C   0  0  0  0  0  0  0  0  0  0  0  0
   48.0590   32.7010   41.4400 C   0  0  0  0  0  0  0  0  0  0  0  0
   49.0340   34.8550   41.8230 C   0  0  0  0  0  0  0  0  0  0  0  0
   49.2780   36.1740   41.3160 N   0  0  0  0  0  0  0  0  0  0  0  0
   45.6760   32.7460   39.7360 S   0  0  0  0  0  0  0  0  0  0  0  0
   44.6950   33.1440   38.2750 C   0  0  0  0  0  0  0  0  0  0  0  0
   45.5330   33.0730   37.0340 C   0  0  0  0  0  0  0  0  0  0  0  0
   45.0240   32.0990   36.1150 C   0  0  0  0  0  0  0  0  0  0  0  0
   44.0850   31.1270   36.1260 C   0  0  0  0  0  0  0  0  0  0  0  0
   43.8230   30.3310   35.0410 C   0  0  0  0  0  0  0  0  0  0  0  0
   44.6280   30.6110   33.8820 C   0  0  0  0  0  0  0  0  0  0  0  0
   45.7110   32.0090   34.4430 S   0  0  0  0  0  0  0  0  0  0  0  0
   43.3412   33.7388   41.0021 H   0  0  0  0  0  0  0  0  0  0  0  0
   45.0082   36.4952   43.7894 H   0  0  0  0  0  0  0  0  0  0  0  0
   48.8092   35.0582   39.3500 H   0  0  0  0  0  0  0  0  0  0  0  0
   48.3729   33.3274   39.1482 H   0  0  0  0  0  0  0  0  0  0  0  0
   47.0886   34.5834   39.1482 H   0  0  0  0  0  0  0  0  0  0  0  0
   48.0659   32.6270   42.5375 H   0  0  0  0  0  0  0  0  0  0  0  0
   47.2103   32.1274   41.0391 H   0  0  0  0  0  0  0  0  0  0  0  0
   48.9989   32.2937   41.0391 H   0  0  0  0  0  0  0  0  0  0  0  0
   48.7327   34.9266   42.8785 H   0  0  0  0  0  0  0  0  0  0  0  0
   49.9581   34.2670   41.7219 H   0  0  0  0  0  0  0  0  0  0  0  0
   49.3989   36.8274   42.1030 H   0  0  0  0  0  0  0  0  0  0  0  0
   50.1322   36.1680   40.7404 H   0  0  0  0  0  0  0  0  0  0  0  0
   43.8656   32.4263   38.1913 H   0  0  0  0  0  0  0  0  0  0  0  0
   44.3071   34.1680   38.3797 H   0  0  0  0  0  0  0  0  0  0  0  0
   45.5345   34.0589   36.5462 H   0  0  0  0  0  0  0  0  0  0  0  0
   46.5531   32.7783   37.3213 H   0  0  0  0  0  0  0  0  0  0  0  0
   43.5049   30.9674   37.0469 H   0  0  0  0  0  0  0  0  0  0  0  0
   43.0579   29.5408   35.0555 H   0  0  0  0  0  0  0  0  0  0  0  0
   44.6066   30.1157   32.9001 H   0  0  0  0  0  0  0  0  0  0  0  0
  1  6  2  0
  2  3  2  0
  2  1  1  0
  3  4  1  0
  4  5  2  0
  6  5  1  0
  7  9  1  0
  7  1  1  0
  7 10  1  0
  8  7  1  0
 11 10  1  0
 12  2  1  0
 13 12  1  0
 14 13  1  0
 15 16  2  0
 15 14  1  0
 17 16  1  0
 18 19  1  0
 18 17  2  0
 19 15  1  0
  3 20  1  0
  5 21  1  0
  8 22  1  0
  8 23  1  0
  8 24  1  0
  9 25  1  0
  9 26  1  0
  9 27  1  0
 10 28  1  0
 10 29  1  0
 11 30  1  0
 11 31  1  0
 13 32  1  0
 13 33  1  0
 14 34  1  0
 14 35  1  0
 16 36  1  0
 17 37  1  0
 18 38  1  0
M  ISO  8  20  14  21  14  22   8  23   8  24   8  25   8  26   8  27   8
M  ISO  8  28   8  29   8  30   5  31   5  32   8  33   8  34   8  35   8
M  ISO  3  36  14  37  14  38  14
M  END
>  <minimizedAffinity>  (1) 
-4.02987385

>  <minimizedRMSD>  (1) 
1.359779

$$$$
