
     RDKit          3D

 43 44  0  0  0  0  0  0  0  0999 V2000
   46.5030   34.6650   41.6480 C   0  0  0  0  0  0  0  0  0  0  0  0
   45.4590   34.0630   40.9110 C   0  0  0  0  0  0  0  0  0  0  0  0
   44.1540   34.3790   41.2170 C   0  0  0  0  0  0  0  0  0  0  0  0
   43.8820   35.2550   42.2110 N   0  0  0  0  0  0  0  0  0  0  0  0
   44.9180   35.8250   42.9110 C   0  0  0  0  0  0  0  0  0  0  0  0
   46.1750   35.5350   42.6320 N   0  0  0  0  0  0  0  0  0  0  0  0
   47.8790   34.2470   41.2280 C   0  0  0  0  0  0  0  0  0  0  0  0
   48.1640   34.3830   39.7940 C   0  0  0  0  0  0  0  0  0  0  0  0
   47.9850   32.8110   41.6420 C   0  0  0  0  0  0  0  0  0  0  0  0
   48.8960   34.9960   42.1110 C   0  0  0  0  0  0  0  0  0  0  0  0
   49.2020   36.2970   41.6080 N   0  0  0  0  0  0  0  0  0  0  0  0
   45.7920   32.9320   39.6270 S   0  0  0  0  0  0  0  0  0  0  0  0
   44.6750   33.1550   38.2260 C   0  0  0  0  0  0  0  0  0  0  0  0
   45.4750   33.2230   36.9550 C   0  0  0  0  0  0  0  0  0  0  0  0
   46.6210   32.3520   36.9510 N   0  0  0  0  0  0  0  0  0  0  0  0
   46.2710   31.2250   36.0910 C   0  0  0  0  0  0  0  0  0  0  0  0
   47.3540   31.0640   35.0780 C   0  0  0  0  0  0  0  0  0  0  0  0
   48.5270   31.7850   35.7480 C   0  0  0  0  0  0  0  0  0  0  0  0
   47.7870   32.9590   36.3530 C   0  0  0  0  0  0  0  0  0  0  0  0
   43.3308   33.9178   40.6516 H   0  0  0  0  0  0  0  0  0  0  0  0
   44.6954   36.5368   43.7196 H   0  0  0  0  0  0  0  0  0  0  0  0
   49.1493   34.8532   39.6590 H   0  0  0  0  0  0  0  0  0  0  0  0
   48.1649   33.3883   39.3244 H   0  0  0  0  0  0  0  0  0  0  0  0
   47.3913   35.0094   39.3244 H   0  0  0  0  0  0  0  0  0  0  0  0
   47.9898   32.7454   42.7400 H   0  0  0  0  0  0  0  0  0  0  0  0
   47.1258   32.2505   41.2450 H   0  0  0  0  0  0  0  0  0  0  0  0
   48.9172   32.3828   41.2450 H   0  0  0  0  0  0  0  0  0  0  0  0
   48.4769   35.0984   43.1228 H   0  0  0  0  0  0  0  0  0  0  0  0
   49.8280   34.4118   42.1170 H   0  0  0  0  0  0  0  0  0  0  0  0
   49.3539   36.9428   42.3959 H   0  0  0  0  0  0  0  0  0  0  0  0
   50.0551   36.2508   41.0326 H   0  0  0  0  0  0  0  0  0  0  0  0
   43.9765   32.3068   38.1750 H   0  0  0  0  0  0  0  0  0  0  0  0
   44.1079   34.0889   38.3534 H   0  0  0  0  0  0  0  0  0  0  0  0
   44.8210   32.9419   36.1164 H   0  0  0  0  0  0  0  0  0  0  0  0
   45.8508   34.2528   36.8637 H   0  0  0  0  0  0  0  0  0  0  0  0
   46.1842   30.3087   36.6934 H   0  0  0  0  0  0  0  0  0  0  0  0
   45.3072   31.4088   35.5938 H   0  0  0  0  0  0  0  0  0  0  0  0
   47.0835   31.5413   34.1246 H   0  0  0  0  0  0  0  0  0  0  0  0
   47.5670   30.0163   34.8194 H   0  0  0  0  0  0  0  0  0  0  0  0
   49.0062   31.1617   36.5173 H   0  0  0  0  0  0  0  0  0  0  0  0
   49.3575   32.0507   35.0774 H   0  0  0  0  0  0  0  0  0  0  0  0
   48.4023   33.4615   37.1138 H   0  0  0  0  0  0  0  0  0  0  0  0
   47.5347   33.7331   35.6133 H   0  0  0  0  0  0  0  0  0  0  0  0
  1  6  2  0
  2  3  2  0
  2  1  1  0
  3  4  1  0
  4  5  2  0
  6  5  1  0
  7  9  1  0
  7  1  1  0
  7 10  1  0
  8  7  1  0
 11 10  1  0
 12  2  1  0
 13 12  1  0
 14 13  1  0
 15 14  1  0
 16 15  1  0
 17 18  1  0
 17 16  1  0
 18 19  1  0
 19 15  1  0
  3 20  1  0
  5 21  1  0
  8 22  1  0
  8 23  1  0
  8 24  1  0
  9 25  1  0
  9 26  1  0
  9 27  1  0
 10 28  1  0
 10 29  1  0
 11 30  1  0
 11 31  1  0
 13 32  1  0
 13 33  1  0
 14 34  1  0
 14 35  1  0
 16 36  1  0
 16 37  1  0
 17 38  1  0
 17 39  1  0
 18 40  1  0
 18 41  1  0
 19 42  1  0
 19 43  1  0
M  ISO  8  20  14  21  14  22   8  23   8  24   8  25   8  26   8  27   8
M  ISO  8  28   8  29   8  30   5  31   5  32   8  33   8  34   8  35   8
M  ISO  8  36  13  37  13  38  13  39  13  40  13  41  13  42  13  43  13
M  END
>  <minimizedAffinity>  (1) 
-3.90663052

>  <minimizedRMSD>  (1) 
1.37064767

$$$$
