
     RDKit          3D

 37 39  0  0  1  0  0  0  0  0999 V2000
   46.2540   32.3220   46.3960 C   0  0  0  0  0  0  0  0  0  0  0  0
   45.8930   32.5130   45.0620 C   0  0  0  0  0  0  0  0  0  0  0  0
   45.4300   31.3840   44.3340 C   0  0  0  0  0  0  0  0  0  0  0  0
   45.3610   30.1810   44.9630 N   0  0  0  0  0  0  0  0  0  0  0  0
   45.7230   30.0430   46.2640 C   0  0  0  0  0  0  0  0  0  0  0  0
   46.1660   31.1060   46.9740 N   0  0  0  0  0  0  0  0  0  0  0  0
   45.6280   28.7560   46.8650 N   0  0  0  0  0  0  0  0  0  0  0  0
   44.5240   28.0240   46.7150 C   0  0  0  0  0  0  0  0  0  0  0  0
   44.4210   26.7760   47.2950 C   0  0  0  0  0  0  0  0  0  0  0  0
   43.1880   25.9600   47.1270 C   0  0  0  0  0  0  0  0  0  0  0  0
   45.4750   26.2650   48.0460 C   0  0  0  0  0  0  0  0  0  0  0  0
   45.4290   25.1350   48.5920 O   0  0  0  0  0  0  0  0  0  0  0  0
   46.5570   27.0560   48.1560 N   0  0  0  0  0  0  0  0  0  0  0  0
   46.6610   28.2880   47.5850 C   0  0  0  0  0  0  0  0  0  0  0  0
   47.7170   28.9100   47.7680 O   0  0  0  0  0  0  0  0  0  0  0  0
   46.0130   33.8510   44.4710 C   0  0  2  0  0  0  0  0  0  0  0  0
   45.0410   34.7890   45.1470 C   0  0  0  0  0  0  0  0  0  0  0  0
   44.6520   35.9850   44.4330 C   0  0  0  0  0  0  0  0  0  0  0  0
   45.1980   36.2490   43.1010 C   0  0  0  0  0  0  0  0  0  0  0  0
   46.1580   35.2900   42.5490 C   0  0  0  0  0  0  0  0  0  0  0  0
   45.8570   33.8910   42.9830 C   0  0  0  0  0  0  0  0  0  0  0  0
   46.6163   33.1767   46.9862 H   0  0  0  0  0  0  0  0  0  0  0  0
   45.1325   31.4818   43.2795 H   0  0  0  0  0  0  0  0  0  0  0  0
   43.6858   28.4191   46.1223 H   0  0  0  0  0  0  0  0  0  0  0  0
   42.7865   25.6943   48.1161 H   0  0  0  0  0  0  0  0  0  0  0  0
   42.4373   26.5402   46.5704 H   0  0  0  0  0  0  0  0  0  0  0  0
   43.4287   25.0423   46.5704 H   0  0  0  0  0  0  0  0  0  0  0  0
   47.3559   26.7088   48.7057 H   0  0  0  0  0  0  0  0  0  0  0  0
   47.0472   34.1801   44.6505 H   0  0  0  0  0  0  0  0  0  0  0  0
   44.6425   34.5698   46.1486 H   0  0  0  0  0  0  0  0  0  0  0  0
   43.9471   36.6950   44.8902 H   0  0  0  0  0  0  0  0  0  0  0  0
   44.3489   36.3001   42.4036 H   0  0  0  0  0  0  0  0  0  0  0  0
   45.7749   37.1780   43.2196 H   0  0  0  0  0  0  0  0  0  0  0  0
   47.1679   35.5597   42.8917 H   0  0  0  0  0  0  0  0  0  0  0  0
   46.0891   35.3301   41.4519 H   0  0  0  0  0  0  0  0  0  0  0  0
   44.8276   33.6221   42.7038 H   0  0  0  0  0  0  0  0  0  0  0  0
   46.5365   33.1748   42.4978 H   0  0  0  0  0  0  0  0  0  0  0  0
  1  6  2  0
  2  1  1  0
  3  4  1  0
  3  2  2  0
  4  5  2  0
  5  7  1  0
  5  6  1  0
  7 14  1  0
  8  7  1  0
  8  9  2  0
  9 11  1  0
 10  9  1  0
 11 13  1  0
 11 12  2  0
 14 15  2  0
 14 13  1  0
 16  2  1  0
 16 17  1  0
 18 17  2  0
 19 18  1  0
 20 21  1  0
 20 19  1  0
 21 16  1  0
  1 22  1  0
  3 23  1  0
  8 24  1  0
 10 25  1  0
 10 26  1  0
 10 27  1  0
 13 28  1  0
 16 29  1  6
 17 30  1  0
 18 31  1  0
 19 32  1  0
 19 33  1  0
 20 34  1  0
 20 35  1  0
 21 36  1  0
 21 37  1  0
M  ISO  8  22  14  23  14  24  14  25   8  26   8  27   8  28   9  29  13
M  ISO  8  30  13  31  13  32  13  33  13  34  13  35  13  36  13  37  13
M  END
>  <minimizedAffinity>  (1) 
-5.51215363

>  <minimizedRMSD>  (1) 
2.05424619

$$$$
