
     RDKit          3D

 31 33  0  0  1  0  0  0  0  0999 V2000
   46.6900   33.8660   44.5750 C   0  0  0  0  0  0  0  0  0  0  0  0
   47.4330   33.0230   43.7490 C   0  0  0  0  0  0  0  0  0  0  0  0
   47.7020   31.7210   44.1930 C   0  0  0  0  0  0  0  0  0  0  0  0
   47.2250   31.3380   45.4140 N   0  0  0  0  0  0  0  0  0  0  0  0
   46.5080   32.1800   46.1920 C   0  0  0  0  0  0  0  0  0  0  0  0
   46.2400   33.4390   45.7770 N   0  0  0  0  0  0  0  0  0  0  0  0
   46.0360   31.7270   47.4550 N   0  0  0  0  0  0  0  0  0  0  0  0
   44.8150   31.8960   47.9340 N   0  0  0  0  0  0  0  0  0  0  0  0
   44.6920   31.3510   49.1550 C   0  0  0  0  0  0  0  0  0  0  0  0
   45.9310   30.7950   49.4750 C   0  0  0  0  0  0  0  0  0  0  0  0
   46.7380   31.0560   48.3800 C   0  0  0  0  0  0  0  0  0  0  0  0
   47.9210   33.5300   42.4630 C   0  0  2  0  0  0  0  0  0  0  0  0
   48.9530   34.6090   42.6970 C   0  0  0  0  0  0  0  0  0  0  0  0
   49.2240   35.5200   41.6050 C   0  0  0  0  0  0  0  0  0  0  0  0
   48.5090   35.3790   40.3410 C   0  0  0  0  0  0  0  0  0  0  0  0
   47.5730   34.2530   40.2030 C   0  0  0  0  0  0  0  0  0  0  0  0
   46.8660   34.0030   41.5140 C   0  0  0  0  0  0  0  0  0  0  0  0
   46.4671   34.8913   44.2448 H   0  0  0  0  0  0  0  0  0  0  0  0
   48.2839   31.0238   43.5723 H   0  0  0  0  0  0  0  0  0  0  0  0
   43.7884   31.3442   49.7822 H   0  0  0  0  0  0  0  0  0  0  0  0
   46.2073   30.2639   50.3978 H   0  0  0  0  0  0  0  0  0  0  0  0
   47.7927   30.7586   48.2838 H   0  0  0  0  0  0  0  0  0  0  0  0
   48.3716   32.6623   41.9588 H   0  0  0  0  0  0  0  0  0  0  0  0
   49.4778   34.6987   43.6596 H   0  0  0  0  0  0  0  0  0  0  0  0
   49.9697   36.3192   41.7283 H   0  0  0  0  0  0  0  0  0  0  0  0
   47.9345   36.3039   40.1844 H   0  0  0  0  0  0  0  0  0  0  0  0
   49.2959   35.1768   39.5994 H   0  0  0  0  0  0  0  0  0  0  0  0
   46.8294   34.4907   39.4280 H   0  0  0  0  0  0  0  0  0  0  0  0
   48.1342   33.3507   39.9185 H   0  0  0  0  0  0  0  0  0  0  0  0
   46.4062   34.9312   41.8842 H   0  0  0  0  0  0  0  0  0  0  0  0
   46.0595   33.2631   41.4041 H   0  0  0  0  0  0  0  0  0  0  0  0
  1  6  2  0
  2  3  2  0
  2  1  1  0
  3  4  1  0
  4  5  2  0
  5  7  1  0
  6  5  1  0
  7  8  1  0
  7 11  1  0
  8  9  2  0
  9 10  1  0
 11 10  2  0
 12 13  1  0
 12  2  1  0
 14 13  2  0
 15 14  1  0
 16 15  1  0
 16 17  1  0
 17 12  1  0
  1 18  1  0
  3 19  1  0
  9 20  1  0
 10 21  1  0
 11 22  1  0
 12 23  1  6
 13 24  1  0
 14 25  1  0
 15 26  1  0
 15 27  1  0
 16 28  1  0
 16 29  1  0
 17 30  1  0
 17 31  1  0
M  ISO  8  18  14  19  14  20  14  21  14  22  14  23  13  24  13  25  13
M  ISO  6  26  13  27  13  28  13  29  13  30  13  31  13
M  END
>  <minimizedAffinity>  (1) 
-5.14969444

>  <minimizedRMSD>  (1) 
3.35225868

$$$$
