
     RDKit          3D

 37 39  0  0  1  0  0  0  0  0999 V2000
   46.1360   32.4380   46.5790 C   0  0  0  0  0  0  0  0  0  0  0  0
   46.0220   32.5570   45.1940 C   0  0  0  0  0  0  0  0  0  0  0  0
   45.8920   31.3710   44.4520 C   0  0  0  0  0  0  0  0  0  0  0  0
   45.8830   30.1790   45.0930 N   0  0  0  0  0  0  0  0  0  0  0  0
   45.9960   30.0990   46.4420 C   0  0  0  0  0  0  0  0  0  0  0  0
   46.1220   31.2240   47.1790 N   0  0  0  0  0  0  0  0  0  0  0  0
   46.0600   33.8910   44.5870 C   0  0  2  0  0  0  0  0  0  0  0  0
   45.0380   34.7820   45.2600 C   0  0  0  0  0  0  0  0  0  0  0  0
   44.5660   35.9300   44.5150 C   0  0  0  0  0  0  0  0  0  0  0  0
   45.0670   36.2030   43.1700 C   0  0  0  0  0  0  0  0  0  0  0  0
   46.1700   35.3340   42.6750 C   0  0  0  0  0  0  0  0  0  0  0  0
   45.9010   33.9100   43.0970 C   0  0  0  0  0  0  0  0  0  0  0  0
   46.0320   26.2630   48.1640 C   0  0  0  0  0  0  0  0  0  0  0  0
   44.8620   27.0220   48.1740 C   0  0  0  0  0  0  0  0  0  0  0  0
   44.8130   28.2950   47.6140 C   0  0  0  0  0  0  0  0  0  0  0  0
   45.9770   28.7670   47.0500 C   0  0  0  0  0  0  0  0  0  0  0  0
   47.1380   28.0380   47.0300 C   0  0  0  0  0  0  0  0  0  0  0  0
   47.1900   26.7650   47.5890 C   0  0  0  0  0  0  0  0  0  0  0  0
   46.0680   24.6520   48.8810 S   0  0  0  0  0  0  0  0  0  0  0  0
   45.2830   23.6890   48.0490 O   0  0  0  0  0  0  0  0  0  0  0  0
   45.4210   24.8070   50.2380 O   0  0  0  0  0  0  0  0  0  0  0  0
   46.2389   33.3445   47.1936 H   0  0  0  0  0  0  0  0  0  0  0  0
   45.7981   31.4110   43.3567 H   0  0  0  0  0  0  0  0  0  0  0  0
   47.0750   34.2791   44.7576 H   0  0  0  0  0  0  0  0  0  0  0  0
   44.6691   34.5660   46.2735 H   0  0  0  0  0  0  0  0  0  0  0  0
   43.8226   36.6036   44.9662 H   0  0  0  0  0  0  0  0  0  0  0  0
   44.2226   36.0984   42.4728 H   0  0  0  0  0  0  0  0  0  0  0  0
   45.4986   37.2134   43.2233 H   0  0  0  0  0  0  0  0  0  0  0  0
   47.1256   35.6712   43.1030 H   0  0  0  0  0  0  0  0  0  0  0  0
   46.2252   35.3923   41.5779 H   0  0  0  0  0  0  0  0  0  0  0  0
   44.8795   33.6135   42.8166 H   0  0  0  0  0  0  0  0  0  0  0  0
   46.5882   33.2048   42.6066 H   0  0  0  0  0  0  0  0  0  0  0  0
   43.9554   26.6040   48.6360 H   0  0  0  0  0  0  0  0  0  0  0  0
   43.8905   28.8942   47.6216 H   0  0  0  0  0  0  0  0  0  0  0  0
   48.0395   28.4649   46.5663 H   0  0  0  0  0  0  0  0  0  0  0  0
   48.1190   26.1761   47.5754 H   0  0  0  0  0  0  0  0  0  0  0  0
   47.3453   24.1640   48.9664 H   0  0  0  0  0  0  0  0  0  0  0  0
  1  6  2  0
  2  1  1  0
  3  4  1  0
  3  2  2  0
  4  5  2  0
  5 16  1  0
  5  6  1  0
  7  2  1  0
  7  8  1  0
  9  8  2  0
 10  9  1  0
 11 12  1  0
 11 10  1  0
 12  7  1  0
 13 14  2  0
 13 19  1  0
 15 14  1  0
 16 15  2  0
 17 16  1  0
 17 18  2  0
 18 13  1  0
 19 21  2  0
 20 19  2  0
  1 22  1  0
  3 23  1  0
  7 24  1  6
  8 25  1  0
  9 26  1  0
 10 27  1  0
 10 28  1  0
 11 29  1  0
 11 30  1  0
 12 31  1  0
 12 32  1  0
 14 33  1  0
 15 34  1  0
 17 35  1  0
 18 36  1  0
 19 37  1  0
M  ISO  8  22  14  23  14  24  13  25  13  26  13  27  13  28  13  29  13
M  ISO  8  30  13  31  13  32  13  33  14  34  14  35  14  36  14  37  11
M  END
>  <minimizedAffinity>  (1) 
-5.15904379

>  <minimizedRMSD>  (1) 
2.11030507

$$$$
