
     RDKit          3D

 45 47  0  0  1  0  0  0  0  0999 V2000
   45.6350   34.8870   42.7260 C   0  0  2  0  0  0  0  0  0  0  0  0
   44.8640   34.9380   45.1690 C   0  0  0  0  0  0  0  0  0  0  0  0
   45.5910   34.3250   44.0940 C   0  0  0  0  0  0  0  0  0  0  0  0
   46.2750   33.1430   44.4360 C   0  0  0  0  0  0  0  0  0  0  0  0
   46.1950   32.6920   45.7050 N   0  0  0  0  0  0  0  0  0  0  0  0
   45.4990   33.3000   46.6830 C   0  0  0  0  0  0  0  0  0  0  0  0
   44.8230   34.4450   46.3990 N   0  0  0  0  0  0  0  0  0  0  0  0
   46.9470   35.6150   42.6010 C   0  0  0  0  0  0  0  0  0  0  0  0
   47.8460   35.0920   41.6280 N   0  0  0  0  0  0  0  0  0  0  0  0
   49.1880   35.1400   42.1400 C   0  0  0  0  0  0  0  0  0  0  0  0
   49.9670   33.8890   42.1000 C   0  0  0  0  0  0  0  0  0  0  0  0
   49.0600   32.8770   42.4650 O   0  0  0  0  0  0  0  0  0  0  0  0
   48.2930   32.6980   41.3250 C   0  0  0  0  0  0  0  0  0  0  0  0
   47.5430   33.9460   40.9030 C   0  0  2  0  0  0  0  0  0  0  0  0
   48.0280   34.2590   39.4670 C   0  0  0  0  0  0  0  0  0  0  0  0
   44.4530   35.6960   42.4490 C   0  0  0  0  0  0  0  0  0  0  0  0
   43.4790   35.2310   41.4440 C   0  0  0  0  0  0  0  0  0  0  0  0
   43.7550   34.5330   40.2870 C   0  0  0  0  0  0  0  0  0  0  0  0
   42.7880   34.1360   39.3860 C   0  0  0  0  0  0  0  0  0  0  0  0
   41.4740   34.4240   39.6060 C   0  0  0  0  0  0  0  0  0  0  0  0
   41.1000   35.1190   40.7370 C   0  0  0  0  0  0  0  0  0  0  0  0
   42.1100   35.4900   41.6000 C   0  0  0  0  0  0  0  0  0  0  0  0
   45.5977   34.1058   41.9525 H   0  0  0  0  0  0  0  0  0  0  0  0
   44.3115   35.8662   44.9613 H   0  0  0  0  0  0  0  0  0  0  0  0
   46.8632   32.5978   43.6832 H   0  0  0  0  0  0  0  0  0  0  0  0
   45.4772   32.8766   47.6980 H   0  0  0  0  0  0  0  0  0  0  0  0
   46.7310   36.6605   42.3360 H   0  0  0  0  0  0  0  0  0  0  0  0
   47.4510   35.4998   43.5719 H   0  0  0  0  0  0  0  0  0  0  0  0
   49.7388   35.8922   41.5561 H   0  0  0  0  0  0  0  0  0  0  0  0
   49.0765   35.3718   43.2095 H   0  0  0  0  0  0  0  0  0  0  0  0
   50.3574   33.7100   41.0873 H   0  0  0  0  0  0  0  0  0  0  0  0
   50.8360   33.9244   42.7736 H   0  0  0  0  0  0  0  0  0  0  0  0
   48.9568   32.3949   40.5019 H   0  0  0  0  0  0  0  0  0  0  0  0
   47.5409   31.9294   41.5565 H   0  0  0  0  0  0  0  0  0  0  0  0
   46.4720   33.7334   41.0363 H   0  0  0  0  0  0  0  0  0  0  0  0
   48.9514   34.8549   39.5136 H   0  0  0  0  0  0  0  0  0  0  0  0
   48.2257   33.3176   38.9334 H   0  0  0  0  0  0  0  0  0  0  0  0
   47.2516   34.8269   38.9334 H   0  0  0  0  0  0  0  0  0  0  0  0
   43.9079   35.8032   43.3984 H   0  0  0  0  0  0  0  0  0  0  0  0
   44.8645   36.6153   42.0068 H   0  0  0  0  0  0  0  0  0  0  0  0
   44.8031   34.2788   40.0705 H   0  0  0  0  0  0  0  0  0  0  0  0
   43.0804   33.5819   38.4818 H   0  0  0  0  0  0  0  0  0  0  0  0
   40.7117   34.1020   38.8813 H   0  0  0  0  0  0  0  0  0  0  0  0
   40.0475   35.3654   40.9409 H   0  0  0  0  0  0  0  0  0  0  0  0
   41.8112   36.0450   42.5015 H   0  0  0  0  0  0  0  0  0  0  0  0
  1  3  1  0
  2  7  2  0
  3  4  2  0
  3  2  1  0
  4  5  1  0
  5  6  2  0
  7  6  1  0
  8  1  1  0
  9 10  1  0
  9  8  1  0
 11 10  1  0
 11 12  1  0
 13 12  1  0
 14 13  1  0
 14  9  1  0
 15 14  1  0
 16  1  1  0
 17 22  1  0
 17 16  1  0
 18 17  2  0
 19 20  2  0
 19 18  1  0
 20 21  1  0
 21 22  2  0
  1 23  1  6
  2 24  1  0
  4 25  1  0
  6 26  1  0
  8 27  1  0
  8 28  1  0
 10 29  1  0
 10 30  1  0
 11 31  1  0
 11 32  1  0
 13 33  1  0
 13 34  1  0
 14 35  1  6
 15 36  1  0
 15 37  1  0
 15 38  1  0
 16 39  1  0
 16 40  1  0
 18 41  1  0
 19 42  1  0
 20 43  1  0
 21 44  1  0
 22 45  1  0
M  ISO  8  23   8  24  14  25  14  26  14  27   8  28   8  29  13  30  13
M  ISO  8  31  13  32  13  33  13  34  13  35  13  36   8  37   8  38   8
M  ISO  7  39   8  40   8  41  14  42  14  43  14  44  14  45  14
M  END
>  <minimizedAffinity>  (1) 
-5.28892803

>  <minimizedRMSD>  (1) 
2.42897391

$$$$
