
     RDKit          3D

 38 40  0  0  1  0  0  0  0  0999 V2000
   45.3890   34.1030   44.3430 C   0  0  0  0  0  0  0  0  0  0  0  0
   45.0470   33.3150   43.2440 C   0  0  0  0  0  0  0  0  0  0  0  0
   45.1190   31.9050   43.4070 C   0  0  0  0  0  0  0  0  0  0  0  0
   45.5130   31.4040   44.6080 N   0  0  0  0  0  0  0  0  0  0  0  0
   45.8350   32.2100   45.6500 C   0  0  0  0  0  0  0  0  0  0  0  0
   45.7700   33.5550   45.5100 N   0  0  0  0  0  0  0  0  0  0  0  0
   46.2470   31.6790   46.9080 N   0  0  0  0  0  0  0  0  0  0  0  0
   45.3370   31.3670   47.9740 C   0  0  0  0  0  0  0  0  0  0  0  0
   46.0510   30.3680   48.8920 C   0  0  0  0  0  0  0  0  0  0  0  0
   47.1660   31.0640   49.5190 N   0  0  0  0  0  0  0  0  0  0  0  0
   47.9110   31.8500   48.5840 C   0  0  0  0  0  0  0  0  0  0  0  0
   47.6480   31.4380   47.1330 C   0  0  0  0  0  0  0  0  0  0  0  0
   44.6540   33.9550   41.9880 C   0  0  2  0  0  0  0  0  0  0  0  0
   43.8500   35.1970   42.2940 C   0  0  0  0  0  0  0  0  0  0  0  0
   42.9710   35.6860   41.2530 C   0  0  0  0  0  0  0  0  0  0  0  0
   42.8760   34.9930   39.9640 C   0  0  0  0  0  0  0  0  0  0  0  0
   43.8170   33.8600   39.7510 C   0  0  0  0  0  0  0  0  0  0  0  0
   43.9120   33.0690   41.0340 C   0  0  0  0  0  0  0  0  0  0  0  0
   45.3459   35.1984   44.2527 H   0  0  0  0  0  0  0  0  0  0  0  0
   44.8607   31.2313   42.5767 H   0  0  0  0  0  0  0  0  0  0  0  0
   45.0826   32.2794   48.5333 H   0  0  0  0  0  0  0  0  0  0  0  0
   44.4019   30.9414   47.5811 H   0  0  0  0  0  0  0  0  0  0  0  0
   45.3556   30.0035   49.6624 H   0  0  0  0  0  0  0  0  0  0  0  0
   46.4110   29.5032   48.3154 H   0  0  0  0  0  0  0  0  0  0  0  0
   46.7978   31.6846   50.2540 H   0  0  0  0  0  0  0  0  0  0  0  0
   47.6297   32.9062   48.7076 H   0  0  0  0  0  0  0  0  0  0  0  0
   48.9799   31.6902   48.7890 H   0  0  0  0  0  0  0  0  0  0  0  0
   47.8822   30.3730   46.9882 H   0  0  0  0  0  0  0  0  0  0  0  0
   48.2757   32.0048   46.4297 H   0  0  0  0  0  0  0  0  0  0  0  0
   45.5881   34.2092   41.4658 H   0  0  0  0  0  0  0  0  0  0  0  0
   43.9291   35.7073   43.2653 H   0  0  0  0  0  0  0  0  0  0  0  0
   42.3672   36.5881   41.4309 H   0  0  0  0  0  0  0  0  0  0  0  0
   41.8528   34.6005   39.8697 H   0  0  0  0  0  0  0  0  0  0  0  0
   43.1472   35.7443   39.2077 H   0  0  0  0  0  0  0  0  0  0  0  0
   43.4429   33.2137   38.9433 H   0  0  0  0  0  0  0  0  0  0  0  0
   44.8093   34.2418   39.4690 H   0  0  0  0  0  0  0  0  0  0  0  0
   42.9082   32.8403   41.4213 H   0  0  0  0  0  0  0  0  0  0  0  0
   44.4221   32.1057   40.8862 H   0  0  0  0  0  0  0  0  0  0  0  0
  1  6  2  0
  2  3  2  0
  2  1  1  0
  3  4  1  0
  4  5  2  0
  5  7  1  0
  6  5  1  0
  7 12  1  0
  7  8  1  0
  8  9  1  0
  9 10  1  0
 11 10  1  0
 12 11  1  0
 13 14  1  0
 13  2  1  0
 15 14  2  0
 16 15  1  0
 17 16  1  0
 17 18  1  0
 18 13  1  0
  1 19  1  0
  3 20  1  0
  8 21  1  0
  8 22  1  0
  9 23  1  0
  9 24  1  0
 10 25  1  0
 11 26  1  0
 11 27  1  0
 12 28  1  0
 12 29  1  0
 13 30  1  6
 14 31  1  0
 15 32  1  0
 16 33  1  0
 16 34  1  0
 17 35  1  0
 17 36  1  0
 18 37  1  0
 18 38  1  0
M  ISO  8  19  14  20  14  21  13  22  13  23  13  24  13  25   5  26  13
M  ISO  8  27  13  28  13  29  13  30  13  31  13  32  13  33  13  34  13
M  ISO  4  35  13  36  13  37  13  38  13
M  END
>  <minimizedAffinity>  (1) 
-4.83353615

>  <minimizedRMSD>  (1) 
3.47410655

$$$$
