
     RDKit          3D

 27 28  0  0  1  0  0  0  0  0999 V2000
   46.3810   34.0530   44.3730 C   0  0  2  0  0  0  0  0  0  0  0  0
   45.1140   34.8560   44.1470 C   0  0  0  0  0  0  0  0  0  0  0  0
   44.8760   35.3350   42.8040 C   0  0  0  0  0  0  0  0  0  0  0  0
   45.8340   35.0450   41.7300 C   0  0  0  0  0  0  0  0  0  0  0  0
   47.0590   34.3150   42.0950 C   0  0  0  0  0  0  0  0  0  0  0  0
   46.7510   33.2790   43.1480 C   0  0  0  0  0  0  0  0  0  0  0  0
   45.3170   33.6520   46.5700 C   0  0  0  0  0  0  0  0  0  0  0  0
   46.2300   33.2500   45.5940 C   0  0  0  0  0  0  0  0  0  0  0  0
   46.9890   32.0740   45.8410 C   0  0  0  0  0  0  0  0  0  0  0  0
   46.7960   31.4000   47.0000 N   0  0  0  0  0  0  0  0  0  0  0  0
   45.8980   31.8240   47.9230 C   0  0  0  0  0  0  0  0  0  0  0  0
   45.1670   32.9410   47.7080 N   0  0  0  0  0  0  0  0  0  0  0  0
   45.7610   31.0180   49.1610 C   0  0  0  0  0  0  0  0  0  0  0  0
   45.1290   29.8170   48.8870 F   0  0  0  0  0  0  0  0  0  0  0  0
   47.0280   30.6850   49.6310 F   0  0  0  0  0  0  0  0  0  0  0  0
   45.0830   31.6810   50.1560 F   0  0  0  0  0  0  0  0  0  0  0  0
   47.2402   34.7183   44.5435 H   0  0  0  0  0  0  0  0  0  0  0  0
   44.4098   35.0639   44.9661 H   0  0  0  0  0  0  0  0  0  0  0  0
   43.9710   35.9207   42.5853 H   0  0  0  0  0  0  0  0  0  0  0  0
   46.1407   36.0066   41.2926 H   0  0  0  0  0  0  0  0  0  0  0  0
   45.2965   34.3700   41.0478 H   0  0  0  0  0  0  0  0  0  0  0  0
   47.4653   33.8168   41.2024 H   0  0  0  0  0  0  0  0  0  0  0  0
   47.7965   35.0265   42.4948 H   0  0  0  0  0  0  0  0  0  0  0  0
   45.9131   32.6424   42.8277 H   0  0  0  0  0  0  0  0  0  0  0  0
   47.6079   32.6134   43.3289 H   0  0  0  0  0  0  0  0  0  0  0  0
   44.7133   34.5576   46.4105 H   0  0  0  0  0  0  0  0  0  0  0  0
   47.7218   31.7167   45.1025 H   0  0  0  0  0  0  0  0  0  0  0  0
  1  8  1  0
  2  1  1  0
  3  2  2  0
  4  5  1  0
  4  3  1  0
  5  6  1  0
  6  1  1  0
  7 12  2  0
  8  9  2  0
  8  7  1  0
  9 10  1  0
 10 11  2  0
 11 13  1  0
 12 11  1  0
 13 15  1  0
 13 16  1  0
 14 13  1  0
  1 17  1  1
  2 18  1  0
  3 19  1  0
  4 20  1  0
  4 21  1  0
  5 22  1  0
  5 23  1  0
  6 24  1  0
  6 25  1  0
  7 26  1  0
  9 27  1  0
M  ISO  8  17  13  18  13  19  13  20  13  21  13  22  13  23  13  24  13
M  ISO  3  25  13  26  14  27  14
M  END
>  <minimizedAffinity>  (1) 
-4.9574399

>  <minimizedRMSD>  (1) 
1.47779953

$$$$
