
     RDKit          3D

 31 33  0  0  1  0  0  0  0  0999 V2000
   45.9570   33.9660   44.7760 C   0  0  2  0  0  0  0  0  0  0  0  0
   44.9520   34.9840   45.2590 C   0  0  0  0  0  0  0  0  0  0  0  0
   44.6170   36.0600   44.3500 C   0  0  0  0  0  0  0  0  0  0  0  0
   45.2370   36.1410   43.0250 C   0  0  0  0  0  0  0  0  0  0  0  0
   46.3120   35.1530   42.7280 C   0  0  0  0  0  0  0  0  0  0  0  0
   45.8620   33.8060   43.2850 C   0  0  0  0  0  0  0  0  0  0  0  0
   45.7180   32.7910   46.9390 C   0  0  0  0  0  0  0  0  0  0  0  0
   45.8230   32.7310   45.5490 C   0  0  0  0  0  0  0  0  0  0  0  0
   45.8130   31.4700   44.9440 C   0  0  0  0  0  0  0  0  0  0  0  0
   45.7000   30.3590   45.7350 N   0  0  0  0  0  0  0  0  0  0  0  0
   45.6000   30.4570   47.0680 C   0  0  0  0  0  0  0  0  0  0  0  0
   45.6090   31.6600   47.6710 N   0  0  0  0  0  0  0  0  0  0  0  0
   45.4820   29.1980   47.8470 C   0  0  0  0  0  0  0  0  0  0  0  0
   46.4650   28.1390   47.3970 C   0  0  0  0  0  0  0  0  0  0  0  0
   44.9830   27.9460   47.2670 C   0  0  0  0  0  0  0  0  0  0  0  0
   46.9853   34.3123   44.9566 H   0  0  0  0  0  0  0  0  0  0  0  0
   44.4948   34.9114   46.2568 H   0  0  0  0  0  0  0  0  0  0  0  0
   43.8890   36.8251   44.6576 H   0  0  0  0  0  0  0  0  0  0  0  0
   44.4427   36.0045   42.2764 H   0  0  0  0  0  0  0  0  0  0  0  0
   45.7311   37.1233   42.9965 H   0  0  0  0  0  0  0  0  0  0  0  0
   46.4639   35.0784   41.6411 H   0  0  0  0  0  0  0  0  0  0  0  0
   47.2623   35.4643   43.1863 H   0  0  0  0  0  0  0  0  0  0  0  0
   44.8276   33.5859   42.9825 H   0  0  0  0  0  0  0  0  0  0  0  0
   46.4765   32.9728   42.9133 H   0  0  0  0  0  0  0  0  0  0  0  0
   45.7240   33.7682   47.4440 H   0  0  0  0  0  0  0  0  0  0  0  0
   45.8946   31.3730   43.8513 H   0  0  0  0  0  0  0  0  0  0  0  0
   45.1889   29.7296   48.7643 H   0  0  0  0  0  0  0  0  0  0  0  0
   47.0839   28.3010   46.5022 H   0  0  0  0  0  0  0  0  0  0  0  0
   47.2939   27.5850   47.8618 H   0  0  0  0  0  0  0  0  0  0  0  0
   44.5164   27.9532   46.2709 H   0  0  0  0  0  0  0  0  0  0  0  0
   44.2753   27.1720   47.5987 H   0  0  0  0  0  0  0  0  0  0  0  0
  1  2  1  0
  1  8  1  0
  3  2  2  0
  4  3  1  0
  5  4  1  0
  5  6  1  0
  6  1  1  0
  7 12  2  0
  8  7  1  0
  9  8  2  0
  9 10  1  0
 10 11  2  0
 11 12  1  0
 11 13  1  0
 14 13  1  0
 15 14  1  0
 15 13  1  0
  1 16  1  6
  2 17  1  0
  3 18  1  0
  4 19  1  0
  4 20  1  0
  5 21  1  0
  5 22  1  0
  6 23  1  0
  6 24  1  0
  7 25  1  0
  9 26  1  0
 13 27  1  0
 14 28  1  0
 14 29  1  0
 15 30  1  0
 15 31  1  0
M  ISO  8  16  13  17  13  18  13  19  13  20  13  21  13  22  13  23  13
M  ISO  8  24  13  25  14  26  14  27  13  28  13  29  13  30  13  31  13
M  END
>  <minimizedAffinity>  (1) 
-4.42163754

>  <minimizedRMSD>  (1) 
0.85291785

$$$$
