
     RDKit          3D

 36 37  0  0  1  0  0  0  0  0999 V2000
   46.1130   34.1960   43.8130 C   0  0  2  0  0  0  0  0  0  0  0  0
   44.9680   35.1590   44.0360 C   0  0  0  0  0  0  0  0  0  0  0  0
   44.3180   35.7450   42.8830 C   0  0  0  0  0  0  0  0  0  0  0  0
   44.7900   35.3830   41.5480 C   0  0  0  0  0  0  0  0  0  0  0  0
   46.0070   34.5570   41.4450 C   0  0  0  0  0  0  0  0  0  0  0  0
   45.9580   33.4840   42.5040 C   0  0  0  0  0  0  0  0  0  0  0  0
   45.5060   33.5960   46.1340 C   0  0  0  0  0  0  0  0  0  0  0  0
   46.2340   33.2990   44.9810 C   0  0  0  0  0  0  0  0  0  0  0  0
   47.0690   32.1470   44.9870 C   0  0  0  0  0  0  0  0  0  0  0  0
   47.1160   31.3940   46.1150 N   0  0  0  0  0  0  0  0  0  0  0  0
   46.3940   31.7140   47.2170 C   0  0  0  0  0  0  0  0  0  0  0  0
   45.5950   32.8060   47.2260 N   0  0  0  0  0  0  0  0  0  0  0  0
   46.4350   30.8980   48.4630 C   0  0  0  0  0  0  0  0  0  0  0  0
   47.7970   30.8920   49.0830 C   0  0  0  0  0  0  0  0  0  0  0  0
   45.9720   29.4930   48.1510 C   0  0  0  0  0  0  0  0  0  0  0  0
   45.4500   31.5710   49.4250 C   0  0  0  0  0  0  0  0  0  0  0  0
   47.0652   34.7411   43.7346 H   0  0  0  0  0  0  0  0  0  0  0  0
   44.6358   35.4091   45.0544 H   0  0  0  0  0  0  0  0  0  0  0  0
   43.4835   36.4504   43.0094 H   0  0  0  0  0  0  0  0  0  0  0  0
   43.9775   34.8318   41.0520 H   0  0  0  0  0  0  0  0  0  0  0  0
   45.0682   36.3415   41.0854 H   0  0  0  0  0  0  0  0  0  0  0  0
   46.0547   34.0917   40.4494 H   0  0  0  0  0  0  0  0  0  0  0  0
   46.8982   35.1852   41.5907 H   0  0  0  0  0  0  0  0  0  0  0  0
   44.9949   32.9537   42.4679 H   0  0  0  0  0  0  0  0  0  0  0  0
   46.7472   32.7322   42.3558 H   0  0  0  0  0  0  0  0  0  0  0  0
   44.8537   34.4815   46.1537 H   0  0  0  0  0  0  0  0  0  0  0  0
   47.6607   31.8740   44.1008 H   0  0  0  0  0  0  0  0  0  0  0  0
   47.7010   30.8924   50.1788 H   0  0  0  0  0  0  0  0  0  0  0  0
   48.3416   29.9914   48.7630 H   0  0  0  0  0  0  0  0  0  0  0  0
   48.3495   31.7877   48.7630 H   0  0  0  0  0  0  0  0  0  0  0  0
   45.7927   28.9490   49.0901 H   0  0  0  0  0  0  0  0  0  0  0  0
   45.0402   29.5350   47.5679 H   0  0  0  0  0  0  0  0  0  0  0  0
   46.7462   28.9728   47.5679 H   0  0  0  0  0  0  0  0  0  0  0  0
   45.7519   31.3648   50.4625 H   0  0  0  0  0  0  0  0  0  0  0  0
   45.4522   32.6572   49.2515 H   0  0  0  0  0  0  0  0  0  0  0  0
   44.4389   31.1741   49.2515 H   0  0  0  0  0  0  0  0  0  0  0  0
  1  2  1  0
  1  8  1  0
  3  2  2  0
  4  3  1  0
  5  4  1  0
  5  6  1  0
  6  1  1  0
  7 12  2  0
  8  9  2  0
  8  7  1  0
  9 10  1  0
 10 11  2  0
 11 12  1  0
 11 13  1  0
 13 14  1  0
 13 16  1  0
 15 13  1  0
  1 17  1  6
  2 18  1  0
  3 19  1  0
  4 20  1  0
  4 21  1  0
  5 22  1  0
  5 23  1  0
  6 24  1  0
  6 25  1  0
  7 26  1  0
  9 27  1  0
 14 28  1  0
 14 29  1  0
 14 30  1  0
 15 31  1  0
 15 32  1  0
 15 33  1  0
 16 34  1  0
 16 35  1  0
 16 36  1  0
M  ISO  8  17  13  18  13  19  13  20  13  21  13  22  13  23  13  24  13
M  ISO  8  25  13  26  14  27  14  28   8  29   8  30   8  31   8  32   8
M  ISO  4  33   8  34   8  35   8  36   8
M  END
>  <minimizedAffinity>  (1) 
-4.66843367

>  <minimizedRMSD>  (1) 
1.74557447

$$$$
