
     RDKit          3D

 31 33  0  0  1  0  0  0  0  0999 V2000
   44.6350   34.1020   42.1100 C   0  0  2  0  0  0  0  0  0  0  0  0
   43.7640   35.3170   42.3340 C   0  0  0  0  0  0  0  0  0  0  0  0
   42.9000   35.7120   41.2460 C   0  0  0  0  0  0  0  0  0  0  0  0
   42.8790   34.9640   39.9890 C   0  0  0  0  0  0  0  0  0  0  0  0
   43.9000   33.8890   39.8420 C   0  0  0  0  0  0  0  0  0  0  0  0
   43.9710   33.1360   41.1740 C   0  0  0  0  0  0  0  0  0  0  0  0
   45.1500   34.3890   44.5060 C   0  0  0  0  0  0  0  0  0  0  0  0
   45.0580   33.5540   43.3930 C   0  0  0  0  0  0  0  0  0  0  0  0
   45.4070   32.2040   43.5470 C   0  0  0  0  0  0  0  0  0  0  0  0
   45.8220   31.7670   44.7740 N   0  0  0  0  0  0  0  0  0  0  0  0
   45.9000   32.5960   45.8190 C   0  0  0  0  0  0  0  0  0  0  0  0
   45.5670   33.9010   45.6950 N   0  0  0  0  0  0  0  0  0  0  0  0
   46.3410   32.1660   47.1530 C   0  0  0  0  0  0  0  0  0  0  0  0
   47.5020   31.7460   47.7800 C   0  0  0  0  0  0  0  0  0  0  0  0
   47.1530   31.4990   49.1080 C   0  0  0  0  0  0  0  0  0  0  0  0
   45.8030   31.7830   49.2110 C   0  0  0  0  0  0  0  0  0  0  0  0
   45.3590   32.1730   48.0420 O   0  0  0  0  0  0  0  0  0  0  0  0
   45.5661   34.3781   41.5934 H   0  0  0  0  0  0  0  0  0  0  0  0
   43.7871   35.8746   43.2819 H   0  0  0  0  0  0  0  0  0  0  0  0
   42.2473   36.5894   41.3645 H   0  0  0  0  0  0  0  0  0  0  0  0
   41.8868   34.4990   39.8926 H   0  0  0  0  0  0  0  0  0  0  0  0
   43.1143   35.7002   39.2063 H   0  0  0  0  0  0  0  0  0  0  0  0
   43.6066   33.2000   39.0363 H   0  0  0  0  0  0  0  0  0  0  0  0
   44.8802   34.3180   39.5868 H   0  0  0  0  0  0  0  0  0  0  0  0
   42.9627   32.8784   41.5304 H   0  0  0  0  0  0  0  0  0  0  0  0
   44.5194   32.1860   41.0914 H   0  0  0  0  0  0  0  0  0  0  0  0
   44.8814   35.4518   44.4155 H   0  0  0  0  0  0  0  0  0  0  0  0
   45.3478   31.5097   42.6959 H   0  0  0  0  0  0  0  0  0  0  0  0
   48.4964   31.6307   47.3241 H   0  0  0  0  0  0  0  0  0  0  0  0
   47.8176   31.1489   49.9116 H   0  0  0  0  0  0  0  0  0  0  0  0
   45.1998   31.6955   50.1267 H   0  0  0  0  0  0  0  0  0  0  0  0
  1  2  1  0
  1  8  1  0
  3  2  2  0
  4  3  1  0
  5  4  1  0
  5  6  1  0
  6  1  1  0
  7 12  2  0
  8  9  2  0
  8  7  1  0
  9 10  1  0
 10 11  2  0
 11 13  1  0
 12 11  1  0
 13 14  2  0
 13 17  1  0
 14 15  1  0
 15 16  2  0
 17 16  1  0
  1 18  1  6
  2 19  1  0
  3 20  1  0
  4 21  1  0
  4 22  1  0
  5 23  1  0
  5 24  1  0
  6 25  1  0
  6 26  1  0
  7 27  1  0
  9 28  1  0
 14 29  1  0
 15 30  1  0
 16 31  1  0
M  ISO  8  18  13  19  13  20  13  21  13  22  13  23  13  24  13  25  13
M  ISO  6  26  13  27  14  28  14  29  14  30  14  31  14
M  END
>  <minimizedAffinity>  (1) 
-4.65217304

>  <minimizedRMSD>  (1) 
3.53729415

$$$$
