
     RDKit          3D

 40 42  0  0  1  0  0  0  0  0999 V2000
   46.2430   34.0600   44.6750 C   0  0  2  0  0  0  0  0  0  0  0  0
   45.0640   34.8440   45.2150 C   0  0  0  0  0  0  0  0  0  0  0  0
   44.4860   35.8500   44.3480 C   0  0  0  0  0  0  0  0  0  0  0  0
   45.0370   36.0860   43.0060 C   0  0  0  0  0  0  0  0  0  0  0  0
   46.2900   35.3500   42.6680 C   0  0  0  0  0  0  0  0  0  0  0  0
   46.1530   33.9370   43.1850 C   0  0  0  0  0  0  0  0  0  0  0  0
   45.8080   32.6670   46.6850 C   0  0  0  0  0  0  0  0  0  0  0  0
   46.3300   32.7840   45.3970 C   0  0  0  0  0  0  0  0  0  0  0  0
   46.9450   31.6260   44.8500 C   0  0  0  0  0  0  0  0  0  0  0  0
   46.9970   30.4870   45.5850 N   0  0  0  0  0  0  0  0  0  0  0  0
   46.4720   30.4260   46.8340 C   0  0  0  0  0  0  0  0  0  0  0  0
   45.8830   31.5220   47.3680 N   0  0  0  0  0  0  0  0  0  0  0  0
   46.5140   29.1900   47.6640 C   0  0  0  0  0  0  0  0  0  0  0  0
   45.1200   28.6690   47.9810 C   0  0  0  0  0  0  0  0  0  0  0  0
   44.4680   28.0810   46.7740 C   0  0  0  0  0  0  0  0  0  0  0  0
   45.3550   27.1240   46.0440 C   0  0  0  0  0  0  0  0  0  0  0  0
   46.6590   26.8500   46.7390 C   0  0  0  0  0  0  0  0  0  0  0  0
   47.3980   28.1200   47.0990 C   0  0  0  0  0  0  0  0  0  0  0  0
   47.1913   34.5879   44.8538 H   0  0  0  0  0  0  0  0  0  0  0  0
   44.6642   34.6570   46.2226 H   0  0  0  0  0  0  0  0  0  0  0  0
   43.6273   36.4424   44.6969 H   0  0  0  0  0  0  0  0  0  0  0  0
   44.2698   35.7963   42.2728 H   0  0  0  0  0  0  0  0  0  0  0  0
   45.3072   37.1520   42.9828 H   0  0  0  0  0  0  0  0  0  0  0  0
   46.4329   35.3366   41.5774 H   0  0  0  0  0  0  0  0  0  0  0  0
   47.1595   35.8431   43.1271 H   0  0  0  0  0  0  0  0  0  0  0  0
   45.1833   33.5095   42.8901 H   0  0  0  0  0  0  0  0  0  0  0  0
   46.9275   33.2706   42.7775 H   0  0  0  0  0  0  0  0  0  0  0  0
   45.3231   33.5384   47.1492 H   0  0  0  0  0  0  0  0  0  0  0  0
   47.3757   31.6528   43.8382 H   0  0  0  0  0  0  0  0  0  0  0  0
   46.9787   29.4871   48.6157 H   0  0  0  0  0  0  0  0  0  0  0  0
   45.1961   27.8950   48.7589 H   0  0  0  0  0  0  0  0  0  0  0  0
   44.5065   29.5137   48.3276 H   0  0  0  0  0  0  0  0  0  0  0  0
   43.5598   27.5470   47.0903 H   0  0  0  0  0  0  0  0  0  0  0  0
   44.2368   28.9081   46.0867 H   0  0  0  0  0  0  0  0  0  0  0  0
   45.5735   27.5432   45.0508 H   0  0  0  0  0  0  0  0  0  0  0  0
   44.8153   26.1670   45.9895 H   0  0  0  0  0  0  0  0  0  0  0  0
   46.4562   26.2857   47.6612 H   0  0  0  0  0  0  0  0  0  0  0  0
   47.2939   26.2768   46.0474 H   0  0  0  0  0  0  0  0  0  0  0  0
   48.1675   27.8746   47.8458 H   0  0  0  0  0  0  0  0  0  0  0  0
   47.8292   28.5167   46.1680 H   0  0  0  0  0  0  0  0  0  0  0  0
  1  2  1  0
  1  8  1  0
  3  2  2  0
  4  3  1  0
  5  4  1  0
  5  6  1  0
  6  1  1  0
  7 12  2  0
  8  7  1  0
  9  8  2  0
  9 10  1  0
 10 11  2  0
 11 12  1  0
 11 13  1  0
 13 14  1  0
 15 14  1  0
 16 17  1  0
 16 15  1  0
 17 18  1  0
 18 13  1  0
  1 19  1  6
  2 20  1  0
  3 21  1  0
  4 22  1  0
  4 23  1  0
  5 24  1  0
  5 25  1  0
  6 26  1  0
  6 27  1  0
  7 28  1  0
  9 29  1  0
 13 30  1  0
 14 31  1  0
 14 32  1  0
 15 33  1  0
 15 34  1  0
 16 35  1  0
 16 36  1  0
 17 37  1  0
 17 38  1  0
 18 39  1  0
 18 40  1  0
M  ISO  8  19  13  20  13  21  13  22  13  23  13  24  13  25  13  26  13
M  ISO  8  27  13  28  14  29  14  30  13  31  13  32  13  33  13  34  13
M  ISO  6  35  13  36  13  37  13  38  13  39  13  40  13
M  END
>  <minimizedAffinity>  (1) 
-4.65998125

>  <minimizedRMSD>  (1) 
1.45783412

$$$$
