
     RDKit          3D

 25 26  0  0  1  0  0  0  0  0999 V2000
   45.9850   33.9750   44.7600 C   0  0  2  0  0  0  0  0  0  0  0  0
   44.9530   34.9620   45.2580 C   0  0  0  0  0  0  0  0  0  0  0  0
   44.5920   36.0630   44.3870 C   0  0  0  0  0  0  0  0  0  0  0  0
   45.2220   36.1820   43.0790 C   0  0  0  0  0  0  0  0  0  0  0  0
   46.2700   35.2090   42.7360 C   0  0  0  0  0  0  0  0  0  0  0  0
   45.8960   33.8460   43.2700 C   0  0  0  0  0  0  0  0  0  0  0  0
   45.7010   32.7440   46.8940 C   0  0  0  0  0  0  0  0  0  0  0  0
   45.8470   32.7060   45.5040 C   0  0  0  0  0  0  0  0  0  0  0  0
   45.8680   31.4420   44.8540 C   0  0  0  0  0  0  0  0  0  0  0  0
   45.7470   30.3290   45.6140 N   0  0  0  0  0  0  0  0  0  0  0  0
   45.6060   30.4010   46.9600 C   0  0  0  0  0  0  0  0  0  0  0  0
   45.5840   31.5880   47.5860 N   0  0  0  0  0  0  0  0  0  0  0  0
   45.4590   28.8200   47.7950 S   0  0  0  0  0  0  0  0  0  0  0  0
   47.0063   34.3325   44.9577 H   0  0  0  0  0  0  0  0  0  0  0  0
   44.4910   34.8480   46.2497 H   0  0  0  0  0  0  0  0  0  0  0  0
   43.8469   36.8041   44.7118 H   0  0  0  0  0  0  0  0  0  0  0  0
   44.4287   36.0914   42.3224 H   0  0  0  0  0  0  0  0  0  0  0  0
   45.7401   37.1520   43.1062 H   0  0  0  0  0  0  0  0  0  0  0  0
   46.3760   35.1565   41.6424 H   0  0  0  0  0  0  0  0  0  0  0  0
   47.2224   35.5268   43.1853 H   0  0  0  0  0  0  0  0  0  0  0  0
   44.8733   33.5789   42.9655 H   0  0  0  0  0  0  0  0  0  0  0  0
   46.5564   33.0556   42.8837 H   0  0  0  0  0  0  0  0  0  0  0  0
   45.6814   33.7089   47.4218 H   0  0  0  0  0  0  0  0  0  0  0  0
   45.9797   31.3705   43.7620 H   0  0  0  0  0  0  0  0  0  0  0  0
   45.4772   29.0162   49.1508 H   0  0  0  0  0  0  0  0  0  0  0  0
  1  2  1  0
  1  8  1  0
  3  2  2  0
  4  3  1  0
  5  4  1  0
  5  6  1  0
  6  1  1  0
  7 12  2  0
  8  7  1  0
  9  8  2  0
  9 10  1  0
 10 11  2  0
 11 12  1  0
 11 13  1  0
  1 14  1  6
  2 15  1  0
  3 16  1  0
  4 17  1  0
  4 18  1  0
  5 19  1  0
  5 20  1  0
  6 21  1  0
  6 22  1  0
  7 23  1  0
  9 24  1  0
 13 25  1  0
M  ISO  8  14  13  15  13  16  13  17  13  18  13  19  13  20  13  21  13
M  ISO  4  22  13  23  14  24  14  25  11
M  END
>  <minimizedAffinity>  (1) 
-4.11827898

>  <minimizedRMSD>  (1) 
0.798371375

$$$$
