
     RDKit          3D

 38 41  0  0  1  0  0  0  0  0999 V2000
   46.9220   33.6480   44.2040 C   0  0  0  0  0  0  0  0  0  0  0  0
   47.7440   32.9240   43.3560 C   0  0  0  0  0  0  0  0  0  0  0  0
   48.0380   31.5560   43.6660 C   0  0  0  0  0  0  0  0  0  0  0  0
   47.4910   31.0330   44.7870 N   0  0  0  0  0  0  0  0  0  0  0  0
   46.6940   31.7570   45.5960 C   0  0  0  0  0  0  0  0  0  0  0  0
   46.4150   33.0500   45.3020 N   0  0  0  0  0  0  0  0  0  0  0  0
   48.3150   33.5810   42.1620 C   0  0  2  0  0  0  0  0  0  0  0  0
   49.1370   34.7830   42.6270 C   0  0  0  0  0  0  0  0  0  0  0  0
   49.3790   35.8320   41.6650 C   0  0  0  0  0  0  0  0  0  0  0  0
   48.8490   35.7310   40.3160 C   0  0  0  0  0  0  0  0  0  0  0  0
   48.1270   34.5000   39.9530 C   0  0  0  0  0  0  0  0  0  0  0  0
   47.3460   33.9640   41.1110 C   0  0  0  0  0  0  0  0  0  0  0  0
   46.0990   31.1600   46.8300 C   0  0  0  0  0  0  0  0  0  0  0  0
   45.9640   31.6810   48.1990 C   0  0  0  0  0  0  0  0  0  0  0  0
   45.1160   30.2490   48.9240 S   0  0  0  0  0  0  0  0  0  0  0  0
   45.0810   29.2830   47.4510 C   0  0  0  0  0  0  0  0  0  0  0  0
   45.6800   29.9830   46.4100 N   0  0  0  0  0  0  0  0  0  0  0  0
   44.4640   27.8900   47.4010 C   0  0  0  0  0  0  0  0  0  0  0  0
   44.6680   27.1400   48.5050 C   0  0  0  0  0  0  0  0  0  0  0  0
   44.0820   25.8710   48.4090 C   0  0  0  0  0  0  0  0  0  0  0  0
   43.4110   25.5340   47.2930 N   0  0  0  0  0  0  0  0  0  0  0  0
   43.2610   26.3590   46.2350 C   0  0  0  0  0  0  0  0  0  0  0  0
   43.8160   27.6050   46.2870 N   0  0  0  0  0  0  0  0  0  0  0  0
   46.6851   34.6995   43.9844 H   0  0  0  0  0  0  0  0  0  0  0  0
   48.6865   30.9519   43.0144 H   0  0  0  0  0  0  0  0  0  0  0  0
   48.9438   32.8310   41.6598 H   0  0  0  0  0  0  0  0  0  0  0  0
   49.5283   34.8462   43.6531 H   0  0  0  0  0  0  0  0  0  0  0  0
   49.9688   36.7139   41.9554 H   0  0  0  0  0  0  0  0  0  0  0  0
   48.1557   36.5727   40.1719 H   0  0  0  0  0  0  0  0  0  0  0  0
   49.7379   35.7324   39.6680 H   0  0  0  0  0  0  0  0  0  0  0  0
   47.4356   34.7211   39.1265 H   0  0  0  0  0  0  0  0  0  0  0  0
   48.8648   33.7417   39.6522 H   0  0  0  0  0  0  0  0  0  0  0  0
   46.6631   34.7369   41.4934 H   0  0  0  0  0  0  0  0  0  0  0  0
   46.7443   33.0959   40.8039 H   0  0  0  0  0  0  0  0  0  0  0  0
   46.2780   32.6370   48.6434 H   0  0  0  0  0  0  0  0  0  0  0  0
   45.2322   27.4871   49.3832 H   0  0  0  0  0  0  0  0  0  0  0  0
   44.1700   25.1557   49.2400 H   0  0  0  0  0  0  0  0  0  0  0  0
   42.7011   26.0327   45.3462 H   0  0  0  0  0  0  0  0  0  0  0  0
  1  6  2  0
  2  3  2  0
  2  1  1  0
  3  4  1  0
  4  5  2  0
  5 13  1  0
  6  5  1  0
  7  8  1  0
  7  2  1  0
  9  8  2  0
 10  9  1  0
 11 10  1  0
 11 12  1  0
 12  7  1  0
 13 14  2  0
 14 15  1  0
 16 15  1  0
 17 13  1  0
 17 16  2  0
 18 16  1  0
 18 19  2  0
 20 19  1  0
 21 20  2  0
 22 23  2  0
 22 21  1  0
 23 18  1  0
  1 24  1  0
  3 25  1  0
  7 26  1  6
  8 27  1  0
  9 28  1  0
 10 29  1  0
 10 30  1  0
 11 31  1  0
 11 32  1  0
 12 33  1  0
 12 34  1  0
 14 35  1  0
 19 36  1  0
 20 37  1  0
 22 38  1  0
M  ISO  8  24  14  25  14  26  13  27  13  28  13  29  13  30  13  31  13
M  ISO  7  32  13  33  13  34  13  35  14  36  14  37  14  38  14
M  END
>  <minimizedAffinity>  (1) 
-5.46841288

>  <minimizedRMSD>  (1) 
3.23021817

$$$$
