
     RDKit          3D

 40 43  0  0  1  0  0  0  0  0999 V2000
   45.9210   32.2230   46.3280 C   0  0  0  0  0  0  0  0  0  0  0  0
   45.8200   32.4410   44.9660 C   0  0  0  0  0  0  0  0  0  0  0  0
   45.5650   31.3290   44.1030 C   0  0  0  0  0  0  0  0  0  0  0  0
   45.4340   30.1060   44.6680 N   0  0  0  0  0  0  0  0  0  0  0  0
   45.5400   29.9300   46.0220 C   0  0  0  0  0  0  0  0  0  0  0  0
   45.7780   30.9750   46.8230 N   0  0  0  0  0  0  0  0  0  0  0  0
   45.9950   33.8110   44.4490 C   0  0  2  0  0  0  0  0  0  0  0  0
   45.0220   34.7370   45.1780 C   0  0  0  0  0  0  0  0  0  0  0  0
   44.6510   35.9720   44.5250 C   0  0  0  0  0  0  0  0  0  0  0  0
   45.1940   36.2970   43.2160 C   0  0  0  0  0  0  0  0  0  0  0  0
   46.1970   35.3810   42.6440 C   0  0  0  0  0  0  0  0  0  0  0  0
   45.8810   33.9610   42.9830 C   0  0  0  0  0  0  0  0  0  0  0  0
   45.3810   28.5600   46.6010 C   0  0  0  0  0  0  0  0  0  0  0  0
   46.2270   27.8110   47.5450 C   0  0  0  0  0  0  0  0  0  0  0  0
   45.2290   26.2860   47.5910 S   0  0  0  0  0  0  0  0  0  0  0  0
   43.9840   26.8340   46.4730 C   0  0  0  0  0  0  0  0  0  0  0  0
   44.2730   28.1380   46.0440 N   0  0  0  0  0  0  0  0  0  0  0  0
   42.8810   25.9170   46.1570 N   0  0  0  0  0  0  0  0  0  0  0  0
   41.6390   26.3810   46.3890 C   0  0  0  0  0  0  0  0  0  0  0  0
   40.6080   25.4890   46.0790 C   0  0  0  0  0  0  0  0  0  0  0  0
   40.9340   24.2340   45.5730 C   0  0  0  0  0  0  0  0  0  0  0  0
   39.9800   23.4330   45.2970 O   0  0  0  0  0  0  0  0  0  0  0  0
   42.2130   23.8450   45.3690 N   0  0  0  0  0  0  0  0  0  0  0  0
   43.2190   24.7110   45.6690 C   0  0  0  0  0  0  0  0  0  0  0  0
   44.4320   24.4180   45.5050 O   0  0  0  0  0  0  0  0  0  0  0  0
   46.1176   33.0655   47.0073 H   0  0  0  0  0  0  0  0  0  0  0  0
   45.4781   31.4636   43.0147 H   0  0  0  0  0  0  0  0  0  0  0  0
   47.0392   34.0889   44.6550 H   0  0  0  0  0  0  0  0  0  0  0  0
   44.6177   34.4726   46.1662 H   0  0  0  0  0  0  0  0  0  0  0  0
   43.9566   36.6673   45.0193 H   0  0  0  0  0  0  0  0  0  0  0  0
   44.3500   36.3412   42.5119 H   0  0  0  0  0  0  0  0  0  0  0  0
   45.7349   37.2430   43.3663 H   0  0  0  0  0  0  0  0  0  0  0  0
   47.1880   35.6352   43.0481 H   0  0  0  0  0  0  0  0  0  0  0  0
   46.1872   35.4903   41.5495 H   0  0  0  0  0  0  0  0  0  0  0  0
   44.8579   33.7179   42.6603 H   0  0  0  0  0  0  0  0  0  0  0  0
   46.5768   33.2796   42.4715 H   0  0  0  0  0  0  0  0  0  0  0  0
   47.1611   28.0839   48.0578 H   0  0  0  0  0  0  0  0  0  0  0  0
   41.4494   27.3867   46.7923 H   0  0  0  0  0  0  0  0  0  0  0  0
   39.5568   25.7743   46.2324 H   0  0  0  0  0  0  0  0  0  0  0  0
   42.4222   22.9092   44.9930 H   0  0  0  0  0  0  0  0  0  0  0  0
  1  6  2  0
  2  1  1  0
  3  4  1  0
  3  2  2  0
  4  5  2  0
  5 13  1  0
  5  6  1  0
  7  2  1  0
  7  8  1  0
  9  8  2  0
 10  9  1  0
 11 12  1  0
 11 10  1  0
 12  7  1  0
 13 14  2  0
 14 15  1  0
 16 15  1  0
 17 16  2  0
 17 13  1  0
 18 19  1  0
 18 16  1  0
 20 19  2  0
 21 20  1  0
 22 21  2  0
 23 21  1  0
 23 24  1  0
 24 18  1  0
 25 24  2  0
  1 26  1  0
  3 27  1  0
  7 28  1  1
  8 29  1  0
  9 30  1  0
 10 31  1  0
 10 32  1  0
 11 33  1  0
 11 34  1  0
 12 35  1  0
 12 36  1  0
 14 37  1  0
 19 38  1  0
 20 39  1  0
 23 40  1  0
M  ISO  8  26  14  27  14  28  13  29  13  30  13  31  13  32  13  33  13
M  ISO  7  34  13  35  13  36  13  37  14  38  14  39  14  40   9
M  END
>  <minimizedAffinity>  (1) 
-5.42824745

>  <minimizedRMSD>  (1) 
1.2484411

$$$$
