
     RDKit          3D

 42 45  0  0  1  0  0  0  0  0999 V2000
   46.9050   32.3030   46.4920 C   0  0  0  0  0  0  0  0  0  0  0  0
   46.4440   32.4770   45.1920 C   0  0  0  0  0  0  0  0  0  0  0  0
   46.1440   31.3250   44.3980 C   0  0  0  0  0  0  0  0  0  0  0  0
   46.3250   30.1100   44.9570 N   0  0  0  0  0  0  0  0  0  0  0  0
   46.7760   29.9670   46.2260 C   0  0  0  0  0  0  0  0  0  0  0  0
   47.0650   31.0550   46.9930 N   0  0  0  0  0  0  0  0  0  0  0  0
   46.2950   33.8520   44.6600 C   0  0  2  0  0  0  0  0  0  0  0  0
   45.1650   34.5360   45.4370 C   0  0  0  0  0  0  0  0  0  0  0  0
   44.5340   35.6760   44.8100 C   0  0  0  0  0  0  0  0  0  0  0  0
   44.9570   36.1230   43.4990 C   0  0  0  0  0  0  0  0  0  0  0  0
   46.0630   35.3990   42.8420 C   0  0  0  0  0  0  0  0  0  0  0  0
   46.0540   33.9470   43.2030 C   0  0  0  0  0  0  0  0  0  0  0  0
   46.9660   28.6080   46.8170 C   0  0  0  0  0  0  0  0  0  0  0  0
   48.1910   27.9610   47.3680 C   0  0  0  0  0  0  0  0  0  0  0  0
   47.4300   26.3870   47.8340 S   0  0  0  0  0  0  0  0  0  0  0  0
   45.7890   26.7940   47.2790 C   0  0  0  0  0  0  0  0  0  0  0  0
   45.7590   28.0830   46.7470 N   0  0  0  0  0  0  0  0  0  0  0  0
   44.7960   25.7260   47.4580 N   0  0  0  0  0  0  0  0  0  0  0  0
   44.5730   24.3670   47.0490 C   0  0  0  0  0  0  0  0  0  0  0  0
   43.1800   24.5100   46.4000 C   0  0  0  0  0  0  0  0  0  0  0  0
   42.5370   25.6530   47.1900 C   0  0  0  0  0  0  0  0  0  0  0  0
   43.5840   25.8860   48.2790 C   0  0  0  0  0  0  0  0  0  0  0  0
   47.1399   33.1794   47.1139 H   0  0  0  0  0  0  0  0  0  0  0  0
   45.7778   31.4264   43.3657 H   0  0  0  0  0  0  0  0  0  0  0  0
   47.2619   34.3566   44.8033 H   0  0  0  0  0  0  0  0  0  0  0  0
   44.8482   34.1760   46.4270 H   0  0  0  0  0  0  0  0  0  0  0  0
   43.7259   36.2082   45.3332 H   0  0  0  0  0  0  0  0  0  0  0  0
   44.0832   36.0581   42.8339 H   0  0  0  0  0  0  0  0  0  0  0  0
   45.3544   37.1345   43.6693 H   0  0  0  0  0  0  0  0  0  0  0  0
   47.0189   35.8410   43.1595 H   0  0  0  0  0  0  0  0  0  0  0  0
   45.9359   35.4863   41.7529 H   0  0  0  0  0  0  0  0  0  0  0  0
   45.0788   33.5035   42.9535 H   0  0  0  0  0  0  0  0  0  0  0  0
   46.8300   33.4030   42.6446 H   0  0  0  0  0  0  0  0  0  0  0  0
   49.2252   28.3240   47.4613 H   0  0  0  0  0  0  0  0  0  0  0  0
   45.3286   24.0291   46.3245 H   0  0  0  0  0  0  0  0  0  0  0  0
   44.6345   23.6231   47.8570 H   0  0  0  0  0  0  0  0  0  0  0  0
   43.2668   24.7680   45.3342 H   0  0  0  0  0  0  0  0  0  0  0  0
   42.5927   23.5805   46.4339 H   0  0  0  0  0  0  0  0  0  0  0  0
   42.3993   26.5476   46.5650 H   0  0  0  0  0  0  0  0  0  0  0  0
   41.5303   25.4278   47.5720 H   0  0  0  0  0  0  0  0  0  0  0  0
   43.5236   25.1336   49.0792 H   0  0  0  0  0  0  0  0  0  0  0  0
   43.5003   26.8372   48.8251 H   0  0  0  0  0  0  0  0  0  0  0  0
  1  6  2  0
  2  1  1  0
  3  4  1  0
  3  2  2  0
  4  5  2  0
  5 13  1  0
  5  6  1  0
  7  2  1  0
  7  8  1  0
  9  8  2  0
 10  9  1  0
 11 12  1  0
 11 10  1  0
 12  7  1  0
 13 14  2  0
 14 15  1  0
 16 18  1  0
 16 15  1  0
 17 13  1  0
 17 16  2  0
 18 22  1  0
 19 18  1  0
 20 19  1  0
 20 21  1  0
 21 22  1  0
  1 23  1  0
  3 24  1  0
  7 25  1  6
  8 26  1  0
  9 27  1  0
 10 28  1  0
 10 29  1  0
 11 30  1  0
 11 31  1  0
 12 32  1  0
 12 33  1  0
 14 34  1  0
 19 35  1  0
 19 36  1  0
 20 37  1  0
 20 38  1  0
 21 39  1  0
 21 40  1  0
 22 41  1  0
 22 42  1  0
M  ISO  8  23  14  24  14  25  13  26  13  27  13  28  13  29  13  30  13
M  ISO  8  31  13  32  13  33  13  34  14  35  13  36  13  37  13  38  13
M  ISO  4  39  13  40  13  41  13  42  13
M  END
>  <minimizedAffinity>  (1) 
-5.30543137

>  <minimizedRMSD>  (1) 
1.1496129

$$$$
