
     RDKit          3D

 37 40  0  0  1  0  0  0  0  0999 V2000
   46.2220   32.2010   46.5430 C   0  0  0  0  0  0  0  0  0  0  0  0
   46.0310   32.3950   45.1850 C   0  0  0  0  0  0  0  0  0  0  0  0
   45.8490   31.2500   44.3480 C   0  0  0  0  0  0  0  0  0  0  0  0
   45.8710   30.0240   44.9230 N   0  0  0  0  0  0  0  0  0  0  0  0
   46.0620   29.8790   46.2720 C   0  0  0  0  0  0  0  0  0  0  0  0
   46.2330   30.9500   47.0530 N   0  0  0  0  0  0  0  0  0  0  0  0
   46.0420   33.7640   44.6510 C   0  0  2  0  0  0  0  0  0  0  0  0
   45.0460   34.6050   45.4500 C   0  0  0  0  0  0  0  0  0  0  0  0
   44.5510   35.8070   44.8250 C   0  0  0  0  0  0  0  0  0  0  0  0
   44.9890   36.1880   43.4930 C   0  0  0  0  0  0  0  0  0  0  0  0
   46.0000   35.3340   42.8420 C   0  0  0  0  0  0  0  0  0  0  0  0
   45.7900   33.8950   43.2000 C   0  0  0  0  0  0  0  0  0  0  0  0
   46.0720   28.5070   46.8690 C   0  0  0  0  0  0  0  0  0  0  0  0
   47.2060   27.6710   47.3260 C   0  0  0  0  0  0  0  0  0  0  0  0
   46.2210   26.2180   47.8210 S   0  0  0  0  0  0  0  0  0  0  0  0
   44.6480   26.8870   47.3900 C   0  0  0  0  0  0  0  0  0  0  0  0
   44.8050   28.1750   46.8780 N   0  0  0  0  0  0  0  0  0  0  0  0
   43.2810   26.1190   47.5700 C   0  0  0  0  0  0  0  0  0  0  0  0
   43.1110   24.9190   46.7450 C   0  0  0  0  0  0  0  0  0  0  0  0
   42.4070   26.1680   46.3600 C   0  0  0  0  0  0  0  0  0  0  0  0
   46.3649   33.0663   47.2069 H   0  0  0  0  0  0  0  0  0  0  0  0
   45.6950   31.3621   43.2646 H   0  0  0  0  0  0  0  0  0  0  0  0
   47.0731   34.1282   44.7696 H   0  0  0  0  0  0  0  0  0  0  0  0
   44.7211   34.3064   46.4576 H   0  0  0  0  0  0  0  0  0  0  0  0
   43.8330   36.4431   45.3634 H   0  0  0  0  0  0  0  0  0  0  0  0
   44.1006   36.2009   42.8444 H   0  0  0  0  0  0  0  0  0  0  0  0
   45.4855   37.1604   43.6270 H   0  0  0  0  0  0  0  0  0  0  0  0
   47.0020   35.6454   43.1723 H   0  0  0  0  0  0  0  0  0  0  0  0
   45.9053   35.4438   41.7516 H   0  0  0  0  0  0  0  0  0  0  0  0
   44.7571   33.5959   42.9684 H   0  0  0  0  0  0  0  0  0  0  0  0
   46.4684   33.2468   42.6258 H   0  0  0  0  0  0  0  0  0  0  0  0
   48.2886   27.8635   47.3568 H   0  0  0  0  0  0  0  0  0  0  0  0
   43.1621   26.3346   48.6421 H   0  0  0  0  0  0  0  0  0  0  0  0
   43.9483   24.5515   46.1336 H   0  0  0  0  0  0  0  0  0  0  0  0
   42.7963   23.8836   46.9422 H   0  0  0  0  0  0  0  0  0  0  0  0
   42.7259   26.7305   45.4701 H   0  0  0  0  0  0  0  0  0  0  0  0
   41.3627   26.4488   46.1583 H   0  0  0  0  0  0  0  0  0  0  0  0
  1  6  2  0
  2  1  1  0
  3  4  1  0
  3  2  2  0
  4  5  2  0
  5 13  1  0
  5  6  1  0
  7  2  1  0
  7  8  1  0
  9  8  2  0
 10  9  1  0
 11 12  1  0
 11 10  1  0
 12  7  1  0
 13 17  1  0
 13 14  2  0
 14 15  1  0
 16 18  1  0
 16 15  1  0
 17 16  2  0
 19 18  1  0
 20 19  1  0
 20 18  1  0
  1 21  1  0
  3 22  1  0
  7 23  1  6
  8 24  1  0
  9 25  1  0
 10 26  1  0
 10 27  1  0
 11 28  1  0
 11 29  1  0
 12 30  1  0
 12 31  1  0
 14 32  1  0
 18 33  1  0
 19 34  1  0
 19 35  1  0
 20 36  1  0
 20 37  1  0
M  ISO  8  21  14  22  14  23  13  24  13  25  13  26  13  27  13  28  13
M  ISO  8  29  13  30  13  31  13  32  14  33  13  34  13  35  13  36  13
M  ISO  1  37  13
M  END
>  <minimizedAffinity>  (1) 
-4.86182928

>  <minimizedRMSD>  (1) 
0.510613799

$$$$
