
     RDKit          3D

 48 50  0  0  1  0  0  0  0  0999 V2000
   46.9300   35.6350   42.5380 C   0  0  0  0  0  0  0  0  0  0  0  0
   47.8600   35.1060   41.6180 N   0  0  0  0  0  0  0  0  0  0  0  0
   49.1790   35.1620   42.1720 C   0  0  0  0  0  0  0  0  0  0  0  0
   49.9480   33.9100   42.1680 C   0  0  0  0  0  0  0  0  0  0  0  0
   49.0310   32.9010   42.5190 O   0  0  0  0  0  0  0  0  0  0  0  0
   48.2970   32.7130   41.3620 C   0  0  0  0  0  0  0  0  0  0  0  0
   47.5780   33.9570   40.9070 C   0  0  2  0  0  0  0  0  0  0  0  0
   48.0960   34.2520   39.4770 C   0  0  0  0  0  0  0  0  0  0  0  0
   45.6060   34.8990   42.6640 C   0  0  1  0  0  0  0  0  0  0  0  0
   44.6960   35.1830   45.0540 C   0  0  0  0  0  0  0  0  0  0  0  0
   45.4920   34.4810   44.0850 C   0  0  0  0  0  0  0  0  0  0  0  0
   46.1640   33.3600   44.5740 C   0  0  0  0  0  0  0  0  0  0  0  0
   46.0050   33.0420   45.8890 N   0  0  0  0  0  0  0  0  0  0  0  0
   45.2560   33.7200   46.7530 C   0  0  0  0  0  0  0  0  0  0  0  0
   44.5770   34.8300   46.3230 N   0  0  0  0  0  0  0  0  0  0  0  0
   44.4790   35.7250   42.2820 C   0  0  0  0  0  0  0  0  0  0  0  0
   43.5610   35.4760   41.1680 C   0  0  0  0  0  0  0  0  0  0  0  0
   43.8380   34.2320   40.3940 C   0  0  0  0  0  0  0  0  0  0  0  0
   42.6070   33.3660   40.3440 C   0  0  0  0  0  0  0  0  0  0  0  0
   41.4880   34.2990   40.7510 C   0  0  0  0  0  0  0  0  0  0  0  0
   42.1140   35.3070   41.6500 C   0  0  0  0  0  0  0  0  0  0  0  0
   46.7099   36.6688   42.2334 H   0  0  0  0  0  0  0  0  0  0  0  0
   47.4099   35.5410   43.5233 H   0  0  0  0  0  0  0  0  0  0  0  0
   49.7505   35.9065   41.5984 H   0  0  0  0  0  0  0  0  0  0  0  0
   49.0372   35.4118   43.2338 H   0  0  0  0  0  0  0  0  0  0  0  0
   50.3651   33.7188   41.1683 H   0  0  0  0  0  0  0  0  0  0  0  0
   50.7956   33.9509   42.8679 H   0  0  0  0  0  0  0  0  0  0  0  0
   48.9808   32.3920   40.5623 H   0  0  0  0  0  0  0  0  0  0  0  0
   47.5314   31.9539   41.5800 H   0  0  0  0  0  0  0  0  0  0  0  0
   46.5038   33.7482   41.0191 H   0  0  0  0  0  0  0  0  0  0  0  0
   49.0504   34.7955   39.5376 H   0  0  0  0  0  0  0  0  0  0  0  0
   48.2472   33.3045   38.9390 H   0  0  0  0  0  0  0  0  0  0  0  0
   47.3582   34.8654   38.9390 H   0  0  0  0  0  0  0  0  0  0  0  0
   45.5878   34.0355   41.9827 H   0  0  0  0  0  0  0  0  0  0  0  0
   44.1480   36.0753   44.7170 H   0  0  0  0  0  0  0  0  0  0  0  0
   46.8030   32.7514   43.9173 H   0  0  0  0  0  0  0  0  0  0  0  0
   45.1821   33.3938   47.8009 H   0  0  0  0  0  0  0  0  0  0  0  0
   43.8399   35.7700   43.1762 H   0  0  0  0  0  0  0  0  0  0  0  0
   45.0164   36.5996   41.8867 H   0  0  0  0  0  0  0  0  0  0  0  0
   43.7102   36.3616   40.5328 H   0  0  0  0  0  0  0  0  0  0  0  0
   44.1356   34.5001   39.3695 H   0  0  0  0  0  0  0  0  0  0  0  0
   44.6487   33.6755   40.8869 H   0  0  0  0  0  0  0  0  0  0  0  0
   42.4427   32.9779   39.3279 H   0  0  0  0  0  0  0  0  0  0  0  0
   42.6823   32.4841   40.9972 H   0  0  0  0  0  0  0  0  0  0  0  0
   41.0560   34.7894   39.8662 H   0  0  0  0  0  0  0  0  0  0  0  0
   40.6702   33.7597   41.2513 H   0  0  0  0  0  0  0  0  0  0  0  0
   42.0985   34.9507   42.6906 H   0  0  0  0  0  0  0  0  0  0  0  0
   41.5690   36.2620   41.6200 H   0  0  0  0  0  0  0  0  0  0  0  0
  1  9  1  0
  2  3  1  0
  2  1  1  0
  4  3  1  0
  4  5  1  0
  6  5  1  0
  7  6  1  0
  7  2  1  0
  8  7  1  0
  9 11  1  0
 10 15  2  0
 11 12  2  0
 11 10  1  0
 12 13  1  0
 13 14  2  0
 15 14  1  0
 16  9  1  0
 17 21  1  0
 17 16  1  0
 18 17  1  0
 19 18  1  0
 19 20  1  0
 20 21  1  0
  1 22  1  0
  1 23  1  0
  3 24  1  0
  3 25  1  0
  4 26  1  0
  4 27  1  0
  6 28  1  0
  6 29  1  0
  7 30  1  6
  8 31  1  0
  8 32  1  0
  8 33  1  0
  9 34  1  6
 10 35  1  0
 12 36  1  0
 14 37  1  0
 16 38  1  0
 16 39  1  0
 17 40  1  0
 18 41  1  0
 18 42  1  0
 19 43  1  0
 19 44  1  0
 20 45  1  0
 20 46  1  0
 21 47  1  0
 21 48  1  0
M  ISO  8  22   8  23   8  24  13  25  13  26  13  27  13  28  13  29  13
M  ISO  8  30  13  31   8  32   8  33   8  34   8  35  14  36  14  37  14
M  ISO  8  38   8  39   8  40  13  41  13  42  13  43  13  44  13  45  13
M  ISO  3  46  13  47  13  48  13
M  END
>  <minimizedAffinity>  (1) 
-5.03025484

>  <minimizedRMSD>  (1) 
2.09944797

$$$$
