
     RDKit          3D

 33 35  0  0  1  0  0  0  0  0999 V2000
   46.0870   32.1840   46.4550 C   0  0  0  0  0  0  0  0  0  0  0  0
   45.9390   32.3960   45.0970 C   0  0  0  0  0  0  0  0  0  0  0  0
   45.7400   31.2700   44.2360 C   0  0  0  0  0  0  0  0  0  0  0  0
   45.7050   30.0380   44.7940 N   0  0  0  0  0  0  0  0  0  0  0  0
   45.8510   29.8600   46.1240 C   0  0  0  0  0  0  0  0  0  0  0  0
   46.0400   30.9260   46.9440 N   0  0  0  0  0  0  0  0  0  0  0  0
   46.0090   33.7680   44.5630 C   0  0  2  0  0  0  0  0  0  0  0  0
   45.0250   34.6360   45.3530 C   0  0  0  0  0  0  0  0  0  0  0  0
   44.5920   35.8670   44.7260 C   0  0  0  0  0  0  0  0  0  0  0  0
   45.0750   36.2360   43.4070 C   0  0  0  0  0  0  0  0  0  0  0  0
   46.0210   35.3290   42.7350 C   0  0  0  0  0  0  0  0  0  0  0  0
   45.7780   33.9030   43.1070 C   0  0  0  0  0  0  0  0  0  0  0  0
   45.8030   28.4960   46.7340 C   0  0  0  0  0  0  0  0  0  0  0  0
   46.8430   27.6760   47.3750 C   0  0  0  0  0  0  0  0  0  0  0  0
   45.8090   26.2380   47.7730 S   0  0  0  0  0  0  0  0  0  0  0  0
   44.3130   26.8850   47.0920 C   0  0  0  0  0  0  0  0  0  0  0  0
   44.5440   28.1540   46.5680 N   0  0  0  0  0  0  0  0  0  0  0  0
   43.0350   26.0210   47.1600 C   0  0  0  0  0  0  0  0  0  0  0  0
   46.2422   33.0356   47.1338 H   0  0  0  0  0  0  0  0  0  0  0  0
   45.6189   31.4027   43.1508 H   0  0  0  0  0  0  0  0  0  0  0  0
   47.0486   34.1034   44.6926 H   0  0  0  0  0  0  0  0  0  0  0  0
   44.6646   34.3384   46.3488 H   0  0  0  0  0  0  0  0  0  0  0  0
   43.8902   36.5294   45.2539 H   0  0  0  0  0  0  0  0  0  0  0  0
   44.1959   36.3338   42.7530 H   0  0  0  0  0  0  0  0  0  0  0  0
   45.6522   37.1572   43.5752 H   0  0  0  0  0  0  0  0  0  0  0  0
   47.0458   35.6036   43.0256 H   0  0  0  0  0  0  0  0  0  0  0  0
   45.8792   35.4290   41.6488 H   0  0  0  0  0  0  0  0  0  0  0  0
   44.7415   33.6249   42.8655 H   0  0  0  0  0  0  0  0  0  0  0  0
   46.4548   33.2400   42.5481 H   0  0  0  0  0  0  0  0  0  0  0  0
   47.9101   27.8723   47.5559 H   0  0  0  0  0  0  0  0  0  0  0  0
   42.7694   25.8414   48.2122 H   0  0  0  0  0  0  0  0  0  0  0  0
   42.2096   26.5471   46.6581 H   0  0  0  0  0  0  0  0  0  0  0  0
   43.2156   25.0590   46.6581 H   0  0  0  0  0  0  0  0  0  0  0  0
  1  6  2  0
  2  1  1  0
  3  4  1  0
  3  2  2  0
  4  5  2  0
  5 13  1  0
  5  6  1  0
  7  2  1  0
  7  8  1  0
  9  8  2  0
 10  9  1  0
 11 12  1  0
 11 10  1  0
 12  7  1  0
 13 14  2  0
 14 15  1  0
 16 18  1  0
 16 15  1  0
 17 13  1  0
 17 16  2  0
  1 19  1  0
  3 20  1  0
  7 21  1  6
  8 22  1  0
  9 23  1  0
 10 24  1  0
 10 25  1  0
 11 26  1  0
 11 27  1  0
 12 28  1  0
 12 29  1  0
 14 30  1  0
 18 31  1  0
 18 32  1  0
 18 33  1  0
M  ISO  8  19  14  20  14  21  13  22  13  23  13  24  13  25  13  26  13
M  ISO  7  27  13  28  13  29  13  30  14  31   8  32   8  33   8
M  END
>  <minimizedAffinity>  (1) 
-4.59330559

>  <minimizedRMSD>  (1) 
0.175903499

$$$$
