
     RDKit          3D

 42 43  0  0  1  0  0  0  0  0999 V2000
   45.6710   34.9470   42.6550 C   0  0  2  0  0  0  0  0  0  0  0  0
   44.7140   35.2070   45.0100 C   0  0  0  0  0  0  0  0  0  0  0  0
   45.5380   34.5120   44.0610 C   0  0  0  0  0  0  0  0  0  0  0  0
   46.2140   33.3980   44.5340 C   0  0  0  0  0  0  0  0  0  0  0  0
   46.0530   33.0450   45.8400 N   0  0  0  0  0  0  0  0  0  0  0  0
   45.2760   33.7110   46.7080 C   0  0  0  0  0  0  0  0  0  0  0  0
   44.5850   34.8270   46.2810 N   0  0  0  0  0  0  0  0  0  0  0  0
   46.9960   35.6740   42.5400 C   0  0  0  0  0  0  0  0  0  0  0  0
   47.9120   35.1200   41.6010 N   0  0  0  0  0  0  0  0  0  0  0  0
   49.2450   35.1470   42.1500 C   0  0  0  0  0  0  0  0  0  0  0  0
   49.9860   33.8680   42.1460 C   0  0  0  0  0  0  0  0  0  0  0  0
   49.0480   32.8840   42.4910 O   0  0  0  0  0  0  0  0  0  0  0  0
   48.3070   32.7230   41.3160 C   0  0  0  0  0  0  0  0  0  0  0  0
   47.6060   33.9870   40.8680 C   0  0  2  0  0  0  0  0  0  0  0  0
   48.1450   34.2800   39.4460 C   0  0  0  0  0  0  0  0  0  0  0  0
   44.5500   35.7910   42.2280 C   0  0  0  0  0  0  0  0  0  0  0  0
   43.6840   35.2800   41.2240 N   0  0  0  0  0  0  0  0  0  0  0  0
   42.2470   35.3490   41.3200 C   0  0  0  0  0  0  0  0  0  0  0  0
   41.8430   35.5150   42.5350 N   0  0  0  0  0  0  0  0  0  0  0  0
   41.4550   35.2340   40.1410 N   0  0  0  0  0  0  0  0  0  0  0  0
   40.8590   35.5890   42.8200 H   0  0  0  0  0  0  0  0  0  0  0  0
   45.6482   34.0749   41.9850 H   0  0  0  0  0  0  0  0  0  0  0  0
   44.1624   36.0964   44.6714 H   0  0  0  0  0  0  0  0  0  0  0  0
   46.8660   32.8120   43.8696 H   0  0  0  0  0  0  0  0  0  0  0  0
   45.1905   33.3706   47.7505 H   0  0  0  0  0  0  0  0  0  0  0  0
   46.7896   36.7125   42.2420 H   0  0  0  0  0  0  0  0  0  0  0  0
   47.4784   35.5871   43.5248 H   0  0  0  0  0  0  0  0  0  0  0  0
   49.8310   35.8745   41.5692 H   0  0  0  0  0  0  0  0  0  0  0  0
   49.1175   35.4062   43.2114 H   0  0  0  0  0  0  0  0  0  0  0  0
   50.4011   33.6685   41.1471 H   0  0  0  0  0  0  0  0  0  0  0  0
   50.8315   33.8868   42.8494 H   0  0  0  0  0  0  0  0  0  0  0  0
   48.9890   32.4004   40.5155 H   0  0  0  0  0  0  0  0  0  0  0  0
   47.5268   31.9762   41.5246 H   0  0  0  0  0  0  0  0  0  0  0  0
   46.5253   33.8062   40.9647 H   0  0  0  0  0  0  0  0  0  0  0  0
   49.1092   34.8042   39.5202 H   0  0  0  0  0  0  0  0  0  0  0  0
   48.2832   33.3329   38.9039 H   0  0  0  0  0  0  0  0  0  0  0  0
   47.4253   34.9111   38.9039 H   0  0  0  0  0  0  0  0  0  0  0  0
   43.9364   35.9971   43.1174 H   0  0  0  0  0  0  0  0  0  0  0  0
   45.0236   36.6698   41.7660 H   0  0  0  0  0  0  0  0  0  0  0  0
   44.1012   34.8409   40.3909 H   0  0  0  0  0  0  0  0  0  0  0  0
   40.4281   35.2826   40.2037 H   0  0  0  0  0  0  0  0  0  0  0  0
   41.9095   35.1023   39.2261 H   0  0  0  0  0  0  0  0  0  0  0  0
  1  3  1  0
  2  7  2  0
  3  4  2  0
  3  2  1  0
  4  5  1  0
  5  6  2  0
  7  6  1  0
  8  1  1  0
  9 10  1  0
  9  8  1  0
 11 10  1  0
 11 12  1  0
 13 12  1  0
 14 13  1  0
 14  9  1  0
 15 14  1  0
 16  1  1  0
 17 18  1  0
 17 16  1  0
 18 19  2  0
 19 21  1  0
 20 18  1  0
  1 22  1  6
  2 23  1  0
  4 24  1  0
  6 25  1  0
  8 26  1  0
  8 27  1  0
 10 28  1  0
 10 29  1  0
 11 30  1  0
 11 31  1  0
 13 32  1  0
 13 33  1  0
 14 34  1  6
 15 35  1  0
 15 36  1  0
 15 37  1  0
 16 38  1  0
 16 39  1  0
 17 40  1  0
 20 41  1  0
 20 42  1  0
M  ISO  8  22   8  23  14  24  14  25  14  26   8  27   8  28  13  29  13
M  ISO  8  30  13  31  13  32  13  33  13  34  13  35   8  36   8  37   8
M  ISO  2  38   8  39   8
M  END
>  <minimizedAffinity>  (1) 
-4.99974537

>  <minimizedRMSD>  (1) 
1.35498559

$$$$
