
     RDKit          3D

 42 44  0  0  1  0  0  0  0  0999 V2000
   47.0020   35.6080   42.5660 C   0  0  0  0  0  0  0  0  0  0  0  0
   47.9290   35.1100   41.6040 N   0  0  0  0  0  0  0  0  0  0  0  0
   49.2540   35.1480   42.1520 C   0  0  0  0  0  0  0  0  0  0  0  0
   50.0420   33.9070   42.1250 C   0  0  0  0  0  0  0  0  0  0  0  0
   49.1210   32.8760   42.4330 O   0  0  0  0  0  0  0  0  0  0  0  0
   48.3870   32.7210   41.2710 C   0  0  0  0  0  0  0  0  0  0  0  0
   47.6490   33.9800   40.8470 C   0  0  2  0  0  0  0  0  0  0  0  0
   48.1660   34.3120   39.4360 C   0  0  0  0  0  0  0  0  0  0  0  0
   45.7200   34.8220   42.6860 C   0  0  1  0  0  0  0  0  0  0  0  0
   44.8460   34.9120   45.1040 C   0  0  0  0  0  0  0  0  0  0  0  0
   45.6710   34.3250   44.0830 C   0  0  0  0  0  0  0  0  0  0  0  0
   46.4450   33.2300   44.4990 C   0  0  0  0  0  0  0  0  0  0  0  0
   46.3440   32.8350   45.7940 N   0  0  0  0  0  0  0  0  0  0  0  0
   45.5620   33.4100   46.7100 C   0  0  0  0  0  0  0  0  0  0  0  0
   44.7890   34.4830   46.3530 N   0  0  0  0  0  0  0  0  0  0  0  0
   44.5340   35.6150   42.3790 C   0  0  0  0  0  0  0  0  0  0  0  0
   43.6490   35.1920   41.2780 C   0  0  0  0  0  0  0  0  0  0  0  0
   42.2890   35.4240   41.5780 C   0  0  0  0  0  0  0  0  0  0  0  0
   41.5100   35.0140   40.5230 C   0  0  0  0  0  0  0  0  0  0  0  0
   42.4430   34.5500   39.6300 C   0  0  0  0  0  0  0  0  0  0  0  0
   43.6470   34.6640   40.0860 O   0  0  0  0  0  0  0  0  0  0  0  0
   46.7439   36.6405   42.2878 H   0  0  0  0  0  0  0  0  0  0  0  0
   47.5021   35.5293   43.5426 H   0  0  0  0  0  0  0  0  0  0  0  0
   49.8191   35.9079   41.5923 H   0  0  0  0  0  0  0  0  0  0  0  0
   49.1060   35.3594   43.2213 H   0  0  0  0  0  0  0  0  0  0  0  0
   50.4788   33.7489   41.1279 H   0  0  0  0  0  0  0  0  0  0  0  0
   50.8799   33.9363   42.8371 H   0  0  0  0  0  0  0  0  0  0  0  0
   49.0733   32.4307   40.4619 H   0  0  0  0  0  0  0  0  0  0  0  0
   47.6263   31.9516   41.4693 H   0  0  0  0  0  0  0  0  0  0  0  0
   46.5739   33.7688   40.9444 H   0  0  0  0  0  0  0  0  0  0  0  0
   49.0893   34.9049   39.5139 H   0  0  0  0  0  0  0  0  0  0  0  0
   48.3744   33.3785   38.8928 H   0  0  0  0  0  0  0  0  0  0  0  0
   47.4038   34.8899   38.8928 H   0  0  0  0  0  0  0  0  0  0  0  0
   45.7154   34.0017   41.9531 H   0  0  0  0  0  0  0  0  0  0  0  0
   44.2215   35.7744   44.8276 H   0  0  0  0  0  0  0  0  0  0  0  0
   47.1126   32.7083   43.7974 H   0  0  0  0  0  0  0  0  0  0  0  0
   45.5385   33.0263   47.7407 H   0  0  0  0  0  0  0  0  0  0  0  0
   43.9206   35.6418   43.2917 H   0  0  0  0  0  0  0  0  0  0  0  0
   44.9446   36.5739   42.0298 H   0  0  0  0  0  0  0  0  0  0  0  0
   41.9113   35.8650   42.5123 H   0  0  0  0  0  0  0  0  0  0  0  0
   40.4154   35.0489   40.4202 H   0  0  0  0  0  0  0  0  0  0  0  0
   42.1956   34.1309   38.6435 H   0  0  0  0  0  0  0  0  0  0  0  0
  1  9  1  0
  2  3  1  0
  2  1  1  0
  4  3  1  0
  4  5  1  0
  6  5  1  0
  7  6  1  0
  7  2  1  0
  8  7  1  0
  9 11  1  0
 10 15  2  0
 11 12  2  0
 11 10  1  0
 12 13  1  0
 13 14  2  0
 15 14  1  0
 16  9  1  0
 17 18  2  0
 17 16  1  0
 19 18  1  0
 20 21  1  0
 20 19  2  0
 21 17  1  0
  1 22  1  0
  1 23  1  0
  3 24  1  0
  3 25  1  0
  4 26  1  0
  4 27  1  0
  6 28  1  0
  6 29  1  0
  7 30  1  6
  8 31  1  0
  8 32  1  0
  8 33  1  0
  9 34  1  6
 10 35  1  0
 12 36  1  0
 14 37  1  0
 16 38  1  0
 16 39  1  0
 18 40  1  0
 19 41  1  0
 20 42  1  0
M  ISO  8  22   8  23   8  24  13  25  13  26  13  27  13  28  13  29  13
M  ISO  8  30  13  31   8  32   8  33   8  34   8  35  14  36  14  37  14
M  ISO  5  38   8  39   8  40  14  41  14  42  14
M  END
>  <minimizedAffinity>  (1) 
-4.99375343

>  <minimizedRMSD>  (1) 
2.10482717

$$$$
