
     RDKit          3D

 27 28  0  0  0  0  0  0  0  0999 V2000
   46.9520   34.8050   42.1110 C   0  0  0  0  0  0  0  0  0  0  0  0
   48.2550   35.2410   41.9390 C   0  0  0  0  0  0  0  0  0  0  0  0
   48.5200   34.9230   40.5940 C   0  0  0  0  0  0  0  0  0  0  0  0
   47.4000   34.3310   40.0490 C   0  0  0  0  0  0  0  0  0  0  0  0
   46.5090   34.2950   41.0120 O   0  0  0  0  0  0  0  0  0  0  0  0
   44.4890   35.9250   44.6620 C   0  0  0  0  0  0  0  0  0  0  0  0
   45.2340   35.8980   43.4500 C   0  0  0  0  0  0  0  0  0  0  0  0
   46.1540   34.8850   43.3330 C   0  0  0  0  0  0  0  0  0  0  0  0
   46.3390   33.9580   44.3290 N   0  0  0  0  0  0  0  0  0  0  0  0
   45.5900   34.0410   45.4670 C   0  0  0  0  0  0  0  0  0  0  0  0
   44.6700   35.0220   45.6270 N   0  0  0  0  0  0  0  0  0  0  0  0
   45.8500   32.9990   46.4940 C   0  0  0  0  0  0  0  0  0  0  0  0
   47.1550   33.0620   46.9620 F   0  0  0  0  0  0  0  0  0  0  0  0
   44.9560   33.0910   47.5560 F   0  0  0  0  0  0  0  0  0  0  0  0
   45.6890   31.7560   45.9150 F   0  0  0  0  0  0  0  0  0  0  0  0
   47.2540   33.8650   38.7290 N   0  0  0  0  0  0  0  0  0  0  0  0
   48.2810   33.9830   37.7590 C   0  0  0  0  0  0  0  0  0  0  0  0
   49.0300   35.0570   37.8080 N   0  0  0  0  0  0  0  0  0  0  0  0
   48.4330   32.9310   36.7940 N   0  0  0  0  0  0  0  0  0  0  0  0
   49.7970   35.1120   37.1120 H   0  0  0  0  0  0  0  0  0  0  0  0
   48.9199   35.7188   42.6736 H   0  0  0  0  0  0  0  0  0  0  0  0
   49.4649   35.1150   40.0646 H   0  0  0  0  0  0  0  0  0  0  0  0
   43.7392   36.7165   44.8080 H   0  0  0  0  0  0  0  0  0  0  0  0
   45.0823   36.6431   42.6551 H   0  0  0  0  0  0  0  0  0  0  0  0
   46.3656   33.4205   38.4569 H   0  0  0  0  0  0  0  0  0  0  0  0
   47.8047   32.1152   36.8182 H   0  0  0  0  0  0  0  0  0  0  0  0
   49.1704   32.9921   36.0774 H   0  0  0  0  0  0  0  0  0  0  0  0
  1  8  1  0
  2  1  2  0
  3  2  1  0
  4  3  2  0
  4  5  1  0
  5  1  1  0
  6 11  2  0
  7  6  1  0
  8  7  2  0
  8  9  1  0
  9 10  2  0
 10 11  1  0
 10 12  1  0
 12 13  1  0
 12 14  1  0
 15 12  1  0
 16  4  1  0
 17 18  2  0
 17 16  1  0
 19 17  1  0
 20 18  1  0
  2 21  1  0
  3 22  1  0
  6 23  1  0
  7 24  1  0
 16 25  1  0
 19 26  1  0
 19 27  1  0
M  ISO  4  21  14  22  14  23  14  24  14
M  END
>  <minimizedAffinity>  (1) 
-6.5907464

>  <minimizedRMSD>  (1) 
0.406294405

$$$$
