
     RDKit          3D

 31 33  0  0  0  0  0  0  0  0999 V2000
   46.9500   34.7940   42.0840 C   0  0  0  0  0  0  0  0  0  0  0  0
   48.2830   35.1340   41.9450 C   0  0  0  0  0  0  0  0  0  0  0  0
   48.5570   34.8140   40.6100 C   0  0  0  0  0  0  0  0  0  0  0  0
   47.4140   34.3130   40.0310 C   0  0  0  0  0  0  0  0  0  0  0  0
   46.4830   34.3290   40.9750 O   0  0  0  0  0  0  0  0  0  0  0  0
   44.4420   36.0110   44.5450 C   0  0  0  0  0  0  0  0  0  0  0  0
   45.2060   35.9270   43.3520 C   0  0  0  0  0  0  0  0  0  0  0  0
   46.1390   34.9220   43.2910 C   0  0  0  0  0  0  0  0  0  0  0  0
   46.3050   34.0620   44.3370 N   0  0  0  0  0  0  0  0  0  0  0  0
   45.5510   34.1780   45.4640 C   0  0  0  0  0  0  0  0  0  0  0  0
   44.6170   35.1610   45.5610 N   0  0  0  0  0  0  0  0  0  0  0  0
   45.8920   33.1600   46.4520 C   0  0  0  0  0  0  0  0  0  0  0  0
   46.9080   32.2200   46.5700 C   0  0  0  0  0  0  0  0  0  0  0  0
   46.6980   31.5240   47.7450 C   0  0  0  0  0  0  0  0  0  0  0  0
   45.5500   32.0770   48.2970 C   0  0  0  0  0  0  0  0  0  0  0  0
   45.1240   33.0240   47.5010 O   0  0  0  0  0  0  0  0  0  0  0  0
   47.2610   33.8730   38.7010 N   0  0  0  0  0  0  0  0  0  0  0  0
   48.3010   34.0070   37.7390 C   0  0  0  0  0  0  0  0  0  0  0  0
   49.0440   35.0750   37.7950 N   0  0  0  0  0  0  0  0  0  0  0  0
   48.4730   32.9680   36.7650 N   0  0  0  0  0  0  0  0  0  0  0  0
   49.8140   35.1410   37.1100 H   0  0  0  0  0  0  0  0  0  0  0  0
   48.9633   35.5541   42.7004 H   0  0  0  0  0  0  0  0  0  0  0  0
   49.5267   34.9421   40.1067 H   0  0  0  0  0  0  0  0  0  0  0  0
   43.6818   36.8008   44.6362 H   0  0  0  0  0  0  0  0  0  0  0  0
   45.0582   36.6306   42.5195 H   0  0  0  0  0  0  0  0  0  0  0  0
   47.7304   32.0590   45.8574 H   0  0  0  0  0  0  0  0  0  0  0  0
   47.3093   30.7068   48.1554 H   0  0  0  0  0  0  0  0  0  0  0  0
   45.0789   31.7709   49.2427 H   0  0  0  0  0  0  0  0  0  0  0  0
   46.3699   33.4416   38.4168 H   0  0  0  0  0  0  0  0  0  0  0  0
   47.8517   32.1465   36.7731 H   0  0  0  0  0  0  0  0  0  0  0  0
   49.2178   33.0435   36.0575 H   0  0  0  0  0  0  0  0  0  0  0  0
  1  8  1  0
  2  1  2  0
  3  2  1  0
  4  3  2  0
  4  5  1  0
  5  1  1  0
  6 11  2  0
  7  6  1  0
  8  7  2  0
  8  9  1  0
  9 10  2  0
 10 11  1  0
 10 12  1  0
 12 13  2  0
 12 16  1  0
 13 14  1  0
 14 15  2  0
 16 15  1  0
 17  4  1  0
 18 19  2  0
 18 17  1  0
 20 18  1  0
 21 19  1  0
  2 22  1  0
  3 23  1  0
  6 24  1  0
  7 25  1  0
 13 26  1  0
 14 27  1  0
 15 28  1  0
 17 29  1  0
 20 30  1  0
 20 31  1  0
M  ISO  7  22  14  23  14  24  14  25  14  26  14  27  14  28  14
M  END
>  <minimizedAffinity>  (1) 
-6.78894424

>  <minimizedRMSD>  (1) 
0.265028596

$$$$
