
     RDKit          3D

 24 26  0  0  0  0  0  0  0  0999 V2000
   46.2950   31.8830   45.1370 C   0  0  0  0  0  0  0  0  0  0  0  0
   46.6630   32.9080   44.2370 C   0  0  0  0  0  0  0  0  0  0  0  0
   47.7410   32.6990   43.3920 C   0  0  0  0  0  0  0  0  0  0  0  0
   48.3970   31.5200   43.4630 N   0  0  0  0  0  0  0  0  0  0  0  0
   48.0280   30.5430   44.3360 C   0  0  0  0  0  0  0  0  0  0  0  0
   46.9840   30.7280   45.1650 N   0  0  0  0  0  0  0  0  0  0  0  0
   48.1140   33.7550   42.4710 C   0  0  0  0  0  0  0  0  0  0  0  0
   49.0110   34.7830   42.7230 C   0  0  0  0  0  0  0  0  0  0  0  0
   49.0190   35.5130   41.5480 C   0  0  0  0  0  0  0  0  0  0  0  0
   48.1340   34.8910   40.6510 C   0  0  0  0  0  0  0  0  0  0  0  0
   47.6130   33.8280   41.2650 O   0  0  0  0  0  0  0  0  0  0  0  0
   45.8940   34.0910   44.2640 N   0  0  0  0  0  0  0  0  0  0  0  0
   45.5300   35.1150   43.4380 C   0  0  0  0  0  0  0  0  0  0  0  0
   44.7290   35.9730   44.1510 C   0  0  0  0  0  0  0  0  0  0  0  0
   44.6010   35.4840   45.3990 N   0  0  0  0  0  0  0  0  0  0  0  0
   45.3180   34.3360   45.4500 C   0  0  0  0  0  0  0  0  0  0  0  0
   45.4427   32.0298   45.8167 H   0  0  0  0  0  0  0  0  0  0  0  0
   48.5868   29.5959   44.3641 H   0  0  0  0  0  0  0  0  0  0  0  0
   49.5829   34.9733   43.6432 H   0  0  0  0  0  0  0  0  0  0  0  0
   49.6120   36.4183   41.3511 H   0  0  0  0  0  0  0  0  0  0  0  0
   47.9109   35.2217   39.6259 H   0  0  0  0  0  0  0  0  0  0  0  0
   45.8264   35.2324   42.3852 H   0  0  0  0  0  0  0  0  0  0  0  0
   44.2720   36.8979   43.7693 H   0  0  0  0  0  0  0  0  0  0  0  0
   45.4142   33.6951   46.3388 H   0  0  0  0  0  0  0  0  0  0  0  0
  1  6  2  0
  2 12  1  0
  2  1  1  0
  3  4  1  0
  3  2  2  0
  4  5  2  0
  5  6  1  0
  7  8  2  0
  7  3  1  0
  9  8  1  0
 10 11  1  0
 10  9  2  0
 11  7  1  0
 12 16  1  0
 13 14  2  0
 13 12  1  0
 14 15  1  0
 15 16  2  0
  1 17  1  0
  5 18  1  0
  8 19  1  0
  9 20  1  0
 10 21  1  0
 13 22  1  0
 14 23  1  0
 16 24  1  0
M  ISO  8  17  14  18  14  19  14  20  14  21  14  22  14  23  14  24  14
M  END
>  <minimizedAffinity>  (1) 
-4.59829903

>  <minimizedRMSD>  (1) 
3.47604179

$$$$
