
     RDKit          3D

 24 25  0  0  0  0  0  0  0  0999 V2000
   44.3910   35.4510   44.7820 C   0  0  0  0  0  0  0  0  0  0  0  0
   44.9640   35.3830   43.4880 C   0  0  0  0  0  0  0  0  0  0  0  0
   46.0880   34.5450   43.3720 C   0  0  0  0  0  0  0  0  0  0  0  0
   46.5540   33.8750   44.4390 N   0  0  0  0  0  0  0  0  0  0  0  0
   45.9510   33.9900   45.6580 C   0  0  0  0  0  0  0  0  0  0  0  0
   44.8760   34.7720   45.8290 N   0  0  0  0  0  0  0  0  0  0  0  0
   46.7110   34.4460   42.0480 C   0  0  0  0  0  0  0  0  0  0  0  0
   47.9330   34.9840   41.6770 C   0  0  0  0  0  0  0  0  0  0  0  0
   48.0660   34.6220   40.3530 C   0  0  0  0  0  0  0  0  0  0  0  0
   46.9350   33.8950   39.9960 C   0  0  0  0  0  0  0  0  0  0  0  0
   46.1390   33.8140   41.0660 O   0  0  0  0  0  0  0  0  0  0  0  0
   44.4850   36.0590   42.3650 N   0  0  0  0  0  0  0  0  0  0  0  0
   43.3660   35.6310   41.6130 C   0  0  0  0  0  0  0  0  0  0  0  0
   42.2860   35.3530   42.2460 N   0  0  0  0  0  0  0  0  0  0  0  0
   43.4350   35.5260   40.1880 N   0  0  0  0  0  0  0  0  0  0  0  0
   42.1210   35.4020   43.2550 H   0  0  0  0  0  0  0  0  0  0  0  0
   43.5085   36.0900   44.9331 H   0  0  0  0  0  0  0  0  0  0  0  0
   46.3544   33.4310   46.5152 H   0  0  0  0  0  0  0  0  0  0  0  0
   48.6338   35.5647   42.2948 H   0  0  0  0  0  0  0  0  0  0  0  0
   48.9146   34.8647   39.6966 H   0  0  0  0  0  0  0  0  0  0  0  0
   46.7315   33.4622   39.0054 H   0  0  0  0  0  0  0  0  0  0  0  0
   44.9727   36.9161   42.0676 H   0  0  0  0  0  0  0  0  0  0  0  0
   44.3112   35.7535   39.6967 H   0  0  0  0  0  0  0  0  0  0  0  0
   42.6085   35.2229   39.6533 H   0  0  0  0  0  0  0  0  0  0  0  0
  1  6  2  0
  2  1  1  0
  3  2  2  0
  3  4  1  0
  4  5  2  0
  5  6  1  0
  7  3  1  0
  8  7  2  0
  9  8  1  0
 10  9  2  0
 10 11  1  0
 11  7  1  0
 12  2  1  0
 13 14  2  0
 13 12  1  0
 14 16  1  0
 15 13  1  0
  1 17  1  0
  5 18  1  0
  8 19  1  0
  9 20  1  0
 10 21  1  0
 12 22  1  0
 15 23  1  0
 15 24  1  0
M  ISO  5  17  14  18  14  19  14  20  14  21  14
M  END
>  <minimizedAffinity>  (1) 
-5.19238567

>  <minimizedRMSD>  (1) 
0.903123736

$$$$
