
     RDKit          3D

 18 19  0  0  0  0  0  0  0  0999 V2000
   44.4900   35.6690   44.9210 C   0  0  0  0  0  0  0  0  0  0  0  0
   45.1800   35.6920   43.6680 C   0  0  0  0  0  0  0  0  0  0  0  0
   46.1630   34.7150   43.4940 C   0  0  0  0  0  0  0  0  0  0  0  0
   46.3980   33.8320   44.4890 N   0  0  0  0  0  0  0  0  0  0  0  0
   45.7150   33.8490   45.6640 C   0  0  0  0  0  0  0  0  0  0  0  0
   44.7620   34.7770   45.8680 N   0  0  0  0  0  0  0  0  0  0  0  0
   46.8930   34.6920   42.2410 C   0  0  0  0  0  0  0  0  0  0  0  0
   48.1560   35.1700   42.0070 C   0  0  0  0  0  0  0  0  0  0  0  0
   48.3870   34.9120   40.6710 C   0  0  0  0  0  0  0  0  0  0  0  0
   47.2400   34.2820   40.1540 C   0  0  0  0  0  0  0  0  0  0  0  0
   46.3760   34.1770   41.1490 O   0  0  0  0  0  0  0  0  0  0  0  0
   44.8580   36.6400   42.7220 O   0  0  0  0  0  0  0  0  0  0  0  0
   43.7054   36.4171   45.1075 H   0  0  0  0  0  0  0  0  0  0  0  0
   45.9402   33.1075   46.4447 H   0  0  0  0  0  0  0  0  0  0  0  0
   48.8353   35.6525   42.7251 H   0  0  0  0  0  0  0  0  0  0  0  0
   49.3024   35.1550   40.1115 H   0  0  0  0  0  0  0  0  0  0  0  0
   47.0906   33.9416   39.1187 H   0  0  0  0  0  0  0  0  0  0  0  0
   45.3354   36.6561   41.8549 H   0  0  0  0  0  0  0  0  0  0  0  0
  1  6  2  0
  2  1  1  0
  3  2  2  0
  3  4  1  0
  4  5  2  0
  5  6  1  0
  7  3  1  0
  8  7  2  0
  9  8  1  0
 10  9  2  0
 10 11  1  0
 11  7  1  0
 12  2  1  0
  1 13  1  0
  5 14  1  0
  8 15  1  0
  9 16  1  0
 10 17  1  0
 12 18  1  0
M  ISO  6  13  14  14  14  15  14  16  14  17  14  18   3
M  END
>  <minimizedAffinity>  (1) 
-4.56306744

>  <minimizedRMSD>  (1) 
0.402384847

$$$$
