
     RDKit          3D

 33 36  0  0  0  0  0  0  0  0999 V2000
   44.7370   34.6130   43.3130 C   0  0  0  0  0  0  0  0  0  0  0  0
   44.6860   34.0050   42.0260 C   0  0  0  0  0  0  0  0  0  0  0  0
   45.8720   33.4010   41.5770 C   0  0  0  0  0  0  0  0  0  0  0  0
   46.9530   33.4320   42.3700 N   0  0  0  0  0  0  0  0  0  0  0  0
   46.9700   34.0180   43.5870 C   0  0  0  0  0  0  0  0  0  0  0  0
   45.8410   34.6120   44.0520 N   0  0  0  0  0  0  0  0  0  0  0  0
   43.4640   34.0250   41.2280 C   0  0  0  0  0  0  0  0  0  0  0  0
   43.3010   35.1340   40.4140 C   0  0  0  0  0  0  0  0  0  0  0  0
   42.1940   35.2350   39.6270 C   0  0  0  0  0  0  0  0  0  0  0  0
   41.2130   34.2550   39.6140 C   0  0  0  0  0  0  0  0  0  0  0  0
   41.3760   33.1570   40.4210 C   0  0  0  0  0  0  0  0  0  0  0  0
   40.4880   32.0960   40.5190 C   0  0  0  0  0  0  0  0  0  0  0  0
   40.6710   31.0130   41.3280 C   0  0  0  0  0  0  0  0  0  0  0  0
   41.8060   30.9420   42.1140 C   0  0  0  0  0  0  0  0  0  0  0  0
   42.7220   31.9580   42.0650 C   0  0  0  0  0  0  0  0  0  0  0  0
   42.4940   33.0340   41.2310 C   0  0  0  0  0  0  0  0  0  0  0  0
   45.8560   32.7740   40.2680 C   0  0  0  0  0  0  0  0  0  0  0  0
   46.2210   33.3880   39.0720 C   0  0  0  0  0  0  0  0  0  0  0  0
   46.0250   32.3650   38.1340 C   0  0  0  0  0  0  0  0  0  0  0  0
   45.5680   31.2330   38.8060 C   0  0  0  0  0  0  0  0  0  0  0  0
   45.4850   31.5390   40.0990 O   0  0  0  0  0  0  0  0  0  0  0  0
   43.8328   35.0992   43.7079 H   0  0  0  0  0  0  0  0  0  0  0  0
   47.8874   34.0140   44.1940 H   0  0  0  0  0  0  0  0  0  0  0  0
   44.0615   35.9287   40.4033 H   0  0  0  0  0  0  0  0  0  0  0  0
   42.0747   36.1191   38.9834 H   0  0  0  0  0  0  0  0  0  0  0  0
   40.3253   34.3553   38.9721 H   0  0  0  0  0  0  0  0  0  0  0  0
   39.5765   32.1301   39.9041 H   0  0  0  0  0  0  0  0  0  0  0  0
   39.9243   30.2057   41.3546 H   0  0  0  0  0  0  0  0  0  0  0  0
   41.9715   30.0768   42.7729 H   0  0  0  0  0  0  0  0  0  0  0  0
   43.6305   31.9174   42.6839 H   0  0  0  0  0  0  0  0  0  0  0  0
   46.5740   34.4164   38.9056 H   0  0  0  0  0  0  0  0  0  0  0  0
   46.2019   32.4426   37.0511 H   0  0  0  0  0  0  0  0  0  0  0  0
   45.3207   30.2627   38.3507 H   0  0  0  0  0  0  0  0  0  0  0  0
  1  6  2  0
  2  1  1  0
  3  2  2  0
  3  4  1  0
  4  5  2  0
  5  6  1  0
  7 16  1  0
  7  2  1  0
  8  7  2  0
  9  8  1  0
 10  9  2  0
 10 11  1  0
 11 12  1  0
 11 16  2  0
 12 13  2  0
 13 14  1  0
 15 14  2  0
 16 15  1  0
 17  3  1  0
 18 17  2  0
 19 20  2  0
 19 18  1  0
 20 21  1  0
 21 17  1  0
  1 22  1  0
  5 23  1  0
  8 24  1  0
  9 25  1  0
 10 26  1  0
 12 27  1  0
 13 28  1  0
 14 29  1  0
 15 30  1  0
 18 31  1  0
 19 32  1  0
 20 33  1  0
M  ISO  8  22  14  23  14  24  14  25  14  26  14  27  14  28  14  29  14
M  ISO  4  30  14  31  14  32  14  33  14
M  END
>  <minimizedAffinity>  (1) 
-4.14452982

>  <minimizedRMSD>  (1) 
4.20005655

$$$$
