
     RDKit          3D

 31 34  0  0  0  0  0  0  0  0999 V2000
   44.1740   35.1040   43.9790 C   0  0  0  0  0  0  0  0  0  0  0  0
   44.5040   34.3540   42.8270 C   0  0  0  0  0  0  0  0  0  0  0  0
   45.5840   33.4910   42.8950 C   0  0  0  0  0  0  0  0  0  0  0  0
   46.2670   33.4100   44.0530 N   0  0  0  0  0  0  0  0  0  0  0  0
   45.9390   34.1370   45.1490 C   0  0  0  0  0  0  0  0  0  0  0  0
   44.8820   34.9880   45.1010 N   0  0  0  0  0  0  0  0  0  0  0  0
   43.7060   34.5250   41.6600 N   0  0  0  0  0  0  0  0  0  0  0  0
   43.7170   35.4690   40.7040 C   0  0  0  0  0  0  0  0  0  0  0  0
   42.7680   35.2230   39.7760 N   0  0  0  0  0  0  0  0  0  0  0  0
   42.1230   34.0990   40.1300 C   0  0  0  0  0  0  0  0  0  0  0  0
   41.0810   33.4180   39.5350 C   0  0  0  0  0  0  0  0  0  0  0  0
   40.5550   33.8200   38.4680 O   0  0  0  0  0  0  0  0  0  0  0  0
   40.5910   32.2940   40.0800 N   0  0  0  0  0  0  0  0  0  0  0  0
   41.1950   31.9040   41.2310 C   0  0  0  0  0  0  0  0  0  0  0  0
   40.8110   30.7280   41.9630 N   0  0  0  0  0  0  0  0  0  0  0  0
   42.2250   32.5580   41.8380 N   0  0  0  0  0  0  0  0  0  0  0  0
   42.7240   33.6740   41.3130 C   0  0  0  0  0  0  0  0  0  0  0  0
   45.9300   32.7150   41.7180 C   0  0  0  0  0  0  0  0  0  0  0  0
   46.7480   33.1130   40.6820 C   0  0  0  0  0  0  0  0  0  0  0  0
   46.7590   32.0320   39.8180 C   0  0  0  0  0  0  0  0  0  0  0  0
   45.9420   31.0300   40.3810 C   0  0  0  0  0  0  0  0  0  0  0  0
   45.4760   31.5060   41.5230 O   0  0  0  0  0  0  0  0  0  0  0  0
   43.3184   35.7947   43.9481 H   0  0  0  0  0  0  0  0  0  0  0  0
   46.5267   34.0380   46.0735 H   0  0  0  0  0  0  0  0  0  0  0  0
   44.4060   36.3262   40.6807 H   0  0  0  0  0  0  0  0  0  0  0  0
   39.8143   31.7665   39.6564 H   0  0  0  0  0  0  0  0  0  0  0  0
   41.3042   30.4784   42.8321 H   0  0  0  0  0  0  0  0  0  0  0  0
   40.0426   30.1349   41.6184 H   0  0  0  0  0  0  0  0  0  0  0  0
   47.2732   34.0728   40.5680 H   0  0  0  0  0  0  0  0  0  0  0  0
   47.3055   31.9664   38.8656 H   0  0  0  0  0  0  0  0  0  0  0  0
   45.7321   30.0394   39.9512 H   0  0  0  0  0  0  0  0  0  0  0  0
  1  6  2  0
  2  3  2  0
  2  1  1  0
  3  4  1  0
  4  5  2  0
  6  5  1  0
  7  2  1  0
  8  7  1  0
  9 10  1  0
  9  8  2  0
 10 17  2  0
 11 13  1  0
 11 10  1  0
 12 11  2  0
 13 14  1  0
 14 16  2  0
 14 15  1  0
 17  7  1  0
 17 16  1  0
 18  3  1  0
 19 18  2  0
 20 21  2  0
 20 19  1  0
 21 22  1  0
 22 18  1  0
  1 23  1  0
  5 24  1  0
  8 25  1  0
 13 26  1  0
 15 27  1  0
 15 28  1  0
 19 29  1  0
 20 30  1  0
 21 31  1  0
M  ISO  7  23  14  24  14  25  14  26   9  29  14  30  14  31  14
M  END
>  <minimizedAffinity>  (1) 
-3.89996243

>  <minimizedRMSD>  (1) 
3.62950087

$$$$
