
     RDKit          3D

 27 29  0  0  0  0  0  0  0  0999 V2000
   45.2260   33.5350   46.2900 C   0  0  0  0  0  0  0  0  0  0  0  0
   45.8540   33.4710   45.0190 C   0  0  0  0  0  0  0  0  0  0  0  0
   47.0030   32.7070   44.9040 C   0  0  0  0  0  0  0  0  0  0  0  0
   47.4800   32.0530   46.0010 N   0  0  0  0  0  0  0  0  0  0  0  0
   46.8500   32.1360   47.2120 C   0  0  0  0  0  0  0  0  0  0  0  0
   45.7310   32.8750   47.3470 N   0  0  0  0  0  0  0  0  0  0  0  0
   47.6600   32.6250   43.6180 C   0  0  0  0  0  0  0  0  0  0  0  0
   48.4750   33.5620   43.0410 C   0  0  0  0  0  0  0  0  0  0  0  0
   48.8500   33.0250   41.8260 C   0  0  0  0  0  0  0  0  0  0  0  0
   48.2330   31.7690   41.7250 C   0  0  0  0  0  0  0  0  0  0  0  0
   47.5300   31.5820   42.8350 O   0  0  0  0  0  0  0  0  0  0  0  0
   45.2450   34.2200   43.9260 C   0  0  0  0  0  0  0  0  0  0  0  0
   45.2900   35.5930   43.8030 C   0  0  0  0  0  0  0  0  0  0  0  0
   44.7130   36.2960   42.7630 C   0  0  0  0  0  0  0  0  0  0  0  0
   44.0520   35.5540   41.7920 C   0  0  0  0  0  0  0  0  0  0  0  0
   43.9790   34.1740   41.8720 C   0  0  0  0  0  0  0  0  0  0  0  0
   44.5710   33.4980   42.9350 C   0  0  0  0  0  0  0  0  0  0  0  0
   44.3116   34.1341   46.4124 H   0  0  0  0  0  0  0  0  0  0  0  0
   47.2584   31.5972   48.0797 H   0  0  0  0  0  0  0  0  0  0  0  0
   48.7688   34.5367   43.4577 H   0  0  0  0  0  0  0  0  0  0  0  0
   49.5077   33.4930   41.0788 H   0  0  0  0  0  0  0  0  0  0  0  0
   48.3166   31.0683   40.8812 H   0  0  0  0  0  0  0  0  0  0  0  0
   45.8180   36.1637   44.5812 H   0  0  0  0  0  0  0  0  0  0  0  0
   44.7741   37.3928   42.7063 H   0  0  0  0  0  0  0  0  0  0  0  0
   43.5785   36.0721   40.9450 H   0  0  0  0  0  0  0  0  0  0  0  0
   43.4500   33.6083   41.0909 H   0  0  0  0  0  0  0  0  0  0  0  0
   44.5093   32.4014   42.9957 H   0  0  0  0  0  0  0  0  0  0  0  0
  1  6  2  0
  2  1  1  0
  3  2  2  0
  3  4  1  0
  4  5  2  0
  5  6  1  0
  7  3  1  0
  8  7  2  0
  9  8  1  0
 10  9  2  0
 10 11  1  0
 11  7  1  0
 12  2  1  0
 13 12  2  0
 14 13  1  0
 15 16  1  0
 15 14  2  0
 16 17  2  0
 17 12  1  0
  1 18  1  0
  5 19  1  0
  8 20  1  0
  9 21  1  0
 10 22  1  0
 13 23  1  0
 14 24  1  0
 15 25  1  0
 16 26  1  0
 17 27  1  0
M  ISO  8  18  14  19  14  20  14  21  14  22  14  23  14  24  14  25  14
M  ISO  2  26  14  27  14
M  END
>  <minimizedAffinity>  (1) 
-4.0105629

>  <minimizedRMSD>  (1) 
3.11762929

$$$$
