
     RDKit          3D

 41 43  0  0  1  0  0  0  0  0999 V2000
   47.0310   35.6210   42.6200 C   0  0  0  0  0  0  0  0  0  0  0  0
   47.9360   35.0980   41.6510 N   0  0  0  0  0  0  0  0  0  0  0  0
   49.2790   35.1540   42.1610 C   0  0  0  0  0  0  0  0  0  0  0  0
   50.0530   33.8950   42.1210 C   0  0  0  0  0  0  0  0  0  0  0  0
   49.1450   32.8750   42.4620 O   0  0  0  0  0  0  0  0  0  0  0  0
   48.3820   32.7200   41.3170 C   0  0  0  0  0  0  0  0  0  0  0  0
   47.6420   33.9720   40.9130 C   0  0  2  0  0  0  0  0  0  0  0  0
   48.1250   34.3030   39.4790 C   0  0  0  0  0  0  0  0  0  0  0  0
   45.7220   34.8650   42.7600 C   0  0  1  0  0  0  0  0  0  0  0  0
   44.8720   34.8790   45.1580 C   0  0  0  0  0  0  0  0  0  0  0  0
   45.6800   34.3330   44.1200 C   0  0  0  0  0  0  0  0  0  0  0  0
   46.4550   33.2280   44.5020 C   0  0  0  0  0  0  0  0  0  0  0  0
   46.3710   32.7870   45.7850 N   0  0  0  0  0  0  0  0  0  0  0  0
   45.5930   33.3340   46.7270 C   0  0  0  0  0  0  0  0  0  0  0  0
   44.8110   34.4240   46.4030 N   0  0  0  0  0  0  0  0  0  0  0  0
   44.5600   35.7040   42.4720 C   0  0  0  0  0  0  0  0  0  0  0  0
   43.6510   35.2490   41.4540 N   0  0  0  0  0  0  0  0  0  0  0  0
   42.3370   35.4520   41.2430 C   0  0  0  0  0  0  0  0  0  0  0  0
   41.9490   34.7840   40.1190 N   0  0  0  0  0  0  0  0  0  0  0  0
   43.0480   34.1690   39.6470 C   0  0  0  0  0  0  0  0  0  0  0  0
   44.0590   34.4530   40.4520 N   0  0  0  0  0  0  0  0  0  0  0  0
   46.7959   36.6585   42.3403 H   0  0  0  0  0  0  0  0  0  0  0  0
   47.5397   35.5307   43.5911 H   0  0  0  0  0  0  0  0  0  0  0  0
   49.8289   35.9032   41.5725 H   0  0  0  0  0  0  0  0  0  0  0  0
   49.1750   35.3979   43.2286 H   0  0  0  0  0  0  0  0  0  0  0  0
   50.4575   33.7261   41.1121 H   0  0  0  0  0  0  0  0  0  0  0  0
   50.9079   33.9235   42.8126 H   0  0  0  0  0  0  0  0  0  0  0  0
   49.0479   32.4274   40.4918 H   0  0  0  0  0  0  0  0  0  0  0  0
   47.6248   31.9522   41.5341 H   0  0  0  0  0  0  0  0  0  0  0  0
   46.5705   33.7595   41.0424 H   0  0  0  0  0  0  0  0  0  0  0  0
   49.0313   34.9241   39.5316 H   0  0  0  0  0  0  0  0  0  0  0  0
   48.3511   33.3691   38.9435 H   0  0  0  0  0  0  0  0  0  0  0  0
   47.3356   34.8508   38.9435 H   0  0  0  0  0  0  0  0  0  0  0  0
   45.6775   34.0507   42.0218 H   0  0  0  0  0  0  0  0  0  0  0  0
   44.2474   35.7490   44.9071 H   0  0  0  0  0  0  0  0  0  0  0  0
   47.1166   32.7290   43.7787 H   0  0  0  0  0  0  0  0  0  0  0  0
   45.5772   32.9201   47.7460 H   0  0  0  0  0  0  0  0  0  0  0  0
   43.9865   35.8050   43.4052 H   0  0  0  0  0  0  0  0  0  0  0  0
   44.9802   36.6402   42.0759 H   0  0  0  0  0  0  0  0  0  0  0  0
   41.6784   36.0621   41.8786 H   0  0  0  0  0  0  0  0  0  0  0  0
   43.0978   33.5386   38.7469 H   0  0  0  0  0  0  0  0  0  0  0  0
  1  9  1  0
  2  3  1  0
  2  1  1  0
  4  3  1  0
  4  5  1  0
  6  5  1  0
  7  6  1  0
  7  2  1  0
  8  7  1  0
  9 11  1  0
 10 15  2  0
 11 12  2  0
 11 10  1  0
 12 13  1  0
 13 14  2  0
 15 14  1  0
 16  9  1  0
 17 16  1  0
 18 17  1  0
 19 18  2  0
 20 19  1  0
 20 21  2  0
 21 17  1  0
  1 22  1  0
  1 23  1  0
  3 24  1  0
  3 25  1  0
  4 26  1  0
  4 27  1  0
  6 28  1  0
  6 29  1  0
  7 30  1  6
  8 31  1  0
  8 32  1  0
  8 33  1  0
  9 34  1  6
 10 35  1  0
 12 36  1  0
 14 37  1  0
 16 38  1  0
 16 39  1  0
 18 40  1  0
 20 41  1  0
M  ISO  8  22   8  23   8  24  13  25  13  26  13  27  13  28  13  29  13
M  ISO  8  30  13  31   8  32   8  33   8  34   8  35  14  36  14  37  14
M  ISO  4  38   8  39   8  40  14  41  14
M  END
>  <minimizedAffinity>  (1) 
-4.78434181

>  <minimizedRMSD>  (1) 
2.20148516

$$$$
