
     RDKit          3D

 30 32  0  0  0  0  0  0  0  0999 V2000
   44.3190   35.0750   42.9480 C   0  0  0  0  0  0  0  0  0  0  0  0
   44.9630   33.8220   43.0870 C   0  0  0  0  0  0  0  0  0  0  0  0
   45.4390   33.4800   44.3480 C   0  0  0  0  0  0  0  0  0  0  0  0
   45.2740   34.3420   45.3820 N   0  0  0  0  0  0  0  0  0  0  0  0
   44.6470   35.5360   45.1980 C   0  0  0  0  0  0  0  0  0  0  0  0
   44.1710   35.9020   43.9860 N   0  0  0  0  0  0  0  0  0  0  0  0
   46.1040   32.1930   44.5010 C   0  0  0  0  0  0  0  0  0  0  0  0
   47.4710   31.9580   44.4800 C   0  0  0  0  0  0  0  0  0  0  0  0
   47.6130   30.6140   44.6610 C   0  0  0  0  0  0  0  0  0  0  0  0
   46.3230   30.0970   44.7840 C   0  0  0  0  0  0  0  0  0  0  0  0
   45.4530   31.0890   44.6810 O   0  0  0  0  0  0  0  0  0  0  0  0
   45.1280   32.9280   41.9820 C   0  0  0  0  0  0  0  0  0  0  0  0
   44.1440   32.3080   41.5570 O   0  0  0  0  0  0  0  0  0  0  0  0
   46.3460   32.7330   41.3760 O   0  0  0  0  0  0  0  0  0  0  0  0
   46.8320   33.6730   40.4500 C   0  0  0  0  0  0  0  0  0  0  0  0
   46.6570   33.5810   39.2210 O   0  0  0  0  0  0  0  0  0  0  0  0
   47.5580   34.7840   40.9470 O   0  0  0  0  0  0  0  0  0  0  0  0
   50.4290   34.8520   42.9080 N   0  0  0  0  0  0  0  0  0  0  0  0
   49.3190   35.3680   42.4060 N   0  0  0  0  0  0  0  0  0  0  0  0
   48.7580   34.4760   41.6060 C   0  0  0  0  0  0  0  0  0  0  0  0
   49.5240   33.3050   41.5640 C   0  0  0  0  0  0  0  0  0  0  0  0
   50.5780   33.6090   42.4170 C   0  0  0  0  0  0  0  0  0  0  0  0
   43.9318   35.3741   41.9628 H   0  0  0  0  0  0  0  0  0  0  0  0
   44.5248   36.2175   46.0528 H   0  0  0  0  0  0  0  0  0  0  0  0
   48.2720   32.6999   44.3456 H   0  0  0  0  0  0  0  0  0  0  0  0
   48.5565   30.0499   44.7019 H   0  0  0  0  0  0  0  0  0  0  0  0
   46.0703   29.0380   44.9409 H   0  0  0  0  0  0  0  0  0  0  0  0
   51.0698   35.3222   43.5632 H   0  0  0  0  0  0  0  0  0  0  0  0
   49.3386   32.3794   40.9993 H   0  0  0  0  0  0  0  0  0  0  0  0
   51.4118   32.9323   42.6556 H   0  0  0  0  0  0  0  0  0  0  0  0
  1  2  2  0
  1  6  1  0
  2  3  1  0
  3  7  1  0
  3  4  2  0
  5  4  1  0
  6  5  2  0
  7 11  1  0
  8  7  2  0
  8  9  1  0
  9 10  2  0
 11 10  1  0
 12  2  1  0
 13 12  2  0
 14 12  1  0
 15 17  1  0
 15 14  1  0
 16 15  2  0
 17 20  1  0
 19 18  1  0
 20 19  2  0
 21 20  1  0
 21 22  2  0
 22 18  1  0
  1 23  1  0
  5 24  1  0
  8 25  1  0
  9 26  1  0
 10 27  1  0
 18 28  1  0
 21 29  1  0
 22 30  1  0
M  ISO  8  23  14  24  14  25  14  26  14  27  14  28   9  29  14  30  14
M  END
>  <minimizedAffinity>  (1) 
-4.843328

>  <minimizedRMSD>  (1) 
5.82424402

$$$$
