
     RDKit          3D

 30 32  0  0  0  0  0  0  0  0999 V2000
   45.7200   32.7170   44.3630 C   0  0  0  0  0  0  0  0  0  0  0  0
   45.0650   33.5940   43.4680 C   0  0  0  0  0  0  0  0  0  0  0  0
   44.2330   33.0300   42.4940 C   0  0  0  0  0  0  0  0  0  0  0  0
   44.0820   31.6860   42.4370 N   0  0  0  0  0  0  0  0  0  0  0  0
   44.7340   30.8770   43.3210 C   0  0  0  0  0  0  0  0  0  0  0  0
   45.5490   31.3880   44.2800 N   0  0  0  0  0  0  0  0  0  0  0  0
   43.5610   33.9240   41.5760 C   0  0  0  0  0  0  0  0  0  0  0  0
   43.8920   34.1630   40.2560 C   0  0  0  0  0  0  0  0  0  0  0  0
   42.9750   35.0770   39.8010 C   0  0  0  0  0  0  0  0  0  0  0  0
   42.1240   35.3530   40.8720 C   0  0  0  0  0  0  0  0  0  0  0  0
   42.5270   34.6320   41.9070 O   0  0  0  0  0  0  0  0  0  0  0  0
   45.2320   34.9990   43.5400 C   0  0  0  0  0  0  0  0  0  0  0  0
   44.6110   35.6440   44.4020 O   0  0  0  0  0  0  0  0  0  0  0  0
   46.0750   35.6770   42.6670 O   0  0  0  0  0  0  0  0  0  0  0  0
   47.2120   35.0260   42.1490 C   0  0  0  0  0  0  0  0  0  0  0  0
   47.3400   34.7290   40.9500 O   0  0  0  0  0  0  0  0  0  0  0  0
   48.2430   34.7030   43.0390 O   0  0  0  0  0  0  0  0  0  0  0  0
   49.1770   33.7320   42.6830 C   0  0  0  0  0  0  0  0  0  0  0  0
   48.9250   32.3600   42.7160 C   0  0  0  0  0  0  0  0  0  0  0  0
   50.1070   31.8130   42.2920 C   0  0  0  0  0  0  0  0  0  0  0  0
   51.0210   32.8090   42.0190 C   0  0  0  0  0  0  0  0  0  0  0  0
   50.4170   33.9660   42.2700 O   0  0  0  0  0  0  0  0  0  0  0  0
   46.3802   33.1302   45.1397 H   0  0  0  0  0  0  0  0  0  0  0  0
   44.5968   29.7875   43.2558 H   0  0  0  0  0  0  0  0  0  0  0  0
   44.7195   33.7136   39.6874 H   0  0  0  0  0  0  0  0  0  0  0  0
   42.9213   35.5076   38.7902 H   0  0  0  0  0  0  0  0  0  0  0  0
   41.2701   36.0463   40.8588 H   0  0  0  0  0  0  0  0  0  0  0  0
   48.0003   31.8426   43.0113 H   0  0  0  0  0  0  0  0  0  0  0  0
   50.2994   30.7353   42.1848 H   0  0  0  0  0  0  0  0  0  0  0  0
   52.0524   32.6721   41.6619 H   0  0  0  0  0  0  0  0  0  0  0  0
  2 12  1  0
  2  1  2  0
  3  2  1  0
  4  3  2  0
  4  5  1  0
  5  6  2  0
  6  1  1  0
  7 11  1  0
  7  3  1  0
  8  7  2  0
  9  8  1  0
  9 10  2  0
 10 11  1  0
 12 13  2  0
 14 12  1  0
 15 14  1  0
 15 17  1  0
 16 15  2  0
 18 19  2  0
 18 17  1  0
 20 19  1  0
 21 22  1  0
 21 20  2  0
 22 18  1  0
  1 23  1  0
  5 24  1  0
  8 25  1  0
  9 26  1  0
 10 27  1  0
 19 28  1  0
 20 29  1  0
 21 30  1  0
M  ISO  8  23  14  24  14  25  14  26  14  27  14  28  14  29  14  30  14
M  END
>  <minimizedAffinity>  (1) 
-4.50180435

>  <minimizedRMSD>  (1) 
5.91750574

$$$$
