
     RDKit          3D

 36 39  0  0  0  0  0  0  0  0999 V2000
   45.2990   34.9900   43.4340 C   0  0  0  0  0  0  0  0  0  0  0  0
   44.6960   35.6730   44.2790 O   0  0  0  0  0  0  0  0  0  0  0  0
   45.6620   32.6890   44.3010 C   0  0  0  0  0  0  0  0  0  0  0  0
   45.0440   33.5750   43.4070 C   0  0  0  0  0  0  0  0  0  0  0  0
   44.1460   33.0620   42.4440 C   0  0  0  0  0  0  0  0  0  0  0  0
   43.9210   31.7260   42.4270 N   0  0  0  0  0  0  0  0  0  0  0  0
   44.5430   30.8890   43.3160 C   0  0  0  0  0  0  0  0  0  0  0  0
   45.4070   31.3800   44.2460 N   0  0  0  0  0  0  0  0  0  0  0  0
   43.5070   33.9730   41.5240 C   0  0  0  0  0  0  0  0  0  0  0  0
   43.8090   34.1560   40.1960 C   0  0  0  0  0  0  0  0  0  0  0  0
   42.9410   35.1110   39.7520 C   0  0  0  0  0  0  0  0  0  0  0  0
   42.1510   35.4660   40.8380 C   0  0  0  0  0  0  0  0  0  0  0  0
   42.5220   34.7490   41.9080 O   0  0  0  0  0  0  0  0  0  0  0  0
   46.1750   35.6160   42.5730 O   0  0  0  0  0  0  0  0  0  0  0  0
   47.1970   34.8670   41.9900 C   0  0  0  0  0  0  0  0  0  0  0  0
   47.1460   34.4250   40.8300 O   0  0  0  0  0  0  0  0  0  0  0  0
   48.3520   34.5940   42.7520 O   0  0  0  0  0  0  0  0  0  0  0  0
   48.9490   33.3760   42.4970 C   0  0  0  0  0  0  0  0  0  0  0  0
   48.5670   32.2570   43.1930 C   0  0  0  0  0  0  0  0  0  0  0  0
   49.6890   30.9220   42.4450 S   0  0  0  0  0  0  0  0  0  0  0  0
   50.4550   32.2270   41.3140 C   0  0  0  0  0  0  0  0  0  0  0  0
   49.8890   33.1530   41.6200 N   0  0  0  0  0  0  0  0  0  0  0  0
   51.5320   31.7630   40.3680 C   0  0  0  0  0  0  0  0  0  0  0  0
   51.1310   31.3080   39.1560 C   0  0  0  0  0  0  0  0  0  0  0  0
   52.3020   30.9720   38.5460 N   0  0  0  0  0  0  0  0  0  0  0  0
   53.3270   31.2310   39.3890 C   0  0  0  0  0  0  0  0  0  0  0  0
   52.8340   31.7380   40.5560 N   0  0  0  0  0  0  0  0  0  0  0  0
   46.3635   33.0763   45.0546 H   0  0  0  0  0  0  0  0  0  0  0  0
   44.3418   29.8082   43.2776 H   0  0  0  0  0  0  0  0  0  0  0  0
   44.5869   33.6410   39.6132 H   0  0  0  0  0  0  0  0  0  0  0  0
   42.8791   35.5199   38.7327 H   0  0  0  0  0  0  0  0  0  0  0  0
   41.3476   36.2172   40.8224 H   0  0  0  0  0  0  0  0  0  0  0  0
   47.8063   32.1590   43.9815 H   0  0  0  0  0  0  0  0  0  0  0  0
   50.1076   31.2291   38.7605 H   0  0  0  0  0  0  0  0  0  0  0  0
   54.3910   31.0599   39.1687 H   0  0  0  0  0  0  0  0  0  0  0  0
   53.3597   32.0330   41.3912 H   0  0  0  0  0  0  0  0  0  0  0  0
  1  2  2  0
  4  1  1  0
  4  3  2  0
  5  4  1  0
  6  5  2  0
  6  7  1  0
  7  8  2  0
  8  3  1  0
  9 13  1  0
  9  5  1  0
 10  9  2  0
 11 10  1  0
 11 12  2  0
 12 13  1  0
 14  1  1  0
 15 14  1  0
 15 17  1  0
 16 15  2  0
 18 17  1  0
 18 19  2  0
 20 19  1  0
 21 22  2  0
 21 20  1  0
 22 18  1  0
 23 27  1  0
 23 21  1  0
 24 23  2  0
 25 24  1  0
 25 26  2  0
 26 27  1  0
  3 28  1  0
  7 29  1  0
 10 30  1  0
 11 31  1  0
 12 32  1  0
 19 33  1  0
 24 34  1  0
 26 35  1  0
 27 36  1  0
M  ISO  8  28  14  29  14  30  14  31  14  32  14  33  14  34  14  35  14
M  ISO  1  36   9
M  END
>  <minimizedAffinity>  (1) 
-4.97593069

>  <minimizedRMSD>  (1) 
1.35862386

$$$$
