
     RDKit          3D

 29 31  0  0  0  0  0  0  0  0999 V2000
   45.6460   32.6410   44.3630 C   0  0  0  0  0  0  0  0  0  0  0  0
   45.0220   33.5340   43.4640 C   0  0  0  0  0  0  0  0  0  0  0  0
   44.1830   32.9960   42.4760 C   0  0  0  0  0  0  0  0  0  0  0  0
   44.0100   31.6550   42.4290 N   0  0  0  0  0  0  0  0  0  0  0  0
   44.6330   30.8280   43.3170 C   0  0  0  0  0  0  0  0  0  0  0  0
   45.4460   31.3260   44.2760 N   0  0  0  0  0  0  0  0  0  0  0  0
   43.5390   33.9000   41.5520 C   0  0  0  0  0  0  0  0  0  0  0  0
   43.8990   34.1420   40.2360 C   0  0  0  0  0  0  0  0  0  0  0  0
   43.0040   35.0630   39.7760 C   0  0  0  0  0  0  0  0  0  0  0  0
   42.1450   35.3420   40.8180 C   0  0  0  0  0  0  0  0  0  0  0  0
   42.4990   34.6170   41.8840 O   0  0  0  0  0  0  0  0  0  0  0  0
   45.2180   34.9510   43.5310 C   0  0  0  0  0  0  0  0  0  0  0  0
   44.6150   35.5830   44.4170 O   0  0  0  0  0  0  0  0  0  0  0  0
   46.0400   35.6270   42.6600 O   0  0  0  0  0  0  0  0  0  0  0  0
   47.2090   35.0120   42.2010 C   0  0  0  0  0  0  0  0  0  0  0  0
   47.4100   34.7440   40.9970 O   0  0  0  0  0  0  0  0  0  0  0  0
   48.2050   34.6780   43.1410 O   0  0  0  0  0  0  0  0  0  0  0  0
   49.0370   33.6370   42.7430 C   0  0  0  0  0  0  0  0  0  0  0  0
   48.5670   32.3330   42.6540 C   0  0  0  0  0  0  0  0  0  0  0  0
   50.1130   31.3880   42.0780 S   0  0  0  0  0  0  0  0  0  0  0  0
   51.0870   33.0170   42.0860 C   0  0  0  0  0  0  0  0  0  0  0  0
   50.3090   33.7780   42.4220 N   0  0  0  0  0  0  0  0  0  0  0  0
   46.3076   33.0371   45.1475 H   0  0  0  0  0  0  0  0  0  0  0  0
   44.4720   29.7418   43.2522 H   0  0  0  0  0  0  0  0  0  0  0  0
   44.7315   33.6871   39.6792 H   0  0  0  0  0  0  0  0  0  0  0  0
   42.9734   35.4996   38.7668 H   0  0  0  0  0  0  0  0  0  0  0  0
   41.3028   36.0485   40.7784 H   0  0  0  0  0  0  0  0  0  0  0  0
   47.5587   31.9462   42.8632 H   0  0  0  0  0  0  0  0  0  0  0  0
   52.1433   33.1849   41.8292 H   0  0  0  0  0  0  0  0  0  0  0  0
  2 12  1  0
  2  1  2  0
  3  2  1  0
  4  3  2  0
  4  5  1  0
  5  6  2  0
  6  1  1  0
  7 11  1  0
  7  3  1  0
  8  7  2  0
  9  8  1  0
  9 10  2  0
 10 11  1  0
 12 13  2  0
 14 12  1  0
 15 14  1  0
 15 17  1  0
 16 15  2  0
 18 17  1  0
 19 18  2  0
 20 21  1  0
 20 19  1  0
 21 22  2  0
 22 18  1  0
  1 23  1  0
  5 24  1  0
  8 25  1  0
  9 26  1  0
 10 27  1  0
 19 28  1  0
 21 29  1  0
M  ISO  7  23  14  24  14  25  14  26  14  27  14  28  14  29  14
M  END
>  <minimizedAffinity>  (1) 
-4.34153032

>  <minimizedRMSD>  (1) 
5.97115183

$$$$
