
     RDKit          3D

 36 39  0  0  0  0  0  0  0  0999 V2000
   41.7090   30.7370   41.9080 C   0  0  0  0  0  0  0  0  0  0  0  0
   41.7280   32.0700   41.4750 C   0  0  0  0  0  0  0  0  0  0  0  0
   40.4920   32.7230   41.2640 C   0  0  0  0  0  0  0  0  0  0  0  0
   39.3430   32.0380   41.4880 N   0  0  0  0  0  0  0  0  0  0  0  0
   39.3720   30.7320   41.9120 C   0  0  0  0  0  0  0  0  0  0  0  0
   40.5550   30.0910   42.1190 N   0  0  0  0  0  0  0  0  0  0  0  0
   40.5070   34.0980   40.8160 C   0  0  0  0  0  0  0  0  0  0  0  0
   40.4810   34.5530   39.5130 C   0  0  0  0  0  0  0  0  0  0  0  0
   40.5090   35.9140   39.5970 C   0  0  0  0  0  0  0  0  0  0  0  0
   40.5520   36.2320   40.9380 C   0  0  0  0  0  0  0  0  0  0  0  0
   40.5490   35.0990   41.6650 O   0  0  0  0  0  0  0  0  0  0  0  0
   42.9410   32.7750   41.2420 C   0  0  0  0  0  0  0  0  0  0  0  0
   43.5100   32.6340   40.1490 O   0  0  0  0  0  0  0  0  0  0  0  0
   43.5180   33.6130   42.1790 O   0  0  0  0  0  0  0  0  0  0  0  0
   44.5300   33.1180   42.9990 C   0  0  0  0  0  0  0  0  0  0  0  0
   44.6920   31.9040   43.2350 O   0  0  0  0  0  0  0  0  0  0  0  0
   45.4250   34.0240   43.6020 O   0  0  0  0  0  0  0  0  0  0  0  0
   46.6350   34.1850   42.9580 C   0  0  0  0  0  0  0  0  0  0  0  0
   46.8770   35.3180   42.2190 C   0  0  0  0  0  0  0  0  0  0  0  0
   48.6470   35.0060   41.5800 S   0  0  0  0  0  0  0  0  0  0  0  0
   48.6520   33.3330   42.5060 C   0  0  0  0  0  0  0  0  0  0  0  0
   47.6260   33.3310   42.9770 N   0  0  0  0  0  0  0  0  0  0  0  0
   49.8360   32.4240   42.4670 C   0  0  0  0  0  0  0  0  0  0  0  0
   51.1420   33.1540   42.2460 C   0  0  0  0  0  0  0  0  0  0  0  0
   50.5740   32.2150   41.2020 C   0  0  0  0  0  0  0  0  0  0  0  0
   42.6603   30.2114   42.0778 H   0  0  0  0  0  0  0  0  0  0  0  0
   38.4269   30.1969   42.0866 H   0  0  0  0  0  0  0  0  0  0  0  0
   40.4452   33.9445   38.5974 H   0  0  0  0  0  0  0  0  0  0  0  0
   40.4992   36.6226   38.7557 H   0  0  0  0  0  0  0  0  0  0  0  0
   40.5838   37.2517   41.3493 H   0  0  0  0  0  0  0  0  0  0  0  0
   46.2196   36.1820   42.0417 H   0  0  0  0  0  0  0  0  0  0  0  0
   49.4115   31.7158   43.1938 H   0  0  0  0  0  0  0  0  0  0  0  0
   51.1470   34.2399   42.0705 H   0  0  0  0  0  0  0  0  0  0  0  0
   52.0947   33.2431   42.7885 H   0  0  0  0  0  0  0  0  0  0  0  0
   50.1738   32.6195   40.2606 H   0  0  0  0  0  0  0  0  0  0  0  0
   50.9546   31.3339   40.6646 H   0  0  0  0  0  0  0  0  0  0  0  0
  1  6  2  0
  2  1  1  0
  3  2  2  0
  3  4  1  0
  4  5  2  0
  5  6  1  0
  7  3  1  0
  7 11  1  0
  8  9  1  0
  8  7  2  0
  9 10  2  0
 10 11  1  0
 12  2  1  0
 12 14  1  0
 13 12  2  0
 14 15  1  0
 15 16  2  0
 15 17  1  0
 18 22  1  0
 18 17  1  0
 19 18  2  0
 20 19  1  0
 20 21  1  0
 21 22  2  0
 23 21  1  0
 24 23  1  0
 25 24  1  0
 25 23  1  0
  1 26  1  0
  5 27  1  0
  8 28  1  0
  9 29  1  0
 10 30  1  0
 19 31  1  0
 23 32  1  0
 24 33  1  0
 24 34  1  0
 25 35  1  0
 25 36  1  0
M  ISO  8  26  14  27  14  28  14  29  14  30  14  31  14  32  13  33  13
M  ISO  3  34  13  35  13  36  13
M  END
>  <minimizedAffinity>  (1) 
-4.68389654

>  <minimizedRMSD>  (1) 
3.6979723

$$$$
