
     RDKit          3D

 30 32  0  0  0  0  0  0  0  0999 V2000
   45.7150   32.6600   44.3960 C   0  0  0  0  0  0  0  0  0  0  0  0
   45.1110   33.5540   43.5000 C   0  0  0  0  0  0  0  0  0  0  0  0
   44.2300   33.0250   42.5310 C   0  0  0  0  0  0  0  0  0  0  0  0
   44.0070   31.6910   42.5060 N   0  0  0  0  0  0  0  0  0  0  0  0
   44.6170   30.8520   43.4000 C   0  0  0  0  0  0  0  0  0  0  0  0
   45.4690   31.3430   44.3410 N   0  0  0  0  0  0  0  0  0  0  0  0
   43.6050   33.9390   41.6070 C   0  0  0  0  0  0  0  0  0  0  0  0
   43.9330   34.1270   40.2650 C   0  0  0  0  0  0  0  0  0  0  0  0
   43.0750   35.0850   39.8080 C   0  0  0  0  0  0  0  0  0  0  0  0
   42.2690   35.4380   40.8730 C   0  0  0  0  0  0  0  0  0  0  0  0
   42.6190   34.7230   41.9450 O   0  0  0  0  0  0  0  0  0  0  0  0
   45.3590   34.9530   43.5410 C   0  0  0  0  0  0  0  0  0  0  0  0
   44.8070   35.6300   44.4190 O   0  0  0  0  0  0  0  0  0  0  0  0
   46.1920   35.5940   42.6390 O   0  0  0  0  0  0  0  0  0  0  0  0
   47.2900   34.9040   42.1240 C   0  0  0  0  0  0  0  0  0  0  0  0
   47.3850   34.5540   40.9240 O   0  0  0  0  0  0  0  0  0  0  0  0
   48.3580   34.5740   42.9810 O   0  0  0  0  0  0  0  0  0  0  0  0
   49.0700   33.4420   42.6390 C   0  0  0  0  0  0  0  0  0  0  0  0
   48.5340   32.1940   42.8530 C   0  0  0  0  0  0  0  0  0  0  0  0
   49.9170   31.0530   42.2090 S   0  0  0  0  0  0  0  0  0  0  0  0
   50.9530   32.6000   41.7780 C   0  0  0  0  0  0  0  0  0  0  0  0
   50.2640   33.4380   42.1040 N   0  0  0  0  0  0  0  0  0  0  0  0
   52.2650   32.6130   41.1910 O   0  0  0  0  0  0  0  0  0  0  0  0
   46.4051   33.0474   45.1600 H   0  0  0  0  0  0  0  0  0  0  0  0
   44.4166   29.7713   43.3572 H   0  0  0  0  0  0  0  0  0  0  0  0
   44.7190   33.6111   39.6939 H   0  0  0  0  0  0  0  0  0  0  0  0
   43.0333   35.4965   38.7887 H   0  0  0  0  0  0  0  0  0  0  0  0
   41.4660   36.1892   40.8427 H   0  0  0  0  0  0  0  0  0  0  0  0
   47.5588   31.9242   43.2845 H   0  0  0  0  0  0  0  0  0  0  0  0
   52.7172   31.7603   40.9707 H   0  0  0  0  0  0  0  0  0  0  0  0
  2 12  1  0
  2  1  2  0
  3  2  1  0
  4  3  2  0
  4  5  1  0
  5  6  2  0
  6  1  1  0
  7 11  1  0
  7  3  1  0
  8  7  2  0
  9  8  1  0
  9 10  2  0
 10 11  1  0
 12 13  2  0
 14 12  1  0
 15 14  1  0
 15 17  1  0
 16 15  2  0
 18 19  2  0
 18 17  1  0
 20 19  1  0
 21 22  2  0
 21 20  1  0
 22 18  1  0
 23 21  1  0
  1 24  1  0
  5 25  1  0
  8 26  1  0
  9 27  1  0
 10 28  1  0
 19 29  1  0
 23 30  1  0
M  ISO  7  24  14  25  14  26  14  27  14  28  14  29  14  30   3
M  END
>  <minimizedAffinity>  (1) 
-4.76780176

>  <minimizedRMSD>  (1) 
0.285161972

$$$$
