
     RDKit          3D

 36 39  0  0  0  0  0  0  0  0999 V2000
   43.2230   33.0670   40.9240 C   0  0  0  0  0  0  0  0  0  0  0  0
   43.6140   34.0920   41.5030 O   0  0  0  0  0  0  0  0  0  0  0  0
   42.6080   31.0800   42.2680 C   0  0  0  0  0  0  0  0  0  0  0  0
   42.2540   32.2480   41.5650 C   0  0  0  0  0  0  0  0  0  0  0  0
   40.8890   32.6040   41.5010 C   0  0  0  0  0  0  0  0  0  0  0  0
   39.9810   31.8060   42.1190 N   0  0  0  0  0  0  0  0  0  0  0  0
   40.3670   30.6760   42.7930 C   0  0  0  0  0  0  0  0  0  0  0  0
   41.6780   30.3240   42.8610 N   0  0  0  0  0  0  0  0  0  0  0  0
   40.5200   33.7960   40.7840 C   0  0  0  0  0  0  0  0  0  0  0  0
   40.2120   33.8980   39.4330 C   0  0  0  0  0  0  0  0  0  0  0  0
   39.9280   35.2170   39.2230 C   0  0  0  0  0  0  0  0  0  0  0  0
   40.0730   35.8570   40.4460 C   0  0  0  0  0  0  0  0  0  0  0  0
   40.4340   34.9610   41.3730 O   0  0  0  0  0  0  0  0  0  0  0  0
   43.7540   32.7760   39.6800 O   0  0  0  0  0  0  0  0  0  0  0  0
   45.1380   32.6480   39.5500 C   0  0  0  0  0  0  0  0  0  0  0  0
   45.8680   33.5010   38.9940 O   0  0  0  0  0  0  0  0  0  0  0  0
   45.7600   31.4870   40.0770 O   0  0  0  0  0  0  0  0  0  0  0  0
   46.5200   31.6910   41.2110 C   0  0  0  0  0  0  0  0  0  0  0  0
   47.8870   31.7650   41.1260 C   0  0  0  0  0  0  0  0  0  0  0  0
   48.3830   32.0480   42.9420 S   0  0  0  0  0  0  0  0  0  0  0  0
   46.5480   31.9990   43.4230 C   0  0  0  0  0  0  0  0  0  0  0  0
   46.0570   31.8290   42.4220 N   0  0  0  0  0  0  0  0  0  0  0  0
   46.2390   32.1770   44.8490 C   0  0  0  0  0  0  0  0  0  0  0  0
   46.3120   33.3120   45.6190 C   0  0  0  0  0  0  0  0  0  0  0  0
   45.9010   32.8580   46.8650 C   0  0  0  0  0  0  0  0  0  0  0  0
   45.6130   31.5260   46.7870 N   0  0  0  0  0  0  0  0  0  0  0  0
   45.8270   31.1310   45.5430 N   0  0  0  0  0  0  0  0  0  0  0  0
   43.6659   30.7851   42.3302 H   0  0  0  0  0  0  0  0  0  0  0  0
   39.6083   30.0483   43.2834 H   0  0  0  0  0  0  0  0  0  0  0  0
   40.1996   33.0874   38.6896 H   0  0  0  0  0  0  0  0  0  0  0  0
   39.6399   35.6824   38.2689 H   0  0  0  0  0  0  0  0  0  0  0  0
   39.9161   36.9309   40.6253 H   0  0  0  0  0  0  0  0  0  0  0  0
   48.5306   31.6822   40.2378 H   0  0  0  0  0  0  0  0  0  0  0  0
   46.6190   34.3259   45.3229 H   0  0  0  0  0  0  0  0  0  0  0  0
   45.8202   33.4747   47.7723 H   0  0  0  0  0  0  0  0  0  0  0  0
   45.2859   30.9318   47.5621 H   0  0  0  0  0  0  0  0  0  0  0  0
  1  2  2  0
  1  4  1  0
  3  8  2  0
  4  3  1  0
  5  4  2  0
  5  6  1  0
  6  7  2  0
  7  8  1  0
  9 13  1  0
  9  5  1  0
 10  9  2  0
 11 10  1  0
 11 12  2  0
 12 13  1  0
 14  1  1  0
 15 14  1  0
 15 17  1  0
 16 15  2  0
 17 18  1  0
 18 22  1  0
 19 18  2  0
 19 20  1  0
 20 21  1  0
 21 23  1  0
 22 21  2  0
 23 27  2  0
 23 24  1  0
 24 25  2  0
 26 25  1  0
 27 26  1  0
  3 28  1  0
  7 29  1  0
 10 30  1  0
 11 31  1  0
 12 32  1  0
 19 33  1  0
 24 34  1  0
 25 35  1  0
 26 36  1  0
M  ISO  8  28  14  29  14  30  14  31  14  32  14  33  14  34  14  35  14
M  ISO  1  36   9
M  END
>  <minimizedAffinity>  (1) 
-4.60476255

>  <minimizedRMSD>  (1) 
5.15336847

$$$$
