
     RDKit          3D

 32 34  0  0  0  0  0  0  0  0999 V2000
   45.6430   34.3830   42.1300 C   0  0  0  0  0  0  0  0  0  0  0  0
   46.6570   33.8780   41.2830 C   0  0  0  0  0  0  0  0  0  0  0  0
   46.2950   33.4710   39.9950 C   0  0  0  0  0  0  0  0  0  0  0  0
   44.9830   33.5820   39.6200 N   0  0  0  0  0  0  0  0  0  0  0  0
   44.0490   34.0710   40.4600 C   0  0  0  0  0  0  0  0  0  0  0  0
   44.3790   34.4750   41.7250 N   0  0  0  0  0  0  0  0  0  0  0  0
   42.6900   34.1710   40.0310 N   0  0  0  0  0  0  0  0  0  0  0  0
   42.5840   35.0510   39.0000 C   0  0  0  0  0  0  0  0  0  0  0  0
   41.3440   35.3100   38.4170 C   0  0  0  0  0  0  0  0  0  0  0  0
   41.1760   36.2630   37.2900 C   0  0  0  0  0  0  0  0  0  0  0  0
   40.2670   34.6260   38.9490 C   0  0  0  0  0  0  0  0  0  0  0  0
   39.1190   34.8380   38.4410 O   0  0  0  0  0  0  0  0  0  0  0  0
   40.4130   33.7670   39.9650 N   0  0  0  0  0  0  0  0  0  0  0  0
   41.6240   33.5380   40.5090 C   0  0  0  0  0  0  0  0  0  0  0  0
   41.8460   32.7590   41.4490 O   0  0  0  0  0  0  0  0  0  0  0  0
   47.9320   33.8320   41.8170 N   0  0  0  0  0  0  0  0  0  0  0  0
   48.4530   32.9740   42.7090 C   0  0  0  0  0  0  0  0  0  0  0  0
   49.7980   33.3670   42.9200 C   0  0  0  0  0  0  0  0  0  0  0  0
   50.0490   34.4390   42.1590 N   0  0  0  0  0  0  0  0  0  0  0  0
   48.9100   34.7330   41.4780 C   0  0  0  0  0  0  0  0  0  0  0  0
   49.0010   35.8520   40.6170 N   0  0  0  0  0  0  0  0  0  0  0  0
   45.9057   34.7074   43.1477 H   0  0  0  0  0  0  0  0  0  0  0  0
   47.0471   33.0709   39.2992 H   0  0  0  0  0  0  0  0  0  0  0  0
   43.4823   35.5620   38.6233 H   0  0  0  0  0  0  0  0  0  0  0  0
   40.9979   37.2731   37.6874 H   0  0  0  0  0  0  0  0  0  0  0  0
   42.0873   36.2667   36.6740 H   0  0  0  0  0  0  0  0  0  0  0  0
   40.3183   35.9549   36.6740 H   0  0  0  0  0  0  0  0  0  0  0  0
   39.5881   33.2743   40.3360 H   0  0  0  0  0  0  0  0  0  0  0  0
   47.9350   32.1282   43.1847 H   0  0  0  0  0  0  0  0  0  0  0  0
   50.5140   32.8747   43.5945 H   0  0  0  0  0  0  0  0  0  0  0  0
   49.8853   36.3751   40.5441 H   0  0  0  0  0  0  0  0  0  0  0  0
   48.1830   36.1435   40.0631 H   0  0  0  0  0  0  0  0  0  0  0  0
  2 16  1  0
  2  1  2  0
  3  2  1  0
  4  3  2  0
  4  5  1  0
  5  6  2  0
  6  1  1  0
  7  5  1  0
  7 14  1  0
  8  7  1  0
  9 11  1  0
  9  8  2  0
 10  9  1  0
 11 13  1  0
 12 11  2  0
 13 14  1  0
 14 15  2  0
 16 17  1  0
 17 18  2  0
 19 18  1  0
 20 16  1  0
 20 19  2  0
 21 20  1  0
  1 22  1  0
  3 23  1  0
  8 24  1  0
 10 25  1  0
 10 26  1  0
 10 27  1  0
 13 28  1  0
 17 29  1  0
 18 30  1  0
 21 31  1  0
 21 32  1  0
M  ISO  8  22  14  23  14  24  14  25   8  26   8  27   8  28   9  29  14
M  ISO  1  30  14
M  END
>  <minimizedAffinity>  (1) 
-5.64313459

>  <minimizedRMSD>  (1) 
8.17694569

$$$$
