
     RDKit          3D

 27 29  0  0  0  0  0  0  0  0999 V2000
   43.6930   35.1950   42.0260 C   0  0  0  0  0  0  0  0  0  0  0  0
   43.1480   34.5340   40.8950 C   0  0  0  0  0  0  0  0  0  0  0  0
   44.0220   33.8080   40.0810 C   0  0  0  0  0  0  0  0  0  0  0  0
   45.3440   33.7710   40.4120 N   0  0  0  0  0  0  0  0  0  0  0  0
   45.8230   34.4120   41.4950 C   0  0  0  0  0  0  0  0  0  0  0  0
   44.9960   35.1220   42.2980 N   0  0  0  0  0  0  0  0  0  0  0  0
   41.7860   34.6740   40.7030 N   0  0  0  0  0  0  0  0  0  0  0  0
   41.1130   35.6090   40.0150 C   0  0  0  0  0  0  0  0  0  0  0  0
   39.7370   35.2850   40.1390 C   0  0  0  0  0  0  0  0  0  0  0  0
   39.6210   34.1890   40.8820 N   0  0  0  0  0  0  0  0  0  0  0  0
   40.8710   33.8000   41.2370 C   0  0  0  0  0  0  0  0  0  0  0  0
   40.9470   32.6370   42.0390 N   0  0  0  0  0  0  0  0  0  0  0  0
   47.2350   34.3740   41.8510 C   0  0  0  0  0  0  0  0  0  0  0  0
   48.0580   35.4680   41.6720 C   0  0  0  0  0  0  0  0  0  0  0  0
   49.4020   35.5050   41.9840 C   0  0  0  0  0  0  0  0  0  0  0  0
   49.9050   34.3660   42.5020 N   0  0  0  0  0  0  0  0  0  0  0  0
   49.1380   33.2770   42.6940 C   0  0  0  0  0  0  0  0  0  0  0  0
   47.8180   33.2790   42.3720 N   0  0  0  0  0  0  0  0  0  0  0  0
   43.0320   35.7750   42.6868 H   0  0  0  0  0  0  0  0  0  0  0  0
   43.6509   33.2775   39.1917 H   0  0  0  0  0  0  0  0  0  0  0  0
   41.5428   36.4585   39.4640 H   0  0  0  0  0  0  0  0  0  0  0  0
   38.9036   35.8481   39.6936 H   0  0  0  0  0  0  0  0  0  0  0  0
   40.0855   32.1447   42.3153 H   0  0  0  0  0  0  0  0  0  0  0  0
   41.8639   32.2825   42.3466 H   0  0  0  0  0  0  0  0  0  0  0  0
   47.6088   36.3786   41.2489 H   0  0  0  0  0  0  0  0  0  0  0  0
   50.0195   36.4007   41.8215 H   0  0  0  0  0  0  0  0  0  0  0  0
   49.5882   32.3681   43.1197 H   0  0  0  0  0  0  0  0  0  0  0  0
  1  6  2  0
  2  1  1  0
  3  4  1  0
  3  2  2  0
  4  5  2  0
  5 13  1  0
  5  6  1  0
  7  2  1  0
  7 11  1  0
  8  9  2  0
  8  7  1  0
  9 10  1  0
 10 11  2  0
 11 12  1  0
 13 18  1  0
 14 13  2  0
 14 15  1  0
 15 16  2  0
 16 17  1  0
 18 17  2  0
  1 19  1  0
  3 20  1  0
  8 21  1  0
  9 22  1  0
 12 23  1  0
 12 24  1  0
 14 25  1  0
 15 26  1  0
 17 27  1  0
M  ISO  7  19  14  20  14  21  14  22  14  25  14  26  14  27  14
M  END
>  <minimizedAffinity>  (1) 
-5.08030081

>  <minimizedRMSD>  (1) 
3.90838861

$$$$
