
     RDKit          3D

 26 28  0  0  0  0  0  0  0  0999 V2000
   43.6130   35.4150   42.0650 C   0  0  0  0  0  0  0  0  0  0  0  0
   43.1450   34.6820   40.9600 C   0  0  0  0  0  0  0  0  0  0  0  0
   44.0710   33.9580   40.2010 C   0  0  0  0  0  0  0  0  0  0  0  0
   45.3840   33.9950   40.5640 N   0  0  0  0  0  0  0  0  0  0  0  0
   45.7810   34.7270   41.6510 C   0  0  0  0  0  0  0  0  0  0  0  0
   44.8970   35.4340   42.3980 N   0  0  0  0  0  0  0  0  0  0  0  0
   41.7680   34.7360   40.7050 N   0  0  0  0  0  0  0  0  0  0  0  0
   41.0650   35.5830   39.9620 C   0  0  0  0  0  0  0  0  0  0  0  0
   39.7130   35.1770   40.0560 C   0  0  0  0  0  0  0  0  0  0  0  0
   39.6410   34.1070   40.8440 N   0  0  0  0  0  0  0  0  0  0  0  0
   40.9080   33.8170   41.2580 C   0  0  0  0  0  0  0  0  0  0  0  0
   41.0100   32.6930   42.1150 N   0  0  0  0  0  0  0  0  0  0  0  0
   47.2120   34.6790   41.9280 C   0  0  0  0  0  0  0  0  0  0  0  0
   48.2710   35.4620   41.5460 C   0  0  0  0  0  0  0  0  0  0  0  0
   49.3860   34.8760   42.1540 C   0  0  0  0  0  0  0  0  0  0  0  0
   48.9220   33.7670   42.8700 C   0  0  0  0  0  0  0  0  0  0  0  0
   47.6290   33.7010   42.6990 O   0  0  0  0  0  0  0  0  0  0  0  0
   42.8949   35.9882   42.6697 H   0  0  0  0  0  0  0  0  0  0  0  0
   43.7459   33.3711   39.3293 H   0  0  0  0  0  0  0  0  0  0  0  0
   41.4573   36.4341   39.3860 H   0  0  0  0  0  0  0  0  0  0  0  0
   38.8615   35.6653   39.5595 H   0  0  0  0  0  0  0  0  0  0  0  0
   40.1643   32.1664   42.3766 H   0  0  0  0  0  0  0  0  0  0  0  0
   41.9298   32.4026   42.4763 H   0  0  0  0  0  0  0  0  0  0  0  0
   48.2485   36.3543   40.9031 H   0  0  0  0  0  0  0  0  0  0  0  0
   50.4281   35.2209   42.0829 H   0  0  0  0  0  0  0  0  0  0  0  0
   49.5348   33.0765   43.4680 H   0  0  0  0  0  0  0  0  0  0  0  0
  1  6  2  0
  2  1  1  0
  3  4  1  0
  3  2  2  0
  4  5  2  0
  5 13  1  0
  5  6  1  0
  7  2  1  0
  7 11  1  0
  8  9  2  0
  8  7  1  0
  9 10  1  0
 10 11  2  0
 11 12  1  0
 13 17  1  0
 14 13  2  0
 14 15  1  0
 15 16  2  0
 17 16  1  0
  1 18  1  0
  3 19  1  0
  8 20  1  0
  9 21  1  0
 12 22  1  0
 12 23  1  0
 14 24  1  0
 15 25  1  0
 16 26  1  0
M  ISO  7  18  14  19  14  20  14  21  14  24  14  25  14  26  14
M  END
>  <minimizedAffinity>  (1) 
-5.06191111

>  <minimizedRMSD>  (1) 
3.6249876

$$$$
