
     RDKit          3D

 31 33  0  0  0  0  0  0  0  0999 V2000
   43.3900   33.0400   42.0610 C   0  0  0  0  0  0  0  0  0  0  0  0
   44.2290   34.1130   42.4090 C   0  0  0  0  0  0  0  0  0  0  0  0
   44.0660   35.3370   41.7500 C   0  0  0  0  0  0  0  0  0  0  0  0
   43.0880   35.4120   40.7990 N   0  0  0  0  0  0  0  0  0  0  0  0
   42.2990   34.3610   40.4900 C   0  0  0  0  0  0  0  0  0  0  0  0
   42.4530   33.1680   41.1270 N   0  0  0  0  0  0  0  0  0  0  0  0
   41.2980   34.5160   39.4840 N   0  0  0  0  0  0  0  0  0  0  0  0
   40.4170   33.4220   39.1070 C   0  0  0  0  0  0  0  0  0  0  0  0
   39.5480   34.0400   38.0340 C   0  0  0  0  0  0  0  0  0  0  0  0
   40.2970   35.2300   37.5260 C   0  0  0  0  0  0  0  0  0  0  0  0
   41.0300   35.7280   38.7330 C   0  0  0  0  0  0  0  0  0  0  0  0
   45.1750   33.8500   43.4060 N   0  0  0  0  0  0  0  0  0  0  0  0
   46.2330   33.0380   43.3750 C   0  0  0  0  0  0  0  0  0  0  0  0
   46.8660   33.1290   44.6340 C   0  0  0  0  0  0  0  0  0  0  0  0
   46.1730   33.9900   45.3810 N   0  0  0  0  0  0  0  0  0  0  0  0
   45.1370   34.4310   44.6300 C   0  0  0  0  0  0  0  0  0  0  0  0
   44.2840   35.3680   45.2780 N   0  0  0  0  0  0  0  0  0  0  0  0
   43.5116   32.0738   42.5726 H   0  0  0  0  0  0  0  0  0  0  0  0
   44.6999   36.2038   41.9882 H   0  0  0  0  0  0  0  0  0  0  0  0
   40.9904   32.5713   38.7102 H   0  0  0  0  0  0  0  0  0  0  0  0
   39.8408   33.0181   39.9525 H   0  0  0  0  0  0  0  0  0  0  0  0
   39.3776   33.3204   37.2197 H   0  0  0  0  0  0  0  0  0  0  0  0
   38.5626   34.3256   38.4309 H   0  0  0  0  0  0  0  0  0  0  0  0
   41.0004   34.9411   36.7311 H   0  0  0  0  0  0  0  0  0  0  0  0
   39.6386   35.9913   37.0822 H   0  0  0  0  0  0  0  0  0  0  0  0
   41.9663   36.2292   38.4465 H   0  0  0  0  0  0  0  0  0  0  0  0
   40.4588   36.4726   39.3068 H   0  0  0  0  0  0  0  0  0  0  0  0
   46.5526   32.4142   42.5272 H   0  0  0  0  0  0  0  0  0  0  0  0
   47.7709   32.5858   44.9441 H   0  0  0  0  0  0  0  0  0  0  0  0
   44.4791   35.6578   46.2470 H   0  0  0  0  0  0  0  0  0  0  0  0
   43.4715   35.7564   44.7780 H   0  0  0  0  0  0  0  0  0  0  0  0
  1  2  2  0
  2 12  1  0
  3  2  1  0
  4  3  2  0
  5  4  1  0
  5  6  2  0
  6  1  1  0
  7  5  1  0
  8  7  1  0
  9  8  1  0
 10  9  1  0
 10 11  1  0
 11  7  1  0
 12 16  1  0
 13 12  1  0
 13 14  2  0
 14 15  1  0
 16 17  1  0
 16 15  2  0
  1 18  1  0
  3 19  1  0
  8 20  1  0
  8 21  1  0
  9 22  1  0
  9 23  1  0
 10 24  1  0
 10 25  1  0
 11 26  1  0
 11 27  1  0
 13 28  1  0
 14 29  1  0
 17 30  1  0
 17 31  1  0
M  ISO  8  18  14  19  14  20  13  21  13  22  13  23  13  24  13  25  13
M  ISO  4  26  13  27  13  28  14  29  14
M  END
>  <minimizedAffinity>  (1) 
-5.21183825

>  <minimizedRMSD>  (1) 
7.09405279

$$$$
