
     RDKit          3D

 47 50  0  0  1  0  0  0  0  0999 V2000
   45.6810   30.9080   47.2750 C   0  0  2  0  0  0  0  0  0  0  0  0
   44.7280   34.8480   45.9230 C   0  0  0  0  0  0  0  0  0  0  0  0
   44.7120   35.5170   44.7060 C   0  0  0  0  0  0  0  0  0  0  0  0
   45.3910   34.9400   43.6180 C   0  0  0  0  0  0  0  0  0  0  0  0
   46.0230   33.7640   43.8070 N   0  0  0  0  0  0  0  0  0  0  0  0
   46.0300   33.1160   45.0100 C   0  0  0  0  0  0  0  0  0  0  0  0
   45.3800   33.6730   46.0440 N   0  0  0  0  0  0  0  0  0  0  0  0
   46.6900   31.8920   45.2330 N   0  0  0  0  0  0  0  0  0  0  0  0
   47.6560   31.5690   44.3230 C   0  0  0  0  0  0  0  0  0  0  0  0
   48.1680   30.3340   44.7570 C   0  0  0  0  0  0  0  0  0  0  0  0
   47.5050   29.9640   45.8940 N   0  0  0  0  0  0  0  0  0  0  0  0
   46.6100   30.9290   46.1590 C   0  0  0  0  0  0  0  0  0  0  0  0
   46.4100   31.6090   48.4600 C   0  0  0  0  0  0  0  0  0  0  0  0
   45.3680   29.5160   47.7170 C   0  0  0  0  0  0  0  0  0  0  0  0
   44.5740   28.7850   46.7950 N   0  0  0  0  0  0  0  0  0  0  0  0
   44.0080   29.2940   45.6860 N   0  0  0  0  0  0  0  0  0  0  0  0
   43.3360   28.2870   45.0760 C   0  0  0  0  0  0  0  0  0  0  0  0
   43.4720   27.1180   45.7980 C   0  0  0  0  0  0  0  0  0  0  0  0
   44.2620   27.4640   46.8820 C   0  0  0  0  0  0  0  0  0  0  0  0
   44.6590   26.5410   47.9050 N   0  0  0  0  0  0  0  0  0  0  0  0
   45.9960   26.0040   48.1520 C   0  0  0  0  0  0  0  0  0  0  0  0
   45.7830   24.6690   48.8590 C   0  0  0  0  0  0  0  0  0  0  0  0
   45.2380   24.8580   50.2040 N   0  0  0  0  0  0  0  0  0  0  0  0
   44.2760   25.9450   50.2250 C   0  0  0  0  0  0  0  0  0  0  0  0
   43.6550   26.0350   48.8470 C   0  0  0  0  0  0  0  0  0  0  0  0
   44.7425   31.3965   46.9740 H   0  0  0  0  0  0  0  0  0  0  0  0
   44.2072   35.2777   46.7914 H   0  0  0  0  0  0  0  0  0  0  0  0
   44.1815   36.4743   44.5959 H   0  0  0  0  0  0  0  0  0  0  0  0
   45.4062   35.4361   42.6364 H   0  0  0  0  0  0  0  0  0  0  0  0
   47.9661   32.1495   43.4416 H   0  0  0  0  0  0  0  0  0  0  0  0
   48.9678   29.7614   44.2646 H   0  0  0  0  0  0  0  0  0  0  0  0
   46.0130   31.2272   49.4122 H   0  0  0  0  0  0  0  0  0  0  0  0
   47.4884   31.4000   48.4023 H   0  0  0  0  0  0  0  0  0  0  0  0
   46.2434   32.6948   48.4023 H   0  0  0  0  0  0  0  0  0  0  0  0
   46.3159   28.9770   47.8613 H   0  0  0  0  0  0  0  0  0  0  0  0
   44.7842   29.5993   48.6455 H   0  0  0  0  0  0  0  0  0  0  0  0
   42.7650   28.3868   44.1411 H   0  0  0  0  0  0  0  0  0  0  0  0
   43.0471   26.1307   45.5642 H   0  0  0  0  0  0  0  0  0  0  0  0
   46.5300   25.8536   47.2021 H   0  0  0  0  0  0  0  0  0  0  0  0
   46.6029   26.6917   48.7592 H   0  0  0  0  0  0  0  0  0  0  0  0
   45.0806   24.0604   48.2705 H   0  0  0  0  0  0  0  0  0  0  0  0
   46.7567   24.1650   48.9477 H   0  0  0  0  0  0  0  0  0  0  0  0
   44.7724   23.9897   50.5043 H   0  0  0  0  0  0  0  0  0  0  0  0
   43.4971   25.7418   50.9747 H   0  0  0  0  0  0  0  0  0  0  0  0
   44.7696   26.8921   50.4883 H   0  0  0  0  0  0  0  0  0  0  0  0
   42.7952   26.7206   48.8736 H   0  0  0  0  0  0  0  0  0  0  0  0
   43.3123   25.0399   48.5272 H   0  0  0  0  0  0  0  0  0  0  0  0
  1 14  1  0
  1 13  1  0
  2  7  2  0
  3  2  1  0
  4  5  1  0
  4  3  2  0
  5  6  2  0
  6  8  1  0
  6  7  1  0
  8 12  1  0
  9 10  2  0
  9  8  1  0
 10 11  1  0
 11 12  2  0
 12  1  1  0
 15 19  1  0
 15 14  1  0
 16 15  1  0
 17 16  2  0
 17 18  1  0
 18 19  2  0
 19 20  1  0
 20 21  1  0
 20 25  1  0
 21 22  1  0
 22 23  1  0
 23 24  1  0
 25 24  1  0
  1 26  1  6
  2 27  1  0
  3 28  1  0
  4 29  1  0
  9 30  1  0
 10 31  1  0
 13 32  1  0
 13 33  1  0
 13 34  1  0
 14 35  1  0
 14 36  1  0
 17 37  1  0
 18 38  1  0
 21 39  1  0
 21 40  1  0
 22 41  1  0
 22 42  1  0
 23 43  1  0
 24 44  1  0
 24 45  1  0
 25 46  1  0
 25 47  1  0
M  ISO  8  26   8  27  14  28  14  29  14  30  14  31  14  32   8  33   8
M  ISO  8  34   8  35   8  36   8  37  14  38  14  39  13  40  13  41  13
M  ISO  6  42  13  43   5  44  13  45  13  46  13  47  13
M  END
>  <minimizedAffinity>  (1) 
-5.125875

>  <minimizedRMSD>  (1) 
1.39937246

$$$$
