
     RDKit          3D

 44 46  0  0  0  0  0  0  0  0999 V2000
   46.6890   33.0280   43.2530 C   0  0  0  0  0  0  0  0  0  0  0  0
   43.5430   33.3610   41.4250 C   0  0  0  0  0  0  0  0  0  0  0  0
   43.3140   34.7340   41.4370 C   0  0  0  0  0  0  0  0  0  0  0  0
   44.2530   35.5810   42.0840 C   0  0  0  0  0  0  0  0  0  0  0  0
   45.3230   34.9500   42.6500 N   0  0  0  0  0  0  0  0  0  0  0  0
   45.5090   33.6280   42.6170 C   0  0  0  0  0  0  0  0  0  0  0  0
   44.6190   32.8290   42.0040 N   0  0  0  0  0  0  0  0  0  0  0  0
   42.1550   35.1750   40.7960 N   0  0  0  0  0  0  0  0  0  0  0  0
   41.0090   35.6150   41.2910 C   0  0  0  0  0  0  0  0  0  0  0  0
   40.1640   35.9350   40.2150 C   0  0  0  0  0  0  0  0  0  0  0  0
   40.8450   35.6710   39.0680 N   0  0  0  0  0  0  0  0  0  0  0  0
   42.0580   35.2080   39.4250 C   0  0  0  0  0  0  0  0  0  0  0  0
   42.9050   34.8790   38.3260 N   0  0  0  0  0  0  0  0  0  0  0  0
   46.7600   33.4570   44.7320 C   0  0  0  0  0  0  0  0  0  0  0  0
   46.4520   31.5040   43.2560 C   0  0  0  0  0  0  0  0  0  0  0  0
   47.9940   33.3740   42.6540 C   0  0  0  0  0  0  0  0  0  0  0  0
   48.1210   33.5880   41.2530 N   0  0  0  0  0  0  0  0  0  0  0  0
   47.8880   32.7970   40.1970 C   0  0  0  0  0  0  0  0  0  0  0  0
   48.0120   33.1140   38.8680 C   0  0  0  0  0  0  0  0  0  0  0  0
   47.7160   32.1170   37.8070 C   0  0  0  0  0  0  0  0  0  0  0  0
   48.4240   34.3960   38.5550 C   0  0  0  0  0  0  0  0  0  0  0  0
   48.5440   34.7030   37.3410 O   0  0  0  0  0  0  0  0  0  0  0  0
   48.6710   35.2350   39.6010 N   0  0  0  0  0  0  0  0  0  0  0  0
   48.5230   34.8400   40.8790 C   0  0  0  0  0  0  0  0  0  0  0  0
   48.8190   35.8280   41.6230 O   0  0  0  0  0  0  0  0  0  0  0  0
   42.8191   32.6999   40.9261 H   0  0  0  0  0  0  0  0  0  0  0  0
   44.1263   36.6729   42.1261 H   0  0  0  0  0  0  0  0  0  0  0  0
   40.7614   35.7130   42.3583 H   0  0  0  0  0  0  0  0  0  0  0  0
   39.1389   36.3274   40.2873 H   0  0  0  0  0  0  0  0  0  0  0  0
   43.8537   34.5164   38.4975 H   0  0  0  0  0  0  0  0  0  0  0  0
   42.5681   35.0039   37.3607 H   0  0  0  0  0  0  0  0  0  0  0  0
   46.6144   32.5774   45.3763 H   0  0  0  0  0  0  0  0  0  0  0  0
   47.7442   33.9032   44.9375 H   0  0  0  0  0  0  0  0  0  0  0  0
   45.9720   34.1965   44.9375 H   0  0  0  0  0  0  0  0  0  0  0  0
   46.3960   31.1437   44.2938 H   0  0  0  0  0  0  0  0  0  0  0  0
   45.5080   31.2787   42.7382 H   0  0  0  0  0  0  0  0  0  0  0  0
   47.2830   31.0027   42.7382 H   0  0  0  0  0  0  0  0  0  0  0  0
   48.3278   34.3006   43.1440 H   0  0  0  0  0  0  0  0  0  0  0  0
   48.5852   32.4605   42.8149 H   0  0  0  0  0  0  0  0  0  0  0  0
   47.5582   31.7721   40.4223 H   0  0  0  0  0  0  0  0  0  0  0  0
   47.4322   31.1610   38.2711 H   0  0  0  0  0  0  0  0  0  0  0  0
   46.8873   32.4816   37.1822 H   0  0  0  0  0  0  0  0  0  0  0  0
   48.6093   31.9703   37.1822 H   0  0  0  0  0  0  0  0  0  0  0  0
   48.9796   36.1985   39.4076 H   0  0  0  0  0  0  0  0  0  0  0  0
  1 15  1  0
  1 14  1  0
  2  3  2  0
  2  7  1  0
  3  4  1  0
  4  5  2  0
  6  5  1  0
  6  1  1  0
  7  6  2  0
  8  9  1  0
  8  3  1  0
 10  9  2  0
 11 12  2  0
 11 10  1  0
 12  8  1  0
 13 12  1  0
 16  1  1  0
 17 16  1  0
 18 17  1  0
 19 18  2  0
 20 19  1  0
 21 19  1  0
 21 23  1  0
 22 21  2  0
 23 24  1  0
 24 17  1  0
 24 25  2  0
  2 26  1  0
  4 27  1  0
  9 28  1  0
 10 29  1  0
 13 30  1  0
 13 31  1  0
 14 32  1  0
 14 33  1  0
 14 34  1  0
 15 35  1  0
 15 36  1  0
 15 37  1  0
 16 38  1  0
 16 39  1  0
 18 40  1  0
 20 41  1  0
 20 42  1  0
 20 43  1  0
 23 44  1  0
M  ISO  8  26  14  27  14  28  14  29  14  32   8  33   8  34   8  35   8
M  ISO  8  36   8  37   8  38   8  39   8  40  14  41   8  42   8  43   8
M  ISO  1  44   9
M  END
>  <minimizedAffinity>  (1) 
-6.03188515

>  <minimizedRMSD>  (1) 
5.36528969

$$$$
