
     RDKit          3D

 47 50  0  0  0  0  0  0  0  0999 V2000
   45.9680   33.4840   44.1520 C   0  0  0  0  0  0  0  0  0  0  0  0
   43.4130   35.1200   42.1240 C   0  0  0  0  0  0  0  0  0  0  0  0
   42.7850   34.0440   41.4670 C   0  0  0  0  0  0  0  0  0  0  0  0
   43.2380   32.7410   41.7150 C   0  0  0  0  0  0  0  0  0  0  0  0
   44.2720   32.5800   42.5880 N   0  0  0  0  0  0  0  0  0  0  0  0
   44.8480   33.6500   43.2010 C   0  0  0  0  0  0  0  0  0  0  0  0
   44.4210   34.9070   42.9690 N   0  0  0  0  0  0  0  0  0  0  0  0
   41.7410   34.3870   40.6060 N   0  0  0  0  0  0  0  0  0  0  0  0
   41.7660   34.8630   39.3660 C   0  0  0  0  0  0  0  0  0  0  0  0
   40.4450   35.0440   38.9430 C   0  0  0  0  0  0  0  0  0  0  0  0
   39.6340   34.6670   39.9550 N   0  0  0  0  0  0  0  0  0  0  0  0
   40.4340   34.2670   40.9670 C   0  0  0  0  0  0  0  0  0  0  0  0
   39.7340   33.8300   42.1320 N   0  0  0  0  0  0  0  0  0  0  0  0
   47.2440   34.1110   43.5990 C   0  0  0  0  0  0  0  0  0  0  0  0
   45.5780   34.2140   45.4290 C   0  0  0  0  0  0  0  0  0  0  0  0
   46.2760   32.0760   44.4740 C   0  0  0  0  0  0  0  0  0  0  0  0
   46.4130   31.6710   45.8500 C   0  0  0  0  0  0  0  0  0  0  0  0
   47.0910   32.3060   46.8590 C   0  0  0  0  0  0  0  0  0  0  0  0
   47.1680   31.8470   48.1620 C   0  0  0  0  0  0  0  0  0  0  0  0
   46.5230   30.6700   48.4880 C   0  0  0  0  0  0  0  0  0  0  0  0
   45.8320   30.0090   47.4910 C   0  0  0  0  0  0  0  0  0  0  0  0
   45.1930   28.8220   47.8610 C   0  0  0  0  0  0  0  0  0  0  0  0
   44.4770   28.0910   46.9360 C   0  0  0  0  0  0  0  0  0  0  0  0
   44.4220   28.5800   45.6490 C   0  0  0  0  0  0  0  0  0  0  0  0
   45.0460   29.7490   45.2620 C   0  0  0  0  0  0  0  0  0  0  0  0
   45.7610   30.4750   46.1930 C   0  0  0  0  0  0  0  0  0  0  0  0
   43.0675   36.1475   41.9375 H   0  0  0  0  0  0  0  0  0  0  0  0
   42.7734   31.8753   41.2204 H   0  0  0  0  0  0  0  0  0  0  0  0
   42.6685   35.0775   38.7748 H   0  0  0  0  0  0  0  0  0  0  0  0
   40.1243   35.4250   37.9622 H   0  0  0  0  0  0  0  0  0  0  0  0
   38.7042   33.8386   42.1475 H   0  0  0  0  0  0  0  0  0  0  0  0
   40.2588   33.5061   42.9570 H   0  0  0  0  0  0  0  0  0  0  0  0
   47.8881   34.4275   44.4326 H   0  0  0  0  0  0  0  0  0  0  0  0
   47.7781   33.3727   42.9828 H   0  0  0  0  0  0  0  0  0  0  0  0
   46.9859   34.9849   42.9828 H   0  0  0  0  0  0  0  0  0  0  0  0
   45.8941   33.6223   46.3007 H   0  0  0  0  0  0  0  0  0  0  0  0
   46.0712   35.1969   45.4547 H   0  0  0  0  0  0  0  0  0  0  0  0
   44.4868   34.3505   45.4547 H   0  0  0  0  0  0  0  0  0  0  0  0
   45.4694   31.4661   44.0410 H   0  0  0  0  0  0  0  0  0  0  0  0
   47.2870   31.9352   44.0641 H   0  0  0  0  0  0  0  0  0  0  0  0
   47.6094   33.2451   46.6155 H   0  0  0  0  0  0  0  0  0  0  0  0
   47.7312   32.4078   48.9225 H   0  0  0  0  0  0  0  0  0  0  0  0
   46.5585   30.2704   49.5122 H   0  0  0  0  0  0  0  0  0  0  0  0
   45.2618   28.4674   48.9000 H   0  0  0  0  0  0  0  0  0  0  0  0
   43.9703   27.1553   47.2146 H   0  0  0  0  0  0  0  0  0  0  0  0
   43.8552   28.0132   44.8957 H   0  0  0  0  0  0  0  0  0  0  0  0
   44.9741   30.0986   44.2215 H   0  0  0  0  0  0  0  0  0  0  0  0
  1 16  1  0
  1 15  1  0
  2  7  2  0
  3  4  2  0
  3  2  1  0
  4  5  1  0
  5  6  2  0
  6  1  1  0
  7  6  1  0
  8 12  1  0
  8  3  1  0
  9  8  1  0
 10  9  2  0
 10 11  1  0
 11 12  2  0
 12 13  1  0
 14  1  1  0
 16 17  1  0
 17 26  1  0
 17 18  2  0
 18 19  1  0
 19 20  2  0
 21 22  2  0
 21 20  1  0
 23 22  1  0
 24 23  2  0
 25 24  1  0
 25 26  2  0
 26 21  1  0
  2 27  1  0
  4 28  1  0
  9 29  1  0
 10 30  1  0
 13 31  1  0
 13 32  1  0
 14 33  1  0
 14 34  1  0
 14 35  1  0
 15 36  1  0
 15 37  1  0
 15 38  1  0
 16 39  1  0
 16 40  1  0
 18 41  1  0
 19 42  1  0
 20 43  1  0
 22 44  1  0
 23 45  1  0
 24 46  1  0
 25 47  1  0
M  ISO  8  27  14  28  14  29  14  30  14  33   8  34   8  35   8  36   8
M  ISO  8  37   8  38   8  39   8  40   8  41  14  42  14  43  14  44  14
M  ISO  3  45  14  46  14  47  14
M  END
>  <minimizedAffinity>  (1) 
-6.35105848

>  <minimizedRMSD>  (1) 
4.44916105

$$$$
