
     RDKit          3D

 22 22  0  0  0  0  0  0  0  0999 V2000
   45.4630   34.4760   44.6260 C   0  0  0  0  0  0  0  0  0  0  0  0
   46.2520   33.7500   43.7420 C   0  0  0  0  0  0  0  0  0  0  0  0
   46.9040   32.6030   44.2460 C   0  0  0  0  0  0  0  0  0  0  0  0
   46.7060   32.3040   45.5580 N   0  0  0  0  0  0  0  0  0  0  0  0
   45.9410   33.0240   46.3740 C   0  0  0  0  0  0  0  0  0  0  0  0
   45.3190   34.1130   45.9040 N   0  0  0  0  0  0  0  0  0  0  0  0
   46.4390   34.1360   42.3280 C   0  0  0  0  0  0  0  0  0  0  0  0
   45.1530   34.3580   41.6370 C   0  0  0  0  0  0  0  0  0  0  0  0
   47.4180   35.2740   42.2630 C   0  0  0  0  0  0  0  0  0  0  0  0
   44.7340   35.6700   44.2390 C   0  0  0  0  0  0  0  0  0  0  0  0
   44.9830   36.8620   43.9630 O   0  0  0  0  0  0  0  0  0  0  0  0
   43.3690   35.7320   44.0660 O   0  0  0  0  0  0  0  0  0  0  0  0
   47.5441   31.9786   43.6053 H   0  0  0  0  0  0  0  0  0  0  0  0
   45.8202   32.7273   47.4263 H   0  0  0  0  0  0  0  0  0  0  0  0
   46.8824   33.3072   41.7566 H   0  0  0  0  0  0  0  0  0  0  0  0
   44.3555   34.4957   42.3820 H   0  0  0  0  0  0  0  0  0  0  0  0
   45.2256   35.2569   41.0072 H   0  0  0  0  0  0  0  0  0  0  0  0
   44.9200   33.4868   41.0072 H   0  0  0  0  0  0  0  0  0  0  0  0
   47.6862   35.5857   43.2833 H   0  0  0  0  0  0  0  0  0  0  0  0
   48.3231   34.9490   41.7291 H   0  0  0  0  0  0  0  0  0  0  0  0
   46.9614   36.1204   41.7291 H   0  0  0  0  0  0  0  0  0  0  0  0
   42.9419   36.5847   43.8004 H   0  0  0  0  0  0  0  0  0  0  0  0
  1  6  2  0
  2  3  2  0
  2  1  1  0
  3  4  1  0
  4  5  2  0
  6  5  1  0
  7  2  1  0
  8  7  1  0
  9  7  1  0
 10  1  1  0
 11 10  2  0
 12 10  1  0
  3 13  1  0
  5 14  1  0
  7 15  1  0
  8 16  1  0
  8 17  1  0
  8 18  1  0
  9 19  1  0
  9 20  1  0
  9 21  1  0
 12 22  1  0
M  ISO  8  13  14  14  14  15   8  16   8  17   8  18   8  19   8  20   8
M  ISO  2  21   8  22   3
M  END
>  <minimizedAffinity>  (1) 
-4.23556995

>  <minimizedRMSD>  (1) 
2.2390132

$$$$
