
     RDKit          3D

 47 49  0  0  0  0  0  0  0  0999 V2000
   43.2030   35.0100   41.7620 C   0  0  0  0  0  0  0  0  0  0  0  0
   42.7110   33.8430   41.1840 C   0  0  0  0  0  0  0  0  0  0  0  0
   43.1950   32.6090   41.6440 C   0  0  0  0  0  0  0  0  0  0  0  0
   44.1290   32.6170   42.6420 N   0  0  0  0  0  0  0  0  0  0  0  0
   44.5730   33.7690   43.1690 C   0  0  0  0  0  0  0  0  0  0  0  0
   44.1100   34.9690   42.7300 N   0  0  0  0  0  0  0  0  0  0  0  0
   41.7580   33.9960   40.1750 N   0  0  0  0  0  0  0  0  0  0  0  0
   41.9030   34.2140   38.8760 C   0  0  0  0  0  0  0  0  0  0  0  0
   40.6280   34.2930   38.3020 C   0  0  0  0  0  0  0  0  0  0  0  0
   39.7250   34.1160   39.2870 N   0  0  0  0  0  0  0  0  0  0  0  0
   40.4090   33.9340   40.4390 C   0  0  0  0  0  0  0  0  0  0  0  0
   39.6000   33.7330   41.5930 N   0  0  0  0  0  0  0  0  0  0  0  0
   45.5990   33.8130   44.2570 C   0  0  0  0  0  0  0  0  0  0  0  0
   46.9850   34.0540   43.6730 C   0  0  0  0  0  0  0  0  0  0  0  0
   45.2200   34.9780   45.1490 C   0  0  0  0  0  0  0  0  0  0  0  0
   45.6560   32.5200   44.9950 C   0  0  0  0  0  0  0  0  0  0  0  0
   46.2830   32.5020   46.3250 C   0  0  0  0  0  0  0  0  0  0  0  0
   46.8730   31.0800   46.4790 C   0  0  0  0  0  0  0  0  0  0  0  0
   47.8210   30.9940   47.6320 C   0  0  0  0  0  0  0  0  0  0  0  0
   47.1650   31.5860   48.8610 C   0  0  0  0  0  0  0  0  0  0  0  0
   45.6870   31.6540   48.6070 C   0  0  0  0  0  0  0  0  0  0  0  0
   45.3490   32.6500   47.4970 C   0  0  0  0  0  0  0  0  0  0  0  0
   42.8331   35.9842   41.4098 H   0  0  0  0  0  0  0  0  0  0  0  0
   42.8335   31.6631   41.2142 H   0  0  0  0  0  0  0  0  0  0  0  0
   42.8589   34.3153   38.3413 H   0  0  0  0  0  0  0  0  0  0  0  0
   40.4039   34.4679   37.2394 H   0  0  0  0  0  0  0  0  0  0  0  0
   38.5735   33.7328   41.5086 H   0  0  0  0  0  0  0  0  0  0  0  0
   40.0412   33.5878   42.5123 H   0  0  0  0  0  0  0  0  0  0  0  0
   47.7104   34.1801   44.4903 H   0  0  0  0  0  0  0  0  0  0  0  0
   47.2766   33.1931   43.0535 H   0  0  0  0  0  0  0  0  0  0  0  0
   46.9689   34.9628   43.0535 H   0  0  0  0  0  0  0  0  0  0  0  0
   45.3171   34.6794   46.2032 H   0  0  0  0  0  0  0  0  0  0  0  0
   45.8880   35.8280   44.9456 H   0  0  0  0  0  0  0  0  0  0  0  0
   44.1798   35.2723   44.9456 H   0  0  0  0  0  0  0  0  0  0  0  0
   44.6205   32.1700   45.1186 H   0  0  0  0  0  0  0  0  0  0  0  0
   46.3096   31.8851   44.3788 H   0  0  0  0  0  0  0  0  0  0  0  0
   46.9817   33.3512   46.3530 H   0  0  0  0  0  0  0  0  0  0  0  0
   46.0498   30.3686   46.6411 H   0  0  0  0  0  0  0  0  0  0  0  0
   47.4287   30.8391   45.5608 H   0  0  0  0  0  0  0  0  0  0  0  0
   48.0749   29.9407   47.8218 H   0  0  0  0  0  0  0  0  0  0  0  0
   48.7392   31.5526   47.3979 H   0  0  0  0  0  0  0  0  0  0  0  0
   47.3652   30.9490   49.7351 H   0  0  0  0  0  0  0  0  0  0  0  0
   47.5658   32.5902   49.0634 H   0  0  0  0  0  0  0  0  0  0  0  0
   45.3298   30.6564   48.3117 H   0  0  0  0  0  0  0  0  0  0  0  0
   45.1954   31.9911   49.5315 H   0  0  0  0  0  0  0  0  0  0  0  0
   45.4329   33.6720   47.8951 H   0  0  0  0  0  0  0  0  0  0  0  0
   44.3242   32.4495   47.1513 H   0  0  0  0  0  0  0  0  0  0  0  0
  1  6  2  0
  2  3  2  0
  2  1  1  0
  3  4  1  0
  4  5  2  0
  5 13  1  0
  6  5  1  0
  7 11  1  0
  7  2  1  0
  8  7  1  0
  9  8  2  0
  9 10  1  0
 10 11  2  0
 11 12  1  0
 13 16  1  0
 13 15  1  0
 14 13  1  0
 16 17  1  0
 17 18  1  0
 17 22  1  0
 18 19  1  0
 19 20  1  0
 21 20  1  0
 22 21  1  0
  1 23  1  0
  3 24  1  0
  8 25  1  0
  9 26  1  0
 12 27  1  0
 12 28  1  0
 14 29  1  0
 14 30  1  0
 14 31  1  0
 15 32  1  0
 15 33  1  0
 15 34  1  0
 16 35  1  0
 16 36  1  0
 17 37  1  0
 18 38  1  0
 18 39  1  0
 19 40  1  0
 19 41  1  0
 20 42  1  0
 20 43  1  0
 21 44  1  0
 21 45  1  0
 22 46  1  0
 22 47  1  0
M  ISO  8  23  14  24  14  25  14  26  14  29   8  30   8  31   8  32   8
M  ISO  8  33   8  34   8  35   8  36   8  37  13  38  13  39  13  40  13
M  ISO  7  41  13  42  13  43  13  44  13  45  13  46  13  47  13
M  END
>  <minimizedAffinity>  (1) 
-5.4220643

>  <minimizedRMSD>  (1) 
1.65510988

$$$$
