
     RDKit          3D

 38 39  0  0  0  0  0  0  0  0999 V2000
   45.9880   33.4290   44.1960 C   0  0  0  0  0  0  0  0  0  0  0  0
   43.4920   35.1780   42.1990 C   0  0  0  0  0  0  0  0  0  0  0  0
   42.8240   34.1570   41.4990 C   0  0  0  0  0  0  0  0  0  0  0  0
   43.2420   32.8250   41.7150 C   0  0  0  0  0  0  0  0  0  0  0  0
   44.2660   32.6070   42.5860 N   0  0  0  0  0  0  0  0  0  0  0  0
   44.8690   33.6250   43.2270 C   0  0  0  0  0  0  0  0  0  0  0  0
   44.4790   34.9040   43.0320 N   0  0  0  0  0  0  0  0  0  0  0  0
   41.7990   34.5360   40.6450 N   0  0  0  0  0  0  0  0  0  0  0  0
   41.8670   35.0680   39.4170 C   0  0  0  0  0  0  0  0  0  0  0  0
   40.5390   35.2640   38.9820 C   0  0  0  0  0  0  0  0  0  0  0  0
   39.7180   34.8430   39.9620 N   0  0  0  0  0  0  0  0  0  0  0  0
   40.4770   34.4020   40.9710 C   0  0  0  0  0  0  0  0  0  0  0  0
   39.7630   33.9240   42.0830 N   0  0  0  0  0  0  0  0  0  0  0  0
   47.2980   33.8830   43.6170 C   0  0  0  0  0  0  0  0  0  0  0  0
   45.6470   34.2070   45.4540 C   0  0  0  0  0  0  0  0  0  0  0  0
   46.1360   31.9480   44.5330 C   0  0  0  0  0  0  0  0  0  0  0  0
   46.9130   31.7700   45.7340 N   0  0  0  0  0  0  0  0  0  0  0  0
   46.1600   30.9730   46.6500 C   0  0  0  0  0  0  0  0  0  0  0  0
   45.0390   30.4510   46.7650 N   0  0  0  0  0  0  0  0  0  0  0  0
   46.6530   30.5280   47.9070 N   0  0  0  0  0  0  0  0  0  0  0  0
   44.2200   30.4630   46.1310 H   0  0  0  0  0  0  0  0  0  0  0  0
   43.1864   36.2241   42.0496 H   0  0  0  0  0  0  0  0  0  0  0  0
   42.7542   31.9877   41.1945 H   0  0  0  0  0  0  0  0  0  0  0  0
   42.7825   35.3062   38.8557 H   0  0  0  0  0  0  0  0  0  0  0  0
   40.2298   35.6858   38.0143 H   0  0  0  0  0  0  0  0  0  0  0  0
   38.7331   33.9326   42.0762 H   0  0  0  0  0  0  0  0  0  0  0  0
   40.2696   33.5650   42.9048 H   0  0  0  0  0  0  0  0  0  0  0  0
   47.9953   34.1247   44.4327 H   0  0  0  0  0  0  0  0  0  0  0  0
   47.7230   33.0797   42.9972 H   0  0  0  0  0  0  0  0  0  0  0  0
   47.1348   34.7770   42.9972 H   0  0  0  0  0  0  0  0  0  0  0  0
   45.9097   33.6077   46.3382 H   0  0  0  0  0  0  0  0  0  0  0  0
   46.2147   35.1491   45.4677 H   0  0  0  0  0  0  0  0  0  0  0  0
   44.5695   34.4280   45.4677 H   0  0  0  0  0  0  0  0  0  0  0  0
   45.1376   31.5107   44.6816 H   0  0  0  0  0  0  0  0  0  0  0  0
   46.6540   31.4479   43.7014 H   0  0  0  0  0  0  0  0  0  0  0  0
   47.8539   32.1533   45.9035 H   0  0  0  0  0  0  0  0  0  0  0  0
   46.0564   29.9549   48.5206 H   0  0  0  0  0  0  0  0  0  0  0  0
   47.6068   30.7787   48.2041 H   0  0  0  0  0  0  0  0  0  0  0  0
  1 16  1  0
  1 15  1  0
  2  7  2  0
  3  4  2  0
  3  2  1  0
  4  5  1  0
  5  6  2  0
  6  1  1  0
  7  6  1  0
  8 12  1  0
  8  3  1  0
  9  8  1  0
 10  9  2  0
 10 11  1  0
 11 12  2  0
 12 13  1  0
 14  1  1  0
 16 17  1  0
 17 18  1  0
 18 19  2  0
 18 20  1  0
 21 19  1  0
  2 22  1  0
  4 23  1  0
  9 24  1  0
 10 25  1  0
 13 26  1  0
 13 27  1  0
 14 28  1  0
 14 29  1  0
 14 30  1  0
 15 31  1  0
 15 32  1  0
 15 33  1  0
 16 34  1  0
 16 35  1  0
 17 36  1  0
 20 37  1  0
 20 38  1  0
M  ISO  8  22  14  23  14  24  14  25  14  28   8  29   8  30   8  31   8
M  ISO  4  32   8  33   8  34   8  35   8
M  END
>  <minimizedAffinity>  (1) 
-5.08361387

>  <minimizedRMSD>  (1) 
2.62107778

$$$$
