
     RDKit          3D

 37 39  0  0  0  0  0  0  0  0999 V2000
   43.4670   35.1470   40.9700 C   0  0  0  0  0  0  0  0  0  0  0  0
   42.6100   34.0490   41.0250 C   0  0  0  0  0  0  0  0  0  0  0  0
   43.0710   32.8590   41.6330 C   0  0  0  0  0  0  0  0  0  0  0  0
   44.3440   32.8810   42.1280 N   0  0  0  0  0  0  0  0  0  0  0  0
   45.1320   33.9640   42.0500 C   0  0  0  0  0  0  0  0  0  0  0  0
   44.7020   35.0980   41.4750 N   0  0  0  0  0  0  0  0  0  0  0  0
   41.3430   34.2140   40.4650 N   0  0  0  0  0  0  0  0  0  0  0  0
   40.9890   34.4950   39.2070 C   0  0  0  0  0  0  0  0  0  0  0  0
   39.5980   34.5570   39.1530 C   0  0  0  0  0  0  0  0  0  0  0  0
   39.1310   34.3100   40.3960 N   0  0  0  0  0  0  0  0  0  0  0  0
   40.2020   34.1000   41.1920 C   0  0  0  0  0  0  0  0  0  0  0  0
   39.8900   33.8230   42.5480 N   0  0  0  0  0  0  0  0  0  0  0  0
   46.5010   33.9710   42.5900 C   0  0  0  0  0  0  0  0  0  0  0  0
   47.1610   35.3260   42.4040 C   0  0  0  0  0  0  0  0  0  0  0  0
   46.4190   33.6490   44.0700 C   0  0  0  0  0  0  0  0  0  0  0  0
   47.4070   32.9570   41.9410 C   0  0  0  0  0  0  0  0  0  0  0  0
   47.4700   33.0640   40.4670 C   0  0  0  0  0  0  0  0  0  0  0  0
   46.8800   32.0410   39.7070 C   0  0  0  0  0  0  0  0  0  0  0  0
   47.2160   32.6220   37.9520 S   0  0  0  0  0  0  0  0  0  0  0  0
   48.1020   34.1610   38.6320 C   0  0  0  0  0  0  0  0  0  0  0  0
   48.0200   34.0210   39.7430 N   0  0  0  0  0  0  0  0  0  0  0  0
   43.1170   36.0772   40.4987 H   0  0  0  0  0  0  0  0  0  0  0  0
   42.4378   31.9623   41.7038 H   0  0  0  0  0  0  0  0  0  0  0  0
   41.6759   34.6502   38.3619 H   0  0  0  0  0  0  0  0  0  0  0  0
   38.9908   34.7686   38.2605 H   0  0  0  0  0  0  0  0  0  0  0  0
   38.9071   33.7927   42.8545 H   0  0  0  0  0  0  0  0  0  0  0  0
   40.6464   33.6522   43.2260 H   0  0  0  0  0  0  0  0  0  0  0  0
   47.3760   35.7674   43.3884 H   0  0  0  0  0  0  0  0  0  0  0  0
   48.1000   35.2028   41.8444 H   0  0  0  0  0  0  0  0  0  0  0  0
   46.4851   35.9894   41.8444 H   0  0  0  0  0  0  0  0  0  0  0  0
   46.6489   34.5518   44.6549 H   0  0  0  0  0  0  0  0  0  0  0  0
   45.4040   33.3025   44.3142 H   0  0  0  0  0  0  0  0  0  0  0  0
   47.1447   32.8592   44.3142 H   0  0  0  0  0  0  0  0  0  0  0  0
   48.4223   33.0936   42.3416 H   0  0  0  0  0  0  0  0  0  0  0  0
   46.9913   31.9649   42.1710 H   0  0  0  0  0  0  0  0  0  0  0  0
   46.3575   31.1357   40.0497 H   0  0  0  0  0  0  0  0  0  0  0  0
   48.5763   34.9830   38.0759 H   0  0  0  0  0  0  0  0  0  0  0  0
  1  2  2  0
  1  6  1  0
  2  3  1  0
  3  4  2  0
  5  4  1  0
  5 13  1  0
  6  5  2  0
  7  2  1  0
  7 11  1  0
  8  7  1  0
  9  8  2  0
  9 10  1  0
 10 11  2  0
 11 12  1  0
 13 15  1  0
 14 13  1  0
 16 13  1  0
 17 16  1  0
 18 17  2  0
 19 20  1  0
 19 18  1  0
 20 21  2  0
 21 17  1  0
  1 22  1  0
  3 23  1  0
  8 24  1  0
  9 25  1  0
 12 26  1  0
 12 27  1  0
 14 28  1  0
 14 29  1  0
 14 30  1  0
 15 31  1  0
 15 32  1  0
 15 33  1  0
 16 34  1  0
 16 35  1  0
 18 36  1  0
 20 37  1  0
M  ISO  8  22  14  23  14  24  14  25  14  28   8  29   8  30   8  31   8
M  ISO  6  32   8  33   8  34   8  35   8  36  14  37  14
M  END
>  <minimizedAffinity>  (1) 
-4.92247581

>  <minimizedRMSD>  (1) 
1.93709183

$$$$
