
     RDKit          3D

 30 31  0  0  1  0  0  0  0  0999 V2000
   47.0100   33.0380   44.9090 C   0  0  2  0  0  0  0  0  0  0  0  0
   47.2460   31.4760   44.5870 C   0  0  0  0  0  0  0  0  0  0  0  0
   47.4490   30.6090   45.7210 C   0  0  0  0  0  0  0  0  0  0  0  0
   47.3960   31.1860   47.0810 C   0  0  0  0  0  0  0  0  0  0  0  0
   47.0120   32.5890   47.2430 C   0  0  0  0  0  0  0  0  0  0  0  0
   46.1730   33.0760   46.1050 C   0  0  0  0  0  0  0  0  0  0  0  0
   47.2040   34.1720   42.7370 C   0  0  0  0  0  0  0  0  0  0  0  0
   46.3840   33.5690   43.6740 C   0  0  0  0  0  0  0  0  0  0  0  0
   44.9510   33.5350   43.4490 C   0  0  0  0  0  0  0  0  0  0  0  0
   44.4840   34.1100   42.3180 N   0  0  0  0  0  0  0  0  0  0  0  0
   45.3270   34.6960   41.4170 C   0  0  0  0  0  0  0  0  0  0  0  0
   46.6680   34.7220   41.6280 N   0  0  0  0  0  0  0  0  0  0  0  0
   48.6400   34.5060   42.7250 C   0  0  0  0  0  0  0  0  0  0  0  0
   49.0190   35.5880   41.7080 C   0  0  0  0  0  0  0  0  0  0  0  0
   47.8971   33.6490   45.1321 H   0  0  0  0  0  0  0  0  0  0  0  0
   47.2518   31.0919   43.5563 H   0  0  0  0  0  0  0  0  0  0  0  0
   47.6402   29.5354   45.5765 H   0  0  0  0  0  0  0  0  0  0  0  0
   46.6762   30.5864   47.6575 H   0  0  0  0  0  0  0  0  0  0  0  0
   48.4422   31.1585   47.4197 H   0  0  0  0  0  0  0  0  0  0  0  0
   46.4399   32.6949   48.1766 H   0  0  0  0  0  0  0  0  0  0  0  0
   47.9318   33.1918   47.2689 H   0  0  0  0  0  0  0  0  0  0  0  0
   45.8363   34.1053   46.2976 H   0  0  0  0  0  0  0  0  0  0  0  0
   45.2800   32.4462   45.9787 H   0  0  0  0  0  0  0  0  0  0  0  0
   44.2707   33.0596   44.1709 H   0  0  0  0  0  0  0  0  0  0  0  0
   44.9131   35.1539   40.5065 H   0  0  0  0  0  0  0  0  0  0  0  0
   48.9214   34.8599   43.7278 H   0  0  0  0  0  0  0  0  0  0  0  0
   49.1773   33.5918   42.4327 H   0  0  0  0  0  0  0  0  0  0  0  0
   49.3372   36.4964   42.2405 H   0  0  0  0  0  0  0  0  0  0  0  0
   49.8436   35.2252   41.0768 H   0  0  0  0  0  0  0  0  0  0  0  0
   48.1483   35.8190   41.0768 H   0  0  0  0  0  0  0  0  0  0  0  0
  1  6  1  0
  2  1  1  0
  2  3  2  0
  3  4  1  0
  4  5  1  0
  6  5  1  0
  7  8  2  0
  8  1  1  0
  9  8  1  0
 10  9  2  0
 11 12  2  0
 11 10  1  0
 12  7  1  0
 13  7  1  0
 14 13  1  0
  1 15  1  1
  2 16  1  0
  3 17  1  0
  4 18  1  0
  4 19  1  0
  5 20  1  0
  5 21  1  0
  6 22  1  0
  6 23  1  0
  9 24  1  0
 11 25  1  0
 13 26  1  0
 13 27  1  0
 14 28  1  0
 14 29  1  0
 14 30  1  0
M  ISO  8  15  13  16  13  17  13  18  13  19  13  20  13  21  13  22  13
M  ISO  8  23  13  24  14  25  14  26   8  27   8  28   8  29   8  30   8
M  END
>  <minimizedAffinity>  (1) 
-4.16457891

>  <minimizedRMSD>  (1) 
5.59319401

$$$$
