
     RDKit          3D

 26 27  0  0  0  0  0  0  0  0999 V2000
   45.9940   34.4260   43.8850 C   0  0  0  0  0  0  0  0  0  0  0  0
   47.0670   33.5070   43.7820 C   0  0  0  0  0  0  0  0  0  0  0  0
   47.2980   32.6570   44.8820 C   0  0  0  0  0  0  0  0  0  0  0  0
   46.4870   32.7720   45.9630 N   0  0  0  0  0  0  0  0  0  0  0  0
   45.4810   33.6430   46.0450 C   0  0  0  0  0  0  0  0  0  0  0  0
   45.2520   34.4590   44.9990 N   0  0  0  0  0  0  0  0  0  0  0  0
   45.6950   35.3420   42.7840 C   0  0  0  0  0  0  0  0  0  0  0  0
   44.3560   35.7890   42.3880 C   0  0  0  0  0  0  0  0  0  0  0  0
   45.1220   36.7020   43.2300 C   0  0  0  0  0  0  0  0  0  0  0  0
   47.9240   33.4210   42.5920 C   0  0  0  0  0  0  0  0  0  0  0  0
   47.1350   33.1820   41.3600 C   0  0  0  0  0  0  0  0  0  0  0  0
   48.8200   34.6190   42.5490 C   0  0  0  0  0  0  0  0  0  0  0  0
   48.1143   31.9199   44.8644 H   0  0  0  0  0  0  0  0  0  0  0  0
   44.8526   33.6937   46.9464 H   0  0  0  0  0  0  0  0  0  0  0  0
   46.5196   34.9139   42.1951 H   0  0  0  0  0  0  0  0  0  0  0  0
   44.1645   36.0554   41.3381 H   0  0  0  0  0  0  0  0  0  0  0  0
   43.3542   35.3428   42.4731 H   0  0  0  0  0  0  0  0  0  0  0  0
   44.8319   36.8643   44.2786 H   0  0  0  0  0  0  0  0  0  0  0  0
   45.4438   37.7517   43.1629 H   0  0  0  0  0  0  0  0  0  0  0  0
   48.5777   32.5386   42.6549 H   0  0  0  0  0  0  0  0  0  0  0  0
   46.1149   32.8730   41.6320 H   0  0  0  0  0  0  0  0  0  0  0  0
   47.0919   34.1074   40.7669 H   0  0  0  0  0  0  0  0  0  0  0  0
   47.6127   32.3882   40.7669 H   0  0  0  0  0  0  0  0  0  0  0  0
   49.0574   34.9364   43.5751 H   0  0  0  0  0  0  0  0  0  0  0  0
   49.7498   34.3627   42.0201 H   0  0  0  0  0  0  0  0  0  0  0  0
   48.3114   35.4385   42.0201 H   0  0  0  0  0  0  0  0  0  0  0  0
  1  6  1  0
  2  1  2  0
  2  3  1  0
  3  4  2  0
  4  5  1  0
  6  5  2  0
  7  9  1  0
  7  1  1  0
  8  7  1  0
  8  9  1  0
 10  2  1  0
 11 10  1  0
 12 10  1  0
  3 13  1  0
  5 14  1  0
  7 15  1  0
  8 16  1  0
  8 17  1  0
  9 18  1  0
  9 19  1  0
 10 20  1  0
 11 21  1  0
 11 22  1  0
 11 23  1  0
 12 24  1  0
 12 25  1  0
 12 26  1  0
M  ISO  8  13  14  14  14  15  13  16  13  17  13  18  13  19  13  20   8
M  ISO  6  21   8  22   8  23   8  24   8  25   8  26   8
M  END
>  <minimizedAffinity>  (1) 
-3.69181013

>  <minimizedRMSD>  (1) 
1.77459133

$$$$
