
     RDKit          3D

 35 37  0  0  0  0  0  0  0  0999 V2000
   45.6893   33.8165   42.4122 C   0  0  2  0  0  0  0  0  0  0  0  0
   44.9845   35.2207   42.4488 C   0  0  0  0  0  0  0  0  0  0  0  0
   44.6255   35.7417   43.7451 C   0  0  0  0  0  0  0  0  0  0  0  0
   44.9745   34.9582   44.9413 C   0  0  0  0  0  0  0  0  0  0  0  0
   45.9028   33.8851   44.8330 C   0  0  0  0  0  0  0  0  0  0  0  0
   46.6506   33.7658   43.5184 C   0  0  0  0  0  0  0  0  0  0  0  0
   47.5120   34.4752   40.9521 C   0  0  0  0  0  0  0  0  0  0  0  0
   46.3059   33.7304   41.0771 C   0  0  0  0  0  0  0  0  0  0  0  0
   45.7133   32.9898   39.9585 C   0  0  0  0  0  0  0  0  0  0  0  0
   46.3728   33.0498   38.7953 N   0  0  0  0  0  0  0  0  0  0  0  0
   47.5365   33.7696   38.6831 C   0  0  0  0  0  0  0  0  0  0  0  0
   48.0619   34.4426   39.7279 N   0  0  0  0  0  0  0  0  0  0  0  0
   48.2287   35.2910   41.8846 C   0  0  0  0  0  0  0  0  0  0  0  0
   47.2942   36.1764   42.4960 F   0  0  0  0  0  0  0  0  0  0  0  0
   49.3331   35.9598   41.5904 F   0  0  0  0  0  0  0  0  0  0  0  0
   48.6235   34.6186   43.0473 F   0  0  0  0  0  0  0  0  0  0  0  0
   44.8547   33.1178   42.4587 H   0  0  0  0  0  0  0  0  0  0  0  0
   44.7430   35.8326   41.6007 H   0  0  0  0  0  0  0  0  0  0  0  0
   44.1422   36.6936   43.7932 H   0  0  0  0  0  0  0  0  0  0  0  0
   43.9979   34.6264   45.3923 H   0  0  0  0  0  0  0  0  0  0  0  0
   45.3335   35.7278   45.6921 H   0  0  0  0  0  0  0  0  0  0  0  0
   45.3873   32.9145   45.0733 H   0  0  0  0  0  0  0  0  0  0  0  0
   46.7022   33.9613   45.6273 H   0  0  0  0  0  0  0  0  0  0  0  0
   46.9430   32.6213   43.5188 H   0  0  0  0  0  0  0  0  0  0  0  0
   46.7182   33.3439   43.5635 H   0  0  0  0  0  0  0  0  0  0  0  0
   44.8198   32.4957   40.2339 H   0  0  0  0  0  0  0  0  0  0  0  0
   48.2090   33.7873   37.3650 C   0  0  0  0  0  0  0  0  0  0  0  0
   49.5124   34.2203   37.2644 C   0  0  0  0  0  0  0  0  0  0  0  0
   50.0646   34.2034   35.9897 C   0  0  0  0  0  0  0  0  0  0  0  0
   51.1050   34.5567   35.9568 H   0  0  0  0  0  0  0  0  0  0  0  0
   49.3625   33.7872   34.9176 N   0  0  0  0  0  0  0  0  0  0  0  0
   48.0870   33.3693   35.0514 C   0  0  0  0  0  0  0  0  0  0  0  0
   47.5233   33.3749   36.2819 N   0  0  0  0  0  0  0  0  0  0  0  0
   50.0218   34.5420   38.1637 H   0  0  0  0  0  0  0  0  0  0  0  0
   47.5616   33.0453   34.1721 H   0  0  0  0  0  0  0  0  0  0  0  0
  1  2  1  0
  1  6  1  0
  2  3  2  0
  3  4  1  0
  5  4  1  0
  6  5  1  0
  7  8  2  0
  7 13  1  0
  8  1  1  0
  9  8  1  0
 10  9  2  0
 11 10  1  0
 11 12  2  0
 12  7  1  0
 13 14  1  0
 13 16  1  0
 15 13  1  0
  1 17  1  1
  2 18  1  0
  3 19  1  0
  4 20  1  0
  4 21  1  0
  5 22  1  0
  5 23  1  0
  6 24  1  0
  6 25  1  0
  9 26  1  0
 27 28  2  0
 28 29  1  0
 29 30  1  0
 29 31  2  0
 31 32  1  0
 32 33  2  0
 33 27  1  0
 28 34  1  0
 32 35  1  0
 11 27  1  0
M  END
>  <DihAtoms>  (1) 
9,10,26,27

>  <DihDeg>  (1) 
0.00404745643169502

$$$$
