
     RDKit          3D

 34 36  0  0  0  0  0  0  0  0999 V2000
   45.6810   33.8182   42.4100 C   0  0  2  0  0  0  0  0  0  0  0  0
   44.9886   35.2218   42.4595 C   0  0  0  0  0  0  0  0  0  0  0  0
   44.6259   35.7471   43.7384 C   0  0  0  0  0  0  0  0  0  0  0  0
   44.9530   34.9443   44.9348 C   0  0  0  0  0  0  0  0  0  0  0  0
   45.9279   33.9004   44.8426 C   0  0  0  0  0  0  0  0  0  0  0  0
   46.6449   33.7627   43.5116 C   0  0  0  0  0  0  0  0  0  0  0  0
   47.5093   34.4833   40.9482 C   0  0  0  0  0  0  0  0  0  0  0  0
   46.3063   33.7328   41.0788 C   0  0  0  0  0  0  0  0  0  0  0  0
   45.7149   32.9827   39.9608 C   0  0  0  0  0  0  0  0  0  0  0  0
   46.3769   33.0421   38.7893 N   0  0  0  0  0  0  0  0  0  0  0  0
   47.5259   33.7667   38.6879 C   0  0  0  0  0  0  0  0  0  0  0  0
   48.0670   34.4571   39.7265 N   0  0  0  0  0  0  0  0  0  0  0  0
   48.2295   35.2921   41.8820 C   0  0  0  0  0  0  0  0  0  0  0  0
   47.2982   36.1761   42.5002 F   0  0  0  0  0  0  0  0  0  0  0  0
   49.3371   35.9542   41.5937 F   0  0  0  0  0  0  0  0  0  0  0  0
   48.6224   34.6093   43.0467 F   0  0  0  0  0  0  0  0  0  0  0  0
   44.8737   33.0849   42.4440 H   0  0  0  0  0  0  0  0  0  0  0  0
   44.7844   35.7853   41.5827 H   0  0  0  0  0  0  0  0  0  0  0  0
   44.1552   36.6931   43.7918 H   0  0  0  0  0  0  0  0  0  0  0  0
   43.9496   34.5556   45.2878 H   0  0  0  0  0  0  0  0  0  0  0  0
   45.2107   35.6940   45.7264 H   0  0  0  0  0  0  0  0  0  0  0  0
   45.4962   32.9403   45.2059 H   0  0  0  0  0  0  0  0  0  0  0  0
   46.7636   34.0966   45.5870 H   0  0  0  0  0  0  0  0  0  0  0  0
   46.9230   32.6139   43.5269 H   0  0  0  0  0  0  0  0  0  0  0  0
   46.6765   33.3686   43.5472 H   0  0  0  0  0  0  0  0  0  0  0  0
   44.8258   32.4915   40.2571 H   0  0  0  0  0  0  0  0  0  0  0  0
   48.1086   33.7205   37.3497 C   0  0  0  0  0  0  0  0  0  0  0  0
   49.3100   34.3780   37.1219 C   0  0  0  0  0  0  0  0  0  0  0  0
   49.5762   34.1362   35.7689 C   0  0  0  0  0  0  0  0  0  0  0  0
   48.5304   33.3550   35.2650 C   0  0  0  0  0  0  0  0  0  0  0  0
   48.3904   32.9685   34.2496 H   0  0  0  0  0  0  0  0  0  0  0  0
   47.6912   33.1456   36.2642 O   0  0  0  0  0  0  0  0  0  0  0  0
   49.9587   34.9569   37.7518 H   0  0  0  0  0  0  0  0  0  0  0  0
   50.4350   34.4772   35.1726 H   0  0  0  0  0  0  0  0  0  0  0  0
  1  2  1  0
  1  6  1  0
  2  3  2  0
  3  4  1  0
  5  4  1  0
  6  5  1  0
  7  8  2  0
  7 13  1  0
  8  1  1  0
  9  8  1  0
 10  9  2  0
 11 10  1  0
 11 12  2  0
 12  7  1  0
 13 14  1  0
 13 16  1  0
 15 13  1  0
  1 17  1  1
  2 18  1  0
  3 19  1  0
  4 20  1  0
  4 21  1  0
  5 22  1  0
  5 23  1  0
  6 24  1  0
  6 25  1  0
  9 26  1  0
 27 28  2  0
 28 29  1  0
 29 30  2  0
 30 31  1  0
 30 32  1  0
 32 27  1  0
 28 33  1  0
 29 34  1  0
 11 27  1  0
M  END
>  <DihAtoms>  (1) 
9,10,26,27

>  <DihDeg>  (1) 
92.3171950941238

$$$$
