
     RDKit          3D

 41 44  0  0  0  0  0  0  0  0999 V2000
   45.6925   33.8037   42.4174 C   0  0  2  0  0  0  0  0  0  0  0  0
   44.9830   35.2137   42.4423 C   0  0  0  0  0  0  0  0  0  0  0  0
   44.6208   35.7470   43.7391 C   0  0  0  0  0  0  0  0  0  0  0  0
   44.9726   34.9704   44.9394 C   0  0  0  0  0  0  0  0  0  0  0  0
   45.8978   33.8935   44.8330 C   0  0  0  0  0  0  0  0  0  0  0  0
   46.6476   33.7671   43.5199 C   0  0  0  0  0  0  0  0  0  0  0  0
   47.5126   34.4815   40.9493 C   0  0  0  0  0  0  0  0  0  0  0  0
   46.3172   33.7174   41.0832 C   0  0  0  0  0  0  0  0  0  0  0  0
   45.7286   32.9738   39.9630 C   0  0  0  0  0  0  0  0  0  0  0  0
   46.3710   33.0482   38.7923 N   0  0  0  0  0  0  0  0  0  0  0  0
   47.5117   33.7855   38.6843 C   0  0  0  0  0  0  0  0  0  0  0  0
   48.0576   34.4708   39.7200 N   0  0  0  0  0  0  0  0  0  0  0  0
   48.2311   35.2883   41.8860 C   0  0  0  0  0  0  0  0  0  0  0  0
   47.2987   36.1732   42.4983 F   0  0  0  0  0  0  0  0  0  0  0  0
   49.3428   35.9458   41.5947 F   0  0  0  0  0  0  0  0  0  0  0  0
   48.6234   34.6113   43.0488 F   0  0  0  0  0  0  0  0  0  0  0  0
   44.8845   33.0684   42.4521 H   0  0  0  0  0  0  0  0  0  0  0  0
   44.7260   35.8435   41.6300 H   0  0  0  0  0  0  0  0  0  0  0  0
   44.1371   36.6985   43.7698 H   0  0  0  0  0  0  0  0  0  0  0  0
   45.3492   35.7399   45.6808 H   0  0  0  0  0  0  0  0  0  0  0  0
   43.9947   34.6566   45.3999 H   0  0  0  0  0  0  0  0  0  0  0  0
   45.3732   32.9305   45.0815 H   0  0  0  0  0  0  0  0  0  0  0  0
   46.7007   33.9580   45.6254 H   0  0  0  0  0  0  0  0  0  0  0  0
   46.9348   32.6365   43.5420 H   0  0  0  0  0  0  0  0  0  0  0  0
   46.7459   33.2584   43.5716 H   0  0  0  0  0  0  0  0  0  0  0  0
   44.8516   32.4666   40.2446 H   0  0  0  0  0  0  0  0  0  0  0  0
   48.1831   33.8340   37.3605 C   0  0  0  0  0  0  0  0  0  0  0  0
   49.4718   34.2720   37.1318 C   0  0  0  0  0  0  0  0  0  0  0  0
   49.7113   34.1618   35.8050 N   0  0  0  0  0  0  0  0  0  0  0  0
   48.5977   33.6627   35.1933 C   0  0  0  0  0  0  0  0  0  0  0  0
   48.3360   33.3683   33.8619 C   0  0  0  0  0  0  0  0  0  0  0  0
   47.0964   32.8622   33.5128 C   0  0  0  0  0  0  0  0  0  0  0  0
   46.1117   32.6432   34.4640 C   0  0  0  0  0  0  0  0  0  0  0  0
   46.4111   32.9474   35.7685 C   0  0  0  0  0  0  0  0  0  0  0  0
   47.6320   33.4525   36.1566 C   0  0  0  0  0  0  0  0  0  0  0  0
   50.1729   34.6413   37.8861 H   0  0  0  0  0  0  0  0  0  0  0  0
   50.6315   34.4324   35.3594 H   0  0  0  0  0  0  0  0  0  0  0  0
   49.0949   33.5329   33.1014 H   0  0  0  0  0  0  0  0  0  0  0  0
   46.8685   32.6254   32.4855 H   0  0  0  0  0  0  0  0  0  0  0  0
   45.1437   32.2474   34.1876 H   0  0  0  0  0  0  0  0  0  0  0  0
   45.6457   32.7761   36.4997 H   0  0  0  0  0  0  0  0  0  0  0  0
  1  2  1  0
  1  6  1  0
  2  3  2  0
  3  4  1  0
  5  4  1  0
  6  5  1  0
  7  8  2  0
  7 13  1  0
  8  1  1  0
  9  8  1  0
 10  9  2  0
 11 10  1  0
 11 12  2  0
 12  7  1  0
 13 14  1  0
 13 16  1  0
 15 13  1  0
  1 17  1  1
  2 18  1  0
  3 19  1  0
  4 20  1  0
  4 21  1  0
  5 22  1  0
  5 23  1  0
  6 24  1  0
  6 25  1  0
  9 26  1  0
 27 28  2  0
 28 29  1  0
 29 30  1  0
 30 31  2  0
 31 32  1  0
 32 33  2  0
 33 34  1  0
 34 35  2  0
 35 27  1  0
 35 30  1  0
 28 36  1  0
 29 37  1  0
 31 38  1  0
 32 39  1  0
 33 40  1  0
 34 41  1  0
 11 27  1  0
M  END
>  <DihAtoms>  (1) 
9,10,26,27

>  <DihDeg>  (1) 
-179.9917140484316

$$$$
