
     RDKit          3D

 28 29  0  0  0  0  0  0  0  0999 V2000
   45.6741   33.8308   42.4128 C   0  0  2  0  0  0  0  0  0  0  0  0
   44.9965   35.2301   42.4657 C   0  0  0  0  0  0  0  0  0  0  0  0
   44.6288   35.7493   43.7427 C   0  0  0  0  0  0  0  0  0  0  0  0
   44.9297   34.9115   44.9222 C   0  0  0  0  0  0  0  0  0  0  0  0
   45.9516   33.9162   44.8478 C   0  0  0  0  0  0  0  0  0  0  0  0
   46.6499   33.7641   43.5104 C   0  0  0  0  0  0  0  0  0  0  0  0
   47.5107   34.4808   40.9475 C   0  0  0  0  0  0  0  0  0  0  0  0
   46.2986   33.7440   41.0754 C   0  0  0  0  0  0  0  0  0  0  0  0
   45.7042   32.9922   39.9544 C   0  0  0  0  0  0  0  0  0  0  0  0
   46.3742   33.0396   38.7901 N   0  0  0  0  0  0  0  0  0  0  0  0
   47.5309   33.7502   38.6908 C   0  0  0  0  0  0  0  0  0  0  0  0
   48.0819   34.4458   39.7288 N   0  0  0  0  0  0  0  0  0  0  0  0
   48.2301   35.2895   41.8819 C   0  0  0  0  0  0  0  0  0  0  0  0
   47.2988   36.1747   42.5030 F   0  0  0  0  0  0  0  0  0  0  0  0
   49.3253   35.9678   41.5933 F   0  0  0  0  0  0  0  0  0  0  0  0
   48.6237   34.6043   43.0442 F   0  0  0  0  0  0  0  0  0  0  0  0
   44.8137   33.1680   42.4179 H   0  0  0  0  0  0  0  0  0  0  0  0
   44.7531   35.8881   41.6679 H   0  0  0  0  0  0  0  0  0  0  0  0
   44.1630   36.7073   43.7931 H   0  0  0  0  0  0  0  0  0  0  0  0
   43.9319   34.4347   45.1699 H   0  0  0  0  0  0  0  0  0  0  0  0
   45.0728   35.6269   45.7732 H   0  0  0  0  0  0  0  0  0  0  0  0
   46.8142   34.2236   45.5207 H   0  0  0  0  0  0  0  0  0  0  0  0
   45.6247   32.9575   45.2954 H   0  0  0  0  0  0  0  0  0  0  0  0
   46.9233   32.6250   43.5275 H   0  0  0  0  0  0  0  0  0  0  0  0
   46.6514   33.2649   43.4977 H   0  0  0  0  0  0  0  0  0  0  0  0
   44.8084   32.5139   40.2521 H   0  0  0  0  0  0  0  0  0  0  0  0
   48.2537   33.6778   37.0593 S   0  0  0  0  0  0  0  0  0  0  0  0
   48.8526   34.9211   36.7921 H   0  0  0  0  0  0  0  0  0  0  0  0
  1  2  1  0
  1  6  1  0
  2  3  2  0
  3  4  1  0
  5  4  1  0
  6  5  1  0
  7  8  2  0
  7 13  1  0
  8  1  1  0
  9  8  1  0
 10  9  2  0
 11 10  1  0
 11 12  2  0
 12  7  1  0
 13 14  1  0
 13 16  1  0
 15 13  1  0
  1 17  1  1
  2 18  1  0
  3 19  1  0
  4 20  1  0
  4 21  1  0
  5 22  1  0
  5 23  1  0
  6 24  1  0
  6 25  1  0
  9 26  1  0
 27 28  1  0
 11 27  1  0
M  END
>  <DihAtoms>  (1) 
9,10,26,27

>  <DihDeg>  (1) 
144.95403674267362

$$$$
