
     RDKit          3D

 21 22  0  0  0  0  0  0  0  0999 V2000
   46.7660   33.1230   44.6700 C   0  0  0  0  0  0  0  0  0  0  0  0
   46.8370   32.3890   45.8760 C   0  0  0  0  0  0  0  0  0  0  0  0
   45.9780   32.7720   46.8940 C   0  0  0  0  0  0  0  0  0  0  0  0
   45.1370   33.8120   46.6670 N   0  0  0  0  0  0  0  0  0  0  0  0
   45.0940   34.4930   45.5030 C   0  0  0  0  0  0  0  0  0  0  0  0
   45.9070   34.1480   44.5110 N   0  0  0  0  0  0  0  0  0  0  0  0
   47.6740   32.7030   43.6230 C   0  0  0  0  0  0  0  0  0  0  0  0
   48.1830   31.5530   43.5570 O   0  0  0  0  0  0  0  0  0  0  0  0
   48.0340   33.6530   42.5750 C   0  0  0  0  0  0  0  0  0  0  0  0
   48.9720   34.6490   42.8090 C   0  0  0  0  0  0  0  0  0  0  0  0
   49.3440   35.5690   41.8440 C   0  0  0  0  0  0  0  0  0  0  0  0
   48.7350   35.4600   40.6090 C   0  0  0  0  0  0  0  0  0  0  0  0
   47.7890   34.4640   40.3580 C   0  0  0  0  0  0  0  0  0  0  0  0
   47.4610   33.5830   41.3440 N   0  0  0  0  0  0  0  0  0  0  0  0
   47.5410   31.5530   46.0007 H   0  0  0  0  0  0  0  0  0  0  0  0
   45.9781   32.2466   47.8604 H   0  0  0  0  0  0  0  0  0  0  0  0
   44.3900   35.3287   45.3764 H   0  0  0  0  0  0  0  0  0  0  0  0
   49.4393   34.7098   43.8029 H   0  0  0  0  0  0  0  0  0  0  0  0
   50.0899   36.3505   42.0510 H   0  0  0  0  0  0  0  0  0  0  0  0
   48.9994   36.1690   39.8106 H   0  0  0  0  0  0  0  0  0  0  0  0
   47.3114   34.3912   39.3698 H   0  0  0  0  0  0  0  0  0  0  0  0
  1  2  2  0
  2  3  1  0
  4  3  2  0
  5  4  1  0
  6  1  1  0
  6  5  2  0
  7  1  1  0
  8  7  2  0
  9 10  2  0
  9  7  1  0
 11 10  1  0
 12 11  2  0
 13 12  1  0
 13 14  2  0
 14  9  1  0
  2 15  1  0
  3 16  1  0
  5 17  1  0
 10 18  1  0
 11 19  1  0
 12 20  1  0
 13 21  1  0
M  ISO  7  15  14  16  14  17  14  18  14  19  14  20  14  21  14
M  END
>  <minimizedAffinity>  (1) 
-4.20903301

>  <minimizedRMSD>  (1) 
5.45977306

$$$$
