
     RDKit          3D

 40 43  0  0  1  0  0  0  0  0999 V2000
   45.9320   30.9240   47.3280 C   0  0  2  0  0  0  0  0  0  0  0  0
   44.7080   34.8100   46.0910 C   0  0  0  0  0  0  0  0  0  0  0  0
   44.5650   35.4840   44.8820 C   0  0  0  0  0  0  0  0  0  0  0  0
   45.1730   34.9420   43.7340 C   0  0  0  0  0  0  0  0  0  0  0  0
   45.8690   33.7910   43.8550 N   0  0  0  0  0  0  0  0  0  0  0  0
   46.0000   33.1420   45.0530 C   0  0  0  0  0  0  0  0  0  0  0  0
   45.4190   33.6630   46.1420 N   0  0  0  0  0  0  0  0  0  0  0  0
   46.7320   31.9370   45.1940 N   0  0  0  0  0  0  0  0  0  0  0  0
   47.6200   31.6500   44.2070 C   0  0  0  0  0  0  0  0  0  0  0  0
   48.2140   30.4460   44.5850 C   0  0  0  0  0  0  0  0  0  0  0  0
   47.6730   30.0490   45.7740 N   0  0  0  0  0  0  0  0  0  0  0  0
   46.7690   30.9750   46.1270 C   0  0  0  0  0  0  0  0  0  0  0  0
   46.7200   31.6920   48.4230 C   0  0  0  0  0  0  0  0  0  0  0  0
   45.7890   29.5080   47.8060 C   0  0  0  0  0  0  0  0  0  0  0  0
   44.8440   28.7430   47.0760 N   0  0  0  0  0  0  0  0  0  0  0  0
   44.1360   29.2040   46.0240 N   0  0  0  0  0  0  0  0  0  0  0  0
   43.3410   28.1950   45.5930 C   0  0  0  0  0  0  0  0  0  0  0  0
   43.5340   27.0820   46.3680 C   0  0  0  0  0  0  0  0  0  0  0  0
   44.5060   27.4570   47.3160 C   0  0  0  0  0  0  0  0  0  0  0  0
   44.9790   26.5250   48.3280 C   0  0  0  0  0  0  0  0  0  0  0  0
   44.2860   26.1430   49.4570 C   0  0  0  0  0  0  0  0  0  0  0  0
   45.0140   25.2680   50.1770 N   0  0  0  0  0  0  0  0  0  0  0  0
   46.1830   25.0650   49.5330 C   0  0  0  0  0  0  0  0  0  0  0  0
   46.1120   25.8270   48.4530 N   0  0  0  0  0  0  0  0  0  0  0  0
   44.9360   31.3428   47.1216 H   0  0  0  0  0  0  0  0  0  0  0  0
   44.2427   35.2108   47.0036 H   0  0  0  0  0  0  0  0  0  0  0  0
   43.9895   36.4197   44.8247 H   0  0  0  0  0  0  0  0  0  0  0  0
   45.0832   35.4449   42.7598 H   0  0  0  0  0  0  0  0  0  0  0  0
   47.8266   32.2410   43.3026 H   0  0  0  0  0  0  0  0  0  0  0  0
   48.9885   29.9067   44.0199 H   0  0  0  0  0  0  0  0  0  0  0  0
   46.3822   31.3628   49.4168 H   0  0  0  0  0  0  0  0  0  0  0  0
   47.7949   31.4855   48.3141 H   0  0  0  0  0  0  0  0  0  0  0  0
   46.5412   32.7719   48.3141 H   0  0  0  0  0  0  0  0  0  0  0  0
   46.7691   29.0153   47.7246 H   0  0  0  0  0  0  0  0  0  0  0  0
   45.4236   29.5585   48.8423 H   0  0  0  0  0  0  0  0  0  0  0  0
   42.6431   28.2600   44.7453 H   0  0  0  0  0  0  0  0  0  0  0  0
   43.0369   26.1056   46.2709 H   0  0  0  0  0  0  0  0  0  0  0  0
   43.2826   26.5014   49.7305 H   0  0  0  0  0  0  0  0  0  0  0  0
   47.0123   24.4102   49.8386 H   0  0  0  0  0  0  0  0  0  0  0  0
   46.8729   25.8782   47.7607 H   0  0  0  0  0  0  0  0  0  0  0  0
  1 14  1  0
  1 13  1  0
  2  7  2  0
  3  2  1  0
  4  5  1  0
  4  3  2  0
  5  6  2  0
  6  8  1  0
  6  7  1  0
  8 12  1  0
  9 10  2  0
  9  8  1  0
 10 11  1  0
 11 12  2  0
 12  1  1  0
 15 19  1  0
 15 14  1  0
 16 15  1  0
 17 16  2  0
 17 18  1  0
 18 19  2  0
 19 20  1  0
 20 24  1  0
 20 21  2  0
 21 22  1  0
 23 22  2  0
 24 23  1  0
  1 25  1  6
  2 26  1  0
  3 27  1  0
  4 28  1  0
  9 29  1  0
 10 30  1  0
 13 31  1  0
 13 32  1  0
 13 33  1  0
 14 34  1  0
 14 35  1  0
 17 36  1  0
 18 37  1  0
 21 38  1  0
 23 39  1  0
 24 40  1  0
M  ISO  8  25   8  26  14  27  14  28  14  29  14  30  14  31   8  32   8
M  ISO  8  33   8  34   8  35   8  36  14  37  14  38  14  39  14  40   9
M  END
>  <minimizedAffinity>  (1) 
-5.05227757

>  <minimizedRMSD>  (1) 
1.02143872

$$$$
