
     RDKit          3D

 39 42  0  0  1  0  0  0  0  0999 V2000
   47.6020   33.6030   42.6710 C   0  0  0  0  0  0  0  0  0  0  0  0
   48.4920   34.6370   42.5700 C   0  0  0  0  0  0  0  0  0  0  0  0
   48.8660   35.3380   41.4520 C   0  0  0  0  0  0  0  0  0  0  0  0
   48.2540   34.9290   40.3070 C   0  0  0  0  0  0  0  0  0  0  0  0
   47.3460   33.8950   40.3460 C   0  0  0  0  0  0  0  0  0  0  0  0
   47.0330   33.2510   41.5060 N   0  0  0  0  0  0  0  0  0  0  0  0
   46.7240   33.1830   39.2040 C   0  0  0  0  0  0  0  0  0  0  0  0
   46.2210   32.6060   38.2800 N   0  0  0  0  0  0  0  0  0  0  0  0
   45.7680   31.9820   37.3080 C   0  0  0  0  0  0  0  0  0  0  0  0
   44.5150   32.4050   37.5060 N   0  0  0  0  0  0  0  0  0  0  0  0
   44.2720   33.2370   38.5590 C   0  0  0  0  0  0  0  0  0  0  0  0
   42.8920   33.5540   38.6910 C   0  0  0  0  0  0  0  0  0  0  0  0
   42.5600   34.3210   39.7710 C   0  0  0  0  0  0  0  0  0  0  0  0
   43.4250   34.7980   40.7140 C   0  0  0  0  0  0  0  0  0  0  0  0
   44.7140   34.3990   40.4310 C   0  0  0  0  0  0  0  0  0  0  0  0
   45.3500   33.6210   39.4000 C   0  0  0  0  0  0  0  0  0  0  0  0
   47.3040   32.9520   43.9270 C   0  0  0  0  0  0  0  0  0  0  0  0
   47.9150   31.8780   44.1660 O   0  0  0  0  0  0  0  0  0  0  0  0
   46.3500   33.5500   44.8180 C   0  0  0  0  0  0  0  0  0  0  0  0
   46.2350   32.9700   46.0990 C   0  0  0  0  0  0  0  0  0  0  0  0
   45.3260   33.5170   46.9800 C   0  0  0  0  0  0  0  0  0  0  0  0
   44.5920   34.5890   46.5560 N   0  0  0  0  0  0  0  0  0  0  0  0
   44.7210   35.1270   45.3230 C   0  0  0  0  0  0  0  0  0  0  0  0
   45.5900   34.6140   44.4610 N   0  0  0  0  0  0  0  0  0  0  0  0
   48.9713   34.9474   43.5102 H   0  0  0  0  0  0  0  0  0  0  0  0
   49.5971   36.1595   41.4784 H   0  0  0  0  0  0  0  0  0  0  0  0
   48.4846   35.4239   39.3521 H   0  0  0  0  0  0  0  0  0  0  0  0
   46.9099   34.0547   38.5593 H   0  0  0  0  0  0  0  0  0  0  0  0
   45.5358   32.1614   38.9075 H   0  0  0  0  0  0  0  0  0  0  0  0
   45.8779   30.8916   37.4031 H   0  0  0  0  0  0  0  0  0  0  0  0
   46.2254   32.1486   36.3216 H   0  0  0  0  0  0  0  0  0  0  0  0
   43.7528   32.1100   36.8792 H   0  0  0  0  0  0  0  0  0  0  0  0
   42.1397   33.2036   37.9690 H   0  0  0  0  0  0  0  0  0  0  0  0
   41.4975   34.5784   39.8926 H   0  0  0  0  0  0  0  0  0  0  0  0
   43.1342   35.4139   41.5778 H   0  0  0  0  0  0  0  0  0  0  0  0
   45.4343   34.7656   41.1771 H   0  0  0  0  0  0  0  0  0  0  0  0
   46.8526   32.1064   46.3867 H   0  0  0  0  0  0  0  0  0  0  0  0
   45.1959   33.1039   47.9912 H   0  0  0  0  0  0  0  0  0  0  0  0
   44.1050   35.9911   45.0335 H   0  0  0  0  0  0  0  0  0  0  0  0
  1 17  1  0
  2  1  2  0
  3  2  1  0
  4  5  1  0
  4  3  2  0
  5  6  2  0
  6  1  1  0
  7 16  1  0
  7  5  1  0
  8  7  1  0
  9 10  1  0
  9  8  1  0
 10 11  1  0
 11 12  2  0
 11 16  1  0
 12 13  1  0
 13 14  2  0
 15 14  1  0
 16 15  2  0
 17 18  2  0
 17 19  1  0
 19 20  2  0
 20 21  1  0
 22 21  2  0
 23 22  1  0
 24 19  1  0
 24 23  2  0
  2 25  1  0
  3 26  1  0
  4 27  1  0
  7 28  1  0
  8 29  1  0
  9 30  1  0
  9 31  1  0
 10 32  1  0
 12 33  1  0
 13 34  1  0
 14 35  1  0
 15 36  1  0
 20 37  1  0
 21 38  1  0
 23 39  1  0
M  ISO  8  25  14  26  14  27  14  28  13  29   5  30  13  31  13  33  14
M  ISO  6  34  14  35  14  36  14  37  14  38  14  39  14
M  END
>  <minimizedAffinity>  (1) 
-5.58866405

>  <minimizedRMSD>  (1) 
1.76862431

$$$$
