
     RDKit          3D

 28 30  0  0  0  0  0  0  0  0999 V2000
   47.8580   34.0080   42.4520 C   0  0  0  0  0  0  0  0  0  0  0  0
   48.6440   35.1270   42.6230 C   0  0  0  0  0  0  0  0  0  0  0  0
   49.1370   35.8740   41.5770 C   0  0  0  0  0  0  0  0  0  0  0  0
   48.8050   35.4500   40.3120 C   0  0  0  0  0  0  0  0  0  0  0  0
   48.0150   34.3280   40.1060 C   0  0  0  0  0  0  0  0  0  0  0  0
   47.5650   33.6410   41.1810 N   0  0  0  0  0  0  0  0  0  0  0  0
   47.6900   33.9140   38.7830 N   0  0  0  0  0  0  0  0  0  0  0  0
   46.5990   33.2500   38.4450 N   0  0  0  0  0  0  0  0  0  0  0  0
   46.5790   33.0070   37.1250 C   0  0  0  0  0  0  0  0  0  0  0  0
   47.7520   33.5640   36.6050 C   0  0  0  0  0  0  0  0  0  0  0  0
   48.4360   34.1330   37.6850 C   0  0  0  0  0  0  0  0  0  0  0  0
   47.3580   33.2490   43.5970 C   0  0  0  0  0  0  0  0  0  0  0  0
   47.8360   32.0900   43.7720 O   0  0  0  0  0  0  0  0  0  0  0  0
   46.3630   33.8410   44.4540 C   0  0  0  0  0  0  0  0  0  0  0  0
   46.2500   33.2950   45.7480 C   0  0  0  0  0  0  0  0  0  0  0  0
   45.3050   33.8480   46.5840 C   0  0  0  0  0  0  0  0  0  0  0  0
   44.5460   34.8760   46.1140 N   0  0  0  0  0  0  0  0  0  0  0  0
   44.6770   35.3750   44.8760 C   0  0  0  0  0  0  0  0  0  0  0  0
   45.5820   34.8590   44.0490 N   0  0  0  0  0  0  0  0  0  0  0  0
   48.8902   35.4395   43.6485 H   0  0  0  0  0  0  0  0  0  0  0  0
   49.7632   36.7628   41.7444 H   0  0  0  0  0  0  0  0  0  0  0  0
   49.1744   36.0136   39.4426 H   0  0  0  0  0  0  0  0  0  0  0  0
   45.7961   32.4757   36.5640 H   0  0  0  0  0  0  0  0  0  0  0  0
   48.0737   33.5562   35.5531 H   0  0  0  0  0  0  0  0  0  0  0  0
   49.4009   34.6596   37.6440 H   0  0  0  0  0  0  0  0  0  0  0  0
   46.8893   32.4624   46.0767 H   0  0  0  0  0  0  0  0  0  0  0  0
   45.1669   33.4680   47.6070 H   0  0  0  0  0  0  0  0  0  0  0  0
   44.0385   36.2077   44.5459 H   0  0  0  0  0  0  0  0  0  0  0  0
  1  2  2  0
  1 12  1  0
  3  2  1  0
  4  3  2  0
  5  4  1  0
  5  6  2  0
  6  1  1  0
  7  5  1  0
  8  7  1  0
  9  8  2  0
 10  9  1  0
 10 11  2  0
 11  7  1  0
 12 13  2  0
 12 14  1  0
 14 15  2  0
 15 16  1  0
 17 16  2  0
 18 17  1  0
 19 14  1  0
 19 18  2  0
  2 20  1  0
  3 21  1  0
  4 22  1  0
  9 23  1  0
 10 24  1  0
 11 25  1  0
 15 26  1  0
 16 27  1  0
 18 28  1  0
M  ISO  8  20  14  21  14  22  14  23  14  24  14  25  14  26  14  27  14
M  ISO  1  28  14
M  END
>  <minimizedAffinity>  (1) 
-5.46771336

>  <minimizedRMSD>  (1) 
0.903812349

$$$$
