
     RDKit          3D

 29 31  0  0  0  0  0  0  0  0999 V2000
   47.7510   34.0450   42.3040 C   0  0  0  0  0  0  0  0  0  0  0  0
   48.5440   35.1760   42.4160 C   0  0  0  0  0  0  0  0  0  0  0  0
   49.0660   35.8480   41.3350 C   0  0  0  0  0  0  0  0  0  0  0  0
   48.7560   35.3280   40.0810 C   0  0  0  0  0  0  0  0  0  0  0  0
   47.9640   34.1980   39.9480 C   0  0  0  0  0  0  0  0  0  0  0  0
   47.4770   33.5790   41.0470 N   0  0  0  0  0  0  0  0  0  0  0  0
   47.6820   33.7120   38.6000 C   0  0  0  0  0  0  0  0  0  0  0  0
   48.6000   33.8730   37.5820 C   0  0  0  0  0  0  0  0  0  0  0  0
   48.2130   33.3670   36.3420 C   0  0  0  0  0  0  0  0  0  0  0  0
   47.0240   32.7640   36.1610 N   0  0  0  0  0  0  0  0  0  0  0  0
   46.1510   32.6230   37.1740 C   0  0  0  0  0  0  0  0  0  0  0  0
   46.4960   33.1060   38.3990 N   0  0  0  0  0  0  0  0  0  0  0  0
   47.2220   33.3730   43.4870 C   0  0  0  0  0  0  0  0  0  0  0  0
   47.6680   32.2150   43.7350 O   0  0  0  0  0  0  0  0  0  0  0  0
   46.2390   34.0440   44.2990 C   0  0  0  0  0  0  0  0  0  0  0  0
   46.0660   33.5180   45.6030 C   0  0  0  0  0  0  0  0  0  0  0  0
   45.1200   34.1560   46.3990 C   0  0  0  0  0  0  0  0  0  0  0  0
   44.4410   35.2180   45.8820 N   0  0  0  0  0  0  0  0  0  0  0  0
   44.6400   35.6790   44.6380 C   0  0  0  0  0  0  0  0  0  0  0  0
   45.5350   35.0970   43.8480 N   0  0  0  0  0  0  0  0  0  0  0  0
   48.7681   35.5569   43.4233 H   0  0  0  0  0  0  0  0  0  0  0  0
   49.6922   36.7445   41.4544 H   0  0  0  0  0  0  0  0  0  0  0  0
   49.1466   35.8228   39.1796 H   0  0  0  0  0  0  0  0  0  0  0  0
   49.5705   34.3667   37.7384 H   0  0  0  0  0  0  0  0  0  0  0  0
   48.8990   33.4635   35.4876 H   0  0  0  0  0  0  0  0  0  0  0  0
   45.1809   32.1290   37.0165 H   0  0  0  0  0  0  0  0  0  0  0  0
   46.6455   32.6559   45.9648 H   0  0  0  0  0  0  0  0  0  0  0  0
   44.9243   33.8101   47.4247 H   0  0  0  0  0  0  0  0  0  0  0  0
   44.0613   36.5399   44.2719 H   0  0  0  0  0  0  0  0  0  0  0  0
  1  2  2  0
  1 13  1  0
  3  2  1  0
  4  3  2  0
  5  4  1  0
  5  6  2  0
  6  1  1  0
  7  5  1  0
  8  7  2  0
  9  8  1  0
 10  9  2  0
 10 11  1  0
 11 12  2  0
 12  7  1  0
 13 14  2  0
 13 15  1  0
 15 16  2  0
 16 17  1  0
 18 17  2  0
 19 18  1  0
 20 15  1  0
 20 19  2  0
  2 21  1  0
  3 22  1  0
  4 23  1  0
  8 24  1  0
  9 25  1  0
 11 26  1  0
 16 27  1  0
 17 28  1  0
 19 29  1  0
M  ISO  8  21  14  22  14  23  14  24  14  25  14  26  14  27  14  28  14
M  ISO  1  29  14
M  END
>  <minimizedAffinity>  (1) 
-5.37002325

>  <minimizedRMSD>  (1) 
1.32339156

$$$$
