
     RDKit          3D

 28 30  0  0  0  0  0  0  0  0999 V2000
   47.7890   34.0730   42.3950 C   0  0  0  0  0  0  0  0  0  0  0  0
   48.5820   35.1890   42.6000 C   0  0  0  0  0  0  0  0  0  0  0  0
   49.1270   35.9020   41.5520 C   0  0  0  0  0  0  0  0  0  0  0  0
   48.8710   35.4830   40.2730 C   0  0  0  0  0  0  0  0  0  0  0  0
   48.0760   34.3650   40.0690 C   0  0  0  0  0  0  0  0  0  0  0  0
   47.5600   33.6930   41.1220 N   0  0  0  0  0  0  0  0  0  0  0  0
   47.7650   33.8680   38.7680 C   0  0  0  0  0  0  0  0  0  0  0  0
   48.4590   34.0410   37.5670 C   0  0  0  0  0  0  0  0  0  0  0  0
   47.9430   33.4530   36.4410 C   0  0  0  0  0  0  0  0  0  0  0  0
   46.7780   32.7220   36.5300 C   0  0  0  0  0  0  0  0  0  0  0  0
   46.3260   32.8390   38.3170 S   0  0  0  0  0  0  0  0  0  0  0  0
   47.2250   33.3370   43.5220 C   0  0  0  0  0  0  0  0  0  0  0  0
   47.6300   32.1620   43.7010 O   0  0  0  0  0  0  0  0  0  0  0  0
   46.2400   33.9890   44.3630 C   0  0  0  0  0  0  0  0  0  0  0  0
   46.0930   33.4540   45.6640 C   0  0  0  0  0  0  0  0  0  0  0  0
   45.1520   34.0680   46.4850 C   0  0  0  0  0  0  0  0  0  0  0  0
   44.4560   35.1130   45.9960 N   0  0  0  0  0  0  0  0  0  0  0  0
   44.6160   35.6010   44.7540 C   0  0  0  0  0  0  0  0  0  0  0  0
   45.5090   35.0350   43.9430 N   0  0  0  0  0  0  0  0  0  0  0  0
   48.7839   35.5175   43.6302 H   0  0  0  0  0  0  0  0  0  0  0  0
   49.7530   36.7869   41.7392 H   0  0  0  0  0  0  0  0  0  0  0  0
   49.2922   36.0284   39.4156 H   0  0  0  0  0  0  0  0  0  0  0  0
   49.3878   34.6290   37.5266 H   0  0  0  0  0  0  0  0  0  0  0  0
   48.4550   33.5639   35.4738 H   0  0  0  0  0  0  0  0  0  0  0  0
   46.2437   32.1937   35.7266 H   0  0  0  0  0  0  0  0  0  0  0  0
   46.6911   32.5976   46.0087 H   0  0  0  0  0  0  0  0  0  0  0  0
   44.9802   33.7083   47.5102 H   0  0  0  0  0  0  0  0  0  0  0  0
   44.0169   36.4574   44.4111 H   0  0  0  0  0  0  0  0  0  0  0  0
  1  2  2  0
  1 12  1  0
  3  2  1  0
  4  3  2  0
  5  4  1  0
  5  6  2  0
  6  1  1  0
  7  5  1  0
  8  7  2  0
  9 10  2  0
  9  8  1  0
 10 11  1  0
 11  7  1  0
 12 13  2  0
 12 14  1  0
 14 15  2  0
 15 16  1  0
 17 16  2  0
 18 17  1  0
 19 14  1  0
 19 18  2  0
  2 20  1  0
  3 21  1  0
  4 22  1  0
  8 23  1  0
  9 24  1  0
 10 25  1  0
 15 26  1  0
 16 27  1  0
 18 28  1  0
M  ISO  8  20  14  21  14  22  14  23  14  24  14  25  14  26  14  27  14
M  ISO  1  28  14
M  END
>  <minimizedAffinity>  (1) 
-5.19649363

>  <minimizedRMSD>  (1) 
1.22158992

$$$$
