
     RDKit          3D

 37 39  0  0  0  0  0  0  0  0999 V2000
   47.5850   33.9530   42.1150 C   0  0  0  0  0  0  0  0  0  0  0  0
   48.4330   35.0590   42.2050 C   0  0  0  0  0  0  0  0  0  0  0  0
   48.9590   35.6780   41.0870 C   0  0  0  0  0  0  0  0  0  0  0  0
   48.6230   35.1730   39.8540 C   0  0  0  0  0  0  0  0  0  0  0  0
   47.7740   34.0660   39.7460 C   0  0  0  0  0  0  0  0  0  0  0  0
   47.2880   33.4980   40.8780 N   0  0  0  0  0  0  0  0  0  0  0  0
   47.4250   33.5380   38.4030 C   0  0  0  0  0  0  0  0  0  0  0  0
   48.6950   33.5310   37.5800 C   0  0  0  0  0  0  0  0  0  0  0  0
   48.4330   33.1290   36.1480 C   0  0  0  0  0  0  0  0  0  0  0  0
   47.0410   32.5430   35.9980 C   0  0  0  0  0  0  0  0  0  0  0  0
   46.8920   31.5050   37.1120 C   0  0  0  0  0  0  0  0  0  0  0  0
   46.7900   32.1670   38.4630 C   0  0  0  0  0  0  0  0  0  0  0  0
   47.0470   33.3230   43.3120 C   0  0  0  0  0  0  0  0  0  0  0  0
   47.4210   32.1440   43.5600 O   0  0  0  0  0  0  0  0  0  0  0  0
   46.1300   34.0640   44.1410 C   0  0  0  0  0  0  0  0  0  0  0  0
   45.9340   33.5860   45.4500 C   0  0  0  0  0  0  0  0  0  0  0  0
   45.0670   34.2660   46.2720 C   0  0  0  0  0  0  0  0  0  0  0  0
   44.4470   35.3660   45.7650 N   0  0  0  0  0  0  0  0  0  0  0  0
   44.6430   35.8110   44.5150 C   0  0  0  0  0  0  0  0  0  0  0  0
   45.4760   35.1680   43.7070 N   0  0  0  0  0  0  0  0  0  0  0  0
   48.6911   35.4509   43.1999 H   0  0  0  0  0  0  0  0  0  0  0  0
   49.6258   36.5478   41.1812 H   0  0  0  0  0  0  0  0  0  0  0  0
   49.0248   35.6429   38.9442 H   0  0  0  0  0  0  0  0  0  0  0  0
   46.6652   34.1833   37.9380 H   0  0  0  0  0  0  0  0  0  0  0  0
   49.1328   34.5401   37.5922 H   0  0  0  0  0  0  0  0  0  0  0  0
   49.3842   32.7958   38.0210 H   0  0  0  0  0  0  0  0  0  0  0  0
   48.5225   34.0153   35.5026 H   0  0  0  0  0  0  0  0  0  0  0  0
   49.1697   32.3662   35.8558 H   0  0  0  0  0  0  0  0  0  0  0  0
   46.2817   33.3313   36.1074 H   0  0  0  0  0  0  0  0  0  0  0  0
   46.9024   32.0886   35.0059 H   0  0  0  0  0  0  0  0  0  0  0  0
   45.9820   30.9138   36.9324 H   0  0  0  0  0  0  0  0  0  0  0  0
   47.7816   30.8580   37.1070 H   0  0  0  0  0  0  0  0  0  0  0  0
   47.3123   31.5537   39.2120 H   0  0  0  0  0  0  0  0  0  0  0  0
   45.7309   32.2659   38.7433 H   0  0  0  0  0  0  0  0  0  0  0  0
   46.4620   32.6895   45.8070 H   0  0  0  0  0  0  0  0  0  0  0  0
   44.8810   33.9325   47.3036 H   0  0  0  0  0  0  0  0  0  0  0  0
   44.1139   36.7078   44.1603 H   0  0  0  0  0  0  0  0  0  0  0  0
  1  2  2  0
  1 13  1  0
  3  2  1  0
  4  3  2  0
  5  4  1  0
  5  6  2  0
  6  1  1  0
  7 12  1  0
  7  5  1  0
  8  7  1  0
  9  8  1  0
 10  9  1  0
 10 11  1  0
 11 12  1  0
 13 14  2  0
 13 15  1  0
 15 16  2  0
 16 17  1  0
 18 17  2  0
 19 18  1  0
 20 15  1  0
 20 19  2  0
  2 21  1  0
  3 22  1  0
  4 23  1  0
  7 24  1  0
  8 25  1  0
  8 26  1  0
  9 27  1  0
  9 28  1  0
 10 29  1  0
 10 30  1  0
 11 31  1  0
 11 32  1  0
 12 33  1  0
 12 34  1  0
 16 35  1  0
 17 36  1  0
 19 37  1  0
M  ISO  8  21  14  22  14  23  14  24  13  25  13  26  13  27  13  28  13
M  ISO  8  29  13  30  13  31  13  32  13  33  13  34  13  35  14  36  14
M  ISO  1  37  14
M  END
>  <minimizedAffinity>  (1) 
-5.27611113

>  <minimizedRMSD>  (1) 
1.28840041

$$$$
