
     RDKit          3D

 24 25  0  0  0  0  0  0  0  0999 V2000
   46.9880   34.0520   41.5630 C   0  0  0  0  0  0  0  0  0  0  0  0
   47.8520   34.9880   42.0920 C   0  0  0  0  0  0  0  0  0  0  0  0
   48.8130   35.6430   41.3440 C   0  0  0  0  0  0  0  0  0  0  0  0
   48.8690   35.3060   39.9990 C   0  0  0  0  0  0  0  0  0  0  0  0
   48.0110   34.3670   39.4470 C   0  0  0  0  0  0  0  0  0  0  0  0
   47.0940   33.7670   40.2470 N   0  0  0  0  0  0  0  0  0  0  0  0
   48.0920   34.0240   38.0030 C   0  0  0  0  0  0  0  0  0  0  0  0
   48.9660   32.9830   37.8120 F   0  0  0  0  0  0  0  0  0  0  0  0
   48.5040   35.1280   37.2950 F   0  0  0  0  0  0  0  0  0  0  0  0
   46.8120   33.6800   37.5720 F   0  0  0  0  0  0  0  0  0  0  0  0
   45.9860   33.3880   42.4080 C   0  0  0  0  0  0  0  0  0  0  0  0
   45.6360   32.2300   42.0750 O   0  0  0  0  0  0  0  0  0  0  0  0
   45.4770   34.1060   43.5570 C   0  0  0  0  0  0  0  0  0  0  0  0
   45.7300   33.4790   44.8060 C   0  0  0  0  0  0  0  0  0  0  0  0
   45.2540   34.1430   45.9380 C   0  0  0  0  0  0  0  0  0  0  0  0
   44.6000   35.3080   45.7650 N   0  0  0  0  0  0  0  0  0  0  0  0
   44.3750   35.8770   44.5660 C   0  0  0  0  0  0  0  0  0  0  0  0
   44.8160   35.2710   43.4710 N   0  0  0  0  0  0  0  0  0  0  0  0
   47.7726   35.2254   43.1631 H   0  0  0  0  0  0  0  0  0  0  0  0
   49.4918   36.3860   41.7881 H   0  0  0  0  0  0  0  0  0  0  0  0
   49.6132   35.7964   39.3542 H   0  0  0  0  0  0  0  0  0  0  0  0
   46.2707   32.5237   44.8774 H   0  0  0  0  0  0  0  0  0  0  0  0
   45.4088   33.7262   46.9441 H   0  0  0  0  0  0  0  0  0  0  0  0
   43.8329   36.8315   44.4949 H   0  0  0  0  0  0  0  0  0  0  0  0
  1  2  2  0
  1 11  1  0
  3  2  1  0
  4  3  2  0
  5  4  1  0
  5  6  2  0
  6  1  1  0
  7  5  1  0
  8  7  1  0
  9  7  1  0
 10  7  1  0
 11 13  1  0
 12 11  2  0
 13 14  2  0
 14 15  1  0
 16 15  2  0
 17 16  1  0
 18 13  1  0
 18 17  2  0
  2 19  1  0
  3 20  1  0
  4 21  1  0
 14 22  1  0
 15 23  1  0
 17 24  1  0
M  ISO  6  19  14  20  14  21  14  22  14  23  14  24  14
M  END
>  <minimizedAffinity>  (1) 
-5.23549986

>  <minimizedRMSD>  (1) 
1.78660548

$$$$
