
     RDKit          3D

 35 37  0  0  0  0  0  0  0  0999 V2000
   46.1430   31.5340   45.6310 C   0  0  0  0  0  0  0  0  0  0  0  0
   47.4010   30.9560   45.8070 C   0  0  0  0  0  0  0  0  0  0  0  0
   47.9800   31.0390   47.0930 C   0  0  0  0  0  0  0  0  0  0  0  0
   47.2880   31.6690   48.0700 N   0  0  0  0  0  0  0  0  0  0  0  0
   46.0720   32.2220   47.8760 C   0  0  0  0  0  0  0  0  0  0  0  0
   45.5000   32.1480   46.6360 N   0  0  0  0  0  0  0  0  0  0  0  0
   45.3900   31.6250   44.3980 C   0  0  0  0  0  0  0  0  0  0  0  0
   44.7390   30.6170   43.7150 C   0  0  0  0  0  0  0  0  0  0  0  0
   43.9930   30.7220   42.5800 C   0  0  0  0  0  0  0  0  0  0  0  0
   43.8420   31.9610   42.0130 C   0  0  0  0  0  0  0  0  0  0  0  0
   44.4450   33.0410   42.6070 C   0  0  0  0  0  0  0  0  0  0  0  0
   44.2720   34.2660   42.0010 C   0  0  0  0  0  0  0  0  0  0  0  0
   44.8510   35.3940   42.5340 C   0  0  0  0  0  0  0  0  0  0  0  0
   45.5930   35.2340   43.6740 C   0  0  0  0  0  0  0  0  0  0  0  0
   45.7660   34.0070   44.2810 C   0  0  0  0  0  0  0  0  0  0  0  0
   45.1810   32.8490   43.7500 C   0  0  0  0  0  0  0  0  0  0  0  0
   48.1330   30.3190   44.7140 C   0  0  0  0  0  0  0  0  0  0  0  0
   47.6050   28.9890   44.3680 C   0  0  0  0  0  0  0  0  0  0  0  0
   48.2540   31.2810   43.5550 C   0  0  0  0  0  0  0  0  0  0  0  0
   48.9691   30.6021   47.2949 H   0  0  0  0  0  0  0  0  0  0  0  0
   45.5490   32.7246   48.7029 H   0  0  0  0  0  0  0  0  0  0  0  0
   44.8343   29.6064   44.1388 H   0  0  0  0  0  0  0  0  0  0  0  0
   43.5236   29.8349   42.1298 H   0  0  0  0  0  0  0  0  0  0  0  0
   43.2470   32.0874   41.0965 H   0  0  0  0  0  0  0  0  0  0  0  0
   43.6672   34.3425   41.0854 H   0  0  0  0  0  0  0  0  0  0  0  0
   44.7237   36.3810   42.0654 H   0  0  0  0  0  0  0  0  0  0  0  0
   46.0695   36.1179   44.1231 H   0  0  0  0  0  0  0  0  0  0  0  0
   46.3725   33.9364   45.1960 H   0  0  0  0  0  0  0  0  0  0  0  0
   49.1572   30.0968   45.0481 H   0  0  0  0  0  0  0  0  0  0  0  0
   47.3836   28.4312   45.2899 H   0  0  0  0  0  0  0  0  0  0  0  0
   46.6837   29.1024   43.7778 H   0  0  0  0  0  0  0  0  0  0  0  0
   48.3532   28.4396   43.7778 H   0  0  0  0  0  0  0  0  0  0  0  0
   48.3826   32.3037   43.9392 H   0  0  0  0  0  0  0  0  0  0  0  0
   49.1249   31.0077   42.9410 H   0  0  0  0  0  0  0  0  0  0  0  0
   47.3426   31.2319   42.9410 H   0  0  0  0  0  0  0  0  0  0  0  0
  1  2  2  0
  1  6  1  0
  2  3  1  0
  3  4  2  0
  5  4  1  0
  6  5  2  0
  7  1  1  0
  8  7  2  0
  9  8  1  0
 10  9  2  0
 10 11  1  0
 11 16  2  0
 12 13  2  0
 12 11  1  0
 13 14  1  0
 14 15  2  0
 16 15  1  0
 16  7  1  0
 17  2  1  0
 18 17  1  0
 19 17  1  0
  3 20  1  0
  5 21  1  0
  8 22  1  0
  9 23  1  0
 10 24  1  0
 12 25  1  0
 13 26  1  0
 14 27  1  0
 15 28  1  0
 17 29  1  0
 18 30  1  0
 18 31  1  0
 18 32  1  0
 19 33  1  0
 19 34  1  0
 19 35  1  0
M  ISO  8  20  14  21  14  22  14  23  14  24  14  25  14  26  14  27  14
M  ISO  8  28  14  29   8  30   8  31   8  32   8  33   8  34   8  35   8
M  END
>  <minimizedAffinity>  (1) 
-3.41103244

>  <minimizedRMSD>  (1) 
5.65410566

$$$$
