
     RDKit          3D

 22 23  0  0  0  0  0  0  0  0999 V2000
   47.7370   32.8470   43.4500 C   0  0  0  0  0  0  0  0  0  0  0  0
   48.2870   31.7030   43.4650 O   0  0  0  0  0  0  0  0  0  0  0  0
   46.7940   33.2890   44.4500 C   0  0  0  0  0  0  0  0  0  0  0  0
   46.8370   32.6150   45.6880 C   0  0  0  0  0  0  0  0  0  0  0  0
   45.9420   33.0230   46.6620 C   0  0  0  0  0  0  0  0  0  0  0  0
   45.0850   34.0410   46.3630 N   0  0  0  0  0  0  0  0  0  0  0  0
   45.0760   34.6620   45.1630 C   0  0  0  0  0  0  0  0  0  0  0  0
   45.9250   34.2850   44.2230 N   0  0  0  0  0  0  0  0  0  0  0  0
   48.0930   33.7330   42.3600 C   0  0  0  0  0  0  0  0  0  0  0  0
   48.7710   34.9100   42.5900 C   0  0  0  0  0  0  0  0  0  0  0  0
   49.1440   35.8020   41.6030 C   0  0  0  0  0  0  0  0  0  0  0  0
   48.7900   35.4460   40.3070 C   0  0  0  0  0  0  0  0  0  0  0  0
   48.1080   34.2660   40.0540 C   0  0  0  0  0  0  0  0  0  0  0  0
   47.7740   33.4370   41.0750 N   0  0  0  0  0  0  0  0  0  0  0  0
   47.5930   33.6830   38.4590 S   0  0  0  0  0  0  0  0  0  0  0  0
   47.5517   31.7993   45.8719 H   0  0  0  0  0  0  0  0  0  0  0  0
   45.9225   32.5395   47.6499 H   0  0  0  0  0  0  0  0  0  0  0  0
   44.3646   35.4783   44.9692 H   0  0  0  0  0  0  0  0  0  0  0  0
   49.0331   35.1562   43.6296 H   0  0  0  0  0  0  0  0  0  0  0  0
   49.6855   36.7327   41.8281 H   0  0  0  0  0  0  0  0  0  0  0  0
   49.0546   36.1097   39.4706 H   0  0  0  0  0  0  0  0  0  0  0  0
   46.6919   32.6629   38.6147 H   0  0  0  0  0  0  0  0  0  0  0  0
  1  2  2  0
  1  3  1  0
  3  4  2  0
  4  5  1  0
  6  5  2  0
  7  6  1  0
  8  3  1  0
  8  7  2  0
  9 10  2  0
  9  1  1  0
 11 10  1  0
 12 11  2  0
 13 12  1  0
 13 14  2  0
 14  9  1  0
 15 13  1  0
  4 16  1  0
  5 17  1  0
  7 18  1  0
 10 19  1  0
 11 20  1  0
 12 21  1  0
 15 22  1  0
M  ISO  7  16  14  17  14  18  14  19  14  20  14  21  14  22  11
M  END
>  <minimizedAffinity>  (1) 
-4.44007635

>  <minimizedRMSD>  (1) 
0.408453345

$$$$
