
     RDKit          3D

 29 31  0  0  0  0  0  0  0  0999 V2000
   47.9990   33.9150   42.4840 C   0  0  0  0  0  0  0  0  0  0  0  0
   48.8260   34.9900   42.7260 C   0  0  0  0  0  0  0  0  0  0  0  0
   49.2620   35.8050   41.7140 C   0  0  0  0  0  0  0  0  0  0  0  0
   48.8560   35.5310   40.4210 C   0  0  0  0  0  0  0  0  0  0  0  0
   48.0240   34.4440   40.1940 C   0  0  0  0  0  0  0  0  0  0  0  0
   47.6160   33.6660   41.2150 N   0  0  0  0  0  0  0  0  0  0  0  0
   47.5430   33.0540   43.5810 C   0  0  0  0  0  0  0  0  0  0  0  0
   48.0410   31.8980   43.6630 O   0  0  0  0  0  0  0  0  0  0  0  0
   46.5480   33.5780   44.5130 C   0  0  0  0  0  0  0  0  0  0  0  0
   46.5220   32.9390   45.7720 C   0  0  0  0  0  0  0  0  0  0  0  0
   45.5840   33.4140   46.6870 C   0  0  0  0  0  0  0  0  0  0  0  0
   44.7770   34.4460   46.2960 N   0  0  0  0  0  0  0  0  0  0  0  0
   44.8430   35.0200   45.0810 C   0  0  0  0  0  0  0  0  0  0  0  0
   45.7190   34.5920   44.1980 N   0  0  0  0  0  0  0  0  0  0  0  0
   47.5480   34.0670   38.9440 O   0  0  0  0  0  0  0  0  0  0  0  0
   48.1960   33.2850   38.1270 C   0  0  0  0  0  0  0  0  0  0  0  0
   47.9350   33.5210   36.7440 C   0  0  0  0  0  0  0  0  0  0  0  0
   48.5750   32.7440   35.8450 C   0  0  0  0  0  0  0  0  0  0  0  0
   49.5010   31.7020   36.3020 C   0  0  0  0  0  0  0  0  0  0  0  0
   49.4230   31.8780   38.1900 S   0  0  0  0  0  0  0  0  0  0  0  0
   49.1445   35.1996   43.7578 H   0  0  0  0  0  0  0  0  0  0  0  0
   49.9214   36.6595   41.9261 H   0  0  0  0  0  0  0  0  0  0  0  0
   49.1874   36.1649   39.5853 H   0  0  0  0  0  0  0  0  0  0  0  0
   47.2045   32.1119   46.0171 H   0  0  0  0  0  0  0  0  0  0  0  0
   45.4959   32.9730   47.6909 H   0  0  0  0  0  0  0  0  0  0  0  0
   44.1644   35.8473   44.8260 H   0  0  0  0  0  0  0  0  0  0  0  0
   47.2372   34.3080   36.4222 H   0  0  0  0  0  0  0  0  0  0  0  0
   48.4021   32.8922   34.7688 H   0  0  0  0  0  0  0  0  0  0  0  0
   50.0924   30.9956   35.7009 H   0  0  0  0  0  0  0  0  0  0  0  0
  1  2  2  0
  1  7  1  0
  3  2  1  0
  4  3  2  0
  5  4  1  0
  5  6  2  0
  6  1  1  0
  7  8  2  0
  7  9  1  0
  9 10  2  0
 10 11  1  0
 12 11  2  0
 13 12  1  0
 14  9  1  0
 14 13  2  0
 15  5  1  0
 16 20  1  0
 16 15  1  0
 17 16  2  0
 18 19  2  0
 18 17  1  0
 19 20  1  0
  2 21  1  0
  3 22  1  0
  4 23  1  0
 10 24  1  0
 11 25  1  0
 13 26  1  0
 17 27  1  0
 18 28  1  0
 19 29  1  0
M  ISO  8  21  14  22  14  23  14  24  14  25  14  26  14  27  14  28  14
M  ISO  1  29  14
M  END
>  <minimizedAffinity>  (1) 
-4.96491003

>  <minimizedRMSD>  (1) 
2.23914719

$$$$
