
     RDKit          3D

 34 35  0  0  0  0  0  0  0  0999 V2000
   47.8010   33.8430   42.6750 C   0  0  0  0  0  0  0  0  0  0  0  0
   48.7660   34.8150   42.8220 C   0  0  0  0  0  0  0  0  0  0  0  0
   49.2280   35.5760   41.7690 C   0  0  0  0  0  0  0  0  0  0  0  0
   48.6920   35.3370   40.5370 C   0  0  0  0  0  0  0  0  0  0  0  0
   47.7020   34.3460   40.3670 C   0  0  0  0  0  0  0  0  0  0  0  0
   47.2910   33.6340   41.4360 N   0  0  0  0  0  0  0  0  0  0  0  0
   47.3400   33.0580   43.8230 C   0  0  0  0  0  0  0  0  0  0  0  0
   47.8240   31.9030   43.9800 O   0  0  0  0  0  0  0  0  0  0  0  0
   46.3500   33.6490   44.7240 C   0  0  0  0  0  0  0  0  0  0  0  0
   46.2630   33.0540   45.9980 C   0  0  0  0  0  0  0  0  0  0  0  0
   45.3370   33.5880   46.8730 C   0  0  0  0  0  0  0  0  0  0  0  0
   44.5810   34.6430   46.4480 N   0  0  0  0  0  0  0  0  0  0  0  0
   44.6970   35.1830   45.2190 C   0  0  0  0  0  0  0  0  0  0  0  0
   45.5780   34.6890   44.3600 N   0  0  0  0  0  0  0  0  0  0  0  0
   47.0850   34.0100   39.1840 O   0  0  0  0  0  0  0  0  0  0  0  0
   47.6870   33.4800   38.0430 C   0  0  0  0  0  0  0  0  0  0  0  0
   46.7150   32.7630   37.1300 C   0  0  0  0  0  0  0  0  0  0  0  0
   48.4000   34.5310   37.2240 C   0  0  0  0  0  0  0  0  0  0  0  0
   48.7000   32.4510   38.5050 C   0  0  0  0  0  0  0  0  0  0  0  0
   49.1863   34.9918   43.8230 H   0  0  0  0  0  0  0  0  0  0  0  0
   49.9992   36.3464   41.9164 H   0  0  0  0  0  0  0  0  0  0  0  0
   49.0342   35.9212   39.6701 H   0  0  0  0  0  0  0  0  0  0  0  0
   46.9018   32.2049   46.2824 H   0  0  0  0  0  0  0  0  0  0  0  0
   45.2119   33.1747   47.8847 H   0  0  0  0  0  0  0  0  0  0  0  0
   44.0616   36.0327   44.9286 H   0  0  0  0  0  0  0  0  0  0  0  0
   45.9763   32.2181   37.7362 H   0  0  0  0  0  0  0  0  0  0  0  0
   46.1981   33.4978   36.4952 H   0  0  0  0  0  0  0  0  0  0  0  0
   47.2644   32.0522   36.4952 H   0  0  0  0  0  0  0  0  0  0  0  0
   48.8885   35.2511   37.8969 H   0  0  0  0  0  0  0  0  0  0  0  0
   49.1585   34.0492   36.5895 H   0  0  0  0  0  0  0  0  0  0  0  0
   47.6720   35.0577   36.5895 H   0  0  0  0  0  0  0  0  0  0  0  0
   48.7233   32.4274   39.6045 H   0  0  0  0  0  0  0  0  0  0  0  0
   48.4158   31.4594   38.1229 H   0  0  0  0  0  0  0  0  0  0  0  0
   49.6959   32.7196   38.1229 H   0  0  0  0  0  0  0  0  0  0  0  0
  1  2  2  0
  1  7  1  0
  3  2  1  0
  4  3  2  0
  5  4  1  0
  5  6  2  0
  6  1  1  0
  7  8  2  0
  7  9  1  0
  9 10  2  0
 10 11  1  0
 12 11  2  0
 13 12  1  0
 14  9  1  0
 14 13  2  0
 15  5  1  0
 16 19  1  0
 16 15  1  0
 17 16  1  0
 18 16  1  0
  2 20  1  0
  3 21  1  0
  4 22  1  0
 10 23  1  0
 11 24  1  0
 13 25  1  0
 17 26  1  0
 17 27  1  0
 17 28  1  0
 18 29  1  0
 18 30  1  0
 18 31  1  0
 19 32  1  0
 19 33  1  0
 19 34  1  0
M  ISO  8  20  14  21  14  22  14  23  14  24  14  25  14  26   8  27   8
M  ISO  7  28   8  29   8  30   8  31   8  32   8  33   8  34   8
M  END
>  <minimizedAffinity>  (1) 
-4.90083647

>  <minimizedRMSD>  (1) 
0.845092177

$$$$
