
     RDKit          3D

 39 42  0  0  1  0  0  0  0  0999 V2000
   47.6590   33.9480   42.3410 C   0  0  0  0  0  0  0  0  0  0  0  0
   48.5130   35.0350   42.3260 C   0  0  0  0  0  0  0  0  0  0  0  0
   48.9580   35.6300   41.1690 C   0  0  0  0  0  0  0  0  0  0  0  0
   48.5230   35.1080   39.9910 C   0  0  0  0  0  0  0  0  0  0  0  0
   47.6690   34.0210   39.9740 C   0  0  0  0  0  0  0  0  0  0  0  0
   47.2650   33.4780   41.1500 N   0  0  0  0  0  0  0  0  0  0  0  0
   47.2250   33.3540   43.5960 C   0  0  0  0  0  0  0  0  0  0  0  0
   47.7560   32.2540   43.9320 O   0  0  0  0  0  0  0  0  0  0  0  0
   46.2230   34.0330   44.3910 C   0  0  0  0  0  0  0  0  0  0  0  0
   46.0320   33.5170   45.6970 C   0  0  0  0  0  0  0  0  0  0  0  0
   45.0770   34.1630   46.4790 C   0  0  0  0  0  0  0  0  0  0  0  0
   44.4120   35.2220   45.9360 N   0  0  0  0  0  0  0  0  0  0  0  0
   44.6340   35.6660   44.6970 C   0  0  0  0  0  0  0  0  0  0  0  0
   45.5240   35.0860   43.9280 N   0  0  0  0  0  0  0  0  0  0  0  0
   47.1390   33.3590   38.8800 O   0  0  0  0  0  0  0  0  0  0  0  0
   47.7580   33.2000   37.6320 C   0  0  1  0  0  0  0  0  0  0  0  0
   48.2490   31.7440   37.4530 C   0  0  0  0  0  0  0  0  0  0  0  0
   47.1550   32.3670   36.5960 C   0  0  2  0  0  0  0  0  0  0  0  0
   47.5100   32.4790   35.2060 N   0  0  0  0  0  0  0  0  0  0  0  0
   48.8490   32.5390   34.9430 C   0  0  0  0  0  0  0  0  0  0  0  0
   49.3250   32.6480   33.6500 C   0  0  0  0  0  0  0  0  0  0  0  0
   48.4250   32.6970   32.6160 C   0  0  0  0  0  0  0  0  0  0  0  0
   48.8260   32.7950   31.4350 O   0  0  0  0  0  0  0  0  0  0  0  0
   47.1310   32.6370   32.8960 N   0  0  0  0  0  0  0  0  0  0  0  0
   46.6490   32.5300   34.1600 C   0  0  0  0  0  0  0  0  0  0  0  0
   45.4220   32.4700   34.4530 O   0  0  0  0  0  0  0  0  0  0  0  0
   48.8538   35.4447   43.2883 H   0  0  0  0  0  0  0  0  0  0  0  0
   49.6387   36.4937   41.1952 H   0  0  0  0  0  0  0  0  0  0  0  0
   48.8540   35.5552   39.0421 H   0  0  0  0  0  0  0  0  0  0  0  0
   46.6049   32.6559   46.0717 H   0  0  0  0  0  0  0  0  0  0  0  0
   44.8656   33.8282   47.5052 H   0  0  0  0  0  0  0  0  0  0  0  0
   44.0647   36.5271   44.3171 H   0  0  0  0  0  0  0  0  0  0  0  0
   48.1521   34.2259   37.5846 H   0  0  0  0  0  0  0  0  0  0  0  0
   49.2423   31.5376   37.0279 H   0  0  0  0  0  0  0  0  0  0  0  0
   48.3506   30.8538   38.0912 H   0  0  0  0  0  0  0  0  0  0  0  0
   46.0963   32.1831   36.3606 H   0  0  0  0  0  0  0  0  0  0  0  0
   49.5638   32.4997   35.7782 H   0  0  0  0  0  0  0  0  0  0  0  0
   50.4063   32.6946   33.4536 H   0  0  0  0  0  0  0  0  0  0  0  0
   46.4587   32.6733   32.1165 H   0  0  0  0  0  0  0  0  0  0  0  0
  1  7  1  0
  2  1  2  0
  3  2  1  0
  4  3  2  0
  5  4  1  0
  5  6  2  0
  6  1  1  0
  7  8  2  0
  7  9  1  0
  9 10  2  0
 10 11  1  0
 12 11  2  0
 13 12  1  0
 14  9  1  0
 14 13  2  0
 15  5  1  0
 16 15  1  0
 17 16  1  0
 18 17  1  0
 18 16  1  0
 19 18  1  0
 20 19  1  0
 21 20  2  0
 22 24  1  0
 22 21  1  0
 23 22  2  0
 24 25  1  0
 25 26  2  0
 25 19  1  0
  2 27  1  0
  3 28  1  0
  4 29  1  0
 10 30  1  0
 11 31  1  0
 13 32  1  0
 16 33  1  6
 17 34  1  0
 17 35  1  0
 18 36  1  6
 20 37  1  0
 21 38  1  0
 24 39  1  0
M  ISO  8  27  14  28  14  29  14  30  14  31  14  32  14  33  13  34  13
M  ISO  5  35  13  36  13  37  14  38  14  39   9
M  END
>  <minimizedAffinity>  (1) 
-6.23759079

>  <minimizedRMSD>  (1) 
0.921874583

$$$$
