
     RDKit          3D

 38 41  0  0  1  0  0  0  0  0999 V2000
   47.5280   34.0020   41.9820 C   0  0  0  0  0  0  0  0  0  0  0  0
   48.3720   35.0660   42.2000 C   0  0  0  0  0  0  0  0  0  0  0  0
   49.0070   35.7530   41.1880 C   0  0  0  0  0  0  0  0  0  0  0  0
   48.7700   35.3370   39.9110 C   0  0  0  0  0  0  0  0  0  0  0  0
   47.9260   34.2710   39.6600 C   0  0  0  0  0  0  0  0  0  0  0  0
   47.3350   33.6410   40.7070 N   0  0  0  0  0  0  0  0  0  0  0  0
   46.8930   33.3130   43.0940 C   0  0  0  0  0  0  0  0  0  0  0  0
   47.1270   32.0610   43.2140 O   0  0  0  0  0  0  0  0  0  0  0  0
   46.0420   34.0560   43.9960 C   0  0  0  0  0  0  0  0  0  0  0  0
   45.9420   33.5350   45.3090 C   0  0  0  0  0  0  0  0  0  0  0  0
   45.1310   34.2290   46.1950 C   0  0  0  0  0  0  0  0  0  0  0  0
   44.4970   35.3520   45.7310 N   0  0  0  0  0  0  0  0  0  0  0  0
   44.6220   35.8060   44.4770 C   0  0  0  0  0  0  0  0  0  0  0  0
   45.3920   35.1560   43.6210 N   0  0  0  0  0  0  0  0  0  0  0  0
   47.5740   33.7070   38.4430 O   0  0  0  0  0  0  0  0  0  0  0  0
   48.4810   33.3760   37.4180 C   0  0  1  0  0  0  0  0  0  0  0  0
   49.1060   31.9890   37.6850 C   0  0  0  0  0  0  0  0  0  0  0  0
   48.1950   32.2670   36.5030 C   0  0  2  0  0  0  0  0  0  0  0  0
   48.8860   32.1670   35.1940 C   0  0  0  0  0  0  0  0  0  0  0  0
   49.8780   31.2190   34.9380 C   0  0  0  0  0  0  0  0  0  0  0  0
   50.4960   31.1680   33.6910 C   0  0  0  0  0  0  0  0  0  0  0  0
   50.1010   32.0770   32.7170 C   0  0  0  0  0  0  0  0  0  0  0  0
   49.1060   33.0080   33.0120 C   0  0  0  0  0  0  0  0  0  0  0  0
   48.5160   33.0440   34.2310 N   0  0  0  0  0  0  0  0  0  0  0  0
   48.5496   35.3856   43.2374 H   0  0  0  0  0  0  0  0  0  0  0  0
   49.6758   36.5999   41.4010 H   0  0  0  0  0  0  0  0  0  0  0  0
   49.2558   35.8554   39.0712 H   0  0  0  0  0  0  0  0  0  0  0  0
   46.4808   32.6249   45.6114 H   0  0  0  0  0  0  0  0  0  0  0  0
   45.0013   33.8899   47.2334 H   0  0  0  0  0  0  0  0  0  0  0  0
   44.0873   36.7140   44.1613 H   0  0  0  0  0  0  0  0  0  0  0  0
   48.7976   34.4100   37.2165 H   0  0  0  0  0  0  0  0  0  0  0  0
   50.1828   31.8239   37.5324 H   0  0  0  0  0  0  0  0  0  0  0  0
   49.1259   31.2748   38.5214 H   0  0  0  0  0  0  0  0  0  0  0  0
   47.2417   31.8845   36.1095 H   0  0  0  0  0  0  0  0  0  0  0  0
   50.1730   30.5090   35.7247 H   0  0  0  0  0  0  0  0  0  0  0  0
   51.2794   30.4247   33.4817 H   0  0  0  0  0  0  0  0  0  0  0  0
   50.5693   32.0621   31.7218 H   0  0  0  0  0  0  0  0  0  0  0  0
   48.7941   33.7271   32.2402 H   0  0  0  0  0  0  0  0  0  0  0  0
  1  2  2  0
  1  7  1  0
  3  2  1  0
  4  3  2  0
  5  4  1  0
  5  6  2  0
  6  1  1  0
  7  8  2  0
  7  9  1  0
  9 10  2  0
 10 11  1  0
 12 11  2  0
 13 12  1  0
 14  9  1  0
 14 13  2  0
 15  5  1  0
 16 17  1  0
 16 15  1  0
 18 16  1  0
 18 17  1  0
 19 18  1  0
 20 19  2  0
 21 20  1  0
 22 23  1  0
 22 21  2  0
 23 24  2  0
 24 19  1  0
  2 25  1  0
  3 26  1  0
  4 27  1  0
 10 28  1  0
 11 29  1  0
 13 30  1  0
 16 31  1  6
 17 32  1  0
 17 33  1  0
 18 34  1  6
 20 35  1  0
 21 36  1  0
 22 37  1  0
 23 38  1  0
M  ISO  8  25  14  26  14  27  14  28  14  29  14  30  14  31  13  32  13
M  ISO  6  33  13  34  13  35  14  36  14  37  14  38  14
M  END
>  <minimizedAffinity>  (1) 
-5.67581654

>  <minimizedRMSD>  (1) 
1.1766876

$$$$
