
     RDKit          3D

 40 43  0  0  1  0  0  0  0  0999 V2000
   46.6070   34.2470   41.2780 C   0  0  0  0  0  0  0  0  0  0  0  0
   47.4740   35.1520   41.8480 C   0  0  0  0  0  0  0  0  0  0  0  0
   48.6150   35.6030   41.2270 C   0  0  0  0  0  0  0  0  0  0  0  0
   48.8850   35.1180   39.9830 C   0  0  0  0  0  0  0  0  0  0  0  0
   48.0360   34.2060   39.3840 C   0  0  0  0  0  0  0  0  0  0  0  0
   46.9260   33.8060   40.0550 N   0  0  0  0  0  0  0  0  0  0  0  0
   45.4200   33.8030   41.9880 C   0  0  0  0  0  0  0  0  0  0  0  0
   44.6430   32.9940   41.3760 O   0  0  0  0  0  0  0  0  0  0  0  0
   45.1770   34.2870   43.3310 C   0  0  0  0  0  0  0  0  0  0  0  0
   45.6250   33.4370   44.3710 C   0  0  0  0  0  0  0  0  0  0  0  0
   45.4010   33.8830   45.6730 C   0  0  0  0  0  0  0  0  0  0  0  0
   44.7840   35.0740   45.8400 N   0  0  0  0  0  0  0  0  0  0  0  0
   44.3750   35.8470   44.8180 C   0  0  0  0  0  0  0  0  0  0  0  0
   44.5740   35.4500   43.5750 N   0  0  0  0  0  0  0  0  0  0  0  0
   48.1450   33.6020   38.1420 O   0  0  0  0  0  0  0  0  0  0  0  0
   49.2350   32.8150   37.7230 C   0  0  1  0  0  0  0  0  0  0  0  0
   49.0860   31.3730   38.2600 C   0  0  0  0  0  0  0  0  0  0  0  0
   49.0400   31.6850   36.8140 C   0  0  1  0  0  0  0  0  0  0  0  0
   47.8290   31.7320   36.0520 N   0  0  0  0  0  0  0  0  0  0  0  0
   46.7750   31.1220   36.6650 C   0  0  0  0  0  0  0  0  0  0  0  0
   45.5340   31.0750   36.0680 C   0  0  0  0  0  0  0  0  0  0  0  0
   45.3250   31.6500   34.8250 C   0  0  0  0  0  0  0  0  0  0  0  0
   44.0650   31.6050   34.2130 N   0  0  0  0  0  0  0  0  0  0  0  0
   46.3970   32.2370   34.2650 N   0  0  0  0  0  0  0  0  0  0  0  0
   47.6080   32.2810   34.8530 C   0  0  0  0  0  0  0  0  0  0  0  0
   48.6210   32.8270   34.3420 O   0  0  0  0  0  0  0  0  0  0  0  0
   47.2418   35.5344   42.8529 H   0  0  0  0  0  0  0  0  0  0  0  0
   49.2835   36.3271   41.7156 H   0  0  0  0  0  0  0  0  0  0  0  0
   49.7865   35.4550   39.4503 H   0  0  0  0  0  0  0  0  0  0  0  0
   46.1222   32.4780   44.1634 H   0  0  0  0  0  0  0  0  0  0  0  0
   45.7172   33.2830   46.5391 H   0  0  0  0  0  0  0  0  0  0  0  0
   43.8763   36.8069   45.0175 H   0  0  0  0  0  0  0  0  0  0  0  0
   49.9596   33.6424   37.7059 H   0  0  0  0  0  0  0  0  0  0  0  0
   49.9520   30.8468   38.6880 H   0  0  0  0  0  0  0  0  0  0  0  0
   48.4301   30.8612   38.9796 H   0  0  0  0  0  0  0  0  0  0  0  0
   49.5764   31.2174   35.9752 H   0  0  0  0  0  0  0  0  0  0  0  0
   46.9177   30.6596   37.6528 H   0  0  0  0  0  0  0  0  0  0  0  0
   44.7005   30.5757   36.5838 H   0  0  0  0  0  0  0  0  0  0  0  0
   43.9258   32.0373   33.2885 H   0  0  0  0  0  0  0  0  0  0  0  0
   43.2782   31.1397   34.6877 H   0  0  0  0  0  0  0  0  0  0  0  0
  1  2  2  0
  1  7  1  0
  3  2  1  0
  4  3  2  0
  5  4  1  0
  5  6  2  0
  6  1  1  0
  7  9  1  0
  8  7  2  0
  9 14  1  0
  9 10  2  0
 10 11  1  0
 11 12  2  0
 13 12  1  0
 14 13  2  0
 15  5  1  0
 16 15  1  0
 16 17  1  0
 18 16  1  0
 18 17  1  0
 19 20  1  0
 19 18  1  0
 21 20  2  0
 22 21  1  0
 23 22  1  0
 24 22  2  0
 24 25  1  0
 25 19  1  0
 26 25  2  0
  2 27  1  0
  3 28  1  0
  4 29  1  0
 10 30  1  0
 11 31  1  0
 13 32  1  0
 16 33  1  6
 17 34  1  0
 17 35  1  0
 18 36  1  6
 20 37  1  0
 21 38  1  0
 23 39  1  0
 23 40  1  0
M  ISO  8  27  14  28  14  29  14  30  14  31  14  32  14  33  13  34  13
M  ISO  4  35  13  36  13  37  14  38  14
M  END
>  <minimizedAffinity>  (1) 
-5.85417652

>  <minimizedRMSD>  (1) 
1.74110651

$$$$
