
     RDKit          3D

 36 39  0  0  1  0  0  0  0  0999 V2000
   47.5770   33.9850   42.0490 C   0  0  0  0  0  0  0  0  0  0  0  0
   48.4420   35.0490   42.1440 C   0  0  0  0  0  0  0  0  0  0  0  0
   48.9860   35.6810   41.0480 C   0  0  0  0  0  0  0  0  0  0  0  0
   48.6350   35.2160   39.8160 C   0  0  0  0  0  0  0  0  0  0  0  0
   47.7660   34.1460   39.6950 C   0  0  0  0  0  0  0  0  0  0  0  0
   47.2650   33.5660   40.8140 N   0  0  0  0  0  0  0  0  0  0  0  0
   47.0380   33.3480   43.2420 C   0  0  0  0  0  0  0  0  0  0  0  0
   47.4130   32.1500   43.4820 O   0  0  0  0  0  0  0  0  0  0  0  0
   46.1200   34.0900   44.0830 C   0  0  0  0  0  0  0  0  0  0  0  0
   45.9550   33.5760   45.3920 C   0  0  0  0  0  0  0  0  0  0  0  0
   45.0830   34.2660   46.2280 C   0  0  0  0  0  0  0  0  0  0  0  0
   44.4630   35.3750   45.7170 N   0  0  0  0  0  0  0  0  0  0  0  0
   44.6540   35.8200   44.4690 C   0  0  0  0  0  0  0  0  0  0  0  0
   45.4780   35.1790   43.6610 N   0  0  0  0  0  0  0  0  0  0  0  0
   47.3050   33.5340   38.5410 O   0  0  0  0  0  0  0  0  0  0  0  0
   48.0320   33.3980   37.3420 C   0  0  1  0  0  0  0  0  0  0  0  0
   49.0820   32.2710   37.4850 C   0  0  0  0  0  0  0  0  0  0  0  0
   47.9050   32.1880   36.5290 C   0  0  2  0  0  0  0  0  0  0  0  0
   48.1630   32.3810   35.0790 C   0  0  0  0  0  0  0  0  0  0  0  0
   47.3300   32.1610   33.9930 C   0  0  0  0  0  0  0  0  0  0  0  0
   48.0250   32.4850   32.8750 N   0  0  0  0  0  0  0  0  0  0  0  0
   49.2450   32.8930   33.2420 C   0  0  0  0  0  0  0  0  0  0  0  0
   49.3480   32.8370   34.5810 N   0  0  0  0  0  0  0  0  0  0  0  0
   48.7133   35.4140   43.1456 H   0  0  0  0  0  0  0  0  0  0  0  0
   49.6775   36.5288   41.1626 H   0  0  0  0  0  0  0  0  0  0  0  0
   49.0444   35.6935   38.9136 H   0  0  0  0  0  0  0  0  0  0  0  0
   46.4895   32.6763   45.7309 H   0  0  0  0  0  0  0  0  0  0  0  0
   44.8985   33.9334   47.2602 H   0  0  0  0  0  0  0  0  0  0  0  0
   44.1253   36.7182   44.1174 H   0  0  0  0  0  0  0  0  0  0  0  0
   47.9768   34.4597   37.0597 H   0  0  0  0  0  0  0  0  0  0  0  0
   50.1038   32.4083   37.1016 H   0  0  0  0  0  0  0  0  0  0  0  0
   49.4843   31.6588   38.3056 H   0  0  0  0  0  0  0  0  0  0  0  0
   47.1262   31.4273   36.3719 H   0  0  0  0  0  0  0  0  0  0  0  0
   46.2947   31.7913   34.0314 H   0  0  0  0  0  0  0  0  0  0  0  0
   50.0391   33.2225   32.5558 H   0  0  0  0  0  0  0  0  0  0  0  0
   50.1776   33.0938   35.1347 H   0  0  0  0  0  0  0  0  0  0  0  0
  1  2  2  0
  1  7  1  0
  3  2  1  0
  4  3  2  0
  5  4  1  0
  5  6  2  0
  6  1  1  0
  7  8  2  0
  7  9  1  0
  9 10  2  0
 10 11  1  0
 12 11  2  0
 13 12  1  0
 14  9  1  0
 14 13  2  0
 15  5  1  0
 16 17  1  0
 16 15  1  0
 18 16  1  0
 18 17  1  0
 19 18  1  0
 20 19  2  0
 21 22  2  0
 21 20  1  0
 22 23  1  0
 23 19  1  0
  2 24  1  0
  3 25  1  0
  4 26  1  0
 10 27  1  0
 11 28  1  0
 13 29  1  0
 16 30  1  6
 17 31  1  0
 17 32  1  0
 18 33  1  6
 20 34  1  0
 22 35  1  0
 23 36  1  0
M  ISO  8  24  14  25  14  26  14  27  14  28  14  29  14  30  13  31  13
M  ISO  5  32  13  33  13  34  14  35  14  36   9
M  END
>  <minimizedAffinity>  (1) 
-5.68068933

>  <minimizedRMSD>  (1) 
0.835607111

$$$$
