
     RDKit          3D

 40 43  0  0  1  0  0  0  0  0999 V2000
   45.8630   31.0070   47.2870 C   0  0  2  0  0  0  0  0  0  0  0  0
   44.6850   34.9040   46.0020 C   0  0  0  0  0  0  0  0  0  0  0  0
   44.5710   35.5700   44.7850 C   0  0  0  0  0  0  0  0  0  0  0  0
   45.1920   35.0120   43.6650 C   0  0  0  0  0  0  0  0  0  0  0  0
   45.8780   33.8480   43.8040 N   0  0  0  0  0  0  0  0  0  0  0  0
   45.9790   33.2120   45.0040 C   0  0  0  0  0  0  0  0  0  0  0  0
   45.3840   33.7470   46.0760 N   0  0  0  0  0  0  0  0  0  0  0  0
   46.6920   32.0050   45.1820 N   0  0  0  0  0  0  0  0  0  0  0  0
   47.6010   31.7060   44.2070 C   0  0  0  0  0  0  0  0  0  0  0  0
   48.1780   30.4920   44.6060 C   0  0  0  0  0  0  0  0  0  0  0  0
   47.6100   30.1070   45.7870 N   0  0  0  0  0  0  0  0  0  0  0  0
   46.7070   31.0440   46.1160 C   0  0  0  0  0  0  0  0  0  0  0  0
   46.6430   31.7600   48.4090 C   0  0  0  0  0  0  0  0  0  0  0  0
   45.6460   29.6080   47.7800 C   0  0  0  0  0  0  0  0  0  0  0  0
   44.7370   28.8520   47.0000 N   0  0  0  0  0  0  0  0  0  0  0  0
   44.0800   29.3110   45.9280 N   0  0  0  0  0  0  0  0  0  0  0  0
   43.3040   28.3180   45.4420 C   0  0  0  0  0  0  0  0  0  0  0  0
   43.4690   27.1930   46.2210 C   0  0  0  0  0  0  0  0  0  0  0  0
   44.3940   27.5560   47.2180 C   0  0  0  0  0  0  0  0  0  0  0  0
   44.8150   26.6230   48.2290 C   0  0  0  0  0  0  0  0  0  0  0  0
   44.3000   26.2240   49.4160 C   0  0  0  0  0  0  0  0  0  0  0  0
   44.9120   25.3090   50.1910 C   0  0  0  0  0  0  0  0  0  0  0  0
   46.1500   24.7920   49.6560 C   0  0  0  0  0  0  0  0  0  0  0  0
   46.3070   25.7080   48.0430 S   0  0  0  0  0  0  0  0  0  0  0  0
   44.8862   31.4488   47.0406 H   0  0  0  0  0  0  0  0  0  0  0  0
   44.2076   35.3174   46.9027 H   0  0  0  0  0  0  0  0  0  0  0  0
   44.0067   36.5110   44.7073 H   0  0  0  0  0  0  0  0  0  0  0  0
   45.1264   35.5078   42.6853 H   0  0  0  0  0  0  0  0  0  0  0  0
   47.8306   32.2911   43.3042 H   0  0  0  0  0  0  0  0  0  0  0  0
   48.9578   29.9416   44.0593 H   0  0  0  0  0  0  0  0  0  0  0  0
   46.2897   31.4190   49.3933 H   0  0  0  0  0  0  0  0  0  0  0  0
   47.7184   31.5498   48.3124 H   0  0  0  0  0  0  0  0  0  0  0  0
   46.4708   32.8421   48.3124 H   0  0  0  0  0  0  0  0  0  0  0  0
   46.6154   29.0882   47.7805 H   0  0  0  0  0  0  0  0  0  0  0  0
   45.2067   29.6916   48.7850 H   0  0  0  0  0  0  0  0  0  0  0  0
   42.6453   28.3949   44.5644 H   0  0  0  0  0  0  0  0  0  0  0  0
   42.9803   26.2162   46.0909 H   0  0  0  0  0  0  0  0  0  0  0  0
   43.3506   26.6617   49.7582 H   0  0  0  0  0  0  0  0  0  0  0  0
   44.5010   24.9805   51.1570 H   0  0  0  0  0  0  0  0  0  0  0  0
   46.8293   24.0448   50.0921 H   0  0  0  0  0  0  0  0  0  0  0  0
  1 14  1  0
  1 13  1  0
  2  7  2  0
  3  2  1  0
  4  5  1  0
  4  3  2  0
  5  6  2  0
  6  8  1  0
  6  7  1  0
  8 12  1  0
  9 10  2  0
  9  8  1  0
 10 11  1  0
 11 12  2  0
 12  1  1  0
 15 19  1  0
 15 14  1  0
 16 15  1  0
 17 16  2  0
 17 18  1  0
 18 19  2  0
 19 20  1  0
 20 21  2  0
 21 22  1  0
 23 22  2  0
 24 20  1  0
 24 23  1  0
  1 25  1  6
  2 26  1  0
  3 27  1  0
  4 28  1  0
  9 29  1  0
 10 30  1  0
 13 31  1  0
 13 32  1  0
 13 33  1  0
 14 34  1  0
 14 35  1  0
 17 36  1  0
 18 37  1  0
 21 38  1  0
 22 39  1  0
 23 40  1  0
M  ISO  8  25   8  26  14  27  14  28  14  29  14  30  14  31   8  32   8
M  ISO  8  33   8  34   8  35   8  36  14  37  14  38  14  39  14  40  14
M  END
>  <minimizedAffinity>  (1) 
-5.05190992

>  <minimizedRMSD>  (1) 
1.07905257

$$$$
