
     RDKit          3D

 34 37  0  0  1  0  0  0  0  0999 V2000
   47.6450   33.9790   42.2800 C   0  0  0  0  0  0  0  0  0  0  0  0
   48.5550   35.0200   42.2720 C   0  0  0  0  0  0  0  0  0  0  0  0
   49.0030   35.6240   41.1190 C   0  0  0  0  0  0  0  0  0  0  0  0
   48.5120   35.1570   39.9370 C   0  0  0  0  0  0  0  0  0  0  0  0
   47.6010   34.1170   39.9130 C   0  0  0  0  0  0  0  0  0  0  0  0
   47.2000   33.5660   41.0860 N   0  0  0  0  0  0  0  0  0  0  0  0
   47.2130   33.3790   43.5300 C   0  0  0  0  0  0  0  0  0  0  0  0
   47.7480   32.2640   43.8490 O   0  0  0  0  0  0  0  0  0  0  0  0
   46.2220   34.0520   44.3370 C   0  0  0  0  0  0  0  0  0  0  0  0
   46.0400   33.5260   45.6380 C   0  0  0  0  0  0  0  0  0  0  0  0
   45.0920   34.1630   46.4370 C   0  0  0  0  0  0  0  0  0  0  0  0
   44.4250   35.2310   45.9050 N   0  0  0  0  0  0  0  0  0  0  0  0
   44.6380   35.6850   44.6690 C   0  0  0  0  0  0  0  0  0  0  0  0
   45.5260   35.1040   43.8900 N   0  0  0  0  0  0  0  0  0  0  0  0
   47.0050   33.5110   38.8210 O   0  0  0  0  0  0  0  0  0  0  0  0
   47.6790   33.0340   37.6840 C   0  0  1  0  0  0  0  0  0  0  0  0
   47.7230   31.4910   37.6850 C   0  0  0  0  0  0  0  0  0  0  0  0
   46.9630   32.2860   36.6490 C   0  0  2  0  0  0  0  0  0  0  0  0
   47.5160   32.3690   35.2730 C   0  0  0  0  0  0  0  0  0  0  0  0
   46.9350   32.0190   34.1160 N   0  0  0  0  0  0  0  0  0  0  0  0
   47.7650   32.2540   33.1360 O   0  0  0  0  0  0  0  0  0  0  0  0
   48.9020   32.7580   33.6040 C   0  0  0  0  0  0  0  0  0  0  0  0
   48.7500   32.8310   34.9370 N   0  0  0  0  0  0  0  0  0  0  0  0
   48.9405   35.3840   43.2358 H   0  0  0  0  0  0  0  0  0  0  0  0
   49.7282   36.4505   41.1507 H   0  0  0  0  0  0  0  0  0  0  0  0
   48.8437   35.6120   38.9920 H   0  0  0  0  0  0  0  0  0  0  0  0
   46.6156   32.6611   45.9993 H   0  0  0  0  0  0  0  0  0  0  0  0
   44.8875   33.8179   47.4612 H   0  0  0  0  0  0  0  0  0  0  0  0
   44.0683   36.5500   44.2985 H   0  0  0  0  0  0  0  0  0  0  0  0
   48.3661   33.8898   37.6089 H   0  0  0  0  0  0  0  0  0  0  0  0
   48.6467   30.9595   37.4125 H   0  0  0  0  0  0  0  0  0  0  0  0
   47.4864   30.6909   38.4018 H   0  0  0  0  0  0  0  0  0  0  0  0
   45.9225   32.2550   36.2935 H   0  0  0  0  0  0  0  0  0  0  0  0
   49.7859   33.0545   33.0202 H   0  0  0  0  0  0  0  0  0  0  0  0
  1  7  1  0
  2  1  2  0
  3  2  1  0
  4  3  2  0
  5  4  1  0
  5  6  2  0
  6  1  1  0
  7  8  2  0
  7  9  1  0
  9 10  2  0
 10 11  1  0
 12 11  2  0
 13 12  1  0
 14  9  1  0
 14 13  2  0
 15  5  1  0
 16 17  1  0
 16 15  1  0
 18 16  1  0
 18 17  1  0
 19 18  1  0
 20 19  2  0
 21 22  1  0
 21 20  1  0
 22 23  2  0
 23 19  1  0
  2 24  1  0
  3 25  1  0
  4 26  1  0
 10 27  1  0
 11 28  1  0
 13 29  1  0
 16 30  1  6
 17 31  1  0
 17 32  1  0
 18 33  1  6
 22 34  1  0
M  ISO  8  24  14  25  14  26  14  27  14  28  14  29  14  30  13  31  13
M  ISO  3  32  13  33  13  34  14
M  END
>  <minimizedAffinity>  (1) 
-5.39074278

>  <minimizedRMSD>  (1) 
1.01409078

$$$$
