
     RDKit          3D

 36 39  0  0  1  0  0  0  0  0999 V2000
   47.6280   33.9980   42.2130 C   0  0  0  0  0  0  0  0  0  0  0  0
   48.5420   35.0340   42.2400 C   0  0  0  0  0  0  0  0  0  0  0  0
   49.0210   35.6500   41.1080 C   0  0  0  0  0  0  0  0  0  0  0  0
   48.5600   35.1990   39.9090 C   0  0  0  0  0  0  0  0  0  0  0  0
   47.6440   34.1620   39.8490 C   0  0  0  0  0  0  0  0  0  0  0  0
   47.2120   33.5990   41.0060 N   0  0  0  0  0  0  0  0  0  0  0  0
   47.1630   33.3840   43.4470 C   0  0  0  0  0  0  0  0  0  0  0  0
   47.6490   32.2400   43.7430 O   0  0  0  0  0  0  0  0  0  0  0  0
   46.1920   34.0760   44.2640 C   0  0  0  0  0  0  0  0  0  0  0  0
   46.0080   33.5560   45.5670 C   0  0  0  0  0  0  0  0  0  0  0  0
   45.0790   34.2090   46.3700 C   0  0  0  0  0  0  0  0  0  0  0  0
   44.4280   35.2840   45.8440 N   0  0  0  0  0  0  0  0  0  0  0  0
   44.6380   35.7370   44.6020 C   0  0  0  0  0  0  0  0  0  0  0  0
   45.5130   35.1380   43.8180 N   0  0  0  0  0  0  0  0  0  0  0  0
   47.0710   33.5680   38.7340 O   0  0  0  0  0  0  0  0  0  0  0  0
   47.7890   32.9930   37.6680 C   0  0  1  0  0  0  0  0  0  0  0  0
   47.7610   31.4520   37.7690 C   0  0  0  0  0  0  0  0  0  0  0  0
   47.1020   32.2120   36.6380 C   0  0  2  0  0  0  0  0  0  0  0  0
   47.5810   32.1640   35.3040 C   0  0  0  0  0  0  0  0  0  0  0  0
   48.6690   32.7830   34.8120 C   0  0  0  0  0  0  0  0  0  0  0  0
   49.1030   32.7170   33.5300 C   0  0  0  0  0  0  0  0  0  0  0  0
   48.2540   31.8800   32.6850 C   0  0  0  0  0  0  0  0  0  0  0  0
   46.9050   31.2790   33.8760 S   0  0  0  0  0  0  0  0  0  0  0  0
   48.9051   35.3839   43.2176 H   0  0  0  0  0  0  0  0  0  0  0  0
   49.7473   36.4739   41.1686 H   0  0  0  0  0  0  0  0  0  0  0  0
   48.9187   35.6630   38.9784 H   0  0  0  0  0  0  0  0  0  0  0  0
   46.5702   32.6813   45.9260 H   0  0  0  0  0  0  0  0  0  0  0  0
   44.8765   33.8686   47.3962 H   0  0  0  0  0  0  0  0  0  0  0  0
   44.0796   36.6106   44.2346 H   0  0  0  0  0  0  0  0  0  0  0  0
   48.5172   33.8128   37.5812 H   0  0  0  0  0  0  0  0  0  0  0  0
   48.6735   30.8647   37.5889 H   0  0  0  0  0  0  0  0  0  0  0  0
   47.4447   30.7110   38.5180 H   0  0  0  0  0  0  0  0  0  0  0  0
   46.0845   32.2140   36.2201 H   0  0  0  0  0  0  0  0  0  0  0  0
   49.2574   33.3958   35.5107 H   0  0  0  0  0  0  0  0  0  0  0  0
   49.9997   33.2384   33.1640 H   0  0  0  0  0  0  0  0  0  0  0  0
   48.3694   31.6529   31.6149 H   0  0  0  0  0  0  0  0  0  0  0  0
  1  2  2  0
  1  7  1  0
  3  2  1  0
  4  3  2  0
  5  4  1  0
  5  6  2  0
  6  1  1  0
  7  8  2  0
  7  9  1  0
  9 10  2  0
 10 11  1  0
 12 11  2  0
 13 12  1  0
 14  9  1  0
 14 13  2  0
 15  5  1  0
 16 17  1  0
 16 15  1  0
 18 16  1  0
 18 17  1  0
 19 18  1  0
 20 19  2  0
 21 20  1  0
 22 21  2  0
 22 23  1  0
 23 19  1  0
  2 24  1  0
  3 25  1  0
  4 26  1  0
 10 27  1  0
 11 28  1  0
 13 29  1  0
 16 30  1  6
 17 31  1  0
 17 32  1  0
 18 33  1  6
 20 34  1  0
 21 35  1  0
 22 36  1  0
M  ISO  8  24  14  25  14  26  14  27  14  28  14  29  14  30  13  31  13
M  ISO  5  32  13  33  13  34  14  35  14  36  14
M  END
>  <minimizedAffinity>  (1) 
-5.37310314

>  <minimizedRMSD>  (1) 
1.11289501

$$$$
