
     RDKit          3D

 36 39  0  0  1  0  0  0  0  0999 V2000
   47.6470   33.9930   42.2470 C   0  0  0  0  0  0  0  0  0  0  0  0
   48.5600   35.0240   42.2430 C   0  0  0  0  0  0  0  0  0  0  0  0
   49.0170   35.6300   41.0950 C   0  0  0  0  0  0  0  0  0  0  0  0
   48.5250   35.1700   39.9080 C   0  0  0  0  0  0  0  0  0  0  0  0
   47.6060   34.1350   39.8800 C   0  0  0  0  0  0  0  0  0  0  0  0
   47.1990   33.5830   41.0500 N   0  0  0  0  0  0  0  0  0  0  0  0
   47.2080   33.3880   43.4950 C   0  0  0  0  0  0  0  0  0  0  0  0
   47.7290   32.2660   43.8130 O   0  0  0  0  0  0  0  0  0  0  0  0
   46.2210   34.0680   44.3030 C   0  0  0  0  0  0  0  0  0  0  0  0
   46.0320   33.5460   45.6030 C   0  0  0  0  0  0  0  0  0  0  0  0
   45.0860   34.1890   46.4000 C   0  0  0  0  0  0  0  0  0  0  0  0
   44.4280   35.2540   45.8680 N   0  0  0  0  0  0  0  0  0  0  0  0
   44.6430   35.7090   44.6290 C   0  0  0  0  0  0  0  0  0  0  0  0
   45.5320   35.1230   43.8520 N   0  0  0  0  0  0  0  0  0  0  0  0
   47.0060   33.5350   38.7860 O   0  0  0  0  0  0  0  0  0  0  0  0
   47.6850   33.0280   37.6650 C   0  0  1  0  0  0  0  0  0  0  0  0
   47.7460   31.4880   37.7250 C   0  0  0  0  0  0  0  0  0  0  0  0
   46.9740   32.2340   36.6590 C   0  0  2  0  0  0  0  0  0  0  0  0
   47.5650   32.3110   35.2880 C   0  0  0  0  0  0  0  0  0  0  0  0
   47.1080   31.8190   34.0840 C   0  0  0  0  0  0  0  0  0  0  0  0
   48.0110   32.1430   33.0780 C   0  0  0  0  0  0  0  0  0  0  0  0
   48.9840   32.8270   33.7520 C   0  0  0  0  0  0  0  0  0  0  0  0
   48.7180   32.9170   35.0170 O   0  0  0  0  0  0  0  0  0  0  0  0
   48.9446   35.3824   43.2092 H   0  0  0  0  0  0  0  0  0  0  0  0
   49.7483   36.4509   41.1326 H   0  0  0  0  0  0  0  0  0  0  0  0
   48.8617   35.6257   38.9651 H   0  0  0  0  0  0  0  0  0  0  0  0
   46.6015   32.6780   45.9667 H   0  0  0  0  0  0  0  0  0  0  0  0
   44.8787   33.8466   47.4246 H   0  0  0  0  0  0  0  0  0  0  0  0
   44.0761   36.5752   44.2570 H   0  0  0  0  0  0  0  0  0  0  0  0
   48.3622   33.8879   37.5555 H   0  0  0  0  0  0  0  0  0  0  0  0
   48.6752   30.9568   37.4712 H   0  0  0  0  0  0  0  0  0  0  0  0
   47.5196   30.7137   38.4728 H   0  0  0  0  0  0  0  0  0  0  0  0
   45.9352   32.1592   36.3050 H   0  0  0  0  0  0  0  0  0  0  0  0
   46.1733   31.2569   33.9414 H   0  0  0  0  0  0  0  0  0  0  0  0
   47.9562   31.9073   32.0050 H   0  0  0  0  0  0  0  0  0  0  0  0
   49.8826   33.2492   33.2785 H   0  0  0  0  0  0  0  0  0  0  0  0
  1  7  1  0
  2  1  2  0
  3  2  1  0
  4  3  2  0
  5  4  1  0
  5  6  2  0
  6  1  1  0
  7  8  2  0
  7  9  1  0
  9 10  2  0
 10 11  1  0
 12 11  2  0
 13 12  1  0
 14  9  1  0
 14 13  2  0
 15  5  1  0
 16 17  1  0
 16 15  1  0
 18 16  1  0
 18 17  1  0
 19 18  1  0
 20 19  2  0
 21 22  2  0
 21 20  1  0
 22 23  1  0
 23 19  1  0
  2 24  1  0
  3 25  1  0
  4 26  1  0
 10 27  1  0
 11 28  1  0
 13 29  1  0
 16 30  1  6
 17 31  1  0
 17 32  1  0
 18 33  1  6
 20 34  1  0
 21 35  1  0
 22 36  1  0
M  ISO  8  24  14  25  14  26  14  27  14  28  14  29  14  30  13  31  13
M  ISO  5  32  13  33  13  34  14  35  14  36  14
M  END
>  <minimizedAffinity>  (1) 
-5.38961267

>  <minimizedRMSD>  (1) 
1.08483505

$$$$
