
     RDKit          3D

 32 34  0  0  1  0  0  0  0  0999 V2000
   47.6280   34.1120   42.2240 C   0  0  0  0  0  0  0  0  0  0  0  0
   48.4910   35.1550   42.5060 C   0  0  0  0  0  0  0  0  0  0  0  0
   49.1380   35.8860   41.5340 C   0  0  0  0  0  0  0  0  0  0  0  0
   48.9020   35.5460   40.2340 C   0  0  0  0  0  0  0  0  0  0  0  0
   48.0460   34.5060   39.9260 C   0  0  0  0  0  0  0  0  0  0  0  0
   47.4370   33.8250   40.9290 N   0  0  0  0  0  0  0  0  0  0  0  0
   46.9790   33.3730   43.2910 C   0  0  0  0  0  0  0  0  0  0  0  0
   47.2500   32.1280   43.3800 O   0  0  0  0  0  0  0  0  0  0  0  0
   46.0790   34.0600   44.1850 C   0  0  0  0  0  0  0  0  0  0  0  0
   45.9740   33.5090   45.4860 C   0  0  0  0  0  0  0  0  0  0  0  0
   45.1130   34.1610   46.3690 C   0  0  0  0  0  0  0  0  0  0  0  0
   44.4540   35.2560   45.9170 N   0  0  0  0  0  0  0  0  0  0  0  0
   44.5870   35.7390   44.6750 C   0  0  0  0  0  0  0  0  0  0  0  0
   45.3900   35.1490   43.8180 N   0  0  0  0  0  0  0  0  0  0  0  0
   47.6950   34.0180   38.6770 O   0  0  0  0  0  0  0  0  0  0  0  0
   48.4490   34.1410   37.5030 C   0  0  1  0  0  0  0  0  0  0  0  0
   49.1930   32.8140   37.2050 C   0  0  0  0  0  0  0  0  0  0  0  0
   48.1270   33.3770   36.3030 C   0  0  1  0  0  0  0  0  0  0  0  0
   46.8290   32.5860   36.3050 C   0  0  0  0  0  0  0  0  0  0  0  0
   46.6030   32.1030   35.0270 F   0  0  0  0  0  0  0  0  0  0  0  0
   45.7860   33.4530   36.5630 F   0  0  0  0  0  0  0  0  0  0  0  0
   46.8340   31.6010   37.2620 F   0  0  0  0  0  0  0  0  0  0  0  0
   48.6700   35.4141   43.5600 H   0  0  0  0  0  0  0  0  0  0  0  0
   49.8175   36.7106   41.7955 H   0  0  0  0  0  0  0  0  0  0  0  0
   49.3967   36.1038   39.4252 H   0  0  0  0  0  0  0  0  0  0  0  0
   46.5411   32.6148   45.7840 H   0  0  0  0  0  0  0  0  0  0  0  0
   44.9734   33.7985   47.3981 H   0  0  0  0  0  0  0  0  0  0  0  0
   44.0222   36.6327   44.3711 H   0  0  0  0  0  0  0  0  0  0  0  0
   48.6531   35.2141   37.6323 H   0  0  0  0  0  0  0  0  0  0  0  0
   50.2484   32.8233   36.8951 H   0  0  0  0  0  0  0  0  0  0  0  0
   49.3681   31.8649   37.7327 H   0  0  0  0  0  0  0  0  0  0  0  0
   48.0711   33.6538   35.2399 H   0  0  0  0  0  0  0  0  0  0  0  0
  1  2  2  0
  1  7  1  0
  3  2  1  0
  4  3  2  0
  5  4  1  0
  5  6  2  0
  6  1  1  0
  7  8  2  0
  7  9  1  0
  9 10  2  0
 10 11  1  0
 12 11  2  0
 13 12  1  0
 14  9  1  0
 14 13  2  0
 15  5  1  0
 16 15  1  0
 17 16  1  0
 18 19  1  0
 18 17  1  0
 18 16  1  0
 19 21  1  0
 19 22  1  0
 20 19  1  0
  2 23  1  0
  3 24  1  0
  4 25  1  0
 10 26  1  0
 11 27  1  0
 13 28  1  0
 16 29  1  6
 17 30  1  0
 17 31  1  0
 18 32  1  6
M  ISO  8  23  14  24  14  25  14  26  14  27  14  28  14  29  13  30  13
M  ISO  2  31  13  32  13
M  END
>  <minimizedAffinity>  (1) 
-5.25557709

>  <minimizedRMSD>  (1) 
0.559097886

$$$$
