
     RDKit          3D

 36 39  0  0  1  0  0  0  0  0999 V2000
   44.5630   35.7380   44.7430 C   0  0  0  0  0  0  0  0  0  0  0  0
   45.2200   35.5470   43.5150 C   0  0  0  0  0  0  0  0  0  0  0  0
   46.1080   34.4620   43.4180 C   0  0  0  0  0  0  0  0  0  0  0  0
   46.2760   33.6720   44.5100 N   0  0  0  0  0  0  0  0  0  0  0  0
   45.6270   33.8900   45.6660 C   0  0  0  0  0  0  0  0  0  0  0  0
   44.7730   34.9220   45.7790 N   0  0  0  0  0  0  0  0  0  0  0  0
   45.8580   33.0260   46.7450 N   0  0  0  0  0  0  0  0  0  0  0  0
   44.9440   32.6560   47.7900 C   0  0  0  0  0  0  0  0  0  0  0  0
   45.9000   32.4500   48.9490 C   0  0  0  0  0  0  0  0  0  0  0  0
   46.9600   31.5910   48.2660 C   0  0  2  0  0  0  0  0  0  0  0  0
   47.1330   32.3350   46.9760 C   0  0  0  0  0  0  0  0  0  0  0  0
   46.4990   30.2090   48.0140 C   0  0  0  0  0  0  0  0  0  0  0  0
   45.2790   29.7150   48.4860 C   0  0  0  0  0  0  0  0  0  0  0  0
   45.1100   28.4500   48.1220 N   0  0  0  0  0  0  0  0  0  0  0  0
   46.1720   28.0640   47.4180 C   0  0  0  0  0  0  0  0  0  0  0  0
   46.5080   26.8810   46.8140 C   0  0  0  0  0  0  0  0  0  0  0  0
   47.7190   26.8030   46.1430 C   0  0  0  0  0  0  0  0  0  0  0  0
   48.5830   27.8820   46.0690 C   0  0  0  0  0  0  0  0  0  0  0  0
   48.2650   29.0930   46.6750 C   0  0  0  0  0  0  0  0  0  0  0  0
   47.0500   29.1400   47.3360 C   0  0  0  0  0  0  0  0  0  0  0  0
   43.8609   36.5776   44.8529 H   0  0  0  0  0  0  0  0  0  0  0  0
   45.0458   36.2207   42.6630 H   0  0  0  0  0  0  0  0  0  0  0  0
   46.6518   34.2583   42.4838 H   0  0  0  0  0  0  0  0  0  0  0  0
   44.2224   33.4595   47.9991 H   0  0  0  0  0  0  0  0  0  0  0  0
   44.3178   31.7821   47.5571 H   0  0  0  0  0  0  0  0  0  0  0  0
   46.3160   33.4023   49.3097 H   0  0  0  0  0  0  0  0  0  0  0  0
   45.4499   32.0039   49.8481 H   0  0  0  0  0  0  0  0  0  0  0  0
   47.8742   31.4633   48.8643 H   0  0  0  0  0  0  0  0  0  0  0  0
   47.3448   31.6350   46.1544 H   0  0  0  0  0  0  0  0  0  0  0  0
   47.9758   33.0404   47.0227 H   0  0  0  0  0  0  0  0  0  0  0  0
   44.5572   30.2961   49.0787 H   0  0  0  0  0  0  0  0  0  0  0  0
   44.2931   27.8643   48.3468 H   0  0  0  0  0  0  0  0  0  0  0  0
   45.8331   26.0136   46.8603 H   0  0  0  0  0  0  0  0  0  0  0  0
   48.0008   25.8577   45.6561 H   0  0  0  0  0  0  0  0  0  0  0  0
   49.5331   27.7805   45.5240 H   0  0  0  0  0  0  0  0  0  0  0  0
   48.9389   29.9613   46.6315 H   0  0  0  0  0  0  0  0  0  0  0  0
  1  6  2  0
  2  1  1  0
  3  2  2  0
  3  4  1  0
  4  5  2  0
  5  6  1  0
  5  7  1  0
  7 11  1  0
  7  8  1  0
  8  9  1  0
 10  9  1  0
 11 10  1  0
 12 10  1  0
 12 13  2  0
 14 13  1  0
 15 14  1  0
 16 15  2  0
 17 16  1  0
 18 17  2  0
 18 19  1  0
 19 20  2  0
 20 15  1  0
 20 12  1  0
  1 21  1  0
  2 22  1  0
  3 23  1  0
  8 24  1  0
  8 25  1  0
  9 26  1  0
  9 27  1  0
 10 28  1  1
 11 29  1  0
 11 30  1  0
 13 31  1  0
 14 32  1  0
 16 33  1  0
 17 34  1  0
 18 35  1  0
 19 36  1  0
M  ISO  8  21  14  22  14  23  14  24  13  25  13  26  13  27  13  28  13
M  ISO  8  29  13  30  13  31  14  32   9  33  14  34  14  35  14  36  14
M  END
>  <minimizedAffinity>  (1) 
-5.64166832

>  <minimizedRMSD>  (1) 
0.399718195

$$$$
