
     RDKit          3D

 36 39  0  0  1  0  0  0  0  0999 V2000
   44.5320   35.8850   44.8370 C   0  0  0  0  0  0  0  0  0  0  0  0
   45.0550   35.7460   43.5390 C   0  0  0  0  0  0  0  0  0  0  0  0
   45.8630   34.6280   43.3000 C   0  0  0  0  0  0  0  0  0  0  0  0
   46.0980   33.7490   44.3150 N   0  0  0  0  0  0  0  0  0  0  0  0
   45.5710   33.9300   45.5480 C   0  0  0  0  0  0  0  0  0  0  0  0
   44.7950   34.9920   45.8000 N   0  0  0  0  0  0  0  0  0  0  0  0
   45.8640   32.9800   46.5270 N   0  0  0  0  0  0  0  0  0  0  0  0
   45.0190   32.6020   47.6500 C   0  0  0  0  0  0  0  0  0  0  0  0
   46.0900   32.2910   48.6840 C   0  0  0  0  0  0  0  0  0  0  0  0
   46.9250   31.3240   47.8250 C   0  0  1  0  0  0  0  0  0  0  0  0
   47.0990   32.1850   46.5890 C   0  0  0  0  0  0  0  0  0  0  0  0
   48.1520   30.9780   48.4580 N   0  0  0  0  0  0  0  0  0  0  0  0
   48.8770   31.8890   49.1320 C   0  0  0  0  0  0  0  0  0  0  0  0
   49.9890   31.2710   49.6240 N   0  0  0  0  0  0  0  0  0  0  0  0
   49.9670   29.9750   49.2630 C   0  0  0  0  0  0  0  0  0  0  0  0
   50.7840   28.8550   49.4450 C   0  0  0  0  0  0  0  0  0  0  0  0
   51.8410   29.0020   50.1100 O   0  0  0  0  0  0  0  0  0  0  0  0
   50.4100   27.6790   48.9080 N   0  0  0  0  0  0  0  0  0  0  0  0
   49.2730   27.5400   48.2000 C   0  0  0  0  0  0  0  0  0  0  0  0
   48.8490   26.3130   47.6190 N   0  0  0  0  0  0  0  0  0  0  0  0
   48.4940   28.6240   48.0290 N   0  0  0  0  0  0  0  0  0  0  0  0
   48.8110   29.8070   48.5330 C   0  0  0  0  0  0  0  0  0  0  0  0
   43.8909   36.7487   45.0672 H   0  0  0  0  0  0  0  0  0  0  0  0
   44.8395   36.4807   42.7492 H   0  0  0  0  0  0  0  0  0  0  0  0
   46.3027   34.4610   42.3056 H   0  0  0  0  0  0  0  0  0  0  0  0
   44.3690   33.4297   47.9701 H   0  0  0  0  0  0  0  0  0  0  0  0
   44.3144   31.7819   47.4477 H   0  0  0  0  0  0  0  0  0  0  0  0
   46.6582   33.1851   48.9801 H   0  0  0  0  0  0  0  0  0  0  0  0
   45.7361   31.9027   49.6504 H   0  0  0  0  0  0  0  0  0  0  0  0
   46.4758   30.3388   47.6311 H   0  0  0  0  0  0  0  0  0  0  0  0
   47.2063   31.5601   45.6901 H   0  0  0  0  0  0  0  0  0  0  0  0
   48.0018   32.8117   46.6356 H   0  0  0  0  0  0  0  0  0  0  0  0
   48.6176   32.9498   49.2637 H   0  0  0  0  0  0  0  0  0  0  0  0
   51.0148   26.8563   49.0433 H   0  0  0  0  0  0  0  0  0  0  0  0
   47.9673   26.2721   47.0880 H   0  0  0  0  0  0  0  0  0  0  0  0
   49.4236   25.4653   47.7292 H   0  0  0  0  0  0  0  0  0  0  0  0
  1  6  2  0
  2  1  1  0
  3  2  2  0
  3  4  1  0
  4  5  2  0
  5  6  1  0
  5  7  1  0
  7 11  1  0
  7  8  1  0
  8  9  1  0
 10 12  1  0
 10  9  1  0
 11 10  1  0
 12 22  1  0
 12 13  1  0
 13 14  2  0
 15 16  1  0
 15 14  1  0
 16 17  2  0
 18 16  1  0
 19 18  1  0
 20 19  1  0
 21 19  2  0
 21 22  1  0
 22 15  2  0
  1 23  1  0
  2 24  1  0
  3 25  1  0
  8 26  1  0
  8 27  1  0
  9 28  1  0
  9 29  1  0
 10 30  1  6
 11 31  1  0
 11 32  1  0
 13 33  1  0
 18 34  1  0
 20 35  1  0
 20 36  1  0
M  ISO  8  23  14  24  14  25  14  26  13  27  13  28  13  29  13  30  13
M  ISO  4  31  13  32  13  33  14  34   9
M  END
>  <minimizedAffinity>  (1) 
-5.67618895

>  <minimizedRMSD>  (1) 
1.57687974

$$$$
