
     RDKit          3D

 32 34  0  0  1  0  0  0  0  0999 V2000
   44.5420   35.7730   44.7660 C   0  0  0  0  0  0  0  0  0  0  0  0
   45.2270   35.6450   43.5440 C   0  0  0  0  0  0  0  0  0  0  0  0
   46.1610   34.5820   43.4340 C   0  0  0  0  0  0  0  0  0  0  0  0
   46.3350   33.7580   44.5040 N   0  0  0  0  0  0  0  0  0  0  0  0
   45.6440   33.9330   45.6540 C   0  0  0  0  0  0  0  0  0  0  0  0
   44.7490   34.9350   45.7890 N   0  0  0  0  0  0  0  0  0  0  0  0
   45.8990   33.0290   46.6910 N   0  0  0  0  0  0  0  0  0  0  0  0
   44.9550   32.5550   47.6700 C   0  0  0  0  0  0  0  0  0  0  0  0
   45.8680   32.3650   48.8570 C   0  0  0  0  0  0  0  0  0  0  0  0
   47.0030   31.5880   48.2290 C   0  0  2  0  0  0  0  0  0  0  0  0
   47.1880   32.4000   46.9590 C   0  0  0  0  0  0  0  0  0  0  0  0
   46.7980   30.2160   48.0060 N   0  0  0  0  0  0  0  0  0  0  0  0
   45.4690   29.9390   48.1980 C   0  0  0  0  0  0  0  0  0  0  0  0
   44.9740   28.6360   48.0390 C   0  0  0  0  0  0  0  0  0  0  0  0
   45.8290   27.5980   47.6820 C   0  0  0  0  0  0  0  0  0  0  0  0
   45.4670   26.4080   47.5210 O   0  0  0  0  0  0  0  0  0  0  0  0
   47.1280   27.8960   47.4990 N   0  0  0  0  0  0  0  0  0  0  0  0
   47.5450   29.1570   47.6640 C   0  0  0  0  0  0  0  0  0  0  0  0
   48.7410   29.4380   47.4950 O   0  0  0  0  0  0  0  0  0  0  0  0
   43.8128   36.5880   44.8847 H   0  0  0  0  0  0  0  0  0  0  0  0
   45.0466   36.3388   42.7097 H   0  0  0  0  0  0  0  0  0  0  0  0
   46.7310   34.4274   42.5060 H   0  0  0  0  0  0  0  0  0  0  0  0
   44.1720   33.3002   47.8742 H   0  0  0  0  0  0  0  0  0  0  0  0
   44.3952   31.6563   47.3718 H   0  0  0  0  0  0  0  0  0  0  0  0
   46.2128   33.3289   49.2594 H   0  0  0  0  0  0  0  0  0  0  0  0
   45.3965   31.8637   49.7151 H   0  0  0  0  0  0  0  0  0  0  0  0
   47.8813   31.5063   48.8862 H   0  0  0  0  0  0  0  0  0  0  0  0
   47.4736   31.7434   46.1240 H   0  0  0  0  0  0  0  0  0  0  0  0
   47.9854   33.1491   47.0729 H   0  0  0  0  0  0  0  0  0  0  0  0
   44.7813   30.7497   48.4806 H   0  0  0  0  0  0  0  0  0  0  0  0
   43.9044   28.4339   48.1974 H   0  0  0  0  0  0  0  0  0  0  0  0
   47.7969   27.1590   47.2338 H   0  0  0  0  0  0  0  0  0  0  0  0
  1  6  2  0
  2  1  1  0
  3  2  2  0
  3  4  1  0
  4  5  2  0
  5  6  1  0
  5  7  1  0
  7 11  1  0
  7  8  1  0
  8  9  1  0
 10  9  1  0
 11 10  1  0
 12 13  1  0
 12 10  1  0
 14 13  2  0
 15 14  1  0
 16 15  2  0
 17 18  1  0
 17 15  1  0
 18 12  1  0
 19 18  2  0
  1 20  1  0
  2 21  1  0
  3 22  1  0
  8 23  1  0
  8 24  1  0
  9 25  1  0
  9 26  1  0
 10 27  1  1
 11 28  1  0
 11 29  1  0
 13 30  1  0
 14 31  1  0
 17 32  1  0
M  ISO  8  20  14  21  14  22  14  23  13  24  13  25  13  26  13  27  13
M  ISO  5  28  13  29  13  30  14  31  14  32   9
M  END
>  <minimizedAffinity>  (1) 
-5.54521656

>  <minimizedRMSD>  (1) 
0.131155476

$$$$
