
     RDKit          3D

 29 30  0  0  1  0  0  0  0  0999 V2000
   44.6570   35.3620   44.8060 C   0  0  0  0  0  0  0  0  0  0  0  0
   45.4770   35.2350   43.6460 C   0  0  0  0  0  0  0  0  0  0  0  0
   46.5020   34.2530   43.6610 C   0  0  0  0  0  0  0  0  0  0  0  0
   46.6210   33.5050   44.7880 N   0  0  0  0  0  0  0  0  0  0  0  0
   45.8160   33.6650   45.8640 C   0  0  0  0  0  0  0  0  0  0  0  0
   44.8520   34.5850   45.8610 N   0  0  0  0  0  0  0  0  0  0  0  0
   46.0480   32.8230   46.9630 N   0  0  0  0  0  0  0  0  0  0  0  0
   45.0240   32.3680   47.8910 C   0  0  0  0  0  0  0  0  0  0  0  0
   45.8580   32.2250   49.1510 C   0  0  0  0  0  0  0  0  0  0  0  0
   47.0410   31.4550   48.5940 C   0  0  1  0  0  0  0  0  0  0  0  0
   47.3590   32.2650   47.3550 C   0  0  0  0  0  0  0  0  0  0  0  0
   48.1380   31.3220   49.4880 N   0  0  0  0  0  0  0  0  0  0  0  0
   48.9490   30.1850   49.5980 C   0  0  0  0  0  0  0  0  0  0  0  0
   48.8460   29.2460   48.7490 N   0  0  0  0  0  0  0  0  0  0  0  0
   49.9060   30.0630   50.6690 N   0  0  0  0  0  0  0  0  0  0  0  0
   49.3920   28.3580   48.7280 H   0  0  0  0  0  0  0  0  0  0  0  0
   43.8538   36.1134   44.8248 H   0  0  0  0  0  0  0  0  0  0  0  0
   45.3201   35.8778   42.7673 H   0  0  0  0  0  0  0  0  0  0  0  0
   47.1693   34.1048   42.7991 H   0  0  0  0  0  0  0  0  0  0  0  0
   44.2235   33.1124   48.0132 H   0  0  0  0  0  0  0  0  0  0  0  0
   44.4895   31.4575   47.5824 H   0  0  0  0  0  0  0  0  0  0  0  0
   46.1600   33.2028   49.5544 H   0  0  0  0  0  0  0  0  0  0  0  0
   45.3449   31.7414   49.9953 H   0  0  0  0  0  0  0  0  0  0  0  0
   46.8155   30.3968   48.3958 H   0  0  0  0  0  0  0  0  0  0  0  0
   47.7672   31.6238   46.5599 H   0  0  0  0  0  0  0  0  0  0  0  0
   48.1191   33.0400   47.5327 H   0  0  0  0  0  0  0  0  0  0  0  0
   48.3528   32.1215   50.1009 H   0  0  0  0  0  0  0  0  0  0  0  0
   50.4964   29.2219   50.7388 H   0  0  0  0  0  0  0  0  0  0  0  0
   49.9994   30.8169   51.3645 H   0  0  0  0  0  0  0  0  0  0  0  0
  1  6  2  0
  2  3  2  0
  2  1  1  0
  3  4  1  0
  4  5  2  0
  5  7  1  0
  6  5  1  0
  7 11  1  0
  7  8  1  0
  8  9  1  0
 10  9  1  0
 10 12  1  0
 11 10  1  0
 12 13  1  0
 13 15  1  0
 14 13  2  0
 16 14  1  0
  1 17  1  0
  2 18  1  0
  3 19  1  0
  8 20  1  0
  8 21  1  0
  9 22  1  0
  9 23  1  0
 10 24  1  6
 11 25  1  0
 11 26  1  0
 12 27  1  0
 15 28  1  0
 15 29  1  0
M  ISO  8  17  14  18  14  19  14  20  13  21  13  22  13  23  13  24  13
M  ISO  2  25  13  26  13
M  END
>  <minimizedAffinity>  (1) 
-5.39818621

>  <minimizedRMSD>  (1) 
0.483596832

$$$$
