
     RDKit          3D

 25 26  0  0  1  0  0  0  0  0999 V2000
   44.5290   35.7620   44.8770 C   0  0  0  0  0  0  0  0  0  0  0  0
   44.9850   35.5370   43.5490 C   0  0  0  0  0  0  0  0  0  0  0  0
   45.7600   34.3870   43.3060 C   0  0  0  0  0  0  0  0  0  0  0  0
   46.0350   33.5490   44.3490 N   0  0  0  0  0  0  0  0  0  0  0  0
   45.5710   33.8180   45.5930 C   0  0  0  0  0  0  0  0  0  0  0  0
   44.8270   34.9120   45.8520 N   0  0  0  0  0  0  0  0  0  0  0  0
   45.9080   32.8910   46.5970 N   0  0  0  0  0  0  0  0  0  0  0  0
   45.0680   32.5590   47.7400 C   0  0  0  0  0  0  0  0  0  0  0  0
   46.1340   32.2530   48.7760 C   0  0  0  0  0  0  0  0  0  0  0  0
   47.0380   31.3260   47.9460 C   0  0  1  0  0  0  0  0  0  0  0  0
   47.1350   32.1090   46.6750 C   0  0  0  0  0  0  0  0  0  0  0  0
   48.3670   31.2050   48.6580 C   0  0  0  0  0  0  0  0  0  0  0  0
   48.8870   32.4630   48.8580 F   0  0  0  0  0  0  0  0  0  0  0  0
   49.2160   30.3690   47.9600 F   0  0  0  0  0  0  0  0  0  0  0  0
   48.1620   30.5970   49.8860 F   0  0  0  0  0  0  0  0  0  0  0  0
   43.9216   36.6518   45.0991 H   0  0  0  0  0  0  0  0  0  0  0  0
   44.7402   36.2386   42.7380 H   0  0  0  0  0  0  0  0  0  0  0  0
   46.1366   34.1677   42.2960 H   0  0  0  0  0  0  0  0  0  0  0  0
   44.4375   33.4080   48.0426 H   0  0  0  0  0  0  0  0  0  0  0  0
   44.3487   31.7456   47.5636 H   0  0  0  0  0  0  0  0  0  0  0  0
   46.6642   33.1609   49.0994 H   0  0  0  0  0  0  0  0  0  0  0  0
   45.7615   31.8228   49.7173 H   0  0  0  0  0  0  0  0  0  0  0  0
   46.6876   30.2954   47.7876 H   0  0  0  0  0  0  0  0  0  0  0  0
   47.2129   31.4311   45.8122 H   0  0  0  0  0  0  0  0  0  0  0  0
   48.0271   32.7524   46.6625 H   0  0  0  0  0  0  0  0  0  0  0  0
  1  6  2  0
  2  1  1  0
  3  2  2  0
  3  4  1  0
  4  5  2  0
  5  6  1  0
  5  7  1  0
  7 11  1  0
  7  8  1  0
  8  9  1  0
 10 12  1  0
 10  9  1  0
 11 10  1  0
 12 13  1  0
 12 15  1  0
 14 12  1  0
  1 16  1  0
  2 17  1  0
  3 18  1  0
  8 19  1  0
  8 20  1  0
  9 21  1  0
  9 22  1  0
 10 23  1  6
 11 24  1  0
 11 25  1  0
M  ISO  8  16  14  17  14  18  14  19  13  20  13  21  13  22  13  23  13
M  ISO  2  24  13  25  13
M  END
>  <minimizedAffinity>  (1) 
-5.06260204

>  <minimizedRMSD>  (1) 
0.693011761

$$$$
