
     RDKit          3D

 25 26  0  0  1  0  0  0  0  0999 V2000
   44.5410   35.7740   44.8580 C   0  0  0  0  0  0  0  0  0  0  0  0
   45.1490   35.5930   43.5850 C   0  0  0  0  0  0  0  0  0  0  0  0
   46.0040   34.4900   43.4190 C   0  0  0  0  0  0  0  0  0  0  0  0
   46.2010   33.6590   44.4820 N   0  0  0  0  0  0  0  0  0  0  0  0
   45.5980   33.8770   45.6720 C   0  0  0  0  0  0  0  0  0  0  0  0
   44.7840   34.9180   45.8500 N   0  0  0  0  0  0  0  0  0  0  0  0
   45.8650   32.9650   46.7050 N   0  0  0  0  0  0  0  0  0  0  0  0
   44.9560   32.5800   47.7650 C   0  0  0  0  0  0  0  0  0  0  0  0
   45.9090   32.2830   48.8770 C   0  0  0  0  0  0  0  0  0  0  0  0
   46.9400   31.4300   48.1450 C   0  0  1  0  0  0  0  0  0  0  0  0
   47.1260   32.2360   46.8910 C   0  0  0  0  0  0  0  0  0  0  0  0
   48.1500   31.3980   49.0020 C   0  0  0  0  0  0  0  0  0  0  0  0
   49.0980   32.2350   48.9990 O   0  0  0  0  0  0  0  0  0  0  0  0
   48.2870   30.3630   49.9020 O   0  0  0  0  0  0  0  0  0  0  0  0
   43.8657   36.6262   45.0248 H   0  0  0  0  0  0  0  0  0  0  0  0
   44.9565   36.2927   42.7583 H   0  0  0  0  0  0  0  0  0  0  0  0
   46.5016   34.3019   42.4562 H   0  0  0  0  0  0  0  0  0  0  0  0
   44.2739   33.4018   48.0284 H   0  0  0  0  0  0  0  0  0  0  0  0
   44.2920   31.7422   47.5059 H   0  0  0  0  0  0  0  0  0  0  0  0
   46.3575   33.2018   49.2828 H   0  0  0  0  0  0  0  0  0  0  0  0
   45.4527   31.7972   49.7521 H   0  0  0  0  0  0  0  0  0  0  0  0
   46.6829   30.3828   47.9276 H   0  0  0  0  0  0  0  0  0  0  0  0
   47.3182   31.5745   46.0334 H   0  0  0  0  0  0  0  0  0  0  0  0
   47.9854   32.9183   46.9671 H   0  0  0  0  0  0  0  0  0  0  0  0
   49.0849   30.3174   50.4862 H   0  0  0  0  0  0  0  0  0  0  0  0
  1  6  2  0
  2  1  1  0
  3  2  2  0
  3  4  1  0
  4  5  2  0
  5  6  1  0
  5  7  1  0
  7 11  1  0
  7  8  1  0
  8  9  1  0
 10  9  1  0
 10 12  1  0
 11 10  1  0
 12 14  1  0
 13 12  2  0
  1 15  1  0
  2 16  1  0
  3 17  1  0
  8 18  1  0
  8 19  1  0
  9 20  1  0
  9 21  1  0
 10 22  1  6
 11 23  1  0
 11 24  1  0
 14 25  1  0
M  ISO  8  15  14  16  14  17  14  18  13  19  13  20  13  21  13  22  13
M  ISO  3  23  13  24  13  25   3
M  END
>  <minimizedAffinity>  (1) 
-5.19402027

>  <minimizedRMSD>  (1) 
0.221996069

$$$$
