
     RDKit          3D

 29 31  0  0  1  0  0  0  0  0999 V2000
   44.6150   35.4860   45.1810 C   0  0  0  0  0  0  0  0  0  0  0  0
   45.2650   35.3610   43.9310 C   0  0  0  0  0  0  0  0  0  0  0  0
   46.1220   34.2660   43.7580 C   0  0  0  0  0  0  0  0  0  0  0  0
   46.2840   33.3920   44.7860 N   0  0  0  0  0  0  0  0  0  0  0  0
   45.6470   33.5470   45.9630 C   0  0  0  0  0  0  0  0  0  0  0  0
   44.8200   34.5910   46.1460 N   0  0  0  0  0  0  0  0  0  0  0  0
   45.8750   32.6010   46.9600 N   0  0  0  0  0  0  0  0  0  0  0  0
   44.9540   32.1780   47.9880 C   0  0  0  0  0  0  0  0  0  0  0  0
   45.8920   31.9060   49.1410 C   0  0  0  0  0  0  0  0  0  0  0  0
   46.9640   31.0940   48.4380 C   0  0  1  0  0  0  0  0  0  0  0  0
   47.1230   31.8510   47.1380 C   0  0  0  0  0  0  0  0  0  0  0  0
   48.2820   31.2130   49.1480 C   0  0  0  0  0  0  0  0  0  0  0  0
   49.2000   32.2420   49.0940 C   0  0  0  0  0  0  0  0  0  0  0  0
   50.1970   31.8740   49.8970 N   0  0  0  0  0  0  0  0  0  0  0  0
   49.9210   30.6530   50.4410 C   0  0  0  0  0  0  0  0  0  0  0  0
   48.7100   30.2320   49.9700 N   0  0  0  0  0  0  0  0  0  0  0  0
   43.9333   36.3309   45.3580 H   0  0  0  0  0  0  0  0  0  0  0  0
   45.1042   36.0941   43.1268 H   0  0  0  0  0  0  0  0  0  0  0  0
   46.6542   34.1165   42.8070 H   0  0  0  0  0  0  0  0  0  0  0  0
   44.2345   32.9727   48.2344 H   0  0  0  0  0  0  0  0  0  0  0  0
   44.3308   31.3170   47.7046 H   0  0  0  0  0  0  0  0  0  0  0  0
   46.2985   32.8372   49.5624 H   0  0  0  0  0  0  0  0  0  0  0  0
   45.4270   31.4040   50.0023 H   0  0  0  0  0  0  0  0  0  0  0  0
   46.7000   30.0287   48.3647 H   0  0  0  0  0  0  0  0  0  0  0  0
   47.2724   31.1512   46.3025 H   0  0  0  0  0  0  0  0  0  0  0  0
   47.9976   32.5178   47.1609 H   0  0  0  0  0  0  0  0  0  0  0  0
   49.1243   33.1712   48.5102 H   0  0  0  0  0  0  0  0  0  0  0  0
   50.5654   30.1009   51.1410 H   0  0  0  0  0  0  0  0  0  0  0  0
   48.2255   29.3513   50.1948 H   0  0  0  0  0  0  0  0  0  0  0  0
  1  6  2  0
  2  1  1  0
  3  2  2  0
  3  4  1  0
  4  5  2  0
  5  6  1  0
  5  7  1  0
  7 11  1  0
  7  8  1  0
  8  9  1  0
 10  9  1  0
 10 12  1  0
 11 10  1  0
 12 16  1  0
 13 12  2  0
 13 14  1  0
 14 15  2  0
 16 15  1  0
  1 17  1  0
  2 18  1  0
  3 19  1  0
  8 20  1  0
  8 21  1  0
  9 22  1  0
  9 23  1  0
 10 24  1  6
 11 25  1  0
 11 26  1  0
 13 27  1  0
 15 28  1  0
 16 29  1  0
M  ISO  8  17  14  18  14  19  14  20  13  21  13  22  13  23  13  24  13
M  ISO  5  25  13  26  13  27  14  28  14  29   9
M  END
>  <minimizedAffinity>  (1) 
-5.34358454

>  <minimizedRMSD>  (1) 
0.987662852

$$$$
