
     RDKit          3D

 29 31  0  0  1  0  0  0  0  0999 V2000
   44.5730   35.6730   44.9060 C   0  0  0  0  0  0  0  0  0  0  0  0
   45.1860   35.5120   43.6520 C   0  0  0  0  0  0  0  0  0  0  0  0
   46.0740   34.4190   43.4790 C   0  0  0  0  0  0  0  0  0  0  0  0
   46.2710   33.5980   44.5460 N   0  0  0  0  0  0  0  0  0  0  0  0
   45.6510   33.8010   45.7330 C   0  0  0  0  0  0  0  0  0  0  0  0
   44.8160   34.8270   45.9010 N   0  0  0  0  0  0  0  0  0  0  0  0
   45.9430   32.8750   46.7540 N   0  0  0  0  0  0  0  0  0  0  0  0
   45.0160   32.4940   47.8130 C   0  0  0  0  0  0  0  0  0  0  0  0
   45.9790   32.2250   48.9380 C   0  0  0  0  0  0  0  0  0  0  0  0
   47.0110   31.3690   48.2140 C   0  0  1  0  0  0  0  0  0  0  0  0
   47.2020   32.1470   46.9320 C   0  0  0  0  0  0  0  0  0  0  0  0
   48.2930   31.3290   48.9880 C   0  0  0  0  0  0  0  0  0  0  0  0
   48.8790   30.2900   49.7190 C   0  0  0  0  0  0  0  0  0  0  0  0
   50.0500   30.7310   50.2500 C   0  0  0  0  0  0  0  0  0  0  0  0
   50.1480   32.0080   49.8380 N   0  0  0  0  0  0  0  0  0  0  0  0
   49.1250   32.4000   49.0870 N   0  0  0  0  0  0  0  0  0  0  0  0
   43.8809   36.5128   45.0664 H   0  0  0  0  0  0  0  0  0  0  0  0
   44.9834   36.2127   42.8286 H   0  0  0  0  0  0  0  0  0  0  0  0
   46.5831   34.2423   42.5201 H   0  0  0  0  0  0  0  0  0  0  0  0
   44.3225   33.3116   48.0590 H   0  0  0  0  0  0  0  0  0  0  0  0
   44.3566   31.6499   47.5628 H   0  0  0  0  0  0  0  0  0  0  0  0
   46.4212   33.1544   49.3262 H   0  0  0  0  0  0  0  0  0  0  0  0
   45.5307   31.7539   49.8252 H   0  0  0  0  0  0  0  0  0  0  0  0
   46.7068   30.3217   48.0706 H   0  0  0  0  0  0  0  0  0  0  0  0
   47.3803   31.4660   46.0867 H   0  0  0  0  0  0  0  0  0  0  0  0
   48.0715   32.8194   46.9762 H   0  0  0  0  0  0  0  0  0  0  0  0
   48.4603   29.2805   49.8437 H   0  0  0  0  0  0  0  0  0  0  0  0
   50.7588   30.1695   50.8763 H   0  0  0  0  0  0  0  0  0  0  0  0
   50.9388   32.6215   50.0811 H   0  0  0  0  0  0  0  0  0  0  0  0
  1  6  2  0
  2  1  1  0
  3  2  2  0
  3  4  1  0
  4  5  2  0
  5  6  1  0
  5  7  1  0
  7 11  1  0
  7  8  1  0
  8  9  1  0
 10  9  1  0
 10 12  1  0
 11 10  1  0
 12 16  2  0
 12 13  1  0
 13 14  2  0
 15 14  1  0
 16 15  1  0
  1 17  1  0
  2 18  1  0
  3 19  1  0
  8 20  1  0
  8 21  1  0
  9 22  1  0
  9 23  1  0
 10 24  1  6
 11 25  1  0
 11 26  1  0
 13 27  1  0
 14 28  1  0
 15 29  1  0
M  ISO  8  17  14  18  14  19  14  20  13  21  13  22  13  23  13  24  13
M  ISO  5  25  13  26  13  27  14  28  14  29   9
M  END
>  <minimizedAffinity>  (1) 
-5.22329473

>  <minimizedRMSD>  (1) 
0.156129465

$$$$
