
     RDKit          3D

 28 30  0  0  1  0  0  0  0  0999 V2000
   44.6010   35.6360   44.9190 C   0  0  0  0  0  0  0  0  0  0  0  0
   45.3030   35.4810   43.7000 C   0  0  0  0  0  0  0  0  0  0  0  0
   46.1900   34.4100   43.5600 C   0  0  0  0  0  0  0  0  0  0  0  0
   46.2930   33.6080   44.6320 N   0  0  0  0  0  0  0  0  0  0  0  0
   45.6350   33.7510   45.7800 C   0  0  0  0  0  0  0  0  0  0  0  0
   44.7750   34.7730   45.9370 N   0  0  0  0  0  0  0  0  0  0  0  0
   45.8520   32.8340   46.8110 N   0  0  0  0  0  0  0  0  0  0  0  0
   44.9600   32.4460   47.8690 C   0  0  0  0  0  0  0  0  0  0  0  0
   45.9460   32.2270   49.0070 C   0  0  0  0  0  0  0  0  0  0  0  0
   46.9430   31.3300   48.2880 C   0  0  1  0  0  0  0  0  0  0  0  0
   47.0950   32.0750   46.9980 C   0  0  0  0  0  0  0  0  0  0  0  0
   48.2190   31.3390   48.9700 N   0  0  0  0  0  0  0  0  0  0  0  0
   48.7910   30.3340   49.6720 C   0  0  0  0  0  0  0  0  0  0  0  0
   49.9880   30.7250   50.1620 N   0  0  0  0  0  0  0  0  0  0  0  0
   50.1510   32.0090   49.7450 C   0  0  0  0  0  0  0  0  0  0  0  0
   49.0540   32.3390   49.0250 N   0  0  0  0  0  0  0  0  0  0  0  0
   43.9010   36.4764   45.0365 H   0  0  0  0  0  0  0  0  0  0  0  0
   45.1528   36.1929   42.8750 H   0  0  0  0  0  0  0  0  0  0  0  0
   46.7630   34.2364   42.6372 H   0  0  0  0  0  0  0  0  0  0  0  0
   44.2403   33.2438   48.1048 H   0  0  0  0  0  0  0  0  0  0  0  0
   44.3307   31.5740   47.6374 H   0  0  0  0  0  0  0  0  0  0  0  0
   46.4052   33.1688   49.3420 H   0  0  0  0  0  0  0  0  0  0  0  0
   45.5174   31.8126   49.9314 H   0  0  0  0  0  0  0  0  0  0  0  0
   46.6275   30.2792   48.2088 H   0  0  0  0  0  0  0  0  0  0  0  0
   47.2396   31.3702   46.1660 H   0  0  0  0  0  0  0  0  0  0  0  0
   47.9702   32.7410   47.0219 H   0  0  0  0  0  0  0  0  0  0  0  0
   48.3450   29.3398   49.8225 H   0  0  0  0  0  0  0  0  0  0  0  0
   51.0139   32.6584   49.9541 H   0  0  0  0  0  0  0  0  0  0  0  0
  1  6  2  0
  2  1  1  0
  3  2  2  0
  3  4  1  0
  4  5  2  0
  5  6  1  0
  5  7  1  0
  7 11  1  0
  7  8  1  0
  8  9  1  0
 10 12  1  0
 10  9  1  0
 11 10  1  0
 12 16  1  0
 12 13  1  0
 13 14  2  0
 15 14  1  0
 16 15  2  0
  1 17  1  0
  2 18  1  0
  3 19  1  0
  8 20  1  0
  8 21  1  0
  9 22  1  0
  9 23  1  0
 10 24  1  6
 11 25  1  0
 11 26  1  0
 13 27  1  0
 15 28  1  0
M  ISO  8  17  14  18  14  19  14  20  13  21  13  22  13  23  13  24  13
M  ISO  4  25  13  26  13  27  14  28  14
M  END
>  <minimizedAffinity>  (1) 
-5.08142042

>  <minimizedRMSD>  (1) 
0.207279742

$$$$
