
     RDKit          3D

 35 37  0  0  1  0  0  0  0  0999 V2000
   44.5690   35.7510   44.8940 C   0  0  0  0  0  0  0  0  0  0  0  0
   44.8260   35.4800   43.5230 C   0  0  0  0  0  0  0  0  0  0  0  0
   45.4490   34.2480   43.2110 C   0  0  0  0  0  0  0  0  0  0  0  0
   45.7670   33.3980   44.2320 N   0  0  0  0  0  0  0  0  0  0  0  0
   45.4950   33.7190   45.5170 C   0  0  0  0  0  0  0  0  0  0  0  0
   44.9010   34.8850   45.8450 N   0  0  0  0  0  0  0  0  0  0  0  0
   45.8610   32.7740   46.4950 N   0  0  0  0  0  0  0  0  0  0  0  0
   45.1810   32.5770   47.7690 C   0  0  0  0  0  0  0  0  0  0  0  0
   46.3610   32.1470   48.6230 C   0  0  0  0  0  0  0  0  0  0  0  0
   46.9710   31.0930   47.7170 C   0  0  1  0  0  0  0  0  0  0  0  0
   46.9840   31.8350   46.3940 C   0  0  0  0  0  0  0  0  0  0  0  0
   48.3460   30.9000   48.1040 N   0  0  0  0  0  0  0  0  0  0  0  0
   48.5520   30.9060   49.5250 C   0  0  0  0  0  0  0  0  0  0  0  0
   49.9020   30.2540   49.7870 C   0  0  0  0  0  0  0  0  0  0  0  0
   49.7930   28.9080   49.5410 O   0  0  0  0  0  0  0  0  0  0  0  0
   49.2200   28.6000   48.3290 C   0  0  0  0  0  0  0  0  0  0  0  0
   48.9620   29.7850   47.4370 C   0  0  0  0  0  0  0  0  0  0  0  0
   44.0847   36.6982   45.1738 H   0  0  0  0  0  0  0  0  0  0  0  0
   44.5520   36.1983   42.7363 H   0  0  0  0  0  0  0  0  0  0  0  0
   45.6725   33.9805   42.1677 H   0  0  0  0  0  0  0  0  0  0  0  0
   44.7253   33.5075   48.1384 H   0  0  0  0  0  0  0  0  0  0  0  0
   44.3396   31.8688   47.7446 H   0  0  0  0  0  0  0  0  0  0  0  0
   47.0564   32.9791   48.8073 H   0  0  0  0  0  0  0  0  0  0  0  0
   46.0994   31.7958   49.6320 H   0  0  0  0  0  0  0  0  0  0  0  0
   46.4528   30.1227   47.7233 H   0  0  0  0  0  0  0  0  0  0  0  0
   46.8359   31.1390   45.5552 H   0  0  0  0  0  0  0  0  0  0  0  0
   47.9414   32.3429   46.2060 H   0  0  0  0  0  0  0  0  0  0  0  0
   48.5534   31.9397   49.9012 H   0  0  0  0  0  0  0  0  0  0  0  0
   47.7478   30.3585   50.0384 H   0  0  0  0  0  0  0  0  0  0  0  0
   50.6606   30.6921   49.1217 H   0  0  0  0  0  0  0  0  0  0  0  0
   50.2043   30.4221   50.8312 H   0  0  0  0  0  0  0  0  0  0  0  0
   49.8923   27.9106   47.7973 H   0  0  0  0  0  0  0  0  0  0  0  0
   48.2374   28.1590   48.5525 H   0  0  0  0  0  0  0  0  0  0  0  0
   48.3006   29.4638   46.6189 H   0  0  0  0  0  0  0  0  0  0  0  0
   49.9428   30.1321   47.0798 H   0  0  0  0  0  0  0  0  0  0  0  0
  1  6  2  0
  2  1  1  0
  3  2  2  0
  3  4  1  0
  4  5  2  0
  5  6  1  0
  5  7  1  0
  7  8  1  0
  8  9  1  0
 10 12  1  0
 10  9  1  0
 11  7  1  0
 11 10  1  0
 12 13  1  0
 13 14  1  0
 15 14  1  0
 16 15  1  0
 17 12  1  0
 17 16  1  0
  1 18  1  0
  2 19  1  0
  3 20  1  0
  8 21  1  0
  8 22  1  0
  9 23  1  0
  9 24  1  0
 10 25  1  6
 11 26  1  0
 11 27  1  0
 13 28  1  0
 13 29  1  0
 14 30  1  0
 14 31  1  0
 16 32  1  0
 16 33  1  0
 17 34  1  0
 17 35  1  0
M  ISO  8  18  14  19  14  20  14  21  13  22  13  23  13  24  13  25  13
M  ISO  8  26  13  27  13  28  13  29  13  30  13  31  13  32  13  33  13
M  ISO  2  34  13  35  13
M  END
>  <minimizedAffinity>  (1) 
-4.96606112

>  <minimizedRMSD>  (1) 
1.12764847

$$$$
