
     RDKit          3D

 34 36  0  0  1  0  0  0  0  0999 V2000
   45.1070   34.6350   44.9600 C   0  0  0  0  0  0  0  0  0  0  0  0
   45.9770   34.5980   43.8550 C   0  0  0  0  0  0  0  0  0  0  0  0
   47.0620   33.6850   43.8900 C   0  0  0  0  0  0  0  0  0  0  0  0
   47.2010   32.8940   44.9850 N   0  0  0  0  0  0  0  0  0  0  0  0
   46.3380   32.9640   46.0230 C   0  0  0  0  0  0  0  0  0  0  0  0
   45.3210   33.8230   45.9910 N   0  0  0  0  0  0  0  0  0  0  0  0
   46.5660   32.1110   47.0990 N   0  0  0  0  0  0  0  0  0  0  0  0
   45.5490   31.5760   47.9910 C   0  0  0  0  0  0  0  0  0  0  0  0
   46.3320   31.4540   49.2780 C   0  0  0  0  0  0  0  0  0  0  0  0
   47.5770   30.7250   48.7320 C   0  0  1  0  0  0  0  0  0  0  0  0
   47.8530   31.5920   47.5420 C   0  0  0  0  0  0  0  0  0  0  0  0
   48.6500   30.7620   49.7030 N   0  0  0  0  0  0  0  0  0  0  0  0
   49.3920   29.5490   49.7760 C   0  0  0  0  0  0  0  0  0  0  0  0
   50.4980   29.7700   48.7420 C   0  0  0  0  0  0  0  0  0  0  0  0
   50.8950   31.1950   49.0700 C   0  0  0  0  0  0  0  0  0  0  0  0
   49.5360   31.8280   49.3470 C   0  0  0  0  0  0  0  0  0  0  0  0
   44.2553   35.3311   44.9710 H   0  0  0  0  0  0  0  0  0  0  0  0
   45.8204   35.2579   42.9890 H   0  0  0  0  0  0  0  0  0  0  0  0
   47.7720   33.6195   43.0524 H   0  0  0  0  0  0  0  0  0  0  0  0
   44.7006   32.2679   48.0980 H   0  0  0  0  0  0  0  0  0  0  0  0
   45.0917   30.6366   47.6468 H   0  0  0  0  0  0  0  0  0  0  0  0
   46.5826   32.4369   49.7035 H   0  0  0  0  0  0  0  0  0  0  0  0
   45.8106   30.9479   50.1038 H   0  0  0  0  0  0  0  0  0  0  0  0
   47.4594   29.6555   48.5033 H   0  0  0  0  0  0  0  0  0  0  0  0
   48.3198   31.0000   46.7410 H   0  0  0  0  0  0  0  0  0  0  0  0
   48.5440   32.4089   47.7975 H   0  0  0  0  0  0  0  0  0  0  0  0
   49.8126   29.4010   50.7816 H   0  0  0  0  0  0  0  0  0  0  0  0
   48.7846   28.6528   49.5814 H   0  0  0  0  0  0  0  0  0  0  0  0
   50.1177   29.6800   47.7138 H   0  0  0  0  0  0  0  0  0  0  0  0
   51.3209   29.0413   48.7854 H   0  0  0  0  0  0  0  0  0  0  0  0
   51.5469   31.2378   49.9550 H   0  0  0  0  0  0  0  0  0  0  0  0
   51.4718   31.6953   48.2782 H   0  0  0  0  0  0  0  0  0  0  0  0
   49.6149   32.5478   50.1751 H   0  0  0  0  0  0  0  0  0  0  0  0
   49.1660   32.3719   48.4653 H   0  0  0  0  0  0  0  0  0  0  0  0
  1  6  2  0
  2  3  2  0
  2  1  1  0
  3  4  1  0
  4  5  2  0
  5  7  1  0
  6  5  1  0
  7 11  1  0
  7  8  1  0
  8  9  1  0
 10  9  1  0
 10 12  1  0
 11 10  1  0
 12 13  1  0
 14 15  1  0
 14 13  1  0
 15 16  1  0
 16 12  1  0
  1 17  1  0
  2 18  1  0
  3 19  1  0
  8 20  1  0
  8 21  1  0
  9 22  1  0
  9 23  1  0
 10 24  1  6
 11 25  1  0
 11 26  1  0
 13 27  1  0
 13 28  1  0
 14 29  1  0
 14 30  1  0
 15 31  1  0
 15 32  1  0
 16 33  1  0
 16 34  1  0
M  ISO  8  17  14  18  14  19  14  20  13  21  13  22  13  23  13  24  13
M  ISO  8  25  13  26  13  27  13  28  13  29  13  30  13  31  13  32  13
M  ISO  2  33  13  34  13
M  END
>  <minimizedAffinity>  (1) 
-4.2071166

>  <minimizedRMSD>  (1) 
1.19701385

$$$$
