
     RDKit          3D

 45 49  0  0  1  0  0  0  0  0999 V2000
   44.8740   34.8320   45.4390 C   0  0  0  0  0  0  0  0  0  0  0  0
   45.5260   34.7950   44.1830 C   0  0  0  0  0  0  0  0  0  0  0  0
   46.5060   33.8330   43.9740 C   0  0  0  0  0  0  0  0  0  0  0  0
   46.8020   32.9650   44.9890 N   0  0  0  0  0  0  0  0  0  0  0  0
   46.1590   33.0280   46.1790 C   0  0  0  0  0  0  0  0  0  0  0  0
   45.1960   33.9570   46.4130 N   0  0  0  0  0  0  0  0  0  0  0  0
   46.5290   32.0990   47.1660 N   0  0  0  0  0  0  0  0  0  0  0  0
   45.6820   31.5310   48.1760 C   0  0  0  0  0  0  0  0  0  0  0  0
   46.6440   31.3690   49.3210 C   0  0  0  0  0  0  0  0  0  0  0  0
   47.8190   30.7470   48.6170 C   0  0  1  0  0  0  0  0  0  0  0  0
   47.8770   31.5520   47.3170 C   0  0  0  0  0  0  0  0  0  0  0  0
   49.0070   30.9750   49.4210 C   0  0  0  0  0  0  0  0  0  0  0  0
   49.8630   32.0940   49.6040 C   0  0  0  0  0  0  0  0  0  0  0  0
   50.9390   32.0020   50.4350 C   0  0  0  0  0  0  0  0  0  0  0  0
   51.1680   30.7970   51.0820 C   0  0  0  0  0  0  0  0  0  0  0  0
   49.7750   29.7670   50.4680 S   0  0  0  0  0  0  0  0  0  0  0  0
   52.2390   30.6100   51.9440 C   0  0  0  0  0  0  0  0  0  0  0  0
   53.3310   29.8350   51.6140 C   0  0  0  0  0  0  0  0  0  0  0  0
   54.4040   29.6280   52.4340 C   0  0  0  0  0  0  0  0  0  0  0  0
   54.4820   30.1900   53.6860 C   0  0  0  0  0  0  0  0  0  0  0  0
   53.4130   30.9710   54.0550 C   0  0  0  0  0  0  0  0  0  0  0  0
   53.4840   31.5380   55.3070 C   0  0  0  0  0  0  0  0  0  0  0  0
   52.4710   32.3420   55.7860 C   0  0  0  0  0  0  0  0  0  0  0  0
   51.3810   32.5610   54.9680 C   0  0  0  0  0  0  0  0  0  0  0  0
   51.3730   31.9640   53.7290 C   0  0  0  0  0  0  0  0  0  0  0  0
   52.3480   31.1580   53.1990 C   0  0  0  0  0  0  0  0  0  0  0  0
   44.0937   35.5852   45.6229 H   0  0  0  0  0  0  0  0  0  0  0  0
   45.2627   35.5114   43.3909 H   0  0  0  0  0  0  0  0  0  0  0  0
   47.0338   33.7704   43.0109 H   0  0  0  0  0  0  0  0  0  0  0  0
   44.8576   32.2107   48.4374 H   0  0  0  0  0  0  0  0  0  0  0  0
   45.1870   30.5970   47.8717 H   0  0  0  0  0  0  0  0  0  0  0  0
   46.9073   32.3387   49.7686 H   0  0  0  0  0  0  0  0  0  0  0  0
   46.2537   30.7791   50.1634 H   0  0  0  0  0  0  0  0  0  0  0  0
   47.7451   29.6627   48.4470 H   0  0  0  0  0  0  0  0  0  0  0  0
   48.1301   30.9010   46.4672 H   0  0  0  0  0  0  0  0  0  0  0  0
   48.6469   32.3372   47.3446 H   0  0  0  0  0  0  0  0  0  0  0  0
   49.6569   33.0358   49.0743 H   0  0  0  0  0  0  0  0  0  0  0  0
   51.6085   32.8612   50.5886 H   0  0  0  0  0  0  0  0  0  0  0  0
   53.3386   29.3519   50.6258 H   0  0  0  0  0  0  0  0  0  0  0  0
   55.2301   28.9927   52.0818 H   0  0  0  0  0  0  0  0  0  0  0  0
   55.3439   30.0254   54.3494 H   0  0  0  0  0  0  0  0  0  0  0  0
   54.3649   31.3464   55.9373 H   0  0  0  0  0  0  0  0  0  0  0  0
   52.5298   32.7939   56.7871 H   0  0  0  0  0  0  0  0  0  0  0  0
   50.5438   33.1940   55.2972 H   0  0  0  0  0  0  0  0  0  0  0  0
   50.4926   32.1527   53.0971 H   0  0  0  0  0  0  0  0  0  0  0  0
  1  6  2  0
  2  1  1  0
  3  2  2  0
  3  4  1  0
  4  5  2  0
  5  6  1  0
  5  7  1  0
  7 11  1  0
  7  8  1  0
  8  9  1  0
 10  9  1  0
 10 12  1  0
 11 10  1  0
 12 13  2  0
 12 16  1  0
 13 14  1  0
 14 15  2  0
 15 17  1  0
 16 15  1  0
 17 26  1  0
 18 17  2  0
 18 19  1  0
 19 20  2  0
 20 21  1  0
 21 22  2  0
 22 23  1  0
 24 23  2  0
 25 24  1  0
 26 25  2  0
 26 21  1  0
  1 27  1  0
  2 28  1  0
  3 29  1  0
  8 30  1  0
  8 31  1  0
  9 32  1  0
  9 33  1  0
 10 34  1  6
 11 35  1  0
 11 36  1  0
 13 37  1  0
 14 38  1  0
 18 39  1  0
 19 40  1  0
 20 41  1  0
 22 42  1  0
 23 43  1  0
 24 44  1  0
 25 45  1  0
M  ISO  8  27  14  28  14  29  14  30  13  31  13  32  13  33  13  34  13
M  ISO  8  35  13  36  13  37  14  38  14  39  14  40  14  41  14  42  14
M  ISO  3  43  14  44  14  45  14
M  END
>  <minimizedAffinity>  (1) 
-6.81062078

>  <minimizedRMSD>  (1) 
2.60227442

$$$$
