
     RDKit          3D

 42 46  0  0  1  0  0  0  0  0999 V2000
   44.5330   35.4940   45.1080 C   0  0  0  0  0  0  0  0  0  0  0  0
   45.1130   35.4020   43.8200 C   0  0  0  0  0  0  0  0  0  0  0  0
   46.0420   34.3640   43.6030 C   0  0  0  0  0  0  0  0  0  0  0  0
   46.3280   33.5160   44.6270 N   0  0  0  0  0  0  0  0  0  0  0  0
   45.7490   33.6450   45.8360 C   0  0  0  0  0  0  0  0  0  0  0  0
   44.8490   34.6320   46.0850 N   0  0  0  0  0  0  0  0  0  0  0  0
   46.1050   32.7280   46.8300 N   0  0  0  0  0  0  0  0  0  0  0  0
   45.2730   32.2340   47.8890 C   0  0  0  0  0  0  0  0  0  0  0  0
   46.2610   32.0000   48.9890 C   0  0  0  0  0  0  0  0  0  0  0  0
   47.3780   31.3170   48.2560 C   0  0  1  0  0  0  0  0  0  0  0  0
   47.4210   32.1110   46.9500 C   0  0  0  0  0  0  0  0  0  0  0  0
   48.6110   31.5110   49.0290 C   0  0  0  0  0  0  0  0  0  0  0  0
   49.4880   32.6230   49.2060 C   0  0  0  0  0  0  0  0  0  0  0  0
   50.5860   32.4480   50.0010 C   0  0  0  0  0  0  0  0  0  0  0  0
   50.8070   31.2120   50.5980 C   0  0  0  0  0  0  0  0  0  0  0  0
   49.3470   30.1870   50.0020 S   0  0  0  0  0  0  0  0  0  0  0  0
   51.8040   30.7620   51.4240 N   0  0  0  0  0  0  0  0  0  0  0  0
   52.6420   29.7360   51.1280 C   0  0  0  0  0  0  0  0  0  0  0  0
   53.5280   29.5100   52.1270 N   0  0  0  0  0  0  0  0  0  0  0  0
   53.2530   30.4140   53.0900 C   0  0  0  0  0  0  0  0  0  0  0  0
   53.7630   30.7300   54.3420 C   0  0  0  0  0  0  0  0  0  0  0  0
   53.2500   31.7250   55.0840 N   0  0  0  0  0  0  0  0  0  0  0  0
   52.2160   32.4550   54.6300 C   0  0  0  0  0  0  0  0  0  0  0  0
   51.6710   32.2000   53.4160 N   0  0  0  0  0  0  0  0  0  0  0  0
   52.1780   31.1990   52.6570 C   0  0  0  0  0  0  0  0  0  0  0  0
   54.8660   29.8930   54.7410 N   0  0  0  0  0  0  0  0  0  0  0  0
   43.8048   36.2927   45.3124 H   0  0  0  0  0  0  0  0  0  0  0  0
   44.8497   36.1111   43.0214 H   0  0  0  0  0  0  0  0  0  0  0  0
   46.5268   34.2422   42.6231 H   0  0  0  0  0  0  0  0  0  0  0  0
   44.5185   32.9785   48.1830 H   0  0  0  0  0  0  0  0  0  0  0  0
   44.6983   31.3369   47.6153 H   0  0  0  0  0  0  0  0  0  0  0  0
   46.5954   32.9480   49.4357 H   0  0  0  0  0  0  0  0  0  0  0  0
   45.8601   31.4189   49.8326 H   0  0  0  0  0  0  0  0  0  0  0  0
   47.2572   30.2350   48.0987 H   0  0  0  0  0  0  0  0  0  0  0  0
   47.6115   31.4414   46.0983 H   0  0  0  0  0  0  0  0  0  0  0  0
   48.2261   32.8605   46.9526 H   0  0  0  0  0  0  0  0  0  0  0  0
   49.2870   33.5886   48.7189 H   0  0  0  0  0  0  0  0  0  0  0  0
   51.2887   33.2779   50.1670 H   0  0  0  0  0  0  0  0  0  0  0  0
   52.6059   29.1592   50.1920 H   0  0  0  0  0  0  0  0  0  0  0  0
   51.8087   33.2671   55.2502 H   0  0  0  0  0  0  0  0  0  0  0  0
   55.3207   30.0405   55.6534 H   0  0  0  0  0  0  0  0  0  0  0  0
   55.1997   29.1472   54.1138 H   0  0  0  0  0  0  0  0  0  0  0  0
  1  6  2  0
  2  1  1  0
  3  2  2  0
  3  4  1  0
  4  5  2  0
  5  6  1  0
  5  7  1  0
  7 11  1  0
  7  8  1  0
  8  9  1  0
 10  9  1  0
 10 12  1  0
 11 10  1  0
 12 13  2  0
 12 16  1  0
 13 14  1  0
 14 15  2  0
 15 17  1  0
 16 15  1  0
 17 25  1  0
 18 17  1  0
 18 19  2  0
 19 20  1  0
 20 21  2  0
 21 26  1  0
 21 22  1  0
 23 22  2  0
 24 23  1  0
 25 20  1  0
 25 24  2  0
  1 27  1  0
  2 28  1  0
  3 29  1  0
  8 30  1  0
  8 31  1  0
  9 32  1  0
  9 33  1  0
 10 34  1  6
 11 35  1  0
 11 36  1  0
 13 37  1  0
 14 38  1  0
 18 39  1  0
 23 40  1  0
 26 41  1  0
 26 42  1  0
M  ISO  8  27  14  28  14  29  14  30  13  31  13  32  13  33  13  34  13
M  ISO  6  35  13  36  13  37  14  38  14  39  14  40  14
M  END
>  <minimizedAffinity>  (1) 
-6.22591639

>  <minimizedRMSD>  (1) 
2.48019576

$$$$
