
     RDKit          3D

 39 42  0  0  1  0  0  0  0  0999 V2000
   44.5890   35.6230   45.1110 C   0  0  0  0  0  0  0  0  0  0  0  0
   45.1060   35.4660   43.8020 C   0  0  0  0  0  0  0  0  0  0  0  0
   45.9030   34.3470   43.5440 C   0  0  0  0  0  0  0  0  0  0  0  0
   46.1500   33.4570   44.5550 N   0  0  0  0  0  0  0  0  0  0  0  0
   45.6350   33.6500   45.7870 C   0  0  0  0  0  0  0  0  0  0  0  0
   44.8600   34.7230   46.0690 N   0  0  0  0  0  0  0  0  0  0  0  0
   45.9360   32.6910   46.7750 N   0  0  0  0  0  0  0  0  0  0  0  0
   45.1010   32.2840   47.8680 C   0  0  0  0  0  0  0  0  0  0  0  0
   46.1150   31.9750   48.9260 C   0  0  0  0  0  0  0  0  0  0  0  0
   47.1230   31.1780   48.1430 C   0  0  1  0  0  0  0  0  0  0  0  0
   47.1930   31.9470   46.8250 C   0  0  0  0  0  0  0  0  0  0  0  0
   48.4060   31.2180   48.8530 C   0  0  0  0  0  0  0  0  0  0  0  0
   49.2380   32.3040   49.2580 C   0  0  0  0  0  0  0  0  0  0  0  0
   50.3920   31.9990   49.9060 C   0  0  0  0  0  0  0  0  0  0  0  0
   50.7260   30.6730   50.1530 C   0  0  0  0  0  0  0  0  0  0  0  0
   49.2730   29.7620   49.3980 S   0  0  0  0  0  0  0  0  0  0  0  0
   51.8430   30.0600   50.7950 C   0  0  0  0  0  0  0  0  0  0  0  0
   51.7380   29.2210   51.8560 C   0  0  0  0  0  0  0  0  0  0  0  0
   52.8800   28.6860   52.4000 C   0  0  0  0  0  0  0  0  0  0  0  0
   54.1340   28.9700   51.9060 C   0  0  0  0  0  0  0  0  0  0  0  0
   54.2350   29.8160   50.8360 C   0  0  0  0  0  0  0  0  0  0  0  0
   53.0990   30.3570   50.2850 C   0  0  0  0  0  0  0  0  0  0  0  0
   43.9578   36.4929   45.3454 H   0  0  0  0  0  0  0  0  0  0  0  0
   44.8874   36.2011   43.0135 H   0  0  0  0  0  0  0  0  0  0  0  0
   46.3262   34.1835   42.5419 H   0  0  0  0  0  0  0  0  0  0  0  0
   44.4281   33.0954   48.1823 H   0  0  0  0  0  0  0  0  0  0  0  0
   44.4330   31.4430   47.6305 H   0  0  0  0  0  0  0  0  0  0  0  0
   46.5595   32.8928   49.3383 H   0  0  0  0  0  0  0  0  0  0  0  0
   45.7069   31.4495   49.8020 H   0  0  0  0  0  0  0  0  0  0  0  0
   46.8721   30.1164   48.0013 H   0  0  0  0  0  0  0  0  0  0  0  0
   47.2705   31.2549   45.9735 H   0  0  0  0  0  0  0  0  0  0  0  0
   48.0733   32.6041   46.7675 H   0  0  0  0  0  0  0  0  0  0  0  0
   48.9559   33.3473   49.0535 H   0  0  0  0  0  0  0  0  0  0  0  0
   51.0645   32.8044   50.2364 H   0  0  0  0  0  0  0  0  0  0  0  0
   50.7517   28.9726   52.2748 H   0  0  0  0  0  0  0  0  0  0  0  0
   52.7900   28.0068   53.2605 H   0  0  0  0  0  0  0  0  0  0  0  0
   55.0323   28.5272   52.3609 H   0  0  0  0  0  0  0  0  0  0  0  0
   55.2223   30.0622   50.4183 H   0  0  0  0  0  0  0  0  0  0  0  0
   53.1863   31.0372   49.4249 H   0  0  0  0  0  0  0  0  0  0  0  0
  1  6  2  0
  2  1  1  0
  3  2  2  0
  3  4  1  0
  4  5  2  0
  5  6  1  0
  5  7  1  0
  7 11  1  0
  7  8  1  0
  8  9  1  0
 10 12  1  0
 10  9  1  0
 11 10  1  0
 12 13  2  0
 12 16  1  0
 13 14  1  0
 14 15  2  0
 15 17  1  0
 16 15  1  0
 17 18  2  0
 18 19  1  0
 20 19  2  0
 21 20  1  0
 22 17  1  0
 22 21  2  0
  1 23  1  0
  2 24  1  0
  3 25  1  0
  8 26  1  0
  8 27  1  0
  9 28  1  0
  9 29  1  0
 10 30  1  6
 11 31  1  0
 11 32  1  0
 13 33  1  0
 14 34  1  0
 18 35  1  0
 19 36  1  0
 20 37  1  0
 21 38  1  0
 22 39  1  0
M  ISO  8  23  14  24  14  25  14  26  13  27  13  28  13  29  13  30  13
M  ISO  8  31  13  32  13  33  14  34  14  35  14  36  14  37  14  38  14
M  ISO  1  39  14
M  END
>  <minimizedAffinity>  (1) 
-5.49491787

>  <minimizedRMSD>  (1) 
1.219203

$$$$
