
     RDKit          3D

 37 40  0  0  1  0  0  0  0  0999 V2000
   44.6270   35.7310   44.9290 C   0  0  0  0  0  0  0  0  0  0  0  0
   45.0060   35.4830   43.5880 C   0  0  0  0  0  0  0  0  0  0  0  0
   45.6620   34.2640   43.3290 C   0  0  0  0  0  0  0  0  0  0  0  0
   45.8970   33.4010   44.3570 N   0  0  0  0  0  0  0  0  0  0  0  0
   45.5170   33.6880   45.6120 C   0  0  0  0  0  0  0  0  0  0  0  0
   44.8800   34.8520   45.9030 N   0  0  0  0  0  0  0  0  0  0  0  0
   45.7970   32.7450   46.6100 N   0  0  0  0  0  0  0  0  0  0  0  0
   45.0170   32.4700   47.7850 C   0  0  0  0  0  0  0  0  0  0  0  0
   46.0770   32.0940   48.7810 C   0  0  0  0  0  0  0  0  0  0  0  0
   46.9200   31.1570   47.9620 C   0  0  1  0  0  0  0  0  0  0  0  0
   46.9640   31.8700   46.6070 C   0  0  0  0  0  0  0  0  0  0  0  0
   48.2530   31.0960   48.5710 C   0  0  0  0  0  0  0  0  0  0  0  0
   49.0690   32.0690   49.2190 C   0  0  0  0  0  0  0  0  0  0  0  0
   50.2870   31.6790   49.6570 C   0  0  0  0  0  0  0  0  0  0  0  0
   50.7120   30.3730   49.4750 C   0  0  0  0  0  0  0  0  0  0  0  0
   49.2520   29.6120   48.5980 S   0  0  0  0  0  0  0  0  0  0  0  0
   51.9550   29.6710   49.8360 C   0  0  0  0  0  0  0  0  0  0  0  0
   52.5260   28.7480   48.9850 C   0  0  0  0  0  0  0  0  0  0  0  0
   53.6880   28.1690   49.4510 C   0  0  0  0  0  0  0  0  0  0  0  0
   54.2200   28.4800   50.6440 N   0  0  0  0  0  0  0  0  0  0  0  0
   53.6290   29.3860   51.4440 C   0  0  0  0  0  0  0  0  0  0  0  0
   52.4750   29.9880   51.0230 N   0  0  0  0  0  0  0  0  0  0  0  0
   44.1113   36.6708   45.1755 H   0  0  0  0  0  0  0  0  0  0  0  0
   44.7982   36.2075   42.7868 H   0  0  0  0  0  0  0  0  0  0  0  0
   45.9814   34.0111   42.3072 H   0  0  0  0  0  0  0  0  0  0  0  0
   44.4588   33.3598   48.1117 H   0  0  0  0  0  0  0  0  0  0  0  0
   44.2508   31.6945   47.6379 H   0  0  0  0  0  0  0  0  0  0  0  0
   46.6521   32.9721   49.1099 H   0  0  0  0  0  0  0  0  0  0  0  0
   45.6891   31.6578   49.7134 H   0  0  0  0  0  0  0  0  0  0  0  0
   46.5486   30.1243   47.8876 H   0  0  0  0  0  0  0  0  0  0  0  0
   46.9013   31.1429   45.7840 H   0  0  0  0  0  0  0  0  0  0  0  0
   47.9011   32.4271   46.4605 H   0  0  0  0  0  0  0  0  0  0  0  0
   48.7192   33.1026   49.3579 H   0  0  0  0  0  0  0  0  0  0  0  0
   50.9445   32.4028   50.1608 H   0  0  0  0  0  0  0  0  0  0  0  0
   52.0880   28.4929   48.0087 H   0  0  0  0  0  0  0  0  0  0  0  0
   54.1979   27.4247   48.8218 H   0  0  0  0  0  0  0  0  0  0  0  0
   54.0668   29.6386   52.4210 H   0  0  0  0  0  0  0  0  0  0  0  0
  1  6  2  0
  2  1  1  0
  3  2  2  0
  3  4  1  0
  4  5  2  0
  5  6  1  0
  5  7  1  0
  7  8  1  0
  8  9  1  0
 10 12  1  0
 10  9  1  0
 11  7  1  0
 11 10  1  0
 12 16  1  0
 12 13  2  0
 13 14  1  0
 15 14  2  0
 15 17  1  0
 16 15  1  0
 17 22  2  0
 18 19  2  0
 18 17  1  0
 19 20  1  0
 20 21  2  0
 22 21  1  0
  1 23  1  0
  2 24  1  0
  3 25  1  0
  8 26  1  0
  8 27  1  0
  9 28  1  0
  9 29  1  0
 10 30  1  6
 11 31  1  0
 11 32  1  0
 13 33  1  0
 14 34  1  0
 18 35  1  0
 19 36  1  0
 21 37  1  0
M  ISO  8  23  14  24  14  25  14  26  13  27  13  28  13  29  13  30  13
M  ISO  7  31  13  32  13  33  14  34  14  35  14  36  14  37  14
M  END
>  <minimizedAffinity>  (1) 
-5.34125996

>  <minimizedRMSD>  (1) 
0.461389363

$$$$
