
     RDKit          3D

 36 39  0  0  1  0  0  0  0  0999 V2000
   44.6510   35.7200   44.9480 C   0  0  0  0  0  0  0  0  0  0  0  0
   45.0660   35.4880   43.6140 C   0  0  0  0  0  0  0  0  0  0  0  0
   45.7460   34.2820   43.3530 C   0  0  0  0  0  0  0  0  0  0  0  0
   45.9650   33.4120   44.3820 N   0  0  0  0  0  0  0  0  0  0  0  0
   45.5480   33.6840   45.6350 C   0  0  0  0  0  0  0  0  0  0  0  0
   44.8890   34.8360   45.9280 N   0  0  0  0  0  0  0  0  0  0  0  0
   45.8210   32.7290   46.6240 N   0  0  0  0  0  0  0  0  0  0  0  0
   45.0100   32.4340   47.7710 C   0  0  0  0  0  0  0  0  0  0  0  0
   46.0380   32.0340   48.7900 C   0  0  0  0  0  0  0  0  0  0  0  0
   46.9280   31.1390   47.9790 C   0  0  1  0  0  0  0  0  0  0  0  0
   46.9960   31.8720   46.6390 C   0  0  0  0  0  0  0  0  0  0  0  0
   48.2400   31.0820   48.6130 C   0  0  0  0  0  0  0  0  0  0  0  0
   49.0740   32.0730   49.2100 C   0  0  0  0  0  0  0  0  0  0  0  0
   50.2800   31.7050   49.7100 C   0  0  0  0  0  0  0  0  0  0  0  0
   50.6620   30.3750   49.6240 C   0  0  0  0  0  0  0  0  0  0  0  0
   49.2090   29.5940   48.7750 S   0  0  0  0  0  0  0  0  0  0  0  0
   51.7800   29.5910   49.9990 C   0  0  0  0  0  0  0  0  0  0  0  0
   52.0610   28.9830   51.1380 C   0  0  0  0  0  0  0  0  0  0  0  0
   53.2150   28.2590   51.3090 C   0  0  0  0  0  0  0  0  0  0  0  0
   54.0710   28.2240   50.1590 C   0  0  0  0  0  0  0  0  0  0  0  0
   53.1870   29.2080   48.9390 S   0  0  0  0  0  0  0  0  0  0  0  0
   44.1181   36.6521   45.1872 H   0  0  0  0  0  0  0  0  0  0  0  0
   44.8660   36.2181   42.8159 H   0  0  0  0  0  0  0  0  0  0  0  0
   46.0947   34.0453   42.3369 H   0  0  0  0  0  0  0  0  0  0  0  0
   44.4460   33.3195   48.0994 H   0  0  0  0  0  0  0  0  0  0  0  0
   44.2470   31.6634   47.5866 H   0  0  0  0  0  0  0  0  0  0  0  0
   46.5867   32.9075   49.1720 H   0  0  0  0  0  0  0  0  0  0  0  0
   45.6185   31.5563   49.6877 H   0  0  0  0  0  0  0  0  0  0  0  0
   46.5768   30.1013   47.8800 H   0  0  0  0  0  0  0  0  0  0  0  0
   46.9645   31.1566   45.8040 H   0  0  0  0  0  0  0  0  0  0  0  0
   47.9286   32.4442   46.5257 H   0  0  0  0  0  0  0  0  0  0  0  0
   48.7439   33.1209   49.2642 H   0  0  0  0  0  0  0  0  0  0  0  0
   50.9433   32.4488   50.1756 H   0  0  0  0  0  0  0  0  0  0  0  0
   51.3496   29.0591   51.9736 H   0  0  0  0  0  0  0  0  0  0  0  0
   53.4626   27.7477   52.2509 H   0  0  0  0  0  0  0  0  0  0  0  0
   55.0400   27.7153   50.0486 H   0  0  0  0  0  0  0  0  0  0  0  0
  1  6  2  0
  2  1  1  0
  3  2  2  0
  3  4  1  0
  4  5  2  0
  5  6  1  0
  5  7  1  0
  7 11  1  0
  7  8  1  0
  8  9  1  0
 10 12  1  0
 10  9  1  0
 11 10  1  0
 12 16  1  0
 12 13  2  0
 13 14  1  0
 15 14  2  0
 15 17  1  0
 16 15  1  0
 17 18  2  0
 18 19  1  0
 20 19  2  0
 21 17  1  0
 21 20  1  0
  1 22  1  0
  2 23  1  0
  3 24  1  0
  8 25  1  0
  8 26  1  0
  9 27  1  0
  9 28  1  0
 10 29  1  6
 11 30  1  0
 11 31  1  0
 13 32  1  0
 14 33  1  0
 18 34  1  0
 19 35  1  0
 20 36  1  0
M  ISO  8  22  14  23  14  24  14  25  13  26  13  27  13  28  13  29  13
M  ISO  7  30  13  31  13  32  14  33  14  34  14  35  14  36  14
M  END
>  <minimizedAffinity>  (1) 
-5.23227835

>  <minimizedRMSD>  (1) 
0.639954686

$$$$
