
     RDKit          3D

 36 39  0  0  1  0  0  0  0  0999 V2000
   44.6230   35.7480   44.8990 C   0  0  0  0  0  0  0  0  0  0  0  0
   44.9240   35.4490   43.5480 C   0  0  0  0  0  0  0  0  0  0  0  0
   45.5290   34.2060   43.2750 C   0  0  0  0  0  0  0  0  0  0  0  0
   45.7860   33.3720   44.3160 N   0  0  0  0  0  0  0  0  0  0  0  0
   45.4810   33.6970   45.5880 C   0  0  0  0  0  0  0  0  0  0  0  0
   44.9050   34.8740   45.8880 N   0  0  0  0  0  0  0  0  0  0  0  0
   45.7910   32.7610   46.5870 N   0  0  0  0  0  0  0  0  0  0  0  0
   45.0670   32.5500   47.8160 C   0  0  0  0  0  0  0  0  0  0  0  0
   46.1510   32.1200   48.7470 C   0  0  0  0  0  0  0  0  0  0  0  0
   46.9200   31.1490   47.8980 C   0  0  1  0  0  0  0  0  0  0  0  0
   46.9160   31.8360   46.5350 C   0  0  0  0  0  0  0  0  0  0  0  0
   48.2820   31.0470   48.4290 C   0  0  0  0  0  0  0  0  0  0  0  0
   49.0710   31.9120   49.2390 C   0  0  0  0  0  0  0  0  0  0  0  0
   50.3430   31.5230   49.5520 C   0  0  0  0  0  0  0  0  0  0  0  0
   50.8110   30.3100   49.0690 C   0  0  0  0  0  0  0  0  0  0  0  0
   49.3710   29.6480   48.1020 S   0  0  0  0  0  0  0  0  0  0  0  0
   52.0810   29.6100   49.2090 C   0  0  0  0  0  0  0  0  0  0  0  0
   52.6870   29.3870   50.5600 C   0  0  0  0  0  0  0  0  0  0  0  0
   53.2380   30.4370   49.5470 C   0  0  0  0  0  0  0  0  0  0  0  0
   44.1508   36.7101   45.1469 H   0  0  0  0  0  0  0  0  0  0  0  0
   44.6940   36.1608   42.7415 H   0  0  0  0  0  0  0  0  0  0  0  0
   45.7866   33.9183   42.2450 H   0  0  0  0  0  0  0  0  0  0  0  0
   44.5883   33.4780   48.1619 H   0  0  0  0  0  0  0  0  0  0  0  0
   44.2458   31.8236   47.7270 H   0  0  0  0  0  0  0  0  0  0  0  0
   46.7788   32.9708   49.0506 H   0  0  0  0  0  0  0  0  0  0  0  0
   45.7828   31.6912   49.6907 H   0  0  0  0  0  0  0  0  0  0  0  0
   46.5084   30.1295   47.8635 H   0  0  0  0  0  0  0  0  0  0  0  0
   46.7750   31.0994   45.7303 H   0  0  0  0  0  0  0  0  0  0  0  0
   47.8661   32.3495   46.3263 H   0  0  0  0  0  0  0  0  0  0  0  0
   48.6673   32.8682   49.6033 H   0  0  0  0  0  0  0  0  0  0  0  0
   50.9851   32.1613   50.1767 H   0  0  0  0  0  0  0  0  0  0  0  0
   51.8278   28.9097   48.3994 H   0  0  0  0  0  0  0  0  0  0  0  0
   52.1592   29.7120   51.4687 H   0  0  0  0  0  0  0  0  0  0  0  0
   53.0943   28.5300   51.1164 H   0  0  0  0  0  0  0  0  0  0  0  0
   54.2027   30.2675   49.0464 H   0  0  0  0  0  0  0  0  0  0  0  0
   53.4456   31.5169   49.5755 H   0  0  0  0  0  0  0  0  0  0  0  0
  1  6  2  0
  2  1  1  0
  3  2  2  0
  3  4  1  0
  4  5  2  0
  5  6  1  0
  5  7  1  0
  7  8  1  0
  8  9  1  0
 10 12  1  0
 10  9  1  0
 11  7  1  0
 11 10  1  0
 12 13  2  0
 13 14  1  0
 15 17  1  0
 15 14  2  0
 16 12  1  0
 16 15  1  0
 17 19  1  0
 17 18  1  0
 19 18  1  0
  1 20  1  0
  2 21  1  0
  3 22  1  0
  8 23  1  0
  8 24  1  0
  9 25  1  0
  9 26  1  0
 10 27  1  6
 11 28  1  0
 11 29  1  0
 13 30  1  0
 14 31  1  0
 17 32  1  0
 18 33  1  0
 18 34  1  0
 19 35  1  0
 19 36  1  0
M  ISO  8  20  14  21  14  22  14  23  13  24  13  25  13  26  13  27  13
M  ISO  8  28  13  29  13  30  14  31  14  32  13  33  13  34  13  35  13
M  ISO  1  36  13
M  END
>  <minimizedAffinity>  (1) 
-5.08171511

>  <minimizedRMSD>  (1) 
0.667992949

$$$$
