
     RDKit          3D

 32 34  0  0  1  0  0  0  0  0999 V2000
   44.6220   35.7400   44.9020 C   0  0  0  0  0  0  0  0  0  0  0  0
   44.9410   35.4450   43.5550 C   0  0  0  0  0  0  0  0  0  0  0  0
   45.5510   34.2230   43.2890 C   0  0  0  0  0  0  0  0  0  0  0  0
   45.8140   33.3660   44.3290 N   0  0  0  0  0  0  0  0  0  0  0  0
   45.4920   33.6910   45.5960 C   0  0  0  0  0  0  0  0  0  0  0  0
   44.8960   34.8760   45.8880 N   0  0  0  0  0  0  0  0  0  0  0  0
   45.7980   32.7600   46.5970 N   0  0  0  0  0  0  0  0  0  0  0  0
   45.0570   32.5230   47.8060 C   0  0  0  0  0  0  0  0  0  0  0  0
   46.1400   32.1260   48.7590 C   0  0  0  0  0  0  0  0  0  0  0  0
   46.9490   31.1760   47.9220 C   0  0  1  0  0  0  0  0  0  0  0  0
   46.9510   31.8640   46.5570 C   0  0  0  0  0  0  0  0  0  0  0  0
   48.3000   31.0920   48.4800 C   0  0  0  0  0  0  0  0  0  0  0  0
   49.0850   32.0070   49.2400 C   0  0  0  0  0  0  0  0  0  0  0  0
   50.3320   31.6260   49.6040 C   0  0  0  0  0  0  0  0  0  0  0  0
   50.8020   30.3750   49.2330 C   0  0  0  0  0  0  0  0  0  0  0  0
   49.3460   29.6600   48.2750 S   0  0  0  0  0  0  0  0  0  0  0  0
   52.0750   29.6740   49.4630 C   0  0  0  0  0  0  0  0  0  0  0  0
   52.7800   30.3410   50.4470 F   0  0  0  0  0  0  0  0  0  0  0  0
   52.8210   29.4990   48.3180 F   0  0  0  0  0  0  0  0  0  0  0  0
   51.7850   28.4020   49.9620 F   0  0  0  0  0  0  0  0  0  0  0  0
   44.1392   36.6983   45.1440 H   0  0  0  0  0  0  0  0  0  0  0  0
   44.7147   36.1565   42.7471 H   0  0  0  0  0  0  0  0  0  0  0  0
   45.8192   33.9470   42.2585 H   0  0  0  0  0  0  0  0  0  0  0  0
   44.5408   33.4337   48.1439 H   0  0  0  0  0  0  0  0  0  0  0  0
   44.2612   31.7711   47.6994 H   0  0  0  0  0  0  0  0  0  0  0  0
   46.7382   32.9949   49.0708 H   0  0  0  0  0  0  0  0  0  0  0  0
   45.7702   31.6896   49.6986 H   0  0  0  0  0  0  0  0  0  0  0  0
   46.5620   30.1473   47.8766 H   0  0  0  0  0  0  0  0  0  0  0  0
   46.8415   31.1254   45.7492 H   0  0  0  0  0  0  0  0  0  0  0  0
   47.8909   32.4006   46.3606 H   0  0  0  0  0  0  0  0  0  0  0  0
   48.6893   32.9937   49.5225 H   0  0  0  0  0  0  0  0  0  0  0  0
   50.9687   32.3046   50.1906 H   0  0  0  0  0  0  0  0  0  0  0  0
  1  6  2  0
  2  1  1  0
  3  2  2  0
  3  4  1  0
  4  5  2  0
  5  6  1  0
  5  7  1  0
  7  8  1  0
  8  9  1  0
 10 12  1  0
 10  9  1  0
 11  7  1  0
 11 10  1  0
 12 13  2  0
 13 14  1  0
 15 17  1  0
 15 14  2  0
 16 12  1  0
 16 15  1  0
 17 20  1  0
 17 18  1  0
 19 17  1  0
  1 21  1  0
  2 22  1  0
  3 23  1  0
  8 24  1  0
  8 25  1  0
  9 26  1  0
  9 27  1  0
 10 28  1  6
 11 29  1  0
 11 30  1  0
 13 31  1  0
 14 32  1  0
M  ISO  8  21  14  22  14  23  14  24  13  25  13  26  13  27  13  28  13
M  ISO  4  29  13  30  13  31  14  32  14
M  END
>  <minimizedAffinity>  (1) 
-5.14967537

>  <minimizedRMSD>  (1) 
0.141600758

$$$$
