
     RDKit          3D

 30 32  0  0  1  0  0  0  0  0999 V2000
   44.6310   35.7410   44.9070 C   0  0  0  0  0  0  0  0  0  0  0  0
   44.9300   35.4520   43.5550 C   0  0  0  0  0  0  0  0  0  0  0  0
   45.5310   34.2070   43.2800 C   0  0  0  0  0  0  0  0  0  0  0  0
   45.7880   33.3610   44.3140 N   0  0  0  0  0  0  0  0  0  0  0  0
   45.4860   33.6810   45.5870 C   0  0  0  0  0  0  0  0  0  0  0  0
   44.9070   34.8730   45.8850 N   0  0  0  0  0  0  0  0  0  0  0  0
   45.7870   32.7550   46.5920 N   0  0  0  0  0  0  0  0  0  0  0  0
   45.0730   32.5350   47.8170 C   0  0  0  0  0  0  0  0  0  0  0  0
   46.1680   32.1210   48.7470 C   0  0  0  0  0  0  0  0  0  0  0  0
   46.9480   31.1580   47.8990 C   0  0  1  0  0  0  0  0  0  0  0  0
   46.9290   31.8360   46.5320 C   0  0  0  0  0  0  0  0  0  0  0  0
   48.3050   31.0560   48.4320 C   0  0  0  0  0  0  0  0  0  0  0  0
   49.0840   31.9270   49.2450 C   0  0  0  0  0  0  0  0  0  0  0  0
   50.3500   31.5250   49.5620 C   0  0  0  0  0  0  0  0  0  0  0  0
   50.8300   30.3080   49.0910 C   0  0  0  0  0  0  0  0  0  0  0  0
   49.3630   29.6500   48.1010 S   0  0  0  0  0  0  0  0  0  0  0  0
   52.3110   29.4800   49.2640 S   0  0  0  0  0  0  0  0  0  0  0  0
   44.1603   36.7027   45.1593 H   0  0  0  0  0  0  0  0  0  0  0  0
   44.7031   36.1687   42.7520 H   0  0  0  0  0  0  0  0  0  0  0  0
   45.7875   33.9246   42.2483 H   0  0  0  0  0  0  0  0  0  0  0  0
   44.5814   33.4560   48.1637 H   0  0  0  0  0  0  0  0  0  0  0  0
   44.2625   31.7964   47.7306 H   0  0  0  0  0  0  0  0  0  0  0  0
   46.7851   32.9810   49.0462 H   0  0  0  0  0  0  0  0  0  0  0  0
   45.8082   31.6894   49.6927 H   0  0  0  0  0  0  0  0  0  0  0  0
   46.5481   30.1338   47.8651 H   0  0  0  0  0  0  0  0  0  0  0  0
   46.7890   31.0939   45.7322 H   0  0  0  0  0  0  0  0  0  0  0  0
   47.8726   32.3562   46.3106 H   0  0  0  0  0  0  0  0  0  0  0  0
   48.6820   32.8860   49.6037 H   0  0  0  0  0  0  0  0  0  0  0  0
   50.9894   32.1634   50.1894 H   0  0  0  0  0  0  0  0  0  0  0  0
   52.5932   29.3222   50.5953 H   0  0  0  0  0  0  0  0  0  0  0  0
  1  6  2  0
  2  1  1  0
  3  2  2  0
  3  4  1  0
  4  5  2  0
  5  6  1  0
  5  7  1  0
  7  8  1  0
  8  9  1  0
 10 12  1  0
 10  9  1  0
 11  7  1  0
 11 10  1  0
 12 13  2  0
 13 14  1  0
 15 17  1  0
 15 14  2  0
 16 12  1  0
 16 15  1  0
  1 18  1  0
  2 19  1  0
  3 20  1  0
  8 21  1  0
  8 22  1  0
  9 23  1  0
  9 24  1  0
 10 25  1  6
 11 26  1  0
 11 27  1  0
 13 28  1  0
 14 29  1  0
 17 30  1  0
M  ISO  8  18  14  19  14  20  14  21  13  22  13  23  13  24  13  25  13
M  ISO  5  26  13  27  13  28  14  29  14  30  11
M  END
>  <minimizedAffinity>  (1) 
-5.05753469

>  <minimizedRMSD>  (1) 
0.0232805051

$$$$
