
     RDKit          3D

 31 33  0  0  1  0  0  0  0  0999 V2000
   44.6280   35.7340   44.9100 C   0  0  0  0  0  0  0  0  0  0  0  0
   44.9420   35.4490   43.5600 C   0  0  0  0  0  0  0  0  0  0  0  0
   45.5580   34.2100   43.2930 C   0  0  0  0  0  0  0  0  0  0  0  0
   45.8160   33.3620   44.3300 N   0  0  0  0  0  0  0  0  0  0  0  0
   45.4960   33.6830   45.5950 C   0  0  0  0  0  0  0  0  0  0  0  0
   44.9010   34.8680   45.8930 N   0  0  0  0  0  0  0  0  0  0  0  0
   45.7970   32.7550   46.5960 N   0  0  0  0  0  0  0  0  0  0  0  0
   45.0600   32.5160   47.8060 C   0  0  0  0  0  0  0  0  0  0  0  0
   46.1500   32.1230   48.7620 C   0  0  0  0  0  0  0  0  0  0  0  0
   46.9430   31.1630   47.9240 C   0  0  1  0  0  0  0  0  0  0  0  0
   46.9510   31.8550   46.5570 C   0  0  0  0  0  0  0  0  0  0  0  0
   48.2960   31.0850   48.4800 C   0  0  0  0  0  0  0  0  0  0  0  0
   49.0900   31.9940   49.2360 C   0  0  0  0  0  0  0  0  0  0  0  0
   50.3370   31.5900   49.5830 C   0  0  0  0  0  0  0  0  0  0  0  0
   50.8140   30.3410   49.2150 C   0  0  0  0  0  0  0  0  0  0  0  0
   49.3430   29.6460   48.2680 S   0  0  0  0  0  0  0  0  0  0  0  0
   51.9760   29.6040   49.3740 C   0  0  0  0  0  0  0  0  0  0  0  0
   52.5870   29.6040   50.4730 O   0  0  0  0  0  0  0  0  0  0  0  0
   44.1472   36.6919   45.1577 H   0  0  0  0  0  0  0  0  0  0  0  0
   44.7153   36.1630   42.7546 H   0  0  0  0  0  0  0  0  0  0  0  0
   45.8268   33.9307   42.2636 H   0  0  0  0  0  0  0  0  0  0  0  0
   44.5404   33.4248   48.1438 H   0  0  0  0  0  0  0  0  0  0  0  0
   44.2677   31.7602   47.7012 H   0  0  0  0  0  0  0  0  0  0  0  0
   46.7553   32.9912   49.0617 H   0  0  0  0  0  0  0  0  0  0  0  0
   45.7870   31.7001   49.7104 H   0  0  0  0  0  0  0  0  0  0  0  0
   46.5474   30.1376   47.8789 H   0  0  0  0  0  0  0  0  0  0  0  0
   46.8425   31.1182   45.7474 H   0  0  0  0  0  0  0  0  0  0  0  0
   47.8927   32.3898   46.3640 H   0  0  0  0  0  0  0  0  0  0  0  0
   48.7073   32.9835   49.5266 H   0  0  0  0  0  0  0  0  0  0  0  0
   50.9811   32.2644   50.1663 H   0  0  0  0  0  0  0  0  0  0  0  0
   52.3674   29.0140   48.5321 H   0  0  0  0  0  0  0  0  0  0  0  0
  1  6  2  0
  2  1  1  0
  3  2  2  0
  3  4  1  0
  4  5  2  0
  5  6  1  0
  5  7  1  0
  7  8  1  0
  8  9  1  0
 10 12  1  0
 10  9  1  0
 11  7  1  0
 11 10  1  0
 12 13  2  0
 13 14  1  0
 15 17  1  0
 15 14  2  0
 16 12  1  0
 16 15  1  0
 17 18  2  0
  1 19  1  0
  2 20  1  0
  3 21  1  0
  8 22  1  0
  8 23  1  0
  9 24  1  0
  9 25  1  0
 10 26  1  6
 11 27  1  0
 11 28  1  0
 13 29  1  0
 14 30  1  0
 17 31  1  0
M  ISO  8  19  14  20  14  21  14  22  13  23  13  24  13  25  13  26  13
M  ISO  5  27  13  28  13  29  14  30  14  31   6
M  END
>  <minimizedAffinity>  (1) 
-4.91131115

>  <minimizedRMSD>  (1) 
0.140880927

$$$$
