
     RDKit          3D

 45 49  0  0  1  0  0  0  0  0999 V2000
   48.2710   31.4480   48.8520 C   0  0  0  0  0  0  0  0  0  0  0  0
   49.1930   32.4970   49.0570 C   0  0  0  0  0  0  0  0  0  0  0  0
   50.3050   32.2550   49.8260 C   0  0  0  0  0  0  0  0  0  0  0  0
   50.4660   30.9910   50.3600 C   0  0  0  0  0  0  0  0  0  0  0  0
   48.9550   30.0710   49.7480 S   0  0  0  0  0  0  0  0  0  0  0  0
   44.5720   35.7930   44.9270 C   0  0  0  0  0  0  0  0  0  0  0  0
   45.1530   35.6420   43.6470 C   0  0  0  0  0  0  0  0  0  0  0  0
   45.9890   34.5190   43.4160 C   0  0  0  0  0  0  0  0  0  0  0  0
   46.1900   33.6370   44.4480 N   0  0  0  0  0  0  0  0  0  0  0  0
   45.6120   33.8280   45.6500 C   0  0  0  0  0  0  0  0  0  0  0  0
   44.8030   34.9010   45.9030 N   0  0  0  0  0  0  0  0  0  0  0  0
   45.8740   32.8760   46.6510 N   0  0  0  0  0  0  0  0  0  0  0  0
   44.9990   32.4210   47.6820 C   0  0  0  0  0  0  0  0  0  0  0  0
   45.9610   32.1510   48.8080 C   0  0  0  0  0  0  0  0  0  0  0  0
   47.0230   31.3970   48.0950 C   0  0  1  0  0  0  0  0  0  0  0  0
   47.1550   32.1870   46.7780 C   0  0  0  0  0  0  0  0  0  0  0  0
   51.5050   30.4810   51.1740 N   0  0  0  0  0  0  0  0  0  0  0  0
   52.2340   29.4020   51.0150 C   0  0  0  0  0  0  0  0  0  0  0  0
   53.1090   29.2540   52.0160 N   0  0  0  0  0  0  0  0  0  0  0  0
   52.9180   30.2990   52.8480 C   0  0  0  0  0  0  0  0  0  0  0  0
   51.9110   31.0630   52.3110 N   0  0  0  0  0  0  0  0  0  0  0  0
   53.6220   30.5850   54.0730 N   0  0  0  0  0  0  0  0  0  0  0  0
   54.9570   30.4420   54.0540 C   0  0  0  0  0  0  0  0  0  0  0  0
   55.6660   30.7130   55.2300 C   0  0  0  0  0  0  0  0  0  0  0  0
   54.8910   31.1040   56.2980 C   0  0  0  0  0  0  0  0  0  0  0  0
   55.4970   31.3600   57.3870 O   0  0  0  0  0  0  0  0  0  0  0  0
   53.5520   31.2460   56.3140 N   0  0  0  0  0  0  0  0  0  0  0  0
   52.9110   30.9690   55.1440 C   0  0  0  0  0  0  0  0  0  0  0  0
   51.6600   31.0910   55.1220 O   0  0  0  0  0  0  0  0  0  0  0  0
   49.0244   33.4879   48.6101 H   0  0  0  0  0  0  0  0  0  0  0  0
   51.0469   33.0457   50.0116 H   0  0  0  0  0  0  0  0  0  0  0  0
   43.9197   36.6560   45.1264 H   0  0  0  0  0  0  0  0  0  0  0  0
   44.9619   36.3763   42.8506 H   0  0  0  0  0  0  0  0  0  0  0  0
   46.4631   34.3597   42.4363 H   0  0  0  0  0  0  0  0  0  0  0  0
   44.2680   33.1955   47.9572 H   0  0  0  0  0  0  0  0  0  0  0  0
   44.3916   31.5492   47.3973 H   0  0  0  0  0  0  0  0  0  0  0  0
   46.3492   33.0847   49.2410 H   0  0  0  0  0  0  0  0  0  0  0  0
   45.5211   31.6175   49.6635 H   0  0  0  0  0  0  0  0  0  0  0  0
   46.7957   30.3306   47.9494 H   0  0  0  0  0  0  0  0  0  0  0  0
   47.3195   31.5073   45.9289 H   0  0  0  0  0  0  0  0  0  0  0  0
   48.0100   32.8791   46.7827 H   0  0  0  0  0  0  0  0  0  0  0  0
   52.1381   28.7078   50.1671 H   0  0  0  0  0  0  0  0  0  0  0  0
   55.4786   30.1210   53.1403 H   0  0  0  0  0  0  0  0  0  0  0  0
   56.7601   30.6204   55.2957 H   0  0  0  0  0  0  0  0  0  0  0  0
   53.0438   31.5455   57.1584 H   0  0  0  0  0  0  0  0  0  0  0  0
  1  2  2  0
  1  5  1  0
  2  3  1  0
  3  4  2  0
  4 17  1  0
  5  4  1  0
  6 11  2  0
  7  6  1  0
  8  7  2  0
  8  9  1  0
  9 10  2  0
 10 11  1  0
 10 12  1  0
 12 16  1  0
 12 13  1  0
 13 14  1  0
 15 14  1  0
 15  1  1  0
 16 15  1  0
 17 21  1  0
 18 17  1  0
 18 19  2  0
 19 20  1  0
 20 22  1  0
 21 20  2  0
 22 28  1  0
 23 22  1  0
 23 24  2  0
 24 25  1  0
 25 27  1  0
 25 26  2  0
 28 27  1  0
 29 28  2  0
  2 30  1  0
  3 31  1  0
  6 32  1  0
  7 33  1  0
  8 34  1  0
 13 35  1  0
 13 36  1  0
 14 37  1  0
 14 38  1  0
 15 39  1  6
 16 40  1  0
 16 41  1  0
 18 42  1  0
 23 43  1  0
 24 44  1  0
 27 45  1  0
M  ISO  8  30  14  31  14  32  14  33  14  34  14  35  13  36  13  37  13
M  ISO  8  38  13  39  13  40  13  41  13  42  14  43  14  44  14  45   9
M  END
>  <minimizedAffinity>  (1) 
-7.35045528

>  <minimizedRMSD>  (1) 
2.71389627

$$$$
