
     RDKit          3D

 42 46  0  0  1  0  0  0  0  0999 V2000
   44.5510   35.5850   45.0890 C   0  0  0  0  0  0  0  0  0  0  0  0
   45.1050   35.4370   43.7950 C   0  0  0  0  0  0  0  0  0  0  0  0
   45.9710   34.3380   43.5620 C   0  0  0  0  0  0  0  0  0  0  0  0
   46.2260   33.4800   44.5990 N   0  0  0  0  0  0  0  0  0  0  0  0
   45.6750   33.6650   45.8110 C   0  0  0  0  0  0  0  0  0  0  0  0
   44.8350   34.7140   46.0690 N   0  0  0  0  0  0  0  0  0  0  0  0
   45.9960   32.7300   46.8200 N   0  0  0  0  0  0  0  0  0  0  0  0
   45.1510   32.2650   47.8710 C   0  0  0  0  0  0  0  0  0  0  0  0
   46.1450   32.0310   48.9780 C   0  0  0  0  0  0  0  0  0  0  0  0
   47.2150   31.3010   48.2470 C   0  0  1  0  0  0  0  0  0  0  0  0
   47.2930   32.0910   46.9240 C   0  0  0  0  0  0  0  0  0  0  0  0
   48.4780   31.4150   48.9790 C   0  0  0  0  0  0  0  0  0  0  0  0
   49.3510   32.5020   49.1920 C   0  0  0  0  0  0  0  0  0  0  0  0
   50.4870   32.2980   49.9300 C   0  0  0  0  0  0  0  0  0  0  0  0
   50.7230   31.0340   50.4310 C   0  0  0  0  0  0  0  0  0  0  0  0
   49.2520   30.0500   49.8300 S   0  0  0  0  0  0  0  0  0  0  0  0
   51.8100   30.5630   51.2230 N   0  0  0  0  0  0  0  0  0  0  0  0
   52.7190   29.6670   50.9180 C   0  0  0  0  0  0  0  0  0  0  0  0
   53.5630   29.4970   51.9600 N   0  0  0  0  0  0  0  0  0  0  0  0
   53.1570   30.3140   52.9340 C   0  0  0  0  0  0  0  0  0  0  0  0
   52.0520   30.9860   52.4650 N   0  0  0  0  0  0  0  0  0  0  0  0
   53.7080   30.5300   54.2710 C   0  0  0  0  0  0  0  0  0  0  0  0
   54.9990   30.1790   54.6310 C   0  0  0  0  0  0  0  0  0  0  0  0
   55.0670   30.5670   55.9640 C   0  0  0  0  0  0  0  0  0  0  0  0
   53.8900   31.1160   56.3720 N   0  0  0  0  0  0  0  0  0  0  0  0
   53.0650   31.0840   55.3170 N   0  0  0  0  0  0  0  0  0  0  0  0
   43.8759   36.4288   45.2947 H   0  0  0  0  0  0  0  0  0  0  0  0
   44.8709   36.1532   42.9936 H   0  0  0  0  0  0  0  0  0  0  0  0
   46.4264   34.1787   42.5734 H   0  0  0  0  0  0  0  0  0  0  0  0
   44.4070   33.0244   48.1535 H   0  0  0  0  0  0  0  0  0  0  0  0
   44.5571   31.3773   47.6080 H   0  0  0  0  0  0  0  0  0  0  0  0
   46.5152   32.9788   49.3958 H   0  0  0  0  0  0  0  0  0  0  0  0
   45.7389   31.4914   49.8463 H   0  0  0  0  0  0  0  0  0  0  0  0
   47.0223   30.2262   48.1138 H   0  0  0  0  0  0  0  0  0  0  0  0
   47.4647   31.4142   46.0740 H   0  0  0  0  0  0  0  0  0  0  0  0
   48.1229   32.8129   46.9103 H   0  0  0  0  0  0  0  0  0  0  0  0
   49.1243   33.4939   48.7739 H   0  0  0  0  0  0  0  0  0  0  0  0
   51.1928   33.1204   50.1184 H   0  0  0  0  0  0  0  0  0  0  0  0
   52.7843   29.1340   49.9580 H   0  0  0  0  0  0  0  0  0  0  0  0
   55.7786   29.7088   54.0136 H   0  0  0  0  0  0  0  0  0  0  0  0
   55.9536   30.4465   56.6039 H   0  0  0  0  0  0  0  0  0  0  0  0
   53.6755   31.4844   57.3096 H   0  0  0  0  0  0  0  0  0  0  0  0
  1  6  2  0
  2  1  1  0
  3  2  2  0
  3  4  1  0
  4  5  2  0
  5  6  1  0
  5  7  1  0
  7 11  1  0
  7  8  1  0
  8  9  1  0
 10  9  1  0
 10 12  1  0
 11 10  1  0
 12 13  2  0
 12 16  1  0
 13 14  1  0
 14 15  2  0
 15 17  1  0
 16 15  1  0
 17 21  1  0
 18 17  1  0
 18 19  2  0
 19 20  1  0
 20 22  1  0
 21 20  2  0
 22 23  1  0
 22 26  2  0
 23 24  2  0
 24 25  1  0
 26 25  1  0
  1 27  1  0
  2 28  1  0
  3 29  1  0
  8 30  1  0
  8 31  1  0
  9 32  1  0
  9 33  1  0
 10 34  1  6
 11 35  1  0
 11 36  1  0
 13 37  1  0
 14 38  1  0
 18 39  1  0
 23 40  1  0
 24 41  1  0
 25 42  1  0
M  ISO  8  27  14  28  14  29  14  30  13  31  13  32  13  33  13  34  13
M  ISO  8  35  13  36  13  37  14  38  14  39  14  40  14  41  14  42   9
M  END
>  <minimizedAffinity>  (1) 
-6.37509108

>  <minimizedRMSD>  (1) 
2.41509151

$$$$
