
     RDKit          3D

 42 46  0  0  1  0  0  0  0  0999 V2000
   44.5770   35.5750   45.1210 C   0  0  0  0  0  0  0  0  0  0  0  0
   45.1520   35.4590   43.8340 C   0  0  0  0  0  0  0  0  0  0  0  0
   46.0310   34.3680   43.5970 C   0  0  0  0  0  0  0  0  0  0  0  0
   46.2770   33.4890   44.6160 N   0  0  0  0  0  0  0  0  0  0  0  0
   45.6990   33.6480   45.8320 C   0  0  0  0  0  0  0  0  0  0  0  0
   44.8490   34.6890   46.0890 N   0  0  0  0  0  0  0  0  0  0  0  0
   46.0030   32.7060   46.8220 N   0  0  0  0  0  0  0  0  0  0  0  0
   45.1430   32.2240   47.8560 C   0  0  0  0  0  0  0  0  0  0  0  0
   46.1150   31.9590   48.9730 C   0  0  0  0  0  0  0  0  0  0  0  0
   47.2000   31.2530   48.2470 C   0  0  1  0  0  0  0  0  0  0  0  0
   47.3040   32.0580   46.9320 C   0  0  0  0  0  0  0  0  0  0  0  0
   48.4490   31.3400   49.0020 C   0  0  0  0  0  0  0  0  0  0  0  0
   49.3390   32.4120   49.2170 C   0  0  0  0  0  0  0  0  0  0  0  0
   50.4590   32.1910   49.9770 C   0  0  0  0  0  0  0  0  0  0  0  0
   50.6600   30.9280   50.4940 C   0  0  0  0  0  0  0  0  0  0  0  0
   49.1820   29.9790   49.8780 S   0  0  0  0  0  0  0  0  0  0  0  0
   51.7220   30.4420   51.3000 N   0  0  0  0  0  0  0  0  0  0  0  0
   52.4990   29.4030   51.1080 C   0  0  0  0  0  0  0  0  0  0  0  0
   53.3870   29.2790   52.1050 N   0  0  0  0  0  0  0  0  0  0  0  0
   53.1530   30.2890   52.9570 C   0  0  0  0  0  0  0  0  0  0  0  0
   52.1110   31.0200   52.4570 N   0  0  0  0  0  0  0  0  0  0  0  0
   53.8650   30.5480   54.1640 N   0  0  0  0  0  0  0  0  0  0  0  0
   53.1950   31.3790   54.9730 N   0  0  0  0  0  0  0  0  0  0  0  0
   53.8740   31.6100   56.0950 C   0  0  0  0  0  0  0  0  0  0  0  0
   55.0380   30.8850   55.9920 C   0  0  0  0  0  0  0  0  0  0  0  0
   55.0180   30.2270   54.7810 C   0  0  0  0  0  0  0  0  0  0  0  0
   43.8923   36.4098   45.3318 H   0  0  0  0  0  0  0  0  0  0  0  0
   44.9262   36.1891   43.0428 H   0  0  0  0  0  0  0  0  0  0  0  0
   46.5044   34.2328   42.6133 H   0  0  0  0  0  0  0  0  0  0  0  0
   44.4003   32.9825   48.1441 H   0  0  0  0  0  0  0  0  0  0  0  0
   44.5504   31.3440   47.5657 H   0  0  0  0  0  0  0  0  0  0  0  0
   46.4748   32.8950   49.4253 H   0  0  0  0  0  0  0  0  0  0  0  0
   45.6919   31.3927   49.8158 H   0  0  0  0  0  0  0  0  0  0  0  0
   47.0067   30.1815   48.0901 H   0  0  0  0  0  0  0  0  0  0  0  0
   47.4838   31.3906   46.0763 H   0  0  0  0  0  0  0  0  0  0  0  0
   48.1390   32.7741   46.9346 H   0  0  0  0  0  0  0  0  0  0  0  0
   49.1395   33.4037   48.7848 H   0  0  0  0  0  0  0  0  0  0  0  0
   51.1787   33.0003   50.1694 H   0  0  0  0  0  0  0  0  0  0  0  0
   52.4313   28.7244   50.2449 H   0  0  0  0  0  0  0  0  0  0  0  0
   53.5661   32.2510   56.9343 H   0  0  0  0  0  0  0  0  0  0  0  0
   55.8414   30.8385   56.7419 H   0  0  0  0  0  0  0  0  0  0  0  0
   55.8012   29.5610   54.3899 H   0  0  0  0  0  0  0  0  0  0  0  0
  1  6  2  0
  2  1  1  0
  3  2  2  0
  3  4  1  0
  4  5  2  0
  5  6  1  0
  5  7  1  0
  7 11  1  0
  7  8  1  0
  8  9  1  0
 10  9  1  0
 10 12  1  0
 11 10  1  0
 12 13  2  0
 12 16  1  0
 13 14  1  0
 14 15  2  0
 15 17  1  0
 16 15  1  0
 17 21  1  0
 18 17  1  0
 18 19  2  0
 19 20  1  0
 20 22  1  0
 21 20  2  0
 22 26  1  0
 22 23  1  0
 23 24  2  0
 25 24  1  0
 26 25  2  0
  1 27  1  0
  2 28  1  0
  3 29  1  0
  8 30  1  0
  8 31  1  0
  9 32  1  0
  9 33  1  0
 10 34  1  6
 11 35  1  0
 11 36  1  0
 13 37  1  0
 14 38  1  0
 18 39  1  0
 24 40  1  0
 25 41  1  0
 26 42  1  0
M  ISO  8  27  14  28  14  29  14  30  13  31  13  32  13  33  13  34  13
M  ISO  8  35  13  36  13  37  14  38  14  39  14  40  14  41  14  42  14
M  END
>  <minimizedAffinity>  (1) 
-6.44342422

>  <minimizedRMSD>  (1) 
2.30385494

$$$$
