
     RDKit          3D

 50 54  0  0  1  0  0  0  0  0999 V2000
   44.5950   35.6030   45.1230 C   0  0  0  0  0  0  0  0  0  0  0  0
   45.1760   35.4870   43.8390 C   0  0  0  0  0  0  0  0  0  0  0  0
   46.0420   34.3890   43.5900 C   0  0  0  0  0  0  0  0  0  0  0  0
   46.2660   33.5010   44.6070 N   0  0  0  0  0  0  0  0  0  0  0  0
   45.6890   33.6510   45.8150 C   0  0  0  0  0  0  0  0  0  0  0  0
   44.8530   34.6990   46.0810 N   0  0  0  0  0  0  0  0  0  0  0  0
   45.9710   32.6950   46.8130 N   0  0  0  0  0  0  0  0  0  0  0  0
   45.1070   32.2200   47.8420 C   0  0  0  0  0  0  0  0  0  0  0  0
   46.0730   31.9260   48.9470 C   0  0  0  0  0  0  0  0  0  0  0  0
   47.1530   31.2150   48.2190 C   0  0  1  0  0  0  0  0  0  0  0  0
   47.2710   32.0340   46.9140 C   0  0  0  0  0  0  0  0  0  0  0  0
   48.4020   31.2900   48.9840 C   0  0  0  0  0  0  0  0  0  0  0  0
   49.3040   32.3460   49.2090 C   0  0  0  0  0  0  0  0  0  0  0  0
   50.4140   32.1050   49.9750 C   0  0  0  0  0  0  0  0  0  0  0  0
   50.5970   30.8400   50.4880 C   0  0  0  0  0  0  0  0  0  0  0  0
   49.1080   29.9120   49.8570 S   0  0  0  0  0  0  0  0  0  0  0  0
   51.6460   30.3320   51.2940 N   0  0  0  0  0  0  0  0  0  0  0  0
   52.1980   29.1430   51.2920 C   0  0  0  0  0  0  0  0  0  0  0  0
   53.1730   29.0700   52.2220 N   0  0  0  0  0  0  0  0  0  0  0  0
   53.2200   30.2630   52.8180 C   0  0  0  0  0  0  0  0  0  0  0  0
   52.2770   31.0530   52.2490 N   0  0  0  0  0  0  0  0  0  0  0  0
   54.0970   30.6560   53.8670 N   0  0  0  0  0  0  0  0  0  0  0  0
   53.8140   31.8600   54.6240 C   0  0  0  0  0  0  0  0  0  0  0  0
   53.9230   31.5930   56.0910 C   0  0  0  0  0  0  0  0  0  0  0  0
   54.9760   30.6040   56.4750 C   0  0  0  0  0  0  0  0  0  0  0  0
   55.9910   30.4570   55.3610 C   0  0  0  0  0  0  0  0  0  0  0  0
   55.2700   29.8660   54.1860 C   0  0  0  0  0  0  0  0  0  0  0  0
   43.9222   36.4459   45.3397 H   0  0  0  0  0  0  0  0  0  0  0  0
   44.9630   36.2274   43.0539 H   0  0  0  0  0  0  0  0  0  0  0  0
   46.5190   34.2562   42.6077 H   0  0  0  0  0  0  0  0  0  0  0  0
   44.3800   32.9896   48.1406 H   0  0  0  0  0  0  0  0  0  0  0  0
   44.4961   31.3549   47.5445 H   0  0  0  0  0  0  0  0  0  0  0  0
   46.4443   32.8511   49.4121 H   0  0  0  0  0  0  0  0  0  0  0  0
   45.6399   31.3502   49.7782 H   0  0  0  0  0  0  0  0  0  0  0  0
   46.9513   30.1469   48.0501 H   0  0  0  0  0  0  0  0  0  0  0  0
   47.4466   31.3759   46.0503 H   0  0  0  0  0  0  0  0  0  0  0  0
   48.1137   32.7409   46.9242 H   0  0  0  0  0  0  0  0  0  0  0  0
   49.1222   33.3423   48.7797 H   0  0  0  0  0  0  0  0  0  0  0  0
   51.1428   32.9040   50.1758 H   0  0  0  0  0  0  0  0  0  0  0  0
   51.9067   28.3187   50.6244 H   0  0  0  0  0  0  0  0  0  0  0  0
   54.5351   32.6419   54.3437 H   0  0  0  0  0  0  0  0  0  0  0  0
   52.7896   32.1906   54.3974 H   0  0  0  0  0  0  0  0  0  0  0  0
   54.1477   32.5443   56.5955 H   0  0  0  0  0  0  0  0  0  0  0  0
   52.9618   31.1539   56.3965 H   0  0  0  0  0  0  0  0  0  0  0  0
   55.4851   30.9515   57.3861 H   0  0  0  0  0  0  0  0  0  0  0  0
   54.5011   29.6286   56.6570 H   0  0  0  0  0  0  0  0  0  0  0  0
   56.4046   31.4408   55.0946 H   0  0  0  0  0  0  0  0  0  0  0  0
   56.8263   29.8131   55.6734 H   0  0  0  0  0  0  0  0  0  0  0  0
   54.9607   28.8388   54.4291 H   0  0  0  0  0  0  0  0  0  0  0  0
   55.9450   29.8604   53.3175 H   0  0  0  0  0  0  0  0  0  0  0  0
  1  6  2  0
  2  1  1  0
  3  2  2  0
  3  4  1  0
  4  5  2  0
  5  6  1  0
  5  7  1  0
  7 11  1  0
  7  8  1  0
  8  9  1  0
 10  9  1  0
 10 12  1  0
 11 10  1  0
 12 13  2  0
 12 16  1  0
 13 14  1  0
 14 15  2  0
 15 17  1  0
 16 15  1  0
 17 21  1  0
 18 17  1  0
 18 19  2  0
 19 20  1  0
 20 22  1  0
 21 20  2  0
 22 27  1  0
 22 23  1  0
 23 24  1  0
 24 25  1  0
 26 25  1  0
 27 26  1  0
  1 28  1  0
  2 29  1  0
  3 30  1  0
  8 31  1  0
  8 32  1  0
  9 33  1  0
  9 34  1  0
 10 35  1  6
 11 36  1  0
 11 37  1  0
 13 38  1  0
 14 39  1  0
 18 40  1  0
 23 41  1  0
 23 42  1  0
 24 43  1  0
 24 44  1  0
 25 45  1  0
 25 46  1  0
 26 47  1  0
 26 48  1  0
 27 49  1  0
 27 50  1  0
M  ISO  8  28  14  29  14  30  14  31  13  32  13  33  13  34  13  35  13
M  ISO  8  36  13  37  13  38  14  39  14  40  14  41  13  42  13  43  13
M  ISO  7  44  13  45  13  46  13  47  13  48  13  49  13  50  13
M  END
>  <minimizedAffinity>  (1) 
-6.64786625

>  <minimizedRMSD>  (1) 
2.21339607

$$$$
