
     RDKit          3D

 42 46  0  0  1  0  0  0  0  0999 V2000
   44.5720   35.5750   45.1090 C   0  0  0  0  0  0  0  0  0  0  0  0
   45.1330   35.4410   43.8170 C   0  0  0  0  0  0  0  0  0  0  0  0
   46.0040   34.3440   43.5820 C   0  0  0  0  0  0  0  0  0  0  0  0
   46.2560   33.4770   44.6110 N   0  0  0  0  0  0  0  0  0  0  0  0
   45.6930   33.6530   45.8280 C   0  0  0  0  0  0  0  0  0  0  0  0
   44.8500   34.6990   46.0850 N   0  0  0  0  0  0  0  0  0  0  0  0
   46.0070   32.7190   46.8240 N   0  0  0  0  0  0  0  0  0  0  0  0
   45.1600   32.2420   47.8680 C   0  0  0  0  0  0  0  0  0  0  0  0
   46.1430   31.9900   48.9800 C   0  0  0  0  0  0  0  0  0  0  0  0
   47.2210   31.2750   48.2540 C   0  0  1  0  0  0  0  0  0  0  0  0
   47.3090   32.0730   46.9340 C   0  0  0  0  0  0  0  0  0  0  0  0
   48.4760   31.3900   49.0030 C   0  0  0  0  0  0  0  0  0  0  0  0
   49.3650   32.4620   49.2170 C   0  0  0  0  0  0  0  0  0  0  0  0
   50.4820   32.2440   49.9710 C   0  0  0  0  0  0  0  0  0  0  0  0
   50.6930   30.9830   50.4870 C   0  0  0  0  0  0  0  0  0  0  0  0
   49.2200   30.0220   49.8790 S   0  0  0  0  0  0  0  0  0  0  0  0
   51.7600   30.4960   51.2890 N   0  0  0  0  0  0  0  0  0  0  0  0
   52.5920   29.5070   51.0670 C   0  0  0  0  0  0  0  0  0  0  0  0
   53.4540   29.3790   52.0770 N   0  0  0  0  0  0  0  0  0  0  0  0
   53.1540   30.3270   52.9740 C   0  0  0  0  0  0  0  0  0  0  0  0
   52.1000   31.0240   52.4880 N   0  0  0  0  0  0  0  0  0  0  0  0
   53.8630   30.5310   54.2340 C   0  0  0  0  0  0  0  0  0  0  0  0
   53.3190   31.4620   55.1100 C   0  0  0  0  0  0  0  0  0  0  0  0
   54.1350   31.5110   56.2390 C   0  0  0  0  0  0  0  0  0  0  0  0
   55.1340   30.5790   55.9500 C   0  0  0  0  0  0  0  0  0  0  0  0
   54.9490   30.0320   54.7860 O   0  0  0  0  0  0  0  0  0  0  0  0
   43.8936   36.4155   45.3170 H   0  0  0  0  0  0  0  0  0  0  0  0
   44.9020   36.1632   43.0201 H   0  0  0  0  0  0  0  0  0  0  0  0
   46.4659   34.1944   42.5949 H   0  0  0  0  0  0  0  0  0  0  0  0
   44.4162   32.9994   48.1564 H   0  0  0  0  0  0  0  0  0  0  0  0
   44.5695   31.3566   47.5897 H   0  0  0  0  0  0  0  0  0  0  0  0
   46.5071   32.9313   49.4174 H   0  0  0  0  0  0  0  0  0  0  0  0
   45.7272   31.4340   49.8332 H   0  0  0  0  0  0  0  0  0  0  0  0
   47.0352   30.2006   48.1084 H   0  0  0  0  0  0  0  0  0  0  0  0
   47.4848   31.4003   46.0816 H   0  0  0  0  0  0  0  0  0  0  0  0
   48.1403   32.7933   46.9298 H   0  0  0  0  0  0  0  0  0  0  0  0
   49.1633   33.4536   48.7857 H   0  0  0  0  0  0  0  0  0  0  0  0
   51.1981   33.0567   50.1627 H   0  0  0  0  0  0  0  0  0  0  0  0
   52.5807   28.8699   50.1703 H   0  0  0  0  0  0  0  0  0  0  0  0
   52.4074   32.0545   54.9426 H   0  0  0  0  0  0  0  0  0  0  0  0
   54.0200   32.1328   57.1391 H   0  0  0  0  0  0  0  0  0  0  0  0
   55.9709   30.3386   56.6221 H   0  0  0  0  0  0  0  0  0  0  0  0
  1  6  2  0
  2  1  1  0
  3  2  2  0
  3  4  1  0
  4  5  2  0
  5  6  1  0
  5  7  1  0
  7 11  1  0
  7  8  1  0
  8  9  1  0
 10  9  1  0
 10 12  1  0
 11 10  1  0
 12 13  2  0
 12 16  1  0
 13 14  1  0
 14 15  2  0
 15 17  1  0
 16 15  1  0
 17 21  1  0
 18 17  1  0
 18 19  2  0
 19 20  1  0
 20 22  1  0
 21 20  2  0
 22 26  1  0
 22 23  2  0
 23 24  1  0
 25 24  2  0
 26 25  1  0
  1 27  1  0
  2 28  1  0
  3 29  1  0
  8 30  1  0
  8 31  1  0
  9 32  1  0
  9 33  1  0
 10 34  1  6
 11 35  1  0
 11 36  1  0
 13 37  1  0
 14 38  1  0
 18 39  1  0
 23 40  1  0
 24 41  1  0
 25 42  1  0
M  ISO  8  27  14  28  14  29  14  30  13  31  13  32  13  33  13  34  13
M  ISO  8  35  13  36  13  37  14  38  14  39  14  40  14  41  14  42  14
M  END
>  <minimizedAffinity>  (1) 
-6.2187624

>  <minimizedRMSD>  (1) 
2.33543301

$$$$
