
     RDKit          3D

 48 52  0  0  1  0  0  0  0  0999 V2000
   48.2540   31.3090   48.6880 C   0  0  0  0  0  0  0  0  0  0  0  0
   49.0910   32.3610   49.1100 C   0  0  0  0  0  0  0  0  0  0  0  0
   50.2630   32.0470   49.7460 C   0  0  0  0  0  0  0  0  0  0  0  0
   50.5720   30.7190   49.9430 C   0  0  0  0  0  0  0  0  0  0  0  0
   49.1110   29.8310   49.1830 S   0  0  0  0  0  0  0  0  0  0  0  0
   44.5440   35.8020   44.9460 C   0  0  0  0  0  0  0  0  0  0  0  0
   45.0490   35.6280   43.6360 C   0  0  0  0  0  0  0  0  0  0  0  0
   45.8230   34.4740   43.3660 C   0  0  0  0  0  0  0  0  0  0  0  0
   46.0420   33.5830   44.3900 N   0  0  0  0  0  0  0  0  0  0  0  0
   45.5420   33.7920   45.6200 C   0  0  0  0  0  0  0  0  0  0  0  0
   44.7910   34.8990   45.9070 N   0  0  0  0  0  0  0  0  0  0  0  0
   45.8110   32.8390   46.6110 N   0  0  0  0  0  0  0  0  0  0  0  0
   44.9730   32.4320   47.6890 C   0  0  0  0  0  0  0  0  0  0  0  0
   45.9730   32.0960   48.7590 C   0  0  0  0  0  0  0  0  0  0  0  0
   46.9690   31.3090   47.9900 C   0  0  1  0  0  0  0  0  0  0  0  0
   47.0730   32.0910   46.6620 C   0  0  0  0  0  0  0  0  0  0  0  0
   51.7030   30.1280   50.5580 N   0  0  0  0  0  0  0  0  0  0  0  0
   52.4700   29.1530   50.1320 C   0  0  0  0  0  0  0  0  0  0  0  0
   53.4400   28.8940   51.0220 N   0  0  0  0  0  0  0  0  0  0  0  0
   53.2730   29.7370   52.0450 C   0  0  0  0  0  0  0  0  0  0  0  0
   52.1820   30.5150   51.7540 N   0  0  0  0  0  0  0  0  0  0  0  0
   55.6910   29.9630   55.5700 C   0  0  0  0  0  0  0  0  0  0  0  0
   54.5520   30.7290   55.4060 C   0  0  0  0  0  0  0  0  0  0  0  0
   53.7890   30.6390   54.2590 C   0  0  0  0  0  0  0  0  0  0  0  0
   54.1250   29.7830   53.2300 C   0  0  0  0  0  0  0  0  0  0  0  0
   55.2540   28.9980   53.3480 C   0  0  0  0  0  0  0  0  0  0  0  0
   55.9910   29.1180   54.5090 C   0  0  0  0  0  0  0  0  0  0  0  0
   56.7350   29.9900   56.9740 S   0  0  0  0  0  0  0  0  0  0  0  0
   56.1480   30.9380   57.9850 O   0  0  0  0  0  0  0  0  0  0  0  0
   58.1310   30.4170   56.5760 O   0  0  0  0  0  0  0  0  0  0  0  0
   48.8100   33.4097   48.9329 H   0  0  0  0  0  0  0  0  0  0  0  0
   50.9434   32.8390   50.0923 H   0  0  0  0  0  0  0  0  0  0  0  0
   43.9398   36.6909   45.1801 H   0  0  0  0  0  0  0  0  0  0  0  0
   44.8458   36.3691   42.8489 H   0  0  0  0  0  0  0  0  0  0  0  0
   46.2383   34.2948   42.3633 H   0  0  0  0  0  0  0  0  0  0  0  0
   44.3076   33.2482   48.0070 H   0  0  0  0  0  0  0  0  0  0  0  0
   44.3008   31.5990   47.4356 H   0  0  0  0  0  0  0  0  0  0  0  0
   46.4222   33.0032   49.1894 H   0  0  0  0  0  0  0  0  0  0  0  0
   45.5472   31.5631   49.6220 H   0  0  0  0  0  0  0  0  0  0  0  0
   46.6892   30.2542   47.8519 H   0  0  0  0  0  0  0  0  0  0  0  0
   47.1593   31.4050   45.8065 H   0  0  0  0  0  0  0  0  0  0  0  0
   47.9601   32.7395   46.6126 H   0  0  0  0  0  0  0  0  0  0  0  0
   52.3366   28.6218   49.1781 H   0  0  0  0  0  0  0  0  0  0  0  0
   54.2482   31.4227   56.2038 H   0  0  0  0  0  0  0  0  0  0  0  0
   52.8901   31.2657   54.1628 H   0  0  0  0  0  0  0  0  0  0  0  0
   55.5545   28.3044   52.5488 H   0  0  0  0  0  0  0  0  0  0  0  0
   56.8909   28.4923   54.6018 H   0  0  0  0  0  0  0  0  0  0  0  0
   56.8244   28.7383   57.5236 H   0  0  0  0  0  0  0  0  0  0  0  0
  1  2  2  0
  1  5  1  0
  2  3  1  0
  3  4  2  0
  4 17  1  0
  5  4  1  0
  6 11  2  0
  7  6  1  0
  8  7  2  0
  8  9  1  0
  9 10  2  0
 10 11  1  0
 10 12  1  0
 12 16  1  0
 12 13  1  0
 13 14  1  0
 15  1  1  0
 15 14  1  0
 16 15  1  0
 17 21  1  0
 18 17  1  0
 18 19  2  0
 19 20  1  0
 20 25  1  0
 21 20  2  0
 22 28  1  0
 23 22  2  0
 24 23  1  0
 25 26  1  0
 25 24  2  0
 26 27  2  0
 27 22  1  0
 28 29  2  0
 30 28  2  0
  2 31  1  0
  3 32  1  0
  6 33  1  0
  7 34  1  0
  8 35  1  0
 13 36  1  0
 13 37  1  0
 14 38  1  0
 14 39  1  0
 15 40  1  6
 16 41  1  0
 16 42  1  0
 18 43  1  0
 23 44  1  0
 24 45  1  0
 26 46  1  0
 27 47  1  0
 28 48  1  0
M  ISO  8  31  14  32  14  33  14  34  14  35  14  36  13  37  13  38  13
M  ISO  8  39  13  40  13  41  13  42  13  43  14  44  14  45  14  46  14
M  ISO  2  47  14  48  11
M  END
>  <minimizedAffinity>  (1) 
-6.19275761

>  <minimizedRMSD>  (1) 
2.66231084

$$$$
