
     RDKit          3D

 40 44  0  0  1  0  0  0  0  0999 V2000
   44.5710   35.5460   45.1540 C   0  0  0  0  0  0  0  0  0  0  0  0
   45.1560   35.4440   43.8690 C   0  0  0  0  0  0  0  0  0  0  0  0
   46.0460   34.3650   43.6270 C   0  0  0  0  0  0  0  0  0  0  0  0
   46.2910   33.4840   44.6450 N   0  0  0  0  0  0  0  0  0  0  0  0
   45.7120   33.6230   45.8530 C   0  0  0  0  0  0  0  0  0  0  0  0
   44.8500   34.6520   46.1150 N   0  0  0  0  0  0  0  0  0  0  0  0
   46.0130   32.6800   46.8510 N   0  0  0  0  0  0  0  0  0  0  0  0
   45.1650   32.1760   47.8820 C   0  0  0  0  0  0  0  0  0  0  0  0
   46.1430   31.9340   48.9950 C   0  0  0  0  0  0  0  0  0  0  0  0
   47.2420   31.2460   48.2690 C   0  0  1  0  0  0  0  0  0  0  0  0
   47.3400   32.0550   46.9560 C   0  0  0  0  0  0  0  0  0  0  0  0
   48.4860   31.3450   49.0270 C   0  0  0  0  0  0  0  0  0  0  0  0
   49.3680   32.4260   49.2240 C   0  0  0  0  0  0  0  0  0  0  0  0
   50.4900   32.2240   49.9940 C   0  0  0  0  0  0  0  0  0  0  0  0
   50.6940   30.9710   50.5340 C   0  0  0  0  0  0  0  0  0  0  0  0
   49.2220   30.0070   49.9290 S   0  0  0  0  0  0  0  0  0  0  0  0
   51.7560   30.5030   51.3480 N   0  0  0  0  0  0  0  0  0  0  0  0
   52.6000   29.5250   51.1320 C   0  0  0  0  0  0  0  0  0  0  0  0
   53.4620   29.3980   52.1510 N   0  0  0  0  0  0  0  0  0  0  0  0
   53.1370   30.3480   53.0480 C   0  0  0  0  0  0  0  0  0  0  0  0
   52.0740   31.0340   52.5440 N   0  0  0  0  0  0  0  0  0  0  0  0
   53.6950   30.7250   54.3590 C   0  0  0  0  0  0  0  0  0  0  0  0
   52.9540   31.6100   55.0640 N   0  0  0  0  0  0  0  0  0  0  0  0
   53.6030   31.8190   56.1820 O   0  0  0  0  0  0  0  0  0  0  0  0
   54.7050   31.1250   56.2320 C   0  0  0  0  0  0  0  0  0  0  0  0
   54.7780   30.4210   55.0720 N   0  0  0  0  0  0  0  0  0  0  0  0
   43.8764   36.3716   45.3682 H   0  0  0  0  0  0  0  0  0  0  0  0
   44.9279   36.1782   43.0823 H   0  0  0  0  0  0  0  0  0  0  0  0
   46.5268   34.2402   42.6455 H   0  0  0  0  0  0  0  0  0  0  0  0
   44.4040   32.9156   48.1716 H   0  0  0  0  0  0  0  0  0  0  0  0
   44.5927   31.2829   47.5905 H   0  0  0  0  0  0  0  0  0  0  0  0
   46.4853   32.8784   49.4433 H   0  0  0  0  0  0  0  0  0  0  0  0
   45.7327   31.3618   49.8401 H   0  0  0  0  0  0  0  0  0  0  0  0
   47.0630   30.1727   48.1081 H   0  0  0  0  0  0  0  0  0  0  0  0
   47.5345   31.3942   46.0984 H   0  0  0  0  0  0  0  0  0  0  0  0
   48.1632   32.7846   46.9575 H   0  0  0  0  0  0  0  0  0  0  0  0
   49.1642   33.4083   48.7728 H   0  0  0  0  0  0  0  0  0  0  0  0
   51.2054   33.0399   50.1743 H   0  0  0  0  0  0  0  0  0  0  0  0
   52.6014   28.8913   50.2329 H   0  0  0  0  0  0  0  0  0  0  0  0
   55.4352   31.1117   57.0546 H   0  0  0  0  0  0  0  0  0  0  0  0
  1  6  2  0
  2  1  1  0
  3  2  2  0
  3  4  1  0
  4  5  2  0
  5  6  1  0
  5  7  1  0
  7 11  1  0
  7  8  1  0
  8  9  1  0
 10  9  1  0
 10 12  1  0
 11 10  1  0
 12 13  2  0
 12 16  1  0
 13 14  1  0
 14 15  2  0
 15 17  1  0
 16 15  1  0
 17 21  1  0
 18 17  1  0
 18 19  2  0
 19 20  1  0
 20 22  1  0
 21 20  2  0
 22 23  2  0
 22 26  1  0
 23 24  1  0
 24 25  1  0
 26 25  2  0
  1 27  1  0
  2 28  1  0
  3 29  1  0
  8 30  1  0
  8 31  1  0
  9 32  1  0
  9 33  1  0
 10 34  1  6
 11 35  1  0
 11 36  1  0
 13 37  1  0
 14 38  1  0
 18 39  1  0
 25 40  1  0
M  ISO  8  27  14  28  14  29  14  30  13  31  13  32  13  33  13  34  13
M  ISO  6  35  13  36  13  37  14  38  14  39  14  40  14
M  END
>  <minimizedAffinity>  (1) 
-6.14642382

>  <minimizedRMSD>  (1) 
2.40873885

$$$$
