
     RDKit          3D

 49 53  0  0  1  0  0  0  0  0999 V2000
   44.6250   35.7540   44.9170 C   0  0  0  0  0  0  0  0  0  0  0  0
   44.9830   35.4750   43.5770 C   0  0  0  0  0  0  0  0  0  0  0  0
   45.6190   34.2390   43.2980 C   0  0  0  0  0  0  0  0  0  0  0  0
   45.8550   33.3770   44.3390 N   0  0  0  0  0  0  0  0  0  0  0  0
   45.4900   33.6970   45.6040 C   0  0  0  0  0  0  0  0  0  0  0  0
   44.8760   34.8810   45.9030 N   0  0  0  0  0  0  0  0  0  0  0  0
   45.7690   32.7570   46.6140 N   0  0  0  0  0  0  0  0  0  0  0  0
   45.0000   32.4760   47.7820 C   0  0  0  0  0  0  0  0  0  0  0  0
   46.0690   32.1020   48.7740 C   0  0  0  0  0  0  0  0  0  0  0  0
   46.8970   31.1750   47.9640 C   0  0  1  0  0  0  0  0  0  0  0  0
   46.9510   31.8960   46.5950 C   0  0  0  0  0  0  0  0  0  0  0  0
   48.2470   31.1090   48.5490 C   0  0  0  0  0  0  0  0  0  0  0  0
   49.0580   32.0510   49.2150 C   0  0  0  0  0  0  0  0  0  0  0  0
   50.2830   31.6620   49.6210 C   0  0  0  0  0  0  0  0  0  0  0  0
   50.7170   30.3760   49.3850 C   0  0  0  0  0  0  0  0  0  0  0  0
   49.2510   29.6290   48.4990 S   0  0  0  0  0  0  0  0  0  0  0  0
   51.9450   29.7340   49.7100 N   0  0  0  0  0  0  0  0  0  0  0  0
   52.4390   28.6200   49.2260 C   0  0  0  0  0  0  0  0  0  0  0  0
   53.6340   28.3700   49.8130 N   0  0  0  0  0  0  0  0  0  0  0  0
   53.8710   29.3620   50.6780 C   0  0  0  0  0  0  0  0  0  0  0  0
   52.8100   30.2100   50.6080 N   0  0  0  0  0  0  0  0  0  0  0  0
   54.9850   29.5530   51.5310 N   0  0  0  0  0  0  0  0  0  0  0  0
   56.2480   28.8960   51.4610 C   0  0  0  0  0  0  0  0  0  0  0  0
   56.7940   28.4260   52.7560 C   0  0  0  0  0  0  0  0  0  0  0  0
   56.2940   29.0130   53.9390 N   0  0  0  0  0  0  0  0  0  0  0  0
   55.0410   29.6740   53.8810 C   0  0  0  0  0  0  0  0  0  0  0  0
   54.8880   30.5160   52.6190 C   0  0  0  0  0  0  0  0  0  0  0  0
   44.1303   36.7073   45.1548 H   0  0  0  0  0  0  0  0  0  0  0  0
   44.7737   36.1970   42.7739 H   0  0  0  0  0  0  0  0  0  0  0  0
   45.9161   33.9774   42.2717 H   0  0  0  0  0  0  0  0  0  0  0  0
   44.4381   33.3615   48.1139 H   0  0  0  0  0  0  0  0  0  0  0  0
   44.2370   31.6973   47.6355 H   0  0  0  0  0  0  0  0  0  0  0  0
   46.6458   32.9813   49.0967 H   0  0  0  0  0  0  0  0  0  0  0  0
   45.6867   31.6679   49.7096 H   0  0  0  0  0  0  0  0  0  0  0  0
   46.5102   30.1469   47.9061 H   0  0  0  0  0  0  0  0  0  0  0  0
   46.8972   31.1730   45.7677 H   0  0  0  0  0  0  0  0  0  0  0  0
   47.8856   32.4558   46.4429 H   0  0  0  0  0  0  0  0  0  0  0  0
   48.7007   33.0751   49.3981 H   0  0  0  0  0  0  0  0  0  0  0  0
   50.9389   32.3743   50.1429 H   0  0  0  0  0  0  0  0  0  0  0  0
   51.9590   27.9884   48.4639 H   0  0  0  0  0  0  0  0  0  0  0  0
   56.1397   28.0223   50.8015 H   0  0  0  0  0  0  0  0  0  0  0  0
   56.9595   29.6472   51.0875 H   0  0  0  0  0  0  0  0  0  0  0  0
   56.5997   27.3452   52.8198 H   0  0  0  0  0  0  0  0  0  0  0  0
   57.8536   28.7203   52.7302 H   0  0  0  0  0  0  0  0  0  0  0  0
   56.2117   28.2635   54.6407 H   0  0  0  0  0  0  0  0  0  0  0  0
   54.2415   28.9187   53.9013 H   0  0  0  0  0  0  0  0  0  0  0  0
   54.9773   30.3503   54.7462 H   0  0  0  0  0  0  0  0  0  0  0  0
   55.6912   31.2644   52.5499 H   0  0  0  0  0  0  0  0  0  0  0  0
   53.9425   31.0779   52.6003 H   0  0  0  0  0  0  0  0  0  0  0  0
  1  6  2  0
  2  1  1  0
  3  2  2  0
  3  4  1  0
  4  5  2  0
  5  6  1  0
  5  7  1  0
  7  8  1  0
  8  9  1  0
 10 12  1  0
 10  9  1  0
 11  7  1  0
 11 10  1  0
 12 13  2  0
 13 14  1  0
 15 14  2  0
 15 17  1  0
 16 12  1  0
 16 15  1  0
 17 21  1  0
 18 17  1  0
 18 19  2  0
 19 20  1  0
 20 22  1  0
 21 20  2  0
 22 27  1  0
 23 22  1  0
 23 24  1  0
 24 25  1  0
 26 25  1  0
 27 26  1  0
  1 28  1  0
  2 29  1  0
  3 30  1  0
  8 31  1  0
  8 32  1  0
  9 33  1  0
  9 34  1  0
 10 35  1  6
 11 36  1  0
 11 37  1  0
 13 38  1  0
 14 39  1  0
 18 40  1  0
 23 41  1  0
 23 42  1  0
 24 43  1  0
 24 44  1  0
 25 45  1  0
 26 46  1  0
 26 47  1  0
 27 48  1  0
 27 49  1  0
M  ISO  8  28  14  29  14  30  14  31  13  32  13  33  13  34  13  35  13
M  ISO  8  36  13  37  13  38  14  39  14  40  14  41  13  42  13  43  13
M  ISO  6  44  13  45   5  46  13  47  13  48  13  49  13
M  END
>  <minimizedAffinity>  (1) 
-5.71855927

>  <minimizedRMSD>  (1) 
0.614939868

$$$$
