
     RDKit          3D

 41 45  0  0  1  0  0  0  0  0999 V2000
   44.6130   35.7410   44.9470 C   0  0  0  0  0  0  0  0  0  0  0  0
   45.0650   35.5350   43.6210 C   0  0  0  0  0  0  0  0  0  0  0  0
   45.7970   34.3560   43.3440 C   0  0  0  0  0  0  0  0  0  0  0  0
   46.0310   33.4760   44.3710 N   0  0  0  0  0  0  0  0  0  0  0  0
   45.5810   33.7180   45.6160 C   0  0  0  0  0  0  0  0  0  0  0  0
   44.8710   34.8480   45.9130 N   0  0  0  0  0  0  0  0  0  0  0  0
   45.8620   32.7710   46.6100 N   0  0  0  0  0  0  0  0  0  0  0  0
   45.0520   32.4010   47.7240 C   0  0  0  0  0  0  0  0  0  0  0  0
   46.0870   32.0660   48.7670 C   0  0  0  0  0  0  0  0  0  0  0  0
   47.0250   31.2330   47.9740 C   0  0  1  0  0  0  0  0  0  0  0  0
   47.1030   31.9920   46.6310 C   0  0  0  0  0  0  0  0  0  0  0  0
   48.3370   31.2010   48.6190 C   0  0  0  0  0  0  0  0  0  0  0  0
   49.1010   32.2150   49.2290 C   0  0  0  0  0  0  0  0  0  0  0  0
   50.3260   31.8900   49.7520 C   0  0  0  0  0  0  0  0  0  0  0  0
   50.7550   30.5830   49.6560 C   0  0  0  0  0  0  0  0  0  0  0  0
   49.3400   29.7400   48.7670 S   0  0  0  0  0  0  0  0  0  0  0  0
   51.9620   29.9770   50.0970 N   0  0  0  0  0  0  0  0  0  0  0  0
   52.6360   28.9840   49.5680 C   0  0  0  0  0  0  0  0  0  0  0  0
   53.7310   28.7200   50.3210 N   0  0  0  0  0  0  0  0  0  0  0  0
   53.7260   29.5800   51.3450 C   0  0  0  0  0  0  0  0  0  0  0  0
   52.6120   30.3710   51.2010 N   0  0  0  0  0  0  0  0  0  0  0  0
   54.6590   29.7130   52.4150 N   0  0  0  0  0  0  0  0  0  0  0  0
   55.4830   30.7360   52.7180 C   0  0  0  0  0  0  0  0  0  0  0  0
   56.2010   30.4450   53.8190 N   0  0  0  0  0  0  0  0  0  0  0  0
   55.8090   29.2140   54.1980 C   0  0  0  0  0  0  0  0  0  0  0  0
   54.8570   28.7620   53.3310 N   0  0  0  0  0  0  0  0  0  0  0  0
   44.0407   36.6488   45.1885 H   0  0  0  0  0  0  0  0  0  0  0  0
   44.8535   36.2694   42.8299 H   0  0  0  0  0  0  0  0  0  0  0  0
   46.1696   34.1497   42.3298 H   0  0  0  0  0  0  0  0  0  0  0  0
   44.4133   33.2358   48.0485 H   0  0  0  0  0  0  0  0  0  0  0  0
   44.3546   31.5775   47.5110 H   0  0  0  0  0  0  0  0  0  0  0  0
   46.5782   32.9707   49.1545 H   0  0  0  0  0  0  0  0  0  0  0  0
   45.6853   31.5703   49.6631 H   0  0  0  0  0  0  0  0  0  0  0  0
   46.7044   30.1863   47.8664 H   0  0  0  0  0  0  0  0  0  0  0  0
   47.1424   31.2910   45.7842 H   0  0  0  0  0  0  0  0  0  0  0  0
   48.0042   32.6164   46.5418 H   0  0  0  0  0  0  0  0  0  0  0  0
   48.7226   33.2464   49.2846 H   0  0  0  0  0  0  0  0  0  0  0  0
   50.9518   32.6538   50.2367 H   0  0  0  0  0  0  0  0  0  0  0  0
   52.3545   28.4462   48.6506 H   0  0  0  0  0  0  0  0  0  0  0  0
   55.5579   31.6736   52.1477 H   0  0  0  0  0  0  0  0  0  0  0  0
   56.1944   28.6611   55.0673 H   0  0  0  0  0  0  0  0  0  0  0  0
  1  6  2  0
  2  1  1  0
  3  2  2  0
  3  4  1  0
  4  5  2  0
  5  6  1  0
  5  7  1  0
  7 11  1  0
  7  8  1  0
  8  9  1  0
 10 12  1  0
 10  9  1  0
 11 10  1  0
 12 16  1  0
 12 13  2  0
 13 14  1  0
 15 14  2  0
 15 17  1  0
 16 15  1  0
 17 21  1  0
 18 17  1  0
 18 19  2  0
 19 20  1  0
 20 22  1  0
 21 20  2  0
 22 23  1  0
 22 26  1  0
 23 24  2  0
 24 25  1  0
 26 25  2  0
  1 27  1  0
  2 28  1  0
  3 29  1  0
  8 30  1  0
  8 31  1  0
  9 32  1  0
  9 33  1  0
 10 34  1  6
 11 35  1  0
 11 36  1  0
 13 37  1  0
 14 38  1  0
 18 39  1  0
 23 40  1  0
 25 41  1  0
M  ISO  8  27  14  28  14  29  14  30  13  31  13  32  13  33  13  34  13
M  ISO  7  35  13  36  13  37  14  38  14  39  14  40  14  41  14
M  END
>  <minimizedAffinity>  (1) 
-5.76270247

>  <minimizedRMSD>  (1) 
1.0898006

$$$$
