
     RDKit          3D

 43 47  0  0  1  0  0  0  0  0999 V2000
   44.6190   35.7680   44.8970 C   0  0  0  0  0  0  0  0  0  0  0  0
   44.9500   35.4710   43.5530 C   0  0  0  0  0  0  0  0  0  0  0  0
   45.5670   34.2210   43.2760 C   0  0  0  0  0  0  0  0  0  0  0  0
   45.8060   33.3750   44.3230 N   0  0  0  0  0  0  0  0  0  0  0  0
   45.4730   33.7020   45.5880 C   0  0  0  0  0  0  0  0  0  0  0  0
   44.8780   34.8980   45.8860 N   0  0  0  0  0  0  0  0  0  0  0  0
   45.7540   32.7790   46.6100 N   0  0  0  0  0  0  0  0  0  0  0  0
   45.0140   32.5260   47.8000 C   0  0  0  0  0  0  0  0  0  0  0  0
   46.0910   32.1350   48.7650 C   0  0  0  0  0  0  0  0  0  0  0  0
   46.8990   31.1990   47.9470 C   0  0  1  0  0  0  0  0  0  0  0  0
   46.9290   31.9000   46.5700 C   0  0  0  0  0  0  0  0  0  0  0  0
   48.2520   31.0970   48.4970 C   0  0  0  0  0  0  0  0  0  0  0  0
   49.0440   32.0130   49.2170 C   0  0  0  0  0  0  0  0  0  0  0  0
   50.3030   31.6350   49.6000 C   0  0  0  0  0  0  0  0  0  0  0  0
   50.7450   30.3720   49.2650 C   0  0  0  0  0  0  0  0  0  0  0  0
   49.2790   29.6540   48.3380 S   0  0  0  0  0  0  0  0  0  0  0  0
   51.9860   29.7310   49.5220 N   0  0  0  0  0  0  0  0  0  0  0  0
   52.3800   28.5250   49.1900 C   0  0  0  0  0  0  0  0  0  0  0  0
   53.6340   28.3220   49.6480 N   0  0  0  0  0  0  0  0  0  0  0  0
   54.0240   29.4330   50.2790 C   0  0  0  0  0  0  0  0  0  0  0  0
   52.9780   30.3200   50.1950 N   0  0  0  0  0  0  0  0  0  0  0  0
   55.2880   29.7290   50.9500 C   0  0  0  0  0  0  0  0  0  0  0  0
   55.7160   29.0290   52.0500 C   0  0  0  0  0  0  0  0  0  0  0  0
   56.9290   29.4010   52.6000 C   0  0  0  0  0  0  0  0  0  0  0  0
   57.6650   30.4140   52.0760 N   0  0  0  0  0  0  0  0  0  0  0  0
   57.2140   31.0850   50.9890 C   0  0  0  0  0  0  0  0  0  0  0  0
   56.0230   30.7390   50.4280 N   0  0  0  0  0  0  0  0  0  0  0  0
   44.1407   36.7295   45.1353 H   0  0  0  0  0  0  0  0  0  0  0  0
   44.7358   36.1873   42.7461 H   0  0  0  0  0  0  0  0  0  0  0  0
   45.8443   33.9422   42.2487 H   0  0  0  0  0  0  0  0  0  0  0  0
   44.4830   33.4278   48.1388 H   0  0  0  0  0  0  0  0  0  0  0  0
   44.2309   31.7630   47.6793 H   0  0  0  0  0  0  0  0  0  0  0  0
   46.6833   33.0067   49.0802 H   0  0  0  0  0  0  0  0  0  0  0  0
   45.7151   31.6998   49.7027 H   0  0  0  0  0  0  0  0  0  0  0  0
   46.4973   30.1756   47.9103 H   0  0  0  0  0  0  0  0  0  0  0  0
   46.8450   31.1676   45.7536 H   0  0  0  0  0  0  0  0  0  0  0  0
   47.8667   32.4447   46.3858 H   0  0  0  0  0  0  0  0  0  0  0  0
   48.6584   33.0125   49.4666 H   0  0  0  0  0  0  0  0  0  0  0  0
   50.9489   32.3245   50.1634 H   0  0  0  0  0  0  0  0  0  0  0  0
   51.7824   27.7933   48.6266 H   0  0  0  0  0  0  0  0  0  0  0  0
   55.1203   28.2080   52.4756 H   0  0  0  0  0  0  0  0  0  0  0  0
   57.3062   28.8636   53.4826 H   0  0  0  0  0  0  0  0  0  0  0  0
   57.8079   31.9062   50.5614 H   0  0  0  0  0  0  0  0  0  0  0  0
  1  6  2  0
  2  1  1  0
  3  2  2  0
  3  4  1  0
  4  5  2  0
  5  6  1  0
  5  7  1  0
  7  8  1  0
  8  9  1  0
 10 12  1  0
 10  9  1  0
 11  7  1  0
 11 10  1  0
 12 13  2  0
 13 14  1  0
 15 17  1  0
 15 14  2  0
 16 12  1  0
 16 15  1  0
 17 21  1  0
 18 17  1  0
 18 19  2  0
 19 20  1  0
 20 22  1  0
 21 20  2  0
 22 23  2  0
 23 24  1  0
 25 24  2  0
 26 25  1  0
 27 22  1  0
 27 26  2  0
  1 28  1  0
  2 29  1  0
  3 30  1  0
  8 31  1  0
  8 32  1  0
  9 33  1  0
  9 34  1  0
 10 35  1  6
 11 36  1  0
 11 37  1  0
 13 38  1  0
 14 39  1  0
 18 40  1  0
 23 41  1  0
 24 42  1  0
 26 43  1  0
M  ISO  8  28  14  29  14  30  14  31  13  32  13  33  13  34  13  35  13
M  ISO  8  36  13  37  13  38  14  39  14  40  14  41  14  42  14  43  14
M  END
>  <minimizedAffinity>  (1) 
-5.21443653

>  <minimizedRMSD>  (1) 
0.485309511

$$$$
