
     RDKit          3D

 39 41  0  0  1  0  0  0  0  0999 V2000
   42.7600   33.6120   41.3230 C   0  0  0  0  0  0  0  0  0  0  0  0
   44.1140   33.4620   41.7080 C   0  0  0  0  0  0  0  0  0  0  0  0
   44.5000   32.2620   42.3170 C   0  0  0  0  0  0  0  0  0  0  0  0
   43.5800   31.3040   42.5130 N   0  0  0  0  0  0  0  0  0  0  0  0
   42.3050   31.4360   42.1550 C   0  0  0  0  0  0  0  0  0  0  0  0
   41.9130   32.5770   41.5700 N   0  0  0  0  0  0  0  0  0  0  0  0
   42.1910   34.7750   40.7280 C   0  0  0  0  0  0  0  0  0  0  0  0
   41.5970   34.4650   39.3270 C   0  0  0  0  0  0  0  0  0  0  0  0
   40.7660   35.7640   39.1310 C   0  0  0  0  0  0  0  0  0  0  0  0
   40.3410   36.1670   40.4950 C   0  0  0  0  0  0  0  0  0  0  0  0
   40.9260   35.1560   41.4600 C   0  0  0  0  0  0  0  0  0  0  0  0
   45.0690   34.5610   41.4390 C   0  0  1  0  0  0  0  0  0  0  0  0
   45.4830   35.2900   42.6450 C   0  0  0  0  0  0  0  0  0  0  0  0
   46.1000   34.0970   40.5010 C   0  0  0  0  0  0  0  0  0  0  0  0
   47.5250   34.3350   41.3150 C   0  0  0  0  0  0  0  0  0  0  0  0
   48.4170   35.4820   41.1340 C   0  0  0  0  0  0  0  0  0  0  0  0
   49.4810   35.3590   41.9380 C   0  0  0  0  0  0  0  0  0  0  0  0
   49.7200   34.3440   42.7920 C   0  0  0  0  0  0  0  0  0  0  0  0
   48.2450   33.2130   42.5680 S   0  0  0  0  0  0  0  0  0  0  0  0
   45.5428   32.1061   42.6306 H   0  0  0  0  0  0  0  0  0  0  0  0
   41.5857   30.6236   42.3358 H   0  0  0  0  0  0  0  0  0  0  0  0
   42.9964   35.5243   40.7279 H   0  0  0  0  0  0  0  0  0  0  0  0
   42.3790   34.3547   38.5613 H   0  0  0  0  0  0  0  0  0  0  0  0
   41.0342   33.5233   39.2465 H   0  0  0  0  0  0  0  0  0  0  0  0
   41.3829   36.5504   38.6716 H   0  0  0  0  0  0  0  0  0  0  0  0
   39.9060   35.6038   38.4642 H   0  0  0  0  0  0  0  0  0  0  0  0
   40.7203   37.1732   40.7267 H   0  0  0  0  0  0  0  0  0  0  0  0
   39.2440   36.1929   40.5720 H   0  0  0  0  0  0  0  0  0  0  0  0
   40.2595   34.2915   41.5956 H   0  0  0  0  0  0  0  0  0  0  0  0
   41.0839   35.5351   42.4804 H   0  0  0  0  0  0  0  0  0  0  0  0
   44.5725   35.3846   40.9050 H   0  0  0  0  0  0  0  0  0  0  0  0
   45.1658   34.7315   43.5380 H   0  0  0  0  0  0  0  0  0  0  0  0
   46.5776   35.3987   42.6501 H   0  0  0  0  0  0  0  0  0  0  0  0
   45.0156   36.2858   42.6501 H   0  0  0  0  0  0  0  0  0  0  0  0
   46.0774   34.6870   39.5729 H   0  0  0  0  0  0  0  0  0  0  0  0
   45.9559   33.0488   40.2003 H   0  0  0  0  0  0  0  0  0  0  0  0
   48.2399   36.3185   40.4420 H   0  0  0  0  0  0  0  0  0  0  0  0
   50.2310   36.1626   41.8976 H   0  0  0  0  0  0  0  0  0  0  0  0
   50.5808   34.2112   43.4638 H   0  0  0  0  0  0  0  0  0  0  0  0
  1  6  2  0
  1  2  1  0
  2  3  2  0
  3  4  1  0
  5  4  2  0
  6  5  1  0
  7  1  1  0
  7 11  1  0
  8  7  1  0
  9  8  1  0
  9 10  1  0
 10 11  1  0
 12  2  1  0
 12 13  1  0
 14 15  1  0
 14 12  1  0
 15 19  1  0
 16 15  2  0
 16 17  1  0
 17 18  2  0
 19 18  1  0
  3 20  1  0
  5 21  1  0
  7 22  1  0
  8 23  1  0
  8 24  1  0
  9 25  1  0
  9 26  1  0
 10 27  1  0
 10 28  1  0
 11 29  1  0
 11 30  1  0
 12 31  1  6
 13 32  1  0
 13 33  1  0
 13 34  1  0
 14 35  1  0
 14 36  1  0
 16 37  1  0
 17 38  1  0
 18 39  1  0
M  ISO  8  20  14  21  14  22  13  23  13  24  13  25  13  26  13  27  13
M  ISO  8  28  13  29  13  30  13  31   8  32   8  33   8  34   8  35   8
M  ISO  4  36   8  37  14  38  14  39  14
M  END
>  <minimizedAffinity>  (1) 
-5.30163431

>  <minimizedRMSD>  (1) 
3.59159279

$$$$
