
     RDKit          3D

 37 40  0  0  1  0  0  0  0  0999 V2000
   44.6250   35.7530   44.9110 C   0  0  0  0  0  0  0  0  0  0  0  0
   44.9710   35.4710   43.5690 C   0  0  0  0  0  0  0  0  0  0  0  0
   45.5990   34.2340   43.2930 C   0  0  0  0  0  0  0  0  0  0  0  0
   45.8410   33.3750   44.3310 N   0  0  0  0  0  0  0  0  0  0  0  0
   45.4910   33.6920   45.5950 C   0  0  0  0  0  0  0  0  0  0  0  0
   44.8820   34.8800   45.8960 N   0  0  0  0  0  0  0  0  0  0  0  0
   45.7730   32.7560   46.6120 N   0  0  0  0  0  0  0  0  0  0  0  0
   45.0160   32.4840   47.7910 C   0  0  0  0  0  0  0  0  0  0  0  0
   46.0880   32.1010   48.7660 C   0  0  0  0  0  0  0  0  0  0  0  0
   46.9130   31.1760   47.9520 C   0  0  1  0  0  0  0  0  0  0  0  0
   46.9480   31.8950   46.5840 C   0  0  0  0  0  0  0  0  0  0  0  0
   48.2650   31.1090   48.5250 C   0  0  0  0  0  0  0  0  0  0  0  0
   49.0660   32.0330   49.2280 C   0  0  0  0  0  0  0  0  0  0  0  0
   50.3000   31.6470   49.6050 C   0  0  0  0  0  0  0  0  0  0  0  0
   50.7550   30.3800   49.3060 C   0  0  0  0  0  0  0  0  0  0  0  0
   49.2900   29.6460   48.3930 S   0  0  0  0  0  0  0  0  0  0  0  0
   51.9960   29.7490   49.5950 N   0  0  0  0  0  0  0  0  0  0  0  0
   52.3380   28.4950   49.4220 C   0  0  0  0  0  0  0  0  0  0  0  0
   53.6150   28.3040   49.8300 N   0  0  0  0  0  0  0  0  0  0  0  0
   54.0560   29.4890   50.2640 C   0  0  0  0  0  0  0  0  0  0  0  0
   53.0470   30.3930   50.1190 N   0  0  0  0  0  0  0  0  0  0  0  0
   55.3650   29.7070   50.7790 N   0  0  0  0  0  0  0  0  0  0  0  0
   44.1350   36.7080   45.1518 H   0  0  0  0  0  0  0  0  0  0  0  0
   44.7584   36.1911   42.7651 H   0  0  0  0  0  0  0  0  0  0  0  0
   45.8870   33.9677   42.2653 H   0  0  0  0  0  0  0  0  0  0  0  0
   44.4679   33.3758   48.1290 H   0  0  0  0  0  0  0  0  0  0  0  0
   44.2434   31.7130   47.6548 H   0  0  0  0  0  0  0  0  0  0  0  0
   46.6683   32.9776   49.0896 H   0  0  0  0  0  0  0  0  0  0  0  0
   45.7080   31.6592   49.6990 H   0  0  0  0  0  0  0  0  0  0  0  0
   46.5317   30.1456   47.8989 H   0  0  0  0  0  0  0  0  0  0  0  0
   46.8829   31.1704   45.7590 H   0  0  0  0  0  0  0  0  0  0  0  0
   47.8810   32.4547   46.4221 H   0  0  0  0  0  0  0  0  0  0  0  0
   48.6931   33.0411   49.4619 H   0  0  0  0  0  0  0  0  0  0  0  0
   50.9481   32.3458   50.1541 H   0  0  0  0  0  0  0  0  0  0  0  0
   51.6843   27.7138   49.0069 H   0  0  0  0  0  0  0  0  0  0  0  0
   55.6432   30.6461   51.0977 H   0  0  0  0  0  0  0  0  0  0  0  0
   56.0339   28.9256   50.8330 H   0  0  0  0  0  0  0  0  0  0  0  0
  1  6  2  0
  2  1  1  0
  3  2  2  0
  3  4  1  0
  4  5  2  0
  5  6  1  0
  5  7  1  0
  7  8  1  0
  8  9  1  0
 10 12  1  0
 10  9  1  0
 11  7  1  0
 11 10  1  0
 12 13  2  0
 13 14  1  0
 15 17  1  0
 15 14  2  0
 16 12  1  0
 16 15  1  0
 17 21  1  0
 18 17  1  0
 18 19  2  0
 19 20  1  0
 20 22  1  0
 21 20  2  0
  1 23  1  0
  2 24  1  0
  3 25  1  0
  8 26  1  0
  8 27  1  0
  9 28  1  0
  9 29  1  0
 10 30  1  6
 11 31  1  0
 11 32  1  0
 13 33  1  0
 14 34  1  0
 18 35  1  0
 22 36  1  0
 22 37  1  0
M  ISO  8  23  14  24  14  25  14  26  13  27  13  28  13  29  13  30  13
M  ISO  5  31  13  32  13  33  14  34  14  35  14
M  END
>  <minimizedAffinity>  (1) 
-5.28913069

>  <minimizedRMSD>  (1) 
0.0117486631

$$$$
