
     RDKit          3D

 32 35  0  0  0  0  0  0  0  0999 V2000
   44.5780   35.7450   44.4640 C   0  0  0  0  0  0  0  0  0  0  0  0
   45.3560   35.7470   43.2830 C   0  0  0  0  0  0  0  0  0  0  0  0
   46.3720   34.8100   43.1680 C   0  0  0  0  0  0  0  0  0  0  0  0
   46.5500   33.9540   44.2010 N   0  0  0  0  0  0  0  0  0  0  0  0
   45.8100   33.9580   45.3160 C   0  0  0  0  0  0  0  0  0  0  0  0
   44.8140   34.8600   45.4520 N   0  0  0  0  0  0  0  0  0  0  0  0
   47.1340   34.8300   41.9860 N   0  0  0  0  0  0  0  0  0  0  0  0
   48.3140   35.5080   41.8860 C   0  0  0  0  0  0  0  0  0  0  0  0
   48.7980   35.3360   40.6380 N   0  0  0  0  0  0  0  0  0  0  0  0
   47.9480   34.5650   39.9520 C   0  0  0  0  0  0  0  0  0  0  0  0
   47.9860   34.1000   38.6440 C   0  0  0  0  0  0  0  0  0  0  0  0
   46.9490   33.3270   38.2560 N   0  0  0  0  0  0  0  0  0  0  0  0
   45.9240   33.0160   39.0850 C   0  0  0  0  0  0  0  0  0  0  0  0
   45.9080   33.4830   40.3640 N   0  0  0  0  0  0  0  0  0  0  0  0
   46.9110   34.2520   40.7960 C   0  0  0  0  0  0  0  0  0  0  0  0
   49.0720   34.4340   37.7770 N   0  0  0  0  0  0  0  0  0  0  0  0
   46.0530   32.9990   46.4040 C   0  0  0  0  0  0  0  0  0  0  0  0
   45.1920   33.0290   47.5000 C   0  0  0  0  0  0  0  0  0  0  0  0
   45.4190   32.1190   48.5390 C   0  0  0  0  0  0  0  0  0  0  0  0
   46.4920   31.2710   48.3680 C   0  0  0  0  0  0  0  0  0  0  0  0
   47.3530   31.2280   47.2920 C   0  0  0  0  0  0  0  0  0  0  0  0
   47.0720   32.1340   46.3330 N   0  0  0  0  0  0  0  0  0  0  0  0
   43.7663   36.4786   44.5779 H   0  0  0  0  0  0  0  0  0  0  0  0
   45.1608   36.4712   42.4784 H   0  0  0  0  0  0  0  0  0  0  0  0
   48.7895   36.0945   42.6859 H   0  0  0  0  0  0  0  0  0  0  0  0
   45.1003   32.3830   38.7232 H   0  0  0  0  0  0  0  0  0  0  0  0
   49.0857   34.0813   36.8094 H   0  0  0  0  0  0  0  0  0  0  0  0
   49.8409   35.0274   38.1198 H   0  0  0  0  0  0  0  0  0  0  0  0
   44.3593   33.7462   47.5469 H   0  0  0  0  0  0  0  0  0  0  0  0
   44.7817   32.0829   49.4349 H   0  0  0  0  0  0  0  0  0  0  0  0
   46.6819   30.5507   49.1774 H   0  0  0  0  0  0  0  0  0  0  0  0
   48.1919   30.5200   47.2220 H   0  0  0  0  0  0  0  0  0  0  0  0
  1  6  2  0
  2  1  1  0
  3  2  2  0
  3  4  1  0
  4  5  2  0
  5  6  1  0
  5 17  1  0
  7  3  1  0
  8  7  1  0
  9  8  2  0
 10  9  1  0
 10 15  2  0
 11 10  1  0
 12 11  2  0
 12 13  1  0
 13 14  2  0
 14 15  1  0
 15  7  1  0
 16 11  1  0
 17 18  2  0
 18 19  1  0
 20 19  2  0
 21 20  1  0
 22 17  1  0
 22 21  2  0
  1 23  1  0
  2 24  1  0
  8 25  1  0
 13 26  1  0
 16 27  1  0
 16 28  1  0
 18 29  1  0
 19 30  1  0
 20 31  1  0
 21 32  1  0
M  ISO  8  23  14  24  14  25  14  26  14  29  14  30  14  31  14  32  14
M  END
>  <minimizedAffinity>  (1) 
-6.9231143

>  <minimizedRMSD>  (1) 
0.189907938

$$$$
