
     RDKit          3D

 28 31  0  0  0  0  0  0  0  0999 V2000
   47.1350   34.8520   41.9850 N   0  0  0  0  0  0  0  0  0  0  0  0
   48.3110   35.5060   41.8890 C   0  0  0  0  0  0  0  0  0  0  0  0
   48.8080   35.3200   40.6350 N   0  0  0  0  0  0  0  0  0  0  0  0
   47.9440   34.5510   39.9490 C   0  0  0  0  0  0  0  0  0  0  0  0
   47.9880   34.0840   38.6570 C   0  0  0  0  0  0  0  0  0  0  0  0
   46.9330   33.3110   38.2580 N   0  0  0  0  0  0  0  0  0  0  0  0
   45.9120   33.0250   39.0830 C   0  0  0  0  0  0  0  0  0  0  0  0
   45.8920   33.4990   40.3560 N   0  0  0  0  0  0  0  0  0  0  0  0
   46.8990   34.2610   40.8010 C   0  0  0  0  0  0  0  0  0  0  0  0
   49.0730   34.3890   37.7860 N   0  0  0  0  0  0  0  0  0  0  0  0
   44.5440   35.7820   44.4320 C   0  0  0  0  0  0  0  0  0  0  0  0
   45.3380   35.7710   43.2540 C   0  0  0  0  0  0  0  0  0  0  0  0
   46.3610   34.8450   43.1620 C   0  0  0  0  0  0  0  0  0  0  0  0
   46.5560   33.9810   44.2150 N   0  0  0  0  0  0  0  0  0  0  0  0
   45.7850   34.0210   45.3130 C   0  0  0  0  0  0  0  0  0  0  0  0
   44.7840   34.9050   45.4400 N   0  0  0  0  0  0  0  0  0  0  0  0
   46.0210   33.0890   46.4120 C   0  0  0  0  0  0  0  0  0  0  0  0
   46.9670   32.1710   46.6840 N   0  0  0  0  0  0  0  0  0  0  0  0
   46.7010   31.6020   47.8240 O   0  0  0  0  0  0  0  0  0  0  0  0
   45.5930   32.1230   48.3240 C   0  0  0  0  0  0  0  0  0  0  0  0
   45.1520   33.0580   47.4530 N   0  0  0  0  0  0  0  0  0  0  0  0
   48.7881   36.0910   42.6891 H   0  0  0  0  0  0  0  0  0  0  0  0
   45.0819   32.3993   38.7233 H   0  0  0  0  0  0  0  0  0  0  0  0
   49.0782   34.0246   36.8226 H   0  0  0  0  0  0  0  0  0  0  0  0
   49.8524   34.9740   38.1195 H   0  0  0  0  0  0  0  0  0  0  0  0
   43.7249   36.5099   44.5285 H   0  0  0  0  0  0  0  0  0  0  0  0
   45.1441   36.4807   42.4362 H   0  0  0  0  0  0  0  0  0  0  0  0
   45.1167   31.8458   49.2760 H   0  0  0  0  0  0  0  0  0  0  0  0
  1 13  1  0
  2  1  1  0
  3  2  2  0
  4  3  1  0
  4  9  2  0
  5  4  1  0
  6  5  2  0
  6  7  1  0
  7  8  2  0
  8  9  1  0
  9  1  1  0
 10  5  1  0
 11 16  2  0
 12 11  1  0
 13 12  2  0
 13 14  1  0
 14 15  2  0
 15 16  1  0
 15 17  1  0
 17 18  2  0
 17 21  1  0
 18 19  1  0
 19 20  1  0
 21 20  2  0
  2 22  1  0
  7 23  1  0
 10 24  1  0
 10 25  1  0
 11 26  1  0
 12 27  1  0
 20 28  1  0
M  ISO  5  22  14  23  14  26  14  27  14  28  14
M  END
>  <minimizedAffinity>  (1) 
-6.51066017

>  <minimizedRMSD>  (1) 
0.374749243

$$$$
