
     RDKit          3D

 30 33  0  0  0  0  0  0  0  0999 V2000
   47.0990   34.8620   41.9870 N   0  0  0  0  0  0  0  0  0  0  0  0
   48.2960   35.4950   41.9010 C   0  0  0  0  0  0  0  0  0  0  0  0
   48.7920   35.2840   40.6540 N   0  0  0  0  0  0  0  0  0  0  0  0
   47.9320   34.5370   39.9690 C   0  0  0  0  0  0  0  0  0  0  0  0
   47.9700   34.0520   38.6700 C   0  0  0  0  0  0  0  0  0  0  0  0
   46.8990   33.3030   38.2770 N   0  0  0  0  0  0  0  0  0  0  0  0
   45.8650   33.0460   39.0920 C   0  0  0  0  0  0  0  0  0  0  0  0
   45.8390   33.5270   40.3620 N   0  0  0  0  0  0  0  0  0  0  0  0
   46.8610   34.2670   40.8020 C   0  0  0  0  0  0  0  0  0  0  0  0
   49.0810   34.3320   37.8190 N   0  0  0  0  0  0  0  0  0  0  0  0
   44.5370   35.9500   44.4090 C   0  0  0  0  0  0  0  0  0  0  0  0
   45.3590   35.8780   43.2540 C   0  0  0  0  0  0  0  0  0  0  0  0
   46.3140   34.8810   43.1560 C   0  0  0  0  0  0  0  0  0  0  0  0
   46.4260   33.9950   44.1950 N   0  0  0  0  0  0  0  0  0  0  0  0
   45.6310   34.0910   45.2740 C   0  0  0  0  0  0  0  0  0  0  0  0
   44.6950   35.0420   45.4060 N   0  0  0  0  0  0  0  0  0  0  0  0
   45.8250   33.1080   46.3170 C   0  0  0  0  0  0  0  0  0  0  0  0
   45.2930   32.9570   47.5240 C   0  0  0  0  0  0  0  0  0  0  0  0
   45.6260   31.9320   48.3700 C   0  0  0  0  0  0  0  0  0  0  0  0
   46.6440   31.0290   47.7680 C   0  0  0  0  0  0  0  0  0  0  0  0
   46.9610   31.7410   46.1600 S   0  0  0  0  0  0  0  0  0  0  0  0
   48.7795   36.0764   42.6999 H   0  0  0  0  0  0  0  0  0  0  0  0
   45.0255   32.4365   38.7263 H   0  0  0  0  0  0  0  0  0  0  0  0
   49.0974   33.9661   36.8563 H   0  0  0  0  0  0  0  0  0  0  0  0
   49.8664   34.9000   38.1675 H   0  0  0  0  0  0  0  0  0  0  0  0
   43.7749   36.7384   44.4960 H   0  0  0  0  0  0  0  0  0  0  0  0
   45.2378   36.6100   42.4419 H   0  0  0  0  0  0  0  0  0  0  0  0
   44.5474   33.6918   47.8618 H   0  0  0  0  0  0  0  0  0  0  0  0
   45.1936   31.7935   49.3719 H   0  0  0  0  0  0  0  0  0  0  0  0
   47.0972   30.1299   48.2110 H   0  0  0  0  0  0  0  0  0  0  0  0
  1 13  1  0
  2  1  1  0
  3  2  2  0
  4  3  1  0
  4  9  2  0
  5  4  1  0
  6  5  2  0
  6  7  1  0
  7  8  2  0
  8  9  1  0
  9  1  1  0
 10  5  1  0
 11 16  2  0
 12 11  1  0
 13 12  2  0
 13 14  1  0
 14 15  2  0
 15 16  1  0
 15 17  1  0
 17 18  2  0
 18 19  1  0
 20 19  2  0
 21 17  1  0
 21 20  1  0
  2 22  1  0
  7 23  1  0
 10 24  1  0
 10 25  1  0
 11 26  1  0
 12 27  1  0
 18 28  1  0
 19 29  1  0
 20 30  1  0
M  ISO  7  22  14  23  14  26  14  27  14  28  14  29  14  30  14
M  END
>  <minimizedAffinity>  (1) 
-6.55109024

>  <minimizedRMSD>  (1) 
0.35692513

$$$$
