
     RDKit          3D

 30 33  0  0  0  0  0  0  0  0999 V2000
   47.0970   34.8700   41.9510 N   0  0  0  0  0  0  0  0  0  0  0  0
   48.3010   35.5070   41.8740 C   0  0  0  0  0  0  0  0  0  0  0  0
   48.8050   35.2920   40.6340 N   0  0  0  0  0  0  0  0  0  0  0  0
   47.9410   34.5370   39.9370 C   0  0  0  0  0  0  0  0  0  0  0  0
   47.9860   34.0500   38.6510 C   0  0  0  0  0  0  0  0  0  0  0  0
   46.9280   33.3040   38.2520 N   0  0  0  0  0  0  0  0  0  0  0  0
   45.8790   33.0450   39.0610 C   0  0  0  0  0  0  0  0  0  0  0  0
   45.8470   33.5340   40.3350 N   0  0  0  0  0  0  0  0  0  0  0  0
   46.8680   34.2730   40.7700 C   0  0  0  0  0  0  0  0  0  0  0  0
   49.0980   34.3260   37.7960 N   0  0  0  0  0  0  0  0  0  0  0  0
   44.5220   35.9240   44.3570 C   0  0  0  0  0  0  0  0  0  0  0  0
   45.3200   35.8740   43.1930 C   0  0  0  0  0  0  0  0  0  0  0  0
   46.3120   34.9020   43.1240 C   0  0  0  0  0  0  0  0  0  0  0  0
   46.4580   34.0510   44.1800 N   0  0  0  0  0  0  0  0  0  0  0  0
   45.6760   34.1260   45.2810 C   0  0  0  0  0  0  0  0  0  0  0  0
   44.7070   35.0610   45.3730 N   0  0  0  0  0  0  0  0  0  0  0  0
   46.0280   33.1070   46.2750 C   0  0  0  0  0  0  0  0  0  0  0  0
   46.9810   32.1260   46.4720 C   0  0  0  0  0  0  0  0  0  0  0  0
   46.6830   31.5300   47.6810 C   0  0  0  0  0  0  0  0  0  0  0  0
   45.5540   32.1800   48.1630 C   0  0  0  0  0  0  0  0  0  0  0  0
   45.2010   33.1020   47.3070 O   0  0  0  0  0  0  0  0  0  0  0  0
   48.7777   36.0909   42.6751 H   0  0  0  0  0  0  0  0  0  0  0  0
   45.0425   32.4344   38.6903 H   0  0  0  0  0  0  0  0  0  0  0  0
   49.1146   33.9530   36.8360 H   0  0  0  0  0  0  0  0  0  0  0  0
   49.8826   34.8978   38.1399 H   0  0  0  0  0  0  0  0  0  0  0  0
   43.7317   36.6852   44.4350 H   0  0  0  0  0  0  0  0  0  0  0  0
   45.1617   36.5822   42.3663 H   0  0  0  0  0  0  0  0  0  0  0  0
   47.8125   31.8705   45.7987 H   0  0  0  0  0  0  0  0  0  0  0  0
   47.2292   30.7068   48.1648 H   0  0  0  0  0  0  0  0  0  0  0  0
   45.0412   31.9554   49.1099 H   0  0  0  0  0  0  0  0  0  0  0  0
  1 13  1  0
  2  1  1  0
  3  2  2  0
  4  3  1  0
  4  9  2  0
  5  4  1  0
  6  5  2  0
  6  7  1  0
  7  8  2  0
  8  9  1  0
  9  1  1  0
 10  5  1  0
 11 16  2  0
 12 11  1  0
 13 12  2  0
 13 14  1  0
 14 15  2  0
 15 16  1  0
 15 17  1  0
 17 18  2  0
 17 21  1  0
 18 19  1  0
 19 20  2  0
 21 20  1  0
  2 22  1  0
  7 23  1  0
 10 24  1  0
 10 25  1  0
 11 26  1  0
 12 27  1  0
 18 28  1  0
 19 29  1  0
 20 30  1  0
M  ISO  7  22  14  23  14  26  14  27  14  28  14  29  14  30  14
M  END
>  <minimizedAffinity>  (1) 
-6.61871529

>  <minimizedRMSD>  (1) 
0.184924811

$$$$
