
     RDKit          3D

 26 28  0  0  0  0  0  0  0  0999 V2000
   47.1260   34.8490   41.9620 N   0  0  0  0  0  0  0  0  0  0  0  0
   48.3060   35.5110   41.8740 C   0  0  0  0  0  0  0  0  0  0  0  0
   48.8080   35.3290   40.6310 N   0  0  0  0  0  0  0  0  0  0  0  0
   47.9680   34.5670   39.9380 C   0  0  0  0  0  0  0  0  0  0  0  0
   47.9880   34.0790   38.6350 C   0  0  0  0  0  0  0  0  0  0  0  0
   46.9440   33.3130   38.2440 N   0  0  0  0  0  0  0  0  0  0  0  0
   45.9190   33.0250   39.0660 C   0  0  0  0  0  0  0  0  0  0  0  0
   45.8960   33.5020   40.3450 N   0  0  0  0  0  0  0  0  0  0  0  0
   46.9070   34.2650   40.7770 C   0  0  0  0  0  0  0  0  0  0  0  0
   49.0780   34.4110   37.7810 N   0  0  0  0  0  0  0  0  0  0  0  0
   44.5630   35.8780   44.3970 C   0  0  0  0  0  0  0  0  0  0  0  0
   45.3650   35.8440   43.2300 C   0  0  0  0  0  0  0  0  0  0  0  0
   46.3520   34.8480   43.1390 C   0  0  0  0  0  0  0  0  0  0  0  0
   46.4780   33.9830   44.1700 N   0  0  0  0  0  0  0  0  0  0  0  0
   45.7070   34.0300   45.2730 C   0  0  0  0  0  0  0  0  0  0  0  0
   44.7430   34.9810   45.3910 N   0  0  0  0  0  0  0  0  0  0  0  0
   45.8870   33.0520   46.3800 C   0  0  0  0  0  0  0  0  0  0  0  0
   45.6790   31.7610   45.8860 F   0  0  0  0  0  0  0  0  0  0  0  0
   47.1310   33.0600   46.9310 F   0  0  0  0  0  0  0  0  0  0  0  0
   44.9300   33.2980   47.3510 F   0  0  0  0  0  0  0  0  0  0  0  0
   48.7758   36.0971   42.6776 H   0  0  0  0  0  0  0  0  0  0  0  0
   45.0905   32.3985   38.7039 H   0  0  0  0  0  0  0  0  0  0  0  0
   49.1023   34.0549   36.8148 H   0  0  0  0  0  0  0  0  0  0  0  0
   49.8422   35.0073   38.1294 H   0  0  0  0  0  0  0  0  0  0  0  0
   43.7819   36.6463   44.4954 H   0  0  0  0  0  0  0  0  0  0  0  0
   45.2197   36.5743   42.4204 H   0  0  0  0  0  0  0  0  0  0  0  0
  1 13  1  0
  2  1  1  0
  3  2  2  0
  4  3  1  0
  4  9  2  0
  5  4  1  0
  6  5  2  0
  6  7  1  0
  7  8  2  0
  8  9  1  0
  9  1  1  0
 10  5  1  0
 11 16  2  0
 12 11  1  0
 13 12  2  0
 13 14  1  0
 14 15  2  0
 15 16  1  0
 15 17  1  0
 17 19  1  0
 17 20  1  0
 18 17  1  0
  2 21  1  0
  7 22  1  0
 10 23  1  0
 10 24  1  0
 11 25  1  0
 12 26  1  0
M  ISO  4  21  14  22  14  25  14  26  14
M  END
>  <minimizedAffinity>  (1) 
-6.41702032

>  <minimizedRMSD>  (1) 
0.131162256

$$$$
