
     RDKit          3D

 45 48  0  0  1  0  0  0  0  0999 V2000
   45.6420   33.7300   43.5620 C   0  0  0  0  0  0  0  0  0  0  0  0
   46.7500   32.8700   43.6710 C   0  0  0  0  0  0  0  0  0  0  0  0
   47.2050   32.5190   44.9560 C   0  0  0  0  0  0  0  0  0  0  0  0
   46.5660   33.0170   46.0280 N   0  0  0  0  0  0  0  0  0  0  0  0
   45.5180   33.8320   45.9330 C   0  0  0  0  0  0  0  0  0  0  0  0
   45.0740   34.1730   44.7170 N   0  0  0  0  0  0  0  0  0  0  0  0
   45.0790   34.2090   42.3520 C   0  0  0  0  0  0  0  0  0  0  0  0
   43.7800   33.4370   41.9760 C   0  0  0  0  0  0  0  0  0  0  0  0
   43.2420   34.3930   40.8770 C   0  0  0  0  0  0  0  0  0  0  0  0
   43.7060   35.7530   41.2830 C   0  0  0  0  0  0  0  0  0  0  0  0
   44.4900   35.5870   42.5680 C   0  0  0  0  0  0  0  0  0  0  0  0
   47.3970   32.3510   42.4460 C   0  0  1  0  0  0  0  0  0  0  0  0
   46.5760   31.3400   41.7360 C   0  0  0  0  0  0  0  0  0  0  0  0
   47.9720   33.4670   41.6750 C   0  0  0  0  0  0  0  0  0  0  0  0
   48.7390   32.8810   40.5260 N   0  0  0  0  0  0  0  0  0  0  0  0
   49.7760   32.0030   40.6530 C   0  0  0  0  0  0  0  0  0  0  0  0
   50.2440   31.6620   39.4400 N   0  0  0  0  0  0  0  0  0  0  0  0
   49.5360   32.2970   38.5030 C   0  0  0  0  0  0  0  0  0  0  0  0
   49.5150   32.3740   37.1250 C   0  0  0  0  0  0  0  0  0  0  0  0
   48.6060   33.1650   36.5090 N   0  0  0  0  0  0  0  0  0  0  0  0
   47.7180   33.8810   37.2360 C   0  0  0  0  0  0  0  0  0  0  0  0
   47.7160   33.8240   38.5720 N   0  0  0  0  0  0  0  0  0  0  0  0
   48.6110   33.0450   39.1910 C   0  0  0  0  0  0  0  0  0  0  0  0
   50.4700   31.6030   36.3990 N   0  0  0  0  0  0  0  0  0  0  0  0
   48.0684   31.8489   45.0804 H   0  0  0  0  0  0  0  0  0  0  0  0
   45.0255   34.2184   46.8375 H   0  0  0  0  0  0  0  0  0  0  0  0
   45.8893   34.1339   41.6119 H   0  0  0  0  0  0  0  0  0  0  0  0
   43.9959   32.4334   41.5807 H   0  0  0  0  0  0  0  0  0  0  0  0
   43.0900   33.2362   42.8088 H   0  0  0  0  0  0  0  0  0  0  0  0
   42.1434   34.3558   40.8369 H   0  0  0  0  0  0  0  0  0  0  0  0
   43.6044   34.1157   39.8761 H   0  0  0  0  0  0  0  0  0  0  0  0
   44.3492   36.1821   40.5006 H   0  0  0  0  0  0  0  0  0  0  0  0
   42.8530   36.4322   41.4281 H   0  0  0  0  0  0  0  0  0  0  0  0
   43.8344   35.6152   43.4508 H   0  0  0  0  0  0  0  0  0  0  0  0
   45.2298   36.3780   42.7605 H   0  0  0  0  0  0  0  0  0  0  0  0
   48.2697   31.7309   42.6988 H   0  0  0  0  0  0  0  0  0  0  0  0
   46.0601   30.7047   42.4711 H   0  0  0  0  0  0  0  0  0  0  0  0
   45.8323   31.8489   41.1052 H   0  0  0  0  0  0  0  0  0  0  0  0
   47.2267   30.7166   41.1052 H   0  0  0  0  0  0  0  0  0  0  0  0
   47.1674   34.1147   41.2967 H   0  0  0  0  0  0  0  0  0  0  0  0
   48.6341   34.0733   42.3106 H   0  0  0  0  0  0  0  0  0  0  0  0
   50.1713   31.6288   41.6089 H   0  0  0  0  0  0  0  0  0  0  0  0
   46.9862   34.5200   36.7202 H   0  0  0  0  0  0  0  0  0  0  0  0
   50.4833   31.6362   35.3696 H   0  0  0  0  0  0  0  0  0  0  0  0
   51.1465   31.0129   36.9040 H   0  0  0  0  0  0  0  0  0  0  0  0
  1  2  1  0
  1  6  2  0
  2  3  2  0
  3  4  1  0
  5  4  2  0
  6  5  1  0
  7 11  1  0
  7  1  1  0
  8  7  1  0
  9 10  1  0
  9  8  1  0
 10 11  1  0
 12  2  1  0
 13 12  1  0
 14 12  1  0
 15 16  1  0
 15 14  1  0
 17 16  2  0
 18 23  2  0
 18 17  1  0
 19 18  1  0
 20 19  2  0
 20 21  1  0
 21 22  2  0
 22 23  1  0
 23 15  1  0
 24 19  1  0
  3 25  1  0
  5 26  1  0
  7 27  1  0
  8 28  1  0
  8 29  1  0
  9 30  1  0
  9 31  1  0
 10 32  1  0
 10 33  1  0
 11 34  1  0
 11 35  1  0
 12 36  1  1
 13 37  1  0
 13 38  1  0
 13 39  1  0
 14 40  1  0
 14 41  1  0
 16 42  1  0
 21 43  1  0
 24 44  1  0
 24 45  1  0
M  ISO  8  25  14  26  14  27  13  28  13  29  13  30  13  31  13  32  13
M  ISO  8  33  13  34  13  35  13  36   8  37   8  38   8  39   8  40   8
M  ISO  3  41   8  42  14  43  14
M  END
>  <minimizedAffinity>  (1) 
-5.0388484

>  <minimizedRMSD>  (1) 
0.553526402

$$$$
