
     RDKit          3D

 26 28  0  0  0  0  0  0  0  0999 V2000
   47.2710   34.8240   41.9060 N   0  0  0  0  0  0  0  0  0  0  0  0
   48.4120   35.5710   41.8230 C   0  0  0  0  0  0  0  0  0  0  0  0
   48.8880   35.4730   40.5590 N   0  0  0  0  0  0  0  0  0  0  0  0
   48.0690   34.6830   39.8580 C   0  0  0  0  0  0  0  0  0  0  0  0
   48.0970   34.2610   38.5360 C   0  0  0  0  0  0  0  0  0  0  0  0
   47.0930   33.4450   38.1330 N   0  0  0  0  0  0  0  0  0  0  0  0
   46.1060   33.0520   38.9690 C   0  0  0  0  0  0  0  0  0  0  0  0
   46.0880   33.4750   40.2690 N   0  0  0  0  0  0  0  0  0  0  0  0
   47.0560   34.2760   40.7030 C   0  0  0  0  0  0  0  0  0  0  0  0
   49.1310   34.6760   37.6570 N   0  0  0  0  0  0  0  0  0  0  0  0
   44.6710   35.5620   44.4220 C   0  0  0  0  0  0  0  0  0  0  0  0
   45.4560   35.6040   43.2380 C   0  0  0  0  0  0  0  0  0  0  0  0
   46.5370   34.7260   43.1040 C   0  0  0  0  0  0  0  0  0  0  0  0
   46.7870   33.8660   44.1230 N   0  0  0  0  0  0  0  0  0  0  0  0
   46.0260   33.8480   45.2330 C   0  0  0  0  0  0  0  0  0  0  0  0
   44.9810   34.6710   45.4040 N   0  0  0  0  0  0  0  0  0  0  0  0
   46.3520   32.8940   46.2920 C   0  0  0  0  0  0  0  0  0  0  0  0
   45.8680   31.7460   46.3780 O   0  0  0  0  0  0  0  0  0  0  0  0
   47.2490   33.2220   47.3020 O   0  0  0  0  0  0  0  0  0  0  0  0
   48.8651   36.1510   42.6405 H   0  0  0  0  0  0  0  0  0  0  0  0
   45.3112   32.3868   38.6005 H   0  0  0  0  0  0  0  0  0  0  0  0
   49.1360   34.3530   36.6790 H   0  0  0  0  0  0  0  0  0  0  0  0
   49.8764   35.3002   37.9971 H   0  0  0  0  0  0  0  0  0  0  0  0
   43.8178   36.2454   44.5445 H   0  0  0  0  0  0  0  0  0  0  0  0
   45.2165   36.3183   42.4365 H   0  0  0  0  0  0  0  0  0  0  0  0
   47.4582   32.5637   48.0113 H   0  0  0  0  0  0  0  0  0  0  0  0
  1 13  1  0
  2  1  1  0
  3  2  2  0
  4  3  1  0
  4  9  2  0
  5  4  1  0
  6  5  2  0
  6  7  1  0
  7  8  2  0
  8  9  1  0
  9  1  1  0
 10  5  1  0
 11 16  2  0
 12 11  1  0
 13 12  2  0
 13 14  1  0
 14 15  2  0
 15 16  1  0
 15 17  1  0
 17 18  2  0
 17 19  1  0
  2 20  1  0
  7 21  1  0
 10 22  1  0
 10 23  1  0
 11 24  1  0
 12 25  1  0
 19 26  1  0
M  ISO  5  20  14  21  14  24  14  25  14  26   3
M  END
>  <minimizedAffinity>  (1) 
-6.41275978

>  <minimizedRMSD>  (1) 
0.334227741

$$$$
