
     RDKit          3D

 35 37  0  0  0  0  0  0  0  0999 V2000
   47.0110   34.7040   42.2120 N   0  0  0  0  0  0  0  0  0  0  0  0
   48.1770   35.3710   42.0870 C   0  0  0  0  0  0  0  0  0  0  0  0
   48.6180   35.2020   40.8100 N   0  0  0  0  0  0  0  0  0  0  0  0
   47.7500   34.4460   40.1470 C   0  0  0  0  0  0  0  0  0  0  0  0
   47.7530   34.0030   38.8430 C   0  0  0  0  0  0  0  0  0  0  0  0
   46.6870   33.2290   38.4720 N   0  0  0  0  0  0  0  0  0  0  0  0
   45.6950   32.9200   39.3270 C   0  0  0  0  0  0  0  0  0  0  0  0
   45.7150   33.3720   40.6140 N   0  0  0  0  0  0  0  0  0  0  0  0
   46.7400   34.1330   41.0240 C   0  0  0  0  0  0  0  0  0  0  0  0
   48.7980   34.3270   37.9390 N   0  0  0  0  0  0  0  0  0  0  0  0
   44.6120   35.6410   44.8310 C   0  0  0  0  0  0  0  0  0  0  0  0
   45.3450   35.6800   43.6170 C   0  0  0  0  0  0  0  0  0  0  0  0
   46.2730   34.6690   43.4280 C   0  0  0  0  0  0  0  0  0  0  0  0
   46.4390   33.7030   44.3910 N   0  0  0  0  0  0  0  0  0  0  0  0
   45.7150   33.7110   45.5310 C   0  0  0  0  0  0  0  0  0  0  0  0
   44.8020   34.6730   45.7590 N   0  0  0  0  0  0  0  0  0  0  0  0
   45.9500   32.6430   46.5140 C   0  0  0  0  0  0  0  0  0  0  0  0
   45.8610   31.2500   45.9210 C   0  0  0  0  0  0  0  0  0  0  0  0
   45.0110   32.8210   47.6860 C   0  0  0  0  0  0  0  0  0  0  0  0
   47.3610   32.7390   47.1050 C   0  0  0  0  0  0  0  0  0  0  0  0
   48.6814   35.9483   42.8759 H   0  0  0  0  0  0  0  0  0  0  0  0
   44.8573   32.2950   38.9839 H   0  0  0  0  0  0  0  0  0  0  0  0
   48.7676   33.9782   36.9703 H   0  0  0  0  0  0  0  0  0  0  0  0
   49.5868   34.9110   38.2516 H   0  0  0  0  0  0  0  0  0  0  0  0
   43.8638   36.4236   45.0252 H   0  0  0  0  0  0  0  0  0  0  0  0
   45.1853   36.4691   42.8675 H   0  0  0  0  0  0  0  0  0  0  0  0
   45.8136   30.5085   46.7322 H   0  0  0  0  0  0  0  0  0  0  0  0
   44.9561   31.1728   45.3004 H   0  0  0  0  0  0  0  0  0  0  0  0
   46.7487   31.0583   45.3004 H   0  0  0  0  0  0  0  0  0  0  0  0
   45.5730   32.7145   48.6256 H   0  0  0  0  0  0  0  0  0  0  0  0
   44.5558   33.8214   47.6425 H   0  0  0  0  0  0  0  0  0  0  0  0
   44.2212   32.0566   47.6425 H   0  0  0  0  0  0  0  0  0  0  0  0
   47.2996   32.7348   48.2033 H   0  0  0  0  0  0  0  0  0  0  0  0
   47.9590   31.8795   46.7679 H   0  0  0  0  0  0  0  0  0  0  0  0
   47.8370   33.6716   46.7679 H   0  0  0  0  0  0  0  0  0  0  0  0
  1 13  1  0
  2  1  1  0
  3  2  2  0
  4  3  1  0
  4  9  2  0
  5  4  1  0
  6  5  2  0
  6  7  1  0
  7  8  2  0
  8  9  1  0
  9  1  1  0
 10  5  1  0
 11 16  2  0
 12 11  1  0
 13 12  2  0
 13 14  1  0
 14 15  2  0
 15 16  1  0
 15 17  1  0
 17 20  1  0
 17 19  1  0
 18 17  1  0
  2 21  1  0
  7 22  1  0
 10 23  1  0
 10 24  1  0
 11 25  1  0
 12 26  1  0
 18 27  1  0
 18 28  1  0
 18 29  1  0
 19 30  1  0
 19 31  1  0
 19 32  1  0
 20 33  1  0
 20 34  1  0
 20 35  1  0
M  ISO  8  21  14  22  14  25  14  26  14  27   8  28   8  29   8  30   8
M  ISO  5  31   8  32   8  33   8  34   8  35   8
M  END
>  <minimizedAffinity>  (1) 
-5.72141218

>  <minimizedRMSD>  (1) 
0.464628994

$$$$
