
     RDKit          3D

 24 26  0  0  0  0  0  0  0  0999 V2000
   47.1570   34.8470   41.9240 N   0  0  0  0  0  0  0  0  0  0  0  0
   48.3310   35.5270   41.8370 C   0  0  0  0  0  0  0  0  0  0  0  0
   48.8180   35.3460   40.5780 N   0  0  0  0  0  0  0  0  0  0  0  0
   47.9750   34.5770   39.8980 C   0  0  0  0  0  0  0  0  0  0  0  0
   48.0140   34.1090   38.5970 C   0  0  0  0  0  0  0  0  0  0  0  0
   46.9720   33.3260   38.2030 N   0  0  0  0  0  0  0  0  0  0  0  0
   45.9580   33.0220   39.0280 C   0  0  0  0  0  0  0  0  0  0  0  0
   45.9230   33.4870   40.3100 N   0  0  0  0  0  0  0  0  0  0  0  0
   46.9330   34.2620   40.7370 C   0  0  0  0  0  0  0  0  0  0  0  0
   49.0940   34.4350   37.7290 N   0  0  0  0  0  0  0  0  0  0  0  0
   44.6060   35.7970   44.4010 C   0  0  0  0  0  0  0  0  0  0  0  0
   45.3950   35.7890   43.2290 C   0  0  0  0  0  0  0  0  0  0  0  0
   46.3850   34.8270   43.1120 C   0  0  0  0  0  0  0  0  0  0  0  0
   46.5520   33.9300   44.1380 N   0  0  0  0  0  0  0  0  0  0  0  0
   45.7750   33.9730   45.2420 C   0  0  0  0  0  0  0  0  0  0  0  0
   44.8040   34.8970   45.3840 N   0  0  0  0  0  0  0  0  0  0  0  0
   46.0230   32.7910   46.5530 S   0  0  0  0  0  0  0  0  0  0  0  0
   48.8019   36.1162   42.6377 H   0  0  0  0  0  0  0  0  0  0  0  0
   45.1387   32.3851   38.6631 H   0  0  0  0  0  0  0  0  0  0  0  0
   49.1049   34.0767   36.7634 H   0  0  0  0  0  0  0  0  0  0  0  0
   49.8647   35.0292   38.0665 H   0  0  0  0  0  0  0  0  0  0  0  0
   43.8146   36.5527   44.5132 H   0  0  0  0  0  0  0  0  0  0  0  0
   45.2277   36.5270   42.4306 H   0  0  0  0  0  0  0  0  0  0  0  0
   45.8915   33.4179   47.7640 H   0  0  0  0  0  0  0  0  0  0  0  0
  1 13  1  0
  2  1  1  0
  3  2  2  0
  4  3  1  0
  4  9  2  0
  5  4  1  0
  6  5  2  0
  6  7  1  0
  7  8  2  0
  8  9  1  0
  9  1  1  0
 10  5  1  0
 11 16  2  0
 12 11  1  0
 13 12  2  0
 13 14  1  0
 14 15  2  0
 15 16  1  0
 15 17  1  0
  2 18  1  0
  7 19  1  0
 10 20  1  0
 10 21  1  0
 11 22  1  0
 12 23  1  0
 17 24  1  0
M  ISO  5  18  14  19  14  22  14  23  14  24  11
M  END
>  <minimizedAffinity>  (1) 
-5.72126484

>  <minimizedRMSD>  (1) 
0.0685941428

$$$$
