
     RDKit          3D

 45 50  0  0  1  0  0  0  0  0999 V2000
   44.6150   36.2090   44.4870 C   0  0  0  0  0  0  0  0  0  0  0  0
   45.2960   36.0110   43.2560 C   0  0  0  0  0  0  0  0  0  0  0  0
   46.0590   34.8450   43.1150 C   0  0  0  0  0  0  0  0  0  0  0  0
   46.0810   34.0140   44.1600 N   0  0  0  0  0  0  0  0  0  0  0  0
   45.4520   34.1870   45.3080 C   0  0  0  0  0  0  0  0  0  0  0  0
   44.7100   35.2910   45.4870 N   0  0  0  0  0  0  0  0  0  0  0  0
   45.6720   33.1130   46.2190 N   0  0  0  0  0  0  0  0  0  0  0  0
   45.1560   32.8400   47.4290 C   0  0  0  0  0  0  0  0  0  0  0  0
   45.7270   31.6490   47.8490 C   0  0  0  0  0  0  0  0  0  0  0  0
   46.5640   31.2580   46.8690 N   0  0  0  0  0  0  0  0  0  0  0  0
   46.5260   32.1560   45.8760 C   0  0  0  0  0  0  0  0  0  0  0  0
   47.3850   31.8140   44.8010 N   0  0  0  0  0  0  0  0  0  0  0  0
   47.7430   30.5080   44.7020 C   0  0  0  0  0  0  0  0  0  0  0  0
   48.5730   30.0470   43.7020 C   0  0  0  0  0  0  0  0  0  0  0  0
   48.9250   28.6010   43.6520 C   0  0  0  0  0  0  0  0  0  0  0  0
   49.0610   30.9390   42.7670 C   0  0  0  0  0  0  0  0  0  0  0  0
   49.8190   30.5430   41.8480 O   0  0  0  0  0  0  0  0  0  0  0  0
   48.6880   32.2440   42.8870 N   0  0  0  0  0  0  0  0  0  0  0  0
   47.8740   32.6730   43.8730 C   0  0  0  0  0  0  0  0  0  0  0  0
   47.5310   33.8750   43.9840 O   0  0  0  0  0  0  0  0  0  0  0  0
   46.7190   34.6810   41.8860 N   0  0  0  0  0  0  0  0  0  0  0  0
   47.8990   35.3010   41.6060 C   0  0  0  0  0  0  0  0  0  0  0  0
   48.2920   34.9560   40.3580 N   0  0  0  0  0  0  0  0  0  0  0  0
   47.3810   34.1290   39.8390 C   0  0  0  0  0  0  0  0  0  0  0  0
   47.2850   33.4930   38.6260 C   0  0  0  0  0  0  0  0  0  0  0  0
   46.2000   32.7070   38.4270 N   0  0  0  0  0  0  0  0  0  0  0  0
   45.2540   32.5440   39.3500 C   0  0  0  0  0  0  0  0  0  0  0  0
   45.3430   33.1750   40.5630 N   0  0  0  0  0  0  0  0  0  0  0  0
   46.4050   33.9680   40.8090 C   0  0  0  0  0  0  0  0  0  0  0  0
   48.2830   33.6760   37.6230 N   0  0  0  0  0  0  0  0  0  0  0  0
   44.0052   37.1128   44.6331 H   0  0  0  0  0  0  0  0  0  0  0  0
   45.2265   36.7477   42.4421 H   0  0  0  0  0  0  0  0  0  0  0  0
   46.9375   35.3713   43.5165 H   0  0  0  0  0  0  0  0  0  0  0  0
   44.4215   33.4454   47.9804 H   0  0  0  0  0  0  0  0  0  0  0  0
   45.5343   31.1256   48.7971 H   0  0  0  0  0  0  0  0  0  0  0  0
   47.3579   29.7936   45.4446 H   0  0  0  0  0  0  0  0  0  0  0  0
   49.0199   28.2111   44.6762 H   0  0  0  0  0  0  0  0  0  0  0  0
   48.1349   28.0494   43.1214 H   0  0  0  0  0  0  0  0  0  0  0  0
   49.8802   28.4743   43.1214 H   0  0  0  0  0  0  0  0  0  0  0  0
   49.0400   32.9267   42.2007 H   0  0  0  0  0  0  0  0  0  0  0  0
   48.7487   32.8636   44.5122 H   0  0  0  0  0  0  0  0  0  0  0  0
   48.4443   35.9734   42.2846 H   0  0  0  0  0  0  0  0  0  0  0  0
   44.3915   31.8956   39.1362 H   0  0  0  0  0  0  0  0  0  0  0  0
   48.1979   33.1924   36.7176 H   0  0  0  0  0  0  0  0  0  0  0  0
   49.0886   34.2917   37.8043 H   0  0  0  0  0  0  0  0  0  0  0  0
  1  6  1  0
  2  1  2  0
  3 21  1  0
  3  2  1  0
  3  4  1  0
  4  5  1  0
  5  6  2  0
  5  7  1  0
  7  8  1  0
  8  9  2  0
 10  9  1  0
 11  7  1  0
 11 10  2  0
 12 11  1  0
 13 12  1  0
 14 13  2  0
 15 14  1  0
 16 18  1  0
 16 14  1  0
 17 16  2  0
 18 19  1  0
 19 20  1  0
 19 12  1  0
 20  4  1  0
 22 21  1  0
 23 22  2  0
 24 23  1  0
 24 29  2  0
 25 24  1  0
 26 25  2  0
 26 27  1  0
 27 28  2  0
 28 29  1  0
 29 21  1  0
 30 25  1  0
  1 31  1  0
  2 32  1  0
  3 33  1  0
  8 34  1  0
  9 35  1  0
 13 36  1  0
 15 37  1  0
 15 38  1  0
 15 39  1  0
 18 40  1  0
 19 41  1  0
 22 42  1  0
 27 43  1  0
 30 44  1  0
 30 45  1  0
M  ISO  8  31  13  32  13  33  13  34  14  35  14  36  13  37   8  38   8
M  ISO  5  39   8  40  10  41  13  42  14  43  14
M  END
>  <minimizedAffinity>  (1) 
-7.33254957

>  <minimizedRMSD>  (1) 
0.758774459

$$$$
