
     RDKit          3D

 30 33  0  0  0  0  0  0  0  0999 V2000
   47.0900   34.8560   41.9840 N   0  0  0  0  0  0  0  0  0  0  0  0
   48.2940   35.4960   41.8950 C   0  0  0  0  0  0  0  0  0  0  0  0
   48.8000   35.2950   40.6600 N   0  0  0  0  0  0  0  0  0  0  0  0
   47.9350   34.5380   39.9600 C   0  0  0  0  0  0  0  0  0  0  0  0
   47.9750   34.0560   38.6700 C   0  0  0  0  0  0  0  0  0  0  0  0
   46.9110   33.3050   38.2750 N   0  0  0  0  0  0  0  0  0  0  0  0
   45.8780   33.0450   39.0900 C   0  0  0  0  0  0  0  0  0  0  0  0
   45.8490   33.5260   40.3640 N   0  0  0  0  0  0  0  0  0  0  0  0
   46.8770   34.2740   40.8020 C   0  0  0  0  0  0  0  0  0  0  0  0
   49.0750   34.3410   37.8140 N   0  0  0  0  0  0  0  0  0  0  0  0
   44.5310   35.9520   44.3940 C   0  0  0  0  0  0  0  0  0  0  0  0
   45.3410   35.8890   43.2280 C   0  0  0  0  0  0  0  0  0  0  0  0
   46.3130   34.8780   43.1550 C   0  0  0  0  0  0  0  0  0  0  0  0
   46.4220   34.0240   44.1970 N   0  0  0  0  0  0  0  0  0  0  0  0
   45.6470   34.1040   45.2860 C   0  0  0  0  0  0  0  0  0  0  0  0
   44.7020   35.0540   45.4030 N   0  0  0  0  0  0  0  0  0  0  0  0
   45.9640   33.0890   46.2320 N   0  0  0  0  0  0  0  0  0  0  0  0
   45.4450   32.7020   47.3990 C   0  0  0  0  0  0  0  0  0  0  0  0
   46.2030   31.6270   47.8710 C   0  0  0  0  0  0  0  0  0  0  0  0
   47.1730   31.4050   46.9440 N   0  0  0  0  0  0  0  0  0  0  0  0
   47.0280   32.2910   45.9520 C   0  0  0  0  0  0  0  0  0  0  0  0
   48.7716   36.0783   42.6968 H   0  0  0  0  0  0  0  0  0  0  0  0
   45.0405   32.4333   38.7235 H   0  0  0  0  0  0  0  0  0  0  0  0
   49.0882   33.9723   36.8523 H   0  0  0  0  0  0  0  0  0  0  0  0
   49.8582   34.9160   38.1559 H   0  0  0  0  0  0  0  0  0  0  0  0
   43.7603   36.7319   44.4820 H   0  0  0  0  0  0  0  0  0  0  0  0
   45.2106   36.6101   42.4077 H   0  0  0  0  0  0  0  0  0  0  0  0
   44.5745   33.1499   47.9006 H   0  0  0  0  0  0  0  0  0  0  0  0
   46.0461   31.0706   48.8069 H   0  0  0  0  0  0  0  0  0  0  0  0
   47.6646   32.3619   45.0577 H   0  0  0  0  0  0  0  0  0  0  0  0
  1 13  1  0
  2  1  1  0
  3  2  2  0
  4  3  1  0
  4  9  2  0
  5  4  1  0
  6  5  2  0
  6  7  1  0
  7  8  2  0
  8  9  1  0
  9  1  1  0
 10  5  1  0
 11 16  2  0
 12 11  1  0
 13 12  2  0
 13 14  1  0
 14 15  2  0
 15 16  1  0
 15 17  1  0
 17 18  1  0
 18 19  2  0
 20 19  1  0
 21 17  1  0
 21 20  2  0
  2 22  1  0
  7 23  1  0
 10 24  1  0
 10 25  1  0
 11 26  1  0
 12 27  1  0
 18 28  1  0
 19 29  1  0
 21 30  1  0
M  ISO  7  22  14  23  14  26  14  27  14  28  14  29  14  30  14
M  END
>  <minimizedAffinity>  (1) 
-6.729846

>  <minimizedRMSD>  (1) 
0.115661912

$$$$
