
     RDKit          3D

 37 41  0  0  0  0  0  0  0  0999 V2000
   44.7080   36.0680   44.5330 C   0  0  0  0  0  0  0  0  0  0  0  0
   45.4450   35.9860   43.3140 C   0  0  0  0  0  0  0  0  0  0  0  0
   46.2420   34.8360   43.1240 C   0  0  0  0  0  0  0  0  0  0  0  0
   46.2350   33.9280   44.1030 N   0  0  0  0  0  0  0  0  0  0  0  0
   45.5550   34.0020   45.2310 C   0  0  0  0  0  0  0  0  0  0  0  0
   44.7840   35.0760   45.4570 N   0  0  0  0  0  0  0  0  0  0  0  0
   45.7670   32.8770   46.0610 N   0  0  0  0  0  0  0  0  0  0  0  0
   45.2040   32.5110   47.2320 C   0  0  0  0  0  0  0  0  0  0  0  0
   45.7910   31.3080   47.6140 C   0  0  0  0  0  0  0  0  0  0  0  0
   46.6920   31.0070   46.6380 N   0  0  0  0  0  0  0  0  0  0  0  0
   46.6700   31.9670   45.6980 C   0  0  0  0  0  0  0  0  0  0  0  0
   47.5780   31.7210   44.6580 N   0  0  0  0  0  0  0  0  0  0  0  0
   48.3640   30.7030   44.2740 N   0  0  0  0  0  0  0  0  0  0  0  0
   49.0340   31.0450   43.1650 C   0  0  0  0  0  0  0  0  0  0  0  0
   48.6710   32.3320   42.8170 C   0  0  0  0  0  0  0  0  0  0  0  0
   47.7510   32.7220   43.7810 C   0  0  0  0  0  0  0  0  0  0  0  0
   46.9560   34.7780   41.9170 N   0  0  0  0  0  0  0  0  0  0  0  0
   48.1520   35.4350   41.7400 C   0  0  0  0  0  0  0  0  0  0  0  0
   48.5970   35.1960   40.4890 N   0  0  0  0  0  0  0  0  0  0  0  0
   47.6980   34.3940   39.8660 C   0  0  0  0  0  0  0  0  0  0  0  0
   47.6760   33.8590   38.5900 C   0  0  0  0  0  0  0  0  0  0  0  0
   46.6120   33.0860   38.2810 N   0  0  0  0  0  0  0  0  0  0  0  0
   45.6240   32.8460   39.1710 C   0  0  0  0  0  0  0  0  0  0  0  0
   45.6630   33.3800   40.4210 N   0  0  0  0  0  0  0  0  0  0  0  0
   46.7030   34.1570   40.7720 C   0  0  0  0  0  0  0  0  0  0  0  0
   48.7400   34.1360   37.6800 N   0  0  0  0  0  0  0  0  0  0  0  0
   44.0715   36.9441   44.7262 H   0  0  0  0  0  0  0  0  0  0  0  0
   45.3946   36.7823   42.5568 H   0  0  0  0  0  0  0  0  0  0  0  0
   44.4262   33.0610   47.7820 H   0  0  0  0  0  0  0  0  0  0  0  0
   45.5722   30.7211   48.5182 H   0  0  0  0  0  0  0  0  0  0  0  0
   49.7507   30.4096   42.6240 H   0  0  0  0  0  0  0  0  0  0  0  0
   49.0328   32.9205   41.9610 H   0  0  0  0  0  0  0  0  0  0  0  0
   47.2440   33.6974   43.8198 H   0  0  0  0  0  0  0  0  0  0  0  0
   48.6612   36.0531   42.4941 H   0  0  0  0  0  0  0  0  0  0  0  0
   44.7756   32.2092   38.8801 H   0  0  0  0  0  0  0  0  0  0  0  0
   48.7225   33.7372   36.7305 H   0  0  0  0  0  0  0  0  0  0  0  0
   49.5253   34.7347   37.9728 H   0  0  0  0  0  0  0  0  0  0  0  0
  1  6  2  0
  2  1  1  0
  3  2  2  0
  3  4  1  0
  4  5  2  0
  5  6  1  0
  5  7  1  0
  7  8  1  0
  8  9  2  0
 10  9  1  0
 11  7  1  0
 11 10  2  0
 12 11  1  0
 13 12  1  0
 14 13  2  0
 15 14  1  0
 15 16  2  0
 16 12  1  0
 17  3  1  0
 18 17  1  0
 19 18  2  0
 20 19  1  0
 20 25  2  0
 21 20  1  0
 22 21  2  0
 22 23  1  0
 23 24  2  0
 24 25  1  0
 25 17  1  0
 26 21  1  0
  1 27  1  0
  2 28  1  0
  8 29  1  0
  9 30  1  0
 14 31  1  0
 15 32  1  0
 16 33  1  0
 18 34  1  0
 23 35  1  0
 26 36  1  0
 26 37  1  0
M  ISO  8  27  14  28  14  29  14  30  14  31  14  32  14  33  14  34  14
M  ISO  1  35  14
M  END
>  <minimizedAffinity>  (1) 
-6.94337225

>  <minimizedRMSD>  (1) 
0.455272883

$$$$
