
     RDKit          3D

 37 41  0  0  0  0  0  0  0  0999 V2000
   44.7010   36.0970   44.4980 C   0  0  0  0  0  0  0  0  0  0  0  0
   45.4370   35.9870   43.2880 C   0  0  0  0  0  0  0  0  0  0  0  0
   46.2380   34.8430   43.1050 C   0  0  0  0  0  0  0  0  0  0  0  0
   46.2430   33.9420   44.0930 N   0  0  0  0  0  0  0  0  0  0  0  0
   45.5600   34.0370   45.2250 C   0  0  0  0  0  0  0  0  0  0  0  0
   44.7760   35.1210   45.4440 N   0  0  0  0  0  0  0  0  0  0  0  0
   45.7530   32.9320   46.0950 N   0  0  0  0  0  0  0  0  0  0  0  0
   45.2040   32.5680   47.2480 C   0  0  0  0  0  0  0  0  0  0  0  0
   45.7750   31.3380   47.6140 C   0  0  0  0  0  0  0  0  0  0  0  0
   46.6660   31.0280   46.6170 N   0  0  0  0  0  0  0  0  0  0  0  0
   46.6380   31.9990   45.7150 C   0  0  0  0  0  0  0  0  0  0  0  0
   47.5500   31.7310   44.6530 N   0  0  0  0  0  0  0  0  0  0  0  0
   48.2490   30.6770   44.2180 C   0  0  0  0  0  0  0  0  0  0  0  0
   48.9700   31.0990   43.0940 C   0  0  0  0  0  0  0  0  0  0  0  0
   48.6670   32.4140   42.8990 N   0  0  0  0  0  0  0  0  0  0  0  0
   47.7860   32.7920   43.8720 C   0  0  0  0  0  0  0  0  0  0  0  0
   46.9560   34.7790   41.9080 N   0  0  0  0  0  0  0  0  0  0  0  0
   48.1450   35.4490   41.7430 C   0  0  0  0  0  0  0  0  0  0  0  0
   48.6020   35.2090   40.4970 N   0  0  0  0  0  0  0  0  0  0  0  0
   47.7330   34.4020   39.8630 C   0  0  0  0  0  0  0  0  0  0  0  0
   47.7190   33.8590   38.5990 C   0  0  0  0  0  0  0  0  0  0  0  0
   46.6670   33.0720   38.2870 N   0  0  0  0  0  0  0  0  0  0  0  0
   45.6740   32.8210   39.1590 C   0  0  0  0  0  0  0  0  0  0  0  0
   45.6970   33.3640   40.4090 N   0  0  0  0  0  0  0  0  0  0  0  0
   46.7190   34.1500   40.7640 C   0  0  0  0  0  0  0  0  0  0  0  0
   48.7770   34.1350   37.6790 N   0  0  0  0  0  0  0  0  0  0  0  0
   44.0654   36.9778   44.6719 H   0  0  0  0  0  0  0  0  0  0  0  0
   45.3831   36.7707   42.5180 H   0  0  0  0  0  0  0  0  0  0  0  0
   44.4427   33.1266   47.8123 H   0  0  0  0  0  0  0  0  0  0  0  0
   45.5538   30.7454   48.5140 H   0  0  0  0  0  0  0  0  0  0  0  0
   48.2562   29.6695   44.6595 H   0  0  0  0  0  0  0  0  0  0  0  0
   49.6509   30.4864   42.4847 H   0  0  0  0  0  0  0  0  0  0  0  0
   47.3472   33.7934   43.9926 H   0  0  0  0  0  0  0  0  0  0  0  0
   48.6402   36.0753   42.4997 H   0  0  0  0  0  0  0  0  0  0  0  0
   44.8369   32.1725   38.8610 H   0  0  0  0  0  0  0  0  0  0  0  0
   48.7585   33.7243   36.7346 H   0  0  0  0  0  0  0  0  0  0  0  0
   49.5581   34.7447   37.9602 H   0  0  0  0  0  0  0  0  0  0  0  0
  1  6  2  0
  2  1  1  0
  3  2  2  0
  3  4  1  0
  4  5  2  0
  5  6  1  0
  5  7  1  0
  7  8  1  0
  8  9  2  0
 10  9  1  0
 11  7  1  0
 11 10  2  0
 12 11  1  0
 13 12  1  0
 14 13  2  0
 15 14  1  0
 15 16  2  0
 16 12  1  0
 17  3  1  0
 18 17  1  0
 19 18  2  0
 20 19  1  0
 20 25  2  0
 21 20  1  0
 22 21  2  0
 22 23  1  0
 23 24  2  0
 24 25  1  0
 25 17  1  0
 26 21  1  0
  1 27  1  0
  2 28  1  0
  8 29  1  0
  9 30  1  0
 13 31  1  0
 14 32  1  0
 16 33  1  0
 18 34  1  0
 23 35  1  0
 26 36  1  0
 26 37  1  0
M  ISO  8  27  14  28  14  29  14  30  14  31  14  32  14  33  14  34  14
M  ISO  1  35  14
M  END
>  <minimizedAffinity>  (1) 
-6.99619913

>  <minimizedRMSD>  (1) 
0.430228561

$$$$
