
     RDKit          3D

 33 36  0  0  0  0  0  0  0  0999 V2000
   44.5660   36.1430   44.4890 C   0  0  0  0  0  0  0  0  0  0  0  0
   45.3350   35.9980   43.3030 C   0  0  0  0  0  0  0  0  0  0  0  0
   46.1850   34.8930   43.2050 C   0  0  0  0  0  0  0  0  0  0  0  0
   46.2090   34.0520   44.2360 N   0  0  0  0  0  0  0  0  0  0  0  0
   45.4880   34.1830   45.3560 C   0  0  0  0  0  0  0  0  0  0  0  0
   44.6580   35.2360   45.4860 N   0  0  0  0  0  0  0  0  0  0  0  0
   45.7390   33.1200   46.2790 N   0  0  0  0  0  0  0  0  0  0  0  0
   45.1590   32.8150   47.4500 C   0  0  0  0  0  0  0  0  0  0  0  0
   45.7720   31.6340   47.8860 C   0  0  0  0  0  0  0  0  0  0  0  0
   46.6930   31.3070   46.9270 N   0  0  0  0  0  0  0  0  0  0  0  0
   46.6650   32.2060   45.9690 C   0  0  0  0  0  0  0  0  0  0  0  0
   46.9380   34.7930   42.0220 N   0  0  0  0  0  0  0  0  0  0  0  0
   48.1790   35.3750   41.9080 C   0  0  0  0  0  0  0  0  0  0  0  0
   48.6520   35.1250   40.6690 N   0  0  0  0  0  0  0  0  0  0  0  0
   47.7400   34.3970   39.9970 C   0  0  0  0  0  0  0  0  0  0  0  0
   47.7250   33.8820   38.7240 C   0  0  0  0  0  0  0  0  0  0  0  0
   46.6140   33.1730   38.3680 N   0  0  0  0  0  0  0  0  0  0  0  0
   45.5950   32.9850   39.2020 C   0  0  0  0  0  0  0  0  0  0  0  0
   45.6120   33.5000   40.4700 N   0  0  0  0  0  0  0  0  0  0  0  0
   46.6790   34.1990   40.8570 C   0  0  0  0  0  0  0  0  0  0  0  0
   48.8230   34.1110   37.8330 N   0  0  0  0  0  0  0  0  0  0  0  0
   47.6280   31.9680   44.8640 C   0  0  0  0  0  0  0  0  0  0  0  0
   43.8885   37.0029   44.5965 H   0  0  0  0  0  0  0  0  0  0  0  0
   45.2635   36.7326   42.4874 H   0  0  0  0  0  0  0  0  0  0  0  0
   44.3647   33.3775   47.9624 H   0  0  0  0  0  0  0  0  0  0  0  0
   45.5571   31.0806   48.8120 H   0  0  0  0  0  0  0  0  0  0  0  0
   48.6972   35.9463   42.6923 H   0  0  0  0  0  0  0  0  0  0  0  0
   44.7226   32.4050   38.8665 H   0  0  0  0  0  0  0  0  0  0  0  0
   48.8029   33.7208   36.8800 H   0  0  0  0  0  0  0  0  0  0  0  0
   49.6326   34.6659   38.1453 H   0  0  0  0  0  0  0  0  0  0  0  0
   48.6150   31.7241   45.2840 H   0  0  0  0  0  0  0  0  0  0  0  0
   47.2757   31.1299   44.2447 H   0  0  0  0  0  0  0  0  0  0  0  0
   47.7067   32.8737   44.2447 H   0  0  0  0  0  0  0  0  0  0  0  0
  1  6  2  0
  2  1  1  0
  3  2  2  0
  3  4  1  0
  4  5  2  0
  5  6  1  0
  5  7  1  0
  7  8  1  0
  8  9  2  0
 10  9  1  0
 11  7  1  0
 11 10  2  0
 12  3  1  0
 13 12  1  0
 14 13  2  0
 15 14  1  0
 15 20  2  0
 16 15  1  0
 17 16  2  0
 17 18  1  0
 18 19  2  0
 19 20  1  0
 20 12  1  0
 21 16  1  0
 22 11  1  0
  1 23  1  0
  2 24  1  0
  8 25  1  0
  9 26  1  0
 13 27  1  0
 18 28  1  0
 21 29  1  0
 21 30  1  0
 22 31  1  0
 22 32  1  0
 22 33  1  0
M  ISO  8  23  14  24  14  25  14  26  14  27  14  28  14  31   8  32   8
M  ISO  1  33   8
M  END
>  <minimizedAffinity>  (1) 
-6.58726597

>  <minimizedRMSD>  (1) 
0.285663545

$$$$
