
     RDKit          3D

 36 39  0  0  0  0  0  0  0  0999 V2000
   44.5600   36.1340   44.4960 C   0  0  0  0  0  0  0  0  0  0  0  0
   45.3260   35.9920   43.3080 C   0  0  0  0  0  0  0  0  0  0  0  0
   46.1840   34.8880   43.2080 C   0  0  0  0  0  0  0  0  0  0  0  0
   46.2180   34.0430   44.2430 N   0  0  0  0  0  0  0  0  0  0  0  0
   45.4960   34.1800   45.3620 C   0  0  0  0  0  0  0  0  0  0  0  0
   44.6660   35.2190   45.4980 N   0  0  0  0  0  0  0  0  0  0  0  0
   45.7420   33.1170   46.2870 N   0  0  0  0  0  0  0  0  0  0  0  0
   45.1580   32.8060   47.4500 C   0  0  0  0  0  0  0  0  0  0  0  0
   45.7660   31.6240   47.8810 C   0  0  0  0  0  0  0  0  0  0  0  0
   46.6940   31.2970   46.9280 N   0  0  0  0  0  0  0  0  0  0  0  0
   46.6790   32.1960   45.9730 C   0  0  0  0  0  0  0  0  0  0  0  0
   46.9330   34.7910   42.0260 N   0  0  0  0  0  0  0  0  0  0  0  0
   48.1770   35.3750   41.9140 C   0  0  0  0  0  0  0  0  0  0  0  0
   48.6530   35.1240   40.6730 N   0  0  0  0  0  0  0  0  0  0  0  0
   47.7410   34.3980   40.0060 C   0  0  0  0  0  0  0  0  0  0  0  0
   47.7230   33.8810   38.7290 C   0  0  0  0  0  0  0  0  0  0  0  0
   46.6270   33.1790   38.3660 N   0  0  0  0  0  0  0  0  0  0  0  0
   45.5920   32.9870   39.2040 C   0  0  0  0  0  0  0  0  0  0  0  0
   45.6220   33.5040   40.4660 N   0  0  0  0  0  0  0  0  0  0  0  0
   46.6860   34.2050   40.8660 C   0  0  0  0  0  0  0  0  0  0  0  0
   48.8260   34.0940   37.8380 N   0  0  0  0  0  0  0  0  0  0  0  0
   47.6490   31.9560   44.8730 C   0  0  0  0  0  0  0  0  0  0  0  0
   47.8680   30.5580   44.4540 C   0  0  0  0  0  0  0  0  0  0  0  0
   43.8768   36.9890   44.6068 H   0  0  0  0  0  0  0  0  0  0  0  0
   45.2482   36.7256   42.4920 H   0  0  0  0  0  0  0  0  0  0  0  0
   44.3619   33.3663   47.9622 H   0  0  0  0  0  0  0  0  0  0  0  0
   45.5435   31.0666   48.8028 H   0  0  0  0  0  0  0  0  0  0  0  0
   48.6936   35.9468   42.6990 H   0  0  0  0  0  0  0  0  0  0  0  0
   44.7171   32.4101   38.8697 H   0  0  0  0  0  0  0  0  0  0  0  0
   48.8016   33.7027   36.8855 H   0  0  0  0  0  0  0  0  0  0  0  0
   49.6427   34.6383   38.1504 H   0  0  0  0  0  0  0  0  0  0  0  0
   47.2943   32.5126   43.9930 H   0  0  0  0  0  0  0  0  0  0  0  0
   48.6185   32.2841   45.2761 H   0  0  0  0  0  0  0  0  0  0  0  0
   47.9680   29.9198   45.3443 H   0  0  0  0  0  0  0  0  0  0  0  0
   47.0123   30.2171   43.8527 H   0  0  0  0  0  0  0  0  0  0  0  0
   48.7870   30.4951   43.8527 H   0  0  0  0  0  0  0  0  0  0  0  0
  1  6  2  0
  2  1  1  0
  3  2  2  0
  3  4  1  0
  4  5  2  0
  5  6  1  0
  5  7  1  0
  7  8  1  0
  8  9  2  0
 10  9  1  0
 11  7  1  0
 11 10  2  0
 12  3  1  0
 13 12  1  0
 14 13  2  0
 15 14  1  0
 15 20  2  0
 16 15  1  0
 17 16  2  0
 17 18  1  0
 18 19  2  0
 19 20  1  0
 20 12  1  0
 21 16  1  0
 22 11  1  0
 23 22  1  0
  1 24  1  0
  2 25  1  0
  8 26  1  0
  9 27  1  0
 13 28  1  0
 18 29  1  0
 21 30  1  0
 21 31  1  0
 22 32  1  0
 22 33  1  0
 23 34  1  0
 23 35  1  0
 23 36  1  0
M  ISO  8  24  14  25  14  26  14  27  14  28  14  29  14  32   8  33   8
M  ISO  3  34   8  35   8  36   8
M  END
>  <minimizedAffinity>  (1) 
-6.3915329

>  <minimizedRMSD>  (1) 
0.539713502

$$$$
