
     RDKit          3D

 32 35  0  0  0  0  0  0  0  0999 V2000
   44.4810   36.1250   44.4520 C   0  0  0  0  0  0  0  0  0  0  0  0
   45.2680   35.9860   43.2770 C   0  0  0  0  0  0  0  0  0  0  0  0
   46.1690   34.9190   43.2180 C   0  0  0  0  0  0  0  0  0  0  0  0
   46.2120   34.1140   44.2830 N   0  0  0  0  0  0  0  0  0  0  0  0
   45.4900   34.2250   45.3840 C   0  0  0  0  0  0  0  0  0  0  0  0
   44.6150   35.2350   45.4770 N   0  0  0  0  0  0  0  0  0  0  0  0
   45.7760   33.2050   46.3240 N   0  0  0  0  0  0  0  0  0  0  0  0
   45.2040   32.8810   47.4990 C   0  0  0  0  0  0  0  0  0  0  0  0
   45.8890   31.7850   48.0110 C   0  0  0  0  0  0  0  0  0  0  0  0
   46.8600   31.4980   47.0980 N   0  0  0  0  0  0  0  0  0  0  0  0
   46.7820   32.3680   46.0760 C   0  0  0  0  0  0  0  0  0  0  0  0
   47.7580   32.1300   45.0960 N   0  0  0  0  0  0  0  0  0  0  0  0
   46.9290   34.8160   42.0400 N   0  0  0  0  0  0  0  0  0  0  0  0
   48.1720   35.3800   41.9270 C   0  0  0  0  0  0  0  0  0  0  0  0
   48.6530   35.1170   40.6920 N   0  0  0  0  0  0  0  0  0  0  0  0
   47.7430   34.3990   40.0210 C   0  0  0  0  0  0  0  0  0  0  0  0
   47.7450   33.8860   38.7490 C   0  0  0  0  0  0  0  0  0  0  0  0
   46.6360   33.1910   38.3770 N   0  0  0  0  0  0  0  0  0  0  0  0
   45.5930   33.0140   39.2080 C   0  0  0  0  0  0  0  0  0  0  0  0
   45.5990   33.5270   40.4680 N   0  0  0  0  0  0  0  0  0  0  0  0
   46.6770   34.2230   40.8800 C   0  0  0  0  0  0  0  0  0  0  0  0
   48.8470   34.0720   37.8720 N   0  0  0  0  0  0  0  0  0  0  0  0
   43.7615   36.9529   44.5352 H   0  0  0  0  0  0  0  0  0  0  0  0
   45.1713   36.6948   42.4414 H   0  0  0  0  0  0  0  0  0  0  0  0
   44.3499   33.3909   47.9685 H   0  0  0  0  0  0  0  0  0  0  0  0
   45.6892   31.2588   48.9561 H   0  0  0  0  0  0  0  0  0  0  0  0
   48.4266   31.3552   45.2125 H   0  0  0  0  0  0  0  0  0  0  0  0
   47.8057   32.7301   44.2602 H   0  0  0  0  0  0  0  0  0  0  0  0
   48.6916   35.9513   42.7103 H   0  0  0  0  0  0  0  0  0  0  0  0
   44.7185   32.4435   38.8620 H   0  0  0  0  0  0  0  0  0  0  0  0
   48.8215   33.6755   36.9217 H   0  0  0  0  0  0  0  0  0  0  0  0
   49.6715   34.6033   38.1864 H   0  0  0  0  0  0  0  0  0  0  0  0
  1  6  2  0
  2  1  1  0
  3  2  2  0
  3  4  1  0
  4  5  2  0
  5  6  1  0
  5  7  1  0
  7  8  1  0
  8  9  2  0
 10  9  1  0
 11  7  1  0
 11 10  2  0
 12 11  1  0
 13  3  1  0
 14 13  1  0
 15 14  2  0
 16 15  1  0
 16 21  2  0
 17 16  1  0
 18 17  2  0
 18 19  1  0
 19 20  2  0
 20 21  1  0
 21 13  1  0
 22 17  1  0
  1 23  1  0
  2 24  1  0
  8 25  1  0
  9 26  1  0
 12 27  1  0
 12 28  1  0
 14 29  1  0
 19 30  1  0
 22 31  1  0
 22 32  1  0
M  ISO  6  23  14  24  14  25  14  26  14  29  14  30  14
M  END
>  <minimizedAffinity>  (1) 
-6.58197308

>  <minimizedRMSD>  (1) 
0.265050083

$$$$
