
     RDKit          3D

 46 50  0  0  0  0  0  0  0  0999 V2000
   44.6640   36.2720   44.5760 C   0  0  0  0  0  0  0  0  0  0  0  0
   45.3980   36.0900   43.3720 C   0  0  0  0  0  0  0  0  0  0  0  0
   46.1210   34.9040   43.2250 C   0  0  0  0  0  0  0  0  0  0  0  0
   46.0590   34.0390   44.2340 N   0  0  0  0  0  0  0  0  0  0  0  0
   45.3950   34.1790   45.3520 C   0  0  0  0  0  0  0  0  0  0  0  0
   44.6820   35.3040   45.5440 N   0  0  0  0  0  0  0  0  0  0  0  0
   45.5410   33.0760   46.2400 N   0  0  0  0  0  0  0  0  0  0  0  0
   44.9440   32.7990   47.4080 C   0  0  0  0  0  0  0  0  0  0  0  0
   45.4290   31.5740   47.8360 C   0  0  0  0  0  0  0  0  0  0  0  0
   46.3080   31.1870   46.8700 N   0  0  0  0  0  0  0  0  0  0  0  0
   46.3760   32.0940   45.9080 C   0  0  0  0  0  0  0  0  0  0  0  0
   46.8510   34.7590   42.0340 N   0  0  0  0  0  0  0  0  0  0  0  0
   48.1090   35.2960   41.8870 C   0  0  0  0  0  0  0  0  0  0  0  0
   48.5570   35.0040   40.6400 N   0  0  0  0  0  0  0  0  0  0  0  0
   47.6100   34.2960   40.0020 C   0  0  0  0  0  0  0  0  0  0  0  0
   47.5680   33.7650   38.7400 C   0  0  0  0  0  0  0  0  0  0  0  0
   46.4350   33.0910   38.4100 N   0  0  0  0  0  0  0  0  0  0  0  0
   45.4070   32.9490   39.2690 C   0  0  0  0  0  0  0  0  0  0  0  0
   45.4670   33.4870   40.5220 N   0  0  0  0  0  0  0  0  0  0  0  0
   46.5620   34.1570   40.8870 C   0  0  0  0  0  0  0  0  0  0  0  0
   48.6410   33.9110   37.8270 N   0  0  0  0  0  0  0  0  0  0  0  0
   47.3280   31.7060   44.8720 C   0  0  0  0  0  0  0  0  0  0  0  0
   48.1780   30.5100   45.3700 C   0  0  0  0  0  0  0  0  0  0  0  0
   49.0310   29.9820   44.2520 C   0  0  0  0  0  0  0  0  0  0  0  0
   48.0280   29.2500   43.3640 C   0  0  0  0  0  0  0  0  0  0  0  0
   47.2460   30.3700   42.7260 C   0  0  0  0  0  0  0  0  0  0  0  0
   46.5220   31.2610   43.6660 C   0  0  0  0  0  0  0  0  0  0  0  0
   44.0808   37.1919   44.7300 H   0  0  0  0  0  0  0  0  0  0  0  0
   45.3965   36.8569   42.5834 H   0  0  0  0  0  0  0  0  0  0  0  0
   44.2066   33.4272   47.9292 H   0  0  0  0  0  0  0  0  0  0  0  0
   45.1625   31.0320   48.7554 H   0  0  0  0  0  0  0  0  0  0  0  0
   48.6585   35.8656   42.6509 H   0  0  0  0  0  0  0  0  0  0  0  0
   44.5100   32.3938   38.9574 H   0  0  0  0  0  0  0  0  0  0  0  0
   48.5758   33.4986   36.8854 H   0  0  0  0  0  0  0  0  0  0  0  0
   49.4865   34.4296   38.1046 H   0  0  0  0  0  0  0  0  0  0  0  0
   47.9946   32.5451   44.6238 H   0  0  0  0  0  0  0  0  0  0  0  0
   48.8248   30.8420   46.1955 H   0  0  0  0  0  0  0  0  0  0  0  0
   47.5065   29.7115   45.7186 H   0  0  0  0  0  0  0  0  0  0  0  0
   49.5166   30.8033   43.7046 H   0  0  0  0  0  0  0  0  0  0  0  0
   49.8494   29.3357   44.6020 H   0  0  0  0  0  0  0  0  0  0  0  0
   48.5434   28.6460   42.6027 H   0  0  0  0  0  0  0  0  0  0  0  0
   47.3933   28.5459   43.9220 H   0  0  0  0  0  0  0  0  0  0  0  0
   47.9491   30.9874   42.1476 H   0  0  0  0  0  0  0  0  0  0  0  0
   46.4718   29.8860   42.1125 H   0  0  0  0  0  0  0  0  0  0  0  0
   46.2094   32.1593   43.1134 H   0  0  0  0  0  0  0  0  0  0  0  0
   45.6773   30.6755   44.0580 H   0  0  0  0  0  0  0  0  0  0  0  0
  1  6  2  0
  2  1  1  0
  3  2  2  0
  3  4  1  0
  4  5  2  0
  5  6  1  0
  5  7  1  0
  7  8  1  0
  8  9  2  0
 10  9  1  0
 11  7  1  0
 11 10  2  0
 12  3  1  0
 13 12  1  0
 14 13  2  0
 15 14  1  0
 15 20  2  0
 16 15  1  0
 17 16  2  0
 17 18  1  0
 18 19  2  0
 19 20  1  0
 20 12  1  0
 21 16  1  0
 22 23  1  0
 22 11  1  0
 24 23  1  0
 25 24  1  0
 26 25  1  0
 26 27  1  0
 27 22  1  0
  1 28  1  0
  2 29  1  0
  8 30  1  0
  9 31  1  0
 13 32  1  0
 18 33  1  0
 21 34  1  0
 21 35  1  0
 22 36  1  0
 23 37  1  0
 23 38  1  0
 24 39  1  0
 24 40  1  0
 25 41  1  0
 25 42  1  0
 26 43  1  0
 26 44  1  0
 27 45  1  0
 27 46  1  0
M  ISO  8  28  14  29  14  30  14  31  14  32  14  33  14  36  13  37  13
M  ISO  8  38  13  39  13  40  13  41  13  42  13  43  13  44  13  45  13
M  ISO  1  46  13
M  END
>  <minimizedAffinity>  (1) 
-6.26646805

>  <minimizedRMSD>  (1) 
0.86835885

$$$$
