
     RDKit          3D

 19 19  0  0  0  0  0  0  0  0999 V2000
   44.6290   36.0790   44.3340 C   0  0  0  0  0  0  0  0  0  0  0  0
   45.4040   35.7940   43.1900 C   0  0  0  0  0  0  0  0  0  0  0  0
   46.2140   34.6430   43.2210 C   0  0  0  0  0  0  0  0  0  0  0  0
   46.1980   33.8830   44.3450 N   0  0  0  0  0  0  0  0  0  0  0  0
   45.4460   34.1810   45.4270 C   0  0  0  0  0  0  0  0  0  0  0  0
   44.6630   35.2730   45.4250 N   0  0  0  0  0  0  0  0  0  0  0  0
   47.0540   34.2800   42.0600 C   0  0  0  0  0  0  0  0  0  0  0  0
   48.1240   35.3400   41.9170 C   0  0  0  0  0  0  0  0  0  0  0  0
   46.2220   34.1910   40.7830 C   0  0  0  0  0  0  0  0  0  0  0  0
   43.9854   36.9710   44.3416 H   0  0  0  0  0  0  0  0  0  0  0  0
   45.3763   36.4476   42.3057 H   0  0  0  0  0  0  0  0  0  0  0  0
   45.4747   33.5281   46.3118 H   0  0  0  0  0  0  0  0  0  0  0  0
   47.5064   33.2905   42.2222 H   0  0  0  0  0  0  0  0  0  0  0  0
   48.4530   35.6659   42.9148 H   0  0  0  0  0  0  0  0  0  0  0  0
   48.9806   34.9243   41.3661 H   0  0  0  0  0  0  0  0  0  0  0  0
   47.7164   36.2005   41.3661 H   0  0  0  0  0  0  0  0  0  0  0  0
   45.1596   34.0774   41.0447 H   0  0  0  0  0  0  0  0  0  0  0  0
   46.3579   35.1088   40.1921 H   0  0  0  0  0  0  0  0  0  0  0  0
   46.5490   33.3227   40.1921 H   0  0  0  0  0  0  0  0  0  0  0  0
  1  6  2  0
  2  3  2  0
  2  1  1  0
  3  4  1  0
  4  5  2  0
  6  5  1  0
  7  3  1  0
  8  7  1  0
  9  7  1  0
  1 10  1  0
  2 11  1  0
  5 12  1  0
  7 13  1  0
  8 14  1  0
  8 15  1  0
  8 16  1  0
  9 17  1  0
  9 18  1  0
  9 19  1  0
M  ISO  8  10  14  11  14  12  14  13   8  14   8  15   8  16   8  17   8
M  ISO  2  18   8  19   8
M  END
>  <minimizedAffinity>  (1) 
-3.60136604

>  <minimizedRMSD>  (1) 
0.215530992

$$$$
