
     RDKit          3D

 33 35  0  0  1  0  0  0  0  0999 V2000
   47.1870   33.9420   42.4350 C   0  0  2  0  0  0  0  0  0  0  0  0
   44.6490   35.9950   44.3540 C   0  0  0  0  0  0  0  0  0  0  0  0
   45.4910   35.5760   43.3130 C   0  0  0  0  0  0  0  0  0  0  0  0
   46.2790   34.4260   43.5040 C   0  0  0  0  0  0  0  0  0  0  0  0
   46.1830   33.7840   44.6800 N   0  0  0  0  0  0  0  0  0  0  0  0
   45.3590   34.2080   45.6740 C   0  0  0  0  0  0  0  0  0  0  0  0
   44.5940   35.3060   45.5180 N   0  0  0  0  0  0  0  0  0  0  0  0
   48.6030   34.3100   42.8450 C   0  0  0  0  0  0  0  0  0  0  0  0
   46.8520   34.5760   41.0980 C   0  0  0  0  0  0  0  0  0  0  0  0
   46.4680   33.6280   40.0500 C   0  0  0  0  0  0  0  0  0  0  0  0
   45.4060   32.8040   40.3030 N   0  0  0  0  0  0  0  0  0  0  0  0
   44.9860   31.9260   39.3930 C   0  0  0  0  0  0  0  0  0  0  0  0
   45.5430   31.7670   38.1780 N   0  0  0  0  0  0  0  0  0  0  0  0
   46.6010   32.5600   37.8760 C   0  0  0  0  0  0  0  0  0  0  0  0
   47.2240   32.4460   36.6510 C   0  0  0  0  0  0  0  0  0  0  0  0
   48.3110   33.2470   36.3280 C   0  0  0  0  0  0  0  0  0  0  0  0
   48.7250   34.1450   37.2890 C   0  0  0  0  0  0  0  0  0  0  0  0
   48.1190   34.2770   38.5230 C   0  0  0  0  0  0  0  0  0  0  0  0
   47.0460   33.4710   38.8070 C   0  0  0  0  0  0  0  0  0  0  0  0
   47.0776   32.8541   42.3147 H   0  0  0  0  0  0  0  0  0  0  0  0
   44.0270   36.8928   44.2230 H   0  0  0  0  0  0  0  0  0  0  0  0
   45.5343   36.1351   42.3667 H   0  0  0  0  0  0  0  0  0  0  0  0
   45.3160   33.6469   46.6192 H   0  0  0  0  0  0  0  0  0  0  0  0
   48.6739   34.3284   43.9426 H   0  0  0  0  0  0  0  0  0  0  0  0
   49.3061   33.5647   42.4446 H   0  0  0  0  0  0  0  0  0  0  0  0
   48.8542   35.3033   42.4446 H   0  0  0  0  0  0  0  0  0  0  0  0
   46.0167   35.2753   41.2502 H   0  0  0  0  0  0  0  0  0  0  0  0
   47.7713   35.0691   40.7491 H   0  0  0  0  0  0  0  0  0  0  0  0
   44.1273   31.2890   39.6518 H   0  0  0  0  0  0  0  0  0  0  0  0
   46.8550   31.7110   35.9205 H   0  0  0  0  0  0  0  0  0  0  0  0
   48.8167   33.1692   35.3542 H   0  0  0  0  0  0  0  0  0  0  0  0
   49.5850   34.7916   37.0603 H   0  0  0  0  0  0  0  0  0  0  0  0
   48.4867   35.0083   39.2578 H   0  0  0  0  0  0  0  0  0  0  0  0
  1  8  1  0
  1  4  1  0
  2  7  2  0
  3  4  2  0
  3  2  1  0
  4  5  1  0
  5  6  2  0
  7  6  1  0
  9  1  1  0
 10 11  2  0
 10  9  1  0
 12 11  1  0
 13 12  2  0
 14 13  1  0
 14 19  2  0
 15 14  1  0
 16 15  2  0
 16 17  1  0
 17 18  2  0
 18 19  1  0
 19 10  1  0
  1 20  1  6
  2 21  1  0
  3 22  1  0
  6 23  1  0
  8 24  1  0
  8 25  1  0
  8 26  1  0
  9 27  1  0
  9 28  1  0
 12 29  1  0
 15 30  1  0
 16 31  1  0
 17 32  1  0
 18 33  1  0
M  ISO  8  20   8  21  14  22  14  23  14  24   8  25   8  26   8  27   8
M  ISO  6  28   8  29  14  30  14  31  14  32  14  33  14
M  END
>  <minimizedAffinity>  (1) 
-5.06693172

>  <minimizedRMSD>  (1) 
2.1740427

$$$$
