
     RDKit          3D

 26 27  0  0  1  0  0  0  0  0999 V2000
   48.0830   34.3740   41.4890 C   0  0  2  0  0  0  0  0  0  0  0  0
   45.2780   35.1570   43.8970 C   0  0  0  0  0  0  0  0  0  0  0  0
   46.0820   35.2330   42.7460 C   0  0  0  0  0  0  0  0  0  0  0  0
   47.1920   34.3560   42.6590 C   0  0  0  0  0  0  0  0  0  0  0  0
   47.3940   33.5120   43.6920 N   0  0  0  0  0  0  0  0  0  0  0  0
   46.6130   33.4570   44.7830 C   0  0  0  0  0  0  0  0  0  0  0  0
   45.5520   34.2810   44.8870 N   0  0  0  0  0  0  0  0  0  0  0  0
   48.8730   35.6750   41.5330 C   0  0  0  0  0  0  0  0  0  0  0  0
   47.2790   34.3360   40.1850 C   0  0  0  0  0  0  0  0  0  0  0  0
   48.1080   33.7090   39.1230 C   0  0  0  0  0  0  0  0  0  0  0  0
   48.2030   34.3050   37.8850 C   0  0  0  0  0  0  0  0  0  0  0  0
   49.0270   33.5170   37.1040 C   0  0  0  0  0  0  0  0  0  0  0  0
   49.3990   32.4640   37.9200 C   0  0  0  0  0  0  0  0  0  0  0  0
   48.8330   32.6160   39.1070 O   0  0  0  0  0  0  0  0  0  0  0  0
   48.7418   33.4936   41.5176 H   0  0  0  0  0  0  0  0  0  0  0  0
   44.4088   35.8243   43.9927 H   0  0  0  0  0  0  0  0  0  0  0  0
   45.8573   35.9482   41.9410 H   0  0  0  0  0  0  0  0  0  0  0  0
   46.8384   32.7424   45.5883 H   0  0  0  0  0  0  0  0  0  0  0  0
   49.0477   35.9627   42.5803 H   0  0  0  0  0  0  0  0  0  0  0  0
   49.8387   35.5349   41.0253 H   0  0  0  0  0  0  0  0  0  0  0  0
   48.3033   36.4673   41.0253 H   0  0  0  0  0  0  0  0  0  0  0  0
   46.3626   33.7460   40.3339 H   0  0  0  0  0  0  0  0  0  0  0  0
   47.0056   35.3590   39.8873 H   0  0  0  0  0  0  0  0  0  0  0  0
   47.7120   35.2390   37.5742 H   0  0  0  0  0  0  0  0  0  0  0  0
   49.3231   33.6899   36.0588 H   0  0  0  0  0  0  0  0  0  0  0  0
   50.0592   31.6336   37.6293 H   0  0  0  0  0  0  0  0  0  0  0  0
  1  8  1  0
  1  4  1  0
  2  7  2  0
  3  2  1  0
  4  3  2  0
  4  5  1  0
  5  6  2  0
  6  7  1  0
  9  1  1  0
 10  9  1  0
 11 10  2  0
 12 11  1  0
 12 13  2  0
 13 14  1  0
 14 10  1  0
  1 15  1  1
  2 16  1  0
  3 17  1  0
  6 18  1  0
  8 19  1  0
  8 20  1  0
  8 21  1  0
  9 22  1  0
  9 23  1  0
 11 24  1  0
 12 25  1  0
 13 26  1  0
M  ISO  8  15   8  16  14  17  14  18  14  19   8  20   8  21   8  22   8
M  ISO  4  23   8  24  14  25  14  26  14
M  END
>  <minimizedAffinity>  (1) 
-4.26624346

>  <minimizedRMSD>  (1) 
1.28516853

$$$$
