
     RDKit          3D

 46 49  0  0  1  0  0  0  0  0999 V2000
   45.6590   33.7150   43.5610 C   0  0  0  0  0  0  0  0  0  0  0  0
   46.7550   32.8440   43.6970 C   0  0  0  0  0  0  0  0  0  0  0  0
   47.1930   32.5100   44.9930 C   0  0  0  0  0  0  0  0  0  0  0  0
   46.5530   33.0360   46.0450 N   0  0  0  0  0  0  0  0  0  0  0  0
   45.5140   33.8650   45.9270 C   0  0  0  0  0  0  0  0  0  0  0  0
   45.0860   34.1890   44.7000 N   0  0  0  0  0  0  0  0  0  0  0  0
   45.1130   34.1780   42.3360 C   0  0  0  0  0  0  0  0  0  0  0  0
   43.8250   33.3900   41.9510 C   0  0  0  0  0  0  0  0  0  0  0  0
   43.2940   34.3300   40.8350 C   0  0  0  0  0  0  0  0  0  0  0  0
   43.7500   35.6950   41.2230 C   0  0  0  0  0  0  0  0  0  0  0  0
   44.5140   35.5530   42.5220 C   0  0  0  0  0  0  0  0  0  0  0  0
   47.4100   32.2900   42.4910 C   0  0  1  0  0  0  0  0  0  0  0  0
   46.6150   31.2260   41.8310 C   0  0  0  0  0  0  0  0  0  0  0  0
   47.9370   33.3920   41.6690 C   0  0  0  0  0  0  0  0  0  0  0  0
   48.8930   32.7490   40.6370 C   0  0  0  0  0  0  0  0  0  0  0  0
   49.9820   32.0660   41.0310 N   0  0  0  0  0  0  0  0  0  0  0  0
   50.8350   31.4920   40.1670 C   0  0  0  0  0  0  0  0  0  0  0  0
   50.5810   31.6100   38.8380 N   0  0  0  0  0  0  0  0  0  0  0  0
   49.5050   32.2830   38.3890 C   0  0  0  0  0  0  0  0  0  0  0  0
   49.2500   32.4010   37.0230 C   0  0  0  0  0  0  0  0  0  0  0  0
   48.1250   33.1050   36.6000 C   0  0  0  0  0  0  0  0  0  0  0  0
   47.2400   33.7010   37.4860 C   0  0  0  0  0  0  0  0  0  0  0  0
   47.5320   33.5590   38.8280 C   0  0  0  0  0  0  0  0  0  0  0  0
   48.6350   32.8690   39.2870 C   0  0  0  0  0  0  0  0  0  0  0  0
   48.0450   31.8297   45.1384 H   0  0  0  0  0  0  0  0  0  0  0  0
   45.0188   34.2742   46.8199 H   0  0  0  0  0  0  0  0  0  0  0  0
   45.9359   34.1016   41.6100 H   0  0  0  0  0  0  0  0  0  0  0  0
   44.0547   32.3843   41.5692 H   0  0  0  0  0  0  0  0  0  0  0  0
   43.1257   33.1916   42.7766 H   0  0  0  0  0  0  0  0  0  0  0  0
   42.1958   34.2895   40.7869 H   0  0  0  0  0  0  0  0  0  0  0  0
   43.6663   34.0394   39.8415 H   0  0  0  0  0  0  0  0  0  0  0  0
   44.4048   36.1106   40.4430 H   0  0  0  0  0  0  0  0  0  0  0  0
   42.8943   36.3758   41.3429 H   0  0  0  0  0  0  0  0  0  0  0  0
   43.8443   35.5904   43.3939 H   0  0  0  0  0  0  0  0  0  0  0  0
   45.2460   36.3512   42.7145 H   0  0  0  0  0  0  0  0  0  0  0  0
   48.3026   31.7070   42.7620 H   0  0  0  0  0  0  0  0  0  0  0  0
   46.1422   30.5933   42.5966 H   0  0  0  0  0  0  0  0  0  0  0  0
   45.8371   31.6854   41.2035 H   0  0  0  0  0  0  0  0  0  0  0  0
   47.2761   30.6102   41.2035 H   0  0  0  0  0  0  0  0  0  0  0  0
   47.1142   33.9098   41.1543 H   0  0  0  0  0  0  0  0  0  0  0  0
   48.4603   34.1359   42.2877 H   0  0  0  0  0  0  0  0  0  0  0  0
   51.7164   30.9406   40.5263 H   0  0  0  0  0  0  0  0  0  0  0  0
   49.9291   31.9436   36.2884 H   0  0  0  0  0  0  0  0  0  0  0  0
   47.9309   33.1917   35.5207 H   0  0  0  0  0  0  0  0  0  0  0  0
   46.3555   34.2555   37.1392 H   0  0  0  0  0  0  0  0  0  0  0  0
   46.8548   34.0166   39.5642 H   0  0  0  0  0  0  0  0  0  0  0  0
  1  2  1  0
  1  6  2  0
  2  3  2  0
  3  4  1  0
  5  4  2  0
  6  5  1  0
  7 11  1  0
  7  1  1  0
  8  7  1  0
  9 10  1  0
  9  8  1  0
 10 11  1  0
 12  2  1  0
 13 12  1  0
 14 12  1  0
 15 16  2  0
 15 14  1  0
 17 16  1  0
 18 17  2  0
 19 18  1  0
 19 24  2  0
 20 19  1  0
 21 20  2  0
 21 22  1  0
 22 23  2  0
 23 24  1  0
 24 15  1  0
  3 25  1  0
  5 26  1  0
  7 27  1  0
  8 28  1  0
  8 29  1  0
  9 30  1  0
  9 31  1  0
 10 32  1  0
 10 33  1  0
 11 34  1  0
 11 35  1  0
 12 36  1  1
 13 37  1  0
 13 38  1  0
 13 39  1  0
 14 40  1  0
 14 41  1  0
 17 42  1  0
 20 43  1  0
 21 44  1  0
 22 45  1  0
 23 46  1  0
M  ISO  8  25  14  26  14  27  13  28  13  29  13  30  13  31  13  32  13
M  ISO  8  33  13  34  13  35  13  36   8  37   8  38   8  39   8  40   8
M  ISO  6  41   8  42  14  43  14  44  14  45  14  46  14
M  END
>  <minimizedAffinity>  (1) 
-4.9256115

>  <minimizedRMSD>  (1) 
1.37517095

$$$$
