
     RDKit          3D

 26 27  0  0  1  0  0  0  0  0999 V2000
   47.6040   34.3150   41.7400 C   0  0  2  0  0  0  0  0  0  0  0  0
   44.8810   35.7480   43.9550 C   0  0  0  0  0  0  0  0  0  0  0  0
   45.7290   35.6040   42.8350 C   0  0  0  0  0  0  0  0  0  0  0  0
   46.6580   34.5550   42.8640 C   0  0  0  0  0  0  0  0  0  0  0  0
   46.6720   33.7550   43.9720 N   0  0  0  0  0  0  0  0  0  0  0  0
   45.8520   33.9200   45.0200 C   0  0  0  0  0  0  0  0  0  0  0  0
   44.9560   34.9160   45.0120 N   0  0  0  0  0  0  0  0  0  0  0  0
   48.5260   35.5090   41.6910 C   0  0  0  0  0  0  0  0  0  0  0  0
   46.8500   34.1810   40.4330 C   0  0  0  0  0  0  0  0  0  0  0  0
   47.7180   33.7620   39.3450 C   0  0  0  0  0  0  0  0  0  0  0  0
   48.0590   34.2630   38.1060 C   0  0  0  0  0  0  0  0  0  0  0  0
   48.9490   33.5500   37.3440 C   0  0  0  0  0  0  0  0  0  0  0  0
   49.4770   32.3810   37.8090 C   0  0  0  0  0  0  0  0  0  0  0  0
   48.6470   32.2540   39.4890 S   0  0  0  0  0  0  0  0  0  0  0  0
   48.1678   33.3827   41.8913 H   0  0  0  0  0  0  0  0  0  0  0  0
   44.1398   36.5607   43.9647 H   0  0  0  0  0  0  0  0  0  0  0  0
   45.6631   36.2870   41.9753 H   0  0  0  0  0  0  0  0  0  0  0  0
   45.9147   33.2404   45.8827 H   0  0  0  0  0  0  0  0  0  0  0  0
   48.7706   35.8257   42.7156 H   0  0  0  0  0  0  0  0  0  0  0  0
   49.4506   35.2368   41.1608 H   0  0  0  0  0  0  0  0  0  0  0  0
   48.0288   36.3347   41.1608 H   0  0  0  0  0  0  0  0  0  0  0  0
   46.0518   33.4346   40.5583 H   0  0  0  0  0  0  0  0  0  0  0  0
   46.4354   35.1672   40.1769 H   0  0  0  0  0  0  0  0  0  0  0  0
   47.6296   35.2071   37.7396 H   0  0  0  0  0  0  0  0  0  0  0  0
   49.2392   33.9233   36.3508 H   0  0  0  0  0  0  0  0  0  0  0  0
   50.1942   31.6982   37.3300 H   0  0  0  0  0  0  0  0  0  0  0  0
  1  4  1  0
  2  7  2  0
  3  4  2  0
  3  2  1  0
  4  5  1  0
  5  6  2  0
  7  6  1  0
  8  1  1  0
  9  1  1  0
 10 14  1  0
 10  9  1  0
 11 10  2  0
 12 13  2  0
 12 11  1  0
 13 14  1  0
  1 15  1  1
  2 16  1  0
  3 17  1  0
  6 18  1  0
  8 19  1  0
  8 20  1  0
  8 21  1  0
  9 22  1  0
  9 23  1  0
 11 24  1  0
 12 25  1  0
 13 26  1  0
M  ISO  8  15   8  16  14  17  14  18  14  19   8  20   8  21   8  22   8
M  ISO  4  23   8  24  14  25  14  26  14
M  END
>  <minimizedAffinity>  (1) 
-4.26599646

>  <minimizedRMSD>  (1) 
0.991425633

$$$$
