
     RDKit          3D

 33 34  0  0  1  0  0  0  0  0999 V2000
   47.5990   34.4320   42.0280 C   0  0  2  0  0  0  0  0  0  0  0  0
   44.7450   35.9210   44.0370 C   0  0  0  0  0  0  0  0  0  0  0  0
   45.6740   35.7350   43.0060 C   0  0  0  0  0  0  0  0  0  0  0  0
   46.6000   34.6680   43.1040 C   0  0  0  0  0  0  0  0  0  0  0  0
   46.5240   33.8900   44.1990 N   0  0  0  0  0  0  0  0  0  0  0  0
   45.6180   34.0860   45.1860 C   0  0  0  0  0  0  0  0  0  0  0  0
   44.7400   35.0890   45.1070 N   0  0  0  0  0  0  0  0  0  0  0  0
   48.4750   35.6790   41.9520 C   0  0  0  0  0  0  0  0  0  0  0  0
   46.9180   34.1980   40.7030 C   0  0  0  0  0  0  0  0  0  0  0  0
   47.4320   32.9530   40.1590 N   0  0  0  0  0  0  0  0  0  0  0  0
   48.2860   33.2230   38.9960 C   0  0  0  0  0  0  0  0  0  0  0  0
   49.0810   31.9420   38.7580 C   0  0  0  0  0  0  0  0  0  0  0  0
   50.1850   32.0110   39.7330 N   0  0  0  0  0  0  0  0  0  0  0  0
   49.7060   32.5760   40.9780 C   0  0  0  0  0  0  0  0  0  0  0  0
   48.2340   32.2520   41.1660 C   0  0  0  0  0  0  0  0  0  0  0  0
   48.1980   33.5369   42.2514 H   0  0  0  0  0  0  0  0  0  0  0  0
   44.0177   36.7441   43.9785 H   0  0  0  0  0  0  0  0  0  0  0  0
   45.6844   36.4063   42.1347 H   0  0  0  0  0  0  0  0  0  0  0  0
   45.6052   33.4153   46.0578 H   0  0  0  0  0  0  0  0  0  0  0  0
   48.7152   36.0209   42.9695 H   0  0  0  0  0  0  0  0  0  0  0  0
   49.4056   35.4413   41.4158 H   0  0  0  0  0  0  0  0  0  0  0  0
   47.9357   36.4738   41.4158 H   0  0  0  0  0  0  0  0  0  0  0  0
   45.8302   34.1231   40.8484 H   0  0  0  0  0  0  0  0  0  0  0  0
   47.1167   35.0320   40.0138 H   0  0  0  0  0  0  0  0  0  0  0  0
   47.6706   33.4611   38.1159 H   0  0  0  0  0  0  0  0  0  0  0  0
   48.9480   34.0839   39.1708 H   0  0  0  0  0  0  0  0  0  0  0  0
   48.4553   31.0558   38.9401 H   0  0  0  0  0  0  0  0  0  0  0  0
   49.4405   31.8572   37.7219 H   0  0  0  0  0  0  0  0  0  0  0  0
   50.5487   31.0629   39.9054 H   0  0  0  0  0  0  0  0  0  0  0  0
   50.2814   32.1530   41.8147 H   0  0  0  0  0  0  0  0  0  0  0  0
   49.8336   33.6682   40.9504 H   0  0  0  0  0  0  0  0  0  0  0  0
   47.9166   32.5702   42.1700 H   0  0  0  0  0  0  0  0  0  0  0  0
   48.0864   31.1678   41.0533 H   0  0  0  0  0  0  0  0  0  0  0  0
  1  4  1  0
  2  7  2  0
  3  4  2  0
  3  2  1  0
  4  5  1  0
  5  6  2  0
  7  6  1  0
  8  1  1  0
  9  1  1  0
 10  9  1  0
 10 15  1  0
 11 10  1  0
 12 11  1  0
 12 13  1  0
 13 14  1  0
 14 15  1  0
  1 16  1  1
  2 17  1  0
  3 18  1  0
  6 19  1  0
  8 20  1  0
  8 21  1  0
  8 22  1  0
  9 23  1  0
  9 24  1  0
 11 25  1  0
 11 26  1  0
 12 27  1  0
 12 28  1  0
 13 29  1  0
 14 30  1  0
 14 31  1  0
 15 32  1  0
 15 33  1  0
M  ISO  8  16   8  17  14  18  14  19  14  20   8  21   8  22   8  23   8
M  ISO  8  24   8  25  13  26  13  27  13  28  13  29   5  30  13  31  13
M  ISO  2  32  13  33  13
M  END
>  <minimizedAffinity>  (1) 
-4.22990942

>  <minimizedRMSD>  (1) 
2.89890718

$$$$
