
     RDKit          3D

 26 27  0  0  1  0  0  0  0  0999 V2000
   47.2680   34.3330   42.0380 C   0  0  2  0  0  0  0  0  0  0  0  0
   44.6850   36.0080   44.2370 C   0  0  0  0  0  0  0  0  0  0  0  0
   45.5050   35.7870   43.1030 C   0  0  0  0  0  0  0  0  0  0  0  0
   46.3650   34.6600   43.1550 C   0  0  0  0  0  0  0  0  0  0  0  0
   46.3280   33.8950   44.2810 N   0  0  0  0  0  0  0  0  0  0  0  0
   45.5350   34.1380   45.3360 C   0  0  0  0  0  0  0  0  0  0  0  0
   44.7170   35.1910   45.3130 N   0  0  0  0  0  0  0  0  0  0  0  0
   48.2660   35.4820   41.9350 C   0  0  0  0  0  0  0  0  0  0  0  0
   46.5050   34.2110   40.7340 C   0  0  0  0  0  0  0  0  0  0  0  0
   47.4430   33.6420   39.7580 N   0  0  0  0  0  0  0  0  0  0  0  0
   47.8570   34.0960   38.5900 N   0  0  0  0  0  0  0  0  0  0  0  0
   48.7240   33.2400   38.0350 C   0  0  0  0  0  0  0  0  0  0  0  0
   48.8960   32.1540   38.8850 C   0  0  0  0  0  0  0  0  0  0  0  0
   48.0730   32.4540   39.9490 C   0  0  0  0  0  0  0  0  0  0  0  0
   47.7658   33.3692   42.2206 H   0  0  0  0  0  0  0  0  0  0  0  0
   44.0020   36.8702   44.2418 H   0  0  0  0  0  0  0  0  0  0  0  0
   45.4763   36.4539   42.2287 H   0  0  0  0  0  0  0  0  0  0  0  0
   45.5595   33.4740   46.2126 H   0  0  0  0  0  0  0  0  0  0  0  0
   48.5518   35.8111   42.9450 H   0  0  0  0  0  0  0  0  0  0  0  0
   49.1610   35.1428   41.3929 H   0  0  0  0  0  0  0  0  0  0  0  0
   47.8049   36.3207   41.3929 H   0  0  0  0  0  0  0  0  0  0  0  0
   45.6380   33.5461   40.8611 H   0  0  0  0  0  0  0  0  0  0  0  0
   46.1255   35.1881   40.4004 H   0  0  0  0  0  0  0  0  0  0  0  0
   49.2204   33.3746   37.0626 H   0  0  0  0  0  0  0  0  0  0  0  0
   49.5343   31.2694   38.7430 H   0  0  0  0  0  0  0  0  0  0  0  0
   47.9435   31.8158   40.8355 H   0  0  0  0  0  0  0  0  0  0  0  0
  1  4  1  0
  2  7  2  0
  3  4  2  0
  3  2  1  0
  4  5  1  0
  5  6  2  0
  7  6  1  0
  8  1  1  0
  9  1  1  0
 10 14  1  0
 10  9  1  0
 11 10  1  0
 12 11  2  0
 12 13  1  0
 13 14  2  0
  1 15  1  1
  2 16  1  0
  3 17  1  0
  6 18  1  0
  8 19  1  0
  8 20  1  0
  8 21  1  0
  9 22  1  0
  9 23  1  0
 12 24  1  0
 13 25  1  0
 14 26  1  0
M  ISO  8  15   8  16  14  17  14  18  14  19   8  20   8  21   8  22   8
M  ISO  4  23   8  24  14  25  14  26  14
M  END
>  <minimizedAffinity>  (1) 
-4.05294609

>  <minimizedRMSD>  (1) 
0.601274669

$$$$
