
     RDKit          3D

 39 41  0  0  1  0  0  0  0  0999 V2000
   46.0890   34.4590   40.9950 C   0  0  0  0  0  0  0  0  0  0  0  0
   45.0230   33.5920   40.6520 N   0  0  0  0  0  0  0  0  0  0  0  0
   45.3410   32.2870   40.5430 C   0  0  0  0  0  0  0  0  0  0  0  0
   44.3950   31.3350   40.1710 C   0  0  0  0  0  0  0  0  0  0  0  0
   43.1250   31.8100   39.9250 C   0  0  0  0  0  0  0  0  0  0  0  0
   42.2360   30.9810   39.5810 O   0  0  0  0  0  0  0  0  0  0  0  0
   42.7900   33.1150   40.0320 N   0  0  0  0  0  0  0  0  0  0  0  0
   43.7520   33.9760   40.3940 C   0  0  0  0  0  0  0  0  0  0  0  0
   43.5100   35.2080   40.5130 O   0  0  0  0  0  0  0  0  0  0  0  0
   41.4530   33.5530   39.7640 C   0  0  0  0  0  0  0  0  0  0  0  0
   40.4150   33.5990   40.6870 C   0  0  0  0  0  0  0  0  0  0  0  0
   39.1720   34.0460   40.2880 C   0  0  0  0  0  0  0  0  0  0  0  0
   38.9030   34.4560   38.9900 C   0  0  0  0  0  0  0  0  0  0  0  0
   39.9600   34.4000   38.0860 C   0  0  0  0  0  0  0  0  0  0  0  0
   41.2120   33.9570   38.4660 C   0  0  0  0  0  0  0  0  0  0  0  0
   46.8140   34.1290   42.2470 C   0  0  2  0  0  0  0  0  0  0  0  0
   44.5870   35.9800   44.6360 C   0  0  0  0  0  0  0  0  0  0  0  0
   45.3010   35.6470   43.4650 C   0  0  0  0  0  0  0  0  0  0  0  0
   46.0700   34.4790   43.4570 C   0  0  0  0  0  0  0  0  0  0  0  0
   46.0840   33.7220   44.5940 N   0  0  0  0  0  0  0  0  0  0  0  0
   45.4020   34.0430   45.7070 C   0  0  0  0  0  0  0  0  0  0  0  0
   44.6510   35.1760   45.7250 N   0  0  0  0  0  0  0  0  0  0  0  0
   48.1550   34.8810   42.3410 C   0  0  0  0  0  0  0  0  0  0  0  0
   45.6777   35.4737   41.1009 H   0  0  0  0  0  0  0  0  0  0  0  0
   46.8281   34.3572   40.1867 H   0  0  0  0  0  0  0  0  0  0  0  0
   46.3720   31.9661   40.7528 H   0  0  0  0  0  0  0  0  0  0  0  0
   44.6464   30.2681   40.0791 H   0  0  0  0  0  0  0  0  0  0  0  0
   40.5829   33.2818   41.7268 H   0  0  0  0  0  0  0  0  0  0  0  0
   38.3605   34.0787   41.0299 H   0  0  0  0  0  0  0  0  0  0  0  0
   37.9047   34.8076   38.6904 H   0  0  0  0  0  0  0  0  0  0  0  0
   39.7945   34.7157   37.0453 H   0  0  0  0  0  0  0  0  0  0  0  0
   42.0257   33.9258   37.7265 H   0  0  0  0  0  0  0  0  0  0  0  0
   46.9591   33.0398   42.1961 H   0  0  0  0  0  0  0  0  0  0  0  0
   43.9768   36.8948   44.6648 H   0  0  0  0  0  0  0  0  0  0  0  0
   45.2535   36.2934   42.5762 H   0  0  0  0  0  0  0  0  0  0  0  0
   45.4511   33.3952   46.5946 H   0  0  0  0  0  0  0  0  0  0  0  0
   48.4190   35.0291   43.3985 H   0  0  0  0  0  0  0  0  0  0  0  0
   48.9411   34.2921   41.8458 H   0  0  0  0  0  0  0  0  0  0  0  0
   48.0625   35.8589   41.8458 H   0  0  0  0  0  0  0  0  0  0  0  0
  1 16  1  0
  2  1  1  0
  3  2  1  0
  4  3  2  0
  5  7  1  0
  5  4  1  0
  6  5  2  0
  7  8  1  0
  8  9  2  0
  8  2  1  0
 10  7  1  0
 10 11  2  0
 12 11  1  0
 13 12  2  0
 14 15  2  0
 14 13  1  0
 15 10  1  0
 16 23  1  0
 16 19  1  0
 17 22  2  0
 18 17  1  0
 19 18  2  0
 19 20  1  0
 20 21  2  0
 21 22  1  0
  1 24  1  0
  1 25  1  0
  3 26  1  0
  4 27  1  0
 11 28  1  0
 12 29  1  0
 13 30  1  0
 14 31  1  0
 15 32  1  0
 16 33  1  1
 17 34  1  0
 18 35  1  0
 21 36  1  0
 23 37  1  0
 23 38  1  0
 23 39  1  0
M  ISO  8  24   8  25   8  26  14  27  14  28  14  29  14  30  14  31  14
M  ISO  8  32  14  33   8  34  14  35  14  36  14  37   8  38   8  39   8
M  END
>  <minimizedAffinity>  (1) 
-5.86596918

>  <minimizedRMSD>  (1) 
3.61686087

$$$$
