
     RDKit          3D

 45 47  0  0  1  0  0  0  0  0999 V2000
   45.9090   34.5810   40.9930 C   0  0  0  0  0  0  0  0  0  0  0  0
   44.9020   33.6950   40.5380 N   0  0  0  0  0  0  0  0  0  0  0  0
   45.3140   32.4570   40.2020 C   0  0  0  0  0  0  0  0  0  0  0  0
   44.4180   31.5150   39.7000 C   0  0  0  0  0  0  0  0  0  0  0  0
   43.1110   31.9120   39.5680 C   0  0  0  0  0  0  0  0  0  0  0  0
   42.2610   31.1010   39.1160 O   0  0  0  0  0  0  0  0  0  0  0  0
   42.7000   33.1370   39.9020 N   0  0  0  0  0  0  0  0  0  0  0  0
   43.5980   34.0130   40.3810 C   0  0  0  0  0  0  0  0  0  0  0  0
   43.2640   35.1850   40.7110 O   0  0  0  0  0  0  0  0  0  0  0  0
   41.3420   33.6060   39.7850 C   0  0  0  0  0  0  0  0  0  0  0  0
   40.3060   32.7540   40.4300 C   0  0  0  0  0  0  0  0  0  0  0  0
   39.0570   33.6250   40.5900 C   0  0  0  0  0  0  0  0  0  0  0  0
   39.0750   34.8220   39.6710 C   0  0  0  0  0  0  0  0  0  0  0  0
   39.6030   34.4820   38.3160 C   0  0  0  0  0  0  0  0  0  0  0  0
   40.9520   33.8380   38.3360 C   0  0  0  0  0  0  0  0  0  0  0  0
   46.6660   34.1480   42.1910 C   0  0  2  0  0  0  0  0  0  0  0  0
   44.5440   35.9200   44.7380 C   0  0  0  0  0  0  0  0  0  0  0  0
   45.2000   35.6210   43.5250 C   0  0  0  0  0  0  0  0  0  0  0  0
   45.9800   34.4610   43.4470 C   0  0  0  0  0  0  0  0  0  0  0  0
   46.0580   33.6870   44.5590 N   0  0  0  0  0  0  0  0  0  0  0  0
   45.4380   33.9670   45.7160 C   0  0  0  0  0  0  0  0  0  0  0  0
   44.6790   35.0820   45.8090 N   0  0  0  0  0  0  0  0  0  0  0  0
   48.0390   34.8350   42.2710 C   0  0  0  0  0  0  0  0  0  0  0  0
   45.4293   35.5426   41.2280 H   0  0  0  0  0  0  0  0  0  0  0  0
   46.6475   34.6316   40.1793 H   0  0  0  0  0  0  0  0  0  0  0  0
   46.3729   32.1859   40.3257 H   0  0  0  0  0  0  0  0  0  0  0  0
   44.7430   30.5013   39.4227 H   0  0  0  0  0  0  0  0  0  0  0  0
   41.3558   34.5532   40.3441 H   0  0  0  0  0  0  0  0  0  0  0  0
   40.0824   31.8835   39.7957 H   0  0  0  0  0  0  0  0  0  0  0  0
   40.6533   32.3777   41.4036 H   0  0  0  0  0  0  0  0  0  0  0  0
   38.1693   33.0167   40.3620 H   0  0  0  0  0  0  0  0  0  0  0  0
   39.0337   33.9948   41.6257 H   0  0  0  0  0  0  0  0  0  0  0  0
   38.0489   35.2042   39.5662 H   0  0  0  0  0  0  0  0  0  0  0  0
   39.7395   35.5788   40.1134 H   0  0  0  0  0  0  0  0  0  0  0  0
   39.6704   35.4091   37.7278 H   0  0  0  0  0  0  0  0  0  0  0  0
   38.9072   33.7525   37.8758 H   0  0  0  0  0  0  0  0  0  0  0  0
   40.9146   32.8773   37.8015 H   0  0  0  0  0  0  0  0  0  0  0  0
   41.6909   34.4854   37.8412 H   0  0  0  0  0  0  0  0  0  0  0  0
   46.7644   33.0585   42.0756 H   0  0  0  0  0  0  0  0  0  0  0  0
   43.9253   36.8257   44.8213 H   0  0  0  0  0  0  0  0  0  0  0  0
   45.1003   36.2877   42.6558 H   0  0  0  0  0  0  0  0  0  0  0  0
   45.5464   33.2956   46.5805 H   0  0  0  0  0  0  0  0  0  0  0  0
   48.3182   34.9747   43.3258 H   0  0  0  0  0  0  0  0  0  0  0  0
   48.7925   34.2077   41.7722 H   0  0  0  0  0  0  0  0  0  0  0  0
   47.9887   35.8141   41.7722 H   0  0  0  0  0  0  0  0  0  0  0  0
  1 16  1  0
  2  1  1  0
  3  2  1  0
  4  3  2  0
  5  4  1  0
  5  7  1  0
  6  5  2  0
  7  8  1  0
  8  2  1  0
  8  9  2  0
 10  7  1  0
 10 11  1  0
 11 12  1  0
 13 12  1  0
 14 15  1  0
 14 13  1  0
 15 10  1  0
 16 23  1  0
 16 19  1  0
 17 22  2  0
 18 17  1  0
 19 18  2  0
 19 20  1  0
 20 21  2  0
 21 22  1  0
  1 24  1  0
  1 25  1  0
  3 26  1  0
  4 27  1  0
 10 28  1  0
 11 29  1  0
 11 30  1  0
 12 31  1  0
 12 32  1  0
 13 33  1  0
 13 34  1  0
 14 35  1  0
 14 36  1  0
 15 37  1  0
 15 38  1  0
 16 39  1  6
 17 40  1  0
 18 41  1  0
 21 42  1  0
 23 43  1  0
 23 44  1  0
 23 45  1  0
M  ISO  8  24   8  25   8  26  14  27  14  28  13  29  13  30  13  31  13
M  ISO  8  32  13  33  13  34  13  35  13  36  13  37  13  38  13  39   8
M  ISO  6  40  14  41  14  42  14  43   8  44   8  45   8
M  END
>  <minimizedAffinity>  (1) 
-5.83248806

>  <minimizedRMSD>  (1) 
3.59986448

$$$$
