
     RDKit          3D

 36 38  0  0  1  0  0  0  0  0999 V2000
   47.1230   34.7980   41.4320 C   0  0  0  0  0  0  0  0  0  0  0  0
   47.0260   34.2070   40.1510 N   0  0  0  0  0  0  0  0  0  0  0  0
   48.1090   34.2900   39.3630 C   0  0  0  0  0  0  0  0  0  0  0  0
   48.1120   33.7740   38.0680 C   0  0  0  0  0  0  0  0  0  0  0  0
   46.9440   33.1770   37.6460 C   0  0  0  0  0  0  0  0  0  0  0  0
   46.9330   32.7080   36.4770 O   0  0  0  0  0  0  0  0  0  0  0  0
   45.8400   33.0770   38.4110 N   0  0  0  0  0  0  0  0  0  0  0  0
   45.9210   33.6040   39.6580 C   0  0  0  0  0  0  0  0  0  0  0  0
   44.9230   33.5450   40.4300 O   0  0  0  0  0  0  0  0  0  0  0  0
   44.6380   32.4580   37.9660 C   0  0  0  0  0  0  0  0  0  0  0  0
   44.2520   31.2550   37.4000 C   0  0  0  0  0  0  0  0  0  0  0  0
   42.8650   31.3400   37.2240 C   0  0  0  0  0  0  0  0  0  0  0  0
   42.4650   32.5630   37.6790 N   0  0  0  0  0  0  0  0  0  0  0  0
   43.5340   33.2190   38.1190 N   0  0  0  0  0  0  0  0  0  0  0  0
   47.2090   33.8600   42.5750 C   0  0  2  0  0  0  0  0  0  0  0  0
   44.6420   35.6720   44.6260 C   0  0  0  0  0  0  0  0  0  0  0  0
   45.4750   35.3170   43.5430 C   0  0  0  0  0  0  0  0  0  0  0  0
   46.3390   34.2280   43.6920 C   0  0  0  0  0  0  0  0  0  0  0  0
   46.3200   33.5770   44.8840 N   0  0  0  0  0  0  0  0  0  0  0  0
   45.5310   33.9090   45.9180 C   0  0  0  0  0  0  0  0  0  0  0  0
   44.6900   34.9590   45.7890 N   0  0  0  0  0  0  0  0  0  0  0  0
   48.6340   33.7790   43.1520 C   0  0  0  0  0  0  0  0  0  0  0  0
   46.2337   35.4283   41.5801 H   0  0  0  0  0  0  0  0  0  0  0  0
   48.0729   35.3527   41.4315 H   0  0  0  0  0  0  0  0  0  0  0  0
   49.0168   34.7772   39.7484 H   0  0  0  0  0  0  0  0  0  0  0  0
   48.9977   33.8398   37.4190 H   0  0  0  0  0  0  0  0  0  0  0  0
   44.9017   30.4059   37.1414 H   0  0  0  0  0  0  0  0  0  0  0  0
   42.2156   30.5619   36.7964 H   0  0  0  0  0  0  0  0  0  0  0  0
   41.4980   32.9177   37.6811 H   0  0  0  0  0  0  0  0  0  0  0  0
   46.8929   32.8958   42.1502 H   0  0  0  0  0  0  0  0  0  0  0  0
   43.9532   36.5245   44.5325 H   0  0  0  0  0  0  0  0  0  0  0  0
   45.4449   35.8853   42.6016 H   0  0  0  0  0  0  0  0  0  0  0  0
   45.5684   33.3353   46.8558 H   0  0  0  0  0  0  0  0  0  0  0  0
   48.5853   33.7818   44.2509 H   0  0  0  0  0  0  0  0  0  0  0  0
   49.1165   32.8520   42.8087 H   0  0  0  0  0  0  0  0  0  0  0  0
   49.2184   34.6454   42.8087 H   0  0  0  0  0  0  0  0  0  0  0  0
  1 15  1  0
  2  1  1  0
  3  2  1  0
  4  3  2  0
  5  4  1  0
  5  7  1  0
  6  5  2  0
  7  8  1  0
  8  2  1  0
  8  9  2  0
 10 14  2  0
 10  7  1  0
 11 10  1  0
 12 11  2  0
 12 13  1  0
 13 14  1  0
 15 22  1  0
 15 18  1  0
 16 21  2  0
 17 18  2  0
 17 16  1  0
 18 19  1  0
 19 20  2  0
 21 20  1  0
  1 23  1  0
  1 24  1  0
  3 25  1  0
  4 26  1  0
 11 27  1  0
 12 28  1  0
 13 29  1  0
 15 30  1  6
 16 31  1  0
 17 32  1  0
 20 33  1  0
 22 34  1  0
 22 35  1  0
 22 36  1  0
M  ISO  8  23   8  24   8  25  14  26  14  27  14  28  14  29   9  30   8
M  ISO  6  31  14  32  14  33  14  34   8  35   8  36   8
M  END
>  <minimizedAffinity>  (1) 
-5.29482651

>  <minimizedRMSD>  (1) 
0.324301392

$$$$
