
     RDKit          3D

 37 39  0  0  1  0  0  0  0  0999 V2000
   46.0620   34.4490   40.9890 C   0  0  0  0  0  0  0  0  0  0  0  0
   45.0170   33.5680   40.6310 N   0  0  0  0  0  0  0  0  0  0  0  0
   45.3420   32.2680   40.5450 C   0  0  0  0  0  0  0  0  0  0  0  0
   44.4060   31.3130   40.1540 C   0  0  0  0  0  0  0  0  0  0  0  0
   43.1440   31.7790   39.8670 C   0  0  0  0  0  0  0  0  0  0  0  0
   42.2650   30.9460   39.5050 O   0  0  0  0  0  0  0  0  0  0  0  0
   42.8000   33.0780   39.9480 N   0  0  0  0  0  0  0  0  0  0  0  0
   43.7570   33.9510   40.3330 C   0  0  0  0  0  0  0  0  0  0  0  0
   43.5010   35.1820   40.4300 O   0  0  0  0  0  0  0  0  0  0  0  0
   41.5020   33.5830   39.6570 C   0  0  0  0  0  0  0  0  0  0  0  0
   40.4450   33.7260   40.5310 C   0  0  0  0  0  0  0  0  0  0  0  0
   39.2360   34.2310   40.1140 C   0  0  0  0  0  0  0  0  0  0  0  0
   39.0530   34.6020   38.8200 N   0  0  0  0  0  0  0  0  0  0  0  0
   40.0740   34.4650   37.9740 C   0  0  0  0  0  0  0  0  0  0  0  0
   41.2630   33.9690   38.3810 N   0  0  0  0  0  0  0  0  0  0  0  0
   46.8000   34.1290   42.2330 C   0  0  2  0  0  0  0  0  0  0  0  0
   44.5750   35.9850   44.6250 C   0  0  0  0  0  0  0  0  0  0  0  0
   45.2850   35.6460   43.4570 C   0  0  0  0  0  0  0  0  0  0  0  0
   46.0560   34.4820   43.4430 C   0  0  0  0  0  0  0  0  0  0  0  0
   46.0790   33.7300   44.5800 N   0  0  0  0  0  0  0  0  0  0  0  0
   45.4020   34.0530   45.6970 C   0  0  0  0  0  0  0  0  0  0  0  0
   44.6500   35.1770   45.7250 N   0  0  0  0  0  0  0  0  0  0  0  0
   48.1330   34.8970   42.3090 C   0  0  0  0  0  0  0  0  0  0  0  0
   45.6272   35.4525   41.1072 H   0  0  0  0  0  0  0  0  0  0  0  0
   46.8035   34.3643   40.1809 H   0  0  0  0  0  0  0  0  0  0  0  0
   46.3669   31.9510   40.7879 H   0  0  0  0  0  0  0  0  0  0  0  0
   44.6619   30.2458   40.0790 H   0  0  0  0  0  0  0  0  0  0  0  0
   40.5716   33.4301   41.5829 H   0  0  0  0  0  0  0  0  0  0  0  0
   38.4107   34.3354   40.8337 H   0  0  0  0  0  0  0  0  0  0  0  0
   39.9458   34.7620   36.9226 H   0  0  0  0  0  0  0  0  0  0  0  0
   46.9605   33.0416   42.1917 H   0  0  0  0  0  0  0  0  0  0  0  0
   43.9616   36.8977   44.6521 H   0  0  0  0  0  0  0  0  0  0  0  0
   45.2328   36.2902   42.5669 H   0  0  0  0  0  0  0  0  0  0  0  0
   45.4599   33.4053   46.5842 H   0  0  0  0  0  0  0  0  0  0  0  0
   48.4060   35.0543   43.3629 H   0  0  0  0  0  0  0  0  0  0  0  0
   48.9209   34.3144   41.8092 H   0  0  0  0  0  0  0  0  0  0  0  0
   48.0241   35.8708   41.8092 H   0  0  0  0  0  0  0  0  0  0  0  0
  1 16  1  0
  2  1  1  0
  3  2  1  0
  4  3  2  0
  5  7  1  0
  5  4  1  0
  6  5  2  0
  7  8  1  0
  8  9  2  0
  8  2  1  0
 10  7  1  0
 10 11  2  0
 12 11  1  0
 13 12  2  0
 14 15  2  0
 14 13  1  0
 15 10  1  0
 16 23  1  0
 16 19  1  0
 17 22  2  0
 18 17  1  0
 19 18  2  0
 19 20  1  0
 20 21  2  0
 21 22  1  0
  1 24  1  0
  1 25  1  0
  3 26  1  0
  4 27  1  0
 11 28  1  0
 12 29  1  0
 14 30  1  0
 16 31  1  1
 17 32  1  0
 18 33  1  0
 21 34  1  0
 23 35  1  0
 23 36  1  0
 23 37  1  0
M  ISO  8  24   8  25   8  26  14  27  14  28  14  29  14  30  14  31   8
M  ISO  6  32  14  33  14  34  14  35   8  36   8  37   8
M  END
>  <minimizedAffinity>  (1) 
-5.44408655

>  <minimizedRMSD>  (1) 
3.55238843

$$$$
