
     RDKit          3D

 36 38  0  0  1  0  0  0  0  0999 V2000
   45.9640   34.4070   40.9370 C   0  0  0  0  0  0  0  0  0  0  0  0
   44.8820   33.5320   40.6870 N   0  0  0  0  0  0  0  0  0  0  0  0
   45.1720   32.2190   40.6400 C   0  0  0  0  0  0  0  0  0  0  0  0
   44.1880   31.2640   40.3640 C   0  0  0  0  0  0  0  0  0  0  0  0
   42.9230   31.7380   40.1460 C   0  0  0  0  0  0  0  0  0  0  0  0
   42.0240   30.8950   39.8960 O   0  0  0  0  0  0  0  0  0  0  0  0
   42.6240   33.0360   40.1900 N   0  0  0  0  0  0  0  0  0  0  0  0
   43.6030   33.9130   40.4590 C   0  0  0  0  0  0  0  0  0  0  0  0
   43.3800   35.1540   40.5140 O   0  0  0  0  0  0  0  0  0  0  0  0
   41.3360   33.5430   39.9720 C   0  0  0  0  0  0  0  0  0  0  0  0
   40.2630   33.8640   40.7150 C   0  0  0  0  0  0  0  0  0  0  0  0
   39.1230   34.3490   40.1780 C   0  0  0  0  0  0  0  0  0  0  0  0
   39.1360   34.4990   38.7550 C   0  0  0  0  0  0  0  0  0  0  0  0
   40.8720   33.8980   38.2930 S   0  0  0  0  0  0  0  0  0  0  0  0
   46.7370   34.1470   42.1740 C   0  0  2  0  0  0  0  0  0  0  0  0
   44.5860   36.0270   44.6050 C   0  0  0  0  0  0  0  0  0  0  0  0
   45.2720   35.6880   43.4180 C   0  0  0  0  0  0  0  0  0  0  0  0
   46.0150   34.5030   43.3950 C   0  0  0  0  0  0  0  0  0  0  0  0
   46.0240   33.7590   44.5270 N   0  0  0  0  0  0  0  0  0  0  0  0
   45.3800   34.0690   45.6590 C   0  0  0  0  0  0  0  0  0  0  0  0
   44.6530   35.2130   45.7000 N   0  0  0  0  0  0  0  0  0  0  0  0
   48.0630   34.9220   42.2140 C   0  0  0  0  0  0  0  0  0  0  0  0
   45.5626   35.4293   40.9995 H   0  0  0  0  0  0  0  0  0  0  0  0
   46.6697   34.2505   40.1079 H   0  0  0  0  0  0  0  0  0  0  0  0
   46.2054   31.8894   40.8226 H   0  0  0  0  0  0  0  0  0  0  0  0
   44.4188   30.1892   40.3243 H   0  0  0  0  0  0  0  0  0  0  0  0
   40.3157   33.7260   41.8050 H   0  0  0  0  0  0  0  0  0  0  0  0
   38.2473   34.6100   40.7904 H   0  0  0  0  0  0  0  0  0  0  0  0
   38.3381   34.8702   38.0950 H   0  0  0  0  0  0  0  0  0  0  0  0
   46.9160   33.0621   42.1434 H   0  0  0  0  0  0  0  0  0  0  0  0
   43.9936   36.9529   44.6481 H   0  0  0  0  0  0  0  0  0  0  0  0
   45.2233   36.3398   42.5332 H   0  0  0  0  0  0  0  0  0  0  0  0
   45.4393   33.4096   46.5374 H   0  0  0  0  0  0  0  0  0  0  0  0
   48.3561   35.0933   43.2603 H   0  0  0  0  0  0  0  0  0  0  0  0
   48.8443   34.3384   41.7052 H   0  0  0  0  0  0  0  0  0  0  0  0
   47.9379   35.8892   41.7052 H   0  0  0  0  0  0  0  0  0  0  0  0
  1 15  1  0
  2  1  1  0
  3  2  1  0
  4  3  2  0
  5  7  1  0
  5  4  1  0
  6  5  2  0
  7  8  1  0
  8  9  2  0
  8  2  1  0
 10  7  1  0
 10 11  2  0
 12 11  1  0
 13 12  2  0
 14 13  1  0
 14 10  1  0
 15 22  1  0
 15 18  1  0
 16 21  2  0
 17 16  1  0
 18 17  2  0
 18 19  1  0
 19 20  2  0
 20 21  1  0
  1 23  1  0
  1 24  1  0
  3 25  1  0
  4 26  1  0
 11 27  1  0
 12 28  1  0
 13 29  1  0
 15 30  1  1
 16 31  1  0
 17 32  1  0
 20 33  1  0
 22 34  1  0
 22 35  1  0
 22 36  1  0
M  ISO  8  23   8  24   8  25  14  26  14  27  14  28  14  29  14  30   8
M  ISO  6  31  14  32  14  33  14  34   8  35   8  36   8
M  END
>  <minimizedAffinity>  (1) 
-5.32322693

>  <minimizedRMSD>  (1) 
3.60649538

$$$$
