
     RDKit          3D

 36 38  0  0  1  0  0  0  0  0999 V2000
   47.0830   34.7570   41.5110 C   0  0  0  0  0  0  0  0  0  0  0  0
   46.9830   34.2110   40.2150 N   0  0  0  0  0  0  0  0  0  0  0  0
   48.0840   34.2680   39.4430 C   0  0  0  0  0  0  0  0  0  0  0  0
   48.0870   33.7880   38.1370 C   0  0  0  0  0  0  0  0  0  0  0  0
   46.9060   33.2570   37.6880 C   0  0  0  0  0  0  0  0  0  0  0  0
   46.8700   32.8110   36.5050 O   0  0  0  0  0  0  0  0  0  0  0  0
   45.7830   33.1810   38.4240 N   0  0  0  0  0  0  0  0  0  0  0  0
   45.8640   33.6700   39.6860 C   0  0  0  0  0  0  0  0  0  0  0  0
   44.8510   33.6340   40.4410 O   0  0  0  0  0  0  0  0  0  0  0  0
   42.4930   32.1340   37.4340 N   0  0  0  0  0  0  0  0  0  0  0  0
   43.2560   33.0490   38.0540 N   0  0  0  0  0  0  0  0  0  0  0  0
   44.5520   32.6300   37.9620 C   0  0  0  0  0  0  0  0  0  0  0  0
   44.5470   31.4350   37.2670 C   0  0  0  0  0  0  0  0  0  0  0  0
   43.2430   31.1340   36.9400 C   0  0  0  0  0  0  0  0  0  0  0  0
   47.0720   33.7870   42.6320 C   0  0  2  0  0  0  0  0  0  0  0  0
   44.5980   35.7400   44.6730 C   0  0  0  0  0  0  0  0  0  0  0  0
   45.4050   35.3290   43.5870 C   0  0  0  0  0  0  0  0  0  0  0  0
   46.2270   34.2110   43.7490 C   0  0  0  0  0  0  0  0  0  0  0  0
   46.1980   33.5860   44.9520 N   0  0  0  0  0  0  0  0  0  0  0  0
   45.4370   33.9670   45.9890 C   0  0  0  0  0  0  0  0  0  0  0  0
   44.6330   35.0490   45.8510 N   0  0  0  0  0  0  0  0  0  0  0  0
   48.4840   33.5830   43.2230 C   0  0  0  0  0  0  0  0  0  0  0  0
   46.2350   35.4432   41.6525 H   0  0  0  0  0  0  0  0  0  0  0  0
   48.0694   35.2422   41.5510 H   0  0  0  0  0  0  0  0  0  0  0  0
   49.0053   34.7054   39.8552 H   0  0  0  0  0  0  0  0  0  0  0  0
   48.9844   33.8321   37.5023 H   0  0  0  0  0  0  0  0  0  0  0  0
   41.4682   32.1911   37.3484 H   0  0  0  0  0  0  0  0  0  0  0  0
   45.4310   30.8294   37.0182 H   0  0  0  0  0  0  0  0  0  0  0  0
   42.8873   30.2527   36.3861 H   0  0  0  0  0  0  0  0  0  0  0  0
   46.6792   32.8608   42.1873 H   0  0  0  0  0  0  0  0  0  0  0  0
   43.9417   36.6166   44.5692 H   0  0  0  0  0  0  0  0  0  0  0  0
   45.3860   35.8783   42.6342 H   0  0  0  0  0  0  0  0  0  0  0  0
   45.4652   33.4096   46.9369 H   0  0  0  0  0  0  0  0  0  0  0  0
   48.4264   33.5913   44.3215 H   0  0  0  0  0  0  0  0  0  0  0  0
   48.8873   32.6173   42.8843 H   0  0  0  0  0  0  0  0  0  0  0  0
   49.1441   34.3951   42.8843 H   0  0  0  0  0  0  0  0  0  0  0  0
  1 15  1  0
  2  1  1  0
  3  2  1  0
  4  3  2  0
  5  4  1  0
  5  7  1  0
  6  5  2  0
  7  8  1  0
  8  2  1  0
  8  9  2  0
 10 11  1  0
 12 11  2  0
 12  7  1  0
 13 12  1  0
 14 13  2  0
 14 10  1  0
 15 22  1  0
 15 18  1  0
 16 21  2  0
 17 18  2  0
 17 16  1  0
 18 19  1  0
 19 20  2  0
 21 20  1  0
  1 23  1  0
  1 24  1  0
  3 25  1  0
  4 26  1  0
 10 27  1  0
 13 28  1  0
 14 29  1  0
 15 30  1  6
 16 31  1  0
 17 32  1  0
 20 33  1  0
 22 34  1  0
 22 35  1  0
 22 36  1  0
M  ISO  8  23   8  24   8  25  14  26  14  27   9  28  14  29  14  30   8
M  ISO  6  31  14  32  14  33  14  34   8  35   8  36   8
M  END
>  <minimizedAffinity>  (1) 
-5.26800632

>  <minimizedRMSD>  (1) 
0.439583331

$$$$
