
     RDKit          3D

 48 51  0  0  1  0  0  0  0  0999 V2000
   45.0340   32.9750   41.2450 C   0  0  0  0  0  0  0  0  0  0  0  0
   43.9070   32.2880   40.7600 N   0  0  0  0  0  0  0  0  0  0  0  0
   44.0550   30.9550   40.6180 C   0  0  0  0  0  0  0  0  0  0  0  0
   42.9930   30.1740   40.1170 C   0  0  0  0  0  0  0  0  0  0  0  0
   41.8290   30.8300   39.7900 C   0  0  0  0  0  0  0  0  0  0  0  0
   40.8810   30.1350   39.3420 O   0  0  0  0  0  0  0  0  0  0  0  0
   41.6830   32.1400   39.9310 N   0  0  0  0  0  0  0  0  0  0  0  0
   42.7200   32.8620   40.4140 C   0  0  0  0  0  0  0  0  0  0  0  0
   42.6420   34.1030   40.5700 O   0  0  0  0  0  0  0  0  0  0  0  0
   40.4770   32.8360   39.5950 C   0  0  0  0  0  0  0  0  0  0  0  0
   39.3750   33.0830   40.3740 C   0  0  0  0  0  0  0  0  0  0  0  0
   38.3340   33.7830   39.8070 C   0  0  0  0  0  0  0  0  0  0  0  0
   38.4000   34.2140   38.5180 C   0  0  0  0  0  0  0  0  0  0  0  0
   39.5330   33.9550   37.7300 C   0  0  0  0  0  0  0  0  0  0  0  0
   40.5450   33.2630   38.3160 N   0  0  0  0  0  0  0  0  0  0  0  0
   45.5510   32.5860   42.5640 C   0  0  2  0  0  0  0  0  0  0  0  0
   44.4420   35.7030   44.3040 C   0  0  0  0  0  0  0  0  0  0  0  0
   44.7190   34.7670   43.2830 C   0  0  0  0  0  0  0  0  0  0  0  0
   45.2550   33.5420   43.6250 C   0  0  0  0  0  0  0  0  0  0  0  0
   45.4960   33.2840   44.9550 N   0  0  0  0  0  0  0  0  0  0  0  0
   45.2280   34.1870   45.9280 C   0  0  0  0  0  0  0  0  0  0  0  0
   44.7050   35.3860   45.6020 N   0  0  0  0  0  0  0  0  0  0  0  0
   47.0610   32.3340   42.5760 C   0  0  0  0  0  0  0  0  0  0  0  0
   47.7810   33.5340   42.1040 C   0  0  0  0  0  0  0  0  0  0  0  0
   48.5770   34.3780   42.8880 C   0  0  0  0  0  0  0  0  0  0  0  0
   49.2040   35.4760   42.3400 C   0  0  0  0  0  0  0  0  0  0  0  0
   49.0870   35.8030   41.0060 C   0  0  0  0  0  0  0  0  0  0  0  0
   48.3150   34.9960   40.2090 C   0  0  0  0  0  0  0  0  0  0  0  0
   47.6920   33.9000   40.7680 C   0  0  0  0  0  0  0  0  0  0  0  0
   44.7725   34.0423   41.2955 H   0  0  0  0  0  0  0  0  0  0  0  0
   45.8408   32.7203   40.5420 H   0  0  0  0  0  0  0  0  0  0  0  0
   45.0061   30.4760   40.8936 H   0  0  0  0  0  0  0  0  0  0  0  0
   43.0914   29.0855   39.9929 H   0  0  0  0  0  0  0  0  0  0  0  0
   39.3250   32.7337   41.4159 H   0  0  0  0  0  0  0  0  0  0  0  0
   37.4357   33.9971   40.4047 H   0  0  0  0  0  0  0  0  0  0  0  0
   37.5553   34.7722   38.0880 H   0  0  0  0  0  0  0  0  0  0  0  0
   39.5983   34.2966   36.6864 H   0  0  0  0  0  0  0  0  0  0  0  0
   45.0148   31.6470   42.7660 H   0  0  0  0  0  0  0  0  0  0  0  0
   44.0152   36.6849   44.0514 H   0  0  0  0  0  0  0  0  0  0  0  0
   44.5106   35.0108   42.2308 H   0  0  0  0  0  0  0  0  0  0  0  0
   45.4362   33.9431   46.9802 H   0  0  0  0  0  0  0  0  0  0  0  0
   47.3819   32.0972   43.6012 H   0  0  0  0  0  0  0  0  0  0  0  0
   47.2901   31.4912   41.9073 H   0  0  0  0  0  0  0  0  0  0  0  0
   48.7039   34.1610   43.9589 H   0  0  0  0  0  0  0  0  0  0  0  0
   49.8199   36.1144   42.9904 H   0  0  0  0  0  0  0  0  0  0  0  0
   49.5977   36.6852   40.5925 H   0  0  0  0  0  0  0  0  0  0  0  0
   48.1946   35.2201   39.1388 H   0  0  0  0  0  0  0  0  0  0  0  0
   47.0796   33.2695   40.1066 H   0  0  0  0  0  0  0  0  0  0  0  0
  1 16  1  0
  2  1  1  0
  3  2  1  0
  4  3  2  0
  5  7  1  0
  5  4  1  0
  6  5  2  0
  7  8  1  0
  8  9  2  0
  8  2  1  0
 10  7  1  0
 10 11  2  0
 12 11  1  0
 13 12  2  0
 14 15  2  0
 14 13  1  0
 15 10  1  0
 16 23  1  0
 16 19  1  0
 17 22  2  0
 18 19  2  0
 18 17  1  0
 19 20  1  0
 20 21  2  0
 22 21  1  0
 24 23  1  0
 24 25  2  0
 26 25  1  0
 27 26  2  0
 28 29  2  0
 28 27  1  0
 29 24  1  0
  1 30  1  0
  1 31  1  0
  3 32  1  0
  4 33  1  0
 11 34  1  0
 12 35  1  0
 13 36  1  0
 14 37  1  0
 16 38  1  1
 17 39  1  0
 18 40  1  0
 21 41  1  0
 23 42  1  0
 23 43  1  0
 25 44  1  0
 26 45  1  0
 27 46  1  0
 28 47  1  0
 29 48  1  0
M  ISO  8  30   8  31   8  32  14  33  14  34  14  35  14  36  14  37  14
M  ISO  8  38   8  39  14  40  14  41  14  42   8  43   8  44  14  45  14
M  ISO  3  46  14  47  14  48  14
M  END
>  <minimizedAffinity>  (1) 
-6.10822058

>  <minimizedRMSD>  (1) 
2.08242488

$$$$
