
     RDKit          3D

 51 54  0  0  1  0  0  0  0  0999 V2000
   46.7330   33.4750   41.1150 C   0  0  1  0  0  0  0  0  0  0  0  0
   49.2350   30.7020   41.5780 C   0  0  0  0  0  0  0  0  0  0  0  0
   48.0130   31.3740   41.3680 C   0  0  0  0  0  0  0  0  0  0  0  0
   48.0080   32.7750   41.3210 C   0  0  0  0  0  0  0  0  0  0  0  0
   49.2100   33.4100   41.4850 N   0  0  0  0  0  0  0  0  0  0  0  0
   50.3770   32.7770   41.6850 C   0  0  0  0  0  0  0  0  0  0  0  0
   50.3920   31.4290   41.7310 N   0  0  0  0  0  0  0  0  0  0  0  0
   45.5630   32.6660   41.4790 C   0  0  0  0  0  0  0  0  0  0  0  0
   44.5580   32.4820   40.5030 N   0  0  0  0  0  0  0  0  0  0  0  0
   45.0020   31.9380   39.3450 C   0  0  0  0  0  0  0  0  0  0  0  0
   44.0970   31.7200   38.2800 C   0  0  0  0  0  0  0  0  0  0  0  0
   42.7910   32.0820   38.4810 C   0  0  0  0  0  0  0  0  0  0  0  0
   41.9840   31.8920   37.5360 O   0  0  0  0  0  0  0  0  0  0  0  0
   42.3640   32.6210   39.6340 N   0  0  0  0  0  0  0  0  0  0  0  0
   43.2540   32.8100   40.6210 C   0  0  0  0  0  0  0  0  0  0  0  0
   42.9170   33.3090   41.7190 O   0  0  0  0  0  0  0  0  0  0  0  0
   41.0010   33.0040   39.8580 C   0  0  0  0  0  0  0  0  0  0  0  0
   39.9770   32.2710   40.4090 C   0  0  0  0  0  0  0  0  0  0  0  0
   38.7520   32.8820   40.5120 C   0  0  0  0  0  0  0  0  0  0  0  0
   38.5610   34.1680   40.0840 C   0  0  0  0  0  0  0  0  0  0  0  0
   39.6180   34.9090   39.5230 C   0  0  0  0  0  0  0  0  0  0  0  0
   40.8140   34.2750   39.4360 N   0  0  0  0  0  0  0  0  0  0  0  0
   46.8380   34.7850   41.9030 C   0  0  0  0  0  0  0  0  0  0  0  0
   46.1120   34.8000   43.1300 N   0  0  0  0  0  0  0  0  0  0  0  0
   46.6400   33.9760   44.0850 C   0  0  0  0  0  0  0  0  0  0  0  0
   46.0780   33.8570   45.3480 C   0  0  0  0  0  0  0  0  0  0  0  0
   46.6260   32.9710   46.4080 C   0  0  0  0  0  0  0  0  0  0  0  0
   44.9470   34.5800   45.6880 C   0  0  0  0  0  0  0  0  0  0  0  0
   44.4290   34.4820   46.8210 O   0  0  0  0  0  0  0  0  0  0  0  0
   44.4590   35.3780   44.7220 N   0  0  0  0  0  0  0  0  0  0  0  0
   45.0150   35.4820   43.5030 C   0  0  0  0  0  0  0  0  0  0  0  0
   44.5510   36.2300   42.6130 O   0  0  0  0  0  0  0  0  0  0  0  0
   46.5678   33.6793   40.0468 H   0  0  0  0  0  0  0  0  0  0  0  0
   49.2623   29.6031   41.6191 H   0  0  0  0  0  0  0  0  0  0  0  0
   47.0784   30.8076   41.2430 H   0  0  0  0  0  0  0  0  0  0  0  0
   51.3079   33.3497   41.8096 H   0  0  0  0  0  0  0  0  0  0  0  0
   45.9298   31.6688   41.7638 H   0  0  0  0  0  0  0  0  0  0  0  0
   45.0699   33.2377   42.2790 H   0  0  0  0  0  0  0  0  0  0  0  0
   46.0621   31.6668   39.2331 H   0  0  0  0  0  0  0  0  0  0  0  0
   44.4284   31.2777   37.3289 H   0  0  0  0  0  0  0  0  0  0  0  0
   40.1326   31.2379   40.7531 H   0  0  0  0  0  0  0  0  0  0  0  0
   37.9075   32.3273   40.9469 H   0  0  0  0  0  0  0  0  0  0  0  0
   37.5669   34.6291   40.1799 H   0  0  0  0  0  0  0  0  0  0  0  0
   39.4819   35.9435   39.1749 H   0  0  0  0  0  0  0  0  0  0  0  0
   47.8992   34.9645   42.1302 H   0  0  0  0  0  0  0  0  0  0  0  0
   46.3940   35.5664   41.2688 H   0  0  0  0  0  0  0  0  0  0  0  0
   47.5386   33.3890   43.8444 H   0  0  0  0  0  0  0  0  0  0  0  0
   46.3721   33.3815   47.3965 H   0  0  0  0  0  0  0  0  0  0  0  0
   46.1919   31.9654   46.3060 H   0  0  0  0  0  0  0  0  0  0  0  0
   47.7196   32.9103   46.3060 H   0  0  0  0  0  0  0  0  0  0  0  0
   43.6182   35.9367   44.9263 H   0  0  0  0  0  0  0  0  0  0  0  0
  1  4  1  0
  1  8  1  0
  1 23  1  0
  2  7  2  0
  3  2  1  0
  4  3  2  0
  4  5  1  0
  5  6  2  0
  6  7  1  0
  9 15  1  0
  9  8  1  0
 10  9  1  0
 11 12  1  0
 11 10  2  0
 12 14  1  0
 13 12  2  0
 14 17  1  0
 14 15  1  0
 15 16  2  0
 17 18  2  0
 18 19  1  0
 20 19  2  0
 21 20  1  0
 22 21  2  0
 22 17  1  0
 23 24  1  0
 24 31  1  0
 24 25  1  0
 25 26  2  0
 26 28  1  0
 26 27  1  0
 28 29  2  0
 30 28  1  0
 31 30  1  0
 32 31  2  0
  1 33  1  6
  2 34  1  0
  3 35  1  0
  6 36  1  0
  8 37  1  0
  8 38  1  0
 10 39  1  0
 11 40  1  0
 18 41  1  0
 19 42  1  0
 20 43  1  0
 21 44  1  0
 23 45  1  0
 23 46  1  0
 25 47  1  0
 27 48  1  0
 27 49  1  0
 27 50  1  0
 30 51  1  0
M  ISO  8  33   8  34  14  35  14  36  14  37   8  38   8  39  14  40  14
M  ISO  8  41  14  42  14  43  14  44  14  45   8  46   8  47  14  48   8
M  ISO  3  49   8  50   8  51   9
M  END
>  <minimizedAffinity>  (1) 
-6.19237566

>  <minimizedRMSD>  (1) 
4.18254137

$$$$
