
     RDKit          3D

 39 41  0  0  1  0  0  0  0  0999 V2000
   45.1080   33.6600   40.5470 N   0  0  0  0  0  0  0  0  0  0  0  0
   45.5300   32.4260   40.1730 C   0  0  0  0  0  0  0  0  0  0  0  0
   44.6300   31.5150   39.5740 C   0  0  0  0  0  0  0  0  0  0  0  0
   43.3390   31.9430   39.3970 C   0  0  0  0  0  0  0  0  0  0  0  0
   42.5250   31.1480   38.8660 O   0  0  0  0  0  0  0  0  0  0  0  0
   42.9270   33.1660   39.7690 N   0  0  0  0  0  0  0  0  0  0  0  0
   43.8210   33.9930   40.3340 C   0  0  0  0  0  0  0  0  0  0  0  0
   43.4920   35.1440   40.6990 O   0  0  0  0  0  0  0  0  0  0  0  0
   41.5820   33.6220   39.5860 C   0  0  0  0  0  0  0  0  0  0  0  0
   40.5240   33.5770   40.4690 C   0  0  0  0  0  0  0  0  0  0  0  0
   39.3220   34.0930   40.0340 C   0  0  0  0  0  0  0  0  0  0  0  0
   39.1940   34.6250   38.7740 C   0  0  0  0  0  0  0  0  0  0  0  0
   40.2790   34.6610   37.8910 C   0  0  0  0  0  0  0  0  0  0  0  0
   41.4490   34.1480   38.3440 N   0  0  0  0  0  0  0  0  0  0  0  0
   46.1110   34.4640   41.1120 C   0  0  0  0  0  0  0  0  0  0  0  0
   46.7120   34.0060   42.3740 C   0  0  2  0  0  0  0  0  0  0  0  0
   44.5460   36.0140   44.6920 C   0  0  0  0  0  0  0  0  0  0  0  0
   45.2500   35.6050   43.5450 C   0  0  0  0  0  0  0  0  0  0  0  0
   45.9840   34.4150   43.5650 C   0  0  0  0  0  0  0  0  0  0  0  0
   45.9780   33.6940   44.7290 N   0  0  0  0  0  0  0  0  0  0  0  0
   45.3070   34.0790   45.8330 C   0  0  0  0  0  0  0  0  0  0  0  0
   44.5970   35.2280   45.8120 N   0  0  0  0  0  0  0  0  0  0  0  0
   48.1550   34.5270   42.5530 C   0  0  0  0  0  0  0  0  0  0  0  0
   48.7310   35.4230   41.1180 S   0  0  0  0  0  0  0  0  0  0  0  0
   46.5775   32.1329   40.3366 H   0  0  0  0  0  0  0  0  0  0  0  0
   44.9503   30.5093   39.2642 H   0  0  0  0  0  0  0  0  0  0  0  0
   40.6342   33.1483   41.4760 H   0  0  0  0  0  0  0  0  0  0  0  0
   38.4516   34.0785   40.7065 H   0  0  0  0  0  0  0  0  0  0  0  0
   38.2225   35.0294   38.4538 H   0  0  0  0  0  0  0  0  0  0  0  0
   40.1870   35.0844   36.8799 H   0  0  0  0  0  0  0  0  0  0  0  0
   46.9208   34.5503   40.3726 H   0  0  0  0  0  0  0  0  0  0  0  0
   45.6065   35.4080   41.3658 H   0  0  0  0  0  0  0  0  0  0  0  0
   46.6824   32.9101   42.2836 H   0  0  0  0  0  0  0  0  0  0  0  0
   43.9652   36.9481   44.6893 H   0  0  0  0  0  0  0  0  0  0  0  0
   45.2232   36.2204   42.6336 H   0  0  0  0  0  0  0  0  0  0  0  0
   45.3374   33.4625   46.7435 H   0  0  0  0  0  0  0  0  0  0  0  0
   48.1842   35.1973   43.4247 H   0  0  0  0  0  0  0  0  0  0  0  0
   48.8133   33.6572   42.6952 H   0  0  0  0  0  0  0  0  0  0  0  0
   49.4390   36.5244   41.5212 H   0  0  0  0  0  0  0  0  0  0  0  0
  1 15  1  0
  2  1  1  0
  3  2  2  0
  4  3  1  0
  4  6  1  0
  5  4  2  0
  6  7  1  0
  7  1  1  0
  7  8  2  0
  9  6  1  0
  9 10  2  0
 11 10  1  0
 12 11  2  0
 13 14  2  0
 13 12  1  0
 14  9  1  0
 15 16  1  0
 16 23  1  0
 16 19  1  0
 17 22  2  0
 18 19  2  0
 18 17  1  0
 19 20  1  0
 20 21  2  0
 22 21  1  0
 24 23  1  0
  2 25  1  0
  3 26  1  0
 10 27  1  0
 11 28  1  0
 12 29  1  0
 13 30  1  0
 15 31  1  0
 15 32  1  0
 16 33  1  6
 17 34  1  0
 18 35  1  0
 21 36  1  0
 23 37  1  0
 23 38  1  0
 24 39  1  0
M  ISO  8  25  14  26  14  27  14  28  14  29  14  30  14  31   8  32   8
M  ISO  7  33   8  34  14  35  14  36  14  37   8  38   8  39  11
M  END
>  <minimizedAffinity>  (1) 
-5.62272644

>  <minimizedRMSD>  (1) 
0.507905781

$$$$
