
     RDKit          3D

 20 21  0  0  0  0  0  0  0  0999 V2000
   46.0420   34.7890   43.5080 C   0  0  0  0  0  0  0  0  0  0  0  0
   46.6820   33.7020   44.1070 C   0  0  0  0  0  0  0  0  0  0  0  0
   46.3090   33.3320   45.4020 C   0  0  0  0  0  0  0  0  0  0  0  0
   45.3300   34.0600   46.0170 N   0  0  0  0  0  0  0  0  0  0  0  0
   44.7340   35.1060   45.4040 C   0  0  0  0  0  0  0  0  0  0  0  0
   45.0700   35.4870   44.1570 N   0  0  0  0  0  0  0  0  0  0  0  0
   46.4580   35.1600   42.1320 C   0  0  0  0  0  0  0  0  0  0  0  0
   47.8840   34.7810   41.9190 C   0  0  0  0  0  0  0  0  0  0  0  0
   48.3690   34.8710   40.4940 C   0  0  0  0  0  0  0  0  0  0  0  0
   48.9020   35.7990   41.5570 C   0  0  0  0  0  0  0  0  0  0  0  0
   47.4652   33.1473   43.5695 H   0  0  0  0  0  0  0  0  0  0  0  0
   46.7882   32.4820   45.9098 H   0  0  0  0  0  0  0  0  0  0  0  0
   43.9510   35.6630   45.9395 H   0  0  0  0  0  0  0  0  0  0  0  0
   45.8262   34.6305   41.4037 H   0  0  0  0  0  0  0  0  0  0  0  0
   46.3457   36.2460   41.9977 H   0  0  0  0  0  0  0  0  0  0  0  0
   47.8454   34.0214   42.7137 H   0  0  0  0  0  0  0  0  0  0  0  0
   47.7039   35.2559   39.7069 H   0  0  0  0  0  0  0  0  0  0  0  0
   48.8123   34.1703   39.7711 H   0  0  0  0  0  0  0  0  0  0  0  0
   49.9375   35.6896   41.9117 H   0  0  0  0  0  0  0  0  0  0  0  0
   48.9782   36.8910   41.6649 H   0  0  0  0  0  0  0  0  0  0  0  0
  1  2  2  0
  1  6  1  0
  2  3  1  0
  3  4  2  0
  5  4  1  0
  6  5  2  0
  7  1  1  0
  8  7  1  0
  9 10  1  0
  9  8  1  0
 10  8  1  0
  2 11  1  0
  3 12  1  0
  5 13  1  0
  7 14  1  0
  7 15  1  0
  8 16  1  0
  9 17  1  0
  9 18  1  0
 10 19  1  0
 10 20  1  0
M  ISO  8  11  14  12  14  13  14  14   8  15   8  16  13  17  13  18  13
M  ISO  2  19  13  20  13
M  END
>  <minimizedAffinity>  (1) 
-4.05935812

>  <minimizedRMSD>  (1) 
1.48131609

$$$$
