
     RDKit          3D

 20 21  0  0  0  0  0  0  0  0999 V2000
   46.1570   33.7940   44.7150 C   0  0  0  0  0  0  0  0  0  0  0  0
   45.2240   34.4050   45.5620 C   0  0  0  0  0  0  0  0  0  0  0  0
   44.5590   35.5580   45.0880 C   0  0  0  0  0  0  0  0  0  0  0  0
   44.8580   36.0070   43.8490 N   0  0  0  0  0  0  0  0  0  0  0  0
   45.7730   35.3800   43.0640 C   0  0  0  0  0  0  0  0  0  0  0  0
   46.4350   34.2670   43.4810 N   0  0  0  0  0  0  0  0  0  0  0  0
   46.8560   32.5790   45.2180 C   0  0  0  0  0  0  0  0  0  0  0  0
   46.3470   32.2730   46.5620 C   0  0  0  0  0  0  0  0  0  0  0  0
   47.0970   32.4700   47.7050 C   0  0  0  0  0  0  0  0  0  0  0  0
   46.3590   32.1000   48.7530 N   0  0  0  0  0  0  0  0  0  0  0  0
   45.1650   31.6730   48.3420 C   0  0  0  0  0  0  0  0  0  0  0  0
   45.1620   31.7810   47.0020 N   0  0  0  0  0  0  0  0  0  0  0  0
   45.0157   34.0005   46.5635 H   0  0  0  0  0  0  0  0  0  0  0  0
   43.8165   36.0771   45.7119 H   0  0  0  0  0  0  0  0  0  0  0  0
   45.9844   35.7839   42.0629 H   0  0  0  0  0  0  0  0  0  0  0  0
   46.6591   31.7318   44.5446 H   0  0  0  0  0  0  0  0  0  0  0  0
   47.9409   32.7563   45.2565 H   0  0  0  0  0  0  0  0  0  0  0  0
   48.1235   32.8633   47.7443 H   0  0  0  0  0  0  0  0  0  0  0  0
   44.3439   31.3048   48.9746 H   0  0  0  0  0  0  0  0  0  0  0  0
   44.3705   31.5258   46.3943 H   0  0  0  0  0  0  0  0  0  0  0  0
  1  7  1  0
  1  2  2  0
  3  2  1  0
  4  3  2  0
  5  6  2  0
  5  4  1  0
  6  1  1  0
  7  8  1  0
  8 12  1  0
  8  9  2  0
  9 10  1  0
 11 10  2  0
 12 11  1  0
  2 13  1  0
  3 14  1  0
  5 15  1  0
  7 16  1  0
  7 17  1  0
  9 18  1  0
 11 19  1  0
 12 20  1  0
M  ISO  8  13  14  14  14  15  14  16   8  17   8  18  14  19  14  20   9
M  END
>  <minimizedAffinity>  (1) 
-4.16101265

>  <minimizedRMSD>  (1) 
5.22511053

$$$$
