
     RDKit          3D

 26 27  0  0  0  0  0  0  0  0999 V2000
   44.1510   35.1170   42.7570 C   0  0  0  0  0  0  0  0  0  0  0  0
   44.7640   33.8630   42.8000 C   0  0  0  0  0  0  0  0  0  0  0  0
   45.3480   33.4390   43.9920 C   0  0  0  0  0  0  0  0  0  0  0  0
   45.2890   34.2800   45.0640 N   0  0  0  0  0  0  0  0  0  0  0  0
   44.6890   35.4870   44.9930 C   0  0  0  0  0  0  0  0  0  0  0  0
   44.1200   35.9170   43.8580 N   0  0  0  0  0  0  0  0  0  0  0  0
   43.5310   35.5620   41.4840 C   0  0  0  0  0  0  0  0  0  0  0  0
   42.3580   34.7740   41.1600 N   0  0  0  0  0  0  0  0  0  0  0  0
   42.3310   34.3400   39.8020 C   0  0  0  0  0  0  0  0  0  0  0  0
   40.9830   34.6390   39.1500 C   0  0  0  0  0  0  0  0  0  0  0  0
   40.7870   36.0090   39.3470 O   0  0  0  0  0  0  0  0  0  0  0  0
   40.3680   36.1550   40.6640 C   0  0  0  0  0  0  0  0  0  0  0  0
   41.1630   35.3730   41.6580 C   0  0  0  0  0  0  0  0  0  0  0  0
   44.7855   33.2204   41.9075 H   0  0  0  0  0  0  0  0  0  0  0  0
   45.8404   32.4582   44.0659 H   0  0  0  0  0  0  0  0  0  0  0  0
   44.6665   36.1308   45.8846 H   0  0  0  0  0  0  0  0  0  0  0  0
   43.2371   36.6177   41.5795 H   0  0  0  0  0  0  0  0  0  0  0  0
   44.2676   35.4318   40.6775 H   0  0  0  0  0  0  0  0  0  0  0  0
   43.1225   34.8613   39.2436 H   0  0  0  0  0  0  0  0  0  0  0  0
   42.4922   33.2521   39.7822 H   0  0  0  0  0  0  0  0  0  0  0  0
   40.1821   34.0596   39.6327 H   0  0  0  0  0  0  0  0  0  0  0  0
   40.9676   34.3664   38.0844 H   0  0  0  0  0  0  0  0  0  0  0  0
   40.4372   37.2200   40.9304 H   0  0  0  0  0  0  0  0  0  0  0  0
   39.3402   35.7657   40.7100 H   0  0  0  0  0  0  0  0  0  0  0  0
   40.5201   34.5705   42.0489 H   0  0  0  0  0  0  0  0  0  0  0  0
   41.4856   36.0972   42.4206 H   0  0  0  0  0  0  0  0  0  0  0  0
  1  2  2  0
  1  6  1  0
  2  3  1  0
  3  4  2  0
  5  4  1  0
  6  5  2  0
  7  1  1  0
  8  7  1  0
  8 13  1  0
  9  8  1  0
 10 11  1  0
 10  9  1  0
 11 12  1  0
 12 13  1  0
  2 14  1  0
  3 15  1  0
  5 16  1  0
  7 17  1  0
  7 18  1  0
  9 19  1  0
  9 20  1  0
 10 21  1  0
 10 22  1  0
 12 23  1  0
 12 24  1  0
 13 25  1  0
 13 26  1  0
M  ISO  8  14  14  15  14  16  14  17   8  18   8  19  13  20  13  21  13
M  ISO  5  22  13  23  13  24  13  25  13  26  13
M  END
>  <minimizedAffinity>  (1) 
-4.01022148

>  <minimizedRMSD>  (1) 
6.0400424

$$$$
