
     RDKit          3D

 24 26  0  0  0  0  0  0  0  0999 V2000
   46.1870   35.2710   42.2040 C   0  0  0  0  0  0  0  0  0  0  0  0
   45.3820   34.5860   41.2230 N   0  0  0  0  0  0  0  0  0  0  0  0
   45.8720   33.6240   40.3960 C   0  0  0  0  0  0  0  0  0  0  0  0
   44.9340   33.1480   39.5840 N   0  0  0  0  0  0  0  0  0  0  0  0
   43.7970   33.8000   39.8680 C   0  0  0  0  0  0  0  0  0  0  0  0
   42.4940   33.7880   39.4100 C   0  0  0  0  0  0  0  0  0  0  0  0
   41.5330   34.5880   39.9080 N   0  0  0  0  0  0  0  0  0  0  0  0
   41.8780   35.4320   40.8980 C   0  0  0  0  0  0  0  0  0  0  0  0
   43.1380   35.4980   41.3970 N   0  0  0  0  0  0  0  0  0  0  0  0
   44.0840   34.6880   40.8830 C   0  0  0  0  0  0  0  0  0  0  0  0
   45.8590   34.8520   43.5920 C   0  0  0  0  0  0  0  0  0  0  0  0
   46.5190   33.7360   44.1150 C   0  0  0  0  0  0  0  0  0  0  0  0
   46.2220   33.3260   45.4230 C   0  0  0  0  0  0  0  0  0  0  0  0
   45.3020   34.0410   46.1200 N   0  0  0  0  0  0  0  0  0  0  0  0
   44.6800   35.1140   45.5930 C   0  0  0  0  0  0  0  0  0  0  0  0
   44.9540   35.5230   44.3320 N   0  0  0  0  0  0  0  0  0  0  0  0
   46.0142   36.3533   42.1106 H   0  0  0  0  0  0  0  0  0  0  0  0
   47.2400   35.0156   42.0143 H   0  0  0  0  0  0  0  0  0  0  0  0
   46.9174   33.2817   40.3989 H   0  0  0  0  0  0  0  0  0  0  0  0
   42.2293   33.0920   38.6003 H   0  0  0  0  0  0  0  0  0  0  0  0
   41.1078   36.0947   41.3194 H   0  0  0  0  0  0  0  0  0  0  0  0
   47.2582   33.1891   43.5113 H   0  0  0  0  0  0  0  0  0  0  0  0
   46.7189   32.4524   45.8702 H   0  0  0  0  0  0  0  0  0  0  0  0
   43.9411   35.6639   46.1944 H   0  0  0  0  0  0  0  0  0  0  0  0
  1 11  1  0
  2  1  1  0
  3  2  1  0
  4  5  1  0
  4  3  2  0
  5 10  2  0
  6  5  1  0
  6  7  2  0
  7  8  1  0
  8  9  2  0
 10  2  1  0
 10  9  1  0
 11 12  2  0
 11 16  1  0
 12 13  1  0
 13 14  2  0
 15 14  1  0
 16 15  2  0
  1 17  1  0
  1 18  1  0
  3 19  1  0
  6 20  1  0
  8 21  1  0
 12 22  1  0
 13 23  1  0
 15 24  1  0
M  ISO  8  17   8  18   8  19  14  20  14  21  14  22  14  23  14  24  14
M  END
>  <minimizedAffinity>  (1) 
-4.40134668

>  <minimizedRMSD>  (1) 
1.91228724

$$$$
