
     RDKit          3D

 38 40  0  0  1  0  0  0  0  0999 V2000
   45.2820   33.8460   43.3040 C   0  0  0  0  0  0  0  0  0  0  0  0
   46.3450   32.9560   43.5440 C   0  0  0  0  0  0  0  0  0  0  0  0
   46.8240   32.8160   44.8600 C   0  0  0  0  0  0  0  0  0  0  0  0
   46.2460   33.5390   45.8370 N   0  0  0  0  0  0  0  0  0  0  0  0
   45.2420   34.3820   45.6130 C   0  0  0  0  0  0  0  0  0  0  0  0
   44.7800   34.5220   44.3740 N   0  0  0  0  0  0  0  0  0  0  0  0
   44.7060   34.1320   42.0410 C   0  0  0  0  0  0  0  0  0  0  0  0
   43.3830   33.3390   41.8210 C   0  0  0  0  0  0  0  0  0  0  0  0
   42.8400   34.1140   40.5900 C   0  0  0  0  0  0  0  0  0  0  0  0
   43.3480   35.5100   40.7540 C   0  0  0  0  0  0  0  0  0  0  0  0
   44.1480   35.5410   42.0410 C   0  0  0  0  0  0  0  0  0  0  0  0
   46.9230   32.1890   42.4250 C   0  0  1  0  0  0  0  0  0  0  0  0
   46.0200   31.1200   41.9180 C   0  0  0  0  0  0  0  0  0  0  0  0
   47.5390   33.1030   41.4490 C   0  0  0  0  0  0  0  0  0  0  0  0
   49.0250   33.0930   41.7000 N   0  0  0  0  0  0  0  0  0  0  0  0
   49.8050   33.9310   42.4080 C   0  0  0  0  0  0  0  0  0  0  0  0
   51.0790   33.5300   42.3620 N   0  0  0  0  0  0  0  0  0  0  0  0
   51.1280   32.4180   41.6150 C   0  0  0  0  0  0  0  0  0  0  0  0
   49.8710   32.1640   41.2190 N   0  0  0  0  0  0  0  0  0  0  0  0
   47.6537   32.1298   45.0854 H   0  0  0  0  0  0  0  0  0  0  0  0
   44.8000   34.9554   46.4411 H   0  0  0  0  0  0  0  0  0  0  0  0
   45.4982   33.9181   41.3084 H   0  0  0  0  0  0  0  0  0  0  0  0
   43.5700   32.2794   41.5922 H   0  0  0  0  0  0  0  0  0  0  0  0
   42.7078   33.2938   42.6882 H   0  0  0  0  0  0  0  0  0  0  0  0
   41.7401   34.1019   40.5804 H   0  0  0  0  0  0  0  0  0  0  0  0
   43.1692   33.6643   39.6417 H   0  0  0  0  0  0  0  0  0  0  0  0
   43.9903   35.7809   39.9031 H   0  0  0  0  0  0  0  0  0  0  0  0
   42.5164   36.2290   40.7908 H   0  0  0  0  0  0  0  0  0  0  0  0
   43.5067   35.7257   42.9154 H   0  0  0  0  0  0  0  0  0  0  0  0
   44.9043   36.3378   42.0962 H   0  0  0  0  0  0  0  0  0  0  0  0
   47.7645   31.5759   42.7800 H   0  0  0  0  0  0  0  0  0  0  0  0
   45.5696   30.5868   42.7682 H   0  0  0  0  0  0  0  0  0  0  0  0
   45.2254   31.5712   41.3056 H   0  0  0  0  0  0  0  0  0  0  0  0
   46.5976   30.4120   41.3056 H   0  0  0  0  0  0  0  0  0  0  0  0
   47.1416   34.1199   41.5830 H   0  0  0  0  0  0  0  0  0  0  0  0
   47.3160   32.7820   40.4208 H   0  0  0  0  0  0  0  0  0  0  0  0
   49.4450   34.8194   42.9476 H   0  0  0  0  0  0  0  0  0  0  0  0
   52.0245   31.8281   41.3734 H   0  0  0  0  0  0  0  0  0  0  0  0
  1  2  1  0
  1  6  2  0
  2  3  2  0
  3  4  1  0
  5  4  2  0
  6  5  1  0
  7 11  1  0
  7  1  1  0
  8  7  1  0
  9 10  1  0
  9  8  1  0
 10 11  1  0
 12  2  1  0
 13 12  1  0
 14 15  1  0
 14 12  1  0
 15 16  1  0
 17 16  2  0
 18 17  1  0
 19 18  2  0
 19 15  1  0
  3 20  1  0
  5 21  1  0
  7 22  1  0
  8 23  1  0
  8 24  1  0
  9 25  1  0
  9 26  1  0
 10 27  1  0
 10 28  1  0
 11 29  1  0
 11 30  1  0
 12 31  1  1
 13 32  1  0
 13 33  1  0
 13 34  1  0
 14 35  1  0
 14 36  1  0
 16 37  1  0
 18 38  1  0
M  ISO  8  20  14  21  14  22  13  23  13  24  13  25  13  26  13  27  13
M  ISO  8  28  13  29  13  30  13  31   8  32   8  33   8  34   8  35   8
M  ISO  3  36   8  37  14  38  14
M  END
>  <minimizedAffinity>  (1) 
-4.16879129

>  <minimizedRMSD>  (1) 
1.48144519

$$$$
