
     RDKit          3D

 30 32  0  0  0  0  0  0  0  0999 V2000
   45.7730   34.6730   41.4730 C   0  0  0  0  0  0  0  0  0  0  0  0
   44.5240   34.2730   41.0150 C   0  0  0  0  0  0  0  0  0  0  0  0
   44.3410   33.4720   39.9010 C   0  0  0  0  0  0  0  0  0  0  0  0
   45.5150   33.0950   39.2690 C   0  0  0  0  0  0  0  0  0  0  0  0
   46.7920   33.4530   39.6670 C   0  0  0  0  0  0  0  0  0  0  0  0
   46.9120   34.2630   40.7980 C   0  0  0  0  0  0  0  0  0  0  0  0
   46.0140   35.5290   42.6200 C   0  0  0  0  0  0  0  0  0  0  0  0
   45.7690   34.8970   43.9440 C   0  0  0  0  0  0  0  0  0  0  0  0
   46.5280   33.7430   44.2740 C   0  0  0  0  0  0  0  0  0  0  0  0
   46.2740   33.1640   45.5330 C   0  0  0  0  0  0  0  0  0  0  0  0
   45.3510   33.7170   46.3400 N   0  0  0  0  0  0  0  0  0  0  0  0
   44.6500   34.8280   45.9720 C   0  0  0  0  0  0  0  0  0  0  0  0
   44.8500   35.4230   44.7800 N   0  0  0  0  0  0  0  0  0  0  0  0
   48.3340   34.5140   41.1000 C   0  0  0  0  0  0  0  0  0  0  0  0
   48.8950   35.7610   41.6050 C   0  0  0  0  0  0  0  0  0  0  0  0
   48.9140   35.5920   40.1560 C   0  0  0  0  0  0  0  0  0  0  0  0
   43.6340   34.6104   41.5664 H   0  0  0  0  0  0  0  0  0  0  0  0
   43.3470   33.1609   39.5472 H   0  0  0  0  0  0  0  0  0  0  0  0
   45.4251   32.4582   38.3766 H   0  0  0  0  0  0  0  0  0  0  0  0
   47.6789   33.1120   39.1128 H   0  0  0  0  0  0  0  0  0  0  0  0
   47.0643   35.8543   42.5872 H   0  0  0  0  0  0  0  0  0  0  0  0
   45.2949   36.3575   42.5393 H   0  0  0  0  0  0  0  0  0  0  0  0
   47.2744   33.3236   43.5834 H   0  0  0  0  0  0  0  0  0  0  0  0
   46.8256   32.2677   45.8531 H   0  0  0  0  0  0  0  0  0  0  0  0
   43.9048   35.2473   46.6640 H   0  0  0  0  0  0  0  0  0  0  0  0
   48.4861   33.4823   41.4499 H   0  0  0  0  0  0  0  0  0  0  0  0
   48.2254   36.5112   42.0510 H   0  0  0  0  0  0  0  0  0  0  0  0
   49.6738   35.9908   42.3470 H   0  0  0  0  0  0  0  0  0  0  0  0
   49.8638   35.4166   39.6295 H   0  0  0  0  0  0  0  0  0  0  0  0
   48.5481   36.1625   39.2896 H   0  0  0  0  0  0  0  0  0  0  0  0
  1  7  1  0
  2  1  2  0
  3  2  1  0
  4  5  1  0
  4  3  2  0
  5  6  2  0
  6 14  1  0
  6  1  1  0
  7  8  1  0
  8  9  2  0
  8 13  1  0
  9 10  1  0
 10 11  2  0
 12 11  1  0
 13 12  2  0
 14 15  1  0
 16 14  1  0
 16 15  1  0
  2 17  1  0
  3 18  1  0
  4 19  1  0
  5 20  1  0
  7 21  1  0
  7 22  1  0
  9 23  1  0
 10 24  1  0
 12 25  1  0
 14 26  1  0
 15 27  1  0
 15 28  1  0
 16 29  1  0
 16 30  1  0
M  ISO  8  17  14  18  14  19  14  20  14  21   8  22   8  23  14  24  14
M  ISO  6  25  14  26  13  27  13  28  13  29  13  30  13
M  END
>  <minimizedAffinity>  (1) 
-4.8641386

>  <minimizedRMSD>  (1) 
1.75166786

$$$$
