
     RDKit          3D

 30 31  0  0  0  0  0  0  0  0999 V2000
   46.2860   33.9820   40.9690 C   0  0  0  0  0  0  0  0  0  0  0  0
   46.9440   33.8550   39.7780 C   0  0  0  0  0  0  0  0  0  0  0  0
   48.1660   34.4550   39.4950 C   0  0  0  0  0  0  0  0  0  0  0  0
   48.6700   35.2080   40.5440 C   0  0  0  0  0  0  0  0  0  0  0  0
   48.0720   35.3790   41.7520 C   0  0  0  0  0  0  0  0  0  0  0  0
   46.8490   34.7560   41.9870 C   0  0  0  0  0  0  0  0  0  0  0  0
   46.2050   34.9090   43.2470 N   0  0  0  0  0  0  0  0  0  0  0  0
   46.2190   33.9580   44.2960 C   0  0  0  0  0  0  0  0  0  0  0  0
   47.3860   33.4450   44.5290 N   0  0  0  0  0  0  0  0  0  0  0  0
   44.9910   33.6640   44.9820 N   0  0  0  0  0  0  0  0  0  0  0  0
   47.4510   32.7400   45.2920 H   0  0  0  0  0  0  0  0  0  0  0  0
   45.0020   33.3650   41.2920 C   0  0  0  0  0  0  0  0  0  0  0  0
   43.8840   33.7060   40.3820 C   0  0  0  0  0  0  0  0  0  0  0  0
   43.4210   32.7150   39.5120 C   0  0  0  0  0  0  0  0  0  0  0  0
   42.3610   33.0640   38.6530 C   0  0  0  0  0  0  0  0  0  0  0  0
   41.8490   34.3210   38.7050 N   0  0  0  0  0  0  0  0  0  0  0  0
   42.3380   35.2350   39.5670 C   0  0  0  0  0  0  0  0  0  0  0  0
   43.3490   34.9670   40.4150 N   0  0  0  0  0  0  0  0  0  0  0  0
   46.4778   33.2397   38.9943 H   0  0  0  0  0  0  0  0  0  0  0  0
   48.6834   34.3428   38.5308 H   0  0  0  0  0  0  0  0  0  0  0  0
   49.6360   35.7096   40.3850 H   0  0  0  0  0  0  0  0  0  0  0  0
   48.5447   35.9975   42.5292 H   0  0  0  0  0  0  0  0  0  0  0  0
   45.6859   35.7837   43.4092 H   0  0  0  0  0  0  0  0  0  0  0  0
   44.9810   32.9752   45.7477 H   0  0  0  0  0  0  0  0  0  0  0  0
   44.1208   34.1421   44.7080 H   0  0  0  0  0  0  0  0  0  0  0  0
   45.1356   32.2734   41.2705 H   0  0  0  0  0  0  0  0  0  0  0  0
   44.7181   33.7575   42.2796 H   0  0  0  0  0  0  0  0  0  0  0  0
   43.8643   31.7084   39.4988 H   0  0  0  0  0  0  0  0  0  0  0  0
   41.9519   32.3262   37.9472 H   0  0  0  0  0  0  0  0  0  0  0  0
   41.8929   36.2408   39.5780 H   0  0  0  0  0  0  0  0  0  0  0  0
  1 12  1  0
  1  6  1  0
  2  1  2  0
  3  2  1  0
  3  4  2  0
  4  5  1  0
  5  6  2  0
  6  7  1  0
  7  8  1  0
  8  9  2  0
  8 10  1  0
  9 11  1  0
 13 18  1  0
 13 12  1  0
 14 13  2  0
 15 16  2  0
 15 14  1  0
 16 17  1  0
 17 18  2  0
  2 19  1  0
  3 20  1  0
  4 21  1  0
  5 22  1  0
  7 23  1  0
 10 24  1  0
 10 25  1  0
 12 26  1  0
 12 27  1  0
 14 28  1  0
 15 29  1  0
 17 30  1  0
M  ISO  8  19  14  20  14  21  14  22  14  26   8  27   8  28  14  29  14
M  ISO  1  30  14
M  END
>  <minimizedAffinity>  (1) 
-4.92090464

>  <minimizedRMSD>  (1) 
4.66430426

$$$$
