
     RDKit          3D

 25 26  0  0  0  0  0  0  0  0999 V2000
   46.0110   34.6620   41.4190 C   0  0  0  0  0  0  0  0  0  0  0  0
   44.8530   34.1000   40.9480 C   0  0  0  0  0  0  0  0  0  0  0  0
   44.7800   33.2870   39.8320 C   0  0  0  0  0  0  0  0  0  0  0  0
   46.0280   33.0900   39.2190 C   0  0  0  0  0  0  0  0  0  0  0  0
   47.2190   33.6120   39.6240 C   0  0  0  0  0  0  0  0  0  0  0  0
   47.2070   34.4090   40.7410 C   0  0  0  0  0  0  0  0  0  0  0  0
   46.1280   35.5240   42.5930 C   0  0  0  0  0  0  0  0  0  0  0  0
   45.8800   34.8540   43.8890 C   0  0  0  0  0  0  0  0  0  0  0  0
   46.6360   33.7190   44.2060 C   0  0  0  0  0  0  0  0  0  0  0  0
   46.3890   33.0930   45.4430 C   0  0  0  0  0  0  0  0  0  0  0  0
   45.4410   33.6160   46.2550 N   0  0  0  0  0  0  0  0  0  0  0  0
   44.7270   34.7240   45.9080 C   0  0  0  0  0  0  0  0  0  0  0  0
   44.9440   35.3450   44.7280 N   0  0  0  0  0  0  0  0  0  0  0  0
   48.4760   34.9750   41.1880 C   0  0  0  0  0  0  0  0  0  0  0  0
   49.0100   35.9790   40.6060 O   0  0  0  0  0  0  0  0  0  0  0  0
   43.9210   34.3094   41.4934 H   0  0  0  0  0  0  0  0  0  0  0  0
   43.8440   32.8419   39.4635 H   0  0  0  0  0  0  0  0  0  0  0  0
   46.0454   32.4512   38.3236 H   0  0  0  0  0  0  0  0  0  0  0  0
   48.1513   33.4035   39.0787 H   0  0  0  0  0  0  0  0  0  0  0  0
   47.1471   35.9375   42.6123 H   0  0  0  0  0  0  0  0  0  0  0  0
   45.3467   36.2914   42.4896 H   0  0  0  0  0  0  0  0  0  0  0  0
   47.3964   33.3298   43.5129 H   0  0  0  0  0  0  0  0  0  0  0  0
   46.9543   32.1983   45.7428 H   0  0  0  0  0  0  0  0  0  0  0  0
   43.9650   35.1172   46.5970 H   0  0  0  0  0  0  0  0  0  0  0  0
   48.9874   34.5239   42.0511 H   0  0  0  0  0  0  0  0  0  0  0  0
  1  7  1  0
  2  1  2  0
  3  2  1  0
  4  5  1  0
  4  3  2  0
  5  6  2  0
  6 14  1  0
  6  1  1  0
  7  8  1  0
  8  9  2  0
  8 13  1  0
  9 10  1  0
 10 11  2  0
 12 11  1  0
 13 12  2  0
 15 14  2  0
  2 16  1  0
  3 17  1  0
  4 18  1  0
  5 19  1  0
  7 20  1  0
  7 21  1  0
  9 22  1  0
 10 23  1  0
 12 24  1  0
 14 25  1  0
M  ISO  8  16  14  17  14  18  14  19  14  20   8  21   8  22  14  23  14
M  ISO  2  24  14  25   6
M  END
>  <minimizedAffinity>  (1) 
-4.32077551

>  <minimizedRMSD>  (1) 
1.58229673

$$$$
