
     RDKit          3D

 26 27  0  0  0  0  0  0  0  0999 V2000
   46.4850   35.0600   42.2470 C   0  0  0  0  0  0  0  0  0  0  0  0
   46.2160   34.5270   43.5960 C   0  0  0  0  0  0  0  0  0  0  0  0
   46.9540   33.3980   43.9820 C   0  0  0  0  0  0  0  0  0  0  0  0
   46.7240   32.8620   45.2630 C   0  0  0  0  0  0  0  0  0  0  0  0
   45.8070   33.4570   46.0580 N   0  0  0  0  0  0  0  0  0  0  0  0
   45.1220   34.5400   45.6440 C   0  0  0  0  0  0  0  0  0  0  0  0
   45.3150   35.0880   44.4150 N   0  0  0  0  0  0  0  0  0  0  0  0
   44.1610   35.1500   46.4970 N   0  0  0  0  0  0  0  0  0  0  0  0
   45.6780   34.4590   41.1900 C   0  0  0  0  0  0  0  0  0  0  0  0
   44.3300   34.5560   41.0430 C   0  0  0  0  0  0  0  0  0  0  0  0
   43.6090   33.9650   40.0160 C   0  0  0  0  0  0  0  0  0  0  0  0
   44.4100   33.2530   39.1370 C   0  0  0  0  0  0  0  0  0  0  0  0
   45.7610   33.0930   39.1910 C   0  0  0  0  0  0  0  0  0  0  0  0
   46.3850   33.7210   40.2520 C   0  0  0  0  0  0  0  0  0  0  0  0
   48.1880   33.5290   40.3560 S   0  0  0  0  0  0  0  0  0  0  0  0
   46.2865   36.1419   42.2585 H   0  0  0  0  0  0  0  0  0  0  0  0
   47.5334   34.8191   42.0173 H   0  0  0  0  0  0  0  0  0  0  0  0
   47.6912   32.9447   43.3030 H   0  0  0  0  0  0  0  0  0  0  0  0
   47.2787   31.9777   45.6098 H   0  0  0  0  0  0  0  0  0  0  0  0
   43.6395   35.9782   46.1760 H   0  0  0  0  0  0  0  0  0  0  0  0
   43.9866   34.7635   47.4357 H   0  0  0  0  0  0  0  0  0  0  0  0
   43.7736   35.1427   41.7888 H   0  0  0  0  0  0  0  0  0  0  0  0
   42.5176   34.0521   39.9103 H   0  0  0  0  0  0  0  0  0  0  0  0
   43.8948   32.7604   38.2992 H   0  0  0  0  0  0  0  0  0  0  0  0
   46.3157   32.5062   38.4440 H   0  0  0  0  0  0  0  0  0  0  0  0
   48.5678   33.4886   41.6717 H   0  0  0  0  0  0  0  0  0  0  0  0
  1  2  1  0
  2  3  2  0
  2  7  1  0
  3  4  1  0
  4  5  2  0
  6  5  1  0
  6  8  1  0
  7  6  2  0
  9  1  1  0
 10  9  2  0
 11 10  1  0
 12 13  1  0
 12 11  2  0
 13 14  2  0
 14 15  1  0
 14  9  1  0
  1 16  1  0
  1 17  1  0
  3 18  1  0
  4 19  1  0
  8 20  1  0
  8 21  1  0
 10 22  1  0
 11 23  1  0
 12 24  1  0
 13 25  1  0
 15 26  1  0
M  ISO  8  16   8  17   8  18  14  19  14  22  14  23  14  24  14  25  14
M  ISO  1  26  11
M  END
>  <minimizedAffinity>  (1) 
-4.89839077

>  <minimizedRMSD>  (1) 
1.08133852

$$$$
