
     RDKit          3D

 34 35  0  0  1  0  0  0  0  0999 V2000
   45.6650   33.8570   43.6390 C   0  0  0  0  0  0  0  0  0  0  0  0
   46.8510   33.1230   43.8150 C   0  0  0  0  0  0  0  0  0  0  0  0
   47.2420   32.8060   45.1350 C   0  0  0  0  0  0  0  0  0  0  0  0
   46.4780   33.2150   46.1600 N   0  0  0  0  0  0  0  0  0  0  0  0
   45.3570   33.9130   45.9870 C   0  0  0  0  0  0  0  0  0  0  0  0
   44.9700   34.2200   44.7460 N   0  0  0  0  0  0  0  0  0  0  0  0
   45.1530   34.2890   42.3850 C   0  0  0  0  0  0  0  0  0  0  0  0
   43.9940   33.3650   41.8990 C   0  0  0  0  0  0  0  0  0  0  0  0
   43.4110   34.2570   40.7820 C   0  0  0  0  0  0  0  0  0  0  0  0
   43.6820   35.6640   41.2230 C   0  0  0  0  0  0  0  0  0  0  0  0
   44.3810   35.5750   42.5650 C   0  0  0  0  0  0  0  0  0  0  0  0
   47.6580   32.6970   42.6790 C   0  0  1  0  0  0  0  0  0  0  0  0
   46.9950   31.6470   41.8520 C   0  0  0  0  0  0  0  0  0  0  0  0
   48.1640   33.8720   41.9370 C   0  0  0  0  0  0  0  0  0  0  0  0
   49.0680   34.7160   42.6980 N   0  0  0  0  0  0  0  0  0  0  0  0
   48.1613   32.2311   45.3205 H   0  0  0  0  0  0  0  0  0  0  0  0
   44.7587   34.2319   46.8532 H   0  0  0  0  0  0  0  0  0  0  0  0
   46.0233   34.3328   41.7136 H   0  0  0  0  0  0  0  0  0  0  0  0
   44.3687   32.4080   41.5068 H   0  0  0  0  0  0  0  0  0  0  0  0
   43.2788   33.0609   42.6775 H   0  0  0  0  0  0  0  0  0  0  0  0
   42.3293   34.0869   40.6772 H   0  0  0  0  0  0  0  0  0  0  0  0
   43.8621   34.0383   39.8029 H   0  0  0  0  0  0  0  0  0  0  0  0
   44.3284   36.1721   40.4922 H   0  0  0  0  0  0  0  0  0  0  0  0
   42.7481   36.2399   41.3017 H   0  0  0  0  0  0  0  0  0  0  0  0
   43.6617   35.5048   43.3943 H   0  0  0  0  0  0  0  0  0  0  0  0
   44.9976   36.4492   42.8209 H   0  0  0  0  0  0  0  0  0  0  0  0
   48.5507   32.1758   43.0551 H   0  0  0  0  0  0  0  0  0  0  0  0
   46.5251   30.9029   42.5119 H   0  0  0  0  0  0  0  0  0  0  0  0
   46.2261   32.1115   41.2172 H   0  0  0  0  0  0  0  0  0  0  0  0
   47.7449   31.1525   41.2172 H   0  0  0  0  0  0  0  0  0  0  0  0
   48.6976   33.5123   41.0449 H   0  0  0  0  0  0  0  0  0  0  0  0
   47.2880   34.4903   41.6913 H   0  0  0  0  0  0  0  0  0  0  0  0
   48.9097   34.5683   43.7050 H   0  0  0  0  0  0  0  0  0  0  0  0
   50.0417   34.4745   42.4644 H   0  0  0  0  0  0  0  0  0  0  0  0
  1  2  2  0
  1  6  1  0
  2  3  1  0
  3  4  2  0
  5  4  1  0
  6  5  2  0
  7 11  1  0
  7  1  1  0
  8  7  1  0
  9 10  1  0
  9  8  1  0
 10 11  1  0
 12  2  1  0
 13 12  1  0
 14 12  1  0
 14 15  1  0
  3 16  1  0
  5 17  1  0
  7 18  1  0
  8 19  1  0
  8 20  1  0
  9 21  1  0
  9 22  1  0
 10 23  1  0
 10 24  1  0
 11 25  1  0
 11 26  1  0
 12 27  1  1
 13 28  1  0
 13 29  1  0
 13 30  1  0
 14 31  1  0
 14 32  1  0
 15 33  1  0
 15 34  1  0
M  ISO  8  16  14  17  14  18  13  19  13  20  13  21  13  22  13  23  13
M  ISO  8  24  13  25  13  26  13  27   8  28   8  29   8  30   8  31   8
M  ISO  3  32   8  33   5  34   5
M  END
>  <minimizedAffinity>  (1) 
-3.49266076

>  <minimizedRMSD>  (1) 
0.210133791

$$$$
