
     RDKit          3D

 26 27  0  0  0  0  0  0  0  0999 V2000
   46.7420   35.0690   42.4120 C   0  0  0  0  0  0  0  0  0  0  0  0
   46.6410   34.1920   43.5720 C   0  0  0  0  0  0  0  0  0  0  0  0
   47.3930   33.0810   43.8030 C   0  0  0  0  0  0  0  0  0  0  0  0
   47.2650   32.2730   44.9230 C   0  0  0  0  0  0  0  0  0  0  0  0
   46.2820   32.7060   45.8090 C   0  0  0  0  0  0  0  0  0  0  0  0
   45.4840   33.8020   45.6600 C   0  0  0  0  0  0  0  0  0  0  0  0
   45.6840   34.5430   44.5160 C   0  0  0  0  0  0  0  0  0  0  0  0
   44.6390   36.0120   44.2830 S   0  0  0  0  0  0  0  0  0  0  0  0
   46.5250   34.3940   41.1080 C   0  0  0  0  0  0  0  0  0  0  0  0
   45.2630   33.8220   40.8820 C   0  0  0  0  0  0  0  0  0  0  0  0
   45.0800   33.1850   39.6370 C   0  0  0  0  0  0  0  0  0  0  0  0
   46.0860   33.1460   38.7300 N   0  0  0  0  0  0  0  0  0  0  0  0
   47.2860   33.7260   39.0220 C   0  0  0  0  0  0  0  0  0  0  0  0
   47.5260   34.3480   40.1900 N   0  0  0  0  0  0  0  0  0  0  0  0
   48.3310   33.6510   38.0060 C   0  0  0  0  0  0  0  0  0  0  0  0
   48.5790   34.7120   37.3440 O   0  0  0  0  0  0  0  0  0  0  0  0
   45.9894   35.8644   42.5163 H   0  0  0  0  0  0  0  0  0  0  0  0
   47.7734   35.4511   42.3981 H   0  0  0  0  0  0  0  0  0  0  0  0
   48.1503   32.8067   43.0538 H   0  0  0  0  0  0  0  0  0  0  0  0
   47.8801   31.3774   45.0946 H   0  0  0  0  0  0  0  0  0  0  0  0
   46.1345   32.1051   46.7185 H   0  0  0  0  0  0  0  0  0  0  0  0
   44.7263   34.0777   46.4083 H   0  0  0  0  0  0  0  0  0  0  0  0
   44.2805   36.5160   45.5055 H   0  0  0  0  0  0  0  0  0  0  0  0
   44.4615   33.8681   41.6340 H   0  0  0  0  0  0  0  0  0  0  0  0
   44.1134   32.7163   39.4005 H   0  0  0  0  0  0  0  0  0  0  0  0
   48.8820   32.7175   37.8191 H   0  0  0  0  0  0  0  0  0  0  0  0
  1  2  1  0
  2  3  2  0
  2  7  1  0
  3  4  1  0
  4  5  2  0
  6  5  1  0
  7  6  2  0
  8  7  1  0
  9  1  1  0
 10  9  2  0
 11 10  1  0
 12 13  1  0
 12 11  2  0
 13 14  2  0
 14  9  1  0
 15 13  1  0
 16 15  2  0
  1 17  1  0
  1 18  1  0
  3 19  1  0
  4 20  1  0
  5 21  1  0
  6 22  1  0
  8 23  1  0
 10 24  1  0
 11 25  1  0
 15 26  1  0
M  ISO  8  17   8  18   8  19  14  20  14  21  14  22  14  23  11  24  14
M  ISO  2  25  14  26   6
M  END
>  <minimizedAffinity>  (1) 
-4.3773675

>  <minimizedRMSD>  (1) 
5.99963713

$$$$
