
     RDKit          3D

 33 34  0  0  0  0  0  0  0  0999 V2000
   47.8900   35.1340   41.9380 C   0  0  0  0  0  0  0  0  0  0  0  0
   47.9620   34.1100   40.9040 C   0  0  0  0  0  0  0  0  0  0  0  0
   47.0710   33.8920   39.9030 C   0  0  0  0  0  0  0  0  0  0  0  0
   47.1970   32.9000   38.9430 C   0  0  0  0  0  0  0  0  0  0  0  0
   48.3450   32.1220   39.0920 C   0  0  0  0  0  0  0  0  0  0  0  0
   49.2980   32.2660   40.0660 C   0  0  0  0  0  0  0  0  0  0  0  0
   49.0750   33.2870   40.9740 C   0  0  0  0  0  0  0  0  0  0  0  0
   50.3370   33.4850   42.2520 S   0  0  0  0  0  0  0  0  0  0  0  0
   46.9010   34.8500   43.0010 C   0  0  0  0  0  0  0  0  0  0  0  0
   45.7180   35.6040   42.9670 C   0  0  0  0  0  0  0  0  0  0  0  0
   44.7590   35.3530   43.9630 C   0  0  0  0  0  0  0  0  0  0  0  0
   45.0120   34.4070   44.9040 N   0  0  0  0  0  0  0  0  0  0  0  0
   46.1700   33.7140   44.8840 C   0  0  0  0  0  0  0  0  0  0  0  0
   47.1390   33.9080   43.9470 N   0  0  0  0  0  0  0  0  0  0  0  0
   46.3220   32.7070   45.9700 C   0  0  0  0  0  0  0  0  0  0  0  0
   46.1080   31.3320   45.3760 C   0  0  0  0  0  0  0  0  0  0  0  0
   45.4440   32.9790   47.1600 C   0  0  0  0  0  0  0  0  0  0  0  0
   47.6205   36.0880   41.4613 H   0  0  0  0  0  0  0  0  0  0  0  0
   48.8769   35.1654   42.4229 H   0  0  0  0  0  0  0  0  0  0  0  0
   46.1890   34.5472   39.8502 H   0  0  0  0  0  0  0  0  0  0  0  0
   46.4618   32.7415   38.1403 H   0  0  0  0  0  0  0  0  0  0  0  0
   48.4999   31.3170   38.3585 H   0  0  0  0  0  0  0  0  0  0  0  0
   50.1818   31.6135   40.1227 H   0  0  0  0  0  0  0  0  0  0  0  0
   49.7534   33.3934   43.4881 H   0  0  0  0  0  0  0  0  0  0  0  0
   45.5477   36.3633   42.1896 H   0  0  0  0  0  0  0  0  0  0  0  0
   43.8143   35.9162   43.9803 H   0  0  0  0  0  0  0  0  0  0  0  0
   47.3418   32.7705   46.3775 H   0  0  0  0  0  0  0  0  0  0  0  0
   45.9935   30.5965   46.1859 H   0  0  0  0  0  0  0  0  0  0  0  0
   45.2000   31.3381   44.7551 H   0  0  0  0  0  0  0  0  0  0  0  0
   46.9749   31.0618   44.7551 H   0  0  0  0  0  0  0  0  0  0  0  0
   46.0139   32.8024   48.0841 H   0  0  0  0  0  0  0  0  0  0  0  0
   45.1037   34.0247   47.1332 H   0  0  0  0  0  0  0  0  0  0  0  0
   44.5721   32.3088   47.1332 H   0  0  0  0  0  0  0  0  0  0  0  0
  1  9  1  0
  2  7  1  0
  2  1  1  0
  3  2  2  0
  4  5  2  0
  4  3  1  0
  5  6  1  0
  6  7  2  0
  7  8  1  0
  9 14  1  0
 10  9  2  0
 10 11  1  0
 11 12  2  0
 13 12  1  0
 13 15  1  0
 14 13  2  0
 15 17  1  0
 16 15  1  0
  1 18  1  0
  1 19  1  0
  3 20  1  0
  4 21  1  0
  5 22  1  0
  6 23  1  0
  8 24  1  0
 10 25  1  0
 11 26  1  0
 15 27  1  0
 16 28  1  0
 16 29  1  0
 16 30  1  0
 17 31  1  0
 17 32  1  0
 17 33  1  0
M  ISO  8  18   8  19   8  20  14  21  14  22  14  23  14  24  11  25  14
M  ISO  8  26  14  27   8  28   8  29   8  30   8  31   8  32   8  33   8
M  END
>  <minimizedAffinity>  (1) 
-4.57246971

>  <minimizedRMSD>  (1) 
3.44417405

$$$$
