
     RDKit          3D

 35 37  0  0  0  0  0  0  0  0999 V2000
   46.0790   34.5260   43.2970 C   0  0  0  0  0  0  0  0  0  0  0  0
   45.1830   35.6200   43.3000 C   0  0  0  0  0  0  0  0  0  0  0  0
   44.5090   35.9020   44.4910 C   0  0  0  0  0  0  0  0  0  0  0  0
   44.7230   35.1440   45.5820 N   0  0  0  0  0  0  0  0  0  0  0  0
   45.5970   34.1010   45.5220 C   0  0  0  0  0  0  0  0  0  0  0  0
   46.2640   33.8000   44.3930 N   0  0  0  0  0  0  0  0  0  0  0  0
   46.7970   34.2210   42.0400 C   0  0  0  0  0  0  0  0  0  0  0  0
   48.0470   33.4780   42.2130 C   0  0  0  0  0  0  0  0  0  0  0  0
   48.1350   32.1570   42.4660 C   0  0  0  0  0  0  0  0  0  0  0  0
   49.3370   31.4790   42.6260 C   0  0  0  0  0  0  0  0  0  0  0  0
   50.4700   32.2870   42.5010 C   0  0  0  0  0  0  0  0  0  0  0  0
   50.4520   33.6300   42.2450 C   0  0  0  0  0  0  0  0  0  0  0  0
   49.2250   34.2020   42.1050 C   0  0  0  0  0  0  0  0  0  0  0  0
   49.1730   35.9940   41.7630 S   0  0  0  0  0  0  0  0  0  0  0  0
   45.8630   33.2460   46.6860 C   0  0  0  0  0  0  0  0  0  0  0  0
   44.9880   32.9590   47.5550 O   0  0  0  0  0  0  0  0  0  0  0  0
   47.1040   32.6740   46.9390 O   0  0  0  0  0  0  0  0  0  0  0  0
   47.3340   31.3050   46.8750 C   0  0  0  0  0  0  0  0  0  0  0  0
   47.1050   30.5910   45.7010 C   0  0  0  0  0  0  0  0  0  0  0  0
   47.2950   29.2530   45.5280 C   0  0  0  0  0  0  0  0  0  0  0  0
   47.7440   28.5590   46.5930 N   0  0  0  0  0  0  0  0  0  0  0  0
   47.9810   29.2190   47.7640 C   0  0  0  0  0  0  0  0  0  0  0  0
   47.7860   30.5490   47.9170 N   0  0  0  0  0  0  0  0  0  0  0  0
   45.0224   36.2273   42.3970 H   0  0  0  0  0  0  0  0  0  0  0  0
   43.8029   36.7443   44.5368 H   0  0  0  0  0  0  0  0  0  0  0  0
   47.0305   35.1723   41.5395 H   0  0  0  0  0  0  0  0  0  0  0  0
   46.1304   33.5738   41.4511 H   0  0  0  0  0  0  0  0  0  0  0  0
   47.2008   31.5824   42.5507 H   0  0  0  0  0  0  0  0  0  0  0  0
   49.3919   30.4001   42.8331 H   0  0  0  0  0  0  0  0  0  0  0  0
   51.4522   31.8056   42.6175 H   0  0  0  0  0  0  0  0  0  0  0  0
   51.3786   34.2162   42.1570 H   0  0  0  0  0  0  0  0  0  0  0  0
   49.1530   36.6843   42.9462 H   0  0  0  0  0  0  0  0  0  0  0  0
   46.7371   31.1596   44.8342 H   0  0  0  0  0  0  0  0  0  0  0  0
   47.0916   28.7622   44.5648 H   0  0  0  0  0  0  0  0  0  0  0  0
   48.3484   28.6415   48.6251 H   0  0  0  0  0  0  0  0  0  0  0  0
  1  2  2  0
  1  6  1  0
  2  3  1  0
  3  4  2  0
  5  4  1  0
  5 15  1  0
  6  5  2  0
  7  8  1  0
  7  1  1  0
  8  9  2  0
  9 10  1  0
 11 10  2  0
 12 11  1  0
 13  8  1  0
 13 12  2  0
 14 13  1  0
 15 17  1  0
 15 16  2  0
 18 17  1  0
 18 23  1  0
 19 18  2  0
 20 19  1  0
 20 21  2  0
 21 22  1  0
 22 23  2  0
  2 24  1  0
  3 25  1  0
  7 26  1  0
  7 27  1  0
  9 28  1  0
 10 29  1  0
 11 30  1  0
 12 31  1  0
 14 32  1  0
 19 33  1  0
 20 34  1  0
 22 35  1  0
M  ISO  8  24  14  25  14  26   8  27   8  28  14  29  14  30  14  31  14
M  ISO  4  32  11  33  14  34  14  35  14
M  END
>  <minimizedAffinity>  (1) 
-5.39929485

>  <minimizedRMSD>  (1) 
2.37435174

$$$$
