
     RDKit          3D

 35 37  0  0  0  0  0  0  0  0999 V2000
   46.9420   35.1230   42.5680 C   0  0  0  0  0  0  0  0  0  0  0  0
   45.9170   36.0760   42.3920 C   0  0  0  0  0  0  0  0  0  0  0  0
   44.7950   35.9800   43.2200 C   0  0  0  0  0  0  0  0  0  0  0  0
   44.7200   35.0080   44.1440 N   0  0  0  0  0  0  0  0  0  0  0  0
   45.7400   34.1070   44.2770 C   0  0  0  0  0  0  0  0  0  0  0  0
   46.8310   34.1760   43.4930 N   0  0  0  0  0  0  0  0  0  0  0  0
   48.1340   35.2210   41.6930 C   0  0  0  0  0  0  0  0  0  0  0  0
   48.2570   34.1440   40.7090 C   0  0  0  0  0  0  0  0  0  0  0  0
   47.4620   33.9900   39.6300 C   0  0  0  0  0  0  0  0  0  0  0  0
   47.6130   32.9490   38.7140 C   0  0  0  0  0  0  0  0  0  0  0  0
   48.6500   32.0760   39.0000 C   0  0  0  0  0  0  0  0  0  0  0  0
   49.4840   32.1740   40.0640 C   0  0  0  0  0  0  0  0  0  0  0  0
   49.2710   33.2160   40.9090 C   0  0  0  0  0  0  0  0  0  0  0  0
   50.3800   33.3690   42.3510 S   0  0  0  0  0  0  0  0  0  0  0  0
   45.7010   33.0360   45.2650 C   0  0  0  0  0  0  0  0  0  0  0  0
   45.8580   31.8120   44.9770 O   0  0  0  0  0  0  0  0  0  0  0  0
   45.4880   33.2580   46.6240 O   0  0  0  0  0  0  0  0  0  0  0  0
   46.1110   32.4440   47.5900 C   0  0  0  0  0  0  0  0  0  0  0  0
   45.2910   31.6500   48.3680 C   0  0  0  0  0  0  0  0  0  0  0  0
   45.9450   30.8650   49.3060 C   0  0  0  0  0  0  0  0  0  0  0  0
   47.2890   30.8760   49.4510 N   0  0  0  0  0  0  0  0  0  0  0  0
   48.0550   31.6580   48.6800 C   0  0  0  0  0  0  0  0  0  0  0  0
   47.4630   32.4480   47.7430 N   0  0  0  0  0  0  0  0  0  0  0  0
   45.9978   36.8660   41.6308 H   0  0  0  0  0  0  0  0  0  0  0  0
   43.9718   36.7019   43.1147 H   0  0  0  0  0  0  0  0  0  0  0  0
   48.0844   36.1770   41.1511 H   0  0  0  0  0  0  0  0  0  0  0  0
   49.0117   35.1438   42.3515 H   0  0  0  0  0  0  0  0  0  0  0  0
   46.6562   34.7203   39.4647 H   0  0  0  0  0  0  0  0  0  0  0  0
   46.9615   32.8308   37.8356 H   0  0  0  0  0  0  0  0  0  0  0  0
   48.8094   31.2359   38.3081 H   0  0  0  0  0  0  0  0  0  0  0  0
   50.2918   31.4471   40.2344 H   0  0  0  0  0  0  0  0  0  0  0  0
   49.6467   33.2678   43.5038 H   0  0  0  0  0  0  0  0  0  0  0  0
   44.1972   31.6409   48.2519 H   0  0  0  0  0  0  0  0  0  0  0  0
   45.3477   30.2089   49.9562 H   0  0  0  0  0  0  0  0  0  0  0  0
   49.1482   31.6619   48.8022 H   0  0  0  0  0  0  0  0  0  0  0  0
  1  6  1  0
  2  1  2  0
  2  3  1  0
  3  4  2  0
  4  5  1  0
  5 15  1  0
  6  5  2  0
  7  1  1  0
  8 13  1  0
  8  7  1  0
  9  8  2  0
 10 11  2  0
 10  9  1  0
 11 12  1  0
 12 13  2  0
 13 14  1  0
 15 17  1  0
 16 15  2  0
 17 18  1  0
 18 23  1  0
 18 19  2  0
 19 20  1  0
 20 21  2  0
 22 21  1  0
 23 22  2  0
  2 24  1  0
  3 25  1  0
  7 26  1  0
  7 27  1  0
  9 28  1  0
 10 29  1  0
 11 30  1  0
 12 31  1  0
 14 32  1  0
 19 33  1  0
 20 34  1  0
 22 35  1  0
M  ISO  8  24  14  25  14  26   8  27   8  28  14  29  14  30  14  31  14
M  ISO  4  32  11  33  14  34  14  35  14
M  END
>  <minimizedAffinity>  (1) 
-5.28706694

>  <minimizedRMSD>  (1) 
1.13781607

$$$$
