
     RDKit          3D

 34 36  0  0  0  0  0  0  0  0999 V2000
   46.6070   35.0260   43.0300 C   0  0  0  0  0  0  0  0  0  0  0  0
   45.5730   35.9720   43.2030 C   0  0  0  0  0  0  0  0  0  0  0  0
   44.6860   35.7560   44.2630 C   0  0  0  0  0  0  0  0  0  0  0  0
   44.8300   34.6930   45.0680 N   0  0  0  0  0  0  0  0  0  0  0  0
   45.8460   33.8080   44.8600 C   0  0  0  0  0  0  0  0  0  0  0  0
   46.7200   33.9830   43.8480 N   0  0  0  0  0  0  0  0  0  0  0  0
   47.5520   35.2390   41.9150 C   0  0  0  0  0  0  0  0  0  0  0  0
   47.6930   34.1130   40.9980 C   0  0  0  0  0  0  0  0  0  0  0  0
   46.7730   33.7570   40.0770 C   0  0  0  0  0  0  0  0  0  0  0  0
   46.9210   32.6800   39.2080 C   0  0  0  0  0  0  0  0  0  0  0  0
   48.1230   31.9910   39.3740 C   0  0  0  0  0  0  0  0  0  0  0  0
   49.1000   32.2940   40.2820 C   0  0  0  0  0  0  0  0  0  0  0  0
   48.8520   33.3660   41.0830 C   0  0  0  0  0  0  0  0  0  0  0  0
   50.1380   33.7990   42.3070 S   0  0  0  0  0  0  0  0  0  0  0  0
   46.0390   32.6430   45.7050 C   0  0  0  0  0  0  0  0  0  0  0  0
   45.8320   31.4550   45.3100 O   0  0  0  0  0  0  0  0  0  0  0  0
   46.4740   32.7400   47.0360 O   0  0  0  0  0  0  0  0  0  0  0  0
   47.3460   31.7590   47.5820 C   0  0  0  0  0  0  0  0  0  0  0  0
   48.1190   32.1290   48.6050 C   0  0  0  0  0  0  0  0  0  0  0  0
   49.0050   31.3770   49.2650 C   0  0  0  0  0  0  0  0  0  0  0  0
   49.0250   30.0350   48.7070 C   0  0  0  0  0  0  0  0  0  0  0  0
   47.7480   30.0840   47.3060 S   0  0  0  0  0  0  0  0  0  0  0  0
   45.4697   36.8395   42.5346 H   0  0  0  0  0  0  0  0  0  0  0  0
   43.8629   36.4645   44.4378 H   0  0  0  0  0  0  0  0  0  0  0  0
   47.2057   36.1081   41.3364 H   0  0  0  0  0  0  0  0  0  0  0  0
   48.5404   35.3841   42.3754 H   0  0  0  0  0  0  0  0  0  0  0  0
   45.8513   34.3536   40.0091 H   0  0  0  0  0  0  0  0  0  0  0  0
   46.1631   32.3989   38.4619 H   0  0  0  0  0  0  0  0  0  0  0  0
   48.3006   31.1274   38.7162 H   0  0  0  0  0  0  0  0  0  0  0  0
   50.0277   31.7081   40.3599 H   0  0  0  0  0  0  0  0  0  0  0  0
   49.6394   33.6311   43.5720 H   0  0  0  0  0  0  0  0  0  0  0  0
   48.0152   33.1706   48.9432 H   0  0  0  0  0  0  0  0  0  0  0  0
   49.6261   31.7220   50.1048 H   0  0  0  0  0  0  0  0  0  0  0  0
   49.6424   29.1823   49.0259 H   0  0  0  0  0  0  0  0  0  0  0  0
  1  2  2  0
  1  6  1  0
  2  3  1  0
  3  4  2  0
  5  4  1  0
  5 15  1  0
  6  5  2  0
  7  1  1  0
  8 13  1  0
  8  7  1  0
  9  8  2  0
 10 11  2  0
 10  9  1  0
 11 12  1  0
 12 13  2  0
 13 14  1  0
 15 17  1  0
 16 15  2  0
 17 18  1  0
 18 19  2  0
 19 20  1  0
 21 20  2  0
 22 18  1  0
 22 21  1  0
  2 23  1  0
  3 24  1  0
  7 25  1  0
  7 26  1  0
  9 27  1  0
 10 28  1  0
 11 29  1  0
 12 30  1  0
 14 31  1  0
 19 32  1  0
 20 33  1  0
 21 34  1  0
M  ISO  8  23  14  24  14  25   8  26   8  27  14  28  14  29  14  30  14
M  ISO  4  31  11  32  14  33  14  34  14
M  END
>  <minimizedAffinity>  (1) 
-5.2447114

>  <minimizedRMSD>  (1) 
0.699622691

$$$$
