
     RDKit          3D

 30 33  0  0  0  0  0  0  0  0999 V2000
   41.4080   33.6770   40.7080 C   0  0  0  0  0  0  0  0  0  0  0  0
   42.6640   34.2840   40.9200 C   0  0  0  0  0  0  0  0  0  0  0  0
   43.6630   33.5850   41.6190 C   0  0  0  0  0  0  0  0  0  0  0  0
   43.3540   32.3400   42.0570 N   0  0  0  0  0  0  0  0  0  0  0  0
   42.1260   31.7910   41.8280 C   0  0  0  0  0  0  0  0  0  0  0  0
   41.1810   32.4540   41.1670 N   0  0  0  0  0  0  0  0  0  0  0  0
   44.9300   34.1940   41.8350 N   0  0  0  0  0  0  0  0  0  0  0  0
   45.3870   34.9320   42.8870 C   0  0  0  0  0  0  0  0  0  0  0  0
   46.6460   35.2790   42.6180 N   0  0  0  0  0  0  0  0  0  0  0  0
   46.9760   34.7780   41.4350 C   0  0  0  0  0  0  0  0  0  0  0  0
   48.1830   34.8780   40.7380 C   0  0  0  0  0  0  0  0  0  0  0  0
   48.2540   34.2700   39.5450 N   0  0  0  0  0  0  0  0  0  0  0  0
   47.1810   33.5910   39.0550 C   0  0  0  0  0  0  0  0  0  0  0  0
   46.0160   33.4930   39.7220 N   0  0  0  0  0  0  0  0  0  0  0  0
   45.8870   34.0820   40.9240 C   0  0  0  0  0  0  0  0  0  0  0  0
   49.2730   35.5970   41.2940 N   0  0  0  0  0  0  0  0  0  0  0  0
   40.3840   34.4550   39.9720 C   0  0  0  0  0  0  0  0  0  0  0  0
   39.9740   35.8060   40.5210 C   0  0  0  0  0  0  0  0  0  0  0  0
   40.7040   35.6870   39.2440 C   0  0  0  0  0  0  0  0  0  0  0  0
   42.8600   35.2977   40.5406 H   0  0  0  0  0  0  0  0  0  0  0  0
   41.9127   30.7774   42.1983 H   0  0  0  0  0  0  0  0  0  0  0  0
   44.8200   35.1934   43.7927 H   0  0  0  0  0  0  0  0  0  0  0  0
   47.2695   33.1022   38.0735 H   0  0  0  0  0  0  0  0  0  0  0  0
   50.1607   35.6680   40.7765 H   0  0  0  0  0  0  0  0  0  0  0  0
   49.1763   36.0479   42.2150 H   0  0  0  0  0  0  0  0  0  0  0  0
   39.8868   33.5153   39.6896 H   0  0  0  0  0  0  0  0  0  0  0  0
   38.9148   36.1026   40.5275 H   0  0  0  0  0  0  0  0  0  0  0  0
   40.1267   36.3492   41.4652 H   0  0  0  0  0  0  0  0  0  0  0  0
   41.7485   36.0261   39.1803 H   0  0  0  0  0  0  0  0  0  0  0  0
   40.5181   36.0416   38.2195 H   0  0  0  0  0  0  0  0  0  0  0  0
  1  2  2  0
  1  6  1  0
  2  3  1  0
  3  7  1  0
  3  4  2  0
  5  4  1  0
  6  5  2  0
  7  8  1  0
  9  8  2  0
 10  9  1  0
 11 16  1  0
 11 10  2  0
 12 11  1  0
 13 12  2  0
 13 14  1  0
 14 15  2  0
 15 10  1  0
 15  7  1  0
 17 18  1  0
 17  1  1  0
 19 17  1  0
 19 18  1  0
  2 20  1  0
  5 21  1  0
  8 22  1  0
 13 23  1  0
 16 24  1  0
 16 25  1  0
 17 26  1  0
 18 27  1  0
 18 28  1  0
 19 29  1  0
 19 30  1  0
M  ISO  8  20  14  21  14  22  14  23  14  26  13  27  13  28  13  29  13
M  ISO  1  30  13
M  END
>  <minimizedAffinity>  (1) 
-5.35510969

>  <minimizedRMSD>  (1) 
6.1448555

$$$$
