
     RDKit          3D

 31 34  0  0  0  0  0  0  0  0999 V2000
   43.0030   34.7910   40.0170 C   0  0  0  0  0  0  0  0  0  0  0  0
   44.2230   34.1200   40.0240 C   0  0  0  0  0  0  0  0  0  0  0  0
   45.1640   34.2160   41.0220 C   0  0  0  0  0  0  0  0  0  0  0  0
   44.8040   35.0440   42.0420 N   0  0  0  0  0  0  0  0  0  0  0  0
   43.6090   35.7030   42.0410 C   0  0  0  0  0  0  0  0  0  0  0  0
   42.7360   35.5750   41.0490 N   0  0  0  0  0  0  0  0  0  0  0  0
   46.4400   33.5600   41.1430 C   0  0  0  0  0  0  0  0  0  0  0  0
   46.5890   32.2130   40.7870 C   0  0  0  0  0  0  0  0  0  0  0  0
   47.8380   31.8200   40.9900 N   0  0  0  0  0  0  0  0  0  0  0  0
   48.5660   32.8350   41.4740 C   0  0  0  0  0  0  0  0  0  0  0  0
   49.8790   32.9670   41.8550 C   0  0  0  0  0  0  0  0  0  0  0  0
   50.3810   34.1570   42.3410 C   0  0  0  0  0  0  0  0  0  0  0  0
   49.4760   35.2180   42.4220 C   0  0  0  0  0  0  0  0  0  0  0  0
   48.1680   35.0570   42.0330 C   0  0  0  0  0  0  0  0  0  0  0  0
   47.7000   33.8810   41.5600 C   0  0  0  0  0  0  0  0  0  0  0  0
   42.0970   34.5980   38.8630 C   0  0  0  0  0  0  0  0  0  0  0  0
   40.6750   35.1030   38.9970 C   0  0  0  0  0  0  0  0  0  0  0  0
   41.6230   35.7340   38.0640 C   0  0  0  0  0  0  0  0  0  0  0  0
   44.4505   33.4658   39.1694 H   0  0  0  0  0  0  0  0  0  0  0  0
   43.3616   36.3601   42.8877 H   0  0  0  0  0  0  0  0  0  0  0  0
   45.7844   31.5734   40.3951 H   0  0  0  0  0  0  0  0  0  0  0  0
   48.1967   30.8727   40.8030 H   0  0  0  0  0  0  0  0  0  0  0  0
   50.5496   32.0992   41.7703 H   0  0  0  0  0  0  0  0  0  0  0  0
   51.4323   34.2638   42.6467 H   0  0  0  0  0  0  0  0  0  0  0  0
   49.8143   36.1935   42.8015 H   0  0  0  0  0  0  0  0  0  0  0  0
   47.4804   35.9122   42.1090 H   0  0  0  0  0  0  0  0  0  0  0  0
   42.5948   33.6490   38.6148 H   0  0  0  0  0  0  0  0  0  0  0  0
   39.8365   34.5036   38.6126 H   0  0  0  0  0  0  0  0  0  0  0  0
   40.0406   35.4507   39.8257 H   0  0  0  0  0  0  0  0  0  0  0  0
   42.0035   36.7443   38.2751 H   0  0  0  0  0  0  0  0  0  0  0  0
   41.6034   35.9574   36.9871 H   0  0  0  0  0  0  0  0  0  0  0  0
  1  2  2  0
  1  6  1  0
  2  3  1  0
  3  7  1  0
  3  4  2  0
  5  4  1  0
  6  5  2  0
  7 15  1  0
  8  9  1  0
  8  7  2  0
  9 10  1  0
 10 15  2  0
 10 11  1  0
 11 12  2  0
 12 13  1  0
 14 13  2  0
 15 14  1  0
 16 17  1  0
 16  1  1  0
 18 16  1  0
 18 17  1  0
  2 19  1  0
  5 20  1  0
  8 21  1  0
  9 22  1  0
 11 23  1  0
 12 24  1  0
 13 25  1  0
 14 26  1  0
 16 27  1  0
 17 28  1  0
 17 29  1  0
 18 30  1  0
 18 31  1  0
M  ISO  8  19  14  20  14  21  14  22   9  23  14  24  14  25  14  26  14
M  ISO  5  27  13  28  13  29  13  30  13  31  13
M  END
>  <minimizedAffinity>  (1) 
-5.15782881

>  <minimizedRMSD>  (1) 
4.67312145

$$$$
