
     RDKit          3D

 33 35  0  0  0  0  0  0  0  0999 V2000
   45.4750   34.4790   44.3010 C   0  0  0  0  0  0  0  0  0  0  0  0
   46.3110   34.0720   43.2480 C   0  0  0  0  0  0  0  0  0  0  0  0
   47.2590   33.0550   43.4770 C   0  0  0  0  0  0  0  0  0  0  0  0
   47.3060   32.5200   44.7320 N   0  0  0  0  0  0  0  0  0  0  0  0
   46.4700   32.9540   45.7210 C   0  0  0  0  0  0  0  0  0  0  0  0
   45.5630   33.9240   45.5080 N   0  0  0  0  0  0  0  0  0  0  0  0
   44.5000   35.5580   44.0070 C   0  0  0  0  0  0  0  0  0  0  0  0
   45.0280   36.9060   43.5480 C   0  0  0  0  0  0  0  0  0  0  0  0
   44.2540   36.0420   42.6450 C   0  0  0  0  0  0  0  0  0  0  0  0
   48.1780   32.5510   42.4600 C   0  0  0  0  0  0  0  0  0  0  0  0
   48.8880   33.6990   41.8250 C   0  0  0  0  0  0  0  0  0  0  0  0
   50.2990   33.8500   42.3240 C   0  0  0  0  0  0  0  0  0  0  0  0
   51.1140   32.5980   42.1530 C   0  0  0  0  0  0  0  0  0  0  0  0
   50.2360   31.3950   41.9560 C   0  0  0  0  0  0  0  0  0  0  0  0
   49.1000   31.4590   42.9660 C   0  0  0  0  0  0  0  0  0  0  0  0
   46.2266   34.5415   42.2568 H   0  0  0  0  0  0  0  0  0  0  0  0
   46.5404   32.4976   46.7194 H   0  0  0  0  0  0  0  0  0  0  0  0
   43.8503   35.1773   44.8088 H   0  0  0  0  0  0  0  0  0  0  0  0
   44.5870   37.8352   43.9381 H   0  0  0  0  0  0  0  0  0  0  0  0
   46.0136   37.3934   43.5151 H   0  0  0  0  0  0  0  0  0  0  0  0
   43.2368   36.3380   42.3488 H   0  0  0  0  0  0  0  0  0  0  0  0
   44.4353   35.6274   41.6424 H   0  0  0  0  0  0  0  0  0  0  0  0
   47.5915   32.0424   41.6806 H   0  0  0  0  0  0  0  0  0  0  0  0
   48.3342   34.6231   42.0474 H   0  0  0  0  0  0  0  0  0  0  0  0
   48.9346   33.5064   40.7430 H   0  0  0  0  0  0  0  0  0  0  0  0
   50.7841   34.6643   41.7657 H   0  0  0  0  0  0  0  0  0  0  0  0
   50.2482   34.0679   43.4010 H   0  0  0  0  0  0  0  0  0  0  0  0
   51.7662   32.7127   41.2747 H   0  0  0  0  0  0  0  0  0  0  0  0
   51.7102   32.4458   43.0648 H   0  0  0  0  0  0  0  0  0  0  0  0
   49.8261   31.3974   40.9352 H   0  0  0  0  0  0  0  0  0  0  0  0
   50.8192   30.4737   42.1010 H   0  0  0  0  0  0  0  0  0  0  0  0
   49.4857   31.7121   43.9646 H   0  0  0  0  0  0  0  0  0  0  0  0
   48.5804   30.4942   43.0614 H   0  0  0  0  0  0  0  0  0  0  0  0
  1  6  2  0
  2  3  2  0
  2  1  1  0
  3  4  1  0
  4  5  2  0
  6  5  1  0
  7  1  1  0
  8  7  1  0
  9  8  1  0
  9  7  1  0
 10 15  1  0
 10  3  1  0
 11 12  1  0
 11 10  1  0
 13 12  1  0
 14 13  1  0
 14 15  1  0
  2 16  1  0
  5 17  1  0
  7 18  1  0
  8 19  1  0
  8 20  1  0
  9 21  1  0
  9 22  1  0
 10 23  1  0
 11 24  1  0
 11 25  1  0
 12 26  1  0
 12 27  1  0
 13 28  1  0
 13 29  1  0
 14 30  1  0
 14 31  1  0
 15 32  1  0
 15 33  1  0
M  ISO  8  16  14  17  14  18  13  19  13  20  13  21  13  22  13  23  13
M  ISO  8  24  13  25  13  26  13  27  13  28  13  29  13  30  13  31  13
M  ISO  2  32  13  33  13
M  END
>  <minimizedAffinity>  (1) 
-4.1843338

>  <minimizedRMSD>  (1) 
1.40818536

$$$$
