
     RDKit          3D

 25 27  0  0  0  0  0  0  0  0999 V2000
   45.4000   34.6090   44.3590 C   0  0  0  0  0  0  0  0  0  0  0  0
   46.4660   34.1740   43.5190 C   0  0  0  0  0  0  0  0  0  0  0  0
   47.3520   33.2120   43.9840 C   0  0  0  0  0  0  0  0  0  0  0  0
   47.1650   32.7240   45.2260 N   0  0  0  0  0  0  0  0  0  0  0  0
   46.1360   33.1600   46.0080 C   0  0  0  0  0  0  0  0  0  0  0  0
   45.2670   34.0920   45.5720 N   0  0  0  0  0  0  0  0  0  0  0  0
   44.4670   35.6460   43.8530 C   0  0  0  0  0  0  0  0  0  0  0  0
   45.0650   36.9350   43.3150 C   0  0  0  0  0  0  0  0  0  0  0  0
   44.3880   35.9750   42.4260 C   0  0  0  0  0  0  0  0  0  0  0  0
   48.4520   32.7450   43.1510 C   0  0  0  0  0  0  0  0  0  0  0  0
   49.3770   33.6590   42.6900 C   0  0  0  0  0  0  0  0  0  0  0  0
   50.3830   33.1250   41.9090 C   0  0  0  0  0  0  0  0  0  0  0  0
   50.4890   31.8120   41.5960 N   0  0  0  0  0  0  0  0  0  0  0  0
   49.5530   30.9530   42.0750 C   0  0  0  0  0  0  0  0  0  0  0  0
   48.5550   31.4410   42.8420 N   0  0  0  0  0  0  0  0  0  0  0  0
   46.5856   34.5971   42.5107 H   0  0  0  0  0  0  0  0  0  0  0  0
   46.0131   32.7409   47.0176 H   0  0  0  0  0  0  0  0  0  0  0  0
   43.7230   35.3588   44.6106 H   0  0  0  0  0  0  0  0  0  0  0  0
   44.5948   37.9022   43.5461 H   0  0  0  0  0  0  0  0  0  0  0  0
   46.0545   37.4146   43.3454 H   0  0  0  0  0  0  0  0  0  0  0  0
   43.4166   36.2373   41.9815 H   0  0  0  0  0  0  0  0  0  0  0  0
   44.6789   35.4511   41.5035 H   0  0  0  0  0  0  0  0  0  0  0  0
   49.3177   34.7316   42.9266 H   0  0  0  0  0  0  0  0  0  0  0  0
   51.1478   33.8109   41.5157 H   0  0  0  0  0  0  0  0  0  0  0  0
   49.6069   29.8792   41.8424 H   0  0  0  0  0  0  0  0  0  0  0  0
  1  6  2  0
  2  3  2  0
  2  1  1  0
  3  4  1  0
  4  5  2  0
  6  5  1  0
  7  1  1  0
  8  7  1  0
  9  8  1  0
  9  7  1  0
 10  3  1  0
 11 10  2  0
 12 11  1  0
 13 12  2  0
 13 14  1  0
 14 15  2  0
 15 10  1  0
  2 16  1  0
  5 17  1  0
  7 18  1  0
  8 19  1  0
  8 20  1  0
  9 21  1  0
  9 22  1  0
 11 23  1  0
 12 24  1  0
 14 25  1  0
M  ISO  8  16  14  17  14  18  13  19  13  20  13  21  13  22  13  23  14
M  ISO  2  24  14  25  14
M  END
>  <minimizedAffinity>  (1) 
-4.04023504

>  <minimizedRMSD>  (1) 
1.31828523

$$$$
