
     RDKit          3D

 24 26  0  0  0  0  0  0  0  0999 V2000
   44.0530   34.4900   41.2890 C   0  0  0  0  0  0  0  0  0  0  0  0
   42.8620   35.1840   41.0020 C   0  0  0  0  0  0  0  0  0  0  0  0
   42.2240   34.9640   39.7660 C   0  0  0  0  0  0  0  0  0  0  0  0
   42.8020   34.0860   38.9160 N   0  0  0  0  0  0  0  0  0  0  0  0
   43.9480   33.4400   39.2320 C   0  0  0  0  0  0  0  0  0  0  0  0
   44.5630   33.6360   40.3940 N   0  0  0  0  0  0  0  0  0  0  0  0
   44.6980   34.7580   42.5960 C   0  0  0  0  0  0  0  0  0  0  0  0
   46.1250   35.2620   42.5960 C   0  0  0  0  0  0  0  0  0  0  0  0
   45.0130   36.1280   43.0230 C   0  0  0  0  0  0  0  0  0  0  0  0
   40.9680   35.7140   39.4970 C   0  0  0  0  0  0  0  0  0  0  0  0
   39.6590   35.1150   39.8950 C   0  0  0  0  0  0  0  0  0  0  0  0
   40.1960   36.2970   40.6450 C   0  0  0  0  0  0  0  0  0  0  0  0
   42.4362   35.8876   41.7325 H   0  0  0  0  0  0  0  0  0  0  0  0
   44.3821   32.7342   38.5085 H   0  0  0  0  0  0  0  0  0  0  0  0
   44.1429   33.9242   43.0506 H   0  0  0  0  0  0  0  0  0  0  0  0
   46.8455   34.8823   43.3354 H   0  0  0  0  0  0  0  0  0  0  0  0
   46.9319   35.3318   41.8517 H   0  0  0  0  0  0  0  0  0  0  0  0
   44.7115   36.9777   42.3929 H   0  0  0  0  0  0  0  0  0  0  0  0
   44.8036   36.7156   43.9290 H   0  0  0  0  0  0  0  0  0  0  0  0
   41.3893   36.1127   38.5623 H   0  0  0  0  0  0  0  0  0  0  0  0
   38.7808   35.2309   39.2428 H   0  0  0  0  0  0  0  0  0  0  0  0
   39.3193   34.1068   40.1747 H   0  0  0  0  0  0  0  0  0  0  0  0
   40.5639   36.1753   41.6745 H   0  0  0  0  0  0  0  0  0  0  0  0
   39.8150   37.2968   40.9005 H   0  0  0  0  0  0  0  0  0  0  0  0
  1  7  1  0
  2  1  2  0
  3  2  1  0
  4  5  1  0
  4  3  2  0
  5  6  2  0
  6  1  1  0
  7  9  1  0
  8  7  1  0
  8  9  1  0
 10  3  1  0
 10 11  1  0
 10 12  1  0
 11 12  1  0
  2 13  1  0
  5 14  1  0
  7 15  1  0
  8 16  1  0
  8 17  1  0
  9 18  1  0
  9 19  1  0
 10 20  1  0
 11 21  1  0
 11 22  1  0
 12 23  1  0
 12 24  1  0
M  ISO  8  13  14  14  14  15  13  16  13  17  13  18  13  19  13  20  13
M  ISO  4  21  13  22  13  23  13  24  13
M  END
>  <minimizedAffinity>  (1) 
-4.091506

>  <minimizedRMSD>  (1) 
6.94059515

$$$$
