
     RDKit          3D

 24 26  0  0  0  0  0  0  0  0999 V2000
   45.4820   34.5370   44.2350 C   0  0  0  0  0  0  0  0  0  0  0  0
   46.5810   34.2820   43.3650 C   0  0  0  0  0  0  0  0  0  0  0  0
   47.5330   33.3200   43.7430 C   0  0  0  0  0  0  0  0  0  0  0  0
   47.3570   32.6820   44.9190 N   0  0  0  0  0  0  0  0  0  0  0  0
   46.2870   32.9590   45.7220 C   0  0  0  0  0  0  0  0  0  0  0  0
   45.3770   33.8680   45.3770 N   0  0  0  0  0  0  0  0  0  0  0  0
   44.4980   35.5610   43.8200 C   0  0  0  0  0  0  0  0  0  0  0  0
   45.0320   36.9140   43.3860 C   0  0  0  0  0  0  0  0  0  0  0  0
   44.3860   36.0000   42.4260 C   0  0  0  0  0  0  0  0  0  0  0  0
   48.6620   33.0510   42.8600 C   0  0  0  0  0  0  0  0  0  0  0  0
   48.8170   31.9180   42.0980 C   0  0  0  0  0  0  0  0  0  0  0  0
   50.0360   32.1490   41.4490 C   0  0  0  0  0  0  0  0  0  0  0  0
   50.5630   33.3560   41.8150 N   0  0  0  0  0  0  0  0  0  0  0  0
   49.6910   33.8880   42.6850 N   0  0  0  0  0  0  0  0  0  0  0  0
   46.6824   34.8278   42.4154 H   0  0  0  0  0  0  0  0  0  0  0  0
   46.1747   32.4196   46.6740 H   0  0  0  0  0  0  0  0  0  0  0  0
   43.7751   35.1776   44.5552 H   0  0  0  0  0  0  0  0  0  0  0  0
   44.5229   37.8370   43.7004 H   0  0  0  0  0  0  0  0  0  0  0  0
   45.9998   37.4332   43.4473 H   0  0  0  0  0  0  0  0  0  0  0  0
   43.3984   36.2539   42.0134 H   0  0  0  0  0  0  0  0  0  0  0  0
   44.6874   35.5665   41.4610 H   0  0  0  0  0  0  0  0  0  0  0  0
   48.1499   31.0470   42.0179 H   0  0  0  0  0  0  0  0  0  0  0  0
   50.5066   31.4524   40.7396 H   0  0  0  0  0  0  0  0  0  0  0  0
   51.4475   33.7716   41.4898 H   0  0  0  0  0  0  0  0  0  0  0  0
  1  6  2  0
  2  3  2  0
  2  1  1  0
  3  4  1  0
  4  5  2  0
  6  5  1  0
  7  1  1  0
  8  7  1  0
  9  8  1  0
  9  7  1  0
 10  3  1  0
 11 10  1  0
 12 13  1  0
 12 11  2  0
 13 14  1  0
 14 10  2  0
  2 15  1  0
  5 16  1  0
  7 17  1  0
  8 18  1  0
  8 19  1  0
  9 20  1  0
  9 21  1  0
 11 22  1  0
 12 23  1  0
 13 24  1  0
M  ISO  8  15  14  16  14  17  13  18  13  19  13  20  13  21  13  22  14
M  ISO  2  23  14  24   9
M  END
>  <minimizedAffinity>  (1) 
-4.02869797

>  <minimizedRMSD>  (1) 
1.71756291

$$$$
