
     RDKit          3D

 26 28  0  0  0  0  0  0  0  0999 V2000
   45.4110   34.6090   44.3300 C   0  0  0  0  0  0  0  0  0  0  0  0
   46.4950   34.2200   43.4920 C   0  0  0  0  0  0  0  0  0  0  0  0
   47.3880   33.2630   43.9410 C   0  0  0  0  0  0  0  0  0  0  0  0
   47.1860   32.7340   45.1750 N   0  0  0  0  0  0  0  0  0  0  0  0
   46.1360   33.1300   45.9520 C   0  0  0  0  0  0  0  0  0  0  0  0
   45.2640   34.0510   45.5370 N   0  0  0  0  0  0  0  0  0  0  0  0
   44.4680   35.6500   43.8330 C   0  0  0  0  0  0  0  0  0  0  0  0
   45.0530   36.9430   43.3070 C   0  0  0  0  0  0  0  0  0  0  0  0
   44.3960   35.9860   42.4050 C   0  0  0  0  0  0  0  0  0  0  0  0
   48.5080   32.8110   43.1660 C   0  0  0  0  0  0  0  0  0  0  0  0
   49.5170   33.6460   42.7430 C   0  0  0  0  0  0  0  0  0  0  0  0
   50.6090   33.2300   41.9940 C   0  0  0  0  0  0  0  0  0  0  0  0
   50.7120   31.9060   41.6400 C   0  0  0  0  0  0  0  0  0  0  0  0
   49.6720   31.0960   42.0860 C   0  0  0  0  0  0  0  0  0  0  0  0
   48.6430   31.5400   42.8040 N   0  0  0  0  0  0  0  0  0  0  0  0
   46.6210   34.6754   42.4986 H   0  0  0  0  0  0  0  0  0  0  0  0
   46.0052   32.6781   46.9463 H   0  0  0  0  0  0  0  0  0  0  0  0
   43.7246   35.3556   44.5885 H   0  0  0  0  0  0  0  0  0  0  0  0
   44.5704   37.9035   43.5405 H   0  0  0  0  0  0  0  0  0  0  0  0
   46.0374   37.4321   43.3486 H   0  0  0  0  0  0  0  0  0  0  0  0
   43.4257   36.2410   41.9540 H   0  0  0  0  0  0  0  0  0  0  0  0
   44.6995   35.4720   41.4810 H   0  0  0  0  0  0  0  0  0  0  0  0
   49.4541   34.7098   43.0156 H   0  0  0  0  0  0  0  0  0  0  0  0
   51.3818   33.9505   41.6878 H   0  0  0  0  0  0  0  0  0  0  0  0
   51.5534   31.5158   41.0485 H   0  0  0  0  0  0  0  0  0  0  0  0
   49.7021   30.0266   41.8303 H   0  0  0  0  0  0  0  0  0  0  0  0
  1  6  2  0
  2  3  2  0
  2  1  1  0
  3  4  1  0
  4  5  2  0
  6  5  1  0
  7  1  1  0
  8  7  1  0
  9  8  1  0
  9  7  1  0
 10  3  1  0
 11 10  2  0
 12 11  1  0
 13 12  2  0
 13 14  1  0
 14 15  2  0
 15 10  1  0
  2 16  1  0
  5 17  1  0
  7 18  1  0
  8 19  1  0
  8 20  1  0
  9 21  1  0
  9 22  1  0
 11 23  1  0
 12 24  1  0
 13 25  1  0
 14 26  1  0
M  ISO  8  16  14  17  14  18  13  19  13  20  13  21  13  22  13  23  14
M  ISO  3  24  14  25  14  26  14
M  END
>  <minimizedAffinity>  (1) 
-4.1632843

>  <minimizedRMSD>  (1) 
1.36539888

$$$$
