
     RDKit          3D

 30 32  0  0  0  0  0  0  0  0999 V2000
   45.4790   34.5420   44.2460 C   0  0  0  0  0  0  0  0  0  0  0  0
   46.4780   34.1700   43.3150 C   0  0  0  0  0  0  0  0  0  0  0  0
   47.4170   33.1990   43.6830 C   0  0  0  0  0  0  0  0  0  0  0  0
   47.3140   32.6670   44.9190 N   0  0  0  0  0  0  0  0  0  0  0  0
   46.3450   33.0480   45.7810 C   0  0  0  0  0  0  0  0  0  0  0  0
   45.4420   33.9680   45.4530 N   0  0  0  0  0  0  0  0  0  0  0  0
   44.5010   35.5830   43.8370 C   0  0  0  0  0  0  0  0  0  0  0  0
   45.0380   36.9230   43.3890 C   0  0  0  0  0  0  0  0  0  0  0  0
   44.3790   36.0120   42.4390 C   0  0  0  0  0  0  0  0  0  0  0  0
   48.4500   32.8360   42.6800 C   0  0  0  0  0  0  0  0  0  0  0  0
   49.6360   33.7920   42.7210 C   0  0  0  0  0  0  0  0  0  0  0  0
   50.7450   33.0020   42.0400 C   0  0  0  0  0  0  0  0  0  0  0  0
   50.2610   31.5700   41.9520 C   0  0  0  0  0  0  0  0  0  0  0  0
   49.1020   31.5000   42.9540 C   0  0  0  0  0  0  0  0  0  0  0  0
   46.5160   34.6359   42.3192 H   0  0  0  0  0  0  0  0  0  0  0  0
   46.3021   32.5859   46.7783 H   0  0  0  0  0  0  0  0  0  0  0  0
   43.7849   35.2149   44.5865 H   0  0  0  0  0  0  0  0  0  0  0  0
   44.5383   37.8517   43.7019 H   0  0  0  0  0  0  0  0  0  0  0  0
   46.0106   37.4345   43.4389 H   0  0  0  0  0  0  0  0  0  0  0  0
   43.3900   36.2708   42.0330 H   0  0  0  0  0  0  0  0  0  0  0  0
   44.6682   35.5708   41.4738 H   0  0  0  0  0  0  0  0  0  0  0  0
   47.8970   32.8489   41.7292 H   0  0  0  0  0  0  0  0  0  0  0  0
   49.4154   34.7177   42.1692 H   0  0  0  0  0  0  0  0  0  0  0  0
   49.8976   34.1105   43.7409 H   0  0  0  0  0  0  0  0  0  0  0  0
   50.9332   33.4021   41.0328 H   0  0  0  0  0  0  0  0  0  0  0  0
   51.6863   33.0697   42.6051 H   0  0  0  0  0  0  0  0  0  0  0  0
   49.9115   31.3385   40.9350 H   0  0  0  0  0  0  0  0  0  0  0  0
   51.0555   30.8431   42.1766 H   0  0  0  0  0  0  0  0  0  0  0  0
   49.4608   31.4241   43.9910 H   0  0  0  0  0  0  0  0  0  0  0  0
   48.4419   30.6270   42.8442 H   0  0  0  0  0  0  0  0  0  0  0  0
  1  6  2  0
  2  3  2  0
  2  1  1  0
  3  4  1  0
  4  5  2  0
  6  5  1  0
  7  1  1  0
  8  7  1  0
  9  8  1  0
  9  7  1  0
 10 11  1  0
 10 14  1  0
 10  3  1  0
 12 11  1  0
 13 12  1  0
 13 14  1  0
  2 15  1  0
  5 16  1  0
  7 17  1  0
  8 18  1  0
  8 19  1  0
  9 20  1  0
  9 21  1  0
 10 22  1  0
 11 23  1  0
 11 24  1  0
 12 25  1  0
 12 26  1  0
 13 27  1  0
 13 28  1  0
 14 29  1  0
 14 30  1  0
M  ISO  8  15  14  16  14  17  13  18  13  19  13  20  13  21  13  22  13
M  ISO  8  23  13  24  13  25  13  26  13  27  13  28  13  29  13  30  13
M  END
>  <minimizedAffinity>  (1) 
-4.0711236

>  <minimizedRMSD>  (1) 
1.3137815

$$$$
