
     RDKit          3D

 24 26  0  0  0  0  0  0  0  0999 V2000
   42.6100   34.7460   40.5850 C   0  0  0  0  0  0  0  0  0  0  0  0
   43.8040   34.2170   40.0720 C   0  0  0  0  0  0  0  0  0  0  0  0
   44.9500   34.3590   40.8810 C   0  0  0  0  0  0  0  0  0  0  0  0
   44.8660   34.9710   42.0690 N   0  0  0  0  0  0  0  0  0  0  0  0
   43.6740   35.4700   42.5200 C   0  0  0  0  0  0  0  0  0  0  0  0
   42.5830   35.3430   41.7690 N   0  0  0  0  0  0  0  0  0  0  0  0
   41.4120   34.5690   39.7050 C   0  0  0  0  0  0  0  0  0  0  0  0
   40.2060   35.4050   39.9540 C   0  0  0  0  0  0  0  0  0  0  0  0
   40.9980   35.6590   38.7650 C   0  0  0  0  0  0  0  0  0  0  0  0
   46.1810   33.8140   40.3560 C   0  0  0  0  0  0  0  0  0  0  0  0
   47.5140   34.3370   40.4160 C   0  0  0  0  0  0  0  0  0  0  0  0
   48.4660   33.5630   39.8090 C   0  0  0  0  0  0  0  0  0  0  0  0
   48.1760   32.3750   39.1870 C   0  0  0  0  0  0  0  0  0  0  0  0
   46.2780   32.2430   39.4490 S   0  0  0  0  0  0  0  0  0  0  0  0
   43.8438   33.7187   39.0922 H   0  0  0  0  0  0  0  0  0  0  0  0
   43.6183   35.9727   43.4968 H   0  0  0  0  0  0  0  0  0  0  0  0
   41.6305   33.4953   39.6077 H   0  0  0  0  0  0  0  0  0  0  0  0
   39.2041   34.9610   39.8587 H   0  0  0  0  0  0  0  0  0  0  0  0
   39.8575   36.0236   40.7942 H   0  0  0  0  0  0  0  0  0  0  0  0
   41.5986   36.5777   38.6922 H   0  0  0  0  0  0  0  0  0  0  0  0
   40.7822   35.7118   37.6877 H   0  0  0  0  0  0  0  0  0  0  0  0
   47.7540   35.2888   40.9125 H   0  0  0  0  0  0  0  0  0  0  0  0
   49.5101   33.9090   39.8204 H   0  0  0  0  0  0  0  0  0  0  0  0
   48.8544   31.6789   38.6720 H   0  0  0  0  0  0  0  0  0  0  0  0
  1  6  1  0
  2  1  2  0
  2  3  1  0
  3  4  2  0
  4  5  1  0
  6  5  2  0
  7  8  1  0
  7  1  1  0
  9  7  1  0
  9  8  1  0
 10 11  2  0
 10  3  1  0
 12 11  1  0
 13 14  1  0
 13 12  2  0
 14 10  1  0
  2 15  1  0
  5 16  1  0
  7 17  1  0
  8 18  1  0
  8 19  1  0
  9 20  1  0
  9 21  1  0
 11 22  1  0
 12 23  1  0
 13 24  1  0
M  ISO  8  15  14  16  14  17  13  18  13  19  13  20  13  21  13  22  14
M  ISO  2  23  14  24  14
M  END
>  <minimizedAffinity>  (1) 
-3.76954317

>  <minimizedRMSD>  (1) 
5.17533064

$$$$
