
     RDKit          3D

 24 26  0  0  0  0  0  0  0  0999 V2000
   45.5160   34.0380   44.6050 C   0  0  0  0  0  0  0  0  0  0  0  0
   46.3850   33.3040   43.7820 C   0  0  0  0  0  0  0  0  0  0  0  0
   47.1920   32.3420   44.4200 C   0  0  0  0  0  0  0  0  0  0  0  0
   47.0940   32.1730   45.7550 N   0  0  0  0  0  0  0  0  0  0  0  0
   46.2380   32.9090   46.5020 C   0  0  0  0  0  0  0  0  0  0  0  0
   45.4610   33.8260   45.9330 N   0  0  0  0  0  0  0  0  0  0  0  0
   44.6620   35.0610   43.9070 C   0  0  0  0  0  0  0  0  0  0  0  0
   44.6390   36.4580   44.4290 C   0  0  0  0  0  0  0  0  0  0  0  0
   45.3080   36.1900   43.1690 C   0  0  0  0  0  0  0  0  0  0  0  0
   48.1300   31.5260   43.6500 C   0  0  0  0  0  0  0  0  0  0  0  0
   48.6160   31.8610   42.3980 C   0  0  0  0  0  0  0  0  0  0  0  0
   49.4700   30.8240   42.0290 C   0  0  0  0  0  0  0  0  0  0  0  0
   49.4550   29.9170   43.0750 C   0  0  0  0  0  0  0  0  0  0  0  0
   48.6440   30.3890   44.0040 O   0  0  0  0  0  0  0  0  0  0  0  0
   46.4330   33.4715   42.6959 H   0  0  0  0  0  0  0  0  0  0  0  0
   46.1847   32.7472   47.5887 H   0  0  0  0  0  0  0  0  0  0  0  0
   43.9139   34.2922   43.6634 H   0  0  0  0  0  0  0  0  0  0  0  0
   43.6953   37.0232   44.4379 H   0  0  0  0  0  0  0  0  0  0  0  0
   44.9374   36.9331   45.3752 H   0  0  0  0  0  0  0  0  0  0  0  0
   46.4048   36.2481   43.1079 H   0  0  0  0  0  0  0  0  0  0  0  0
   45.2266   36.5941   42.1491 H   0  0  0  0  0  0  0  0  0  0  0  0
   48.3768   32.7618   41.8138 H   0  0  0  0  0  0  0  0  0  0  0  0
   50.0422   30.7421   41.0931 H   0  0  0  0  0  0  0  0  0  0  0  0
   50.0175   28.9730   43.1234 H   0  0  0  0  0  0  0  0  0  0  0  0
  1  6  2  0
  2  3  2  0
  2  1  1  0
  3  4  1  0
  4  5  2  0
  6  5  1  0
  7  8  1  0
  7  1  1  0
  9  7  1  0
  9  8  1  0
 10 14  1  0
 10  3  1  0
 11 10  2  0
 12 11  1  0
 12 13  2  0
 13 14  1  0
  2 15  1  0
  5 16  1  0
  7 17  1  0
  8 18  1  0
  8 19  1  0
  9 20  1  0
  9 21  1  0
 11 22  1  0
 12 23  1  0
 13 24  1  0
M  ISO  8  15  14  16  14  17  13  18  13  19  13  20  13  21  13  22  14
M  ISO  2  23  14  24  14
M  END
>  <minimizedAffinity>  (1) 
-3.47766733

>  <minimizedRMSD>  (1) 
0.283926547

$$$$
