
     RDKit          3D

 24 26  0  0  0  0  0  0  0  0999 V2000
   45.4190   34.5590   44.4080 C   0  0  0  0  0  0  0  0  0  0  0  0
   46.4600   34.0880   43.5590 C   0  0  0  0  0  0  0  0  0  0  0  0
   47.3430   33.1140   44.0460 C   0  0  0  0  0  0  0  0  0  0  0  0
   47.1530   32.6760   45.3050 N   0  0  0  0  0  0  0  0  0  0  0  0
   46.1440   33.1500   46.0930 C   0  0  0  0  0  0  0  0  0  0  0  0
   45.2850   34.0880   45.6390 N   0  0  0  0  0  0  0  0  0  0  0  0
   44.5010   35.5930   43.8790 C   0  0  0  0  0  0  0  0  0  0  0  0
   45.0970   36.8750   43.3250 C   0  0  0  0  0  0  0  0  0  0  0  0
   44.4090   35.9070   42.4510 C   0  0  0  0  0  0  0  0  0  0  0  0
   48.3830   32.6280   43.2290 N   0  0  0  0  0  0  0  0  0  0  0  0
   49.2640   33.3740   42.5540 C   0  0  0  0  0  0  0  0  0  0  0  0
   50.1040   32.5350   41.8880 C   0  0  0  0  0  0  0  0  0  0  0  0
   49.7080   31.2660   42.1770 N   0  0  0  0  0  0  0  0  0  0  0  0
   48.6350   31.3270   43.0140 C   0  0  0  0  0  0  0  0  0  0  0  0
   46.5698   34.4817   42.5378 H   0  0  0  0  0  0  0  0  0  0  0  0
   46.0287   32.7612   47.1155 H   0  0  0  0  0  0  0  0  0  0  0  0
   43.7616   35.3126   44.6437 H   0  0  0  0  0  0  0  0  0  0  0  0
   44.6311   37.8454   43.5514 H   0  0  0  0  0  0  0  0  0  0  0  0
   46.0877   37.3528   43.3421 H   0  0  0  0  0  0  0  0  0  0  0  0
   43.4340   36.1670   42.0131 H   0  0  0  0  0  0  0  0  0  0  0  0
   44.6898   35.3732   41.5311 H   0  0  0  0  0  0  0  0  0  0  0  0
   49.3031   34.4732   42.5395 H   0  0  0  0  0  0  0  0  0  0  0  0
   50.9431   32.8274   41.2397 H   0  0  0  0  0  0  0  0  0  0  0  0
   48.0813   30.4740   43.4333 H   0  0  0  0  0  0  0  0  0  0  0  0
  1  6  2  0
  2  3  2  0
  2  1  1  0
  3  4  1  0
  4  5  2  0
  6  5  1  0
  7  1  1  0
  8  7  1  0
  9  8  1  0
  9  7  1  0
 10  3  1  0
 11 10  1  0
 12 13  1  0
 12 11  2  0
 13 14  2  0
 14 10  1  0
  2 15  1  0
  5 16  1  0
  7 17  1  0
  8 18  1  0
  8 19  1  0
  9 20  1  0
  9 21  1  0
 11 22  1  0
 12 23  1  0
 14 24  1  0
M  ISO  8  15  14  16  14  17  13  18  13  19  13  20  13  21  13  22  14
M  ISO  2  23  14  24  14
M  END
>  <minimizedAffinity>  (1) 
-3.80962372

>  <minimizedRMSD>  (1) 
1.07367301

$$$$
