
     RDKit          3D

 23 24  0  0  0  0  0  0  0  0999 V2000
   43.7830   34.3900   41.9460 C   0  0  0  0  0  0  0  0  0  0  0  0
   42.8560   35.2640   41.3150 C   0  0  0  0  0  0  0  0  0  0  0  0
   42.0720   34.7600   40.2600 C   0  0  0  0  0  0  0  0  0  0  0  0
   42.2490   33.4540   39.8970 N   0  0  0  0  0  0  0  0  0  0  0  0
   43.1580   32.6640   40.5410 C   0  0  0  0  0  0  0  0  0  0  0  0
   43.9020   33.1300   41.5410 N   0  0  0  0  0  0  0  0  0  0  0  0
   44.5990   34.9470   43.0470 C   0  0  0  0  0  0  0  0  0  0  0  0
   46.0530   35.2850   42.7520 C   0  0  0  0  0  0  0  0  0  0  0  0
   45.0650   36.3350   43.0490 C   0  0  0  0  0  0  0  0  0  0  0  0
   41.1020   35.6670   39.5980 C   0  0  0  0  0  0  0  0  0  0  0  0
   40.2350   36.3180   40.6440 C   0  0  0  0  0  0  0  0  0  0  0  0
   42.7539   36.3089   41.6433 H   0  0  0  0  0  0  0  0  0  0  0  0
   43.2780   31.6171   40.2254 H   0  0  0  0  0  0  0  0  0  0  0  0
   44.0413   34.3341   43.7704 H   0  0  0  0  0  0  0  0  0  0  0  0
   46.8380   35.0402   43.4827 H   0  0  0  0  0  0  0  0  0  0  0  0
   46.7581   35.0776   41.9336 H   0  0  0  0  0  0  0  0  0  0  0  0
   44.7412   37.0178   42.2497 H   0  0  0  0  0  0  0  0  0  0  0  0
   45.0189   37.1545   43.7813 H   0  0  0  0  0  0  0  0  0  0  0  0
   41.6464   36.4416   39.0380 H   0  0  0  0  0  0  0  0  0  0  0  0
   40.4724   35.0902   38.9045 H   0  0  0  0  0  0  0  0  0  0  0  0
   40.5998   36.0441   41.6449 H   0  0  0  0  0  0  0  0  0  0  0  0
   40.2754   37.4108   40.5254 H   0  0  0  0  0  0  0  0  0  0  0  0
   39.1968   35.9744   40.5254 H   0  0  0  0  0  0  0  0  0  0  0  0
  1  7  1  0
  2  1  2  0
  3  2  1  0
  4  3  2  0
  4  5  1  0
  5  6  2  0
  6  1  1  0
  7  9  1  0
  8  7  1  0
  8  9  1  0
 10  3  1  0
 10 11  1  0
  2 12  1  0
  5 13  1  0
  7 14  1  0
  8 15  1  0
  8 16  1  0
  9 17  1  0
  9 18  1  0
 10 19  1  0
 10 20  1  0
 11 21  1  0
 11 22  1  0
 11 23  1  0
M  ISO  8  12  14  13  14  14  13  15  13  16  13  17  13  18  13  19   8
M  ISO  4  20   8  21   8  22   8  23   8
M  END
>  <minimizedAffinity>  (1) 
-3.49571681

>  <minimizedRMSD>  (1) 
6.18191576

$$$$
