
     RDKit          3D

 19 20  0  0  0  0  0  0  0  0999 V2000
   45.3590   34.4360   44.5850 C   0  0  0  0  0  0  0  0  0  0  0  0
   46.2970   33.7900   43.7290 C   0  0  0  0  0  0  0  0  0  0  0  0
   47.1460   32.8140   44.2280 C   0  0  0  0  0  0  0  0  0  0  0  0
   47.0200   32.5340   45.5410 N   0  0  0  0  0  0  0  0  0  0  0  0
   46.1260   33.1520   46.3520 C   0  0  0  0  0  0  0  0  0  0  0  0
   45.3150   34.0870   45.8630 N   0  0  0  0  0  0  0  0  0  0  0  0
   44.4850   35.4800   44.0030 C   0  0  0  0  0  0  0  0  0  0  0  0
   45.1420   36.7340   43.4590 C   0  0  0  0  0  0  0  0  0  0  0  0
   44.4880   35.7640   42.5630 C   0  0  0  0  0  0  0  0  0  0  0  0
   48.1110   32.1440   43.3630 C   0  0  0  0  0  0  0  0  0  0  0  0
   49.0180   32.7970   42.7610 O   0  0  0  0  0  0  0  0  0  0  0  0
   46.3479   34.0673   42.6657 H   0  0  0  0  0  0  0  0  0  0  0  0
   46.0710   32.8799   47.4164 H   0  0  0  0  0  0  0  0  0  0  0  0
   43.6966   35.2376   44.7308 H   0  0  0  0  0  0  0  0  0  0  0  0
   44.6856   37.7191   43.6358 H   0  0  0  0  0  0  0  0  0  0  0  0
   46.1408   37.1898   43.5275 H   0  0  0  0  0  0  0  0  0  0  0  0
   43.5482   36.0356   42.0600 H   0  0  0  0  0  0  0  0  0  0  0  0
   44.8123   35.2045   41.6732 H   0  0  0  0  0  0  0  0  0  0  0  0
   48.0516   31.0537   43.2301 H   0  0  0  0  0  0  0  0  0  0  0  0
  1  6  2  0
  2  3  2  0
  2  1  1  0
  3  4  1  0
  4  5  2  0
  6  5  1  0
  7  1  1  0
  8  7  1  0
  9  8  1  0
  9  7  1  0
 10  3  1  0
 11 10  2  0
  2 12  1  0
  5 13  1  0
  7 14  1  0
  8 15  1  0
  8 16  1  0
  9 17  1  0
  9 18  1  0
 10 19  1  0
M  ISO  8  12  14  13  14  14  13  15  13  16  13  17  13  18  13  19   6
M  END
>  <minimizedAffinity>  (1) 
-3.32509756

>  <minimizedRMSD>  (1) 
0.733648002

$$$$
