
     RDKit          3D

 20 21  0  0  0  0  0  0  0  0999 V2000
   45.4780   34.0500   44.6070 C   0  0  0  0  0  0  0  0  0  0  0  0
   46.3740   33.2850   43.8070 C   0  0  0  0  0  0  0  0  0  0  0  0
   47.1700   32.3460   44.4470 C   0  0  0  0  0  0  0  0  0  0  0  0
   47.0570   32.2050   45.7830 N   0  0  0  0  0  0  0  0  0  0  0  0
   46.1970   32.9480   46.5100 C   0  0  0  0  0  0  0  0  0  0  0  0
   45.4210   33.8560   45.9220 N   0  0  0  0  0  0  0  0  0  0  0  0
   44.6190   35.0760   43.9380 C   0  0  0  0  0  0  0  0  0  0  0  0
   44.8330   36.5290   44.2950 C   0  0  0  0  0  0  0  0  0  0  0  0
   45.2290   36.0070   42.9770 C   0  0  0  0  0  0  0  0  0  0  0  0
   48.0900   31.5680   43.5790 C   0  0  0  0  0  0  0  0  0  0  0  0
   46.4330   33.4335   42.7187 H   0  0  0  0  0  0  0  0  0  0  0  0
   46.1364   32.8022   47.5986 H   0  0  0  0  0  0  0  0  0  0  0  0
   43.7618   34.3871   43.9154 H   0  0  0  0  0  0  0  0  0  0  0  0
   43.9727   37.2086   44.3845 H   0  0  0  0  0  0  0  0  0  0  0  0
   45.3398   37.0695   45.1080 H   0  0  0  0  0  0  0  0  0  0  0  0
   46.2959   35.9107   42.7272 H   0  0  0  0  0  0  0  0  0  0  0  0
   45.0044   36.2943   41.9392 H   0  0  0  0  0  0  0  0  0  0  0  0
   48.7800   30.9845   44.2061 H   0  0  0  0  0  0  0  0  0  0  0  0
   47.5058   30.8858   42.9439 H   0  0  0  0  0  0  0  0  0  0  0  0
   48.6657   32.2574   42.9439 H   0  0  0  0  0  0  0  0  0  0  0  0
  1  6  2  0
  2  3  2  0
  2  1  1  0
  3  4  1  0
  4  5  2  0
  6  5  1  0
  7  8  1  0
  7  1  1  0
  9  7  1  0
  9  8  1  0
 10  3  1  0
  2 11  1  0
  5 12  1  0
  7 13  1  0
  8 14  1  0
  8 15  1  0
  9 16  1  0
  9 17  1  0
 10 18  1  0
 10 19  1  0
 10 20  1  0
M  ISO  8  11  14  12  14  13  13  14  13  15  13  16  13  17  13  18   8
M  ISO  2  19   8  20   8
M  END
>  <minimizedAffinity>  (1) 
-3.15915608

>  <minimizedRMSD>  (1) 
0.167589411

$$$$
