
     RDKit          3D

 18 19  0  0  0  0  0  0  0  0999 V2000
   45.4270   34.1420   44.6000 C   0  0  0  0  0  0  0  0  0  0  0  0
   46.3090   33.3900   43.7820 C   0  0  0  0  0  0  0  0  0  0  0  0
   47.1390   32.4250   44.3420 C   0  0  0  0  0  0  0  0  0  0  0  0
   47.0520   32.2500   45.6910 N   0  0  0  0  0  0  0  0  0  0  0  0
   46.1920   32.9920   46.4460 C   0  0  0  0  0  0  0  0  0  0  0  0
   45.4020   33.9140   45.9070 N   0  0  0  0  0  0  0  0  0  0  0  0
   44.5760   35.1640   43.9490 C   0  0  0  0  0  0  0  0  0  0  0  0
   44.8410   36.6220   44.3030 C   0  0  0  0  0  0  0  0  0  0  0  0
   45.1160   36.0980   42.9550 C   0  0  0  0  0  0  0  0  0  0  0  0
   48.2520   31.4720   43.3230 S   0  0  0  0  0  0  0  0  0  0  0  0
   46.3365   33.5715   42.6974 H   0  0  0  0  0  0  0  0  0  0  0  0
   46.1514   32.8222   47.5321 H   0  0  0  0  0  0  0  0  0  0  0  0
   43.7208   34.4722   43.9533 H   0  0  0  0  0  0  0  0  0  0  0  0
   44.0014   37.3133   44.4678 H   0  0  0  0  0  0  0  0  0  0  0  0
   45.4207   37.1507   45.0740 H   0  0  0  0  0  0  0  0  0  0  0  0
   46.1570   35.9890   42.6166 H   0  0  0  0  0  0  0  0  0  0  0  0
   44.8077   36.3972   41.9424 H   0  0  0  0  0  0  0  0  0  0  0  0
   49.0970   30.7485   44.1227 H   0  0  0  0  0  0  0  0  0  0  0  0
  1  6  2  0
  2  3  2  0
  2  1  1  0
  3  4  1  0
  4  5  2  0
  6  5  1  0
  7  8  1  0
  7  1  1  0
  9  7  1  0
  9  8  1  0
 10  3  1  0
  2 11  1  0
  5 12  1  0
  7 13  1  0
  8 14  1  0
  8 15  1  0
  9 16  1  0
  9 17  1  0
 10 18  1  0
M  ISO  8  11  14  12  14  13  13  14  13  15  13  16  13  17  13  18  11
M  END
>  <minimizedAffinity>  (1) 
-3.08541703

>  <minimizedRMSD>  (1) 
0.2443434

$$$$
