
     RDKit          3D

 44 47  0  0  1  0  0  0  0  0999 V2000
   45.2140   34.0650   42.0510 C   0  0  0  0  0  0  0  0  0  0  0  0
   44.0490   34.4810   41.3850 C   0  0  0  0  0  0  0  0  0  0  0  0
   42.9220   33.6440   41.3670 C   0  0  0  0  0  0  0  0  0  0  0  0
   43.0120   32.4620   41.9960 N   0  0  0  0  0  0  0  0  0  0  0  0
   44.1620   32.0900   42.6330 C   0  0  0  0  0  0  0  0  0  0  0  0
   45.2530   32.8980   42.6530 N   0  0  0  0  0  0  0  0  0  0  0  0
   41.7160   34.0380   40.7080 N   0  0  0  0  0  0  0  0  0  0  0  0
   40.5840   34.6170   41.3710 C   0  0  0  0  0  0  0  0  0  0  0  0
   40.4610   36.0520   40.8660 C   0  0  0  0  0  0  0  0  0  0  0  0
   40.7710   36.1080   39.5290 O   0  0  0  0  0  0  0  0  0  0  0  0
   40.5730   34.9240   38.8470 C   0  0  0  0  0  0  0  0  0  0  0  0
   41.5980   33.8600   39.2970 C   0  0  2  0  0  0  0  0  0  0  0  0
   46.3570   34.9970   42.0280 C   0  0  0  0  0  0  0  0  0  0  0  0
   47.6400   34.5830   42.7460 C   0  0  0  0  0  0  0  0  0  0  0  0
   47.5760   34.7490   41.2740 C   0  0  0  0  0  0  0  0  0  0  0  0
   41.2040   32.6140   38.8010 N   0  0  0  0  0  0  0  0  0  0  0  0
   39.9720   32.4900   38.1460 C   0  0  0  0  0  0  0  0  0  0  0  0
   39.7630   30.9980   37.8480 C   0  0  0  0  0  0  0  0  0  0  0  0
   40.8070   30.4580   37.0320 N   0  0  0  0  0  0  0  0  0  0  0  0
   42.0660   31.1560   37.1260 C   0  0  0  0  0  0  0  0  0  0  0  0
   42.1980   31.6260   38.5640 C   0  0  0  0  0  0  0  0  0  0  0  0
   44.0200   35.4578   40.8801 H   0  0  0  0  0  0  0  0  0  0  0  0
   44.2049   31.1150   43.1405 H   0  0  0  0  0  0  0  0  0  0  0  0
   39.6727   34.0509   41.1278 H   0  0  0  0  0  0  0  0  0  0  0  0
   40.7127   34.5935   42.4632 H   0  0  0  0  0  0  0  0  0  0  0  0
   39.4295   36.4037   41.0158 H   0  0  0  0  0  0  0  0  0  0  0  0
   41.1586   36.6926   41.4254 H   0  0  0  0  0  0  0  0  0  0  0  0
   40.6891   35.1044   37.7681 H   0  0  0  0  0  0  0  0  0  0  0  0
   39.5598   34.5547   39.0640 H   0  0  0  0  0  0  0  0  0  0  0  0
   42.6168   33.9518   38.8926 H   0  0  0  0  0  0  0  0  0  0  0  0
   45.6490   35.8385   42.0536 H   0  0  0  0  0  0  0  0  0  0  0  0
   48.1901   35.3079   43.3640 H   0  0  0  0  0  0  0  0  0  0  0  0
   47.9347   33.7814   43.4392 H   0  0  0  0  0  0  0  0  0  0  0  0
   47.6417   33.8634   40.6248 H   0  0  0  0  0  0  0  0  0  0  0  0
   48.1557   35.3377   40.5478 H   0  0  0  0  0  0  0  0  0  0  0  0
   39.1629   32.8621   38.7917 H   0  0  0  0  0  0  0  0  0  0  0  0
   39.9635   33.0783   37.2166 H   0  0  0  0  0  0  0  0  0  0  0  0
   39.7365   30.4471   38.7997 H   0  0  0  0  0  0  0  0  0  0  0  0
   38.8162   30.8931   37.2979 H   0  0  0  0  0  0  0  0  0  0  0  0
   40.4956   30.4882   36.0507 H   0  0  0  0  0  0  0  0  0  0  0  0
   42.8947   30.4792   36.8708 H   0  0  0  0  0  0  0  0  0  0  0  0
   42.1009   32.0050   36.4274 H   0  0  0  0  0  0  0  0  0  0  0  0
   42.0503   30.7775   39.2482 H   0  0  0  0  0  0  0  0  0  0  0  0
   43.2000   32.0459   38.7362 H   0  0  0  0  0  0  0  0  0  0  0  0
  1  6  1  0
  2  1  2  0
  3  2  1  0
  3  4  2  0
  4  5  1  0
  5  6  2  0
  7  3  1  0
  7  8  1  0
  9  8  1  0
 10  9  1  0
 11 12  1  0
 11 10  1  0
 12  7  1  0
 13  1  1  0
 13 14  1  0
 15 13  1  0
 15 14  1  0
 16 12  1  0
 17 16  1  0
 18 17  1  0
 19 20  1  0
 19 18  1  0
 20 21  1  0
 21 16  1  0
  2 22  1  0
  5 23  1  0
  8 24  1  0
  8 25  1  0
  9 26  1  0
  9 27  1  0
 11 28  1  0
 11 29  1  0
 12 30  1  6
 13 31  1  0
 14 32  1  0
 14 33  1  0
 15 34  1  0
 15 35  1  0
 17 36  1  0
 17 37  1  0
 18 38  1  0
 18 39  1  0
 19 40  1  0
 20 41  1  0
 20 42  1  0
 21 43  1  0
 21 44  1  0
M  ISO  8  22  14  23  14  24  13  25  13  26  13  27  13  28  13  29  13
M  ISO  8  30  13  31  13  32  13  33  13  34  13  35  13  36  13  37  13
M  ISO  7  38  13  39  13  40   5  41  13  42  13  43  13  44  13
M  END
>  <minimizedAffinity>  (1) 
-4.98959732

>  <minimizedRMSD>  (1) 
1.57701421

$$$$
