
     RDKit          3D

 44 48  0  0  1  0  0  0  0  0999 V2000
   45.1300   31.3100   43.5810 C   0  0  0  0  0  0  0  0  0  0  0  0
   44.4330   32.2790   42.8440 C   0  0  0  0  0  0  0  0  0  0  0  0
   43.6710   31.8990   41.7430 C   0  0  0  0  0  0  0  0  0  0  0  0
   43.6390   30.5780   41.4340 N   0  0  0  0  0  0  0  0  0  0  0  0
   44.3270   29.6620   42.1700 C   0  0  0  0  0  0  0  0  0  0  0  0
   45.0680   30.0410   43.2420 N   0  0  0  0  0  0  0  0  0  0  0  0
   42.9570   32.8350   40.9770 N   0  0  0  0  0  0  0  0  0  0  0  0
   41.5540   33.1500   41.1480 C   0  0  0  0  0  0  0  0  0  0  0  0
   41.4640   34.5760   41.6260 C   0  0  0  0  0  0  0  0  0  0  0  0
   42.4140   35.3480   40.9980 O   0  0  0  0  0  0  0  0  0  0  0  0
   42.8250   34.8430   39.7560 C   0  0  0  0  0  0  0  0  0  0  0  0
   43.5840   33.5620   39.9260 C   0  0  1  0  0  0  0  0  0  0  0  0
   45.0060   33.5860   39.7960 C   0  0  0  0  0  0  0  0  0  0  0  0
   45.8140   32.9650   38.8210 C   0  0  0  0  0  0  0  0  0  0  0  0
   47.1320   33.1680   38.9950 N   0  0  0  0  0  0  0  0  0  0  0  0
   47.2690   33.9220   40.0730 C   0  0  0  0  0  0  0  0  0  0  0  0
   48.3960   34.4300   40.6860 C   0  0  0  0  0  0  0  0  0  0  0  0
   48.3080   35.2180   41.8160 C   0  0  0  0  0  0  0  0  0  0  0  0
   47.0610   35.5000   42.3360 C   0  0  0  0  0  0  0  0  0  0  0  0
   45.9730   34.9670   41.6830 C   0  0  0  0  0  0  0  0  0  0  0  0
   46.0070   34.1780   40.5590 C   0  0  0  0  0  0  0  0  0  0  0  0
   45.9320   31.7940   44.7350 C   0  0  0  0  0  0  0  0  0  0  0  0
   47.2670   32.4780   44.4470 C   0  0  0  0  0  0  0  0  0  0  0  0
   46.1100   33.2090   45.0240 C   0  0  0  0  0  0  0  0  0  0  0  0
   44.4886   33.3381   43.1359 H   0  0  0  0  0  0  0  0  0  0  0  0
   44.2815   28.5988   41.8915 H   0  0  0  0  0  0  0  0  0  0  0  0
   41.0253   33.0413   40.1895 H   0  0  0  0  0  0  0  0  0  0  0  0
   41.0901   32.4679   41.8757 H   0  0  0  0  0  0  0  0  0  0  0  0
   40.4640   34.9733   41.3979 H   0  0  0  0  0  0  0  0  0  0  0  0
   41.6398   34.6027   42.7115 H   0  0  0  0  0  0  0  0  0  0  0  0
   43.4724   35.5828   39.2625 H   0  0  0  0  0  0  0  0  0  0  0  0
   41.9329   34.6451   39.1436 H   0  0  0  0  0  0  0  0  0  0  0  0
   43.5010   32.9478   39.0173 H   0  0  0  0  0  0  0  0  0  0  0  0
   45.4033   32.3685   37.9931 H   0  0  0  0  0  0  0  0  0  0  0  0
   47.8912   32.8050   38.4011 H   0  0  0  0  0  0  0  0  0  0  0  0
   49.3863   34.2020   40.2650 H   0  0  0  0  0  0  0  0  0  0  0  0
   49.2161   35.6143   42.2938 H   0  0  0  0  0  0  0  0  0  0  0  0
   46.9418   36.1241   43.2340 H   0  0  0  0  0  0  0  0  0  0  0  0
   44.9814   35.1946   42.1011 H   0  0  0  0  0  0  0  0  0  0  0  0
   45.5762   30.9413   45.3320 H   0  0  0  0  0  0  0  0  0  0  0  0
   48.1497   32.2573   45.0651 H   0  0  0  0  0  0  0  0  0  0  0  0
   47.9212   32.5982   43.5709 H   0  0  0  0  0  0  0  0  0  0  0  0
   45.5827   33.9579   44.4148 H   0  0  0  0  0  0  0  0  0  0  0  0
   45.9703   33.8268   45.9233 H   0  0  0  0  0  0  0  0  0  0  0  0
  1 22  1  0
  2  1  2  0
  3  2  1  0
  4  3  2  0
  4  5  1  0
  5  6  2  0
  6  1  1  0
  7  8  1  0
  7  3  1  0
  8  9  1  0
 10  9  1  0
 11 12  1  0
 11 10  1  0
 12  7  1  0
 13 12  1  0
 13 21  1  0
 14 15  1  0
 14 13  2  0
 15 16  1  0
 16 21  2  0
 16 17  1  0
 17 18  2  0
 18 19  1  0
 20 19  2  0
 21 20  1  0
 22 24  1  0
 23 22  1  0
 23 24  1  0
  2 25  1  0
  5 26  1  0
  8 27  1  0
  8 28  1  0
  9 29  1  0
  9 30  1  0
 11 31  1  0
 11 32  1  0
 12 33  1  6
 14 34  1  0
 15 35  1  0
 17 36  1  0
 18 37  1  0
 19 38  1  0
 20 39  1  0
 22 40  1  0
 23 41  1  0
 23 42  1  0
 24 43  1  0
 24 44  1  0
M  ISO  8  25  14  26  14  27  13  28  13  29  13  30  13  31  13  32  13
M  ISO  8  33  13  34  14  35   9  36  14  37  14  38  14  39  14  40  13
M  ISO  4  41  13  42  13  43  13  44  13
M  END
>  <minimizedAffinity>  (1) 
-5.01489449

>  <minimizedRMSD>  (1) 
2.45623589

$$$$
