
     RDKit          3D

 43 46  0  0  1  0  0  0  0  0999 V2000
   46.8830   34.6620   42.5080 C   0  0  0  0  0  0  0  0  0  0  0  0
   45.7910   34.6070   41.6090 C   0  0  0  0  0  0  0  0  0  0  0  0
   44.7250   33.7370   41.9340 C   0  0  0  0  0  0  0  0  0  0  0  0
   44.8020   33.0160   43.0610 N   0  0  0  0  0  0  0  0  0  0  0  0
   45.8810   33.1120   43.8880 C   0  0  0  0  0  0  0  0  0  0  0  0
   46.9080   33.9260   43.6120 N   0  0  0  0  0  0  0  0  0  0  0  0
   43.5930   33.6330   41.0730 N   0  0  0  0  0  0  0  0  0  0  0  0
   42.3570   34.3630   41.2760 C   0  0  0  0  0  0  0  0  0  0  0  0
   42.2100   35.3280   40.1280 C   0  0  0  0  0  0  0  0  0  0  0  0
   42.6950   34.7650   38.9520 O   0  0  0  0  0  0  0  0  0  0  0  0
   42.6230   33.3960   38.9500 C   0  0  0  0  0  0  0  0  0  0  0  0
   43.6390   32.7610   39.9200 C   0  0  1  0  0  0  0  0  0  0  0  0
   47.9880   35.5780   42.1310 C   0  0  0  0  0  0  0  0  0  0  0  0
   49.4160   35.0310   42.1610 C   0  0  0  0  0  0  0  0  0  0  0  0
   48.7380   35.4370   40.9020 C   0  0  0  0  0  0  0  0  0  0  0  0
   44.9060   32.5750   39.3260 N   0  0  0  0  0  0  0  0  0  0  0  0
   45.3170   31.1980   39.4300 C   0  0  0  0  0  0  0  0  0  0  0  0
   45.5210   30.5940   38.0230 C   0  0  0  0  0  0  0  0  0  0  0  0
   46.4770   31.2560   37.3010 O   0  0  0  0  0  0  0  0  0  0  0  0
   46.4960   32.6100   37.5430 C   0  0  0  0  0  0  0  0  0  0  0  0
   45.0810   33.0270   37.9820 C   0  0  0  0  0  0  0  0  0  0  0  0
   45.7725   35.2170   40.6938 H   0  0  0  0  0  0  0  0  0  0  0  0
   45.9090   32.5056   44.8053 H   0  0  0  0  0  0  0  0  0  0  0  0
   41.5066   33.6654   41.2921 H   0  0  0  0  0  0  0  0  0  0  0  0
   42.3765   34.9007   42.2354 H   0  0  0  0  0  0  0  0  0  0  0  0
   41.1464   35.5767   39.9983 H   0  0  0  0  0  0  0  0  0  0  0  0
   42.7879   36.2369   40.3516 H   0  0  0  0  0  0  0  0  0  0  0  0
   41.6089   33.0936   39.2504 H   0  0  0  0  0  0  0  0  0  0  0  0
   42.8593   33.0456   37.9344 H   0  0  0  0  0  0  0  0  0  0  0  0
   43.3976   31.7293   40.2154 H   0  0  0  0  0  0  0  0  0  0  0  0
   47.4352   36.4159   42.5809 H   0  0  0  0  0  0  0  0  0  0  0  0
   50.2365   35.6371   42.5726 H   0  0  0  0  0  0  0  0  0  0  0  0
   49.9102   34.1239   42.5389 H   0  0  0  0  0  0  0  0  0  0  0  0
   48.4436   34.6680   40.1726 H   0  0  0  0  0  0  0  0  0  0  0  0
   48.9984   36.1275   40.0863 H   0  0  0  0  0  0  0  0  0  0  0  0
   46.2623   31.1423   39.9898 H   0  0  0  0  0  0  0  0  0  0  0  0
   44.5354   30.6290   39.9548 H   0  0  0  0  0  0  0  0  0  0  0  0
   45.8261   29.5427   38.1314 H   0  0  0  0  0  0  0  0  0  0  0  0
   44.5692   30.6854   37.4793 H   0  0  0  0  0  0  0  0  0  0  0  0
   47.2181   32.8378   38.3409 H   0  0  0  0  0  0  0  0  0  0  0  0
   46.7960   33.1588   36.6381 H   0  0  0  0  0  0  0  0  0  0  0  0
   44.9791   34.1213   37.9360 H   0  0  0  0  0  0  0  0  0  0  0  0
   44.3208   32.5871   37.3197 H   0  0  0  0  0  0  0  0  0  0  0  0
  1  6  2  0
  2  3  2  0
  2  1  1  0
  3  4  1  0
  4  5  2  0
  6  5  1  0
  7  8  1  0
  7  3  1  0
  9  8  1  0
 10  9  1  0
 11 10  1  0
 11 12  1  0
 12  7  1  0
 13 14  1  0
 13  1  1  0
 15 13  1  0
 15 14  1  0
 16 17  1  0
 16 12  1  0
 18 17  1  0
 19 20  1  0
 19 18  1  0
 20 21  1  0
 21 16  1  0
  2 22  1  0
  5 23  1  0
  8 24  1  0
  8 25  1  0
  9 26  1  0
  9 27  1  0
 11 28  1  0
 11 29  1  0
 12 30  1  1
 13 31  1  0
 14 32  1  0
 14 33  1  0
 15 34  1  0
 15 35  1  0
 17 36  1  0
 17 37  1  0
 18 38  1  0
 18 39  1  0
 20 40  1  0
 20 41  1  0
 21 42  1  0
 21 43  1  0
M  ISO  8  22  14  23  14  24  13  25  13  26  13  27  13  28  13  29  13
M  ISO  8  30  13  31  13  32  13  33  13  34  13  35  13  36  13  37  13
M  ISO  6  38  13  39  13  40  13  41  13  42  13  43  13
M  END
>  <minimizedAffinity>  (1) 
-4.79555988

>  <minimizedRMSD>  (1) 
2.92881846

$$$$
