
     RDKit          3D

 33 35  0  0  1  0  0  0  0  0999 V2000
   44.3560   33.4500   42.5260 C   0  0  0  0  0  0  0  0  0  0  0  0
   43.4050   34.0500   41.6970 C   0  0  0  0  0  0  0  0  0  0  0  0
   42.3530   33.2910   41.1760 C   0  0  0  0  0  0  0  0  0  0  0  0
   42.3120   31.9800   41.5120 N   0  0  0  0  0  0  0  0  0  0  0  0
   43.2630   31.4270   42.3250 C   0  0  0  0  0  0  0  0  0  0  0  0
   44.2780   32.1710   42.8250 N   0  0  0  0  0  0  0  0  0  0  0  0
   41.3610   33.8440   40.3430 N   0  0  0  0  0  0  0  0  0  0  0  0
   40.0630   34.3000   40.7650 C   0  0  0  0  0  0  0  0  0  0  0  0
   40.0380   35.8040   40.5950 C   0  0  0  0  0  0  0  0  0  0  0  0
   40.6940   36.1660   39.4520 O   0  0  0  0  0  0  0  0  0  0  0  0
   40.7770   35.1900   38.4820 C   0  0  0  0  0  0  0  0  0  0  0  0
   41.6100   33.9890   38.9390 C   0  0  1  0  0  0  0  0  0  0  0  0
   45.4380   34.3210   43.0330 C   0  0  0  0  0  0  0  0  0  0  0  0
   46.4700   34.8470   42.0390 C   0  0  0  0  0  0  0  0  0  0  0  0
   45.5180   35.7430   42.7390 C   0  0  0  0  0  0  0  0  0  0  0  0
   43.0550   34.1360   38.5970 C   0  0  0  0  0  0  0  0  0  0  0  0
   43.4840   35.1199   41.4541 H   0  0  0  0  0  0  0  0  0  0  0  0
   43.2021   30.3581   42.5773 H   0  0  0  0  0  0  0  0  0  0  0  0
   39.2813   33.8378   40.1442 H   0  0  0  0  0  0  0  0  0  0  0  0
   39.8741   34.0229   41.8126 H   0  0  0  0  0  0  0  0  0  0  0  0
   38.9937   36.1447   40.5368 H   0  0  0  0  0  0  0  0  0  0  0  0
   40.5401   36.2685   41.4565 H   0  0  0  0  0  0  0  0  0  0  0  0
   41.2419   35.6222   37.5836 H   0  0  0  0  0  0  0  0  0  0  0  0
   39.7574   34.8338   38.2735 H   0  0  0  0  0  0  0  0  0  0  0  0
   41.3157   33.0715   38.4084 H   0  0  0  0  0  0  0  0  0  0  0  0
   45.4385   33.7461   43.9708 H   0  0  0  0  0  0  0  0  0  0  0  0
   46.3576   34.6478   40.9630 H   0  0  0  0  0  0  0  0  0  0  0  0
   47.5627   34.7866   41.9274 H   0  0  0  0  0  0  0  0  0  0  0  0
   45.8903   36.4360   43.5079 H   0  0  0  0  0  0  0  0  0  0  0  0
   44.7884   36.4935   42.4007 H   0  0  0  0  0  0  0  0  0  0  0  0
   43.6465   34.1962   39.5224 H   0  0  0  0  0  0  0  0  0  0  0  0
   43.3827   33.2666   38.0082 H   0  0  0  0  0  0  0  0  0  0  0  0
   43.2009   35.0536   38.0082 H   0  0  0  0  0  0  0  0  0  0  0  0
  1  6  1  0
  1 13  1  0
  2  1  2  0
  3  4  2  0
  3  2  1  0
  4  5  1  0
  5  6  2  0
  7  8  1  0
  7  3  1  0
  9  8  1  0
 10  9  1  0
 11 12  1  0
 11 10  1  0
 12  7  1  0
 14 15  1  0
 14 13  1  0
 15 13  1  0
 16 12  1  0
  2 17  1  0
  5 18  1  0
  8 19  1  0
  8 20  1  0
  9 21  1  0
  9 22  1  0
 11 23  1  0
 11 24  1  0
 12 25  1  6
 13 26  1  0
 14 27  1  0
 14 28  1  0
 15 29  1  0
 15 30  1  0
 16 31  1  0
 16 32  1  0
 16 33  1  0
M  ISO  8  17  14  18  14  19  13  20  13  21  13  22  13  23  13  24  13
M  ISO  8  25  13  26  13  27  13  28  13  29  13  30  13  31   8  32   8
M  ISO  1  33   8
M  END
>  <minimizedAffinity>  (1) 
-4.42751217

>  <minimizedRMSD>  (1) 
0.428169191

$$$$
