
     RDKit          3D

 42 44  0  0  1  0  0  0  0  0999 V2000
   44.5060   32.7470   41.7260 C   0  0  0  0  0  0  0  0  0  0  0  0
   43.4810   33.5300   41.1670 C   0  0  0  0  0  0  0  0  0  0  0  0
   42.1560   33.0680   41.2070 C   0  0  0  0  0  0  0  0  0  0  0  0
   41.9320   31.8820   41.7870 N   0  0  0  0  0  0  0  0  0  0  0  0
   42.9550   31.1490   42.3190 C   0  0  0  0  0  0  0  0  0  0  0  0
   44.2290   31.5900   42.2830 N   0  0  0  0  0  0  0  0  0  0  0  0
   41.0870   33.8320   40.6620 N   0  0  0  0  0  0  0  0  0  0  0  0
   40.2130   34.6880   41.4250 C   0  0  0  0  0  0  0  0  0  0  0  0
   40.4970   36.1180   40.9780 C   0  0  0  0  0  0  0  0  0  0  0  0
   40.7340   36.1540   39.6230 O   0  0  0  0  0  0  0  0  0  0  0  0
   40.1400   35.1060   38.9170 C   0  0  0  0  0  0  0  0  0  0  0  0
   40.8190   33.7870   39.2620 C   0  0  2  0  0  0  0  0  0  0  0  0
   45.8850   33.2900   41.6500 C   0  0  0  0  0  0  0  0  0  0  0  0
   46.4400   33.6690   40.2800 C   0  0  0  0  0  0  0  0  0  0  0  0
   46.1630   34.6820   41.3320 C   0  0  0  0  0  0  0  0  0  0  0  0
   39.9980   32.6740   38.7430 C   0  0  0  0  0  0  0  0  0  0  0  0
   40.9460   31.7110   38.0570 C   0  0  0  0  0  0  0  0  0  0  0  0
   39.2720   31.8800   39.7940 C   0  0  0  0  0  0  0  0  0  0  0  0
   38.9650   33.0880   37.7230 C   0  0  0  0  0  0  0  0  0  0  0  0
   43.7157   34.4985   40.7012 H   0  0  0  0  0  0  0  0  0  0  0  0
   42.7347   30.1781   42.7868 H   0  0  0  0  0  0  0  0  0  0  0  0
   39.1622   34.4306   41.2259 H   0  0  0  0  0  0  0  0  0  0  0  0
   40.3882   34.5696   42.5045 H   0  0  0  0  0  0  0  0  0  0  0  0
   39.6284   36.7511   41.2119 H   0  0  0  0  0  0  0  0  0  0  0  0
   41.3863   36.4899   41.5080 H   0  0  0  0  0  0  0  0  0  0  0  0
   40.2382   35.2936   37.8376 H   0  0  0  0  0  0  0  0  0  0  0  0
   39.0769   35.0450   39.1928 H   0  0  0  0  0  0  0  0  0  0  0  0
   41.7921   33.6146   38.7790 H   0  0  0  0  0  0  0  0  0  0  0  0
   46.1778   32.6337   42.4828 H   0  0  0  0  0  0  0  0  0  0  0  0
   45.8029   33.6077   39.3854 H   0  0  0  0  0  0  0  0  0  0  0  0
   47.3086   33.3788   39.6706 H   0  0  0  0  0  0  0  0  0  0  0  0
   47.0014   35.1948   41.8261 H   0  0  0  0  0  0  0  0  0  0  0  0
   45.5663   35.6055   41.3635 H   0  0  0  0  0  0  0  0  0  0  0  0
   41.5047   31.1435   38.8158 H   0  0  0  0  0  0  0  0  0  0  0  0
   40.3706   31.0152   37.4286 H   0  0  0  0  0  0  0  0  0  0  0  0
   41.6507   32.2754   37.4286 H   0  0  0  0  0  0  0  0  0  0  0  0
   39.5840   32.2213   40.7921 H   0  0  0  0  0  0  0  0  0  0  0  0
   38.1877   32.0251   39.6793 H   0  0  0  0  0  0  0  0  0  0  0  0
   39.5133   30.8129   39.6793 H   0  0  0  0  0  0  0  0  0  0  0  0
   38.0637   33.4492   38.2398 H   0  0  0  0  0  0  0  0  0  0  0  0
   39.3734   33.8919   37.0930 H   0  0  0  0  0  0  0  0  0  0  0  0
   38.7052   32.2245   37.0930 H   0  0  0  0  0  0  0  0  0  0  0  0
  1  6  2  0
  2  3  2  0
  2  1  1  0
  3  4  1  0
  4  5  2  0
  6  5  1  0
  7  3  1  0
  7  8  1  0
  9  8  1  0
 10  9  1  0
 11 12  1  0
 11 10  1  0
 12  7  1  0
 13  1  1  0
 14 15  1  0
 14 13  1  0
 15 13  1  0
 16 12  1  0
 16 18  1  0
 17 16  1  0
 19 16  1  0
  2 20  1  0
  5 21  1  0
  8 22  1  0
  8 23  1  0
  9 24  1  0
  9 25  1  0
 11 26  1  0
 11 27  1  0
 12 28  1  6
 13 29  1  0
 14 30  1  0
 14 31  1  0
 15 32  1  0
 15 33  1  0
 17 34  1  0
 17 35  1  0
 17 36  1  0
 18 37  1  0
 18 38  1  0
 18 39  1  0
 19 40  1  0
 19 41  1  0
 19 42  1  0
M  ISO  8  20  14  21  14  22  13  23  13  24  13  25  13  26  13  27  13
M  ISO  8  28  13  29  13  30  13  31  13  32  13  33  13  34   8  35   8
M  ISO  7  36   8  37   8  38   8  39   8  40   8  41   8  42   8
M  END
>  <minimizedAffinity>  (1) 
-4.48595572

>  <minimizedRMSD>  (1) 
1.77115059

$$$$
