
     RDKit          3D

 56 60  0  0  1  0  0  0  0  0999 V2000
   41.8750   34.7510   39.2740 N   0  0  0  0  0  0  0  0  0  0  0  0
   41.6040   36.1310   39.0310 C   0  0  0  0  0  0  0  0  0  0  0  0
   41.1200   36.2390   37.5870 C   0  0  0  0  0  0  0  0  0  0  0  0
   40.3380   35.1450   37.2600 O   0  0  0  0  0  0  0  0  0  0  0  0
   39.7070   34.5920   38.3860 C   0  0  0  0  0  0  0  0  0  0  0  0
   40.7440   33.9000   39.2620 C   0  0  2  0  0  0  0  0  0  0  0  0
   45.1370   33.9090   40.9280 C   0  0  0  0  0  0  0  0  0  0  0  0
   43.8590   34.4600   40.7210 C   0  0  0  0  0  0  0  0  0  0  0  0
   43.1760   34.2150   39.5160 C   0  0  0  0  0  0  0  0  0  0  0  0
   43.7970   33.4530   38.6120 N   0  0  0  0  0  0  0  0  0  0  0  0
   45.0360   32.9330   38.8410 C   0  0  0  0  0  0  0  0  0  0  0  0
   45.6920   33.1690   40.0000 N   0  0  0  0  0  0  0  0  0  0  0  0
   45.8040   34.2060   42.2210 C   0  0  0  0  0  0  0  0  0  0  0  0
   47.0290   35.1340   42.2060 C   0  0  0  0  0  0  0  0  0  0  0  0
   45.7380   35.5030   42.8490 C   0  0  0  0  0  0  0  0  0  0  0  0
   40.1120   33.5110   40.5500 C   0  0  0  0  0  0  0  0  0  0  0  0
   40.8310   32.2840   41.0420 C   0  0  0  0  0  0  0  0  0  0  0  0
   40.2730   34.5480   41.6330 C   0  0  0  0  0  0  0  0  0  0  0  0
   38.6470   33.2210   40.4510 C   0  0  0  0  0  0  0  0  0  0  0  0
   38.2720   31.8320   40.2290 C   0  0  0  0  0  0  0  0  0  0  0  0
   37.7440   30.9540   41.1910 C   0  0  0  0  0  0  0  0  0  0  0  0
   37.5060   29.7250   40.7330 N   0  0  0  0  0  0  0  0  0  0  0  0
   37.8580   29.7150   39.4390 C   0  0  0  0  0  0  0  0  0  0  0  0
   37.8200   28.7280   38.4550 C   0  0  0  0  0  0  0  0  0  0  0  0
   38.2380   28.9890   37.1520 C   0  0  0  0  0  0  0  0  0  0  0  0
   38.7000   30.2750   36.8550 C   0  0  0  0  0  0  0  0  0  0  0  0
   38.7190   31.2020   37.8450 C   0  0  0  0  0  0  0  0  0  0  0  0
   38.3150   30.9810   39.1450 C   0  0  0  0  0  0  0  0  0  0  0  0
   40.8249   36.4906   39.7192 H   0  0  0  0  0  0  0  0  0  0  0  0
   42.5032   36.7437   39.1923 H   0  0  0  0  0  0  0  0  0  0  0  0
   40.5259   37.1575   37.4710 H   0  0  0  0  0  0  0  0  0  0  0  0
   41.9927   36.2681   36.9181 H   0  0  0  0  0  0  0  0  0  0  0  0
   39.2165   35.3914   38.9607 H   0  0  0  0  0  0  0  0  0  0  0  0
   38.9543   33.8587   38.0608 H   0  0  0  0  0  0  0  0  0  0  0  0
   41.1179   32.9323   38.8962 H   0  0  0  0  0  0  0  0  0  0  0  0
   43.3945   35.0817   41.5006 H   0  0  0  0  0  0  0  0  0  0  0  0
   45.5111   32.3099   38.0690 H   0  0  0  0  0  0  0  0  0  0  0  0
   45.5682   33.1893   42.5684 H   0  0  0  0  0  0  0  0  0  0  0  0
   47.9123   34.9026   42.8195 H   0  0  0  0  0  0  0  0  0  0  0  0
   47.6889   35.5679   41.4403 H   0  0  0  0  0  0  0  0  0  0  0  0
   45.1155   36.2906   42.3994 H   0  0  0  0  0  0  0  0  0  0  0  0
   45.4636   35.8439   43.8582 H   0  0  0  0  0  0  0  0  0  0  0  0
   40.8348   32.2776   42.1420 H   0  0  0  0  0  0  0  0  0  0  0  0
   40.3170   31.3847   40.6718 H   0  0  0  0  0  0  0  0  0  0  0  0
   41.8668   32.2928   40.6718 H   0  0  0  0  0  0  0  0  0  0  0  0
   40.1979   34.0642   42.6180 H   0  0  0  0  0  0  0  0  0  0  0  0
   41.2568   35.0303   41.5355 H   0  0  0  0  0  0  0  0  0  0  0  0
   39.4818   35.3059   41.5355 H   0  0  0  0  0  0  0  0  0  0  0  0
   38.1777   33.5475   41.3908 H   0  0  0  0  0  0  0  0  0  0  0  0
   38.3038   33.7611   39.5563 H   0  0  0  0  0  0  0  0  0  0  0  0
   37.5447   31.2545   42.2302 H   0  0  0  0  0  0  0  0  0  0  0  0
   37.1244   28.9337   41.2706 H   0  0  0  0  0  0  0  0  0  0  0  0
   37.4528   27.7236   38.7126 H   0  0  0  0  0  0  0  0  0  0  0  0
   38.2056   28.2066   36.3795 H   0  0  0  0  0  0  0  0  0  0  0  0
   39.0406   30.5293   35.8405 H   0  0  0  0  0  0  0  0  0  0  0  0
   39.0849   32.2079   37.5914 H   0  0  0  0  0  0  0  0  0  0  0  0
  1  9  1  0
  2  1  1  0
  3  2  1  0
  4  3  1  0
  4  5  1  0
  5  6  1  0
  6  1  1  0
  6 16  1  0
  7 13  1  0
  8  7  2  0
  9  8  1  0
 10 11  1  0
 10  9  2  0
 11 12  2  0
 12  7  1  0
 13 15  1  0
 14 13  1  0
 14 15  1  0
 16 17  1  0
 16 18  1  0
 19 16  1  0
 20 19  1  0
 20 21  2  0
 22 21  1  0
 23 22  1  0
 24 23  2  0
 25 24  1  0
 26 25  2  0
 26 27  1  0
 27 28  2  0
 28 23  1  0
 28 20  1  0
  2 29  1  0
  2 30  1  0
  3 31  1  0
  3 32  1  0
  5 33  1  0
  5 34  1  0
  6 35  1  6
  8 36  1  0
 11 37  1  0
 13 38  1  0
 14 39  1  0
 14 40  1  0
 15 41  1  0
 15 42  1  0
 17 43  1  0
 17 44  1  0
 17 45  1  0
 18 46  1  0
 18 47  1  0
 18 48  1  0
 19 49  1  0
 19 50  1  0
 21 51  1  0
 22 52  1  0
 24 53  1  0
 25 54  1  0
 26 55  1  0
 27 56  1  0
M  ISO  8  29  13  30  13  31  13  32  13  33  13  34  13  35  13  36  14
M  ISO  8  37  14  38  13  39  13  40  13  41  13  42  13  43   8  44   8
M  ISO  8  45   8  46   8  47   8  48   8  49   8  50   8  51  14  52   9
M  ISO  4  53  14  54  14  55  14  56  14
M  END
>  <minimizedAffinity>  (1) 
-6.12526894

>  <minimizedRMSD>  (1) 
2.95125484

$$$$
