
     RDKit          3D

 52 55  0  0  1  0  0  0  0  0999 V2000
   43.4620   31.9070   40.2320 N   0  0  0  0  0  0  0  0  0  0  0  0
   44.2950   30.7540   40.1370 C   0  0  0  0  0  0  0  0  0  0  0  0
   44.6640   30.6060   38.6540 C   0  0  0  0  0  0  0  0  0  0  0  0
   44.8620   31.8330   38.0900 O   0  0  0  0  0  0  0  0  0  0  0  0
   45.2530   32.8170   39.0140 C   0  0  0  0  0  0  0  0  0  0  0  0
   44.1000   33.1410   39.9450 C   0  0  2  0  0  0  0  0  0  0  0  0
   39.7180   31.8580   39.9820 C   0  0  0  0  0  0  0  0  0  0  0  0
   41.0700   31.8890   39.6030 C   0  0  0  0  0  0  0  0  0  0  0  0
   42.0730   31.8850   40.5860 C   0  0  0  0  0  0  0  0  0  0  0  0
   41.6730   31.8510   41.8570 N   0  0  0  0  0  0  0  0  0  0  0  0
   40.3560   31.8230   42.1960 C   0  0  0  0  0  0  0  0  0  0  0  0
   39.3910   31.8260   41.2550 N   0  0  0  0  0  0  0  0  0  0  0  0
   38.7060   31.8620   38.8990 C   0  0  0  0  0  0  0  0  0  0  0  0
   38.0160   33.1920   38.5530 C   0  0  0  0  0  0  0  0  0  0  0  0
   38.9360   32.4860   37.6200 C   0  0  0  0  0  0  0  0  0  0  0  0
   44.6050   33.9570   41.0790 C   0  0  0  0  0  0  0  0  0  0  0  0
   44.3440   33.1240   42.3400 C   0  0  0  0  0  0  0  0  0  0  0  0
   46.0680   34.2070   41.0660 C   0  0  0  0  0  0  0  0  0  0  0  0
   43.8850   35.2470   41.2880 C   0  0  0  0  0  0  0  0  0  0  0  0
   42.5780   35.3520   40.6010 C   0  0  0  0  0  0  0  0  0  0  0  0
   42.3120   35.4310   39.2540 C   0  0  0  0  0  0  0  0  0  0  0  0
   41.0590   35.5440   38.7130 C   0  0  0  0  0  0  0  0  0  0  0  0
   39.9650   35.5840   39.5470 C   0  0  0  0  0  0  0  0  0  0  0  0
   40.1870   35.5060   40.9200 C   0  0  0  0  0  0  0  0  0  0  0  0
   41.4550   35.3940   41.4270 C   0  0  0  0  0  0  0  0  0  0  0  0
   45.2029   30.8897   40.7431 H   0  0  0  0  0  0  0  0  0  0  0  0
   43.7786   29.8574   40.5106 H   0  0  0  0  0  0  0  0  0  0  0  0
   45.5868   30.0136   38.5671 H   0  0  0  0  0  0  0  0  0  0  0  0
   43.8403   30.0999   38.1293 H   0  0  0  0  0  0  0  0  0  0  0  0
   46.1041   32.4456   39.6036 H   0  0  0  0  0  0  0  0  0  0  0  0
   45.5452   33.7275   38.4703 H   0  0  0  0  0  0  0  0  0  0  0  0
   43.3159   33.7852   39.5206 H   0  0  0  0  0  0  0  0  0  0  0  0
   41.3429   31.9164   38.5377 H   0  0  0  0  0  0  0  0  0  0  0  0
   40.0730   31.7974   43.2587 H   0  0  0  0  0  0  0  0  0  0  0  0
   38.3981   30.8490   39.1975 H   0  0  0  0  0  0  0  0  0  0  0  0
   36.9348   33.2248   38.3530 H   0  0  0  0  0  0  0  0  0  0  0  0
   37.9517   34.1950   39.0001 H   0  0  0  0  0  0  0  0  0  0  0  0
   38.5301   32.0197   36.7101 H   0  0  0  0  0  0  0  0  0  0  0  0
   39.8432   32.7886   37.0765 H   0  0  0  0  0  0  0  0  0  0  0  0
   44.5366   33.7386   43.2318 H   0  0  0  0  0  0  0  0  0  0  0  0
   43.2971   32.7865   42.3463 H   0  0  0  0  0  0  0  0  0  0  0  0
   45.0112   32.2495   42.3463 H   0  0  0  0  0  0  0  0  0  0  0  0
   46.4384   34.2703   42.0998 H   0  0  0  0  0  0  0  0  0  0  0  0
   46.5762   33.3827   40.5443 H   0  0  0  0  0  0  0  0  0  0  0  0
   46.2737   35.1533   40.5443 H   0  0  0  0  0  0  0  0  0  0  0  0
   43.7141   35.3715   42.3675 H   0  0  0  0  0  0  0  0  0  0  0  0
   44.5243   36.0299   40.8541 H   0  0  0  0  0  0  0  0  0  0  0  0
   43.1665   35.4013   38.5619 H   0  0  0  0  0  0  0  0  0  0  0  0
   40.9282   35.6022   37.6224 H   0  0  0  0  0  0  0  0  0  0  0  0
   38.9464   35.6748   39.1418 H   0  0  0  0  0  0  0  0  0  0  0  0
   39.3299   35.5348   41.6088 H   0  0  0  0  0  0  0  0  0  0  0  0
   41.5912   35.3355   42.5170 H   0  0  0  0  0  0  0  0  0  0  0  0
  1  9  1  0
  2  1  1  0
  3  2  1  0
  4  3  1  0
  4  5  1  0
  5  6  1  0
  6  1  1  0
  6 16  1  0
  7 12  1  0
  8  7  2  0
  8  9  1  0
  9 10  2  0
 10 11  1  0
 12 11  2  0
 13  7  1  0
 14 13  1  0
 15 14  1  0
 15 13  1  0
 16 19  1  0
 16 17  1  0
 18 16  1  0
 20 19  1  0
 20 25  1  0
 21 20  2  0
 22 21  1  0
 22 23  2  0
 23 24  1  0
 24 25  2  0
  2 26  1  0
  2 27  1  0
  3 28  1  0
  3 29  1  0
  5 30  1  0
  5 31  1  0
  6 32  1  6
  8 33  1  0
 11 34  1  0
 13 35  1  0
 14 36  1  0
 14 37  1  0
 15 38  1  0
 15 39  1  0
 17 40  1  0
 17 41  1  0
 17 42  1  0
 18 43  1  0
 18 44  1  0
 18 45  1  0
 19 46  1  0
 19 47  1  0
 21 48  1  0
 22 49  1  0
 23 50  1  0
 24 51  1  0
 25 52  1  0
M  ISO  8  26  13  27  13  28  13  29  13  30  13  31  13  32  13  33  14
M  ISO  8  34  14  35  13  36  13  37  13  38  13  39  13  40   8  41   8
M  ISO  8  42   8  43   8  44   8  45   8  46   8  47   8  48  14  49  14
M  ISO  3  50  14  51  14  52  14
M  END
>  <minimizedAffinity>  (1) 
-5.24129963

>  <minimizedRMSD>  (1) 
6.07932663

$$$$
