
     RDKit          3D

 55 58  0  0  1  0  0  0  0  0999 V2000
   41.2150   33.9030   41.0210 N   0  0  0  0  0  0  0  0  0  0  0  0
   40.4690   35.0100   41.5290 C   0  0  0  0  0  0  0  0  0  0  0  0
   40.6010   36.1400   40.5000 C   0  0  0  0  0  0  0  0  0  0  0  0
   40.5890   35.6270   39.2300 O   0  0  0  0  0  0  0  0  0  0  0  0
   39.8980   34.4020   39.1370 C   0  0  0  0  0  0  0  0  0  0  0  0
   40.6870   33.3180   39.8430 C   0  0  2  0  0  0  0  0  0  0  0  0
   44.5620   33.6670   42.7020 C   0  0  0  0  0  0  0  0  0  0  0  0
   43.4040   34.2250   42.1240 C   0  0  0  0  0  0  0  0  0  0  0  0
   42.4120   33.3750   41.6050 C   0  0  0  0  0  0  0  0  0  0  0  0
   42.6300   32.0630   41.6920 N   0  0  0  0  0  0  0  0  0  0  0  0
   43.7590   31.5540   42.2550 C   0  0  0  0  0  0  0  0  0  0  0  0
   44.7150   32.3630   42.7560 N   0  0  0  0  0  0  0  0  0  0  0  0
   45.5750   34.6130   43.2340 C   0  0  0  0  0  0  0  0  0  0  0  0
   46.6770   35.1070   42.2830 C   0  0  0  0  0  0  0  0  0  0  0  0
   45.6230   36.0010   42.8450 C   0  0  0  0  0  0  0  0  0  0  0  0
   39.8300   32.1060   39.9690 C   0  0  0  0  0  0  0  0  0  0  0  0
   40.7020   30.9280   39.5320 C   0  0  0  0  0  0  0  0  0  0  0  0
   39.4000   31.7990   41.3590 C   0  0  0  0  0  0  0  0  0  0  0  0
   38.6290   32.0970   39.0860 C   0  0  0  0  0  0  0  0  0  0  0  0
   38.0920   28.5820   36.6550 C   0  0  0  0  0  0  0  0  0  0  0  0
   37.7560   28.5240   37.9900 C   0  0  0  0  0  0  0  0  0  0  0  0
   37.9190   29.6430   38.7740 C   0  0  0  0  0  0  0  0  0  0  0  0
   38.4050   30.8470   38.3170 C   0  0  0  0  0  0  0  0  0  0  0  0
   38.7330   30.8660   36.9560 C   0  0  0  0  0  0  0  0  0  0  0  0
   38.5850   29.7680   36.1350 C   0  0  0  0  0  0  0  0  0  0  0  0
   37.8800   27.1520   35.6720 S   0  0  0  0  0  0  0  0  0  0  0  0
   39.2540   26.6760   35.2620 O   0  0  0  0  0  0  0  0  0  0  0  0
   37.2440   26.0380   36.4540 O   0  0  0  0  0  0  0  0  0  0  0  0
   39.4122   34.7306   41.6517 H   0  0  0  0  0  0  0  0  0  0  0  0
   40.8479   35.3244   42.5127 H   0  0  0  0  0  0  0  0  0  0  0  0
   39.7596   36.8387   40.6176 H   0  0  0  0  0  0  0  0  0  0  0  0
   41.5524   36.6667   40.6654 H   0  0  0  0  0  0  0  0  0  0  0  0
   38.9099   34.5023   39.6098 H   0  0  0  0  0  0  0  0  0  0  0  0
   39.7739   34.1323   38.0778 H   0  0  0  0  0  0  0  0  0  0  0  0
   41.5633   32.9370   39.2981 H   0  0  0  0  0  0  0  0  0  0  0  0
   43.2775   35.3168   42.0794 H   0  0  0  0  0  0  0  0  0  0  0  0
   43.8947   30.4634   42.3025 H   0  0  0  0  0  0  0  0  0  0  0  0
   45.5219   34.1072   44.2094 H   0  0  0  0  0  0  0  0  0  0  0  0
   46.6633   34.8275   41.2192 H   0  0  0  0  0  0  0  0  0  0  0  0
   47.7766   35.0888   42.2614 H   0  0  0  0  0  0  0  0  0  0  0  0
   45.8997   36.7622   43.5893 H   0  0  0  0  0  0  0  0  0  0  0  0
   44.8919   36.6885   42.3946 H   0  0  0  0  0  0  0  0  0  0  0  0
   41.0874   30.4074   40.4211 H   0  0  0  0  0  0  0  0  0  0  0  0
   40.1010   30.2303   38.9303 H   0  0  0  0  0  0  0  0  0  0  0  0
   41.5448   31.2990   38.9303 H   0  0  0  0  0  0  0  0  0  0  0  0
   40.0829   32.2866   42.0702 H   0  0  0  0  0  0  0  0  0  0  0  0
   38.3776   32.1726   41.5175 H   0  0  0  0  0  0  0  0  0  0  0  0
   39.4214   30.7107   41.5175 H   0  0  0  0  0  0  0  0  0  0  0  0
   37.7444   32.2689   39.7168 H   0  0  0  0  0  0  0  0  0  0  0  0
   38.8019   32.8834   38.3365 H   0  0  0  0  0  0  0  0  0  0  0  0
   37.3618   27.5934   38.4243 H   0  0  0  0  0  0  0  0  0  0  0  0
   37.6426   29.5706   39.8362 H   0  0  0  0  0  0  0  0  0  0  0  0
   39.1260   31.7976   36.5227 H   0  0  0  0  0  0  0  0  0  0  0  0
   38.8573   29.8334   35.0712 H   0  0  0  0  0  0  0  0  0  0  0  0
   37.0809   27.4659   34.6044 H   0  0  0  0  0  0  0  0  0  0  0  0
  1  2  1  0
  1  9  1  0
  3  2  1  0
  4  3  1  0
  5  4  1  0
  5  6  1  0
  6 16  1  0
  6  1  1  0
  7 12  1  0
  7 13  1  0
  8  7  2  0
  9 10  2  0
  9  8  1  0
 10 11  1  0
 11 12  2  0
 14 15  1  0
 14 13  1  0
 15 13  1  0
 16 18  1  0
 17 16  1  0
 19 16  1  0
 20 21  2  0
 21 22  1  0
 23 22  2  0
 23 19  1  0
 24 23  1  0
 25 20  1  0
 25 24  2  0
 26 28  2  0
 26 20  1  0
 27 26  2  0
  2 29  1  0
  2 30  1  0
  3 31  1  0
  3 32  1  0
  5 33  1  0
  5 34  1  0
  6 35  1  6
  8 36  1  0
 11 37  1  0
 13 38  1  0
 14 39  1  0
 14 40  1  0
 15 41  1  0
 15 42  1  0
 17 43  1  0
 17 44  1  0
 17 45  1  0
 18 46  1  0
 18 47  1  0
 18 48  1  0
 19 49  1  0
 19 50  1  0
 21 51  1  0
 22 52  1  0
 24 53  1  0
 25 54  1  0
 26 55  1  0
M  ISO  8  29  13  30  13  31  13  32  13  33  13  34  13  35  13  36  14
M  ISO  8  37  14  38  13  39  13  40  13  41  13  42  13  43   8  44   8
M  ISO  8  45   8  46   8  47   8  48   8  49   8  50   8  51  14  52  14
M  ISO  3  53  14  54  14  55  11
M  END
>  <minimizedAffinity>  (1) 
-5.05416203

>  <minimizedRMSD>  (1) 
1.75066423

$$$$
