
     RDKit          3D

 49 52  0  0  1  0  0  0  0  0999 V2000
   41.5570   34.0660   40.6270 N   0  0  0  0  0  0  0  0  0  0  0  0
   40.4650   34.6780   41.3200 C   0  0  0  0  0  0  0  0  0  0  0  0
   40.3570   36.1150   40.7960 C   0  0  0  0  0  0  0  0  0  0  0  0
   40.6220   36.1480   39.4550 O   0  0  0  0  0  0  0  0  0  0  0  0
   40.3500   34.9280   38.8020 C   0  0  0  0  0  0  0  0  0  0  0  0
   41.3440   33.8770   39.2400 C   0  0  2  0  0  0  0  0  0  0  0  0
   45.1530   34.0000   41.6970 C   0  0  0  0  0  0  0  0  0  0  0  0
   43.9600   34.4260   41.0930 C   0  0  0  0  0  0  0  0  0  0  0  0
   42.7920   33.6550   41.2240 C   0  0  0  0  0  0  0  0  0  0  0  0
   42.8860   32.5320   41.9330 N   0  0  0  0  0  0  0  0  0  0  0  0
   44.0560   32.1440   42.5060 C   0  0  0  0  0  0  0  0  0  0  0  0
   45.1790   32.8810   42.3830 N   0  0  0  0  0  0  0  0  0  0  0  0
   46.3490   34.8600   41.5180 C   0  0  0  0  0  0  0  0  0  0  0  0
   47.6380   34.4810   42.2630 C   0  0  0  0  0  0  0  0  0  0  0  0
   47.5130   34.4340   40.7780 C   0  0  0  0  0  0  0  0  0  0  0  0
   40.8800   32.5470   38.7590 C   0  0  0  0  0  0  0  0  0  0  0  0
   40.8850   31.6230   39.9790 C   0  0  0  0  0  0  0  0  0  0  0  0
   39.4810   32.5310   38.2510 C   0  0  0  0  0  0  0  0  0  0  0  0
   41.7690   31.9030   37.7460 C   0  0  0  0  0  0  0  0  0  0  0  0
   43.2390   32.0400   38.0780 C   0  0  0  0  0  0  0  0  0  0  0  0
   44.1700   31.3400   38.8170 C   0  0  0  0  0  0  0  0  0  0  0  0
   45.3650   31.9460   38.7240 N   0  0  0  0  0  0  0  0  0  0  0  0
   45.2650   33.0350   37.9420 C   0  0  0  0  0  0  0  0  0  0  0  0
   43.9750   33.0740   37.5650 N   0  0  0  0  0  0  0  0  0  0  0  0
   39.5330   34.1300   41.1172 H   0  0  0  0  0  0  0  0  0  0  0  0
   40.6312   34.6659   42.4073 H   0  0  0  0  0  0  0  0  0  0  0  0
   39.3392   36.4918   40.9750 H   0  0  0  0  0  0  0  0  0  0  0  0
   41.0881   36.7459   41.3228 H   0  0  0  0  0  0  0  0  0  0  0  0
   40.4267   35.0716   37.7141 H   0  0  0  0  0  0  0  0  0  0  0  0
   39.3341   34.5965   39.0627 H   0  0  0  0  0  0  0  0  0  0  0  0
   42.3454   33.9561   38.7917 H   0  0  0  0  0  0  0  0  0  0  0  0
   43.9390   35.3630   40.5172 H   0  0  0  0  0  0  0  0  0  0  0  0
   44.0877   31.2080   43.0829 H   0  0  0  0  0  0  0  0  0  0  0  0
   45.6913   35.7387   41.4452 H   0  0  0  0  0  0  0  0  0  0  0  0
   48.2511   35.2553   42.7474 H   0  0  0  0  0  0  0  0  0  0  0  0
   47.9181   33.7768   43.0603 H   0  0  0  0  0  0  0  0  0  0  0  0
   47.5025   33.4603   40.2663 H   0  0  0  0  0  0  0  0  0  0  0  0
   48.0916   34.8755   39.9532 H   0  0  0  0  0  0  0  0  0  0  0  0
   40.8817   32.2283   40.8974 H   0  0  0  0  0  0  0  0  0  0  0  0
   39.9903   30.9834   39.9582 H   0  0  0  0  0  0  0  0  0  0  0  0
   41.7866   30.9931   39.9582 H   0  0  0  0  0  0  0  0  0  0  0  0
   38.7824   32.5230   39.1007 H   0  0  0  0  0  0  0  0  0  0  0  0
   39.3031   33.4272   37.6384 H   0  0  0  0  0  0  0  0  0  0  0  0
   39.3236   31.6310   37.6384 H   0  0  0  0  0  0  0  0  0  0  0  0
   41.5850   32.3730   36.7686 H   0  0  0  0  0  0  0  0  0  0  0  0
   41.5324   30.8288   37.7357 H   0  0  0  0  0  0  0  0  0  0  0  0
   43.9652   30.4260   39.3938 H   0  0  0  0  0  0  0  0  0  0  0  0
   46.0642   33.7402   37.6700 H   0  0  0  0  0  0  0  0  0  0  0  0
   43.5820   33.8047   36.9546 H   0  0  0  0  0  0  0  0  0  0  0  0
  1  9  1  0
  1  2  1  0
  3  2  1  0
  4  3  1  0
  5  6  1  0
  5  4  1  0
  6  1  1  0
  7 12  2  0
  8  9  2  0
  8  7  1  0
  9 10  1  0
 10 11  2  0
 12 11  1  0
 13  7  1  0
 13 14  1  0
 15 13  1  0
 15 14  1  0
 16  6  1  0
 16 17  1  0
 18 16  1  0
 19 20  1  0
 19 16  1  0
 20 21  2  0
 22 21  1  0
 23 22  2  0
 24 23  1  0
 24 20  1  0
  2 25  1  0
  2 26  1  0
  3 27  1  0
  3 28  1  0
  5 29  1  0
  5 30  1  0
  6 31  1  6
  8 32  1  0
 11 33  1  0
 13 34  1  0
 14 35  1  0
 14 36  1  0
 15 37  1  0
 15 38  1  0
 17 39  1  0
 17 40  1  0
 17 41  1  0
 18 42  1  0
 18 43  1  0
 18 44  1  0
 19 45  1  0
 19 46  1  0
 21 47  1  0
 23 48  1  0
 24 49  1  0
M  ISO  8  25  13  26  13  27  13  28  13  29  13  30  13  31  13  32  14
M  ISO  8  33  14  34  13  35  13  36  13  37  13  38  13  39   8  40   8
M  ISO  8  41   8  42   8  43   8  44   8  45   8  46   8  47  14  48  14
M  ISO  1  49   9
M  END
>  <minimizedAffinity>  (1) 
-4.8778677

>  <minimizedRMSD>  (1) 
3.58241343

$$$$
