
     RDKit          3D

 49 52  0  0  1  0  0  0  0  0999 V2000
   41.2910   33.9100   40.7830 N   0  0  0  0  0  0  0  0  0  0  0  0
   40.3000   34.7620   41.3570 C   0  0  0  0  0  0  0  0  0  0  0  0
   40.4330   36.1350   40.6810 C   0  0  0  0  0  0  0  0  0  0  0  0
   40.7390   35.9770   39.3500 O   0  0  0  0  0  0  0  0  0  0  0  0
   40.2770   34.7570   38.8260 C   0  0  0  0  0  0  0  0  0  0  0  0
   41.0810   33.6090   39.4170 C   0  0  2  0  0  0  0  0  0  0  0  0
   44.5140   33.6650   42.6740 C   0  0  0  0  0  0  0  0  0  0  0  0
   43.4200   34.2180   41.9870 C   0  0  0  0  0  0  0  0  0  0  0  0
   42.4150   33.3790   41.4760 C   0  0  0  0  0  0  0  0  0  0  0  0
   42.5610   32.0710   41.6780 N   0  0  0  0  0  0  0  0  0  0  0  0
   43.6280   31.5620   42.3460 C   0  0  0  0  0  0  0  0  0  0  0  0
   44.5940   32.3630   42.8380 N   0  0  0  0  0  0  0  0  0  0  0  0
   45.5390   34.6070   43.1860 C   0  0  0  0  0  0  0  0  0  0  0  0
   46.6560   35.0530   42.2280 C   0  0  0  0  0  0  0  0  0  0  0  0
   45.6170   35.9830   42.7610 C   0  0  0  0  0  0  0  0  0  0  0  0
   40.4430   32.3250   39.0430 C   0  0  0  0  0  0  0  0  0  0  0  0
   41.5030   31.4430   38.4360 C   0  0  0  0  0  0  0  0  0  0  0  0
   39.8710   31.5700   40.2220 C   0  0  0  0  0  0  0  0  0  0  0  0
   39.3390   32.4480   38.0310 C   0  0  0  0  0  0  0  0  0  0  0  0
   38.8460   31.0820   37.7680 N   0  0  0  0  0  0  0  0  0  0  0  0
   38.3330   30.1260   38.4910 N   0  0  0  0  0  0  0  0  0  0  0  0
   38.0360   29.0350   37.7690 C   0  0  0  0  0  0  0  0  0  0  0  0
   38.3760   29.2760   36.4560 C   0  0  0  0  0  0  0  0  0  0  0  0
   38.8760   30.5600   36.5040 C   0  0  0  0  0  0  0  0  0  0  0  0
   39.2969   34.3485   41.1757 H   0  0  0  0  0  0  0  0  0  0  0  0
   40.4415   34.8474   42.4445 H   0  0  0  0  0  0  0  0  0  0  0  0
   39.4821   36.6802   40.7738 H   0  0  0  0  0  0  0  0  0  0  0  0
   41.2380   36.7020   41.1714 H   0  0  0  0  0  0  0  0  0  0  0  0
   39.2145   34.6285   39.0804 H   0  0  0  0  0  0  0  0  0  0  0  0
   40.3967   34.7611   37.7325 H   0  0  0  0  0  0  0  0  0  0  0  0
   42.0953   33.4826   39.0106 H   0  0  0  0  0  0  0  0  0  0  0  0
   43.3503   35.3071   41.8492 H   0  0  0  0  0  0  0  0  0  0  0  0
   43.7056   30.4740   42.4885 H   0  0  0  0  0  0  0  0  0  0  0  0
   45.4689   34.1301   44.1748 H   0  0  0  0  0  0  0  0  0  0  0  0
   46.6418   34.7458   41.1719 H   0  0  0  0  0  0  0  0  0  0  0  0
   47.7551   35.0119   42.2127 H   0  0  0  0  0  0  0  0  0  0  0  0
   45.9054   36.7578   43.4866 H   0  0  0  0  0  0  0  0  0  0  0  0
   44.9022   36.6730   42.2888 H   0  0  0  0  0  0  0  0  0  0  0  0
   42.0821   30.9611   39.2375 H   0  0  0  0  0  0  0  0  0  0  0  0
   41.0259   30.6716   37.8137 H   0  0  0  0  0  0  0  0  0  0  0  0
   42.1748   32.0524   37.8137 H   0  0  0  0  0  0  0  0  0  0  0  0
   40.2206   32.0314   41.1574 H   0  0  0  0  0  0  0  0  0  0  0  0
   38.7723   31.6071   40.1831 H   0  0  0  0  0  0  0  0  0  0  0  0
   40.2041   30.5224   40.1831 H   0  0  0  0  0  0  0  0  0  0  0  0
   38.5269   33.0730   38.4309 H   0  0  0  0  0  0  0  0  0  0  0  0
   39.7024   32.9208   37.1066 H   0  0  0  0  0  0  0  0  0  0  0  0
   37.5957   28.1056   38.1593 H   0  0  0  0  0  0  0  0  0  0  0  0
   38.2740   28.6102   35.5863 H   0  0  0  0  0  0  0  0  0  0  0  0
   39.2558   31.1028   35.6259 H   0  0  0  0  0  0  0  0  0  0  0  0
  1  2  1  0
  1  9  1  0
  3  2  1  0
  4  3  1  0
  5  4  1  0
  5  6  1  0
  6  1  1  0
  7 12  1  0
  7 13  1  0
  8  7  2  0
  9 10  2  0
  9  8  1  0
 10 11  1  0
 11 12  2  0
 14 15  1  0
 14 13  1  0
 15 13  1  0
 16  6  1  0
 16 18  1  0
 17 16  1  0
 19 16  1  0
 20 19  1  0
 20 21  1  0
 22 21  2  0
 23 24  2  0
 23 22  1  0
 24 20  1  0
  2 25  1  0
  2 26  1  0
  3 27  1  0
  3 28  1  0
  5 29  1  0
  5 30  1  0
  6 31  1  6
  8 32  1  0
 11 33  1  0
 13 34  1  0
 14 35  1  0
 14 36  1  0
 15 37  1  0
 15 38  1  0
 17 39  1  0
 17 40  1  0
 17 41  1  0
 18 42  1  0
 18 43  1  0
 18 44  1  0
 19 45  1  0
 19 46  1  0
 22 47  1  0
 23 48  1  0
 24 49  1  0
M  ISO  8  25  13  26  13  27  13  28  13  29  13  30  13  31  13  32  14
M  ISO  8  33  14  34  13  35  13  36  13  37  13  38  13  39   8  40   8
M  ISO  8  41   8  42   8  43   8  44   8  45   8  46   8  47  14  48  14
M  ISO  1  49  14
M  END
>  <minimizedAffinity>  (1) 
-4.72047615

>  <minimizedRMSD>  (1) 
1.12441111

$$$$
