
     RDKit          3D

 47 50  0  0  1  0  0  0  0  0999 V2000
   41.2540   33.9330   40.7730 N   0  0  0  0  0  0  0  0  0  0  0  0
   40.2710   34.7880   41.3530 C   0  0  0  0  0  0  0  0  0  0  0  0
   40.4330   36.1620   40.6830 C   0  0  0  0  0  0  0  0  0  0  0  0
   40.7250   36.0070   39.3520 O   0  0  0  0  0  0  0  0  0  0  0  0
   40.2540   34.7920   38.8220 C   0  0  0  0  0  0  0  0  0  0  0  0
   41.0530   33.6360   39.4030 C   0  0  2  0  0  0  0  0  0  0  0  0
   44.4910   33.6390   42.6510 C   0  0  0  0  0  0  0  0  0  0  0  0
   43.4010   34.2130   41.9740 C   0  0  0  0  0  0  0  0  0  0  0  0
   42.3840   33.3850   41.4650 C   0  0  0  0  0  0  0  0  0  0  0  0
   42.5150   32.0780   41.6590 N   0  0  0  0  0  0  0  0  0  0  0  0
   43.5820   31.5550   42.3200 C   0  0  0  0  0  0  0  0  0  0  0  0
   44.5560   32.3350   42.8070 N   0  0  0  0  0  0  0  0  0  0  0  0
   45.5330   34.5690   43.1630 C   0  0  0  0  0  0  0  0  0  0  0  0
   46.6380   35.0200   42.1980 C   0  0  0  0  0  0  0  0  0  0  0  0
   45.6150   35.9520   42.7530 C   0  0  0  0  0  0  0  0  0  0  0  0
   40.4080   32.3620   39.0190 C   0  0  0  0  0  0  0  0  0  0  0  0
   41.4690   31.4810   38.4100 C   0  0  0  0  0  0  0  0  0  0  0  0
   39.8340   31.5990   40.1930 C   0  0  0  0  0  0  0  0  0  0  0  0
   39.3050   32.4910   38.0090 C   0  0  0  0  0  0  0  0  0  0  0  0
   38.8110   31.0970   37.7000 C   0  0  0  0  0  0  0  0  0  0  0  0
   38.2230   30.0860   38.3820 N   0  0  0  0  0  0  0  0  0  0  0  0
   38.0200   29.0880   37.5790 O   0  0  0  0  0  0  0  0  0  0  0  0
   38.4320   29.3500   36.3780 C   0  0  0  0  0  0  0  0  0  0  0  0
   38.9230   30.5860   36.4390 N   0  0  0  0  0  0  0  0  0  0  0  0
   39.2630   34.3902   41.1641 H   0  0  0  0  0  0  0  0  0  0  0  0
   40.4017   34.8604   42.4428 H   0  0  0  0  0  0  0  0  0  0  0  0
   39.4963   36.7295   40.7861 H   0  0  0  0  0  0  0  0  0  0  0  0
   41.2559   36.7050   41.1707 H   0  0  0  0  0  0  0  0  0  0  0  0
   39.1917   34.6681   39.0792 H   0  0  0  0  0  0  0  0  0  0  0  0
   40.3702   34.8021   37.7282 H   0  0  0  0  0  0  0  0  0  0  0  0
   42.0677   33.5019   38.9999 H   0  0  0  0  0  0  0  0  0  0  0  0
   43.3436   35.3037   41.8429 H   0  0  0  0  0  0  0  0  0  0  0  0
   43.6468   30.4656   42.4581 H   0  0  0  0  0  0  0  0  0  0  0  0
   45.4734   34.0793   44.1462 H   0  0  0  0  0  0  0  0  0  0  0  0
   46.6082   34.7254   41.1386 H   0  0  0  0  0  0  0  0  0  0  0  0
   47.7365   34.9714   42.1690 H   0  0  0  0  0  0  0  0  0  0  0  0
   45.9185   36.7163   43.4836 H   0  0  0  0  0  0  0  0  0  0  0  0
   44.8998   36.6532   42.2981 H   0  0  0  0  0  0  0  0  0  0  0  0
   42.0494   30.9991   39.2106 H   0  0  0  0  0  0  0  0  0  0  0  0
   40.9921   30.7096   37.7875 H   0  0  0  0  0  0  0  0  0  0  0  0
   42.1397   32.0915   37.7875 H   0  0  0  0  0  0  0  0  0  0  0  0
   40.1786   32.0571   41.1318 H   0  0  0  0  0  0  0  0  0  0  0  0
   38.7353   31.6326   40.1503 H   0  0  0  0  0  0  0  0  0  0  0  0
   40.1708   30.5527   40.1503 H   0  0  0  0  0  0  0  0  0  0  0  0
   38.4856   33.0974   38.4223 H   0  0  0  0  0  0  0  0  0  0  0  0
   39.6694   32.9854   37.0965 H   0  0  0  0  0  0  0  0  0  0  0  0
   38.3858   28.6922   35.4975 H   0  0  0  0  0  0  0  0  0  0  0  0
  1  2  1  0
  1  9  1  0
  3  2  1  0
  4  3  1  0
  5  4  1  0
  5  6  1  0
  6  1  1  0
  7 12  1  0
  7 13  1  0
  8  7  2  0
  9 10  2  0
  9  8  1  0
 10 11  1  0
 11 12  2  0
 14 15  1  0
 14 13  1  0
 15 13  1  0
 16  6  1  0
 16 18  1  0
 17 16  1  0
 19 16  1  0
 20 19  1  0
 20 21  2  0
 22 21  1  0
 23 24  2  0
 23 22  1  0
 24 20  1  0
  2 25  1  0
  2 26  1  0
  3 27  1  0
  3 28  1  0
  5 29  1  0
  5 30  1  0
  6 31  1  6
  8 32  1  0
 11 33  1  0
 13 34  1  0
 14 35  1  0
 14 36  1  0
 15 37  1  0
 15 38  1  0
 17 39  1  0
 17 40  1  0
 17 41  1  0
 18 42  1  0
 18 43  1  0
 18 44  1  0
 19 45  1  0
 19 46  1  0
 23 47  1  0
M  ISO  8  25  13  26  13  27  13  28  13  29  13  30  13  31  13  32  14
M  ISO  8  33  14  34  13  35  13  36  13  37  13  38  13  39   8  40   8
M  ISO  7  41   8  42   8  43   8  44   8  45   8  46   8  47  14
M  END
>  <minimizedAffinity>  (1) 
-4.77652597

>  <minimizedRMSD>  (1) 
1.07911468

$$$$
