
     RDKit          3D

 54 57  0  0  1  0  0  0  0  0999 V2000
   40.9910   33.4700   41.0080 N   0  0  0  0  0  0  0  0  0  0  0  0
   40.3610   34.6150   41.6080 C   0  0  0  0  0  0  0  0  0  0  0  0
   40.5720   35.7830   40.6590 C   0  0  0  0  0  0  0  0  0  0  0  0
   40.5010   35.3610   39.3600 O   0  0  0  0  0  0  0  0  0  0  0  0
   39.6880   34.2210   39.1970 C   0  0  0  0  0  0  0  0  0  0  0  0
   40.4000   33.0070   39.7870 C   0  0  2  0  0  0  0  0  0  0  0  0
   44.5010   32.7070   42.0730 C   0  0  0  0  0  0  0  0  0  0  0  0
   43.3960   33.4030   41.5250 C   0  0  0  0  0  0  0  0  0  0  0  0
   42.1270   32.8040   41.5400 C   0  0  0  0  0  0  0  0  0  0  0  0
   42.0320   31.5790   42.0860 N   0  0  0  0  0  0  0  0  0  0  0  0
   43.1220   30.9390   42.6060 C   0  0  0  0  0  0  0  0  0  0  0  0
   44.3510   31.5180   42.5910 N   0  0  0  0  0  0  0  0  0  0  0  0
   45.8130   33.3880   42.0200 C   0  0  0  0  0  0  0  0  0  0  0  0
   46.7220   33.1230   40.8090 C   0  0  0  0  0  0  0  0  0  0  0  0
   46.1060   34.4600   41.0770 C   0  0  0  0  0  0  0  0  0  0  0  0
   39.4430   31.8810   39.8430 C   0  0  0  0  0  0  0  0  0  0  0  0
   40.2570   30.6190   39.8450 C   0  0  0  0  0  0  0  0  0  0  0  0
   38.6260   31.8240   41.1260 C   0  0  0  0  0  0  0  0  0  0  0  0
   38.4560   31.8270   38.7340 C   0  0  0  0  0  0  0  0  0  0  0  0
   38.5440   30.8240   37.7930 N   0  0  0  0  0  0  0  0  0  0  0  0
   39.6640   30.5730   36.9730 C   0  0  0  0  0  0  0  0  0  0  0  0
   38.9700   29.7070   35.8880 C   0  0  0  0  0  0  0  0  0  0  0  0
   38.1360   28.8080   36.8000 C   0  0  0  0  0  0  0  0  0  0  0  0
   38.1520   29.4880   38.1780 C   0  0  0  0  0  0  0  0  0  0  0  0
   39.2856   34.4273   41.7436 H   0  0  0  0  0  0  0  0  0  0  0  0
   40.7924   34.8285   42.5971 H   0  0  0  0  0  0  0  0  0  0  0  0
   39.7939   36.5399   40.8372 H   0  0  0  0  0  0  0  0  0  0  0  0
   41.5676   36.2143   40.8400 H   0  0  0  0  0  0  0  0  0  0  0  0
   38.7309   34.3746   39.7169 H   0  0  0  0  0  0  0  0  0  0  0  0
   39.4979   34.0532   38.1266 H   0  0  0  0  0  0  0  0  0  0  0  0
   41.2259   32.5865   39.1946 H   0  0  0  0  0  0  0  0  0  0  0  0
   43.5313   34.4048   41.0912 H   0  0  0  0  0  0  0  0  0  0  0  0
   43.0021   29.9373   43.0445 H   0  0  0  0  0  0  0  0  0  0  0  0
   45.8870   33.3076   43.1146 H   0  0  0  0  0  0  0  0  0  0  0  0
   46.3677   32.5043   39.9714 H   0  0  0  0  0  0  0  0  0  0  0  0
   47.7397   32.7364   40.6513 H   0  0  0  0  0  0  0  0  0  0  0  0
   46.7451   35.2986   41.3906 H   0  0  0  0  0  0  0  0  0  0  0  0
   45.4816   35.1436   40.4831 H   0  0  0  0  0  0  0  0  0  0  0  0
   40.4550   30.3120   40.8826 H   0  0  0  0  0  0  0  0  0  0  0  0
   39.7014   29.8235   39.3269 H   0  0  0  0  0  0  0  0  0  0  0  0
   41.2109   30.7971   39.3269 H   0  0  0  0  0  0  0  0  0  0  0  0
   39.3012   31.8711   41.9931 H   0  0  0  0  0  0  0  0  0  0  0  0
   37.9307   32.6758   41.1561 H   0  0  0  0  0  0  0  0  0  0  0  0
   38.0557   30.8839   41.1561 H   0  0  0  0  0  0  0  0  0  0  0  0
   37.4609   31.7456   39.1956 H   0  0  0  0  0  0  0  0  0  0  0  0
   38.6664   32.7399   38.1575 H   0  0  0  0  0  0  0  0  0  0  0  0
   40.0871   31.4986   36.5556 H   0  0  0  0  0  0  0  0  0  0  0  0
   40.5263   30.1084   37.4736 H   0  0  0  0  0  0  0  0  0  0  0  0
   39.6948   29.1323   35.2926 H   0  0  0  0  0  0  0  0  0  0  0  0
   38.4047   30.2646   35.1267 H   0  0  0  0  0  0  0  0  0  0  0  0
   37.1057   28.7287   36.4230 H   0  0  0  0  0  0  0  0  0  0  0  0
   38.5415   27.7865   36.8456 H   0  0  0  0  0  0  0  0  0  0  0  0
   38.8869   29.0254   38.8532 H   0  0  0  0  0  0  0  0  0  0  0  0
   37.2067   29.4251   38.7370 H   0  0  0  0  0  0  0  0  0  0  0  0
  1  9  1  0
  1  2  1  0
  3  2  1  0
  4  3  1  0
  5  4  1  0
  5  6  1  0
  6 16  1  0
  6  1  1  0
  7 12  2  0
  8  9  2  0
  8  7  1  0
  9 10  1  0
 10 11  2  0
 12 11  1  0
 13  7  1  0
 14 15  1  0
 14 13  1  0
 15 13  1  0
 16 17  1  0
 16 18  1  0
 19 16  1  0
 20 24  1  0
 20 19  1  0
 21 20  1  0
 22 23  1  0
 22 21  1  0
 23 24  1  0
  2 25  1  0
  2 26  1  0
  3 27  1  0
  3 28  1  0
  5 29  1  0
  5 30  1  0
  6 31  1  6
  8 32  1  0
 11 33  1  0
 13 34  1  0
 14 35  1  0
 14 36  1  0
 15 37  1  0
 15 38  1  0
 17 39  1  0
 17 40  1  0
 17 41  1  0
 18 42  1  0
 18 43  1  0
 18 44  1  0
 19 45  1  0
 19 46  1  0
 21 47  1  0
 21 48  1  0
 22 49  1  0
 22 50  1  0
 23 51  1  0
 23 52  1  0
 24 53  1  0
 24 54  1  0
M  ISO  8  25  13  26  13  27  13  28  13  29  13  30  13  31  13  32  14
M  ISO  8  33  14  34  13  35  13  36  13  37  13  38  13  39   8  40   8
M  ISO  8  41   8  42   8  43   8  44   8  45   8  46   8  47  13  48  13
M  ISO  6  49  13  50  13  51  13  52  13  53  13  54  13
M  END
>  <minimizedAffinity>  (1) 
-4.33198118

>  <minimizedRMSD>  (1) 
2.34864378

$$$$
