
     RDKit          3D

 39 42  0  0  1  0  0  0  0  0999 V2000
   46.9610   34.2550   42.4250 N   0  0  0  0  0  0  0  0  0  0  0  0
   48.3090   33.7970   42.5780 C   0  0  0  0  0  0  0  0  0  0  0  0
   48.8620   33.0420   41.4190 C   0  0  0  0  0  0  0  0  0  0  0  0
   48.1620   33.0700   40.2480 O   0  0  0  0  0  0  0  0  0  0  0  0
   47.4170   34.1870   40.0450 C   0  0  0  0  0  0  0  0  0  0  0  0
   46.3550   34.4190   41.1080 C   0  0  1  0  0  0  0  0  0  0  0  0
   45.3100   33.3980   41.0000 C   0  0  0  0  0  0  0  0  0  0  0  0
   45.6090   32.0510   41.2280 C   0  0  0  0  0  0  0  0  0  0  0  0
   44.6870   31.0400   41.1460 C   0  0  0  0  0  0  0  0  0  0  0  0
   43.3820   31.3470   40.8210 C   0  0  0  0  0  0  0  0  0  0  0  0
   43.0290   32.6580   40.5860 C   0  0  0  0  0  0  0  0  0  0  0  0
   41.7070   32.9530   40.2590 C   0  0  0  0  0  0  0  0  0  0  0  0
   41.3270   34.2530   40.0180 C   0  0  0  0  0  0  0  0  0  0  0  0
   42.2910   35.2270   40.1150 C   0  0  0  0  0  0  0  0  0  0  0  0
   43.6060   34.9230   40.4420 C   0  0  0  0  0  0  0  0  0  0  0  0
   43.9930   33.6380   40.6810 C   0  0  0  0  0  0  0  0  0  0  0  0
   44.5430   35.9410   44.7290 C   0  0  0  0  0  0  0  0  0  0  0  0
   45.3170   35.6940   43.5710 C   0  0  0  0  0  0  0  0  0  0  0  0
   46.1510   34.5730   43.5510 C   0  0  0  0  0  0  0  0  0  0  0  0
   46.1670   33.7760   44.6630 N   0  0  0  0  0  0  0  0  0  0  0  0
   45.4240   34.0270   45.7530 C   0  0  0  0  0  0  0  0  0  0  0  0
   44.6210   35.0960   45.7890 N   0  0  0  0  0  0  0  0  0  0  0  0
   48.9489   34.6755   42.7474 H   0  0  0  0  0  0  0  0  0  0  0  0
   48.2957   33.0911   43.4215 H   0  0  0  0  0  0  0  0  0  0  0  0
   49.8637   33.4466   41.2120 H   0  0  0  0  0  0  0  0  0  0  0  0
   48.8309   31.9887   41.7347 H   0  0  0  0  0  0  0  0  0  0  0  0
   48.0913   35.0560   40.0332 H   0  0  0  0  0  0  0  0  0  0  0  0
   46.8890   34.0502   39.0897 H   0  0  0  0  0  0  0  0  0  0  0  0
   45.9354   35.4267   40.9720 H   0  0  0  0  0  0  0  0  0  0  0  0
   46.6447   31.7874   41.4884 H   0  0  0  0  0  0  0  0  0  0  0  0
   44.9837   29.9981   41.3368 H   0  0  0  0  0  0  0  0  0  0  0  0
   42.6275   30.5497   40.7499 H   0  0  0  0  0  0  0  0  0  0  0  0
   40.9648   32.1438   40.1934 H   0  0  0  0  0  0  0  0  0  0  0  0
   40.2883   34.5037   39.7569 H   0  0  0  0  0  0  0  0  0  0  0  0
   42.0140   36.2751   39.9288 H   0  0  0  0  0  0  0  0  0  0  0  0
   44.3476   35.7326   40.5093 H   0  0  0  0  0  0  0  0  0  0  0  0
   43.8786   36.8167   44.7707 H   0  0  0  0  0  0  0  0  0  0  0  0
   45.2635   36.3699   42.7048 H   0  0  0  0  0  0  0  0  0  0  0  0
   45.4760   33.3511   46.6193 H   0  0  0  0  0  0  0  0  0  0  0  0
  1  2  1  0
  1 19  1  0
  3  2  1  0
  4  3  1  0
  5  4  1  0
  5  6  1  0
  6  1  1  0
  7  6  1  0
  7  8  2  0
  9  8  1  0
 10  9  2  0
 11 16  2  0
 11 10  1  0
 12 11  1  0
 13 14  1  0
 13 12  2  0
 14 15  2  0
 15 16  1  0
 16  7  1  0
 17 22  2  0
 18 17  1  0
 19 18  2  0
 19 20  1  0
 20 21  2  0
 21 22  1  0
  2 23  1  0
  2 24  1  0
  3 25  1  0
  3 26  1  0
  5 27  1  0
  5 28  1  0
  6 29  1  1
  8 30  1  0
  9 31  1  0
 10 32  1  0
 12 33  1  0
 13 34  1  0
 14 35  1  0
 15 36  1  0
 17 37  1  0
 18 38  1  0
 21 39  1  0
M  ISO  8  23  13  24  13  25  13  26  13  27  13  28  13  29  13  30  14
M  ISO  8  31  14  32  14  33  14  34  14  35  14  36  14  37  14  38  14
M  ISO  1  39  14
M  END
>  <minimizedAffinity>  (1) 
-5.38411379

>  <minimizedRMSD>  (1) 
1.12010443

$$$$
