
     RDKit          3D

 30 31  0  0  1  0  0  0  0  0999 V2000
   47.2830   34.4180   42.3660 N   0  0  0  0  0  0  0  0  0  0  0  0
   48.6380   34.0530   42.6290 C   0  0  0  0  0  0  0  0  0  0  0  0
   49.3210   33.3090   41.5480 C   0  0  0  0  0  0  0  0  0  0  0  0
   48.7260   33.2810   40.3080 O   0  0  0  0  0  0  0  0  0  0  0  0
   47.9310   34.3670   40.0330 C   0  0  0  0  0  0  0  0  0  0  0  0
   46.7780   34.5140   41.0110 C   0  0  1  0  0  0  0  0  0  0  0  0
   44.6070   35.9910   44.4630 C   0  0  0  0  0  0  0  0  0  0  0  0
   45.4850   35.8080   43.3640 C   0  0  0  0  0  0  0  0  0  0  0  0
   46.3560   34.7040   43.4110 C   0  0  0  0  0  0  0  0  0  0  0  0
   46.2990   33.8790   44.5160 N   0  0  0  0  0  0  0  0  0  0  0  0
   45.4470   34.0930   45.5380 C   0  0  0  0  0  0  0  0  0  0  0  0
   44.6120   35.1390   45.5060 N   0  0  0  0  0  0  0  0  0  0  0  0
   45.8310   33.4610   40.8080 N   0  0  0  0  0  0  0  0  0  0  0  0
   44.4970   33.6490   40.3490 C   0  0  0  0  0  0  0  0  0  0  0  0
   44.0530   34.8370   40.2200 N   0  0  0  0  0  0  0  0  0  0  0  0
   43.6340   32.5420   40.0300 N   0  0  0  0  0  0  0  0  0  0  0  0
   43.0800   35.0220   39.8870 H   0  0  0  0  0  0  0  0  0  0  0  0
   49.2068   34.9757   42.8164 H   0  0  0  0  0  0  0  0  0  0  0  0
   48.6037   33.3690   43.4898 H   0  0  0  0  0  0  0  0  0  0  0  0
   50.3181   33.7562   41.4224 H   0  0  0  0  0  0  0  0  0  0  0  0
   49.3066   32.2615   41.8836 H   0  0  0  0  0  0  0  0  0  0  0  0
   48.5490   35.2758   40.0789 H   0  0  0  0  0  0  0  0  0  0  0  0
   47.4998   34.2174   39.0321 H   0  0  0  0  0  0  0  0  0  0  0  0
   46.2949   35.4889   40.8491 H   0  0  0  0  0  0  0  0  0  0  0  0
   43.9108   36.8426   44.4633 H   0  0  0  0  0  0  0  0  0  0  0  0
   45.4849   36.5010   42.5098 H   0  0  0  0  0  0  0  0  0  0  0  0
   45.4376   33.4081   46.3987 H   0  0  0  0  0  0  0  0  0  0  0  0
   46.1365   32.4980   41.0084 H   0  0  0  0  0  0  0  0  0  0  0  0
   42.6738   32.7159   39.7003 H   0  0  0  0  0  0  0  0  0  0  0  0
   43.9767   31.5760   40.1314 H   0  0  0  0  0  0  0  0  0  0  0  0
  1  2  1  0
  1  9  1  0
  3  2  1  0
  4  3  1  0
  5  4  1  0
  5  6  1  0
  6  1  1  0
  7 12  2  0
  8  9  2  0
  8  7  1  0
  9 10  1  0
 10 11  2  0
 12 11  1  0
 13  6  1  0
 14 13  1  0
 15 14  2  0
 16 14  1  0
 17 15  1  0
  2 18  1  0
  2 19  1  0
  3 20  1  0
  3 21  1  0
  5 22  1  0
  5 23  1  0
  6 24  1  1
  7 25  1  0
  8 26  1  0
 11 27  1  0
 13 28  1  0
 16 29  1  0
 16 30  1  0
M  ISO  8  18  13  19  13  20  13  21  13  22  13  23  13  24  13  25  14
M  ISO  2  26  14  27  14
M  END
>  <minimizedAffinity>  (1) 
-4.61879969

>  <minimizedRMSD>  (1) 
0.406563759

$$$$
