
     RDKit          3D

 36 38  0  0  1  0  0  0  0  0999 V2000
   47.2580   34.3250   42.2990 N   0  0  0  0  0  0  0  0  0  0  0  0
   48.5680   33.7980   42.5730 C   0  0  0  0  0  0  0  0  0  0  0  0
   49.1570   32.9660   41.5030 C   0  0  0  0  0  0  0  0  0  0  0  0
   48.7120   33.1890   40.2360 O   0  0  0  0  0  0  0  0  0  0  0  0
   48.0390   34.3600   39.9980 C   0  0  0  0  0  0  0  0  0  0  0  0
   46.8400   34.5250   40.9420 C   0  0  1  0  0  0  0  0  0  0  0  0
   44.6780   36.1010   44.3340 C   0  0  0  0  0  0  0  0  0  0  0  0
   45.5500   35.8190   43.2790 C   0  0  0  0  0  0  0  0  0  0  0  0
   46.3610   34.6560   43.3390 C   0  0  0  0  0  0  0  0  0  0  0  0
   46.2400   33.8670   44.4440 N   0  0  0  0  0  0  0  0  0  0  0  0
   45.3900   34.1600   45.4510 C   0  0  0  0  0  0  0  0  0  0  0  0
   44.6170   35.2610   45.4010 N   0  0  0  0  0  0  0  0  0  0  0  0
   45.8110   33.5320   40.5040 C   0  0  0  0  0  0  0  0  0  0  0  0
   44.3980   34.0010   40.5510 C   0  0  0  0  0  0  0  0  0  0  0  0
   43.7200   32.9270   39.6880 C   0  0  0  0  0  0  0  0  0  0  0  0
   44.6200   32.9000   38.4930 C   0  0  0  0  0  0  0  0  0  0  0  0
   46.0060   33.1230   39.0840 C   0  0  0  0  0  0  0  0  0  0  0  0
   49.2439   34.6471   42.7525 H   0  0  0  0  0  0  0  0  0  0  0  0
   48.4499   33.1331   43.4413 H   0  0  0  0  0  0  0  0  0  0  0  0
   50.2436   33.1369   41.5088 H   0  0  0  0  0  0  0  0  0  0  0  0
   48.8507   31.9360   41.7382 H   0  0  0  0  0  0  0  0  0  0  0  0
   48.7285   35.2043   40.1458 H   0  0  0  0  0  0  0  0  0  0  0  0
   47.6624   34.3363   38.9647 H   0  0  0  0  0  0  0  0  0  0  0  0
   46.4124   35.5376   40.8992 H   0  0  0  0  0  0  0  0  0  0  0  0
   44.0436   36.9990   44.3011 H   0  0  0  0  0  0  0  0  0  0  0  0
   45.6072   36.4918   42.4107 H   0  0  0  0  0  0  0  0  0  0  0  0
   45.3283   33.4915   46.3224 H   0  0  0  0  0  0  0  0  0  0  0  0
   45.9608   32.7187   41.2293 H   0  0  0  0  0  0  0  0  0  0  0  0
   44.0049   34.0047   41.5784 H   0  0  0  0  0  0  0  0  0  0  0  0
   44.2451   35.0334   40.2034 H   0  0  0  0  0  0  0  0  0  0  0  0
   43.7000   31.9532   40.1991 H   0  0  0  0  0  0  0  0  0  0  0  0
   42.6660   33.1367   39.4535 H   0  0  0  0  0  0  0  0  0  0  0  0
   44.3601   33.7027   37.7873 H   0  0  0  0  0  0  0  0  0  0  0  0
   44.5444   31.9630   37.9218 H   0  0  0  0  0  0  0  0  0  0  0  0
   46.5920   32.1933   39.0353 H   0  0  0  0  0  0  0  0  0  0  0  0
   46.5532   33.8954   38.5236 H   0  0  0  0  0  0  0  0  0  0  0  0
  1  2  1  0
  1  9  1  0
  3  2  1  0
  4  3  1  0
  5  4  1  0
  5  6  1  0
  6  1  1  0
  7 12  2  0
  8  9  2  0
  8  7  1  0
  9 10  1  0
 10 11  2  0
 12 11  1  0
 13 14  1  0
 13  6  1  0
 15 14  1  0
 16 17  1  0
 16 15  1  0
 17 13  1  0
  2 18  1  0
  2 19  1  0
  3 20  1  0
  3 21  1  0
  5 22  1  0
  5 23  1  0
  6 24  1  1
  7 25  1  0
  8 26  1  0
 11 27  1  0
 13 28  1  0
 14 29  1  0
 14 30  1  0
 15 31  1  0
 15 32  1  0
 16 33  1  0
 16 34  1  0
 17 35  1  0
 17 36  1  0
M  ISO  8  18  13  19  13  20  13  21  13  22  13  23  13  24  13  25  14
M  ISO  8  26  14  27  14  28  13  29  13  30  13  31  13  32  13  33  13
M  ISO  3  34  13  35  13  36  13
M  END
>  <minimizedAffinity>  (1) 
-4.63646555

>  <minimizedRMSD>  (1) 
0.702160776

$$$$
