
     RDKit          3D

 32 34  0  0  1  0  0  0  0  0999 V2000
   46.9490   34.1980   42.3930 N   0  0  0  0  0  0  0  0  0  0  0  0
   48.2310   33.6030   42.5650 C   0  0  0  0  0  0  0  0  0  0  0  0
   48.7700   32.8590   41.4090 C   0  0  0  0  0  0  0  0  0  0  0  0
   48.1460   33.0280   40.2100 O   0  0  0  0  0  0  0  0  0  0  0  0
   47.4540   34.1840   40.0200 C   0  0  0  0  0  0  0  0  0  0  0  0
   46.4090   34.4660   41.0790 C   0  0  1  0  0  0  0  0  0  0  0  0
   44.5750   35.9980   44.6630 C   0  0  0  0  0  0  0  0  0  0  0  0
   45.3430   35.7120   43.5180 C   0  0  0  0  0  0  0  0  0  0  0  0
   46.1470   34.5520   43.5100 C   0  0  0  0  0  0  0  0  0  0  0  0
   46.1210   33.7790   44.6320 N   0  0  0  0  0  0  0  0  0  0  0  0
   45.3830   34.0650   45.7170 C   0  0  0  0  0  0  0  0  0  0  0  0
   44.6180   35.1600   45.7350 N   0  0  0  0  0  0  0  0  0  0  0  0
   45.1290   33.8020   40.8080 C   0  0  0  0  0  0  0  0  0  0  0  0
   44.9730   32.4200   40.9260 C   0  0  0  0  0  0  0  0  0  0  0  0
   43.7740   31.7990   40.6730 C   0  0  0  0  0  0  0  0  0  0  0  0
   42.6770   32.5020   40.2940 C   0  0  0  0  0  0  0  0  0  0  0  0
   42.8500   33.8860   40.1820 C   0  0  0  0  0  0  0  0  0  0  0  0
   44.0320   34.4780   40.4330 N   0  0  0  0  0  0  0  0  0  0  0  0
   48.9427   34.4059   42.8076 H   0  0  0  0  0  0  0  0  0  0  0  0
   48.1011   32.8538   43.3598 H   0  0  0  0  0  0  0  0  0  0  0  0
   49.8194   33.1630   41.2809 H   0  0  0  0  0  0  0  0  0  0  0  0
   48.6166   31.7990   41.6597 H   0  0  0  0  0  0  0  0  0  0  0  0
   48.1714   35.0178   40.0133 H   0  0  0  0  0  0  0  0  0  0  0  0
   46.9154   34.0757   39.0670 H   0  0  0  0  0  0  0  0  0  0  0  0
   46.1605   35.5371   41.0467 H   0  0  0  0  0  0  0  0  0  0  0  0
   43.9415   36.8968   44.6912 H   0  0  0  0  0  0  0  0  0  0  0  0
   45.3168   36.3809   42.6451 H   0  0  0  0  0  0  0  0  0  0  0  0
   45.4085   33.3975   46.5910 H   0  0  0  0  0  0  0  0  0  0  0  0
   45.8360   31.8098   41.2307 H   0  0  0  0  0  0  0  0  0  0  0  0
   43.7016   30.7066   40.7801 H   0  0  0  0  0  0  0  0  0  0  0  0
   41.7126   32.0147   40.0878 H   0  0  0  0  0  0  0  0  0  0  0  0
   41.9947   34.5083   39.8799 H   0  0  0  0  0  0  0  0  0  0  0  0
  1  2  1  0
  1  9  1  0
  3  2  1  0
  4  3  1  0
  5  4  1  0
  5  6  1  0
  6  1  1  0
  7 12  2  0
  8  7  1  0
  9  8  2  0
  9 10  1  0
 10 11  2  0
 11 12  1  0
 13 14  2  0
 13  6  1  0
 15 14  1  0
 16 15  2  0
 17 16  1  0
 17 18  2  0
 18 13  1  0
  2 19  1  0
  2 20  1  0
  3 21  1  0
  3 22  1  0
  5 23  1  0
  5 24  1  0
  6 25  1  1
  7 26  1  0
  8 27  1  0
 11 28  1  0
 14 29  1  0
 15 30  1  0
 16 31  1  0
 17 32  1  0
M  ISO  8  19  13  20  13  21  13  22  13  23  13  24  13  25  13  26  14
M  ISO  6  27  14  28  14  29  14  30  14  31  14  32  14
M  END
>  <minimizedAffinity>  (1) 
-4.54708004

>  <minimizedRMSD>  (1) 
0.991122484

$$$$
