
     RDKit          3D

 53 57  0  0  1  0  0  0  0  0999 V2000
   47.8260   34.6030   41.1570 C   0  0  1  0  0  0  0  0  0  0  0  0
   45.5930   34.2860   42.2370 C   0  0  0  0  0  0  0  0  0  0  0  0
   46.9880   34.2640   42.3150 C   0  0  0  0  0  0  0  0  0  0  0  0
   47.5880   33.9160   43.5480 C   0  0  0  0  0  0  0  0  0  0  0  0
   46.8020   33.6210   44.5940 N   0  0  0  0  0  0  0  0  0  0  0  0
   45.4550   33.6440   44.5080 C   0  0  0  0  0  0  0  0  0  0  0  0
   44.8830   33.9710   43.3520 N   0  0  0  0  0  0  0  0  0  0  0  0
   44.8410   34.6650   41.0930 C   0  0  0  0  0  0  0  0  0  0  0  0
   44.3290   33.4010   40.3340 C   0  0  0  0  0  0  0  0  0  0  0  0
   43.3130   34.0510   39.3940 C   0  0  0  0  0  0  0  0  0  0  0  0
   42.8000   35.2460   40.1650 C   0  0  0  0  0  0  0  0  0  0  0  0
   43.5150   35.2220   41.5060 C   0  0  0  0  0  0  0  0  0  0  0  0
   48.8450   35.6360   41.4410 C   0  0  0  0  0  0  0  0  0  0  0  0
   48.3690   33.3250   40.5780 C   0  0  0  0  0  0  0  0  0  0  0  0
   48.4700   33.3800   39.1320 N   0  0  0  0  0  0  0  0  0  0  0  0
   48.1720   34.5550   38.6080 N   0  0  0  0  0  0  0  0  0  0  0  0
   48.2990   34.5020   37.2750 C   0  0  0  0  0  0  0  0  0  0  0  0
   48.6980   33.2360   36.9390 C   0  0  0  0  0  0  0  0  0  0  0  0
   48.8000   32.5480   38.1220 C   0  0  0  0  0  0  0  0  0  0  0  0
   49.1620   31.2050   38.4970 N   0  0  0  0  0  0  0  0  0  0  0  0
   48.3320   30.1600   38.2060 C   0  0  0  0  0  0  0  0  0  0  0  0
   48.8290   28.9830   38.6290 N   0  0  0  0  0  0  0  0  0  0  0  0
   50.0090   29.2840   39.2070 C   0  0  0  0  0  0  0  0  0  0  0  0
   51.0290   28.5990   39.8360 C   0  0  0  0  0  0  0  0  0  0  0  0
   50.8940   27.3400   39.9390 O   0  0  0  0  0  0  0  0  0  0  0  0
   52.1200   29.2230   40.3220 N   0  0  0  0  0  0  0  0  0  0  0  0
   52.2610   30.5760   40.2100 C   0  0  0  0  0  0  0  0  0  0  0  0
   53.4690   31.0700   40.7760 N   0  0  0  0  0  0  0  0  0  0  0  0
   51.2760   31.2890   39.5950 N   0  0  0  0  0  0  0  0  0  0  0  0
   50.2130   30.6480   39.1260 C   0  0  0  0  0  0  0  0  0  0  0  0
   47.2086   35.0942   40.3905 H   0  0  0  0  0  0  0  0  0  0  0  0
   48.6831   33.8878   43.6474 H   0  0  0  0  0  0  0  0  0  0  0  0
   44.8373   33.3953   45.3836 H   0  0  0  0  0  0  0  0  0  0  0  0
   45.4968   35.3396   40.5231 H   0  0  0  0  0  0  0  0  0  0  0  0
   45.1375   32.9020   39.7796 H   0  0  0  0  0  0  0  0  0  0  0  0
   43.9235   32.6062   40.9773 H   0  0  0  0  0  0  0  0  0  0  0  0
   42.4932   33.3543   39.1648 H   0  0  0  0  0  0  0  0  0  0  0  0
   43.7561   34.3336   38.4277 H   0  0  0  0  0  0  0  0  0  0  0  0
   43.0317   36.1763   39.6256 H   0  0  0  0  0  0  0  0  0  0  0  0
   41.7081   35.2038   40.2913 H   0  0  0  0  0  0  0  0  0  0  0  0
   43.0051   34.5664   42.2272 H   0  0  0  0  0  0  0  0  0  0  0  0
   43.5638   36.1939   42.0189 H   0  0  0  0  0  0  0  0  0  0  0  0
   48.9578   35.7504   42.5292 H   0  0  0  0  0  0  0  0  0  0  0  0
   49.8071   35.3323   41.0025 H   0  0  0  0  0  0  0  0  0  0  0  0
   48.5282   36.5938   41.0025 H   0  0  0  0  0  0  0  0  0  0  0  0
   49.3698   33.1431   40.9967 H   0  0  0  0  0  0  0  0  0  0  0  0
   47.6737   32.5133   40.8381 H   0  0  0  0  0  0  0  0  0  0  0  0
   48.1151   35.3297   36.5742 H   0  0  0  0  0  0  0  0  0  0  0  0
   48.8961   32.8497   35.9283 H   0  0  0  0  0  0  0  0  0  0  0  0
   47.3687   30.2679   37.6860 H   0  0  0  0  0  0  0  0  0  0  0  0
   52.8572   28.6717   40.7841 H   0  0  0  0  0  0  0  0  0  0  0  0
   53.6769   32.0784   40.7465 H   0  0  0  0  0  0  0  0  0  0  0  0
   54.1357   30.4193   41.2153 H   0  0  0  0  0  0  0  0  0  0  0  0
  1 13  1  0
  1  3  1  0
  2  3  1  0
  2  7  2  0
  3  4  2  0
  4  5  1  0
  6  5  2  0
  7  6  1  0
  8 12  1  0
  8  2  1  0
  9  8  1  0
 10 11  1  0
 10  9  1  0
 11 12  1  0
 14  1  1  0
 15 14  1  0
 16 15  1  0
 17 16  2  0
 18 17  1  0
 18 19  2  0
 19 20  1  0
 19 15  1  0
 20 30  1  0
 21 20  1  0
 21 22  2  0
 22 23  1  0
 23 24  1  0
 24 25  2  0
 24 26  1  0
 27 26  1  0
 27 28  1  0
 29 27  2  0
 30 23  2  0
 30 29  1  0
  1 31  1  6
  4 32  1  0
  6 33  1  0
  8 34  1  0
  9 35  1  0
  9 36  1  0
 10 37  1  0
 10 38  1  0
 11 39  1  0
 11 40  1  0
 12 41  1  0
 12 42  1  0
 13 43  1  0
 13 44  1  0
 13 45  1  0
 14 46  1  0
 14 47  1  0
 17 48  1  0
 18 49  1  0
 21 50  1  0
 26 51  1  0
 28 52  1  0
 28 53  1  0
M  ISO  8  31   8  32  14  33  14  34  13  35  13  36  13  37  13  38  13
M  ISO  8  39  13  40  13  41  13  42  13  43   8  44   8  45   8  46   8
M  ISO  5  47   8  48  14  49  14  50  14  51   9
M  END
>  <minimizedAffinity>  (1) 
-5.83141613

>  <minimizedRMSD>  (1) 
2.34817004

$$$$
