
     RDKit          3D

 36 38  0  0  1  0  0  0  0  0999 V2000
   47.2420   34.3810   42.4790 N   0  0  0  0  0  0  0  0  0  0  0  0
   48.6040   34.0520   42.7300 C   0  0  0  0  0  0  0  0  0  0  0  0
   49.3200   33.3270   41.6630 C   0  0  0  0  0  0  0  0  0  0  0  0
   48.7620   33.3510   40.4180 O   0  0  0  0  0  0  0  0  0  0  0  0
   47.8870   34.3670   40.1260 C   0  0  0  0  0  0  0  0  0  0  0  0
   46.7580   34.4640   41.1370 C   0  0  1  0  0  0  0  0  0  0  0  0
   44.5470   35.9180   44.5770 C   0  0  0  0  0  0  0  0  0  0  0  0
   45.4250   35.7070   43.4960 C   0  0  0  0  0  0  0  0  0  0  0  0
   46.3410   34.6340   43.5390 C   0  0  0  0  0  0  0  0  0  0  0  0
   46.3120   33.8560   44.6540 N   0  0  0  0  0  0  0  0  0  0  0  0
   45.4680   34.0680   45.6790 C   0  0  0  0  0  0  0  0  0  0  0  0
   44.5930   35.0930   45.6380 N   0  0  0  0  0  0  0  0  0  0  0  0
   45.8040   33.4800   40.8130 N   0  0  0  0  0  0  0  0  0  0  0  0
   44.5860   33.9020   40.2680 C   0  0  0  0  0  0  0  0  0  0  0  0
   43.4770   32.9530   40.6830 C   0  0  0  0  0  0  0  0  0  0  0  0
   43.7470   31.6440   40.3980 O   0  0  0  0  0  0  0  0  0  0  0  0
   45.0730   31.3270   40.2730 C   0  0  0  0  0  0  0  0  0  0  0  0
   45.9840   32.1500   41.1950 C   0  0  0  0  0  0  0  0  0  0  0  0
   49.1449   34.9918   42.9147 H   0  0  0  0  0  0  0  0  0  0  0  0
   48.5804   33.3587   43.5837 H   0  0  0  0  0  0  0  0  0  0  0  0
   50.3273   33.7619   41.5840 H   0  0  0  0  0  0  0  0  0  0  0  0
   49.2949   32.2704   41.9679 H   0  0  0  0  0  0  0  0  0  0  0  0
   48.4391   35.3184   40.1199 H   0  0  0  0  0  0  0  0  0  0  0  0
   47.4411   34.1548   39.1431 H   0  0  0  0  0  0  0  0  0  0  0  0
   46.2720   35.4494   41.0850 H   0  0  0  0  0  0  0  0  0  0  0  0
   43.8292   36.7512   44.5535 H   0  0  0  0  0  0  0  0  0  0  0  0
   45.3969   36.3751   42.6226 H   0  0  0  0  0  0  0  0  0  0  0  0
   45.4915   33.4025   46.5545 H   0  0  0  0  0  0  0  0  0  0  0  0
   44.6627   33.9154   39.1708 H   0  0  0  0  0  0  0  0  0  0  0  0
   44.3550   34.9120   40.6375 H   0  0  0  0  0  0  0  0  0  0  0  0
   43.3239   33.0491   41.7681 H   0  0  0  0  0  0  0  0  0  0  0  0
   42.5803   33.2315   40.1099 H   0  0  0  0  0  0  0  0  0  0  0  0
   45.2016   30.2618   40.5154 H   0  0  0  0  0  0  0  0  0  0  0  0
   45.3661   31.5549   39.2376 H   0  0  0  0  0  0  0  0  0  0  0  0
   47.0344   31.8515   41.0625 H   0  0  0  0  0  0  0  0  0  0  0  0
   45.7361   31.9946   42.2554 H   0  0  0  0  0  0  0  0  0  0  0  0
  1  2  1  0
  1  9  1  0
  3  2  1  0
  4  3  1  0
  5  4  1  0
  5  6  1  0
  6  1  1  0
  7 12  2  0
  8  9  2  0
  8  7  1  0
  9 10  1  0
 10 11  2  0
 12 11  1  0
 13  6  1  0
 13 18  1  0
 14 15  1  0
 14 13  1  0
 16 15  1  0
 17 16  1  0
 17 18  1  0
  2 19  1  0
  2 20  1  0
  3 21  1  0
  3 22  1  0
  5 23  1  0
  5 24  1  0
  6 25  1  1
  7 26  1  0
  8 27  1  0
 11 28  1  0
 14 29  1  0
 14 30  1  0
 15 31  1  0
 15 32  1  0
 17 33  1  0
 17 34  1  0
 18 35  1  0
 18 36  1  0
M  ISO  8  19  13  20  13  21  13  22  13  23  13  24  13  25  13  26  14
M  ISO  8  27  14  28  14  29  13  30  13  31  13  32  13  33  13  34  13
M  ISO  2  35  13  36  13
M  END
>  <minimizedAffinity>  (1) 
-4.47165251

>  <minimizedRMSD>  (1) 
0.464783132

$$$$
