
     RDKit          3D

 26 27  0  0  1  0  0  0  0  0999 V2000
   47.3060   34.3170   42.3400 N   0  0  0  0  0  0  0  0  0  0  0  0
   48.5760   33.7350   42.6270 C   0  0  0  0  0  0  0  0  0  0  0  0
   49.1960   32.9540   41.5230 C   0  0  0  0  0  0  0  0  0  0  0  0
   48.7130   33.1450   40.2700 O   0  0  0  0  0  0  0  0  0  0  0  0
   48.0700   34.3290   40.0310 C   0  0  0  0  0  0  0  0  0  0  0  0
   46.9130   34.5790   40.9760 C   0  0  1  0  0  0  0  0  0  0  0  0
   44.6600   36.0670   44.3260 C   0  0  0  0  0  0  0  0  0  0  0  0
   45.5500   35.7870   43.2840 C   0  0  0  0  0  0  0  0  0  0  0  0
   46.3820   34.6620   43.3570 C   0  0  0  0  0  0  0  0  0  0  0  0
   46.2700   33.8750   44.4800 N   0  0  0  0  0  0  0  0  0  0  0  0
   45.4010   34.1720   45.4660 C   0  0  0  0  0  0  0  0  0  0  0  0
   44.6050   35.2550   45.3920 N   0  0  0  0  0  0  0  0  0  0  0  0
   45.7660   33.7290   40.6120 C   0  0  0  0  0  0  0  0  0  0  0  0
   45.7420   32.4850   40.8150 O   0  0  0  0  0  0  0  0  0  0  0  0
   44.6390   34.2870   40.0170 O   0  0  0  0  0  0  0  0  0  0  0  0
   49.2669   34.5481   42.8943 H   0  0  0  0  0  0  0  0  0  0  0  0
   48.3971   33.0141   43.4383 H   0  0  0  0  0  0  0  0  0  0  0  0
   50.2671   33.2039   41.5044 H   0  0  0  0  0  0  0  0  0  0  0  0
   48.9601   31.9052   41.7563 H   0  0  0  0  0  0  0  0  0  0  0  0
   48.7948   35.1492   40.1405 H   0  0  0  0  0  0  0  0  0  0  0  0
   47.6564   34.2776   39.0130 H   0  0  0  0  0  0  0  0  0  0  0  0
   46.6183   35.6354   40.8914 H   0  0  0  0  0  0  0  0  0  0  0  0
   44.0071   36.9506   44.2713 H   0  0  0  0  0  0  0  0  0  0  0  0
   45.5968   36.4499   42.4074 H   0  0  0  0  0  0  0  0  0  0  0  0
   45.3409   33.5172   46.3479 H   0  0  0  0  0  0  0  0  0  0  0  0
   44.6055   35.2596   39.8351 H   0  0  0  0  0  0  0  0  0  0  0  0
  1  2  1  0
  1  9  1  0
  3  2  1  0
  4  3  1  0
  5  4  1  0
  5  6  1  0
  6  1  1  0
  7 12  2  0
  8  9  2  0
  8  7  1  0
  9 10  1  0
 10 11  2  0
 12 11  1  0
 13 14  2  0
 13  6  1  0
 15 13  1  0
  2 16  1  0
  2 17  1  0
  3 18  1  0
  3 19  1  0
  5 20  1  0
  5 21  1  0
  6 22  1  1
  7 23  1  0
  8 24  1  0
 11 25  1  0
 15 26  1  0
M  ISO  8  16  13  17  13  18  13  19  13  20  13  21  13  22  13  23  14
M  ISO  3  24  14  25  14  26   3
M  END
>  <minimizedAffinity>  (1) 
-4.38871145

>  <minimizedRMSD>  (1) 
0.477041423

$$$$
