
     RDKit          3D

 52 55  0  0  1  0  0  0  0  0999 V2000
   47.8190   34.5380   41.1570 C   0  0  1  0  0  0  0  0  0  0  0  0
   45.5840   34.2980   42.2500 C   0  0  0  0  0  0  0  0  0  0  0  0
   46.9780   34.2390   42.3240 C   0  0  0  0  0  0  0  0  0  0  0  0
   47.5710   33.9000   43.5610 C   0  0  0  0  0  0  0  0  0  0  0  0
   46.7860   33.6460   44.6150 N   0  0  0  0  0  0  0  0  0  0  0  0
   45.4400   33.7050   44.5340 C   0  0  0  0  0  0  0  0  0  0  0  0
   44.8730   34.0230   43.3750 N   0  0  0  0  0  0  0  0  0  0  0  0
   44.8350   34.6750   41.1040 C   0  0  0  0  0  0  0  0  0  0  0  0
   44.3240   33.4100   40.3490 C   0  0  0  0  0  0  0  0  0  0  0  0
   43.3090   34.0460   39.4040 C   0  0  0  0  0  0  0  0  0  0  0  0
   42.7920   35.2380   40.1710 C   0  0  0  0  0  0  0  0  0  0  0  0
   43.5070   35.2320   41.5080 C   0  0  0  0  0  0  0  0  0  0  0  0
   48.8170   35.6020   41.3980 C   0  0  0  0  0  0  0  0  0  0  0  0
   48.3890   33.2420   40.6440 C   0  0  0  0  0  0  0  0  0  0  0  0
   48.5390   33.2430   39.2020 N   0  0  0  0  0  0  0  0  0  0  0  0
   47.7950   34.1400   38.5770 N   0  0  0  0  0  0  0  0  0  0  0  0
   48.0060   34.0620   37.2550 C   0  0  0  0  0  0  0  0  0  0  0  0
   48.9260   33.0730   37.0300 C   0  0  0  0  0  0  0  0  0  0  0  0
   49.2430   32.5770   38.2690 C   0  0  0  0  0  0  0  0  0  0  0  0
   50.1230   31.5530   38.7210 N   0  0  0  0  0  0  0  0  0  0  0  0
   51.3890   31.6540   39.1560 C   0  0  0  0  0  0  0  0  0  0  0  0
   52.0460   30.5080   39.5460 C   0  0  0  0  0  0  0  0  0  0  0  0
   53.4330   30.6850   40.0130 C   0  0  0  0  0  0  0  0  0  0  0  0
   51.4270   29.2560   39.4980 C   0  0  0  0  0  0  0  0  0  0  0  0
   52.0600   28.2320   39.8620 O   0  0  0  0  0  0  0  0  0  0  0  0
   50.1530   29.2100   39.0520 N   0  0  0  0  0  0  0  0  0  0  0  0
   49.5140   30.3340   38.6720 C   0  0  0  0  0  0  0  0  0  0  0  0
   48.3300   30.1110   38.2830 O   0  0  0  0  0  0  0  0  0  0  0  0
   47.1998   34.9814   40.3633 H   0  0  0  0  0  0  0  0  0  0  0  0
   48.6655   33.8455   43.6567 H   0  0  0  0  0  0  0  0  0  0  0  0
   44.8196   33.4923   45.4171 H   0  0  0  0  0  0  0  0  0  0  0  0
   45.4935   35.3490   40.5366 H   0  0  0  0  0  0  0  0  0  0  0  0
   45.1344   32.9098   39.7985 H   0  0  0  0  0  0  0  0  0  0  0  0
   43.9166   32.6206   40.9977 H   0  0  0  0  0  0  0  0  0  0  0  0
   42.4934   33.3439   39.1765 H   0  0  0  0  0  0  0  0  0  0  0  0
   43.7496   34.3248   38.4354 H   0  0  0  0  0  0  0  0  0  0  0  0
   43.0144   36.1668   39.6252 H   0  0  0  0  0  0  0  0  0  0  0  0
   41.7013   35.1840   40.3027 H   0  0  0  0  0  0  0  0  0  0  0  0
   42.9994   34.5834   42.2372 H   0  0  0  0  0  0  0  0  0  0  0  0
   43.5532   36.2109   42.0077 H   0  0  0  0  0  0  0  0  0  0  0  0
   48.9488   35.7426   42.4810 H   0  0  0  0  0  0  0  0  0  0  0  0
   49.7774   35.3131   40.9462 H   0  0  0  0  0  0  0  0  0  0  0  0
   48.4672   36.5419   40.9462 H   0  0  0  0  0  0  0  0  0  0  0  0
   49.3760   33.0828   41.1028 H   0  0  0  0  0  0  0  0  0  0  0  0
   47.6893   32.4362   40.9104 H   0  0  0  0  0  0  0  0  0  0  0  0
   47.5243   34.6837   36.4859 H   0  0  0  0  0  0  0  0  0  0  0  0
   49.3267   32.7451   36.0595 H   0  0  0  0  0  0  0  0  0  0  0  0
   51.8912   32.6317   39.2001 H   0  0  0  0  0  0  0  0  0  0  0  0
   53.4521   30.6874   41.1128 H   0  0  0  0  0  0  0  0  0  0  0  0
   54.0546   29.8589   39.6373 H   0  0  0  0  0  0  0  0  0  0  0  0
   53.8272   31.6407   39.6373 H   0  0  0  0  0  0  0  0  0  0  0  0
   49.6639   28.3049   39.0017 H   0  0  0  0  0  0  0  0  0  0  0  0
  1 13  1  0
  1  3  1  0
  2  3  1  0
  2  7  2  0
  3  4  2  0
  4  5  1  0
  6  5  2  0
  7  6  1  0
  8 12  1  0
  8  2  1  0
  9  8  1  0
 10 11  1  0
 10  9  1  0
 11 12  1  0
 14  1  1  0
 15 14  1  0
 16 15  1  0
 17 16  2  0
 18 17  1  0
 18 19  2  0
 19 20  1  0
 19 15  1  0
 20 21  1  0
 21 22  2  0
 22 23  1  0
 24 22  1  0
 24 25  2  0
 26 24  1  0
 27 20  1  0
 27 26  1  0
 28 27  2  0
  1 29  1  6
  4 30  1  0
  6 31  1  0
  8 32  1  0
  9 33  1  0
  9 34  1  0
 10 35  1  0
 10 36  1  0
 11 37  1  0
 11 38  1  0
 12 39  1  0
 12 40  1  0
 13 41  1  0
 13 42  1  0
 13 43  1  0
 14 44  1  0
 14 45  1  0
 17 46  1  0
 18 47  1  0
 21 48  1  0
 23 49  1  0
 23 50  1  0
 23 51  1  0
 26 52  1  0
M  ISO  8  29   8  30  14  31  14  32  13  33  13  34  13  35  13  36  13
M  ISO  8  37  13  38  13  39  13  40  13  41   8  42   8  43   8  44   8
M  ISO  8  45   8  46  14  47  14  48  14  49   8  50   8  51   8  52   9
M  END
>  <minimizedAffinity>  (1) 
-5.45761204

>  <minimizedRMSD>  (1) 
2.65999103

$$$$
