
     RDKit          3D

 34 36  0  0  1  0  0  0  0  0999 V2000
   44.5160   33.9210   40.3490 N   0  0  0  0  0  0  0  0  0  0  0  0
   45.0600   33.0040   39.3820 C   0  0  0  0  0  0  0  0  0  0  0  0
   46.4580   33.2440   38.9770 C   0  0  0  0  0  0  0  0  0  0  0  0
   47.2010   34.0500   39.7590 O   0  0  0  0  0  0  0  0  0  0  0  0
   46.8210   34.1960   41.0510 C   0  0  0  0  0  0  0  0  0  0  0  0
   45.3880   34.6990   41.1880 C   0  0  2  0  0  0  0  0  0  0  0  0
   40.9290   33.2870   41.1920 C   0  0  0  0  0  0  0  0  0  0  0  0
   42.3080   33.0810   41.0660 C   0  0  0  0  0  0  0  0  0  0  0  0
   43.1150   34.0770   40.4940 C   0  0  0  0  0  0  0  0  0  0  0  0
   42.5080   35.2580   40.0610 N   0  0  0  0  0  0  0  0  0  0  0  0
   41.1640   35.4080   40.2070 C   0  0  0  0  0  0  0  0  0  0  0  0
   40.4030   34.4450   40.7570 N   0  0  0  0  0  0  0  0  0  0  0  0
   45.0370   34.7660   42.6160 C   0  0  0  0  0  0  0  0  0  0  0  0
   45.8220   34.7020   43.5270 O   0  0  0  0  0  0  0  0  0  0  0  0
   46.3040   33.8580   44.4710 C   0  0  0  0  0  0  0  0  0  0  0  0
   45.4720   33.9860   45.5960 C   0  0  0  0  0  0  0  0  0  0  0  0
   45.9310   33.1280   46.6080 C   0  0  0  0  0  0  0  0  0  0  0  0
   47.0130   32.5310   46.0340 N   0  0  0  0  0  0  0  0  0  0  0  0
   47.2310   32.9470   44.8050 N   0  0  0  0  0  0  0  0  0  0  0  0
   45.0025   31.9918   39.8088 H   0  0  0  0  0  0  0  0  0  0  0  0
   44.4596   33.1437   38.4709 H   0  0  0  0  0  0  0  0  0  0  0  0
   46.9621   32.2671   38.9371 H   0  0  0  0  0  0  0  0  0  0  0  0
   46.3849   33.7745   38.0162 H   0  0  0  0  0  0  0  0  0  0  0  0
   46.9017   33.2212   41.5542 H   0  0  0  0  0  0  0  0  0  0  0  0
   47.4823   34.9457   41.5099 H   0  0  0  0  0  0  0  0  0  0  0  0
   45.2693   35.7279   40.8176 H   0  0  0  0  0  0  0  0  0  0  0  0
   40.2867   32.5142   41.6395 H   0  0  0  0  0  0  0  0  0  0  0  0
   42.7585   32.1400   41.4147 H   0  0  0  0  0  0  0  0  0  0  0  0
   40.6879   36.3395   39.8670 H   0  0  0  0  0  0  0  0  0  0  0  0
   44.5175   35.7270   42.7446 H   0  0  0  0  0  0  0  0  0  0  0  0
   44.5179   33.8036   42.7360 H   0  0  0  0  0  0  0  0  0  0  0  0
   44.6000   34.6523   45.6717 H   0  0  0  0  0  0  0  0  0  0  0  0
   45.5186   32.9753   47.6163 H   0  0  0  0  0  0  0  0  0  0  0  0
   47.5973   31.8296   46.5109 H   0  0  0  0  0  0  0  0  0  0  0  0
  1  9  1  0
  1  6  1  0
  2  1  1  0
  3  2  1  0
  3  4  1  0
  4  5  1  0
  5  6  1  0
  6 13  1  0
  8  7  2  0
  9  8  1  0
 10 11  1  0
 10  9  2  0
 11 12  2  0
 12  7  1  0
 13 14  1  0
 14 15  1  0
 15 19  2  0
 15 16  1  0
 16 17  2  0
 18 17  1  0
 19 18  1  0
  2 20  1  0
  2 21  1  0
  3 22  1  0
  3 23  1  0
  5 24  1  0
  5 25  1  0
  6 26  1  6
  7 27  1  0
  8 28  1  0
 11 29  1  0
 13 30  1  0
 13 31  1  0
 16 32  1  0
 17 33  1  0
 18 34  1  0
M  ISO  8  20  13  21  13  22  13  23  13  24  13  25  13  26  13  27  14
M  ISO  7  28  14  29  14  30   8  31   8  32  14  33  14  34   9
M  END
>  <minimizedAffinity>  (1) 
-4.48975086

>  <minimizedRMSD>  (1) 
5.13095236

$$$$
