
     RDKit          3D

 53 57  0  0  1  0  0  0  0  0999 V2000
   44.8480   33.2180   40.5830 O   0  0  0  0  0  0  0  0  0  0  0  0
   44.1840   33.2060   42.7530 N   0  0  0  0  0  0  0  0  0  0  0  0
   44.7830   34.2360   43.5570 C   0  0  0  0  0  0  0  0  0  0  0  0
   45.3930   35.1900   42.5320 C   0  0  0  0  0  0  0  0  0  0  0  0
   44.2250   35.2270   41.5540 C   0  0  0  0  0  0  0  0  0  0  0  0
   43.9200   33.7660   41.4360 C   0  0  1  0  0  0  0  0  0  0  0  0
   42.5720   33.5850   41.0150 N   0  0  0  0  0  0  0  0  0  0  0  0
   41.7180   32.7540   41.6730 C   0  0  0  0  0  0  0  0  0  0  0  0
   40.5040   32.7810   41.0490 N   0  0  0  0  0  0  0  0  0  0  0  0
   40.6220   33.6380   40.0000 C   0  0  0  0  0  0  0  0  0  0  0  0
   39.7080   34.0300   39.0520 C   0  0  0  0  0  0  0  0  0  0  0  0
   38.5220   33.6080   39.0190 O   0  0  0  0  0  0  0  0  0  0  0  0
   40.0410   34.9130   38.0730 N   0  0  0  0  0  0  0  0  0  0  0  0
   41.3270   35.3540   38.1270 C   0  0  0  0  0  0  0  0  0  0  0  0
   41.8200   36.2920   37.1560 N   0  0  0  0  0  0  0  0  0  0  0  0
   42.2460   34.9870   39.0470 N   0  0  0  0  0  0  0  0  0  0  0  0
   41.9000   34.1140   40.0070 C   0  0  0  0  0  0  0  0  0  0  0  0
   45.3840   33.8160   39.6240 C   0  0  0  0  0  0  0  0  0  0  0  0
   47.7330   33.7790   38.8910 N   0  0  0  0  0  0  0  0  0  0  0  0
   48.4970   34.0610   37.7070 C   0  0  0  0  0  0  0  0  0  0  0  0
   48.1510   33.2200   36.5370 C   0  0  0  0  0  0  0  0  0  0  0  0
   46.9590   32.5920   36.5390 O   0  0  0  0  0  0  0  0  0  0  0  0
   46.0210   33.0850   37.3700 C   0  0  0  0  0  0  0  0  0  0  0  0
   46.4330   33.1310   38.8380 C   0  0  2  0  0  0  0  0  0  0  0  0
   49.1250   35.7650   41.7570 C   0  0  0  0  0  0  0  0  0  0  0  0
   48.6360   35.4230   40.5110 C   0  0  0  0  0  0  0  0  0  0  0  0
   48.2340   34.1350   40.1720 C   0  0  0  0  0  0  0  0  0  0  0  0
   48.3500   33.1910   41.1650 N   0  0  0  0  0  0  0  0  0  0  0  0
   48.8340   33.5400   42.3910 C   0  0  0  0  0  0  0  0  0  0  0  0
   49.2100   34.8020   42.6670 N   0  0  0  0  0  0  0  0  0  0  0  0
   44.8282   32.4065   42.6710 H   0  0  0  0  0  0  0  0  0  0  0  0
   44.0241   34.7486   44.1663 H   0  0  0  0  0  0  0  0  0  0  0  0
   45.5255   33.8433   44.2672 H   0  0  0  0  0  0  0  0  0  0  0  0
   45.6087   36.1797   42.9609 H   0  0  0  0  0  0  0  0  0  0  0  0
   46.3645   34.8901   42.1121 H   0  0  0  0  0  0  0  0  0  0  0  0
   43.3715   35.7882   41.9621 H   0  0  0  0  0  0  0  0  0  0  0  0
   44.4429   35.7279   40.5992 H   0  0  0  0  0  0  0  0  0  0  0  0
   41.9659   32.1574   42.5633 H   0  0  0  0  0  0  0  0  0  0  0  0
   39.3751   35.2223   37.3506 H   0  0  0  0  0  0  0  0  0  0  0  0
   42.7952   36.6198   37.2055 H   0  0  0  0  0  0  0  0  0  0  0  0
   41.1981   36.6364   36.4107 H   0  0  0  0  0  0  0  0  0  0  0  0
   44.5798   34.0822   38.9222 H   0  0  0  0  0  0  0  0  0  0  0  0
   45.9200   34.6484   40.1034 H   0  0  0  0  0  0  0  0  0  0  0  0
   48.3317   35.1137   37.4342 H   0  0  0  0  0  0  0  0  0  0  0  0
   49.5463   33.8395   37.9519 H   0  0  0  0  0  0  0  0  0  0  0  0
   48.9280   32.4463   36.4492 H   0  0  0  0  0  0  0  0  0  0  0  0
   48.0860   33.9294   35.6988 H   0  0  0  0  0  0  0  0  0  0  0  0
   45.7823   34.1095   37.0485 H   0  0  0  0  0  0  0  0  0  0  0  0
   45.1610   32.4019   37.3092 H   0  0  0  0  0  0  0  0  0  0  0  0
   46.5297   32.1313   39.2867 H   0  0  0  0  0  0  0  0  0  0  0  0
   49.4323   36.7960   41.9864 H   0  0  0  0  0  0  0  0  0  0  0  0
   48.5605   36.2105   39.7467 H   0  0  0  0  0  0  0  0  0  0  0  0
   48.9191   32.7713   43.1732 H   0  0  0  0  0  0  0  0  0  0  0  0
  2  3  1  0
  4  3  1  0
  5  4  1  0
  6  1  1  6
  6  5  1  0
  6  2  1  0
  7  6  1  0
  7  8  1  0
  9  8  2  0
 10 17  2  0
 10  9  1  0
 11 10  1  0
 12 11  2  0
 13 14  1  0
 13 11  1  0
 14 16  2  0
 15 14  1  0
 16 17  1  0
 17  7  1  0
 18  1  1  0
 19 27  1  0
 20 19  1  0
 21 22  1  0
 21 20  1  0
 22 23  1  0
 23 24  1  0
 24 19  1  0
 24 18  1  0
 25 30  2  0
 26 25  1  0
 27 26  2  0
 27 28  1  0
 28 29  2  0
 29 30  1  0
  2 31  1  0
  3 32  1  0
  3 33  1  0
  4 34  1  0
  4 35  1  0
  5 36  1  0
  5 37  1  0
  8 38  1  0
 13 39  1  0
 15 40  1  0
 15 41  1  0
 18 42  1  0
 18 43  1  0
 20 44  1  0
 20 45  1  0
 21 46  1  0
 21 47  1  0
 23 48  1  0
 23 49  1  0
 24 50  1  1
 25 51  1  0
 26 52  1  0
 29 53  1  0
M  ISO  8  31   5  32  13  33  13  34  13  35  13  36  13  37  13  38  14
M  ISO  8  39   9  42   8  43   8  44  13  45  13  46  13  47  13  48  13
M  ISO  5  49  13  50  13  51  14  52  14  53  14
M  END
>  <minimizedAffinity>  (1) 
-6.65868044

>  <minimizedRMSD>  (1) 
7.05603552

$$$$
