
     RDKit          3D

 53 57  0  0  1  0  0  0  0  0999 V2000
   45.8930   33.6450   40.2310 C   0  0  0  0  0  0  0  0  0  0  0  0
   43.7260   33.6670   41.3760 N   0  0  0  0  0  0  0  0  0  0  0  0
   42.4680   32.9690   41.3030 C   0  0  0  0  0  0  0  0  0  0  0  0
   41.7390   33.1500   40.0250 C   0  0  0  0  0  0  0  0  0  0  0  0
   42.4520   33.5530   38.9410 O   0  0  0  0  0  0  0  0  0  0  0  0
   43.7880   33.3600   39.0040 C   0  0  0  0  0  0  0  0  0  0  0  0
   44.4750   34.0270   40.1850 C   0  0  2  0  0  0  0  0  0  0  0  0
   45.4800   33.5100   44.6840 C   0  0  0  0  0  0  0  0  0  0  0  0
   44.9440   33.1510   43.4600 C   0  0  0  0  0  0  0  0  0  0  0  0
   44.2820   34.0330   42.6380 C   0  0  0  0  0  0  0  0  0  0  0  0
   44.1750   35.3260   43.0990 N   0  0  0  0  0  0  0  0  0  0  0  0
   44.7030   35.6740   44.3000 C   0  0  0  0  0  0  0  0  0  0  0  0
   45.3400   34.7730   45.0670 N   0  0  0  0  0  0  0  0  0  0  0  0
   46.7760   34.5060   40.4290 O   0  0  0  0  0  0  0  0  0  0  0  0
   48.7810   35.5610   40.6280 N   0  0  0  0  0  0  0  0  0  0  0  0
   49.3740   35.4320   41.9290 C   0  0  0  0  0  0  0  0  0  0  0  0
   48.5700   34.3200   42.6050 C   0  0  0  0  0  0  0  0  0  0  0  0
   48.5260   33.3500   41.4220 C   0  0  0  0  0  0  0  0  0  0  0  0
   48.1250   34.2770   40.3320 C   0  0  1  0  0  0  0  0  0  0  0  0
   48.5480   33.7780   39.0050 C   0  0  0  0  0  0  0  0  0  0  0  0
   48.4750   34.4770   37.8330 C   0  0  0  0  0  0  0  0  0  0  0  0
   48.9390   33.7330   36.8300 N   0  0  0  0  0  0  0  0  0  0  0  0
   49.3110   32.5460   37.3770 C   0  0  0  0  0  0  0  0  0  0  0  0
   49.8590   31.4310   36.7360 C   0  0  0  0  0  0  0  0  0  0  0  0
   50.1390   30.3580   37.5580 C   0  0  0  0  0  0  0  0  0  0  0  0
   49.9380   30.2780   38.9140 C   0  0  0  0  0  0  0  0  0  0  0  0
   49.3920   31.4140   39.4940 C   0  0  0  0  0  0  0  0  0  0  0  0
   49.0810   32.5310   38.7500 C   0  0  0  0  0  0  0  0  0  0  0  0
   46.1238   33.1737   39.2643 H   0  0  0  0  0  0  0  0  0  0  0  0
   45.9511   33.0194   41.1339 H   0  0  0  0  0  0  0  0  0  0  0  0
   42.6625   31.8949   41.4387 H   0  0  0  0  0  0  0  0  0  0  0  0
   41.8284   33.3927   42.0913 H   0  0  0  0  0  0  0  0  0  0  0  0
   41.2750   32.1852   39.7724 H   0  0  0  0  0  0  0  0  0  0  0  0
   41.0395   33.9764   40.2195 H   0  0  0  0  0  0  0  0  0  0  0  0
   43.9746   32.2777   39.0665 H   0  0  0  0  0  0  0  0  0  0  0  0
   44.2100   33.8224   38.0995 H   0  0  0  0  0  0  0  0  0  0  0  0
   44.4779   35.1236   40.0985 H   0  0  0  0  0  0  0  0  0  0  0  0
   46.0024   32.7765   45.3157 H   0  0  0  0  0  0  0  0  0  0  0  0
   45.0527   32.1081   43.1277 H   0  0  0  0  0  0  0  0  0  0  0  0
   44.6078   36.7119   44.6517 H   0  0  0  0  0  0  0  0  0  0  0  0
   48.0871   36.3222   40.6282 H   0  0  0  0  0  0  0  0  0  0  0  0
   50.4344   35.1511   41.8473 H   0  0  0  0  0  0  0  0  0  0  0  0
   49.3473   36.3735   42.4972 H   0  0  0  0  0  0  0  0  0  0  0  0
   49.0933   33.8953   43.4743 H   0  0  0  0  0  0  0  0  0  0  0  0
   47.5982   34.6127   43.0292 H   0  0  0  0  0  0  0  0  0  0  0  0
   49.5102   32.8977   41.2299 H   0  0  0  0  0  0  0  0  0  0  0  0
   47.8590   32.4862   41.5599 H   0  0  0  0  0  0  0  0  0  0  0  0
   48.0900   35.5025   37.7326 H   0  0  0  0  0  0  0  0  0  0  0  0
   49.0030   34.0034   35.8382 H   0  0  0  0  0  0  0  0  0  0  0  0
   50.0533   31.4102   35.6535 H   0  0  0  0  0  0  0  0  0  0  0  0
   50.5705   29.4696   37.0737 H   0  0  0  0  0  0  0  0  0  0  0  0
   50.1910   29.3802   39.4970 H   0  0  0  0  0  0  0  0  0  0  0  0
   49.2023   31.4230   40.5775 H   0  0  0  0  0  0  0  0  0  0  0  0
  1 14  1  0
  2 10  1  0
  3  2  1  0
  4  3  1  0
  5  6  1  0
  5  4  1  0
  6  7  1  0
  7  1  1  0
  7  2  1  0
  8 13  2  0
  9  8  1  0
 10 11  1  0
 10  9  2  0
 11 12  2  0
 12 13  1  0
 15 16  1  0
 16 17  1  0
 18 17  1  0
 19 14  1  6
 19 15  1  0
 19 18  1  0
 20 19  1  0
 21 20  2  0
 22 23  1  0
 22 21  1  0
 23 28  2  0
 24 23  1  0
 24 25  2  0
 25 26  1  0
 26 27  2  0
 28 20  1  0
 28 27  1  0
  1 29  1  0
  1 30  1  0
  3 31  1  0
  3 32  1  0
  4 33  1  0
  4 34  1  0
  6 35  1  0
  6 36  1  0
  7 37  1  6
  8 38  1  0
  9 39  1  0
 12 40  1  0
 15 41  1  0
 16 42  1  0
 16 43  1  0
 17 44  1  0
 17 45  1  0
 18 46  1  0
 18 47  1  0
 21 48  1  0
 22 49  1  0
 24 50  1  0
 25 51  1  0
 26 52  1  0
 27 53  1  0
M  ISO  8  29   8  30   8  31  13  32  13  33  13  34  13  35  13  36  13
M  ISO  8  37  13  38  14  39  14  40  14  41   5  42  13  43  13  44  13
M  ISO  8  45  13  46  13  47  13  48  14  49   9  50  14  51  14  52  14
M  ISO  1  53  14
M  END
>  <minimizedAffinity>  (1) 
-5.78476524

>  <minimizedRMSD>  (1) 
1.01160431

$$$$
