
     RDKit          3D

 46 49  0  0  1  0  0  0  0  0999 V2000
   43.7480   33.7860   41.4480 N   0  0  0  0  0  0  0  0  0  0  0  0
   42.4740   33.1210   41.3390 C   0  0  0  0  0  0  0  0  0  0  0  0
   41.7920   33.3190   40.0420 C   0  0  0  0  0  0  0  0  0  0  0  0
   42.5450   33.6890   38.9730 O   0  0  0  0  0  0  0  0  0  0  0  0
   43.8700   33.4460   39.0810 C   0  0  0  0  0  0  0  0  0  0  0  0
   44.5400   34.1140   40.2750 C   0  0  2  0  0  0  0  0  0  0  0  0
   45.4800   33.6240   44.7680 C   0  0  0  0  0  0  0  0  0  0  0  0
   44.9690   33.2710   43.5320 C   0  0  0  0  0  0  0  0  0  0  0  0
   44.2740   34.1450   42.7170 C   0  0  0  0  0  0  0  0  0  0  0  0
   44.1110   35.4200   43.2080 N   0  0  0  0  0  0  0  0  0  0  0  0
   44.6150   35.7630   44.4250 C   0  0  0  0  0  0  0  0  0  0  0  0
   45.2850   34.8720   45.1790 N   0  0  0  0  0  0  0  0  0  0  0  0
   45.9480   33.7100   40.3600 C   0  0  0  0  0  0  0  0  0  0  0  0
   46.8460   34.5590   40.5370 O   0  0  0  0  0  0  0  0  0  0  0  0
   48.8690   35.5890   40.7030 N   0  0  0  0  0  0  0  0  0  0  0  0
   49.4680   35.4710   42.0030 C   0  0  0  0  0  0  0  0  0  0  0  0
   48.6580   34.3750   42.6930 C   0  0  0  0  0  0  0  0  0  0  0  0
   48.5920   33.3900   41.5210 C   0  0  0  0  0  0  0  0  0  0  0  0
   48.1880   34.3170   40.4270 C   0  0  1  0  0  0  0  0  0  0  0  0
   48.5540   33.8290   39.0680 C   0  0  0  0  0  0  0  0  0  0  0  0
   48.3050   34.4250   37.8320 C   0  0  0  0  0  0  0  0  0  0  0  0
   48.8140   33.6380   36.8540 N   0  0  0  0  0  0  0  0  0  0  0  0
   49.3640   32.5820   37.4840 C   0  0  0  0  0  0  0  0  0  0  0  0
   49.2210   32.6740   38.8010 N   0  0  0  0  0  0  0  0  0  0  0  0
   42.6353   32.0423   41.4820 H   0  0  0  0  0  0  0  0  0  0  0  0
   41.8223   33.5620   42.1076 H   0  0  0  0  0  0  0  0  0  0  0  0
   41.3011   32.3694   39.7828 H   0  0  0  0  0  0  0  0  0  0  0  0
   41.1211   34.1737   40.2132 H   0  0  0  0  0  0  0  0  0  0  0  0
   44.0137   32.3591   39.1702 H   0  0  0  0  0  0  0  0  0  0  0  0
   44.3399   33.8699   38.1813 H   0  0  0  0  0  0  0  0  0  0  0  0
   44.5695   35.2095   40.1799 H   0  0  0  0  0  0  0  0  0  0  0  0
   46.0274   32.8983   45.3874 H   0  0  0  0  0  0  0  0  0  0  0  0
   45.1238   32.2407   43.1791 H   0  0  0  0  0  0  0  0  0  0  0  0
   44.4720   36.7875   44.7992 H   0  0  0  0  0  0  0  0  0  0  0  0
   46.0204   32.9977   41.1951 H   0  0  0  0  0  0  0  0  0  0  0  0
   46.1579   33.3396   39.3457 H   0  0  0  0  0  0  0  0  0  0  0  0
   48.1894   36.3630   40.6956 H   0  0  0  0  0  0  0  0  0  0  0  0
   50.5256   35.1803   41.9199 H   0  0  0  0  0  0  0  0  0  0  0  0
   49.4531   36.4191   42.5605 H   0  0  0  0  0  0  0  0  0  0  0  0
   49.1833   33.9534   43.5627 H   0  0  0  0  0  0  0  0  0  0  0  0
   47.6922   34.6839   43.1194 H   0  0  0  0  0  0  0  0  0  0  0  0
   49.5692   32.9255   41.3225 H   0  0  0  0  0  0  0  0  0  0  0  0
   47.9202   32.5324   41.6736 H   0  0  0  0  0  0  0  0  0  0  0  0
   47.7804   35.3793   37.6765 H   0  0  0  0  0  0  0  0  0  0  0  0
   49.8679   31.7488   36.9722 H   0  0  0  0  0  0  0  0  0  0  0  0
   49.5556   31.9921   39.4966 H   0  0  0  0  0  0  0  0  0  0  0  0
  1  9  1  0
  2  1  1  0
  3  2  1  0
  4  5  1  0
  4  3  1  0
  5  6  1  0
  6 13  1  0
  6  1  1  0
  7 12  2  0
  8  7  1  0
  9 10  1  0
  9  8  2  0
 10 11  2  0
 11 12  1  0
 13 14  1  0
 15 16  1  0
 16 17  1  0
 18 17  1  0
 19 14  1  6
 19 15  1  0
 19 18  1  0
 20 19  1  0
 21 20  2  0
 22 23  2  0
 22 21  1  0
 23 24  1  0
 24 20  1  0
  2 25  1  0
  2 26  1  0
  3 27  1  0
  3 28  1  0
  5 29  1  0
  5 30  1  0
  6 31  1  6
  7 32  1  0
  8 33  1  0
 11 34  1  0
 13 35  1  0
 13 36  1  0
 15 37  1  0
 16 38  1  0
 16 39  1  0
 17 40  1  0
 17 41  1  0
 18 42  1  0
 18 43  1  0
 21 44  1  0
 23 45  1  0
 24 46  1  0
M  ISO  8  25  13  26  13  27  13  28  13  29  13  30  13  31  13  32  14
M  ISO  8  33  14  34  14  35   8  36   8  37   5  38  13  39  13  40  13
M  ISO  6  41  13  42  13  43  13  44  14  45  14  46   9
M  END
>  <minimizedAffinity>  (1) 
-5.56836748

>  <minimizedRMSD>  (1) 
0.764654458

$$$$
