
     RDKit          3D

 47 50  0  0  1  0  0  0  0  0999 V2000
   45.8470   33.7440   40.3600 C   0  0  0  0  0  0  0  0  0  0  0  0
   43.6670   33.8860   41.4790 N   0  0  0  0  0  0  0  0  0  0  0  0
   42.3630   33.2770   41.3730 C   0  0  0  0  0  0  0  0  0  0  0  0
   41.6700   33.5220   40.0910 C   0  0  0  0  0  0  0  0  0  0  0  0
   42.4340   33.8530   39.0130 O   0  0  0  0  0  0  0  0  0  0  0  0
   43.7440   33.5630   39.1070 C   0  0  0  0  0  0  0  0  0  0  0  0
   44.4530   34.2000   40.3000 C   0  0  2  0  0  0  0  0  0  0  0  0
   45.4720   33.6060   44.7450 C   0  0  0  0  0  0  0  0  0  0  0  0
   44.9300   33.2960   43.5100 C   0  0  0  0  0  0  0  0  0  0  0  0
   44.2250   34.1980   42.7460 C   0  0  0  0  0  0  0  0  0  0  0  0
   44.0790   35.4550   43.2850 N   0  0  0  0  0  0  0  0  0  0  0  0
   44.6100   35.7580   44.4970 C   0  0  0  0  0  0  0  0  0  0  0  0
   45.2950   34.8380   45.2060 N   0  0  0  0  0  0  0  0  0  0  0  0
   46.7700   34.5530   40.6040 O   0  0  0  0  0  0  0  0  0  0  0  0
   48.8200   35.5420   40.6770 N   0  0  0  0  0  0  0  0  0  0  0  0
   49.4510   35.4780   41.9650 C   0  0  0  0  0  0  0  0  0  0  0  0
   48.6350   34.4280   42.7250 C   0  0  0  0  0  0  0  0  0  0  0  0
   48.5180   33.4020   41.6040 C   0  0  0  0  0  0  0  0  0  0  0  0
   48.1020   34.2780   40.4740 C   0  0  1  0  0  0  0  0  0  0  0  0
   48.4910   33.6970   39.1610 C   0  0  0  0  0  0  0  0  0  0  0  0
   48.3150   34.3860   37.9740 C   0  0  0  0  0  0  0  0  0  0  0  0
   48.7100   33.7510   36.8170 C   0  0  0  0  0  0  0  0  0  0  0  0
   49.2490   32.5070   36.8150 N   0  0  0  0  0  0  0  0  0  0  0  0
   49.4080   31.8620   37.9770 C   0  0  0  0  0  0  0  0  0  0  0  0
   49.0320   32.4580   39.1210 N   0  0  0  0  0  0  0  0  0  0  0  0
   46.0734   33.2931   39.3826 H   0  0  0  0  0  0  0  0  0  0  0  0
   45.8545   33.0868   41.2421 H   0  0  0  0  0  0  0  0  0  0  0  0
   42.4811   32.1904   41.4965 H   0  0  0  0  0  0  0  0  0  0  0  0
   41.7409   33.7361   42.1554 H   0  0  0  0  0  0  0  0  0  0  0  0
   41.1191   32.6051   39.8345 H   0  0  0  0  0  0  0  0  0  0  0  0
   41.0485   34.4106   40.2755 H   0  0  0  0  0  0  0  0  0  0  0  0
   43.8485   32.4710   39.1890 H   0  0  0  0  0  0  0  0  0  0  0  0
   44.2198   33.9759   38.2053 H   0  0  0  0  0  0  0  0  0  0  0  0
   44.5182   35.2949   40.2166 H   0  0  0  0  0  0  0  0  0  0  0  0
   46.0306   32.8567   45.3250 H   0  0  0  0  0  0  0  0  0  0  0  0
   45.0697   32.2773   43.1192 H   0  0  0  0  0  0  0  0  0  0  0  0
   44.4794   36.7702   44.9073 H   0  0  0  0  0  0  0  0  0  0  0  0
   48.1583   36.3308   40.6484 H   0  0  0  0  0  0  0  0  0  0  0  0
   50.5011   35.1643   41.8709 H   0  0  0  0  0  0  0  0  0  0  0  0
   49.4695   36.4517   42.4765 H   0  0  0  0  0  0  0  0  0  0  0  0
   49.1746   34.0322   43.5980 H   0  0  0  0  0  0  0  0  0  0  0  0
   47.6879   34.7757   43.1633 H   0  0  0  0  0  0  0  0  0  0  0  0
   49.4808   32.9096   41.4025 H   0  0  0  0  0  0  0  0  0  0  0  0
   47.8302   32.5699   41.8152 H   0  0  0  0  0  0  0  0  0  0  0  0
   47.8791   35.3958   37.9550 H   0  0  0  0  0  0  0  0  0  0  0  0
   48.5831   34.2736   35.8574 H   0  0  0  0  0  0  0  0  0  0  0  0
   49.8431   30.8519   37.9952 H   0  0  0  0  0  0  0  0  0  0  0  0
  1 14  1  0
  2 10  1  0
  3  2  1  0
  4  3  1  0
  5  6  1  0
  5  4  1  0
  6  7  1  0
  7  1  1  0
  7  2  1  0
  8 13  2  0
  9  8  1  0
 10 11  1  0
 10  9  2  0
 11 12  2  0
 12 13  1  0
 15 16  1  0
 16 17  1  0
 18 17  1  0
 19 14  1  6
 19 15  1  0
 19 18  1  0
 20 19  1  0
 21 20  2  0
 22 21  1  0
 23 22  2  0
 23 24  1  0
 24 25  2  0
 25 20  1  0
  1 26  1  0
  1 27  1  0
  3 28  1  0
  3 29  1  0
  4 30  1  0
  4 31  1  0
  6 32  1  0
  6 33  1  0
  7 34  1  6
  8 35  1  0
  9 36  1  0
 12 37  1  0
 15 38  1  0
 16 39  1  0
 16 40  1  0
 17 41  1  0
 17 42  1  0
 18 43  1  0
 18 44  1  0
 21 45  1  0
 22 46  1  0
 24 47  1  0
M  ISO  8  26   8  27   8  28  13  29  13  30  13  31  13  32  13  33  13
M  ISO  8  34  13  35  14  36  14  37  14  38   5  39  13  40  13  41  13
M  ISO  6  42  13  43  13  44  13  45  14  46  14  47  14
M  END
>  <minimizedAffinity>  (1) 
-5.63472033

>  <minimizedRMSD>  (1) 
0.81969291

$$$$
