
     RDKit          3D

 45 48  0  0  1  0  0  0  0  0999 V2000
   45.5690   34.3320   42.2590 C   0  0  0  0  0  0  0  0  0  0  0  0
   46.9690   34.3220   42.3140 C   0  0  0  0  0  0  0  0  0  0  0  0
   47.5830   33.9360   43.5270 C   0  0  0  0  0  0  0  0  0  0  0  0
   46.8250   33.5960   44.5730 N   0  0  0  0  0  0  0  0  0  0  0  0
   45.4770   33.6080   44.5070 C   0  0  0  0  0  0  0  0  0  0  0  0
   44.8820   33.9690   43.3740 N   0  0  0  0  0  0  0  0  0  0  0  0
   44.7950   34.7430   41.1450 C   0  0  0  0  0  0  0  0  0  0  0  0
   44.2450   33.5010   40.3750 C   0  0  0  0  0  0  0  0  0  0  0  0
   43.2300   34.1960   39.4670 C   0  0  0  0  0  0  0  0  0  0  0  0
   42.7330   35.3580   40.2910 C   0  0  0  0  0  0  0  0  0  0  0  0
   43.4920   35.3290   41.5990 C   0  0  0  0  0  0  0  0  0  0  0  0
   47.7780   34.7150   41.1510 C   0  0  1  0  0  0  0  0  0  0  0  0
   48.8380   35.6720   41.4870 C   0  0  0  0  0  0  0  0  0  0  0  0
   48.2770   33.4570   40.4710 C   0  0  0  0  0  0  0  0  0  0  0  0
   47.9580   33.4140   39.0770 N   0  0  0  0  0  0  0  0  0  0  0  0
   48.3660   34.4940   38.4150 N   0  0  0  0  0  0  0  0  0  0  0  0
   48.0350   34.3860   37.1210 C   0  0  0  0  0  0  0  0  0  0  0  0
   47.3900   33.1880   36.9490 C   0  0  0  0  0  0  0  0  0  0  0  0
   47.3570   32.5940   38.2050 C   0  0  0  0  0  0  0  0  0  0  0  0
   46.7720   31.3160   38.5610 C   0  0  0  0  0  0  0  0  0  0  0  0
   47.4010   30.2810   39.2120 C   0  0  0  0  0  0  0  0  0  0  0  0
   46.1050   28.9710   39.3160 S   0  0  0  0  0  0  0  0  0  0  0  0
   44.8660   30.1120   38.4120 C   0  0  0  0  0  0  0  0  0  0  0  0
   45.5210   31.0870   38.2270 N   0  0  0  0  0  0  0  0  0  0  0  0
   48.6797   33.9157   43.6093 H   0  0  0  0  0  0  0  0  0  0  0  0
   44.8760   33.3217   45.3827 H   0  0  0  0  0  0  0  0  0  0  0  0
   45.4483   35.4148   40.5688 H   0  0  0  0  0  0  0  0  0  0  0  0
   45.0325   32.9943   39.7978 H   0  0  0  0  0  0  0  0  0  0  0  0
   43.8352   32.7009   41.0090 H   0  0  0  0  0  0  0  0  0  0  0  0
   42.4036   33.5159   39.2129 H   0  0  0  0  0  0  0  0  0  0  0  0
   43.6688   34.5146   38.5100 H   0  0  0  0  0  0  0  0  0  0  0  0
   42.9246   36.3043   39.7639 H   0  0  0  0  0  0  0  0  0  0  0  0
   41.6494   35.2816   40.4641 H   0  0  0  0  0  0  0  0  0  0  0  0
   42.9956   34.6882   42.3426 H   0  0  0  0  0  0  0  0  0  0  0  0
   43.5777   36.3039   42.1012 H   0  0  0  0  0  0  0  0  0  0  0  0
   47.1517   35.2713   40.4381 H   0  0  0  0  0  0  0  0  0  0  0  0
   48.9266   35.7520   42.5805 H   0  0  0  0  0  0  0  0  0  0  0  0
   49.7929   35.3241   41.0662 H   0  0  0  0  0  0  0  0  0  0  0  0
   48.5892   36.6574   41.0662 H   0  0  0  0  0  0  0  0  0  0  0  0
   49.3702   33.4077   40.5826 H   0  0  0  0  0  0  0  0  0  0  0  0
   47.7777   32.6022   40.9505 H   0  0  0  0  0  0  0  0  0  0  0  0
   48.2437   35.1273   36.3355 H   0  0  0  0  0  0  0  0  0  0  0  0
   46.9831   32.7815   36.0113 H   0  0  0  0  0  0  0  0  0  0  0  0
   48.4355   30.2427   39.5841 H   0  0  0  0  0  0  0  0  0  0  0  0
   43.8194   29.9173   38.1350 H   0  0  0  0  0  0  0  0  0  0  0  0
  1  2  1  0
  1  6  2  0
  2  3  2  0
  3  4  1  0
  5  4  2  0
  6  5  1  0
  7 11  1  0
  7  1  1  0
  8  7  1  0
  9 10  1  0
  9  8  1  0
 10 11  1  0
 12 13  1  0
 12  2  1  0
 14 12  1  0
 15 14  1  0
 16 15  1  0
 17 16  2  0
 18 17  1  0
 18 19  2  0
 19 20  1  0
 19 15  1  0
 20 21  2  0
 21 22  1  0
 23 22  1  0
 24 23  2  0
 24 20  1  0
  3 25  1  0
  5 26  1  0
  7 27  1  0
  8 28  1  0
  8 29  1  0
  9 30  1  0
  9 31  1  0
 10 32  1  0
 10 33  1  0
 11 34  1  0
 11 35  1  0
 12 36  1  6
 13 37  1  0
 13 38  1  0
 13 39  1  0
 14 40  1  0
 14 41  1  0
 17 42  1  0
 18 43  1  0
 21 44  1  0
 23 45  1  0
M  ISO  8  25  14  26  14  27  13  28  13  29  13  30  13  31  13  32  13
M  ISO  8  33  13  34  13  35  13  36   8  37   8  38   8  39   8  40   8
M  ISO  5  41   8  42  14  43  14  44  14  45  14
M  END
>  <minimizedAffinity>  (1) 
-5.03650856

>  <minimizedRMSD>  (1) 
1.10174501

$$$$
