
     RDKit          3D

 46 49  0  0  1  0  0  0  0  0999 V2000
   43.6720   33.7280   41.4530 N   0  0  0  0  0  0  0  0  0  0  0  0
   42.4110   33.0450   41.3760 C   0  0  0  0  0  0  0  0  0  0  0  0
   41.7050   33.2010   40.0810 C   0  0  0  0  0  0  0  0  0  0  0  0
   42.4500   33.5050   39.0030 O   0  0  0  0  0  0  0  0  0  0  0  0
   43.7770   33.3140   39.1010 C   0  0  0  0  0  0  0  0  0  0  0  0
   44.4450   34.0400   40.2610 C   0  0  2  0  0  0  0  0  0  0  0  0
   45.4680   33.6470   44.7510 C   0  0  0  0  0  0  0  0  0  0  0  0
   44.9420   33.2550   43.5280 C   0  0  0  0  0  0  0  0  0  0  0  0
   44.2160   34.1240   42.7100 C   0  0  0  0  0  0  0  0  0  0  0  0
   44.0380   35.4070   43.1730 N   0  0  0  0  0  0  0  0  0  0  0  0
   44.5640   35.7680   44.3780 C   0  0  0  0  0  0  0  0  0  0  0  0
   45.2600   34.9010   45.1400 N   0  0  0  0  0  0  0  0  0  0  0  0
   45.8690   33.6340   40.3430 C   0  0  0  0  0  0  0  0  0  0  0  0
   46.7560   34.5120   40.3860 O   0  0  0  0  0  0  0  0  0  0  0  0
   48.7870   35.5180   40.5410 N   0  0  0  0  0  0  0  0  0  0  0  0
   49.4020   35.3790   41.8320 C   0  0  0  0  0  0  0  0  0  0  0  0
   48.5790   34.3010   42.5260 C   0  0  0  0  0  0  0  0  0  0  0  0
   48.5050   33.3270   41.3440 C   0  0  0  0  0  0  0  0  0  0  0  0
   48.0960   34.2470   40.2420 C   0  0  1  0  0  0  0  0  0  0  0  0
   48.4920   33.7380   38.8950 C   0  0  0  0  0  0  0  0  0  0  0  0
   47.5220   33.6720   37.7850 C   0  0  0  0  0  0  0  0  0  0  0  0
   48.6570   34.6720   37.7530 C   0  0  0  0  0  0  0  0  0  0  0  0
   42.5904   31.9726   41.5425 H   0  0  0  0  0  0  0  0  0  0  0  0
   41.7633   33.4967   42.1418 H   0  0  0  0  0  0  0  0  0  0  0  0
   41.1901   32.2523   39.8694 H   0  0  0  0  0  0  0  0  0  0  0  0
   41.0464   34.0706   40.2224 H   0  0  0  0  0  0  0  0  0  0  0  0
   43.9591   32.2360   39.2222 H   0  0  0  0  0  0  0  0  0  0  0  0
   44.2173   33.7292   38.1824 H   0  0  0  0  0  0  0  0  0  0  0  0
   44.4562   35.1325   40.1330 H   0  0  0  0  0  0  0  0  0  0  0  0
   46.0374   32.9442   45.3769 H   0  0  0  0  0  0  0  0  0  0  0  0
   45.1029   32.2207   43.1899 H   0  0  0  0  0  0  0  0  0  0  0  0
   44.4161   36.7966   44.7387 H   0  0  0  0  0  0  0  0  0  0  0  0
   45.9766   33.0253   41.2529 H   0  0  0  0  0  0  0  0  0  0  0  0
   46.0502   33.1295   39.3824 H   0  0  0  0  0  0  0  0  0  0  0  0
   48.1084   36.2927   40.5558 H   0  0  0  0  0  0  0  0  0  0  0  0
   50.4513   35.0645   41.7321 H   0  0  0  0  0  0  0  0  0  0  0  0
   49.4171   36.3241   42.3946 H   0  0  0  0  0  0  0  0  0  0  0  0
   49.0985   33.8694   43.3942 H   0  0  0  0  0  0  0  0  0  0  0  0
   47.6200   34.6192   42.9607 H   0  0  0  0  0  0  0  0  0  0  0  0
   49.4815   32.8629   41.1413 H   0  0  0  0  0  0  0  0  0  0  0  0
   47.8258   32.4758   41.4997 H   0  0  0  0  0  0  0  0  0  0  0  0
   49.1398   32.9993   39.3896 H   0  0  0  0  0  0  0  0  0  0  0  0
   47.5260   32.8115   37.0998 H   0  0  0  0  0  0  0  0  0  0  0  0
   46.4268   33.7315   37.7010 H   0  0  0  0  0  0  0  0  0  0  0  0
   49.4902   34.5402   37.0470 H   0  0  0  0  0  0  0  0  0  0  0  0
   48.7374   35.7630   37.6380 H   0  0  0  0  0  0  0  0  0  0  0  0
  1  9  1  0
  2  1  1  0
  3  2  1  0
  4  5  1  0
  4  3  1  0
  5  6  1  0
  6 13  1  0
  6  1  1  0
  7 12  2  0
  8  7  1  0
  9 10  1  0
  9  8  2  0
 10 11  2  0
 11 12  1  0
 13 14  1  0
 15 16  1  0
 16 17  1  0
 18 17  1  0
 19 14  1  6
 19 15  1  0
 19 18  1  0
 20 19  1  0
 21 20  1  0
 22 21  1  0
 22 20  1  0
  2 23  1  0
  2 24  1  0
  3 25  1  0
  3 26  1  0
  5 27  1  0
  5 28  1  0
  6 29  1  6
  7 30  1  0
  8 31  1  0
 11 32  1  0
 13 33  1  0
 13 34  1  0
 15 35  1  0
 16 36  1  0
 16 37  1  0
 17 38  1  0
 17 39  1  0
 18 40  1  0
 18 41  1  0
 20 42  1  0
 21 43  1  0
 21 44  1  0
 22 45  1  0
 22 46  1  0
M  ISO  8  23  13  24  13  25  13  26  13  27  13  28  13  29  13  30  14
M  ISO  8  31  14  32  14  33   8  34   8  35   5  36  13  37  13  38  13
M  ISO  8  39  13  40  13  41  13  42  13  43  13  44  13  45  13  46  13
M  END
>  <minimizedAffinity>  (1) 
-5.03631115

>  <minimizedRMSD>  (1) 
0.706143737

$$$$
