
     RDKit          3D

 36 38  0  0  0  0  0  0  0  0999 V2000
   45.2690   34.5960   45.0410 C   0  0  0  0  0  0  0  0  0  0  0  0
   45.9310   34.1690   43.8640 C   0  0  0  0  0  0  0  0  0  0  0  0
   46.6890   32.9980   43.9510 C   0  0  0  0  0  0  0  0  0  0  0  0
   46.7630   32.3300   45.1280 N   0  0  0  0  0  0  0  0  0  0  0  0
   46.1020   32.7900   46.2290 C   0  0  0  0  0  0  0  0  0  0  0  0
   45.3640   33.9110   46.1870 N   0  0  0  0  0  0  0  0  0  0  0  0
   47.4260   32.4070   42.8520 C   0  0  0  0  0  0  0  0  0  0  0  0
   46.7630   31.4860   42.0270 C   0  0  0  0  0  0  0  0  0  0  0  0
   47.6020   30.9920   41.0990 N   0  0  0  0  0  0  0  0  0  0  0  0
   48.8140   31.5530   41.2750 C   0  0  0  0  0  0  0  0  0  0  0  0
   50.0500   31.4700   40.6660 C   0  0  0  0  0  0  0  0  0  0  0  0
   51.1020   32.2330   41.1370 C   0  0  0  0  0  0  0  0  0  0  0  0
   50.9570   33.0890   42.2120 C   0  0  0  0  0  0  0  0  0  0  0  0
   49.7310   33.2110   42.8650 C   0  0  0  0  0  0  0  0  0  0  0  0
   48.7080   32.4150   42.3420 C   0  0  0  0  0  0  0  0  0  0  0  0
   45.7950   34.9710   42.6260 C   0  0  0  0  0  0  0  0  0  0  0  0
   47.1370   35.3170   42.0620 C   0  0  0  0  0  0  0  0  0  0  0  0
   45.0960   36.2860   43.0220 C   0  0  0  0  0  0  0  0  0  0  0  0
   44.8730   34.2790   41.6810 C   0  0  0  0  0  0  0  0  0  0  0  0
   44.6620   35.5129   45.0126 H   0  0  0  0  0  0  0  0  0  0  0  0
   46.1752   32.2298   47.1728 H   0  0  0  0  0  0  0  0  0  0  0  0
   45.7036   31.2066   42.1255 H   0  0  0  0  0  0  0  0  0  0  0  0
   47.3586   30.3007   40.3752 H   0  0  0  0  0  0  0  0  0  0  0  0
   50.1975   30.7981   39.8077 H   0  0  0  0  0  0  0  0  0  0  0  0
   52.0816   32.1567   40.6424 H   0  0  0  0  0  0  0  0  0  0  0  0
   51.8181   33.6806   42.5564 H   0  0  0  0  0  0  0  0  0  0  0  0
   49.5807   33.8811   43.7243 H   0  0  0  0  0  0  0  0  0  0  0  0
   47.8444   35.4994   42.8844 H   0  0  0  0  0  0  0  0  0  0  0  0
   47.5008   34.4833   41.4435 H   0  0  0  0  0  0  0  0  0  0  0  0
   47.0524   36.2227   41.4435 H   0  0  0  0  0  0  0  0  0  0  0  0
   45.0548   36.3636   44.1185 H   0  0  0  0  0  0  0  0  0  0  0  0
   45.6602   37.1381   42.6151 H   0  0  0  0  0  0  0  0  0  0  0  0
   44.0741   36.2950   42.6151 H   0  0  0  0  0  0  0  0  0  0  0  0
   44.1204   33.7141   42.2506 H   0  0  0  0  0  0  0  0  0  0  0  0
   44.3700   35.0244   41.0475 H   0  0  0  0  0  0  0  0  0  0  0  0
   45.4483   33.5878   41.0475 H   0  0  0  0  0  0  0  0  0  0  0  0
  1  6  2  0
  2  3  2  0
  2  1  1  0
  3  4  1  0
  4  5  2  0
  6  5  1  0
  7  3  1  0
  8  7  2  0
  9 10  1  0
  9  8  1  0
 10 15  2  0
 11 12  2  0
 11 10  1  0
 12 13  1  0
 13 14  2  0
 15  7  1  0
 15 14  1  0
 16 18  1  0
 16  2  1  0
 17 16  1  0
 19 16  1  0
  1 20  1  0
  5 21  1  0
  8 22  1  0
  9 23  1  0
 11 24  1  0
 12 25  1  0
 13 26  1  0
 14 27  1  0
 17 28  1  0
 17 29  1  0
 17 30  1  0
 18 31  1  0
 18 32  1  0
 18 33  1  0
 19 34  1  0
 19 35  1  0
 19 36  1  0
M  ISO  8  20  14  21  14  22  14  23   9  24  14  25  14  26  14  27  14
M  ISO  8  28   8  29   8  30   8  31   8  32   8  33   8  34   8  35   8
M  ISO  1  36   8
M  END
>  <minimizedAffinity>  (1) 
-4.7395854

>  <minimizedRMSD>  (1) 
0.782551289

$$$$
