
     RDKit          3D

 53 56  0  0  1  0  0  0  0  0999 V2000
   47.8310   34.7540   41.1880 C   0  0  1  0  0  0  0  0  0  0  0  0
   45.6260   34.1880   42.2180 C   0  0  0  0  0  0  0  0  0  0  0  0
   47.0180   34.2820   42.3120 C   0  0  0  0  0  0  0  0  0  0  0  0
   47.6230   33.9250   43.5350 C   0  0  0  0  0  0  0  0  0  0  0  0
   46.8630   33.5110   44.5560 N   0  0  0  0  0  0  0  0  0  0  0  0
   45.5210   33.4230   44.4510 C   0  0  0  0  0  0  0  0  0  0  0  0
   44.9350   33.7560   43.3040 N   0  0  0  0  0  0  0  0  0  0  0  0
   44.8510   34.5550   41.0810 C   0  0  0  0  0  0  0  0  0  0  0  0
   44.0750   33.3250   40.5280 C   0  0  0  0  0  0  0  0  0  0  0  0
   43.1030   34.0420   39.5780 C   0  0  0  0  0  0  0  0  0  0  0  0
   42.8710   35.3890   40.2180 C   0  0  0  0  0  0  0  0  0  0  0  0
   43.6830   35.3940   41.4990 C   0  0  0  0  0  0  0  0  0  0  0  0
   48.8470   35.7550   41.5700 C   0  0  0  0  0  0  0  0  0  0  0  0
   48.3720   33.5510   40.4550 C   0  0  0  0  0  0  0  0  0  0  0  0
   47.9920   33.5250   39.0740 N   0  0  0  0  0  0  0  0  0  0  0  0
   48.5010   34.5390   38.3590 N   0  0  0  0  0  0  0  0  0  0  0  0
   48.0940   34.4280   37.0880 C   0  0  0  0  0  0  0  0  0  0  0  0
   47.3050   33.3170   36.9740 C   0  0  0  0  0  0  0  0  0  0  0  0
   47.2700   32.7860   38.2320 C   0  0  0  0  0  0  0  0  0  0  0  0
   46.6090   31.6460   38.6780 N   0  0  0  0  0  0  0  0  0  0  0  0
   45.4950   31.1500   37.8870 C   0  0  0  0  0  0  0  0  0  0  0  0
   45.6840   29.7260   37.4290 C   0  0  0  0  0  0  0  0  0  0  0  0
   45.6930   28.9030   38.6110 N   0  0  0  0  0  0  0  0  0  0  0  0
   45.7910   29.6350   39.8350 C   0  0  0  0  0  0  0  0  0  0  0  0
   46.7650   30.7880   39.7940 C   0  0  0  0  0  0  0  0  0  0  0  0
   47.1971   35.3229   40.4919 H   0  0  0  0  0  0  0  0  0  0  0  0
   48.7153   33.9866   43.6493 H   0  0  0  0  0  0  0  0  0  0  0  0
   44.9178   33.0797   45.3044 H   0  0  0  0  0  0  0  0  0  0  0  0
   45.5598   35.0260   40.3841 H   0  0  0  0  0  0  0  0  0  0  0  0
   44.7370   32.6306   39.9898 H   0  0  0  0  0  0  0  0  0  0  0  0
   43.6003   32.6902   41.2907 H   0  0  0  0  0  0  0  0  0  0  0  0
   42.1588   33.4838   39.4943 H   0  0  0  0  0  0  0  0  0  0  0  0
   43.5039   34.1281   38.5573 H   0  0  0  0  0  0  0  0  0  0  0  0
   43.2103   36.1930   39.5483 H   0  0  0  0  0  0  0  0  0  0  0  0
   41.8030   35.5585   40.4196 H   0  0  0  0  0  0  0  0  0  0  0  0
   43.1306   34.9356   42.3325 H   0  0  0  0  0  0  0  0  0  0  0  0
   43.9460   36.3946   41.8726 H   0  0  0  0  0  0  0  0  0  0  0  0
   48.9082   35.8153   42.6666 H   0  0  0  0  0  0  0  0  0  0  0  0
   49.8252   35.4579   41.1640 H   0  0  0  0  0  0  0  0  0  0  0  0
   48.5645   36.7375   41.1640 H   0  0  0  0  0  0  0  0  0  0  0  0
   49.4701   33.5662   40.5171 H   0  0  0  0  0  0  0  0  0  0  0  0
   47.9486   32.6547   40.9318 H   0  0  0  0  0  0  0  0  0  0  0  0
   48.3519   35.1171   36.2703 H   0  0  0  0  0  0  0  0  0  0  0  0
   46.8085   32.9354   36.0696 H   0  0  0  0  0  0  0  0  0  0  0  0
   44.5811   31.2034   38.4969 H   0  0  0  0  0  0  0  0  0  0  0  0
   45.4260   31.7782   36.9867 H   0  0  0  0  0  0  0  0  0  0  0  0
   44.8569   29.4287   36.7675 H   0  0  0  0  0  0  0  0  0  0  0  0
   46.6222   29.6153   36.8655 H   0  0  0  0  0  0  0  0  0  0  0  0
   44.8201   28.3566   38.6306 H   0  0  0  0  0  0  0  0  0  0  0  0
   44.7952   30.0339   40.0783 H   0  0  0  0  0  0  0  0  0  0  0  0
   46.1673   28.9320   40.5928 H   0  0  0  0  0  0  0  0  0  0  0  0
   47.7848   30.3763   39.7716 H   0  0  0  0  0  0  0  0  0  0  0  0
   46.5682   31.3973   40.6885 H   0  0  0  0  0  0  0  0  0  0  0  0
  1 13  1  0
  1  3  1  0
  2  3  1  0
  2  7  2  0
  3  4  2  0
  4  5  1  0
  6  5  2  0
  7  6  1  0
  8 12  1  0
  8  2  1  0
  9  8  1  0
 10 11  1  0
 10  9  1  0
 11 12  1  0
 14  1  1  0
 15 14  1  0
 16 15  1  0
 17 16  2  0
 18 17  1  0
 18 19  2  0
 19 20  1  0
 19 15  1  0
 20 25  1  0
 21 20  1  0
 22 21  1  0
 22 23  1  0
 23 24  1  0
 25 24  1  0
  1 26  1  6
  4 27  1  0
  6 28  1  0
  8 29  1  0
  9 30  1  0
  9 31  1  0
 10 32  1  0
 10 33  1  0
 11 34  1  0
 11 35  1  0
 12 36  1  0
 12 37  1  0
 13 38  1  0
 13 39  1  0
 13 40  1  0
 14 41  1  0
 14 42  1  0
 17 43  1  0
 18 44  1  0
 21 45  1  0
 21 46  1  0
 22 47  1  0
 22 48  1  0
 23 49  1  0
 24 50  1  0
 24 51  1  0
 25 52  1  0
 25 53  1  0
M  ISO  8  26   8  27  14  28  14  29  13  30  13  31  13  32  13  33  13
M  ISO  8  34  13  35  13  36  13  37  13  38   8  39   8  40   8  41   8
M  ISO  8  42   8  43  14  44  14  45  13  46  13  47  13  48  13  49   5
M  ISO  4  50  13  51  13  52  13  53  13
M  END
>  <minimizedAffinity>  (1) 
-5.03320217

>  <minimizedRMSD>  (1) 
1.28926516

$$$$
