
     RDKit          3D

 30 31  0  0  0  0  0  0  0  0999 V2000
   45.4970   34.2960   44.9200 C   0  0  0  0  0  0  0  0  0  0  0  0
   46.2930   34.0760   43.7760 C   0  0  0  0  0  0  0  0  0  0  0  0
   47.2360   33.0690   43.8360 C   0  0  0  0  0  0  0  0  0  0  0  0
   47.3420   32.3500   44.9960 N   0  0  0  0  0  0  0  0  0  0  0  0
   46.5610   32.5930   46.0670 C   0  0  0  0  0  0  0  0  0  0  0  0
   45.6500   33.5550   46.0270 N   0  0  0  0  0  0  0  0  0  0  0  0
   48.1750   32.6820   42.8190 C   0  0  0  0  0  0  0  0  0  0  0  0
   48.0930   31.8700   41.7110 C   0  0  0  0  0  0  0  0  0  0  0  0
   49.1110   31.6380   40.8190 C   0  0  0  0  0  0  0  0  0  0  0  0
   50.3100   32.2530   41.0310 N   0  0  0  0  0  0  0  0  0  0  0  0
   50.3880   33.0420   42.1080 C   0  0  0  0  0  0  0  0  0  0  0  0
   49.4060   33.2720   42.9770 N   0  0  0  0  0  0  0  0  0  0  0  0
   46.0940   34.9220   42.5790 C   0  0  0  0  0  0  0  0  0  0  0  0
   47.3650   35.4860   42.0620 C   0  0  0  0  0  0  0  0  0  0  0  0
   45.2020   36.0990   43.0150 C   0  0  0  0  0  0  0  0  0  0  0  0
   45.3000   34.1810   41.5550 C   0  0  0  0  0  0  0  0  0  0  0  0
   44.7364   35.0905   44.9034 H   0  0  0  0  0  0  0  0  0  0  0  0
   46.6801   31.9899   46.9792 H   0  0  0  0  0  0  0  0  0  0  0  0
   47.1335   31.3655   41.5246 H   0  0  0  0  0  0  0  0  0  0  0  0
   48.9633   30.9730   39.9553 H   0  0  0  0  0  0  0  0  0  0  0  0
   51.3485   33.5455   42.2921 H   0  0  0  0  0  0  0  0  0  0  0  0
   48.0095   35.7720   42.9063 H   0  0  0  0  0  0  0  0  0  0  0  0
   47.8783   34.7312   41.4482 H   0  0  0  0  0  0  0  0  0  0  0  0
   47.1497   36.3731   41.4482 H   0  0  0  0  0  0  0  0  0  0  0  0
   45.1670   36.1452   44.1135 H   0  0  0  0  0  0  0  0  0  0  0  0
   45.6167   37.0388   42.6215 H   0  0  0  0  0  0  0  0  0  0  0  0
   44.1851   35.9538   42.6215 H   0  0  0  0  0  0  0  0  0  0  0  0
   44.5848   33.5136   42.0580 H   0  0  0  0  0  0  0  0  0  0  0  0
   44.7522   34.8983   40.9262 H   0  0  0  0  0  0  0  0  0  0  0  0
   45.9778   33.5851   40.9262 H   0  0  0  0  0  0  0  0  0  0  0  0
  1  6  2  0
  2  3  2  0
  2  1  1  0
  3  4  1  0
  4  5  2  0
  6  5  1  0
  7 12  1  0
  7  3  1  0
  8  7  2  0
  9 10  2  0
  9  8  1  0
 10 11  1  0
 11 12  2  0
 13 15  1  0
 13  2  1  0
 14 13  1  0
 16 13  1  0
  1 17  1  0
  5 18  1  0
  8 19  1  0
  9 20  1  0
 11 21  1  0
 14 22  1  0
 14 23  1  0
 14 24  1  0
 15 25  1  0
 15 26  1  0
 15 27  1  0
 16 28  1  0
 16 29  1  0
 16 30  1  0
M  ISO  8  17  14  18  14  19  14  20  14  21  14  22   8  23   8  24   8
M  ISO  6  25   8  26   8  27   8  28   8  29   8  30   8
M  END
>  <minimizedAffinity>  (1) 
-4.17637253

>  <minimizedRMSD>  (1) 
0.615090609

$$$$
