
     RDKit          3D

 46 49  0  0  1  0  0  0  0  0999 V2000
   46.3510   31.2810   46.3770 C   0  0  2  0  0  0  0  0  0  0  0  0
   44.7380   35.1520   45.5460 C   0  0  0  0  0  0  0  0  0  0  0  0
   44.4530   35.9030   44.4110 C   0  0  0  0  0  0  0  0  0  0  0  0
   45.0130   35.4970   43.1890 C   0  0  0  0  0  0  0  0  0  0  0  0
   45.8010   34.4000   43.1710 N   0  0  0  0  0  0  0  0  0  0  0  0
   46.0720   33.6720   44.2970 C   0  0  0  0  0  0  0  0  0  0  0  0
   45.5330   34.0640   45.4620 N   0  0  0  0  0  0  0  0  0  0  0  0
   46.8950   32.5300   44.3050 N   0  0  0  0  0  0  0  0  0  0  0  0
   47.7320   32.4050   43.2310 C   0  0  0  0  0  0  0  0  0  0  0  0
   48.4480   31.2130   43.4730 C   0  0  0  0  0  0  0  0  0  0  0  0
   48.0230   30.6800   44.6580 N   0  0  0  0  0  0  0  0  0  0  0  0
   47.0780   31.5020   45.1400 C   0  0  0  0  0  0  0  0  0  0  0  0
   47.1180   32.0640   47.4810 C   0  0  0  0  0  0  0  0  0  0  0  0
   46.3470   29.8440   46.7840 C   0  0  0  0  0  0  0  0  0  0  0  0
   45.2290   29.1120   46.2970 N   0  0  0  0  0  0  0  0  0  0  0  0
   44.4920   29.4430   45.2300 N   0  0  0  0  0  0  0  0  0  0  0  0
   43.5270   28.5020   45.0940 C   0  0  0  0  0  0  0  0  0  0  0  0
   43.6450   27.5540   46.0870 C   0  0  0  0  0  0  0  0  0  0  0  0
   44.7380   27.9630   46.8420 C   0  0  0  0  0  0  0  0  0  0  0  0
   45.2800   27.2850   48.0240 C   0  0  0  0  0  0  0  0  0  0  0  0
   46.4450   26.4390   47.6290 C   0  0  0  0  0  0  0  0  0  0  0  0
   45.9130   25.0280   47.7290 C   0  0  0  0  0  0  0  0  0  0  0  0
   44.9940   25.0980   48.9120 C   0  0  0  0  0  0  0  0  0  0  0  0
   44.2460   26.3930   48.6740 C   0  0  0  0  0  0  0  0  0  0  0  0
   45.3083   31.6036   46.2402 H   0  0  0  0  0  0  0  0  0  0  0  0
   44.3136   35.4458   46.5173 H   0  0  0  0  0  0  0  0  0  0  0  0
   43.8064   36.7910   44.4688 H   0  0  0  0  0  0  0  0  0  0  0  0
   44.8141   36.0606   42.2655 H   0  0  0  0  0  0  0  0  0  0  0  0
   47.8264   33.0828   42.3698 H   0  0  0  0  0  0  0  0  0  0  0  0
   49.2198   30.7841   42.8170 H   0  0  0  0  0  0  0  0  0  0  0  0
   46.7838   31.7228   48.4719 H   0  0  0  0  0  0  0  0  0  0  0  0
   48.1979   31.8829   47.3759 H   0  0  0  0  0  0  0  0  0  0  0  0
   46.9147   33.1399   47.3759 H   0  0  0  0  0  0  0  0  0  0  0  0
   47.2638   29.3725   46.4005 H   0  0  0  0  0  0  0  0  0  0  0  0
   46.2899   29.8225   47.8823 H   0  0  0  0  0  0  0  0  0  0  0  0
   42.7604   28.4956   44.3052 H   0  0  0  0  0  0  0  0  0  0  0  0
   43.0130   26.6680   46.2471 H   0  0  0  0  0  0  0  0  0  0  0  0
   45.5853   28.0615   48.7408 H   0  0  0  0  0  0  0  0  0  0  0  0
   47.2901   26.5893   48.3169 H   0  0  0  0  0  0  0  0  0  0  0  0
   46.8269   26.6806   46.6261 H   0  0  0  0  0  0  0  0  0  0  0  0
   45.3643   24.7467   46.8180 H   0  0  0  0  0  0  0  0  0  0  0  0
   46.7049   24.2725   47.8389 H   0  0  0  0  0  0  0  0  0  0  0  0
   44.3060   24.2400   48.9315 H   0  0  0  0  0  0  0  0  0  0  0  0
   45.5208   25.0684   49.8772 H   0  0  0  0  0  0  0  0  0  0  0  0
   43.8956   26.8246   49.6232 H   0  0  0  0  0  0  0  0  0  0  0  0
   43.3460   26.2600   48.0556 H   0  0  0  0  0  0  0  0  0  0  0  0
  1 14  1  0
  1 13  1  0
  3  2  2  0
  4  3  1  0
  5  4  2  0
  5  6  1  0
  6  8  1  0
  6  7  2  0
  7  2  1  0
  8 12  1  0
  9 10  2  0
  9  8  1  0
 10 11  1  0
 11 12  2  0
 12  1  1  0
 15 14  1  0
 15 19  1  0
 16 15  1  0
 17 16  2  0
 17 18  1  0
 18 19  2  0
 19 20  1  0
 20 24  1  0
 21 22  1  0
 21 20  1  0
 22 23  1  0
 24 23  1  0
  1 25  1  6
  2 26  1  0
  3 27  1  0
  4 28  1  0
  9 29  1  0
 10 30  1  0
 13 31  1  0
 13 32  1  0
 13 33  1  0
 14 34  1  0
 14 35  1  0
 17 36  1  0
 18 37  1  0
 20 38  1  0
 21 39  1  0
 21 40  1  0
 22 41  1  0
 22 42  1  0
 23 43  1  0
 23 44  1  0
 24 45  1  0
 24 46  1  0
M  ISO  8  25   8  26  14  27  14  28  14  29  14  30  14  31   8  32   8
M  ISO  8  33   8  34   8  35   8  36  14  37  14  38  13  39  13  40  13
M  ISO  6  41  13  42  13  43  13  44  13  45  13  46  13
M  END
>  <minimizedAffinity>  (1) 
-4.84070253

>  <minimizedRMSD>  (1) 
0.816665947

$$$$
