
     RDKit          3D

 54 57  0  0  1  0  0  0  0  0999 V2000
   47.8030   34.7470   41.1840 C   0  0  1  0  0  0  0  0  0  0  0  0
   45.6080   34.1570   42.2240 C   0  0  0  0  0  0  0  0  0  0  0  0
   46.9980   34.2680   42.3160 C   0  0  0  0  0  0  0  0  0  0  0  0
   47.6200   33.9240   43.5380 C   0  0  0  0  0  0  0  0  0  0  0  0
   46.8630   33.5050   44.5620 N   0  0  0  0  0  0  0  0  0  0  0  0
   45.5210   33.4010   44.4620 C   0  0  0  0  0  0  0  0  0  0  0  0
   44.9270   33.7220   43.3170 N   0  0  0  0  0  0  0  0  0  0  0  0
   44.8270   34.5100   41.0910 C   0  0  0  0  0  0  0  0  0  0  0  0
   43.9340   33.3110   40.6510 C   0  0  0  0  0  0  0  0  0  0  0  0
   42.9870   34.0130   39.6860 C   0  0  0  0  0  0  0  0  0  0  0  0
   42.8720   35.4190   40.2300 C   0  0  0  0  0  0  0  0  0  0  0  0
   43.7440   35.4650   41.4810 C   0  0  0  0  0  0  0  0  0  0  0  0
   48.8250   35.7450   41.5630 C   0  0  0  0  0  0  0  0  0  0  0  0
   48.3300   33.5440   40.4410 C   0  0  0  0  0  0  0  0  0  0  0  0
   47.9390   33.5210   39.0640 N   0  0  0  0  0  0  0  0  0  0  0  0
   48.4920   34.4990   38.3350 N   0  0  0  0  0  0  0  0  0  0  0  0
   48.0690   34.4000   37.0700 C   0  0  0  0  0  0  0  0  0  0  0  0
   47.2210   33.3290   36.9770 C   0  0  0  0  0  0  0  0  0  0  0  0
   47.1670   32.8080   38.2390 C   0  0  0  0  0  0  0  0  0  0  0  0
   46.4560   31.7120   38.7150 N   0  0  0  0  0  0  0  0  0  0  0  0
   46.6090   30.8860   39.8590 C   0  0  0  0  0  0  0  0  0  0  0  0
   45.5040   29.8210   39.9470 C   0  0  0  0  0  0  0  0  0  0  0  0
   45.3940   28.9820   38.7310 C   0  0  0  0  0  0  0  0  0  0  0  0
   45.6300   29.8280   37.5170 C   0  0  0  0  0  0  0  0  0  0  0  0
   45.3140   31.2740   37.9270 C   0  0  0  0  0  0  0  0  0  0  0  0
   47.1681   35.3240   40.4955 H   0  0  0  0  0  0  0  0  0  0  0  0
   48.7120   33.9992   43.6473 H   0  0  0  0  0  0  0  0  0  0  0  0
   44.9251   33.0542   45.3191 H   0  0  0  0  0  0  0  0  0  0  0  0
   45.5468   34.8753   40.3437 H   0  0  0  0  0  0  0  0  0  0  0  0
   44.5219   32.5296   40.1473 H   0  0  0  0  0  0  0  0  0  0  0  0
   43.4379   32.7803   41.4770 H   0  0  0  0  0  0  0  0  0  0  0  0
   42.0047   33.5181   39.6751 H   0  0  0  0  0  0  0  0  0  0  0  0
   43.3534   33.9928   38.6490 H   0  0  0  0  0  0  0  0  0  0  0  0
   43.2325   36.1458   39.4872 H   0  0  0  0  0  0  0  0  0  0  0  0
   41.8273   35.6750   40.4604 H   0  0  0  0  0  0  0  0  0  0  0  0
   43.1974   35.1185   42.3704 H   0  0  0  0  0  0  0  0  0  0  0  0
   44.0957   36.4695   41.7589 H   0  0  0  0  0  0  0  0  0  0  0  0
   48.8883   35.8068   42.6594 H   0  0  0  0  0  0  0  0  0  0  0  0
   49.8012   35.4429   41.1558 H   0  0  0  0  0  0  0  0  0  0  0  0
   48.5462   36.7281   41.1558 H   0  0  0  0  0  0  0  0  0  0  0  0
   49.4287   33.5535   40.4932 H   0  0  0  0  0  0  0  0  0  0  0  0
   47.9037   32.6496   40.9189 H   0  0  0  0  0  0  0  0  0  0  0  0
   48.3544   35.0670   36.2432 H   0  0  0  0  0  0  0  0  0  0  0  0
   46.6967   32.9665   36.0805 H   0  0  0  0  0  0  0  0  0  0  0  0
   47.5854   30.3822   39.8063 H   0  0  0  0  0  0  0  0  0  0  0  0
   46.5405   31.5239   40.7525 H   0  0  0  0  0  0  0  0  0  0  0  0
   45.7194   29.1657   40.8039 H   0  0  0  0  0  0  0  0  0  0  0  0
   44.5486   30.3544   40.0597 H   0  0  0  0  0  0  0  0  0  0  0  0
   46.1452   28.1794   38.7702 H   0  0  0  0  0  0  0  0  0  0  0  0
   44.3878   28.5405   38.6801 H   0  0  0  0  0  0  0  0  0  0  0  0
   44.9672   29.5114   36.6982 H   0  0  0  0  0  0  0  0  0  0  0  0
   46.6661   29.7324   37.1600 H   0  0  0  0  0  0  0  0  0  0  0  0
   45.1948   31.9089   37.0367 H   0  0  0  0  0  0  0  0  0  0  0  0
   44.3751   31.3413   38.4961 H   0  0  0  0  0  0  0  0  0  0  0  0
  1 13  1  0
  1  3  1  0
  2  3  1  0
  2  7  2  0
  3  4  2  0
  4  5  1  0
  6  5  2  0
  7  6  1  0
  8 12  1  0
  8  2  1  0
  9  8  1  0
 10 11  1  0
 10  9  1  0
 11 12  1  0
 14  1  1  0
 15 14  1  0
 16 15  1  0
 17 16  2  0
 18 17  1  0
 18 19  2  0
 19 20  1  0
 19 15  1  0
 20 21  1  0
 21 22  1  0
 23 22  1  0
 24 25  1  0
 24 23  1  0
 25 20  1  0
  1 26  1  6
  4 27  1  0
  6 28  1  0
  8 29  1  0
  9 30  1  0
  9 31  1  0
 10 32  1  0
 10 33  1  0
 11 34  1  0
 11 35  1  0
 12 36  1  0
 12 37  1  0
 13 38  1  0
 13 39  1  0
 13 40  1  0
 14 41  1  0
 14 42  1  0
 17 43  1  0
 18 44  1  0
 21 45  1  0
 21 46  1  0
 22 47  1  0
 22 48  1  0
 23 49  1  0
 23 50  1  0
 24 51  1  0
 24 52  1  0
 25 53  1  0
 25 54  1  0
M  ISO  8  26   8  27  14  28  14  29  13  30  13  31  13  32  13  33  13
M  ISO  8  34  13  35  13  36  13  37  13  38   8  39   8  40   8  41   8
M  ISO  8  42   8  43  14  44  14  45  13  46  13  47  13  48  13  49  13
M  ISO  5  50  13  51  13  52  13  53  13  54  13
M  END
>  <minimizedAffinity>  (1) 
-5.02175856

>  <minimizedRMSD>  (1) 
1.40794623

$$$$
