
     RDKit          3D

 29 30  0  0  0  0  0  0  0  0999 V2000
   45.2500   34.5380   45.0600 C   0  0  0  0  0  0  0  0  0  0  0  0
   46.0940   34.1990   43.9760 C   0  0  0  0  0  0  0  0  0  0  0  0
   46.9900   33.1670   44.1800 C   0  0  0  0  0  0  0  0  0  0  0  0
   47.0500   32.5170   45.3660 N   0  0  0  0  0  0  0  0  0  0  0  0
   46.2070   32.8900   46.3800 C   0  0  0  0  0  0  0  0  0  0  0  0
   45.3270   33.8810   46.2250 N   0  0  0  0  0  0  0  0  0  0  0  0
   47.9080   32.6740   43.1900 C   0  0  0  0  0  0  0  0  0  0  0  0
   47.5530   31.5880   42.3780 C   0  0  0  0  0  0  0  0  0  0  0  0
   48.5670   31.2620   41.4690 C   0  0  0  0  0  0  0  0  0  0  0  0
   49.5130   32.1620   41.7560 N   0  0  0  0  0  0  0  0  0  0  0  0
   49.1380   32.9460   42.7190 N   0  0  0  0  0  0  0  0  0  0  0  0
   45.9750   34.9570   42.7150 C   0  0  0  0  0  0  0  0  0  0  0  0
   47.3100   35.3820   42.2030 C   0  0  0  0  0  0  0  0  0  0  0  0
   45.1310   36.2060   43.0090 C   0  0  0  0  0  0  0  0  0  0  0  0
   45.1680   34.1610   41.7190 C   0  0  0  0  0  0  0  0  0  0  0  0
   44.5201   35.3528   44.9444 H   0  0  0  0  0  0  0  0  0  0  0  0
   46.2569   32.3607   47.3430 H   0  0  0  0  0  0  0  0  0  0  0  0
   46.5929   31.0556   42.4466 H   0  0  0  0  0  0  0  0  0  0  0  0
   48.5815   30.4659   40.7100 H   0  0  0  0  0  0  0  0  0  0  0  0
   50.4216   32.2247   41.2749 H   0  0  0  0  0  0  0  0  0  0  0  0
   47.9774   35.5945   43.0512 H   0  0  0  0  0  0  0  0  0  0  0  0
   47.7410   34.5767   41.5901 H   0  0  0  0  0  0  0  0  0  0  0  0
   47.1961   36.2883   41.5901 H   0  0  0  0  0  0  0  0  0  0  0  0
   45.0407   36.3397   44.0971 H   0  0  0  0  0  0  0  0  0  0  0  0
   45.6181   37.0893   42.5702 H   0  0  0  0  0  0  0  0  0  0  0  0
   44.1298   36.0836   42.5702 H   0  0  0  0  0  0  0  0  0  0  0  0
   44.4845   33.4869   42.2560 H   0  0  0  0  0  0  0  0  0  0  0  0
   44.5849   34.8474   41.0874 H   0  0  0  0  0  0  0  0  0  0  0  0
   45.8463   33.5685   41.0874 H   0  0  0  0  0  0  0  0  0  0  0  0
  1  6  2  0
  2  3  2  0
  2  1  1  0
  3  4  1  0
  4  5  2  0
  6  5  1  0
  7  3  1  0
  8  7  1  0
  9 10  1  0
  9  8  2  0
 10 11  1  0
 11  7  2  0
 12 14  1  0
 12  2  1  0
 13 12  1  0
 15 12  1  0
  1 16  1  0
  5 17  1  0
  8 18  1  0
  9 19  1  0
 10 20  1  0
 13 21  1  0
 13 22  1  0
 13 23  1  0
 14 24  1  0
 14 25  1  0
 14 26  1  0
 15 27  1  0
 15 28  1  0
 15 29  1  0
M  ISO  8  16  14  17  14  18  14  19  14  20   9  21   8  22   8  23   8
M  ISO  6  24   8  25   8  26   8  27   8  28   8  29   8
M  END
>  <minimizedAffinity>  (1) 
-4.03538465

>  <minimizedRMSD>  (1) 
0.266372353

$$$$
