
     RDKit          3D

 25 25  0  0  0  0  0  0  0  0999 V2000
   46.0360   34.8950   42.6920 C   0  0  0  0  0  0  0  0  0  0  0  0
   45.2620   34.5170   45.0240 C   0  0  0  0  0  0  0  0  0  0  0  0
   46.1190   34.1690   43.9720 C   0  0  0  0  0  0  0  0  0  0  0  0
   46.9970   33.1500   44.2520 C   0  0  0  0  0  0  0  0  0  0  0  0
   47.0310   32.5330   45.4480 N   0  0  0  0  0  0  0  0  0  0  0  0
   46.1890   32.9000   46.4320 C   0  0  0  0  0  0  0  0  0  0  0  0
   45.3300   33.8750   46.2020 N   0  0  0  0  0  0  0  0  0  0  0  0
   47.9200   32.6610   43.2730 C   0  0  0  0  0  0  0  0  0  0  0  0
   47.7000   31.6530   42.5540 O   0  0  0  0  0  0  0  0  0  0  0  0
   48.9740   32.4360   42.4370 O   0  0  0  0  0  0  0  0  0  0  0  0
   47.3910   35.3390   42.2340 C   0  0  0  0  0  0  0  0  0  0  0  0
   45.1320   36.1150   42.9370 C   0  0  0  0  0  0  0  0  0  0  0  0
   45.3090   34.0510   41.6770 C   0  0  0  0  0  0  0  0  0  0  0  0
   44.5268   35.3232   44.8842 H   0  0  0  0  0  0  0  0  0  0  0  0
   46.2165   32.3965   47.4096 H   0  0  0  0  0  0  0  0  0  0  0  0
   48.9513   31.6735   41.8060 H   0  0  0  0  0  0  0  0  0  0  0  0
   48.0241   35.5465   43.1093 H   0  0  0  0  0  0  0  0  0  0  0  0
   47.8517   34.5448   41.6282 H   0  0  0  0  0  0  0  0  0  0  0  0
   47.2924   36.2518   41.6282 H   0  0  0  0  0  0  0  0  0  0  0  0
   45.0148   36.2731   44.0193 H   0  0  0  0  0  0  0  0  0  0  0  0
   45.5889   37.0069   42.4835 H   0  0  0  0  0  0  0  0  0  0  0  0
   44.1457   35.9375   42.4835 H   0  0  0  0  0  0  0  0  0  0  0  0
   44.6763   33.3164   42.1966 H   0  0  0  0  0  0  0  0  0  0  0  0
   44.6796   34.6964   41.0467 H   0  0  0  0  0  0  0  0  0  0  0  0
   46.0405   33.5241   41.0467 H   0  0  0  0  0  0  0  0  0  0  0  0
  1 12  1  0
  1  3  1  0
  2  7  2  0
  3  4  2  0
  3  2  1  0
  4  5  1  0
  5  6  2  0
  7  6  1  0
  8  4  1  0
  9  8  2  0
 10  8  1  0
 11  1  1  0
 13  1  1  0
  2 14  1  0
  6 15  1  0
 10 16  1  0
 11 17  1  0
 11 18  1  0
 11 19  1  0
 12 20  1  0
 12 21  1  0
 12 22  1  0
 13 23  1  0
 13 24  1  0
 13 25  1  0
M  ISO  8  14  14  15  14  16   3  17   8  18   8  19   8  20   8  21   8
M  ISO  4  22   8  23   8  24   8  25   8
M  END
>  <minimizedAffinity>  (1) 
-3.71901774

>  <minimizedRMSD>  (1) 
0.227540016

$$$$
