
     RDKit          3D

 49 52  0  0  1  0  0  0  0  0999 V2000
   47.8220   34.7110   41.1610 C   0  0  1  0  0  0  0  0  0  0  0  0
   45.6100   34.2470   42.2270 C   0  0  0  0  0  0  0  0  0  0  0  0
   47.0060   34.2910   42.3090 C   0  0  0  0  0  0  0  0  0  0  0  0
   47.6240   33.9380   43.5320 C   0  0  0  0  0  0  0  0  0  0  0  0
   46.8540   33.5720   44.5660 N   0  0  0  0  0  0  0  0  0  0  0  0
   45.5080   33.5310   44.4790 C   0  0  0  0  0  0  0  0  0  0  0  0
   44.9210   33.8620   43.3340 N   0  0  0  0  0  0  0  0  0  0  0  0
   44.8370   34.6130   41.0940 C   0  0  0  0  0  0  0  0  0  0  0  0
   44.0820   33.3650   40.5330 C   0  0  0  0  0  0  0  0  0  0  0  0
   43.1040   34.0920   39.5780 C   0  0  0  0  0  0  0  0  0  0  0  0
   42.8430   35.4110   40.2280 C   0  0  0  0  0  0  0  0  0  0  0  0
   43.6540   35.4290   41.5100 C   0  0  0  0  0  0  0  0  0  0  0  0
   48.8540   35.7130   41.4990 C   0  0  0  0  0  0  0  0  0  0  0  0
   48.3420   33.4830   40.4690 C   0  0  0  0  0  0  0  0  0  0  0  0
   48.0060   33.4450   39.0660 N   0  0  0  0  0  0  0  0  0  0  0  0
   48.4020   34.5280   38.4010 N   0  0  0  0  0  0  0  0  0  0  0  0
   48.0560   34.4090   37.1120 C   0  0  0  0  0  0  0  0  0  0  0  0
   47.4160   33.2090   36.9440 C   0  0  0  0  0  0  0  0  0  0  0  0
   47.4050   32.6340   38.1860 C   0  0  0  0  0  0  0  0  0  0  0  0
   46.8780   31.3740   38.6140 C   0  0  0  0  0  0  0  0  0  0  0  0
   47.8860   30.4550   38.9130 C   0  0  0  0  0  0  0  0  0  0  0  0
   47.6060   29.1620   39.3390 C   0  0  0  0  0  0  0  0  0  0  0  0
   46.3060   28.7320   39.4840 C   0  0  0  0  0  0  0  0  0  0  0  0
   45.3140   29.6400   39.1870 C   0  0  0  0  0  0  0  0  0  0  0  0
   45.5910   30.9080   38.7700 C   0  0  0  0  0  0  0  0  0  0  0  0
   47.1884   35.2613   40.4498 H   0  0  0  0  0  0  0  0  0  0  0  0
   48.7191   33.9636   43.6324 H   0  0  0  0  0  0  0  0  0  0  0  0
   44.9036   33.2269   45.3463 H   0  0  0  0  0  0  0  0  0  0  0  0
   45.5386   35.1046   40.4040 H   0  0  0  0  0  0  0  0  0  0  0  0
   44.7552   32.6820   39.9942 H   0  0  0  0  0  0  0  0  0  0  0  0
   43.6152   32.7131   41.2861 H   0  0  0  0  0  0  0  0  0  0  0  0
   42.1698   33.5209   39.4722 H   0  0  0  0  0  0  0  0  0  0  0  0
   43.5195   34.2038   38.5656 H   0  0  0  0  0  0  0  0  0  0  0  0
   43.1608   36.2301   39.5661 H   0  0  0  0  0  0  0  0  0  0  0  0
   41.7711   35.5471   40.4341 H   0  0  0  0  0  0  0  0  0  0  0  0
   43.1090   34.9596   42.3422 H   0  0  0  0  0  0  0  0  0  0  0  0
   43.8985   36.4340   41.8843 H   0  0  0  0  0  0  0  0  0  0  0  0
   48.9399   35.7964   42.5925 H   0  0  0  0  0  0  0  0  0  0  0  0
   49.8208   35.3999   41.0781 H   0  0  0  0  0  0  0  0  0  0  0  0
   48.5695   36.6887   41.0781 H   0  0  0  0  0  0  0  0  0  0  0  0
   49.4373   33.4612   40.5684 H   0  0  0  0  0  0  0  0  0  0  0  0
   47.8706   32.6107   40.9454 H   0  0  0  0  0  0  0  0  0  0  0  0
   48.2524   35.1492   36.3224 H   0  0  0  0  0  0  0  0  0  0  0  0
   47.0009   32.7970   36.0124 H   0  0  0  0  0  0  0  0  0  0  0  0
   48.9363   30.7646   38.8079 H   0  0  0  0  0  0  0  0  0  0  0  0
   48.4338   28.4732   39.5633 H   0  0  0  0  0  0  0  0  0  0  0  0
   46.0709   27.7116   39.8211 H   0  0  0  0  0  0  0  0  0  0  0  0
   44.2631   29.3318   39.2897 H   0  0  0  0  0  0  0  0  0  0  0  0
   44.7535   31.5861   38.5493 H   0  0  0  0  0  0  0  0  0  0  0  0
  1 13  1  0
  1  3  1  0
  2  3  1  0
  2  7  2  0
  3  4  2  0
  4  5  1  0
  6  5  2  0
  7  6  1  0
  8 12  1  0
  8  2  1  0
  9  8  1  0
 10 11  1  0
 10  9  1  0
 11 12  1  0
 14  1  1  0
 15 14  1  0
 16 15  1  0
 17 16  2  0
 18 17  1  0
 18 19  2  0
 19 20  1  0
 19 15  1  0
 20 25  1  0
 20 21  2  0
 21 22  1  0
 22 23  2  0
 24 23  1  0
 25 24  2  0
  1 26  1  6
  4 27  1  0
  6 28  1  0
  8 29  1  0
  9 30  1  0
  9 31  1  0
 10 32  1  0
 10 33  1  0
 11 34  1  0
 11 35  1  0
 12 36  1  0
 12 37  1  0
 13 38  1  0
 13 39  1  0
 13 40  1  0
 14 41  1  0
 14 42  1  0
 17 43  1  0
 18 44  1  0
 21 45  1  0
 22 46  1  0
 23 47  1  0
 24 48  1  0
 25 49  1  0
M  ISO  8  26   8  27  14  28  14  29  13  30  13  31  13  32  13  33  13
M  ISO  8  34  13  35  13  36  13  37  13  38   8  39   8  40   8  41   8
M  ISO  8  42   8  43  14  44  14  45  14  46  14  47  14  48  14  49  14
M  END
>  <minimizedAffinity>  (1) 
-5.01472282

>  <minimizedRMSD>  (1) 
1.17419088

$$$$
