
     RDKit          3D

 46 49  0  0  1  0  0  0  0  0999 V2000
   45.5680   34.3320   42.2590 C   0  0  0  0  0  0  0  0  0  0  0  0
   46.9660   34.3120   42.3160 C   0  0  0  0  0  0  0  0  0  0  0  0
   47.5820   33.9250   43.5310 C   0  0  0  0  0  0  0  0  0  0  0  0
   46.8150   33.5930   44.5740 N   0  0  0  0  0  0  0  0  0  0  0  0
   45.4670   33.6140   44.5090 C   0  0  0  0  0  0  0  0  0  0  0  0
   44.8790   33.9760   43.3740 N   0  0  0  0  0  0  0  0  0  0  0  0
   44.7970   34.7410   41.1380 C   0  0  0  0  0  0  0  0  0  0  0  0
   44.2550   33.4960   40.3730 C   0  0  0  0  0  0  0  0  0  0  0  0
   43.2210   34.2010   39.4610 C   0  0  0  0  0  0  0  0  0  0  0  0
   42.7390   35.3560   40.2700 C   0  0  0  0  0  0  0  0  0  0  0  0
   43.4850   35.3070   41.5890 C   0  0  0  0  0  0  0  0  0  0  0  0
   47.7780   34.6980   41.1540 C   0  0  1  0  0  0  0  0  0  0  0  0
   48.8390   35.6680   41.4690 C   0  0  0  0  0  0  0  0  0  0  0  0
   48.2760   33.4490   40.4690 C   0  0  0  0  0  0  0  0  0  0  0  0
   47.9620   33.4100   39.0700 N   0  0  0  0  0  0  0  0  0  0  0  0
   48.3640   34.5020   38.4210 N   0  0  0  0  0  0  0  0  0  0  0  0
   48.0460   34.4020   37.1250 C   0  0  0  0  0  0  0  0  0  0  0  0
   47.4070   33.1800   36.9360 C   0  0  0  0  0  0  0  0  0  0  0  0
   47.3790   32.6000   38.1790 C   0  0  0  0  0  0  0  0  0  0  0  0
   46.8190   31.3420   38.4740 C   0  0  0  0  0  0  0  0  0  0  0  0
   45.5810   30.7400   38.5790 C   0  0  0  0  0  0  0  0  0  0  0  0
   45.4360   29.4300   38.8990 C   0  0  0  0  0  0  0  0  0  0  0  0
   46.6490   28.6820   39.1300 C   0  0  0  0  0  0  0  0  0  0  0  0
   47.9080   30.0550   38.8340 S   0  0  0  0  0  0  0  0  0  0  0  0
   48.6784   33.8980   43.6153 H   0  0  0  0  0  0  0  0  0  0  0  0
   44.8628   33.3349   45.3848 H   0  0  0  0  0  0  0  0  0  0  0  0
   45.4475   35.4185   40.5654 H   0  0  0  0  0  0  0  0  0  0  0  0
   45.0427   32.9942   39.7919 H   0  0  0  0  0  0  0  0  0  0  0  0
   43.8549   32.6900   41.0057 H   0  0  0  0  0  0  0  0  0  0  0  0
   42.3901   33.5225   39.2178 H   0  0  0  0  0  0  0  0  0  0  0  0
   43.6548   34.5145   38.5000 H   0  0  0  0  0  0  0  0  0  0  0  0
   42.9538   36.3001   39.7480 H   0  0  0  0  0  0  0  0  0  0  0  0
   41.6519   35.3012   40.4285 H   0  0  0  0  0  0  0  0  0  0  0  0
   42.9856   34.6475   42.3140 H   0  0  0  0  0  0  0  0  0  0  0  0
   43.5569   36.2722   42.1118 H   0  0  0  0  0  0  0  0  0  0  0  0
   47.1399   35.2503   40.4484 H   0  0  0  0  0  0  0  0  0  0  0  0
   48.9395   35.7599   42.5605 H   0  0  0  0  0  0  0  0  0  0  0  0
   49.7913   35.3217   41.0410 H   0  0  0  0  0  0  0  0  0  0  0  0
   48.5792   36.6474   41.0410 H   0  0  0  0  0  0  0  0  0  0  0  0
   49.3689   33.3991   40.5838 H   0  0  0  0  0  0  0  0  0  0  0  0
   47.7721   32.5931   40.9417 H   0  0  0  0  0  0  0  0  0  0  0  0
   48.2528   35.1521   36.3474 H   0  0  0  0  0  0  0  0  0  0  0  0
   47.0110   32.7691   35.9956 H   0  0  0  0  0  0  0  0  0  0  0  0
   44.6801   31.3443   38.3966 H   0  0  0  0  0  0  0  0  0  0  0  0
   44.4441   28.9611   38.9785 H   0  0  0  0  0  0  0  0  0  0  0  0
   46.7955   27.6254   39.3987 H   0  0  0  0  0  0  0  0  0  0  0  0
  1  2  1  0
  1  6  2  0
  2  3  2  0
  3  4  1  0
  5  4  2  0
  6  5  1  0
  7 11  1  0
  7  1  1  0
  8  7  1  0
  9 10  1  0
  9  8  1  0
 10 11  1  0
 12 13  1  0
 12  2  1  0
 14 12  1  0
 15 14  1  0
 16 15  1  0
 17 16  2  0
 18 17  1  0
 18 19  2  0
 19 20  1  0
 19 15  1  0
 20 21  2  0
 20 24  1  0
 21 22  1  0
 22 23  2  0
 24 23  1  0
  3 25  1  0
  5 26  1  0
  7 27  1  0
  8 28  1  0
  8 29  1  0
  9 30  1  0
  9 31  1  0
 10 32  1  0
 10 33  1  0
 11 34  1  0
 11 35  1  0
 12 36  1  6
 13 37  1  0
 13 38  1  0
 13 39  1  0
 14 40  1  0
 14 41  1  0
 17 42  1  0
 18 43  1  0
 21 44  1  0
 22 45  1  0
 23 46  1  0
M  ISO  8  25  14  26  14  27  13  28  13  29  13  30  13  31  13  32  13
M  ISO  8  33  13  34  13  35  13  36   8  37   8  38   8  39   8  40   8
M  ISO  6  41   8  42  14  43  14  44  14  45  14  46  14
M  END
>  <minimizedAffinity>  (1) 
-5.00058603

>  <minimizedRMSD>  (1) 
1.16994202

$$$$
