
     RDKit          3D

 44 45  0  0  0  0  0  0  0  0999 V2000
   45.2780   34.5420   45.0300 C   0  0  0  0  0  0  0  0  0  0  0  0
   46.1310   34.1630   43.9410 C   0  0  0  0  0  0  0  0  0  0  0  0
   46.9730   33.1240   44.1460 C   0  0  0  0  0  0  0  0  0  0  0  0
   46.9260   32.5310   45.3880 N   0  0  0  0  0  0  0  0  0  0  0  0
   46.1300   32.8900   46.3890 C   0  0  0  0  0  0  0  0  0  0  0  0
   45.3090   33.8980   46.2020 N   0  0  0  0  0  0  0  0  0  0  0  0
   47.8920   32.5720   43.2220 C   0  0  0  0  0  0  0  0  0  0  0  0
   48.8500   33.6110   42.7570 C   0  0  0  0  0  0  0  0  0  0  0  0
   47.2040   32.0400   42.0080 C   0  0  0  0  0  0  0  0  0  0  0  0
   46.0520   34.8770   42.6840 C   0  0  0  0  0  0  0  0  0  0  0  0
   47.2780   35.5100   42.2090 C   0  0  0  0  0  0  0  0  0  0  0  0
   45.1620   36.1380   43.0440 C   0  0  0  0  0  0  0  0  0  0  0  0
   45.2970   34.2420   41.6450 C   0  0  0  0  0  0  0  0  0  0  0  0
   43.7700   34.3150   41.6370 C   0  0  0  0  0  0  0  0  0  0  0  0
   43.0540   33.0090   41.6410 C   0  0  0  0  0  0  0  0  0  0  0  0
   41.9820   33.0610   40.5410 C   0  0  0  0  0  0  0  0  0  0  0  0
   41.8910   34.4940   40.1400 C   0  0  0  0  0  0  0  0  0  0  0  0
   43.3340   34.9010   40.3010 C   0  0  0  0  0  0  0  0  0  0  0  0
   44.5812   35.3829   44.8982 H   0  0  0  0  0  0  0  0  0  0  0  0
   46.1577   32.3564   47.3505 H   0  0  0  0  0  0  0  0  0  0  0  0
   48.4108   31.7571   43.7480 H   0  0  0  0  0  0  0  0  0  0  0  0
   49.3058   34.1054   43.6275 H   0  0  0  0  0  0  0  0  0  0  0  0
   49.6365   33.1391   42.1498 H   0  0  0  0  0  0  0  0  0  0  0  0
   48.3159   34.3567   42.1498 H   0  0  0  0  0  0  0  0  0  0  0  0
   46.3681   31.3937   42.3139 H   0  0  0  0  0  0  0  0  0  0  0  0
   46.8191   32.8777   41.4079 H   0  0  0  0  0  0  0  0  0  0  0  0
   47.9180   31.4567   41.4079 H   0  0  0  0  0  0  0  0  0  0  0  0
   47.8860   35.8239   43.0703 H   0  0  0  0  0  0  0  0  0  0  0  0
   47.8481   34.7936   41.5993 H   0  0  0  0  0  0  0  0  0  0  0  0
   47.0240   36.3897   41.5993 H   0  0  0  0  0  0  0  0  0  0  0  0
   45.0919   36.2373   44.1373 H   0  0  0  0  0  0  0  0  0  0  0  0
   45.6220   37.0439   42.6223 H   0  0  0  0  0  0  0  0  0  0  0  0
   44.1544   36.0081   42.6223 H   0  0  0  0  0  0  0  0  0  0  0  0
   45.6380   34.6803   40.6954 H   0  0  0  0  0  0  0  0  0  0  0  0
   45.4916   33.1731   41.8172 H   0  0  0  0  0  0  0  0  0  0  0  0
   43.5270   34.8808   42.5485 H   0  0  0  0  0  0  0  0  0  0  0  0
   43.7622   32.1927   41.4357 H   0  0  0  0  0  0  0  0  0  0  0  0
   42.5911   32.8262   42.6220 H   0  0  0  0  0  0  0  0  0  0  0  0
   42.2808   32.4402   39.6835 H   0  0  0  0  0  0  0  0  0  0  0  0
   41.0150   32.6745   40.8953 H   0  0  0  0  0  0  0  0  0  0  0  0
   41.2287   35.0640   40.8082 H   0  0  0  0  0  0  0  0  0  0  0  0
   41.4680   34.6701   39.1400 H   0  0  0  0  0  0  0  0  0  0  0  0
   43.9438   34.4903   39.4827 H   0  0  0  0  0  0  0  0  0  0  0  0
   43.4576   35.9937   40.2725 H   0  0  0  0  0  0  0  0  0  0  0  0
  1  6  2  0
  2  3  2  0
  2  1  1  0
  3  4  1  0
  4  5  2  0
  6  5  1  0
  7  3  1  0
  8  7  1  0
  9  7  1  0
 10 12  1  0
 10  2  1  0
 11 10  1  0
 13 10  1  0
 14 15  1  0
 14 13  1  0
 16 15  1  0
 17 18  1  0
 17 16  1  0
 18 14  1  0
  1 19  1  0
  5 20  1  0
  7 21  1  0
  8 22  1  0
  8 23  1  0
  8 24  1  0
  9 25  1  0
  9 26  1  0
  9 27  1  0
 11 28  1  0
 11 29  1  0
 11 30  1  0
 12 31  1  0
 12 32  1  0
 12 33  1  0
 13 34  1  0
 13 35  1  0
 14 36  1  0
 15 37  1  0
 15 38  1  0
 16 39  1  0
 16 40  1  0
 17 41  1  0
 17 42  1  0
 18 43  1  0
 18 44  1  0
M  ISO  8  19  14  20  14  21   8  22   8  23   8  24   8  25   8  26   8
M  ISO  8  27   8  28   8  29   8  30   8  31   8  32   8  33   8  34   8
M  ISO  8  35   8  36  13  37  13  38  13  39  13  40  13  41  13  42  13
M  ISO  2  43  13  44  13
M  END
>  <minimizedAffinity>  (1) 
-4.54986668

>  <minimizedRMSD>  (1) 
1.14479697

$$$$
