
     RDKit          3D

 32 32  0  0  0  0  0  0  0  0999 V2000
   45.2380   34.5430   45.0590 C   0  0  0  0  0  0  0  0  0  0  0  0
   46.1010   34.1910   43.9970 C   0  0  0  0  0  0  0  0  0  0  0  0
   46.9970   33.1750   44.2200 C   0  0  0  0  0  0  0  0  0  0  0  0
   46.9520   32.6040   45.4770 N   0  0  0  0  0  0  0  0  0  0  0  0
   46.1320   32.9510   46.4590 C   0  0  0  0  0  0  0  0  0  0  0  0
   45.2800   33.9210   46.2400 N   0  0  0  0  0  0  0  0  0  0  0  0
   47.9580   32.6460   43.3260 C   0  0  0  0  0  0  0  0  0  0  0  0
   48.8430   33.7200   42.8020 C   0  0  0  0  0  0  0  0  0  0  0  0
   47.3200   32.0410   42.1120 C   0  0  0  0  0  0  0  0  0  0  0  0
   46.0470   34.8750   42.6950 C   0  0  0  0  0  0  0  0  0  0  0  0
   47.2860   35.4760   42.2300 C   0  0  0  0  0  0  0  0  0  0  0  0
   45.1900   36.1630   43.0830 C   0  0  0  0  0  0  0  0  0  0  0  0
   45.2230   34.2020   41.7300 C   0  0  0  0  0  0  0  0  0  0  0  0
   43.7040   35.0790   41.1720 S   0  0  0  0  0  0  0  0  0  0  0  0
   44.5098   35.3536   44.9085 H   0  0  0  0  0  0  0  0  0  0  0  0
   46.1663   32.4380   47.4315 H   0  0  0  0  0  0  0  0  0  0  0  0
   48.5128   31.8920   43.9037 H   0  0  0  0  0  0  0  0  0  0  0  0
   49.2936   34.2669   43.6434 H   0  0  0  0  0  0  0  0  0  0  0  0
   49.6382   33.2726   42.1875 H   0  0  0  0  0  0  0  0  0  0  0  0
   48.2519   34.4150   42.1875 H   0  0  0  0  0  0  0  0  0  0  0  0
   46.5545   31.3151   42.4234 H   0  0  0  0  0  0  0  0  0  0  0  0
   46.8507   32.8337   41.5109 H   0  0  0  0  0  0  0  0  0  0  0  0
   48.0867   31.5303   41.5109 H   0  0  0  0  0  0  0  0  0  0  0  0
   47.8971   35.7724   43.0953 H   0  0  0  0  0  0  0  0  0  0  0  0
   47.8413   34.7471   41.6214 H   0  0  0  0  0  0  0  0  0  0  0  0
   47.0573   36.3633   41.6214 H   0  0  0  0  0  0  0  0  0  0  0  0
   45.1327   36.2491   44.1781 H   0  0  0  0  0  0  0  0  0  0  0  0
   45.6709   37.0617   42.6692 H   0  0  0  0  0  0  0  0  0  0  0  0
   44.1754   36.0666   42.6692 H   0  0  0  0  0  0  0  0  0  0  0  0
   45.8417   34.0113   40.8407 H   0  0  0  0  0  0  0  0  0  0  0  0
   44.8596   33.3000   42.2441 H   0  0  0  0  0  0  0  0  0  0  0  0
   42.9880   35.4924   42.2644 H   0  0  0  0  0  0  0  0  0  0  0  0
  1  6  2  0
  2  3  2  0
  2  1  1  0
  3  4  1  0
  4  5  2  0
  6  5  1  0
  7  3  1  0
  8  7  1  0
  9  7  1  0
 10 12  1  0
 10  2  1  0
 11 10  1  0
 13 10  1  0
 14 13  1  0
  1 15  1  0
  5 16  1  0
  7 17  1  0
  8 18  1  0
  8 19  1  0
  8 20  1  0
  9 21  1  0
  9 22  1  0
  9 23  1  0
 11 24  1  0
 11 25  1  0
 11 26  1  0
 12 27  1  0
 12 28  1  0
 12 29  1  0
 13 30  1  0
 13 31  1  0
 14 32  1  0
M  ISO  8  15  14  16  14  17   8  18   8  19   8  20   8  21   8  22   8
M  ISO  8  23   8  24   8  25   8  26   8  27   8  28   8  29   8  30   8
M  ISO  2  31   8  32  11
M  END
>  <minimizedAffinity>  (1) 
-3.97059202

>  <minimizedRMSD>  (1) 
0.509202003

$$$$
