
     RDKit          3D

 44 47  0  0  1  0  0  0  0  0999 V2000
   45.5960   34.3190   42.2520 C   0  0  0  0  0  0  0  0  0  0  0  0
   46.9940   34.3100   42.3180 C   0  0  0  0  0  0  0  0  0  0  0  0
   47.6020   33.9280   43.5290 C   0  0  0  0  0  0  0  0  0  0  0  0
   46.8380   33.5880   44.5750 N   0  0  0  0  0  0  0  0  0  0  0  0
   45.4900   33.6000   44.5020 C   0  0  0  0  0  0  0  0  0  0  0  0
   44.9030   33.9570   43.3650 N   0  0  0  0  0  0  0  0  0  0  0  0
   44.8250   34.7240   41.1310 C   0  0  0  0  0  0  0  0  0  0  0  0
   44.3090   33.4740   40.3530 C   0  0  0  0  0  0  0  0  0  0  0  0
   43.2690   34.1730   39.4410 C   0  0  0  0  0  0  0  0  0  0  0  0
   42.7640   35.3160   40.2550 C   0  0  0  0  0  0  0  0  0  0  0  0
   43.5080   35.2800   41.5730 C   0  0  0  0  0  0  0  0  0  0  0  0
   47.8140   34.7040   41.1640 C   0  0  1  0  0  0  0  0  0  0  0  0
   48.8480   35.7090   41.4850 C   0  0  0  0  0  0  0  0  0  0  0  0
   48.3300   33.4500   40.5110 C   0  0  0  0  0  0  0  0  0  0  0  0
   48.0260   33.4130   39.0900 N   0  0  0  0  0  0  0  0  0  0  0  0
   48.3510   34.5090   38.4330 N   0  0  0  0  0  0  0  0  0  0  0  0
   48.0330   34.3720   37.1390 C   0  0  0  0  0  0  0  0  0  0  0  0
   47.4780   33.1310   36.9640 C   0  0  0  0  0  0  0  0  0  0  0  0
   47.4890   32.5530   38.2070 C   0  0  0  0  0  0  0  0  0  0  0  0
   47.0510   31.2430   38.7340 C   0  0  0  0  0  0  0  0  0  0  0  0
   47.7150   30.2600   39.3900 N   0  0  0  0  0  0  0  0  0  0  0  0
   46.8630   29.3090   39.6330 O   0  0  0  0  0  0  0  0  0  0  0  0
   45.6760   29.6140   39.1730 C   0  0  0  0  0  0  0  0  0  0  0  0
   45.7680   30.8250   38.6030 N   0  0  0  0  0  0  0  0  0  0  0  0
   48.6984   33.9089   43.6155 H   0  0  0  0  0  0  0  0  0  0  0  0
   44.8838   33.3170   45.3752 H   0  0  0  0  0  0  0  0  0  0  0  0
   45.4690   35.4135   40.5655 H   0  0  0  0  0  0  0  0  0  0  0  0
   45.1082   32.9899   39.7725 H   0  0  0  0  0  0  0  0  0  0  0  0
   43.9196   32.6551   40.9757 H   0  0  0  0  0  0  0  0  0  0  0  0
   42.4494   33.4844   39.1877 H   0  0  0  0  0  0  0  0  0  0  0  0
   43.7050   34.5011   38.4859 H   0  0  0  0  0  0  0  0  0  0  0  0
   42.9599   36.2658   39.7359 H   0  0  0  0  0  0  0  0  0  0  0  0
   41.6783   35.2371   40.4135 H   0  0  0  0  0  0  0  0  0  0  0  0
   43.0127   34.6201   42.3005 H   0  0  0  0  0  0  0  0  0  0  0  0
   43.5709   36.2493   42.0892 H   0  0  0  0  0  0  0  0  0  0  0  0
   47.1923   35.2439   40.4346 H   0  0  0  0  0  0  0  0  0  0  0  0
   48.9430   35.8014   42.5770 H   0  0  0  0  0  0  0  0  0  0  0  0
   49.8114   35.3929   41.0585 H   0  0  0  0  0  0  0  0  0  0  0  0
   48.5595   36.6810   41.0585 H   0  0  0  0  0  0  0  0  0  0  0  0
   49.4212   33.4040   40.6423 H   0  0  0  0  0  0  0  0  0  0  0  0
   47.8361   32.5902   40.9873 H   0  0  0  0  0  0  0  0  0  0  0  0
   48.1901   35.1252   36.3528 H   0  0  0  0  0  0  0  0  0  0  0  0
   47.1039   32.6928   36.0270 H   0  0  0  0  0  0  0  0  0  0  0  0
   44.7709   28.9926   39.2412 H   0  0  0  0  0  0  0  0  0  0  0  0
  1  2  1  0
  1  6  2  0
  2  3  2  0
  3  4  1  0
  5  4  2  0
  6  5  1  0
  7 11  1  0
  7  1  1  0
  8  7  1  0
  9 10  1  0
  9  8  1  0
 10 11  1  0
 12 13  1  0
 12  2  1  0
 14 12  1  0
 15 14  1  0
 16 15  1  0
 17 16  2  0
 18 17  1  0
 18 19  2  0
 19 20  1  0
 19 15  1  0
 20 21  2  0
 21 22  1  0
 23 22  1  0
 24 20  1  0
 24 23  2  0
  3 25  1  0
  5 26  1  0
  7 27  1  0
  8 28  1  0
  8 29  1  0
  9 30  1  0
  9 31  1  0
 10 32  1  0
 10 33  1  0
 11 34  1  0
 11 35  1  0
 12 36  1  6
 13 37  1  0
 13 38  1  0
 13 39  1  0
 14 40  1  0
 14 41  1  0
 17 42  1  0
 18 43  1  0
 23 44  1  0
M  ISO  8  25  14  26  14  27  13  28  13  29  13  30  13  31  13  32  13
M  ISO  8  33  13  34  13  35  13  36   8  37   8  38   8  39   8  40   8
M  ISO  4  41   8  42  14  43  14  44  14
M  END
>  <minimizedAffinity>  (1) 
-4.99757528

>  <minimizedRMSD>  (1) 
0.979758501

$$$$
