
     RDKit          3D

 46 49  0  0  1  0  0  0  0  0999 V2000
   47.8090   34.7400   41.1800 C   0  0  1  0  0  0  0  0  0  0  0  0
   45.6120   34.1630   42.2240 C   0  0  0  0  0  0  0  0  0  0  0  0
   47.0020   34.2700   42.3160 C   0  0  0  0  0  0  0  0  0  0  0  0
   47.6250   33.9270   43.5360 C   0  0  0  0  0  0  0  0  0  0  0  0
   46.8690   33.5120   44.5620 N   0  0  0  0  0  0  0  0  0  0  0  0
   45.5280   33.4100   44.4650 C   0  0  0  0  0  0  0  0  0  0  0  0
   44.9310   33.7300   43.3200 N   0  0  0  0  0  0  0  0  0  0  0  0
   44.8300   34.5190   41.0940 C   0  0  0  0  0  0  0  0  0  0  0  0
   43.9360   33.3210   40.6550 C   0  0  0  0  0  0  0  0  0  0  0  0
   42.9820   34.0220   39.6940 C   0  0  0  0  0  0  0  0  0  0  0  0
   42.8780   35.4290   40.2390 C   0  0  0  0  0  0  0  0  0  0  0  0
   43.7440   35.4700   41.4880 C   0  0  0  0  0  0  0  0  0  0  0  0
   48.8230   35.7500   41.5490 C   0  0  0  0  0  0  0  0  0  0  0  0
   48.3470   33.5330   40.4580 C   0  0  0  0  0  0  0  0  0  0  0  0
   47.9390   33.4990   39.0660 N   0  0  0  0  0  0  0  0  0  0  0  0
   48.4530   34.4700   38.3260 N   0  0  0  0  0  0  0  0  0  0  0  0
   48.0170   34.3540   37.0640 C   0  0  0  0  0  0  0  0  0  0  0  0
   47.1900   33.2630   36.9980 C   0  0  0  0  0  0  0  0  0  0  0  0
   47.1660   32.7520   38.2660 C   0  0  0  0  0  0  0  0  0  0  0  0
   46.4870   31.6120   38.8560 C   0  0  0  0  0  0  0  0  0  0  0  0
   46.9530   31.0680   40.0460 C   0  0  0  0  0  0  0  0  0  0  0  0
   46.1470   29.9930   40.4100 C   0  0  0  0  0  0  0  0  0  0  0  0
   45.2300   29.9230   39.4410 N   0  0  0  0  0  0  0  0  0  0  0  0
   45.4280   30.8660   38.5360 N   0  0  0  0  0  0  0  0  0  0  0  0
   47.1726   35.3033   40.4817 H   0  0  0  0  0  0  0  0  0  0  0  0
   48.7174   33.9995   43.6430 H   0  0  0  0  0  0  0  0  0  0  0  0
   44.9335   33.0656   45.3241 H   0  0  0  0  0  0  0  0  0  0  0  0
   45.5488   34.8879   40.3475 H   0  0  0  0  0  0  0  0  0  0  0  0
   44.5229   32.5412   40.1476 H   0  0  0  0  0  0  0  0  0  0  0  0
   43.4436   32.7897   41.4828 H   0  0  0  0  0  0  0  0  0  0  0  0
   41.9981   33.5301   39.6922 H   0  0  0  0  0  0  0  0  0  0  0  0
   43.3372   33.9974   38.6532 H   0  0  0  0  0  0  0  0  0  0  0  0
   43.2460   36.1527   39.4969 H   0  0  0  0  0  0  0  0  0  0  0  0
   41.8348   35.6921   40.4680 H   0  0  0  0  0  0  0  0  0  0  0  0
   43.1963   35.1172   42.3743 H   0  0  0  0  0  0  0  0  0  0  0  0
   44.0928   36.4736   41.7728 H   0  0  0  0  0  0  0  0  0  0  0  0
   48.8911   35.8178   42.6448 H   0  0  0  0  0  0  0  0  0  0  0  0
   49.8001   35.4556   41.1384 H   0  0  0  0  0  0  0  0  0  0  0  0
   48.5325   36.7283   41.1384 H   0  0  0  0  0  0  0  0  0  0  0  0
   49.4458   33.5532   40.5045 H   0  0  0  0  0  0  0  0  0  0  0  0
   47.9414   32.6369   40.9504 H   0  0  0  0  0  0  0  0  0  0  0  0
   48.2775   35.0186   36.2270 H   0  0  0  0  0  0  0  0  0  0  0  0
   46.6591   32.8803   36.1139 H   0  0  0  0  0  0  0  0  0  0  0  0
   47.8235   31.4303   40.6126 H   0  0  0  0  0  0  0  0  0  0  0  0
   46.2433   29.3472   41.2953 H   0  0  0  0  0  0  0  0  0  0  0  0
   44.4709   29.2278   39.4040 H   0  0  0  0  0  0  0  0  0  0  0  0
  1 13  1  0
  1  3  1  0
  2  3  1  0
  2  7  2  0
  3  4  2  0
  4  5  1  0
  6  5  2  0
  7  6  1  0
  8 12  1  0
  8  2  1  0
  9  8  1  0
 10 11  1  0
 10  9  1  0
 11 12  1  0
 14  1  1  0
 15 14  1  0
 16 15  1  0
 17 16  2  0
 18 17  1  0
 18 19  2  0
 19 20  1  0
 19 15  1  0
 20 21  1  0
 21 22  2  0
 23 22  1  0
 24 20  2  0
 24 23  1  0
  1 25  1  6
  4 26  1  0
  6 27  1  0
  8 28  1  0
  9 29  1  0
  9 30  1  0
 10 31  1  0
 10 32  1  0
 11 33  1  0
 11 34  1  0
 12 35  1  0
 12 36  1  0
 13 37  1  0
 13 38  1  0
 13 39  1  0
 14 40  1  0
 14 41  1  0
 17 42  1  0
 18 43  1  0
 21 44  1  0
 22 45  1  0
 23 46  1  0
M  ISO  8  25   8  26  14  27  14  28  13  29  13  30  13  31  13  32  13
M  ISO  8  33  13  34  13  35  13  36  13  37   8  38   8  39   8  40   8
M  ISO  6  41   8  42  14  43  14  44  14  45  14  46   9
M  END
>  <minimizedAffinity>  (1) 
-4.97892332

>  <minimizedRMSD>  (1) 
1.1569612

$$$$
