
     RDKit          3D

 37 40  0  0  0  0  0  0  0  0999 V2000
   44.6930   36.0630   44.2170 C   0  0  0  0  0  0  0  0  0  0  0  0
   45.4830   35.8560   43.0620 C   0  0  0  0  0  0  0  0  0  0  0  0
   46.3270   34.7280   43.0690 C   0  0  0  0  0  0  0  0  0  0  0  0
   46.3220   33.9350   44.1630 N   0  0  0  0  0  0  0  0  0  0  0  0
   45.5540   34.1670   45.2460 C   0  0  0  0  0  0  0  0  0  0  0  0
   44.7330   35.2470   45.2630 N   0  0  0  0  0  0  0  0  0  0  0  0
   45.5740   33.3090   46.3820 N   0  0  0  0  0  0  0  0  0  0  0  0
   44.9550   33.3770   47.5660 C   0  0  0  0  0  0  0  0  0  0  0  0
   45.2890   32.3160   48.3360 N   0  0  0  0  0  0  0  0  0  0  0  0
   46.1430   31.5290   47.6570 C   0  0  0  0  0  0  0  0  0  0  0  0
   46.8250   30.3480   47.8750 C   0  0  0  0  0  0  0  0  0  0  0  0
   46.6800   29.7730   48.9630 O   0  0  0  0  0  0  0  0  0  0  0  0
   47.6330   29.8150   46.9410 N   0  0  0  0  0  0  0  0  0  0  0  0
   47.7890   30.4430   45.7570 C   0  0  0  0  0  0  0  0  0  0  0  0
   48.6040   30.0130   44.6690 N   0  0  0  0  0  0  0  0  0  0  0  0
   47.1270   31.5920   45.5440 N   0  0  0  0  0  0  0  0  0  0  0  0
   46.3020   32.1630   46.4590 C   0  0  0  0  0  0  0  0  0  0  0  0
   47.2050   34.3970   41.9300 C   0  0  0  0  0  0  0  0  0  0  0  0
   46.5240   34.2810   40.6200 C   0  0  0  0  0  0  0  0  0  0  0  0
   47.7360   34.1150   39.7070 C   0  0  0  0  0  0  0  0  0  0  0  0
   48.6680   35.1890   40.2480 C   0  0  0  0  0  0  0  0  0  0  0  0
   48.2590   35.4620   41.6760 C   0  0  0  0  0  0  0  0  0  0  0  0
   44.0204   36.9328   44.2495 H   0  0  0  0  0  0  0  0  0  0  0  0
   45.4405   36.5408   42.2022 H   0  0  0  0  0  0  0  0  0  0  0  0
   44.2706   34.1825   47.8707 H   0  0  0  0  0  0  0  0  0  0  0  0
   48.1298   28.9325   47.1286 H   0  0  0  0  0  0  0  0  0  0  0  0
   48.6489   30.5737   43.8062 H   0  0  0  0  0  0  0  0  0  0  0  0
   49.1478   29.1416   44.7459 H   0  0  0  0  0  0  0  0  0  0  0  0
   47.6180   33.4290   42.2499 H   0  0  0  0  0  0  0  0  0  0  0  0
   45.8600   33.4049   40.5809 H   0  0  0  0  0  0  0  0  0  0  0  0
   45.8626   35.1221   40.3648 H   0  0  0  0  0  0  0  0  0  0  0  0
   47.4756   34.3010   38.6546 H   0  0  0  0  0  0  0  0  0  0  0  0
   48.1663   33.1027   39.7101 H   0  0  0  0  0  0  0  0  0  0  0  0
   49.7090   34.8349   40.2159 H   0  0  0  0  0  0  0  0  0  0  0  0
   48.6000   36.1045   39.6420 H   0  0  0  0  0  0  0  0  0  0  0  0
   49.1116   35.3480   42.3617 H   0  0  0  0  0  0  0  0  0  0  0  0
   47.8926   36.4866   41.8372 H   0  0  0  0  0  0  0  0  0  0  0  0
  1  6  2  0
  2  3  2  0
  2  1  1  0
  3  4  1  0
  4  5  2  0
  5  6  1  0
  5  7  1  0
  7 17  1  0
  7  8  1  0
  8  9  2  0
 10 11  1  0
 10  9  1  0
 11 12  2  0
 13 11  1  0
 14 13  1  0
 15 14  1  0
 16 14  2  0
 16 17  1  0
 17 10  2  0
 18  3  1  0
 19 18  1  0
 20 21  1  0
 20 19  1  0
 21 22  1  0
 22 18  1  0
  1 23  1  0
  2 24  1  0
  8 25  1  0
 13 26  1  0
 15 27  1  0
 15 28  1  0
 18 29  1  0
 19 30  1  0
 19 31  1  0
 20 32  1  0
 20 33  1  0
 21 34  1  0
 21 35  1  0
 22 36  1  0
 22 37  1  0
M  ISO  8  23  14  24  14  25  14  26   9  29  13  30  13  31  13  32  13
M  ISO  5  33  13  34  13  35  13  36  13  37  13
M  END
>  <minimizedAffinity>  (1) 
-6.3228693

>  <minimizedRMSD>  (1) 
0.261470765

$$$$
