
     RDKit          3D

 30 31  0  0  0  0  0  0  0  0999 V2000
   44.6820   35.7270   44.1700 C   0  0  0  0  0  0  0  0  0  0  0  0
   45.5100   35.5940   43.0360 C   0  0  0  0  0  0  0  0  0  0  0  0
   46.5300   34.6510   43.0640 C   0  0  0  0  0  0  0  0  0  0  0  0
   46.6630   33.9180   44.1830 N   0  0  0  0  0  0  0  0  0  0  0  0
   45.8750   34.0410   45.2700 C   0  0  0  0  0  0  0  0  0  0  0  0
   44.8870   34.9510   45.2510 N   0  0  0  0  0  0  0  0  0  0  0  0
   46.1660   33.1730   46.3590 N   0  0  0  0  0  0  0  0  0  0  0  0
   45.1950   33.0320   47.3880 C   0  0  0  0  0  0  0  0  0  0  0  0
   44.5320   34.0350   47.8330 N   0  0  0  0  0  0  0  0  0  0  0  0
   44.9420   31.7320   47.9610 N   0  0  0  0  0  0  0  0  0  0  0  0
   44.6880   34.9840   47.4490 H   0  0  0  0  0  0  0  0  0  0  0  0
   47.4370   34.4410   41.9310 C   0  0  0  0  0  0  0  0  0  0  0  0
   46.7900   34.2840   40.6100 C   0  0  0  0  0  0  0  0  0  0  0  0
   48.0010   34.2710   39.6970 C   0  0  0  0  0  0  0  0  0  0  0  0
   48.8700   35.3590   40.3020 C   0  0  0  0  0  0  0  0  0  0  0  0
   48.3890   35.6050   41.7100 C   0  0  0  0  0  0  0  0  0  0  0  0
   43.8673   36.4661   44.1713 H   0  0  0  0  0  0  0  0  0  0  0  0
   45.3516   36.2236   42.1480 H   0  0  0  0  0  0  0  0  0  0  0  0
   47.0579   32.6595   46.4009 H   0  0  0  0  0  0  0  0  0  0  0  0
   44.2394   31.6257   48.7066 H   0  0  0  0  0  0  0  0  0  0  0  0
   45.4640   30.9104   47.6244 H   0  0  0  0  0  0  0  0  0  0  0  0
   47.9351   33.5099   42.2392 H   0  0  0  0  0  0  0  0  0  0  0  0
   46.2251   33.3423   40.5458 H   0  0  0  0  0  0  0  0  0  0  0  0
   46.0495   35.0617   40.3715 H   0  0  0  0  0  0  0  0  0  0  0  0
   47.7220   34.5133   38.6609 H   0  0  0  0  0  0  0  0  0  0  0  0
   48.4979   33.2915   39.6363 H   0  0  0  0  0  0  0  0  0  0  0  0
   49.9206   35.0333   40.3172 H   0  0  0  0  0  0  0  0  0  0  0  0
   48.8008   36.2811   39.7062 H   0  0  0  0  0  0  0  0  0  0  0  0
   49.2231   35.5799   42.4267 H   0  0  0  0  0  0  0  0  0  0  0  0
   47.9220   36.5908   41.8516 H   0  0  0  0  0  0  0  0  0  0  0  0
  1  6  2  0
  2  3  2  0
  2  1  1  0
  3  4  1  0
  4  5  2  0
  5  7  1  0
  6  5  1  0
  7  8  1  0
  8  9  2  0
  8 10  1  0
 11  9  1  0
 12  3  1  0
 13 12  1  0
 14 15  1  0
 14 13  1  0
 15 16  1  0
 16 12  1  0
  1 17  1  0
  2 18  1  0
  7 19  1  0
 10 20  1  0
 10 21  1  0
 12 22  1  0
 13 23  1  0
 13 24  1  0
 14 25  1  0
 14 26  1  0
 15 27  1  0
 15 28  1  0
 16 29  1  0
 16 30  1  0
M  ISO  8  17  14  18  14  22  13  23  13  24  13  25  13  26  13  27  13
M  ISO  3  28  13  29  13  30  13
M  END
>  <minimizedAffinity>  (1) 
-6.41342306

>  <minimizedRMSD>  (1) 
0.48067534

$$$$
