
     RDKit          3D

 34 36  0  0  0  0  0  0  0  0999 V2000
   44.7120   35.5160   44.6490 C   0  0  0  0  0  0  0  0  0  0  0  0
   45.4780   35.4610   43.4630 C   0  0  0  0  0  0  0  0  0  0  0  0
   46.4640   34.4560   43.3820 C   0  0  0  0  0  0  0  0  0  0  0  0
   46.5990   33.6300   44.4360 N   0  0  0  0  0  0  0  0  0  0  0  0
   45.8560   33.6990   45.5590 C   0  0  0  0  0  0  0  0  0  0  0  0
   44.9030   34.6620   45.6510 N   0  0  0  0  0  0  0  0  0  0  0  0
   46.0580   32.7890   46.6320 N   0  0  0  0  0  0  0  0  0  0  0  0
   47.0720   31.7710   46.5240 C   0  0  0  0  0  0  0  0  0  0  0  0
   46.6210   30.6370   47.4210 C   0  0  0  0  0  0  0  0  0  0  0  0
   46.6320   31.1350   48.7100 O   0  0  0  0  0  0  0  0  0  0  0  0
   45.6700   32.0860   48.9590 C   0  0  0  0  0  0  0  0  0  0  0  0
   45.2380   32.9040   47.8120 C   0  0  0  0  0  0  0  0  0  0  0  0
   47.3270   34.3000   42.2040 C   0  0  0  0  0  0  0  0  0  0  0  0
   46.6390   34.3020   40.8930 C   0  0  0  0  0  0  0  0  0  0  0  0
   47.8330   34.3230   39.9490 C   0  0  0  0  0  0  0  0  0  0  0  0
   48.6860   35.3910   40.5940 C   0  0  0  0  0  0  0  0  0  0  0  0
   48.3310   35.4260   42.0580 C   0  0  0  0  0  0  0  0  0  0  0  0
   43.9345   36.2880   44.7467 H   0  0  0  0  0  0  0  0  0  0  0  0
   45.3125   36.1708   42.6391 H   0  0  0  0  0  0  0  0  0  0  0  0
   47.1569   31.4248   45.4834 H   0  0  0  0  0  0  0  0  0  0  0  0
   48.0598   32.1525   46.8220 H   0  0  0  0  0  0  0  0  0  0  0  0
   45.6060   30.3142   47.1459 H   0  0  0  0  0  0  0  0  0  0  0  0
   47.2820   29.7631   47.3241 H   0  0  0  0  0  0  0  0  0  0  0  0
   45.2447   32.2287   49.9634 H   0  0  0  0  0  0  0  0  0  0  0  0
   44.3529   33.5559   47.8533 H   0  0  0  0  0  0  0  0  0  0  0  0
   47.7772   33.3180   42.4115 H   0  0  0  0  0  0  0  0  0  0  0  0
   46.0282   33.3978   40.7542 H   0  0  0  0  0  0  0  0  0  0  0  0
   45.9292   35.1302   40.7506 H   0  0  0  0  0  0  0  0  0  0  0  0
   47.5365   34.6039   38.9276 H   0  0  0  0  0  0  0  0  0  0  0  0
   48.3345   33.3515   39.8277 H   0  0  0  0  0  0  0  0  0  0  0  0
   49.7515   35.1468   40.4710 H   0  0  0  0  0  0  0  0  0  0  0  0
   48.5037   36.3697   40.1260 H   0  0  0  0  0  0  0  0  0  0  0  0
   49.2184   35.2453   42.6825 H   0  0  0  0  0  0  0  0  0  0  0  0
   47.9334   36.3998   42.3799 H   0  0  0  0  0  0  0  0  0  0  0  0
  1  6  2  0
  2  1  1  0
  3  2  2  0
  3  4  1  0
  4  5  2  0
  5  6  1  0
  5  7  1  0
  7 12  1  0
  8  7  1  0
  8  9  1  0
  9 10  1  0
 10 11  1  0
 12 11  2  0
 13  3  1  0
 14 13  1  0
 15 16  1  0
 15 14  1  0
 16 17  1  0
 17 13  1  0
  1 18  1  0
  2 19  1  0
  8 20  1  0
  8 21  1  0
  9 22  1  0
  9 23  1  0
 11 24  1  0
 12 25  1  0
 13 26  1  0
 14 27  1  0
 14 28  1  0
 15 29  1  0
 15 30  1  0
 16 31  1  0
 16 32  1  0
 17 33  1  0
 17 34  1  0
M  ISO  8  18  14  19  14  20  13  21  13  22  13  23  13  24  13  25  13
M  ISO  8  26  13  27  13  28  13  29  13  30  13  31  13  32  13  33  13
M  ISO  1  34  13
M  END
>  <minimizedAffinity>  (1) 
-6.19378471

>  <minimizedRMSD>  (1) 
0.579224467

$$$$
