
     RDKit          3D

 32 34  0  0  0  0  0  0  0  0999 V2000
   44.6610   35.5100   44.7330 C   0  0  0  0  0  0  0  0  0  0  0  0
   45.3870   35.4180   43.5290 C   0  0  0  0  0  0  0  0  0  0  0  0
   46.3840   34.4260   43.4420 C   0  0  0  0  0  0  0  0  0  0  0  0
   46.5750   33.6300   44.5230 N   0  0  0  0  0  0  0  0  0  0  0  0
   45.8600   33.7470   45.6610 C   0  0  0  0  0  0  0  0  0  0  0  0
   44.9020   34.6880   45.7630 N   0  0  0  0  0  0  0  0  0  0  0  0
   47.2120   34.2310   42.2410 C   0  0  0  0  0  0  0  0  0  0  0  0
   46.4890   34.2930   40.9530 C   0  0  0  0  0  0  0  0  0  0  0  0
   47.6560   34.2820   39.9760 C   0  0  0  0  0  0  0  0  0  0  0  0
   48.6100   35.2680   40.6350 C   0  0  0  0  0  0  0  0  0  0  0  0
   48.2680   35.3110   42.0920 C   0  0  0  0  0  0  0  0  0  0  0  0
   46.1290   32.8480   46.7780 C   0  0  0  0  0  0  0  0  0  0  0  0
   45.2090   32.7200   47.7880 C   0  0  0  0  0  0  0  0  0  0  0  0
   45.3830   31.8920   48.8820 C   0  0  0  0  0  0  0  0  0  0  0  0
   46.5800   31.1870   48.8850 C   0  0  0  0  0  0  0  0  0  0  0  0
   47.4950   31.3290   47.8590 C   0  0  0  0  0  0  0  0  0  0  0  0
   47.2840   32.1550   46.8000 N   0  0  0  0  0  0  0  0  0  0  0  0
   43.8771   36.2756   44.8296 H   0  0  0  0  0  0  0  0  0  0  0  0
   45.1829   36.0961   42.6873 H   0  0  0  0  0  0  0  0  0  0  0  0
   47.6169   33.2232   42.4155 H   0  0  0  0  0  0  0  0  0  0  0  0
   45.8344   33.4202   40.8128 H   0  0  0  0  0  0  0  0  0  0  0  0
   45.8133   35.1548   40.8488 H   0  0  0  0  0  0  0  0  0  0  0  0
   47.3480   34.6264   38.9777 H   0  0  0  0  0  0  0  0  0  0  0  0
   48.0883   33.2853   39.8037 H   0  0  0  0  0  0  0  0  0  0  0  0
   49.6492   34.9328   40.5018 H   0  0  0  0  0  0  0  0  0  0  0  0
   48.5133   36.2658   40.1823 H   0  0  0  0  0  0  0  0  0  0  0  0
   49.1501   35.0861   42.7096 H   0  0  0  0  0  0  0  0  0  0  0  0
   47.9176   36.3006   42.4204 H   0  0  0  0  0  0  0  0  0  0  0  0
   44.2819   33.3085   47.7240 H   0  0  0  0  0  0  0  0  0  0  0  0
   44.6354   31.7993   49.6835 H   0  0  0  0  0  0  0  0  0  0  0  0
   46.8033   30.5042   49.7180 H   0  0  0  0  0  0  0  0  0  0  0  0
   48.4302   30.7513   47.9009 H   0  0  0  0  0  0  0  0  0  0  0  0
  1  6  2  0
  2  1  1  0
  3  2  2  0
  3  4  1  0
  4  5  2  0
  5  6  1  0
  5 12  1  0
  7  3  1  0
  8  7  1  0
  9 10  1  0
  9  8  1  0
 10 11  1  0
 11  7  1  0
 12 17  1  0
 12 13  2  0
 13 14  1  0
 14 15  2  0
 16 15  1  0
 17 16  2  0
  1 18  1  0
  2 19  1  0
  7 20  1  0
  8 21  1  0
  8 22  1  0
  9 23  1  0
  9 24  1  0
 10 25  1  0
 10 26  1  0
 11 27  1  0
 11 28  1  0
 13 29  1  0
 14 30  1  0
 15 31  1  0
 16 32  1  0
M  ISO  8  18  14  19  14  20  13  21  13  22  13  23  13  24  13  25  13
M  ISO  7  26  13  27  13  28  13  29  14  30  14  31  14  32  14
M  END
>  <minimizedAffinity>  (1) 
-6.20143557

>  <minimizedRMSD>  (1) 
0.591338098

$$$$
