
     RDKit          3D

 39 41  0  0  0  0  0  0  0  0999 V2000
   44.8050   35.3370   44.6730 C   0  0  0  0  0  0  0  0  0  0  0  0
   45.5970   35.3310   43.5100 C   0  0  0  0  0  0  0  0  0  0  0  0
   46.6350   34.3870   43.3890 C   0  0  0  0  0  0  0  0  0  0  0  0
   46.8160   33.5270   44.4110 N   0  0  0  0  0  0  0  0  0  0  0  0
   46.0280   33.5580   45.5290 C   0  0  0  0  0  0  0  0  0  0  0  0
   45.0320   34.4600   45.6520 N   0  0  0  0  0  0  0  0  0  0  0  0
   47.4990   34.3230   42.2080 C   0  0  0  0  0  0  0  0  0  0  0  0
   46.8100   34.3010   40.8970 C   0  0  0  0  0  0  0  0  0  0  0  0
   47.9980   34.4240   39.9560 C   0  0  0  0  0  0  0  0  0  0  0  0
   48.8200   35.4960   40.6400 C   0  0  0  0  0  0  0  0  0  0  0  0
   48.4300   35.5170   42.1000 C   0  0  0  0  0  0  0  0  0  0  0  0
   46.2330   32.6090   46.6470 C   0  0  0  0  0  0  0  0  0  0  0  0
   46.0040   31.1950   46.1800 C   0  0  0  0  0  0  0  0  0  0  0  0
   45.6130   30.2360   47.2420 C   0  0  0  0  0  0  0  0  0  0  0  0
   45.8710   30.6730   48.6370 C   0  0  0  0  0  0  0  0  0  0  0  0
   45.6250   32.1080   48.9440 C   0  0  0  0  0  0  0  0  0  0  0  0
   45.2450   32.9170   47.7250 C   0  0  0  0  0  0  0  0  0  0  0  0
   43.9921   36.0709   44.7756 H   0  0  0  0  0  0  0  0  0  0  0  0
   45.4075   36.0556   42.7043 H   0  0  0  0  0  0  0  0  0  0  0  0
   48.0162   33.3682   42.3836 H   0  0  0  0  0  0  0  0  0  0  0  0
   46.2645   33.3586   40.7409 H   0  0  0  0  0  0  0  0  0  0  0  0
   46.0427   35.0789   40.7699 H   0  0  0  0  0  0  0  0  0  0  0  0
   47.6826   34.7405   38.9509 H   0  0  0  0  0  0  0  0  0  0  0  0
   48.5397   33.4804   39.7942 H   0  0  0  0  0  0  0  0  0  0  0  0
   49.8911   35.2654   40.5422 H   0  0  0  0  0  0  0  0  0  0  0  0
   48.6325   36.4767   40.1784 H   0  0  0  0  0  0  0  0  0  0  0  0
   49.3101   35.3949   42.7484 H   0  0  0  0  0  0  0  0  0  0  0  0
   47.9681   36.4636   42.4171 H   0  0  0  0  0  0  0  0  0  0  0  0
   47.2634   32.7081   47.0191 H   0  0  0  0  0  0  0  0  0  0  0  0
   45.2046   31.2111   45.4245 H   0  0  0  0  0  0  0  0  0  0  0  0
   46.9697   30.8417   45.7893 H   0  0  0  0  0  0  0  0  0  0  0  0
   44.5343   30.0446   47.1428 H   0  0  0  0  0  0  0  0  0  0  0  0
   46.2425   29.3473   47.0871 H   0  0  0  0  0  0  0  0  0  0  0  0
   45.2262   30.0754   49.2982 H   0  0  0  0  0  0  0  0  0  0  0  0
   46.9500   30.5252   48.7914 H   0  0  0  0  0  0  0  0  0  0  0  0
   44.8077   32.1743   49.6772 H   0  0  0  0  0  0  0  0  0  0  0  0
   46.5640   32.5258   49.3361 H   0  0  0  0  0  0  0  0  0  0  0  0
   45.2743   33.9903   47.9640 H   0  0  0  0  0  0  0  0  0  0  0  0
   44.2263   32.6627   47.3970 H   0  0  0  0  0  0  0  0  0  0  0  0
  1  6  2  0
  2  1  1  0
  3  2  2  0
  3  4  1  0
  4  5  2  0
  5  6  1  0
  5 12  1  0
  7  3  1  0
  8  7  1  0
  9 10  1  0
  9  8  1  0
 10 11  1  0
 11  7  1  0
 12 17  1  0
 13 12  1  0
 13 14  1  0
 14 15  1  0
 15 16  1  0
 17 16  1  0
  1 18  1  0
  2 19  1  0
  7 20  1  0
  8 21  1  0
  8 22  1  0
  9 23  1  0
  9 24  1  0
 10 25  1  0
 10 26  1  0
 11 27  1  0
 11 28  1  0
 12 29  1  0
 13 30  1  0
 13 31  1  0
 14 32  1  0
 14 33  1  0
 15 34  1  0
 15 35  1  0
 16 36  1  0
 16 37  1  0
 17 38  1  0
 17 39  1  0
M  ISO  8  18  14  19  14  20  13  21  13  22  13  23  13  24  13  25  13
M  ISO  8  26  13  27  13  28  13  29  13  30  13  31  13  32  13  33  13
M  ISO  6  34  13  35  13  36  13  37  13  38  13  39  13
M  END
>  <minimizedAffinity>  (1) 
-6.14089775

>  <minimizedRMSD>  (1) 
1.11240745

$$$$
