
     RDKit          3D

 29 31  0  0  0  0  0  0  0  0999 V2000
   44.5480   35.7270   44.6240 C   0  0  0  0  0  0  0  0  0  0  0  0
   45.2970   35.5450   43.4350 C   0  0  0  0  0  0  0  0  0  0  0  0
   46.2650   34.5290   43.3950 C   0  0  0  0  0  0  0  0  0  0  0  0
   46.4270   33.7770   44.5000 N   0  0  0  0  0  0  0  0  0  0  0  0
   45.7070   33.9580   45.6270 C   0  0  0  0  0  0  0  0  0  0  0  0
   44.7680   34.9340   45.6860 N   0  0  0  0  0  0  0  0  0  0  0  0
   47.0770   34.2900   42.1990 C   0  0  0  0  0  0  0  0  0  0  0  0
   46.3560   34.2920   40.9060 C   0  0  0  0  0  0  0  0  0  0  0  0
   47.5400   34.1740   39.9450 C   0  0  0  0  0  0  0  0  0  0  0  0
   48.5210   35.1610   40.5460 C   0  0  0  0  0  0  0  0  0  0  0  0
   48.1420   35.3560   42.0020 C   0  0  0  0  0  0  0  0  0  0  0  0
   45.9980   33.0520   46.7590 C   0  0  0  0  0  0  0  0  0  0  0  0
   45.0710   32.8200   47.7660 C   0  0  0  0  0  0  0  0  0  0  0  0
   45.9400   31.6510   48.8720 S   0  0  0  0  0  0  0  0  0  0  0  0
   47.4650   31.6840   47.7330 C   0  0  0  0  0  0  0  0  0  0  0  0
   47.1320   32.3930   46.9220 N   0  0  0  0  0  0  0  0  0  0  0  0
   43.7857   36.5183   44.6776 H   0  0  0  0  0  0  0  0  0  0  0  0
   45.1232   36.1879   42.5595 H   0  0  0  0  0  0  0  0  0  0  0  0
   47.4716   33.2863   42.4155 H   0  0  0  0  0  0  0  0  0  0  0  0
   45.6715   33.4354   40.8184 H   0  0  0  0  0  0  0  0  0  0  0  0
   45.7064   35.1636   40.7378 H   0  0  0  0  0  0  0  0  0  0  0  0
   47.2567   34.4623   38.9219 H   0  0  0  0  0  0  0  0  0  0  0  0
   47.9365   33.1526   39.8473 H   0  0  0  0  0  0  0  0  0  0  0  0
   49.5442   34.7634   40.4748 H   0  0  0  0  0  0  0  0  0  0  0  0
   48.4851   36.1186   40.0060 H   0  0  0  0  0  0  0  0  0  0  0  0
   49.0034   35.1872   42.6649 H   0  0  0  0  0  0  0  0  0  0  0  0
   47.7982   36.3740   42.2374 H   0  0  0  0  0  0  0  0  0  0  0  0
   44.0591   33.2379   47.8728 H   0  0  0  0  0  0  0  0  0  0  0  0
   48.4213   31.1507   47.8385 H   0  0  0  0  0  0  0  0  0  0  0  0
  1  6  2  0
  2  1  1  0
  3  2  2  0
  3  4  1  0
  4  5  2  0
  5  6  1  0
  5 12  1  0
  7  3  1  0
  8  7  1  0
  9 10  1  0
  9  8  1  0
 10 11  1  0
 11  7  1  0
 12 16  1  0
 12 13  2  0
 13 14  1  0
 15 14  1  0
 16 15  2  0
  1 17  1  0
  2 18  1  0
  7 19  1  0
  8 20  1  0
  8 21  1  0
  9 22  1  0
  9 23  1  0
 10 24  1  0
 10 25  1  0
 11 26  1  0
 11 27  1  0
 13 28  1  0
 15 29  1  0
M  ISO  8  17  14  18  14  19  13  20  13  21  13  22  13  23  13  24  13
M  ISO  5  25  13  26  13  27  13  28  14  29  14
M  END
>  <minimizedAffinity>  (1) 
-5.77232504

>  <minimizedRMSD>  (1) 
0.326467544

$$$$
