
     RDKit          3D

 26 27  0  0  0  0  0  0  0  0999 V2000
   47.1880   34.3170   42.1590 C   0  0  0  0  0  0  0  0  0  0  0  0
   46.4830   34.2780   40.8570 C   0  0  0  0  0  0  0  0  0  0  0  0
   47.6620   34.2210   39.8990 C   0  0  0  0  0  0  0  0  0  0  0  0
   48.5920   35.2390   40.4980 C   0  0  0  0  0  0  0  0  0  0  0  0
   48.2290   35.4030   41.9630 C   0  0  0  0  0  0  0  0  0  0  0  0
   44.6400   35.7360   44.5720 C   0  0  0  0  0  0  0  0  0  0  0  0
   45.4120   35.5900   43.4020 C   0  0  0  0  0  0  0  0  0  0  0  0
   46.3460   34.5370   43.3360 C   0  0  0  0  0  0  0  0  0  0  0  0
   46.4490   33.7250   44.4080 N   0  0  0  0  0  0  0  0  0  0  0  0
   45.6890   33.8930   45.5210 C   0  0  0  0  0  0  0  0  0  0  0  0
   44.7880   34.9000   45.5960 N   0  0  0  0  0  0  0  0  0  0  0  0
   45.8190   32.9800   46.6970 C   0  0  0  0  0  0  0  0  0  0  0  0
   44.8850   33.2780   47.6600 F   0  0  0  0  0  0  0  0  0  0  0  0
   47.1050   33.0700   47.2170 F   0  0  0  0  0  0  0  0  0  0  0  0
   45.6220   31.6760   46.2650 F   0  0  0  0  0  0  0  0  0  0  0  0
   47.6160   33.3323   42.3984 H   0  0  0  0  0  0  0  0  0  0  0  0
   45.8452   33.3862   40.7681 H   0  0  0  0  0  0  0  0  0  0  0  0
   45.7955   35.1193   40.6850 H   0  0  0  0  0  0  0  0  0  0  0  0
   47.3632   34.5025   38.8785 H   0  0  0  0  0  0  0  0  0  0  0  0
   48.1043   33.2192   39.7949 H   0  0  0  0  0  0  0  0  0  0  0  0
   49.6322   34.8928   40.4079 H   0  0  0  0  0  0  0  0  0  0  0  0
   48.4964   36.1999   39.9712 H   0  0  0  0  0  0  0  0  0  0  0  0
   49.1027   35.2396   42.6110 H   0  0  0  0  0  0  0  0  0  0  0  0
   47.8693   36.4106   42.2186 H   0  0  0  0  0  0  0  0  0  0  0  0
   43.9054   36.5520   44.6393 H   0  0  0  0  0  0  0  0  0  0  0  0
   45.2880   36.2839   42.5575 H   0  0  0  0  0  0  0  0  0  0  0  0
  1  8  1  0
  2  1  1  0
  3  4  1  0
  3  2  1  0
  4  5  1  0
  5  1  1  0
  6 11  2  0
  7  6  1  0
  8  7  2  0
  8  9  1  0
  9 10  2  0
 10 11  1  0
 10 12  1  0
 12 14  1  0
 12 13  1  0
 15 12  1  0
  1 16  1  0
  2 17  1  0
  2 18  1  0
  3 19  1  0
  3 20  1  0
  4 21  1  0
  4 22  1  0
  5 23  1  0
  5 24  1  0
  6 25  1  0
  7 26  1  0
M  ISO  8  16  13  17  13  18  13  19  13  20  13  21  13  22  13  23  13
M  ISO  3  24  13  25  14  26  14
M  END
>  <minimizedAffinity>  (1) 
-5.61706638

>  <minimizedRMSD>  (1) 
0.316518188

$$$$
