
     RDKit          3D

 26 27  0  0  0  0  0  0  0  0999 V2000
   47.0990   34.3750   42.1410 C   0  0  0  0  0  0  0  0  0  0  0  0
   46.4390   34.3180   40.8180 C   0  0  0  0  0  0  0  0  0  0  0  0
   47.6580   34.1420   39.9170 C   0  0  0  0  0  0  0  0  0  0  0  0
   48.6000   35.1790   40.4940 C   0  0  0  0  0  0  0  0  0  0  0  0
   48.1790   35.4210   41.9160 C   0  0  0  0  0  0  0  0  0  0  0  0
   44.5730   36.0650   44.3960 C   0  0  0  0  0  0  0  0  0  0  0  0
   45.3540   35.8440   43.2440 C   0  0  0  0  0  0  0  0  0  0  0  0
   46.2160   34.7280   43.2660 C   0  0  0  0  0  0  0  0  0  0  0  0
   46.2330   33.9490   44.3890 N   0  0  0  0  0  0  0  0  0  0  0  0
   45.4640   34.2050   45.4680 C   0  0  0  0  0  0  0  0  0  0  0  0
   44.6360   35.2660   45.4620 N   0  0  0  0  0  0  0  0  0  0  0  0
   45.5360   33.3280   46.6310 C   0  0  0  0  0  0  0  0  0  0  0  0
   46.3790   32.4040   46.6590 O   0  0  0  0  0  0  0  0  0  0  0  0
   44.6800   33.5140   47.6990 O   0  0  0  0  0  0  0  0  0  0  0  0
   47.4713   33.3872   42.4503 H   0  0  0  0  0  0  0  0  0  0  0  0
   45.7498   33.4640   40.7427 H   0  0  0  0  0  0  0  0  0  0  0  0
   45.8090   35.1873   40.5782 H   0  0  0  0  0  0  0  0  0  0  0  0
   47.4168   34.3567   38.8655 H   0  0  0  0  0  0  0  0  0  0  0  0
   48.0650   33.1202   39.9013 H   0  0  0  0  0  0  0  0  0  0  0  0
   49.6343   34.8056   40.4657 H   0  0  0  0  0  0  0  0  0  0  0  0
   48.5586   36.1109   39.9110 H   0  0  0  0  0  0  0  0  0  0  0  0
   49.0216   35.2731   42.6075 H   0  0  0  0  0  0  0  0  0  0  0  0
   47.8283   36.4484   42.0933 H   0  0  0  0  0  0  0  0  0  0  0  0
   43.8882   36.9256   44.4167 H   0  0  0  0  0  0  0  0  0  0  0  0
   45.2942   36.5095   42.3702 H   0  0  0  0  0  0  0  0  0  0  0  0
   44.7332   32.9158   48.4860 H   0  0  0  0  0  0  0  0  0  0  0  0
  1  8  1  0
  2  1  1  0
  3  4  1  0
  3  2  1  0
  4  5  1  0
  5  1  1  0
  6 11  2  0
  7  8  2  0
  7  6  1  0
  8  9  1  0
  9 10  2  0
 10 12  1  0
 11 10  1  0
 12 13  2  0
 12 14  1  0
  1 15  1  0
  2 16  1  0
  2 17  1  0
  3 18  1  0
  3 19  1  0
  4 20  1  0
  4 21  1  0
  5 22  1  0
  5 23  1  0
  6 24  1  0
  7 25  1  0
 14 26  1  0
M  ISO  8  15  13  16  13  17  13  18  13  19  13  20  13  21  13  22  13
M  ISO  4  23  13  24  14  25  14  26   3
M  END
>  <minimizedAffinity>  (1) 
-5.6851244

>  <minimizedRMSD>  (1) 
0.105021738

$$$$
