
     RDKit          3D

 30 32  0  0  0  0  0  0  0  0999 V2000
   47.0700   34.2920   42.2190 C   0  0  0  0  0  0  0  0  0  0  0  0
   46.3470   34.3150   40.9190 C   0  0  0  0  0  0  0  0  0  0  0  0
   47.5190   34.1770   39.9610 C   0  0  0  0  0  0  0  0  0  0  0  0
   48.4980   35.1820   40.5540 C   0  0  0  0  0  0  0  0  0  0  0  0
   48.1650   35.3220   42.0230 C   0  0  0  0  0  0  0  0  0  0  0  0
   44.6130   35.7880   44.6690 C   0  0  0  0  0  0  0  0  0  0  0  0
   45.3660   35.6210   43.4950 C   0  0  0  0  0  0  0  0  0  0  0  0
   46.2590   34.5340   43.4070 C   0  0  0  0  0  0  0  0  0  0  0  0
   46.3480   33.6990   44.4670 N   0  0  0  0  0  0  0  0  0  0  0  0
   45.5950   33.8980   45.5950 C   0  0  0  0  0  0  0  0  0  0  0  0
   44.7370   34.9310   45.6940 N   0  0  0  0  0  0  0  0  0  0  0  0
   45.6920   32.9790   46.7620 C   0  0  0  0  0  0  0  0  0  0  0  0
   46.1980   31.5950   46.6000 C   0  0  0  0  0  0  0  0  0  0  0  0
   47.0280   32.5960   47.3240 C   0  0  0  0  0  0  0  0  0  0  0  0
   47.4452   33.2819   42.4404 H   0  0  0  0  0  0  0  0  0  0  0  0
   45.6444   33.4735   40.8280 H   0  0  0  0  0  0  0  0  0  0  0  0
   45.7175   35.2021   40.7553 H   0  0  0  0  0  0  0  0  0  0  0  0
   47.2349   34.4476   38.9334 H   0  0  0  0  0  0  0  0  0  0  0  0
   47.9155   33.1547   39.8734 H   0  0  0  0  0  0  0  0  0  0  0  0
   49.5292   34.8182   40.4349 H   0  0  0  0  0  0  0  0  0  0  0  0
   48.4174   36.1524   40.0424 H   0  0  0  0  0  0  0  0  0  0  0  0
   49.0393   35.0951   42.6508 H   0  0  0  0  0  0  0  0  0  0  0  0
   47.8603   36.3406   42.3052 H   0  0  0  0  0  0  0  0  0  0  0  0
   43.9125   36.6324   44.7491 H   0  0  0  0  0  0  0  0  0  0  0  0
   45.2605   36.3270   42.6580 H   0  0  0  0  0  0  0  0  0  0  0  0
   44.7744   33.4284   47.1695 H   0  0  0  0  0  0  0  0  0  0  0  0
   45.7261   30.7703   47.1542 H   0  0  0  0  0  0  0  0  0  0  0  0
   46.3639   30.9268   45.7421 H   0  0  0  0  0  0  0  0  0  0  0  0
   47.9503   32.9825   46.8657 H   0  0  0  0  0  0  0  0  0  0  0  0
   47.5016   32.6470   48.3155 H   0  0  0  0  0  0  0  0  0  0  0  0
  1  8  1  0
  2  1  1  0
  3  4  1  0
  3  2  1  0
  4  5  1  0
  5  1  1  0
  6 11  2  0
  7  6  1  0
  8  7  2  0
  8  9  1  0
  9 10  2  0
 10 11  1  0
 10 12  1  0
 12 14  1  0
 13 12  1  0
 13 14  1  0
  1 15  1  0
  2 16  1  0
  2 17  1  0
  3 18  1  0
  3 19  1  0
  4 20  1  0
  4 21  1  0
  5 22  1  0
  5 23  1  0
  6 24  1  0
  7 25  1  0
 12 26  1  0
 13 27  1  0
 13 28  1  0
 14 29  1  0
 14 30  1  0
M  ISO  8  15  13  16  13  17  13  18  13  19  13  20  13  21  13  22  13
M  ISO  8  23  13  24  14  25  14  26  13  27  13  28  13  29  13  30  13
M  END
>  <minimizedAffinity>  (1) 
-5.25383425

>  <minimizedRMSD>  (1) 
0.229408219

$$$$
