
     RDKit          3D

 36 38  0  0  0  0  0  0  0  0999 V2000
   45.1840   35.8790   42.9370 C   0  0  0  0  0  0  0  0  0  0  0  0
   45.7880   35.4690   41.7280 C   0  0  0  0  0  0  0  0  0  0  0  0
   46.5100   34.2600   41.7150 C   0  0  0  0  0  0  0  0  0  0  0  0
   46.5770   33.5660   42.8700 N   0  0  0  0  0  0  0  0  0  0  0  0
   45.9930   33.9730   44.0180 C   0  0  0  0  0  0  0  0  0  0  0  0
   45.3000   35.1260   44.0450 N   0  0  0  0  0  0  0  0  0  0  0  0
   47.1710   33.7520   40.5170 C   0  0  0  0  0  0  0  0  0  0  0  0
   46.2900   33.4250   39.3730 C   0  0  0  0  0  0  0  0  0  0  0  0
   47.3260   33.1280   38.2950 C   0  0  0  0  0  0  0  0  0  0  0  0
   48.2910   34.2740   38.4900 C   0  0  0  0  0  0  0  0  0  0  0  0
   48.1390   34.7510   39.9070 C   0  0  0  0  0  0  0  0  0  0  0  0
   46.3830   31.5840   47.4860 C   0  0  0  0  0  0  0  0  0  0  0  0
   45.5730   32.7160   47.4970 C   0  0  0  0  0  0  0  0  0  0  0  0
   45.4250   33.5250   46.3640 C   0  0  0  0  0  0  0  0  0  0  0  0
   46.1140   33.1630   45.2250 C   0  0  0  0  0  0  0  0  0  0  0  0
   46.9150   32.0390   45.2230 C   0  0  0  0  0  0  0  0  0  0  0  0
   47.0690   31.2330   46.3310 C   0  0  0  0  0  0  0  0  0  0  0  0
   46.5220   30.6180   48.9400 S   0  0  0  0  0  0  0  0  0  0  0  0
   45.4880   31.1180   49.9120 O   0  0  0  0  0  0  0  0  0  0  0  0
   47.8630   30.8840   49.5670 O   0  0  0  0  0  0  0  0  0  0  0  0
   44.6153   36.8199   42.9725 H   0  0  0  0  0  0  0  0  0  0  0  0
   45.6966   36.0798   40.8177 H   0  0  0  0  0  0  0  0  0  0  0  0
   47.6446   32.8468   40.9247 H   0  0  0  0  0  0  0  0  0  0  0  0
   45.6610   32.5475   39.5836 H   0  0  0  0  0  0  0  0  0  0  0  0
   45.5707   34.2146   39.1101 H   0  0  0  0  0  0  0  0  0  0  0  0
   46.8783   33.1448   37.2904 H   0  0  0  0  0  0  0  0  0  0  0  0
   47.7865   32.1322   38.3742 H   0  0  0  0  0  0  0  0  0  0  0  0
   49.3219   33.9315   38.3168 H   0  0  0  0  0  0  0  0  0  0  0  0
   48.0778   35.0873   37.7807 H   0  0  0  0  0  0  0  0  0  0  0  0
   49.1049   34.7338   40.4331 H   0  0  0  0  0  0  0  0  0  0  0  0
   47.7808   35.7889   39.9730 H   0  0  0  0  0  0  0  0  0  0  0  0
   45.0356   32.9817   48.4193 H   0  0  0  0  0  0  0  0  0  0  0  0
   44.7822   34.4175   46.3814 H   0  0  0  0  0  0  0  0  0  0  0  0
   47.4523   31.7755   44.3000 H   0  0  0  0  0  0  0  0  0  0  0  0
   47.7135   30.3421   46.3010 H   0  0  0  0  0  0  0  0  0  0  0  0
   46.3653   29.2886   48.6485 H   0  0  0  0  0  0  0  0  0  0  0  0
  1  6  2  0
  2  1  1  0
  3  2  2  0
  3  4  1  0
  4  5  2  0
  5  6  1  0
  5 15  1  0
  7  3  1  0
  8  7  1  0
  9 10  1  0
  9  8  1  0
 10 11  1  0
 11  7  1  0
 12 13  2  0
 12 18  1  0
 14 13  1  0
 15 14  2  0
 16 15  1  0
 16 17  2  0
 17 12  1  0
 18 20  2  0
 18 19  2  0
  1 21  1  0
  2 22  1  0
  7 23  1  0
  8 24  1  0
  8 25  1  0
  9 26  1  0
  9 27  1  0
 10 28  1  0
 10 29  1  0
 11 30  1  0
 11 31  1  0
 13 32  1  0
 14 33  1  0
 16 34  1  0
 17 35  1  0
 18 36  1  0
M  ISO  8  21  14  22  14  23  13  24  13  25  13  26  13  27  13  28  13
M  ISO  8  29  13  30  13  31  13  32  14  33  14  34  14  35  14  36  11
M  END
>  <minimizedAffinity>  (1) 
-4.84093046

>  <minimizedRMSD>  (1) 
1.69452918

$$$$
