
     RDKit          3D

 42 44  0  0  0  0  0  0  0  0999 V2000
   44.8220   35.3100   44.4060 C   0  0  0  0  0  0  0  0  0  0  0  0
   45.5830   35.2840   43.2200 C   0  0  0  0  0  0  0  0  0  0  0  0
   46.6970   34.4330   43.1720 C   0  0  0  0  0  0  0  0  0  0  0  0
   46.9550   33.7030   44.2680 N   0  0  0  0  0  0  0  0  0  0  0  0
   46.2380   33.7220   45.3980 C   0  0  0  0  0  0  0  0  0  0  0  0
   45.1600   34.5440   45.4470 N   0  0  0  0  0  0  0  0  0  0  0  0
   47.5520   34.3370   41.9830 C   0  0  0  0  0  0  0  0  0  0  0  0
   46.8710   34.2770   40.6810 C   0  0  0  0  0  0  0  0  0  0  0  0
   48.0270   34.3880   39.7210 C   0  0  0  0  0  0  0  0  0  0  0  0
   48.8590   35.4790   40.3640 C   0  0  0  0  0  0  0  0  0  0  0  0
   48.4530   35.5650   41.8190 C   0  0  0  0  0  0  0  0  0  0  0  0
   46.6200   32.8820   46.5330 C   0  0  0  0  0  0  0  0  0  0  0  0
   45.4980   32.1490   47.1980 C   0  0  0  0  0  0  0  0  0  0  0  0
   45.5220   30.7200   46.8000 C   0  0  0  0  0  0  0  0  0  0  0  0
   44.9580   29.7500   47.7860 C   0  0  0  0  0  0  0  0  0  0  0  0
   45.6520   29.9710   49.1120 C   0  0  0  0  0  0  0  0  0  0  0  0
   45.2160   31.3390   49.5850 C   0  0  0  0  0  0  0  0  0  0  0  0
   45.5970   32.4340   48.6640 C   0  0  0  0  0  0  0  0  0  0  0  0
   43.9422   35.9666   44.4751 H   0  0  0  0  0  0  0  0  0  0  0  0
   45.3117   35.9118   42.3585 H   0  0  0  0  0  0  0  0  0  0  0  0
   48.0752   33.3921   42.1915 H   0  0  0  0  0  0  0  0  0  0  0  0
   46.3348   33.3251   40.5533 H   0  0  0  0  0  0  0  0  0  0  0  0
   46.1034   35.0530   40.5444 H   0  0  0  0  0  0  0  0  0  0  0  0
   47.6872   34.6823   38.7170 H   0  0  0  0  0  0  0  0  0  0  0  0
   48.5711   33.4444   39.5674 H   0  0  0  0  0  0  0  0  0  0  0  0
   49.9278   35.2307   40.2867 H   0  0  0  0  0  0  0  0  0  0  0  0
   48.6920   36.4415   39.8583 H   0  0  0  0  0  0  0  0  0  0  0  0
   49.3297   35.5064   42.4808 H   0  0  0  0  0  0  0  0  0  0  0  0
   47.9577   36.5114   42.0816 H   0  0  0  0  0  0  0  0  0  0  0  0
   47.3459   32.1374   46.1744 H   0  0  0  0  0  0  0  0  0  0  0  0
   47.0257   33.5666   47.2924 H   0  0  0  0  0  0  0  0  0  0  0  0
   44.5014   32.4877   46.8786 H   0  0  0  0  0  0  0  0  0  0  0  0
   44.9476   30.6220   45.8670 H   0  0  0  0  0  0  0  0  0  0  0  0
   46.5865   30.4588   46.7068 H   0  0  0  0  0  0  0  0  0  0  0  0
   43.8768   29.9186   47.8983 H   0  0  0  0  0  0  0  0  0  0  0  0
   45.1174   28.7182   47.4396 H   0  0  0  0  0  0  0  0  0  0  0  0
   45.3478   29.2009   49.8361 H   0  0  0  0  0  0  0  0  0  0  0  0
   46.7455   29.9083   49.0109 H   0  0  0  0  0  0  0  0  0  0  0  0
   44.1210   31.3380   49.6899 H   0  0  0  0  0  0  0  0  0  0  0  0
   45.7277   31.5282   50.5402 H   0  0  0  0  0  0  0  0  0  0  0  0
   46.6414   32.7027   48.8808 H   0  0  0  0  0  0  0  0  0  0  0  0
   44.8661   33.2345   48.8512 H   0  0  0  0  0  0  0  0  0  0  0  0
  1  6  2  0
  2  1  1  0
  3  2  2  0
  3  4  1  0
  4  5  2  0
  5  6  1  0
  5 12  1  0
  7  3  1  0
  8  7  1  0
  9 10  1  0
  9  8  1  0
 10 11  1  0
 11  7  1  0
 12 13  1  0
 13 18  1  0
 14 13  1  0
 14 15  1  0
 15 16  1  0
 16 17  1  0
 18 17  1  0
  1 19  1  0
  2 20  1  0
  7 21  1  0
  8 22  1  0
  8 23  1  0
  9 24  1  0
  9 25  1  0
 10 26  1  0
 10 27  1  0
 11 28  1  0
 11 29  1  0
 12 30  1  0
 12 31  1  0
 13 32  1  0
 14 33  1  0
 14 34  1  0
 15 35  1  0
 15 36  1  0
 16 37  1  0
 16 38  1  0
 17 39  1  0
 17 40  1  0
 18 41  1  0
 18 42  1  0
M  ISO  8  19  14  20  14  21  13  22  13  23  13  24  13  25  13  26  13
M  ISO  8  27  13  28  13  29  13  30   8  31   8  32  13  33  13  34  13
M  ISO  8  35  13  36  13  37  13  38  13  39  13  40  13  41  13  42  13
M  END
>  <minimizedAffinity>  (1) 
-5.98323679

>  <minimizedRMSD>  (1) 
1.40280199

$$$$
