
     RDKit          3D

 45 48  0  0  1  0  0  0  0  0999 V2000
   45.6320   34.1790   42.2320 C   0  0  0  0  0  0  0  0  0  0  0  0
   47.0230   34.2790   42.3200 C   0  0  0  0  0  0  0  0  0  0  0  0
   47.6470   33.9160   43.5330 C   0  0  0  0  0  0  0  0  0  0  0  0
   46.8950   33.4900   44.5560 N   0  0  0  0  0  0  0  0  0  0  0  0
   45.5520   33.3960   44.4620 C   0  0  0  0  0  0  0  0  0  0  0  0
   44.9540   33.7360   43.3240 N   0  0  0  0  0  0  0  0  0  0  0  0
   44.8470   34.5530   41.1080 C   0  0  0  0  0  0  0  0  0  0  0  0
   43.9670   33.3550   40.6420 C   0  0  0  0  0  0  0  0  0  0  0  0
   43.0180   34.1130   39.6820 C   0  0  0  0  0  0  0  0  0  0  0  0
   42.8890   35.4740   40.2810 C   0  0  0  0  0  0  0  0  0  0  0  0
   43.7570   35.4910   41.5240 C   0  0  0  0  0  0  0  0  0  0  0  0
   47.8280   34.7640   41.1900 C   0  0  1  0  0  0  0  0  0  0  0  0
   48.8250   35.7880   41.5650 C   0  0  0  0  0  0  0  0  0  0  0  0
   48.3900   33.5690   40.4670 C   0  0  0  0  0  0  0  0  0  0  0  0
   47.9530   33.5140   39.0840 N   0  0  0  0  0  0  0  0  0  0  0  0
   48.4370   34.4760   38.3210 N   0  0  0  0  0  0  0  0  0  0  0  0
   47.9790   34.3370   37.0680 C   0  0  0  0  0  0  0  0  0  0  0  0
   47.1680   33.2350   37.0360 C   0  0  0  0  0  0  0  0  0  0  0  0
   47.1690   32.7360   38.3160 C   0  0  0  0  0  0  0  0  0  0  0  0
   46.5400   31.6240   38.9470 N   0  0  0  0  0  0  0  0  0  0  0  0
   46.6800   30.8800   40.0600 C   0  0  0  0  0  0  0  0  0  0  0  0
   45.7210   29.9320   40.0740 N   0  0  0  0  0  0  0  0  0  0  0  0
   44.9730   30.0910   38.9500 C   0  0  0  0  0  0  0  0  0  0  0  0
   45.4920   31.1210   38.2870 N   0  0  0  0  0  0  0  0  0  0  0  0
   48.7401   33.9824   43.6370 H   0  0  0  0  0  0  0  0  0  0  0  0
   44.9583   33.0419   45.3177 H   0  0  0  0  0  0  0  0  0  0  0  0
   45.5600   34.9435   40.3670 H   0  0  0  0  0  0  0  0  0  0  0  0
   44.5572   32.5883   40.1188 H   0  0  0  0  0  0  0  0  0  0  0  0
   43.4742   32.7884   41.4458 H   0  0  0  0  0  0  0  0  0  0  0  0
   42.0380   33.6160   39.6315 H   0  0  0  0  0  0  0  0  0  0  0  0
   43.4028   34.1442   38.6520 H   0  0  0  0  0  0  0  0  0  0  0  0
   43.2352   36.2360   39.5672 H   0  0  0  0  0  0  0  0  0  0  0  0
   41.8409   35.6978   40.5290 H   0  0  0  0  0  0  0  0  0  0  0  0
   43.2134   35.1171   42.4042 H   0  0  0  0  0  0  0  0  0  0  0  0
   44.1029   36.4899   41.8280 H   0  0  0  0  0  0  0  0  0  0  0  0
   47.1839   35.3185   40.4917 H   0  0  0  0  0  0  0  0  0  0  0  0
   48.8888   35.8535   42.6612 H   0  0  0  0  0  0  0  0  0  0  0  0
   49.8077   35.5099   41.1565 H   0  0  0  0  0  0  0  0  0  0  0  0
   48.5207   36.7629   41.1565 H   0  0  0  0  0  0  0  0  0  0  0  0
   49.4884   33.6243   40.4903 H   0  0  0  0  0  0  0  0  0  0  0  0
   48.0259   32.6634   40.9742 H   0  0  0  0  0  0  0  0  0  0  0  0
   48.2137   34.9928   36.2166 H   0  0  0  0  0  0  0  0  0  0  0  0
   46.6278   32.8326   36.1664 H   0  0  0  0  0  0  0  0  0  0  0  0
   47.4507   31.0221   40.8319 H   0  0  0  0  0  0  0  0  0  0  0  0
   44.1062   29.4851   38.6473 H   0  0  0  0  0  0  0  0  0  0  0  0
  1  2  1  0
  1  6  2  0
  2  3  2  0
  3  4  1  0
  5  4  2  0
  6  5  1  0
  7 11  1  0
  7  1  1  0
  8  7  1  0
  9 10  1  0
  9  8  1  0
 10 11  1  0
 12 13  1  0
 12  2  1  0
 14 12  1  0
 15 14  1  0
 16 15  1  0
 17 16  2  0
 18 17  1  0
 18 19  2  0
 19 20  1  0
 19 15  1  0
 20 21  1  0
 21 22  2  0
 23 22  1  0
 24 20  1  0
 24 23  2  0
  3 25  1  0
  5 26  1  0
  7 27  1  0
  8 28  1  0
  8 29  1  0
  9 30  1  0
  9 31  1  0
 10 32  1  0
 10 33  1  0
 11 34  1  0
 11 35  1  0
 12 36  1  6
 13 37  1  0
 13 38  1  0
 13 39  1  0
 14 40  1  0
 14 41  1  0
 17 42  1  0
 18 43  1  0
 21 44  1  0
 23 45  1  0
M  ISO  8  25  14  26  14  27  13  28  13  29  13  30  13  31  13  32  13
M  ISO  8  33  13  34  13  35  13  36   8  37   8  38   8  39   8  40   8
M  ISO  5  41   8  42  14  43  14  44  14  45  14
M  END
>  <minimizedAffinity>  (1) 
-4.96608067

>  <minimizedRMSD>  (1) 
1.16222584

$$$$
