
     RDKit          3D

 37 39  0  0  0  0  0  0  0  0999 V2000
   44.8160   35.1510   44.4930 C   0  0  0  0  0  0  0  0  0  0  0  0
   45.5580   35.1610   43.2990 C   0  0  0  0  0  0  0  0  0  0  0  0
   46.7270   34.3580   43.2430 C   0  0  0  0  0  0  0  0  0  0  0  0
   47.0280   33.6460   44.3490 N   0  0  0  0  0  0  0  0  0  0  0  0
   46.3050   33.6490   45.4820 C   0  0  0  0  0  0  0  0  0  0  0  0
   45.2020   34.4020   45.5480 N   0  0  0  0  0  0  0  0  0  0  0  0
   47.5870   34.2900   42.0490 C   0  0  0  0  0  0  0  0  0  0  0  0
   46.8770   34.2560   40.7640 C   0  0  0  0  0  0  0  0  0  0  0  0
   48.0350   34.4390   39.7960 C   0  0  0  0  0  0  0  0  0  0  0  0
   48.8510   35.5120   40.4610 C   0  0  0  0  0  0  0  0  0  0  0  0
   48.4640   35.5380   41.9200 C   0  0  0  0  0  0  0  0  0  0  0  0
   46.7290   32.8300   46.6390 C   0  0  0  0  0  0  0  0  0  0  0  0
   46.0240   31.5670   46.6780 N   0  0  0  0  0  0  0  0  0  0  0  0
   46.0030   30.7920   45.5770 C   0  0  0  0  0  0  0  0  0  0  0  0
   45.3760   29.5670   45.4600 C   0  0  0  0  0  0  0  0  0  0  0  0
   44.7170   29.1290   46.6110 C   0  0  0  0  0  0  0  0  0  0  0  0
   44.0570   27.8680   46.5320 N   0  0  0  0  0  0  0  0  0  0  0  0
   44.7350   29.9010   47.7170 N   0  0  0  0  0  0  0  0  0  0  0  0
   45.3700   31.0850   47.7490 C   0  0  0  0  0  0  0  0  0  0  0  0
   45.3650   31.7760   48.7970 O   0  0  0  0  0  0  0  0  0  0  0  0
   43.9056   35.7637   44.5690 H   0  0  0  0  0  0  0  0  0  0  0  0
   45.2437   35.7697   42.4384 H   0  0  0  0  0  0  0  0  0  0  0  0
   48.1394   33.3534   42.2152 H   0  0  0  0  0  0  0  0  0  0  0  0
   46.3670   33.2939   40.6083 H   0  0  0  0  0  0  0  0  0  0  0  0
   46.0770   35.0044   40.6649 H   0  0  0  0  0  0  0  0  0  0  0  0
   47.6788   34.7658   38.8079 H   0  0  0  0  0  0  0  0  0  0  0  0
   48.5989   33.5134   39.6081 H   0  0  0  0  0  0  0  0  0  0  0  0
   49.9227   35.2852   40.3607 H   0  0  0  0  0  0  0  0  0  0  0  0
   48.6615   36.4891   39.9925 H   0  0  0  0  0  0  0  0  0  0  0  0
   49.3502   35.4705   42.5682 H   0  0  0  0  0  0  0  0  0  0  0  0
   47.9566   36.4654   42.2239 H   0  0  0  0  0  0  0  0  0  0  0  0
   47.8089   32.6350   46.5630 H   0  0  0  0  0  0  0  0  0  0  0  0
   46.4967   33.3849   47.5599 H   0  0  0  0  0  0  0  0  0  0  0  0
   46.5335   31.1689   44.6901 H   0  0  0  0  0  0  0  0  0  0  0  0
   45.3942   28.9801   44.5298 H   0  0  0  0  0  0  0  0  0  0  0  0
   43.5555   27.4970   47.3516 H   0  0  0  0  0  0  0  0  0  0  0  0
   44.0816   27.3279   45.6553 H   0  0  0  0  0  0  0  0  0  0  0  0
  1  6  2  0
  2  1  1  0
  3  2  2  0
  3  4  1  0
  4  5  2  0
  5  6  1  0
  5 12  1  0
  7  3  1  0
  8  7  1  0
  9 10  1  0
  9  8  1  0
 10 11  1  0
 11  7  1  0
 12 13  1  0
 13 19  1  0
 14 13  1  0
 15 14  2  0
 15 16  1  0
 16 18  2  0
 17 16  1  0
 18 19  1  0
 19 20  2  0
  1 21  1  0
  2 22  1  0
  7 23  1  0
  8 24  1  0
  8 25  1  0
  9 26  1  0
  9 27  1  0
 10 28  1  0
 10 29  1  0
 11 30  1  0
 11 31  1  0
 12 32  1  0
 12 33  1  0
 14 34  1  0
 15 35  1  0
 17 36  1  0
 17 37  1  0
M  ISO  8  21  14  22  14  23  13  24  13  25  13  26  13  27  13  28  13
M  ISO  7  29  13  30  13  31  13  32   8  33   8  34  14  35  14
M  END
>  <minimizedAffinity>  (1) 
-5.83571768

>  <minimizedRMSD>  (1) 
1.17285478

$$$$
