
     RDKit          3D

 33 35  0  0  0  0  0  0  0  0999 V2000
   44.5480   36.0700   44.4140 C   0  0  0  0  0  0  0  0  0  0  0  0
   45.3350   35.8280   43.2650 C   0  0  0  0  0  0  0  0  0  0  0  0
   46.2090   34.7110   43.2850 C   0  0  0  0  0  0  0  0  0  0  0  0
   46.2150   33.9610   44.4140 N   0  0  0  0  0  0  0  0  0  0  0  0
   45.4630   34.2020   45.4960 C   0  0  0  0  0  0  0  0  0  0  0  0
   44.6350   35.2540   45.4910 N   0  0  0  0  0  0  0  0  0  0  0  0
   47.0740   34.3620   42.1590 C   0  0  0  0  0  0  0  0  0  0  0  0
   46.4270   34.2890   40.8470 C   0  0  0  0  0  0  0  0  0  0  0  0
   47.6120   34.1430   39.9270 C   0  0  0  0  0  0  0  0  0  0  0  0
   48.5840   35.1370   40.5160 C   0  0  0  0  0  0  0  0  0  0  0  0
   48.1570   35.4160   41.9420 C   0  0  0  0  0  0  0  0  0  0  0  0
   45.5000   33.3480   46.6750 C   0  0  0  0  0  0  0  0  0  0  0  0
   46.3430   32.1440   46.5770 C   0  0  0  0  0  0  0  0  0  0  0  0
   47.3050   31.8280   47.5150 C   0  0  0  0  0  0  0  0  0  0  0  0
   47.8990   30.6770   47.1480 N   0  0  0  0  0  0  0  0  0  0  0  0
   47.3550   30.2470   46.0160 C   0  0  0  0  0  0  0  0  0  0  0  0
   46.4010   31.1450   45.6660 N   0  0  0  0  0  0  0  0  0  0  0  0
   43.8596   36.9278   44.4333 H   0  0  0  0  0  0  0  0  0  0  0  0
   45.2717   36.4842   42.3845 H   0  0  0  0  0  0  0  0  0  0  0  0
   47.4397   33.3696   42.4613 H   0  0  0  0  0  0  0  0  0  0  0  0
   45.7571   33.4192   40.7785 H   0  0  0  0  0  0  0  0  0  0  0  0
   45.7879   35.1541   40.6166 H   0  0  0  0  0  0  0  0  0  0  0  0
   47.3497   34.4047   38.8913 H   0  0  0  0  0  0  0  0  0  0  0  0
   48.0053   33.1175   39.8662 H   0  0  0  0  0  0  0  0  0  0  0  0
   49.6006   34.7169   40.5056 H   0  0  0  0  0  0  0  0  0  0  0  0
   48.5857   36.0664   39.9275 H   0  0  0  0  0  0  0  0  0  0  0  0
   48.9932   35.2806   42.6437 H   0  0  0  0  0  0  0  0  0  0  0  0
   47.8130   36.4474   42.1090 H   0  0  0  0  0  0  0  0  0  0  0  0
   45.8727   33.9517   47.5157 H   0  0  0  0  0  0  0  0  0  0  0  0
   44.4719   32.9790   46.8049 H   0  0  0  0  0  0  0  0  0  0  0  0
   47.5459   32.4176   48.4118 H   0  0  0  0  0  0  0  0  0  0  0  0
   47.6269   29.3342   45.4656 H   0  0  0  0  0  0  0  0  0  0  0  0
   45.8064   31.0766   44.8278 H   0  0  0  0  0  0  0  0  0  0  0  0
  1  6  2  0
  2  3  2  0
  2  1  1  0
  3  4  1  0
  4  5  2  0
  5 12  1  0
  6  5  1  0
  7  3  1  0
  8  7  1  0
  9 10  1  0
  9  8  1  0
 10 11  1  0
 11  7  1  0
 13 12  1  0
 13 14  2  0
 15 14  1  0
 16 15  2  0
 17 16  1  0
 17 13  1  0
  1 18  1  0
  2 19  1  0
  7 20  1  0
  8 21  1  0
  8 22  1  0
  9 23  1  0
  9 24  1  0
 10 25  1  0
 10 26  1  0
 11 27  1  0
 11 28  1  0
 12 29  1  0
 12 30  1  0
 14 31  1  0
 16 32  1  0
 17 33  1  0
M  ISO  8  18  14  19  14  20  13  21  13  22  13  23  13  24  13  25  13
M  ISO  8  26  13  27  13  28  13  29   8  30   8  31  14  32  14  33   9
M  END
>  <minimizedAffinity>  (1) 
-5.35711145

>  <minimizedRMSD>  (1) 
1.93856394

$$$$
