
     RDKit          3D

 33 35  0  0  0  0  0  0  0  0999 V2000
   45.2250   34.6740   44.7200 C   0  0  0  0  0  0  0  0  0  0  0  0
   46.0050   34.9470   43.5780 C   0  0  0  0  0  0  0  0  0  0  0  0
   46.8280   33.9070   43.0720 C   0  0  0  0  0  0  0  0  0  0  0  0
   46.7980   32.7260   43.7300 N   0  0  0  0  0  0  0  0  0  0  0  0
   46.0450   32.4790   44.8230 C   0  0  0  0  0  0  0  0  0  0  0  0
   45.2630   33.4600   45.3080 N   0  0  0  0  0  0  0  0  0  0  0  0
   47.6840   34.0780   41.8930 C   0  0  0  0  0  0  0  0  0  0  0  0
   46.9820   34.1790   40.6070 C   0  0  0  0  0  0  0  0  0  0  0  0
   48.1200   34.5700   39.6870 C   0  0  0  0  0  0  0  0  0  0  0  0
   48.8800   35.5760   40.5180 C   0  0  0  0  0  0  0  0  0  0  0  0
   48.4670   35.3920   41.9590 C   0  0  0  0  0  0  0  0  0  0  0  0
   46.0740   31.1660   45.4750 C   0  0  0  0  0  0  0  0  0  0  0  0
   46.1260   31.3730   46.9630 C   0  0  0  0  0  0  0  0  0  0  0  0
   45.1760   31.1680   47.9520 C   0  0  0  0  0  0  0  0  0  0  0  0
   45.8170   31.5400   49.1170 C   0  0  0  0  0  0  0  0  0  0  0  0
   47.1080   31.9500   48.7970 C   0  0  0  0  0  0  0  0  0  0  0  0
   47.2540   31.8340   47.4920 O   0  0  0  0  0  0  0  0  0  0  0  0
   44.5778   35.4598   45.1367 H   0  0  0  0  0  0  0  0  0  0  0  0
   45.9768   35.9346   43.0943 H   0  0  0  0  0  0  0  0  0  0  0  0
   48.3015   33.1682   41.9254 H   0  0  0  0  0  0  0  0  0  0  0  0
   46.5370   33.2170   40.3129 H   0  0  0  0  0  0  0  0  0  0  0  0
   46.1359   34.8819   40.6060 H   0  0  0  0  0  0  0  0  0  0  0  0
   47.7429   35.0245   38.7590 H   0  0  0  0  0  0  0  0  0  0  0  0
   48.7335   33.7172   39.3609 H   0  0  0  0  0  0  0  0  0  0  0  0
   49.9618   35.4058   40.4143 H   0  0  0  0  0  0  0  0  0  0  0  0
   48.6557   36.5991   40.1821 H   0  0  0  0  0  0  0  0  0  0  0  0
   47.8307   36.2209   42.3026 H   0  0  0  0  0  0  0  0  0  0  0  0
   49.3096   35.3743   42.6659 H   0  0  0  0  0  0  0  0  0  0  0  0
   45.1684   30.6004   45.2105 H   0  0  0  0  0  0  0  0  0  0  0  0
   46.9563   30.5996   45.1424 H   0  0  0  0  0  0  0  0  0  0  0  0
   44.1479   30.7948   47.8353 H   0  0  0  0  0  0  0  0  0  0  0  0
   45.3813   31.5163   50.1267 H   0  0  0  0  0  0  0  0  0  0  0  0
   47.8698   32.3068   49.5058 H   0  0  0  0  0  0  0  0  0  0  0  0
  1  6  2  0
  2  1  1  0
  3  2  2  0
  3  4  1  0
  4  5  2  0
  5  6  1  0
  5 12  1  0
  7 11  1  0
  7  3  1  0
  8  7  1  0
  9 10  1  0
  9  8  1  0
 10 11  1  0
 12 13  1  0
 13 17  1  0
 13 14  2  0
 14 15  1  0
 16 15  2  0
 17 16  1  0
  1 18  1  0
  2 19  1  0
  7 20  1  0
  8 21  1  0
  8 22  1  0
  9 23  1  0
  9 24  1  0
 10 25  1  0
 10 26  1  0
 11 27  1  0
 11 28  1  0
 12 29  1  0
 12 30  1  0
 14 31  1  0
 15 32  1  0
 16 33  1  0
M  ISO  8  18  14  19  14  20  13  21  13  22  13  23  13  24  13  25  13
M  ISO  8  26  13  27  13  28  13  29   8  30   8  31  14  32  14  33  14
M  END
>  <minimizedAffinity>  (1) 
-4.84497452

>  <minimizedRMSD>  (1) 
1.94642913

$$$$
