
     RDKit          3D

 47 50  0  0  1  0  0  0  0  0999 V2000
   47.7730   34.7390   41.1910 C   0  0  1  0  0  0  0  0  0  0  0  0
   45.6010   34.0880   42.2460 C   0  0  0  0  0  0  0  0  0  0  0  0
   46.9860   34.2420   42.3310 C   0  0  0  0  0  0  0  0  0  0  0  0
   47.6280   33.9220   43.5510 C   0  0  0  0  0  0  0  0  0  0  0  0
   46.8910   33.4820   44.5790 N   0  0  0  0  0  0  0  0  0  0  0  0
   45.5530   33.3350   44.4890 C   0  0  0  0  0  0  0  0  0  0  0  0
   44.9400   33.6340   43.3470 N   0  0  0  0  0  0  0  0  0  0  0  0
   44.8040   34.4150   41.1190 C   0  0  0  0  0  0  0  0  0  0  0  0
   43.7940   33.2570   40.8250 C   0  0  0  0  0  0  0  0  0  0  0  0
   42.8670   33.9960   39.8230 C   0  0  0  0  0  0  0  0  0  0  0  0
   42.9020   35.4200   40.2650 C   0  0  0  0  0  0  0  0  0  0  0  0
   43.8160   35.4840   41.4700 C   0  0  0  0  0  0  0  0  0  0  0  0
   48.7710   35.7640   41.5600 C   0  0  0  0  0  0  0  0  0  0  0  0
   48.3230   33.5470   40.4540 C   0  0  0  0  0  0  0  0  0  0  0  0
   47.9050   33.5160   39.0650 N   0  0  0  0  0  0  0  0  0  0  0  0
   48.4700   34.4550   38.3100 N   0  0  0  0  0  0  0  0  0  0  0  0
   48.0190   34.3460   37.0530 C   0  0  0  0  0  0  0  0  0  0  0  0
   47.1340   33.3010   37.0010 C   0  0  0  0  0  0  0  0  0  0  0  0
   47.0920   32.8090   38.2770 C   0  0  0  0  0  0  0  0  0  0  0  0
   46.3470   31.7130   38.8490 C   0  0  0  0  0  0  0  0  0  0  0  0
   45.2410   31.2990   38.1370 C   0  0  0  0  0  0  0  0  0  0  0  0
   44.3970   30.2750   38.5040 C   0  0  0  0  0  0  0  0  0  0  0  0
   44.6550   29.6140   39.6450 N   0  0  0  0  0  0  0  0  0  0  0  0
   45.7450   30.0110   40.3620 C   0  0  0  0  0  0  0  0  0  0  0  0
   46.5480   31.0140   39.9760 N   0  0  0  0  0  0  0  0  0  0  0  0
   47.1223   35.2992   40.5034 H   0  0  0  0  0  0  0  0  0  0  0  0
   48.7176   34.0332   43.6535 H   0  0  0  0  0  0  0  0  0  0  0  0
   44.9748   32.9715   45.3513 H   0  0  0  0  0  0  0  0  0  0  0  0
   45.5143   34.6603   40.3157 H   0  0  0  0  0  0  0  0  0  0  0  0
   44.2861   32.3862   40.3672 H   0  0  0  0  0  0  0  0  0  0  0  0
   43.2940   32.8287   41.7063 H   0  0  0  0  0  0  0  0  0  0  0  0
   41.8429   33.5978   39.8740 H   0  0  0  0  0  0  0  0  0  0  0  0
   43.1945   33.8728   38.7801 H   0  0  0  0  0  0  0  0  0  0  0  0
   43.2942   36.0569   39.4585 H   0  0  0  0  0  0  0  0  0  0  0  0
   41.8932   35.7791   40.5165 H   0  0  0  0  0  0  0  0  0  0  0  0
   43.2782   35.2504   42.4007 H   0  0  0  0  0  0  0  0  0  0  0  0
   44.2582   36.4734   41.6583 H   0  0  0  0  0  0  0  0  0  0  0  0
   48.8380   35.8328   42.6558 H   0  0  0  0  0  0  0  0  0  0  0  0
   49.7525   35.4846   41.1495 H   0  0  0  0  0  0  0  0  0  0  0  0
   48.4655   36.7377   41.1495 H   0  0  0  0  0  0  0  0  0  0  0  0
   49.4217   33.5841   40.4918 H   0  0  0  0  0  0  0  0  0  0  0  0
   47.9340   32.6413   40.9422 H   0  0  0  0  0  0  0  0  0  0  0  0
   48.3096   34.9862   36.2070 H   0  0  0  0  0  0  0  0  0  0  0  0
   46.5783   32.9370   36.1242 H   0  0  0  0  0  0  0  0  0  0  0  0
   45.0148   31.8296   37.2004 H   0  0  0  0  0  0  0  0  0  0  0  0
   43.5332   30.0048   37.8788 H   0  0  0  0  0  0  0  0  0  0  0  0
   45.9764   29.4847   41.2998 H   0  0  0  0  0  0  0  0  0  0  0  0
  1 13  1  0
  1  3  1  0
  2  3  1  0
  2  7  2  0
  3  4  2  0
  4  5  1  0
  6  5  2  0
  7  6  1  0
  8 12  1  0
  8  2  1  0
  9  8  1  0
 10 11  1  0
 10  9  1  0
 11 12  1  0
 14  1  1  0
 15 14  1  0
 16 15  1  0
 17 16  2  0
 18 17  1  0
 18 19  2  0
 19 20  1  0
 19 15  1  0
 20 25  2  0
 21 22  2  0
 21 20  1  0
 22 23  1  0
 23 24  2  0
 25 24  1  0
  1 26  1  6
  4 27  1  0
  6 28  1  0
  8 29  1  0
  9 30  1  0
  9 31  1  0
 10 32  1  0
 10 33  1  0
 11 34  1  0
 11 35  1  0
 12 36  1  0
 12 37  1  0
 13 38  1  0
 13 39  1  0
 13 40  1  0
 14 41  1  0
 14 42  1  0
 17 43  1  0
 18 44  1  0
 21 45  1  0
 22 46  1  0
 24 47  1  0
M  ISO  8  26   8  27  14  28  14  29  13  30  13  31  13  32  13  33  13
M  ISO  8  34  13  35  13  36  13  37  13  38   8  39   8  40   8  41   8
M  ISO  6  42   8  43  14  44  14  45  14  46  14  47  14
M  END
>  <minimizedAffinity>  (1) 
-4.96227837

>  <minimizedRMSD>  (1) 
1.45321143

$$$$
