
     RDKit          3D

 32 34  0  0  0  0  0  0  0  0999 V2000
   45.2410   34.6720   44.3870 C   0  0  0  0  0  0  0  0  0  0  0  0
   46.5540   34.2690   44.0410 C   0  0  0  0  0  0  0  0  0  0  0  0
   46.9000   34.3070   42.6660 C   0  0  0  0  0  0  0  0  0  0  0  0
   45.9490   34.7240   41.8090 N   0  0  0  0  0  0  0  0  0  0  0  0
   44.7090   35.1030   42.1460 C   0  0  0  0  0  0  0  0  0  0  0  0
   44.3600   35.0730   43.4500 N   0  0  0  0  0  0  0  0  0  0  0  0
   48.2270   33.9130   42.1760 C   0  0  0  0  0  0  0  0  0  0  0  0
   49.3660   34.5930   42.8040 C   0  0  0  0  0  0  0  0  0  0  0  0
   50.5280   33.7940   42.2430 C   0  0  0  0  0  0  0  0  0  0  0  0
   50.0210   32.3780   42.3250 C   0  0  0  0  0  0  0  0  0  0  0  0
   48.5260   32.4430   42.4730 C   0  0  0  0  0  0  0  0  0  0  0  0
   43.7380   35.5420   41.1460 C   0  0  0  0  0  0  0  0  0  0  0  0
   42.4970   34.6850   41.1930 C   0  0  0  0  0  0  0  0  0  0  0  0
   42.5310   33.3020   40.8900 C   0  0  0  0  0  0  0  0  0  0  0  0
   40.7730   32.8290   41.1150 S   0  0  0  0  0  0  0  0  0  0  0  0
   40.2960   34.6080   41.5850 C   0  0  0  0  0  0  0  0  0  0  0  0
   41.3690   35.2830   41.5300 N   0  0  0  0  0  0  0  0  0  0  0  0
   44.9341   34.6572   45.4432 H   0  0  0  0  0  0  0  0  0  0  0  0
   47.2739   33.9409   44.8052 H   0  0  0  0  0  0  0  0  0  0  0  0
   48.1512   34.1694   41.1090 H   0  0  0  0  0  0  0  0  0  0  0  0
   49.4206   35.6499   42.5039 H   0  0  0  0  0  0  0  0  0  0  0  0
   49.3257   34.6228   43.9029 H   0  0  0  0  0  0  0  0  0  0  0  0
   51.4335   33.9278   42.8530 H   0  0  0  0  0  0  0  0  0  0  0  0
   50.8179   34.0974   41.2262 H   0  0  0  0  0  0  0  0  0  0  0  0
   50.2845   31.8307   41.4079 H   0  0  0  0  0  0  0  0  0  0  0  0
   50.4732   31.8526   43.1791 H   0  0  0  0  0  0  0  0  0  0  0  0
   48.2155   32.1725   43.4930 H   0  0  0  0  0  0  0  0  0  0  0  0
   47.9895   31.7448   41.8137 H   0  0  0  0  0  0  0  0  0  0  0  0
   44.1907   35.4669   40.1463 H   0  0  0  0  0  0  0  0  0  0  0  0
   43.4562   36.5833   41.3610 H   0  0  0  0  0  0  0  0  0  0  0  0
   43.3867   32.6760   40.5968 H   0  0  0  0  0  0  0  0  0  0  0  0
   39.2943   34.9770   41.8505 H   0  0  0  0  0  0  0  0  0  0  0  0
  2  1  2  0
  3  2  1  0
  4  5  1  0
  4  3  2  0
  5  6  2  0
  6  1  1  0
  7 11  1  0
  7  3  1  0
  7  8  1  0
  9 10  1  0
  9  8  1  0
 10 11  1  0
 12 13  1  0
 12  5  1  0
 13 17  1  0
 14 15  1  0
 14 13  2  0
 15 16  1  0
 17 16  2  0
  1 18  1  0
  2 19  1  0
  7 20  1  0
  8 21  1  0
  8 22  1  0
  9 23  1  0
  9 24  1  0
 10 25  1  0
 10 26  1  0
 11 27  1  0
 11 28  1  0
 12 29  1  0
 12 30  1  0
 14 31  1  0
 16 32  1  0
M  ISO  8  18  14  19  14  20  13  21  13  22  13  23  13  24  13  25  13
M  ISO  7  26  13  27  13  28  13  29   8  30   8  31  14  32  14
M  END
>  <minimizedAffinity>  (1) 
-4.57173109

>  <minimizedRMSD>  (1) 
5.89460659

$$$$
