
     RDKit          3D

 42 45  0  0  0  0  0  0  0  0999 V2000
   46.7380   30.8310   39.4810 C   0  0  0  0  0  0  0  0  0  0  0  0
   47.5120   31.5570   40.4220 C   0  0  0  0  0  0  0  0  0  0  0  0
   47.2490   32.9250   40.5420 C   0  0  0  0  0  0  0  0  0  0  0  0
   46.2910   33.4200   39.7580 N   0  0  0  0  0  0  0  0  0  0  0  0
   45.5510   32.7670   38.8700 C   0  0  0  0  0  0  0  0  0  0  0  0
   45.7970   31.4370   38.7450 N   0  0  0  0  0  0  0  0  0  0  0  0
   47.9770   33.7980   41.4710 C   0  0  0  0  0  0  0  0  0  0  0  0
   49.3740   33.4260   41.7430 C   0  0  0  0  0  0  0  0  0  0  0  0
   49.8480   34.6290   42.5310 C   0  0  0  0  0  0  0  0  0  0  0  0
   49.2660   35.7770   41.7330 C   0  0  0  0  0  0  0  0  0  0  0  0
   48.1100   35.2210   40.9220 C   0  0  0  0  0  0  0  0  0  0  0  0
   44.5110   33.3540   38.0360 C   0  0  0  0  0  0  0  0  0  0  0  0
   43.1890   33.0820   38.6200 C   0  0  0  0  0  0  0  0  0  0  0  0
   42.4370   32.0090   38.1180 C   0  0  0  0  0  0  0  0  0  0  0  0
   41.1620   31.6260   38.5210 C   0  0  0  0  0  0  0  0  0  0  0  0
   40.6110   32.4050   39.5180 C   0  0  0  0  0  0  0  0  0  0  0  0
   41.2810   33.4790   40.0680 C   0  0  0  0  0  0  0  0  0  0  0  0
   40.6990   34.2280   41.0720 C   0  0  0  0  0  0  0  0  0  0  0  0
   41.3890   35.3070   41.6340 C   0  0  0  0  0  0  0  0  0  0  0  0
   42.6530   35.6040   41.1640 C   0  0  0  0  0  0  0  0  0  0  0  0
   43.1940   34.8290   40.1600 C   0  0  0  0  0  0  0  0  0  0  0  0
   42.5430   33.7790   39.6020 C   0  0  0  0  0  0  0  0  0  0  0  0
   46.9133   29.7526   39.3535 H   0  0  0  0  0  0  0  0  0  0  0  0
   48.2852   31.0654   41.0307 H   0  0  0  0  0  0  0  0  0  0  0  0
   47.3667   33.7055   42.3815 H   0  0  0  0  0  0  0  0  0  0  0  0
   49.4373   32.5032   42.3383 H   0  0  0  0  0  0  0  0  0  0  0  0
   49.9687   33.2120   40.8427 H   0  0  0  0  0  0  0  0  0  0  0  0
   49.4532   34.6152   43.5576 H   0  0  0  0  0  0  0  0  0  0  0  0
   50.9405   34.6797   42.6490 H   0  0  0  0  0  0  0  0  0  0  0  0
   48.9055   36.5634   42.4124 H   0  0  0  0  0  0  0  0  0  0  0  0
   50.0276   36.2193   41.0739 H   0  0  0  0  0  0  0  0  0  0  0  0
   48.3455   35.2125   39.8475 H   0  0  0  0  0  0  0  0  0  0  0  0
   47.1873   35.8135   41.0090 H   0  0  0  0  0  0  0  0  0  0  0  0
   44.5615   32.9167   37.0279 H   0  0  0  0  0  0  0  0  0  0  0  0
   44.6644   34.4417   37.9772 H   0  0  0  0  0  0  0  0  0  0  0  0
   42.9041   31.4085   37.3235 H   0  0  0  0  0  0  0  0  0  0  0  0
   40.6337   30.7683   38.0791 H   0  0  0  0  0  0  0  0  0  0  0  0
   39.6037   32.1617   39.8869 H   0  0  0  0  0  0  0  0  0  0  0  0
   39.6902   33.9752   41.4305 H   0  0  0  0  0  0  0  0  0  0  0  0
   40.9335   35.9076   42.4351 H   0  0  0  0  0  0  0  0  0  0  0  0
   43.2205   36.4472   41.5847 H   0  0  0  0  0  0  0  0  0  0  0  0
   44.2020   35.0745   39.7944 H   0  0  0  0  0  0  0  0  0  0  0  0
  1  2  2  0
  2  3  1  0
  3  7  1  0
  4  3  2  0
  5  4  1  0
  6  5  2  0
  6  1  1  0
  7  8  1  0
  8  9  1  0
 10  9  1  0
 11  7  1  0
 11 10  1  0
 12 13  1  0
 12  5  1  0
 13 22  2  0
 14 15  2  0
 14 13  1  0
 15 16  1  0
 16 17  2  0
 17 18  1  0
 18 19  2  0
 20 19  1  0
 21 20  2  0
 22 17  1  0
 22 21  1  0
  1 23  1  0
  2 24  1  0
  7 25  1  0
  8 26  1  0
  8 27  1  0
  9 28  1  0
  9 29  1  0
 10 30  1  0
 10 31  1  0
 11 32  1  0
 11 33  1  0
 12 34  1  0
 12 35  1  0
 14 36  1  0
 15 37  1  0
 16 38  1  0
 18 39  1  0
 19 40  1  0
 20 41  1  0
 21 42  1  0
M  ISO  8  23  14  24  14  25  13  26  13  27  13  28  13  29  13  30  13
M  ISO  8  31  13  32  13  33  13  34   8  35   8  36  14  37  14  38  14
M  ISO  4  39  14  40  14  41  14  42  14
M  END
>  <minimizedAffinity>  (1) 
-5.18652582

>  <minimizedRMSD>  (1) 
8.65672016

$$$$
