
     RDKit          3D

 46 49  0  0  0  0  0  0  0  0999 V2000
   45.2170   34.3900   45.0530 C   0  0  0  0  0  0  0  0  0  0  0  0
   45.8630   34.6400   43.8190 C   0  0  0  0  0  0  0  0  0  0  0  0
   47.0050   33.8500   43.4900 C   0  0  0  0  0  0  0  0  0  0  0  0
   47.3980   32.9070   44.3810 N   0  0  0  0  0  0  0  0  0  0  0  0
   46.7510   32.6930   45.5570 C   0  0  0  0  0  0  0  0  0  0  0  0
   45.6810   33.4210   45.8850 N   0  0  0  0  0  0  0  0  0  0  0  0
   47.7290   34.0400   42.2330 C   0  0  0  0  0  0  0  0  0  0  0  0
   46.8800   34.2750   41.0410 C   0  0  0  0  0  0  0  0  0  0  0  0
   47.9650   34.5950   40.0150 C   0  0  0  0  0  0  0  0  0  0  0  0
   48.8800   35.4960   40.7860 C   0  0  0  0  0  0  0  0  0  0  0  0
   48.6550   35.2310   42.2680 C   0  0  0  0  0  0  0  0  0  0  0  0
   47.2400   31.6480   46.4680 C   0  0  0  0  0  0  0  0  0  0  0  0
   46.4170   31.4340   47.6250 N   0  0  0  0  0  0  0  0  0  0  0  0
   46.2470   32.1820   48.7160 C   0  0  0  0  0  0  0  0  0  0  0  0
   45.3510   31.5830   49.5810 C   0  0  0  0  0  0  0  0  0  0  0  0
   44.9600   30.4300   48.9970 N   0  0  0  0  0  0  0  0  0  0  0  0
   45.6110   30.3530   47.8170 C   0  0  0  0  0  0  0  0  0  0  0  0
   45.3860   29.2240   46.9790 N   0  0  0  0  0  0  0  0  0  0  0  0
   44.1780   28.8890   46.4560 C   0  0  0  0  0  0  0  0  0  0  0  0
   44.0440   27.7710   45.6470 C   0  0  0  0  0  0  0  0  0  0  0  0
   42.7130   27.4130   45.0780 C   0  0  0  0  0  0  0  0  0  0  0  0
   45.1590   26.9830   45.3660 C   0  0  0  0  0  0  0  0  0  0  0  0
   45.0490   25.9660   44.6320 O   0  0  0  0  0  0  0  0  0  0  0  0
   46.3390   27.3460   45.9010 N   0  0  0  0  0  0  0  0  0  0  0  0
   46.4550   28.4330   46.6850 C   0  0  0  0  0  0  0  0  0  0  0  0
   47.6110   28.6570   47.1170 O   0  0  0  0  0  0  0  0  0  0  0  0
   44.3357   34.9825   45.3399 H   0  0  0  0  0  0  0  0  0  0  0  0
   45.4962   35.4191   43.1346 H   0  0  0  0  0  0  0  0  0  0  0  0
   48.2610   33.0816   42.1414 H   0  0  0  0  0  0  0  0  0  0  0  0
   46.3052   33.3790   40.7639 H   0  0  0  0  0  0  0  0  0  0  0  0
   46.1084   35.0495   41.1622 H   0  0  0  0  0  0  0  0  0  0  0  0
   47.5447   35.1100   39.1386 H   0  0  0  0  0  0  0  0  0  0  0  0
   48.4648   33.7025   39.6105 H   0  0  0  0  0  0  0  0  0  0  0  0
   49.9261   35.2813   40.5222 H   0  0  0  0  0  0  0  0  0  0  0  0
   48.6713   36.5496   40.5483 H   0  0  0  0  0  0  0  0  0  0  0  0
   48.1808   36.0924   42.7612 H   0  0  0  0  0  0  0  0  0  0  0  0
   49.5817   35.0575   42.8347 H   0  0  0  0  0  0  0  0  0  0  0  0
   47.2975   30.7031   45.9077 H   0  0  0  0  0  0  0  0  0  0  0  0
   48.2182   31.9885   46.8385 H   0  0  0  0  0  0  0  0  0  0  0  0
   46.7501   33.1424   48.9016 H   0  0  0  0  0  0  0  0  0  0  0  0
   45.0205   31.9703   50.5561 H   0  0  0  0  0  0  0  0  0  0  0  0
   43.2977   29.5106   46.6764 H   0  0  0  0  0  0  0  0  0  0  0  0
   42.0036   27.2222   45.8967 H   0  0  0  0  0  0  0  0  0  0  0  0
   42.3435   28.2437   44.4588 H   0  0  0  0  0  0  0  0  0  0  0  0
   42.8101   26.5090   44.4588 H   0  0  0  0  0  0  0  0  0  0  0  0
   47.1750   26.7770   45.7052 H   0  0  0  0  0  0  0  0  0  0  0  0
  1  6  2  0
  2  1  1  0
  3  2  2  0
  3  4  1  0
  4  5  2  0
  5  6  1  0
  5 12  1  0
  7 11  1  0
  7  3  1  0
  8  7  1  0
  9 10  1  0
  9  8  1  0
 10 11  1  0
 12 13  1  0
 13 17  1  0
 13 14  1  0
 14 15  2  0
 16 15  1  0
 17 16  2  0
 18 17  1  0
 19 18  1  0
 20 19  2  0
 21 20  1  0
 22 20  1  0
 22 24  1  0
 23 22  2  0
 24 25  1  0
 25 18  1  0
 25 26  2  0
  1 27  1  0
  2 28  1  0
  7 29  1  0
  8 30  1  0
  8 31  1  0
  9 32  1  0
  9 33  1  0
 10 34  1  0
 10 35  1  0
 11 36  1  0
 11 37  1  0
 12 38  1  0
 12 39  1  0
 14 40  1  0
 15 41  1  0
 19 42  1  0
 21 43  1  0
 21 44  1  0
 21 45  1  0
 24 46  1  0
M  ISO  8  27  14  28  14  29  13  30  13  31  13  32  13  33  13  34  13
M  ISO  8  35  13  36  13  37  13  38   8  39   8  40  14  41  14  42  14
M  ISO  4  43   8  44   8  45   8  46   9
M  END
>  <minimizedAffinity>  (1) 
-6.34874582

>  <minimizedRMSD>  (1) 
3.39891624

$$$$
