
     RDKit          3D

 42 44  0  0  0  0  0  0  0  0999 V2000
   44.8510   35.2130   44.5160 C   0  0  0  0  0  0  0  0  0  0  0  0
   45.6200   35.2490   43.3270 C   0  0  0  0  0  0  0  0  0  0  0  0
   46.7460   34.3750   43.2470 C   0  0  0  0  0  0  0  0  0  0  0  0
   47.0040   33.5730   44.3070 N   0  0  0  0  0  0  0  0  0  0  0  0
   46.2420   33.5650   45.4330 C   0  0  0  0  0  0  0  0  0  0  0  0
   45.1800   34.3770   45.5280 N   0  0  0  0  0  0  0  0  0  0  0  0
   47.5940   34.3370   42.0570 C   0  0  0  0  0  0  0  0  0  0  0  0
   46.8760   34.2860   40.7620 C   0  0  0  0  0  0  0  0  0  0  0  0
   48.0600   34.4180   39.8090 C   0  0  0  0  0  0  0  0  0  0  0  0
   48.8410   35.5240   40.4500 C   0  0  0  0  0  0  0  0  0  0  0  0
   48.4840   35.5530   41.9340 C   0  0  0  0  0  0  0  0  0  0  0  0
   46.5890   32.6610   46.5370 C   0  0  0  0  0  0  0  0  0  0  0  0
   46.1050   31.3180   46.3790 N   0  0  0  0  0  0  0  0  0  0  0  0
   45.7070   30.6690   45.2830 C   0  0  0  0  0  0  0  0  0  0  0  0
   45.3200   29.3780   45.6050 C   0  0  0  0  0  0  0  0  0  0  0  0
   45.4870   29.2380   46.9380 N   0  0  0  0  0  0  0  0  0  0  0  0
   45.9600   30.4140   47.3860 C   0  0  0  0  0  0  0  0  0  0  0  0
   46.2620   30.6160   48.8300 C   0  0  0  0  0  0  0  0  0  0  0  0
   47.6860   31.0830   49.0400 C   0  0  0  0  0  0  0  0  0  0  0  0
   45.3570   31.6600   49.4550 C   0  0  0  0  0  0  0  0  0  0  0  0
   43.9763   35.8722   44.6179 H   0  0  0  0  0  0  0  0  0  0  0  0
   45.3599   35.9237   42.4981 H   0  0  0  0  0  0  0  0  0  0  0  0
   48.1523   33.4038   42.2227 H   0  0  0  0  0  0  0  0  0  0  0  0
   46.3442   33.3328   40.6254 H   0  0  0  0  0  0  0  0  0  0  0  0
   46.0875   35.0424   40.6349 H   0  0  0  0  0  0  0  0  0  0  0  0
   47.7312   34.6936   38.7961 H   0  0  0  0  0  0  0  0  0  0  0  0
   48.6309   33.4876   39.6731 H   0  0  0  0  0  0  0  0  0  0  0  0
   49.9186   35.3394   40.3286 H   0  0  0  0  0  0  0  0  0  0  0  0
   48.5972   36.4876   39.9788 H   0  0  0  0  0  0  0  0  0  0  0  0
   49.3806   35.4595   42.5643 H   0  0  0  0  0  0  0  0  0  0  0  0
   48.0093   36.4897   42.2616 H   0  0  0  0  0  0  0  0  0  0  0  0
   47.6853   32.6241   46.6197 H   0  0  0  0  0  0  0  0  0  0  0  0
   46.1042   33.0653   47.4378 H   0  0  0  0  0  0  0  0  0  0  0  0
   45.6888   31.0972   44.2699 H   0  0  0  0  0  0  0  0  0  0  0  0
   44.9477   28.6129   44.9078 H   0  0  0  0  0  0  0  0  0  0  0  0
   46.1014   29.6374   49.3059 H   0  0  0  0  0  0  0  0  0  0  0  0
   47.8943   31.1513   50.1179 H   0  0  0  0  0  0  0  0  0  0  0  0
   48.3793   30.3652   48.5774 H   0  0  0  0  0  0  0  0  0  0  0  0
   47.8195   32.0720   48.5774 H   0  0  0  0  0  0  0  0  0  0  0  0
   45.4182   31.5895   50.5510 H   0  0  0  0  0  0  0  0  0  0  0  0
   45.6768   32.6622   49.1337 H   0  0  0  0  0  0  0  0  0  0  0  0
   44.3195   31.4856   49.1337 H   0  0  0  0  0  0  0  0  0  0  0  0
  1  6  2  0
  2  1  1  0
  3  2  2  0
  3  4  1  0
  4  5  2  0
  5  6  1  0
  5 12  1  0
  7  3  1  0
  8  7  1  0
  9 10  1  0
  9  8  1  0
 10 11  1  0
 11  7  1  0
 13 12  1  0
 13 17  1  0
 14 15  2  0
 14 13  1  0
 15 16  1  0
 16 17  2  0
 17 18  1  0
 18 19  1  0
 18 20  1  0
  1 21  1  0
  2 22  1  0
  7 23  1  0
  8 24  1  0
  8 25  1  0
  9 26  1  0
  9 27  1  0
 10 28  1  0
 10 29  1  0
 11 30  1  0
 11 31  1  0
 12 32  1  0
 12 33  1  0
 14 34  1  0
 15 35  1  0
 18 36  1  0
 19 37  1  0
 19 38  1  0
 19 39  1  0
 20 40  1  0
 20 41  1  0
 20 42  1  0
M  ISO  8  21  14  22  14  23  13  24  13  25  13  26  13  27  13  28  13
M  ISO  8  29  13  30  13  31  13  32   8  33   8  34  14  35  14  36   8
M  ISO  6  37   8  38   8  39   8  40   8  41   8  42   8
M  END
>  <minimizedAffinity>  (1) 
-5.91759443

>  <minimizedRMSD>  (1) 
2.18131638

$$$$
