
     RDKit          3D

 40 42  0  0  0  0  0  0  0  0999 V2000
   45.2440   34.5320   44.7900 C   0  0  0  0  0  0  0  0  0  0  0  0
   45.9450   34.7930   43.5890 C   0  0  0  0  0  0  0  0  0  0  0  0
   47.0080   33.9090   43.2270 C   0  0  0  0  0  0  0  0  0  0  0  0
   47.2630   32.8860   44.0680 N   0  0  0  0  0  0  0  0  0  0  0  0
   46.5840   32.6510   45.2120 C   0  0  0  0  0  0  0  0  0  0  0  0
   45.5800   33.4730   45.5670 N   0  0  0  0  0  0  0  0  0  0  0  0
   47.7720   34.1050   42.0080 C   0  0  0  0  0  0  0  0  0  0  0  0
   46.9780   34.2410   40.7640 C   0  0  0  0  0  0  0  0  0  0  0  0
   48.0830   34.5920   39.7800 C   0  0  0  0  0  0  0  0  0  0  0  0
   48.8860   35.5930   40.5620 C   0  0  0  0  0  0  0  0  0  0  0  0
   48.6190   35.3580   42.0360 C   0  0  0  0  0  0  0  0  0  0  0  0
   46.9320   31.5080   46.0590 C   0  0  0  0  0  0  0  0  0  0  0  0
   46.3160   31.5230   47.3570 N   0  0  0  0  0  0  0  0  0  0  0  0
   46.6420   32.1880   48.4660 C   0  0  0  0  0  0  0  0  0  0  0  0
   45.7540   31.8910   49.4880 C   0  0  0  0  0  0  0  0  0  0  0  0
   44.8580   31.0140   48.9820 N   0  0  0  0  0  0  0  0  0  0  0  0
   45.2110   30.8030   47.6970 C   0  0  0  0  0  0  0  0  0  0  0  0
   44.4800   29.9170   46.8210 N   0  0  0  0  0  0  0  0  0  0  0  0
   45.1380   28.9790   45.9710 C   0  0  0  0  0  0  0  0  0  0  0  0
   46.3130   29.3280   45.5570 N   0  0  0  0  0  0  0  0  0  0  0  0
   44.4300   27.7620   45.6710 N   0  0  0  0  0  0  0  0  0  0  0  0
   46.8290   28.6700   44.9320 H   0  0  0  0  0  0  0  0  0  0  0  0
   44.4200   35.1935   45.0957 H   0  0  0  0  0  0  0  0  0  0  0  0
   45.6798   35.6505   42.9531 H   0  0  0  0  0  0  0  0  0  0  0  0
   48.3645   33.1784   41.9859 H   0  0  0  0  0  0  0  0  0  0  0  0
   46.4764   33.2996   40.4953 H   0  0  0  0  0  0  0  0  0  0  0  0
   46.1568   34.9709   40.8169 H   0  0  0  0  0  0  0  0  0  0  0  0
   47.6741   35.0370   38.8609 H   0  0  0  0  0  0  0  0  0  0  0  0
   48.6657   33.7243   39.4371 H   0  0  0  0  0  0  0  0  0  0  0  0
   49.9572   35.4594   40.3506 H   0  0  0  0  0  0  0  0  0  0  0  0
   48.5998   36.6170   40.2800 H   0  0  0  0  0  0  0  0  0  0  0  0
   48.0706   36.2009   42.4819 H   0  0  0  0  0  0  0  0  0  0  0  0
   49.5322   35.2618   42.6417 H   0  0  0  0  0  0  0  0  0  0  0  0
   46.6213   30.5886   45.5411 H   0  0  0  0  0  0  0  0  0  0  0  0
   48.0181   31.5595   46.2258 H   0  0  0  0  0  0  0  0  0  0  0  0
   47.4957   32.8757   48.5569 H   0  0  0  0  0  0  0  0  0  0  0  0
   45.7743   32.2913   50.5124 H   0  0  0  0  0  0  0  0  0  0  0  0
   43.4511   29.9640   46.8097 H   0  0  0  0  0  0  0  0  0  0  0  0
   44.8613   27.0521   45.0620 H   0  0  0  0  0  0  0  0  0  0  0  0
   43.4922   27.6012   46.0654 H   0  0  0  0  0  0  0  0  0  0  0  0
  1  6  2  0
  2  1  1  0
  3  2  2  0
  3  4  1  0
  4  5  2  0
  5  6  1  0
  5 12  1  0
  7 11  1  0
  7  3  1  0
  8  7  1  0
  9 10  1  0
  9  8  1  0
 10 11  1  0
 12 13  1  0
 13 17  1  0
 13 14  1  0
 14 15  2  0
 16 15  1  0
 17 16  2  0
 18 17  1  0
 19 18  1  0
 20 19  2  0
 21 19  1  0
 22 20  1  0
  1 23  1  0
  2 24  1  0
  7 25  1  0
  8 26  1  0
  8 27  1  0
  9 28  1  0
  9 29  1  0
 10 30  1  0
 10 31  1  0
 11 32  1  0
 11 33  1  0
 12 34  1  0
 12 35  1  0
 14 36  1  0
 15 37  1  0
 18 38  1  0
 21 39  1  0
 21 40  1  0
M  ISO  8  23  14  24  14  25  13  26  13  27  13  28  13  29  13  30  13
M  ISO  7  31  13  32  13  33  13  34   8  35   8  36  14  37  14
M  END
>  <minimizedAffinity>  (1) 
-5.85397768

>  <minimizedRMSD>  (1) 
1.45814168

$$$$
