
     RDKit          3D

 41 44  0  0  0  0  0  0  0  0999 V2000
   45.2230   34.3770   45.0590 C   0  0  0  0  0  0  0  0  0  0  0  0
   45.8940   34.6480   43.8450 C   0  0  0  0  0  0  0  0  0  0  0  0
   47.0110   33.8340   43.4940 C   0  0  0  0  0  0  0  0  0  0  0  0
   47.3580   32.8500   44.3490 N   0  0  0  0  0  0  0  0  0  0  0  0
   46.6960   32.6060   45.5150 C   0  0  0  0  0  0  0  0  0  0  0  0
   45.6440   33.3620   45.8580 N   0  0  0  0  0  0  0  0  0  0  0  0
   47.7380   34.0630   42.2530 C   0  0  0  0  0  0  0  0  0  0  0  0
   46.9050   34.2890   41.0500 C   0  0  0  0  0  0  0  0  0  0  0  0
   47.9930   34.6120   40.0350 C   0  0  0  0  0  0  0  0  0  0  0  0
   48.9060   35.5030   40.8160 C   0  0  0  0  0  0  0  0  0  0  0  0
   48.6580   35.2510   42.2990 C   0  0  0  0  0  0  0  0  0  0  0  0
   47.1360   31.5140   46.3830 C   0  0  0  0  0  0  0  0  0  0  0  0
   46.3810   31.3750   47.5970 N   0  0  0  0  0  0  0  0  0  0  0  0
   46.2610   32.1950   48.6440 C   0  0  0  0  0  0  0  0  0  0  0  0
   45.4180   31.6370   49.5930 C   0  0  0  0  0  0  0  0  0  0  0  0
   45.0230   30.4510   49.1000 N   0  0  0  0  0  0  0  0  0  0  0  0
   45.6030   30.3000   47.9050 C   0  0  0  0  0  0  0  0  0  0  0  0
   45.3440   29.0840   47.1360 C   0  0  0  0  0  0  0  0  0  0  0  0
   44.2930   29.0160   46.2410 C   0  0  0  0  0  0  0  0  0  0  0  0
   44.0460   27.8620   45.5120 C   0  0  0  0  0  0  0  0  0  0  0  0
   44.8400   26.7670   45.6640 N   0  0  0  0  0  0  0  0  0  0  0  0
   45.8720   26.8480   46.5470 C   0  0  0  0  0  0  0  0  0  0  0  0
   46.1150   27.9780   47.2630 N   0  0  0  0  0  0  0  0  0  0  0  0
   44.3588   34.9887   45.3573 H   0  0  0  0  0  0  0  0  0  0  0  0
   45.5631   35.4657   43.1878 H   0  0  0  0  0  0  0  0  0  0  0  0
   48.2829   33.1112   42.1680 H   0  0  0  0  0  0  0  0  0  0  0  0
   46.3391   33.3883   40.7697 H   0  0  0  0  0  0  0  0  0  0  0  0
   46.1294   35.0611   41.1607 H   0  0  0  0  0  0  0  0  0  0  0  0
   47.5788   35.1349   39.1604 H   0  0  0  0  0  0  0  0  0  0  0  0
   48.4918   33.7207   39.6266 H   0  0  0  0  0  0  0  0  0  0  0  0
   49.9529   35.2733   40.5686 H   0  0  0  0  0  0  0  0  0  0  0  0
   48.7117   36.5575   40.5706 H   0  0  0  0  0  0  0  0  0  0  0  0
   48.1743   36.1152   42.7778 H   0  0  0  0  0  0  0  0  0  0  0  0
   49.5744   35.0854   42.8845 H   0  0  0  0  0  0  0  0  0  0  0  0
   47.0551   30.5732   45.8188 H   0  0  0  0  0  0  0  0  0  0  0  0
   48.1679   31.7496   46.6824 H   0  0  0  0  0  0  0  0  0  0  0  0
   46.7586   33.1713   48.7397 H   0  0  0  0  0  0  0  0  0  0  0  0
   45.1296   32.0780   50.5586 H   0  0  0  0  0  0  0  0  0  0  0  0
   43.6415   29.8917   46.1045 H   0  0  0  0  0  0  0  0  0  0  0  0
   43.2028   27.8316   44.8063 H   0  0  0  0  0  0  0  0  0  0  0  0
   46.5275   25.9756   46.6854 H   0  0  0  0  0  0  0  0  0  0  0  0
  1  6  2  0
  2  1  1  0
  3  2  2  0
  3  4  1  0
  4  5  2  0
  5  6  1  0
  5 12  1  0
  7 11  1  0
  7  3  1  0
  8  7  1  0
  9 10  1  0
  9  8  1  0
 10 11  1  0
 12 13  1  0
 13 17  1  0
 13 14  1  0
 14 15  2  0
 16 15  1  0
 17 16  2  0
 18 23  1  0
 18 17  1  0
 19 18  2  0
 20 21  2  0
 20 19  1  0
 21 22  1  0
 22 23  2  0
  1 24  1  0
  2 25  1  0
  7 26  1  0
  8 27  1  0
  8 28  1  0
  9 29  1  0
  9 30  1  0
 10 31  1  0
 10 32  1  0
 11 33  1  0
 11 34  1  0
 12 35  1  0
 12 36  1  0
 14 37  1  0
 15 38  1  0
 19 39  1  0
 20 40  1  0
 22 41  1  0
M  ISO  8  24  14  25  14  26  13  27  13  28  13  29  13  30  13  31  13
M  ISO  8  32  13  33  13  34  13  35   8  36   8  37  14  38  14  39  14
M  ISO  2  40  14  41  14
M  END
>  <minimizedAffinity>  (1) 
-5.83632183

>  <minimizedRMSD>  (1) 
2.72994184

$$$$
