
     RDKit          3D

 46 49  0  0  0  0  0  0  0  0999 V2000
   45.2320   34.4370   44.9380 C   0  0  0  0  0  0  0  0  0  0  0  0
   45.9270   34.7190   43.7400 C   0  0  0  0  0  0  0  0  0  0  0  0
   46.9930   33.8450   43.3620 C   0  0  0  0  0  0  0  0  0  0  0  0
   47.2490   32.8140   44.1910 N   0  0  0  0  0  0  0  0  0  0  0  0
   46.5760   32.5570   45.3320 C   0  0  0  0  0  0  0  0  0  0  0  0
   45.5770   33.3630   45.7010 N   0  0  0  0  0  0  0  0  0  0  0  0
   47.7510   34.0610   42.1480 C   0  0  0  0  0  0  0  0  0  0  0  0
   46.9550   34.2050   40.9070 C   0  0  0  0  0  0  0  0  0  0  0  0
   48.0420   34.5870   39.9130 C   0  0  0  0  0  0  0  0  0  0  0  0
   48.8770   35.5330   40.7040 C   0  0  0  0  0  0  0  0  0  0  0  0
   48.5990   35.3120   42.1890 C   0  0  0  0  0  0  0  0  0  0  0  0
   46.9200   31.4090   46.1670 C   0  0  0  0  0  0  0  0  0  0  0  0
   46.3370   31.4160   47.4800 N   0  0  0  0  0  0  0  0  0  0  0  0
   46.5390   32.2350   48.5120 C   0  0  0  0  0  0  0  0  0  0  0  0
   45.7460   31.8470   49.5820 C   0  0  0  0  0  0  0  0  0  0  0  0
   45.0470   30.7610   49.1750 N   0  0  0  0  0  0  0  0  0  0  0  0
   45.4240   30.5220   47.8990 C   0  0  0  0  0  0  0  0  0  0  0  0
   43.9460   27.0910   45.8870 C   0  0  0  0  0  0  0  0  0  0  0  0
   43.8450   28.3180   45.2840 C   0  0  0  0  0  0  0  0  0  0  0  0
   44.2970   29.4980   45.8540 C   0  0  0  0  0  0  0  0  0  0  0  0
   44.8800   29.4170   47.1070 C   0  0  0  0  0  0  0  0  0  0  0  0
   44.9910   28.1720   47.7380 C   0  0  0  0  0  0  0  0  0  0  0  0
   44.5360   27.0290   47.1490 C   0  0  0  0  0  0  0  0  0  0  0  0
   43.3440   25.6490   45.0820 S   0  0  0  0  0  0  0  0  0  0  0  0
   43.7350   25.6100   43.6340 O   0  0  0  0  0  0  0  0  0  0  0  0
   41.8520   25.5830   45.2530 O   0  0  0  0  0  0  0  0  0  0  0  0
   44.4061   35.0900   45.2565 H   0  0  0  0  0  0  0  0  0  0  0  0
   45.6558   35.5845   43.1176 H   0  0  0  0  0  0  0  0  0  0  0  0
   48.3470   33.1370   42.1145 H   0  0  0  0  0  0  0  0  0  0  0  0
   46.4655   33.2602   40.6282 H   0  0  0  0  0  0  0  0  0  0  0  0
   46.1285   34.9274   40.9776 H   0  0  0  0  0  0  0  0  0  0  0  0
   47.6158   35.0780   39.0257 H   0  0  0  0  0  0  0  0  0  0  0  0
   48.6031   33.7258   39.5213 H   0  0  0  0  0  0  0  0  0  0  0  0
   49.9414   35.3494   40.4959 H   0  0  0  0  0  0  0  0  0  0  0  0
   48.6310   36.5690   40.4280 H   0  0  0  0  0  0  0  0  0  0  0  0
   48.0481   36.1579   42.6259 H   0  0  0  0  0  0  0  0  0  0  0  0
   49.5036   35.2232   42.8086 H   0  0  0  0  0  0  0  0  0  0  0  0
   46.5844   30.4981   45.6496 H   0  0  0  0  0  0  0  0  0  0  0  0
   48.0092   31.4519   46.3144 H   0  0  0  0  0  0  0  0  0  0  0  0
   47.2308   33.0903   48.5148 H   0  0  0  0  0  0  0  0  0  0  0  0
   45.6949   32.3283   50.5698 H   0  0  0  0  0  0  0  0  0  0  0  0
   43.3779   28.3692   44.2894 H   0  0  0  0  0  0  0  0  0  0  0  0
   44.1964   30.4607   45.3314 H   0  0  0  0  0  0  0  0  0  0  0  0
   45.4565   28.1143   48.7330 H   0  0  0  0  0  0  0  0  0  0  0  0
   44.6339   26.0634   47.6667 H   0  0  0  0  0  0  0  0  0  0  0  0
   43.9162   24.5465   45.6599 H   0  0  0  0  0  0  0  0  0  0  0  0
  1  6  2  0
  2  1  1  0
  3  2  2  0
  3  4  1  0
  4  5  2  0
  5  6  1  0
  5 12  1  0
  7 11  1  0
  7  3  1  0
  8  7  1  0
  9 10  1  0
  9  8  1  0
 10 11  1  0
 12 13  1  0
 13 17  1  0
 13 14  1  0
 14 15  2  0
 16 15  1  0
 17 16  2  0
 18 23  2  0
 19 20  2  0
 19 18  1  0
 20 21  1  0
 21 22  2  0
 21 17  1  0
 23 22  1  0
 24 26  2  0
 24 18  1  0
 25 24  2  0
  1 27  1  0
  2 28  1  0
  7 29  1  0
  8 30  1  0
  8 31  1  0
  9 32  1  0
  9 33  1  0
 10 34  1  0
 10 35  1  0
 11 36  1  0
 11 37  1  0
 12 38  1  0
 12 39  1  0
 14 40  1  0
 15 41  1  0
 19 42  1  0
 20 43  1  0
 22 44  1  0
 23 45  1  0
 24 46  1  0
M  ISO  8  27  14  28  14  29  13  30  13  31  13  32  13  33  13  34  13
M  ISO  8  35  13  36  13  37  13  38   8  39   8  40  14  41  14  42  14
M  ISO  4  43  14  44  14  45  14  46  11
M  END
>  <minimizedAffinity>  (1) 
-5.76330185

>  <minimizedRMSD>  (1) 
3.27491808

$$$$
