
     RDKit          3D

 34 36  0  0  0  0  0  0  0  0999 V2000
   45.1280   35.0410   44.5660 C   0  0  0  0  0  0  0  0  0  0  0  0
   45.9450   35.2110   43.4220 C   0  0  0  0  0  0  0  0  0  0  0  0
   46.7560   34.1050   43.0230 C   0  0  0  0  0  0  0  0  0  0  0  0
   46.6860   32.9800   43.7640 N   0  0  0  0  0  0  0  0  0  0  0  0
   45.8970   32.8440   44.8540 C   0  0  0  0  0  0  0  0  0  0  0  0
   45.1260   33.8640   45.2500 N   0  0  0  0  0  0  0  0  0  0  0  0
   47.6280   34.1840   41.8470 C   0  0  0  0  0  0  0  0  0  0  0  0
   46.9310   34.1830   40.5400 C   0  0  0  0  0  0  0  0  0  0  0  0
   48.1030   34.4560   39.6150 C   0  0  0  0  0  0  0  0  0  0  0  0
   48.8490   35.5340   40.3530 C   0  0  0  0  0  0  0  0  0  0  0  0
   48.4580   35.4450   41.8240 C   0  0  0  0  0  0  0  0  0  0  0  0
   45.8820   31.5790   45.5980 C   0  0  0  0  0  0  0  0  0  0  0  0
   46.4250   31.6650   46.9260 N   0  0  0  0  0  0  0  0  0  0  0  0
   47.6510   31.4150   47.3850 C   0  0  0  0  0  0  0  0  0  0  0  0
   47.7090   31.6380   48.7520 C   0  0  0  0  0  0  0  0  0  0  0  0
   46.4760   32.0340   49.1290 N   0  0  0  0  0  0  0  0  0  0  0  0
   45.7190   32.0450   48.0270 C   0  0  0  0  0  0  0  0  0  0  0  0
   44.3580   32.4060   47.9970 O   0  0  0  0  0  0  0  0  0  0  0  0
   44.4881   35.8688   44.9056 H   0  0  0  0  0  0  0  0  0  0  0  0
   45.9547   36.1580   42.8624 H   0  0  0  0  0  0  0  0  0  0  0  0
   48.2311   33.2709   41.9587 H   0  0  0  0  0  0  0  0  0  0  0  0
   46.4620   33.2108   40.3284 H   0  0  0  0  0  0  0  0  0  0  0  0
   46.1000   34.8990   40.4580 H   0  0  0  0  0  0  0  0  0  0  0  0
   47.7603   34.8103   38.6316 H   0  0  0  0  0  0  0  0  0  0  0  0
   48.7125   33.5655   39.4014 H   0  0  0  0  0  0  0  0  0  0  0  0
   49.9329   35.3815   40.2436 H   0  0  0  0  0  0  0  0  0  0  0  0
   48.5964   36.5245   39.9466 H   0  0  0  0  0  0  0  0  0  0  0  0
   49.3442   35.3531   42.4692 H   0  0  0  0  0  0  0  0  0  0  0  0
   47.9289   36.3335   42.1989 H   0  0  0  0  0  0  0  0  0  0  0  0
   44.8393   31.2369   45.6741 H   0  0  0  0  0  0  0  0  0  0  0  0
   46.5231   30.8796   45.0413 H   0  0  0  0  0  0  0  0  0  0  0  0
   48.4968   31.0794   46.7669 H   0  0  0  0  0  0  0  0  0  0  0  0
   48.5881   31.5159   49.4018 H   0  0  0  0  0  0  0  0  0  0  0  0
   43.8984   32.6738   48.8320 H   0  0  0  0  0  0  0  0  0  0  0  0
  1  6  2  0
  2  1  1  0
  3  2  2  0
  3  4  1  0
  4  5  2  0
  5  6  1  0
  5 12  1  0
  7  3  1  0
  8  7  1  0
  9 10  1  0
  9  8  1  0
 10 11  1  0
 11  7  1  0
 12 13  1  0
 13 14  1  0
 13 17  1  0
 14 15  2  0
 15 16  1  0
 17 16  2  0
 18 17  1  0
  1 19  1  0
  2 20  1  0
  7 21  1  0
  8 22  1  0
  8 23  1  0
  9 24  1  0
  9 25  1  0
 10 26  1  0
 10 27  1  0
 11 28  1  0
 11 29  1  0
 12 30  1  0
 12 31  1  0
 14 32  1  0
 15 33  1  0
 18 34  1  0
M  ISO  8  19  14  20  14  21  13  22  13  23  13  24  13  25  13  26  13
M  ISO  8  27  13  28  13  29  13  30   8  31   8  32  14  33  14  34   3
M  END
>  <minimizedAffinity>  (1) 
-5.27923298

>  <minimizedRMSD>  (1) 
0.339236081

$$$$
