
     RDKit          3D

 40 43  0  0  0  0  0  0  0  0999 V2000
   45.1370   34.9710   44.5400 C   0  0  0  0  0  0  0  0  0  0  0  0
   45.9560   35.1640   43.4010 C   0  0  0  0  0  0  0  0  0  0  0  0
   46.7760   34.0720   42.9850 C   0  0  0  0  0  0  0  0  0  0  0  0
   46.7070   32.9380   43.7090 N   0  0  0  0  0  0  0  0  0  0  0  0
   45.9170   32.7740   44.7950 C   0  0  0  0  0  0  0  0  0  0  0  0
   45.1410   33.7850   45.2020 N   0  0  0  0  0  0  0  0  0  0  0  0
   47.6520   34.1750   41.8130 C   0  0  0  0  0  0  0  0  0  0  0  0
   46.9580   34.1720   40.5040 C   0  0  0  0  0  0  0  0  0  0  0  0
   48.1300   34.4710   39.5870 C   0  0  0  0  0  0  0  0  0  0  0  0
   48.8660   35.5440   40.3340 C   0  0  0  0  0  0  0  0  0  0  0  0
   48.4500   35.4590   41.8020 C   0  0  0  0  0  0  0  0  0  0  0  0
   45.9120   31.4960   45.5130 C   0  0  0  0  0  0  0  0  0  0  0  0
   46.5950   31.5210   46.7770 N   0  0  0  0  0  0  0  0  0  0  0  0
   47.2830   32.4960   47.3720 C   0  0  0  0  0  0  0  0  0  0  0  0
   47.7690   32.0610   48.5960 C   0  0  0  0  0  0  0  0  0  0  0  0
   47.3630   30.7890   48.7440 N   0  0  0  0  0  0  0  0  0  0  0  0
   46.6570   30.4740   47.6430 C   0  0  0  0  0  0  0  0  0  0  0  0
   46.0600   29.1910   47.4430 N   0  0  0  0  0  0  0  0  0  0  0  0
   46.6390   28.4650   46.4430 C   0  0  0  0  0  0  0  0  0  0  0  0
   45.9840   27.2600   46.3460 C   0  0  0  0  0  0  0  0  0  0  0  0
   45.0110   27.2730   47.2950 N   0  0  0  0  0  0  0  0  0  0  0  0
   45.0670   28.4460   47.9520 C   0  0  0  0  0  0  0  0  0  0  0  0
   44.4915   35.7892   44.8919 H   0  0  0  0  0  0  0  0  0  0  0  0
   45.9602   36.1200   42.8569 H   0  0  0  0  0  0  0  0  0  0  0  0
   48.2751   33.2747   41.9193 H   0  0  0  0  0  0  0  0  0  0  0  0
   46.5057   33.1939   40.2835 H   0  0  0  0  0  0  0  0  0  0  0  0
   46.1147   34.8738   40.4238 H   0  0  0  0  0  0  0  0  0  0  0  0
   47.7851   34.8344   38.6077 H   0  0  0  0  0  0  0  0  0  0  0  0
   48.7489   33.5887   39.3668 H   0  0  0  0  0  0  0  0  0  0  0  0
   49.9509   35.3870   40.2426 H   0  0  0  0  0  0  0  0  0  0  0  0
   48.6236   36.5348   39.9222 H   0  0  0  0  0  0  0  0  0  0  0  0
   49.3254   35.3942   42.4650 H   0  0  0  0  0  0  0  0  0  0  0  0
   47.8939   36.3368   42.1630 H   0  0  0  0  0  0  0  0  0  0  0  0
   44.8660   31.2070   45.6931 H   0  0  0  0  0  0  0  0  0  0  0  0
   46.4529   30.7782   44.8788 H   0  0  0  0  0  0  0  0  0  0  0  0
   47.4421   33.5004   46.9526 H   0  0  0  0  0  0  0  0  0  0  0  0
   48.3707   32.6448   49.3081 H   0  0  0  0  0  0  0  0  0  0  0  0
   47.4859   28.7889   45.8203 H   0  0  0  0  0  0  0  0  0  0  0  0
   46.2040   26.4460   45.6397 H   0  0  0  0  0  0  0  0  0  0  0  0
   44.4035   28.7466   48.7762 H   0  0  0  0  0  0  0  0  0  0  0  0
  1  6  2  0
  2  1  1  0
  3  2  2  0
  3  4  1  0
  4  5  2  0
  5  6  1  0
  5 12  1  0
  7  3  1  0
  8  7  1  0
  9 10  1  0
  9  8  1  0
 10 11  1  0
 11  7  1  0
 12 13  1  0
 13 14  1  0
 13 17  1  0
 14 15  2  0
 15 16  1  0
 17 16  2  0
 18 17  1  0
 18 22  1  0
 19 18  1  0
 20 19  2  0
 20 21  1  0
 21 22  2  0
  1 23  1  0
  2 24  1  0
  7 25  1  0
  8 26  1  0
  8 27  1  0
  9 28  1  0
  9 29  1  0
 10 30  1  0
 10 31  1  0
 11 32  1  0
 11 33  1  0
 12 34  1  0
 12 35  1  0
 14 36  1  0
 15 37  1  0
 19 38  1  0
 20 39  1  0
 22 40  1  0
M  ISO  8  23  14  24  14  25  13  26  13  27  13  28  13  29  13  30  13
M  ISO  8  31  13  32  13  33  13  34   8  35   8  36  14  37  14  38  14
M  ISO  2  39  14  40  14
M  END
>  <minimizedAffinity>  (1) 
-5.28603697

>  <minimizedRMSD>  (1) 
2.23532367

$$$$
