
     RDKit          3D

 35 37  0  0  0  0  0  0  0  0999 V2000
   45.1350   35.0050   44.5930 C   0  0  0  0  0  0  0  0  0  0  0  0
   45.9480   35.1760   43.4500 C   0  0  0  0  0  0  0  0  0  0  0  0
   46.7720   34.0860   43.0340 C   0  0  0  0  0  0  0  0  0  0  0  0
   46.7210   32.9530   43.7690 N   0  0  0  0  0  0  0  0  0  0  0  0
   45.9260   32.8170   44.8700 C   0  0  0  0  0  0  0  0  0  0  0  0
   45.1480   33.8300   45.2710 N   0  0  0  0  0  0  0  0  0  0  0  0
   47.6300   34.1880   41.8620 C   0  0  0  0  0  0  0  0  0  0  0  0
   46.9320   34.1810   40.5560 C   0  0  0  0  0  0  0  0  0  0  0  0
   48.0860   34.4750   39.6230 C   0  0  0  0  0  0  0  0  0  0  0  0
   48.8600   35.5120   40.3690 C   0  0  0  0  0  0  0  0  0  0  0  0
   48.4210   35.4780   41.8310 C   0  0  0  0  0  0  0  0  0  0  0  0
   45.9300   31.5460   45.6050 C   0  0  0  0  0  0  0  0  0  0  0  0
   46.4800   31.6330   46.9300 N   0  0  0  0  0  0  0  0  0  0  0  0
   47.7210   31.4350   47.3730 C   0  0  0  0  0  0  0  0  0  0  0  0
   47.7880   31.6310   48.7420 C   0  0  0  0  0  0  0  0  0  0  0  0
   46.5380   31.9610   49.1440 N   0  0  0  0  0  0  0  0  0  0  0  0
   45.7790   31.9540   48.0460 C   0  0  0  0  0  0  0  0  0  0  0  0
   44.3730   32.2590   48.0760 N   0  0  0  0  0  0  0  0  0  0  0  0
   44.4893   35.8275   44.9343 H   0  0  0  0  0  0  0  0  0  0  0  0
   45.9463   36.1253   42.8942 H   0  0  0  0  0  0  0  0  0  0  0  0
   48.2526   33.2882   41.9748 H   0  0  0  0  0  0  0  0  0  0  0  0
   46.4779   33.2018   40.3438 H   0  0  0  0  0  0  0  0  0  0  0  0
   46.0922   34.8876   40.4821 H   0  0  0  0  0  0  0  0  0  0  0  0
   47.7267   34.8658   38.6596 H   0  0  0  0  0  0  0  0  0  0  0  0
   48.6810   33.5843   39.3727 H   0  0  0  0  0  0  0  0  0  0  0  0
   49.9361   35.2953   40.2986 H   0  0  0  0  0  0  0  0  0  0  0  0
   48.6720   36.5072   39.9397 H   0  0  0  0  0  0  0  0  0  0  0  0
   49.2842   35.4396   42.5117 H   0  0  0  0  0  0  0  0  0  0  0  0
   47.8576   36.3647   42.1572 H   0  0  0  0  0  0  0  0  0  0  0  0
   44.8921   31.1906   45.6851 H   0  0  0  0  0  0  0  0  0  0  0  0
   46.5744   30.8564   45.0401 H   0  0  0  0  0  0  0  0  0  0  0  0
   48.5746   31.1545   46.7385 H   0  0  0  0  0  0  0  0  0  0  0  0
   48.6808   31.5371   49.3777 H   0  0  0  0  0  0  0  0  0  0  0  0
   43.9159   32.4936   48.9687 H   0  0  0  0  0  0  0  0  0  0  0  0
   43.8238   32.2427   47.2048 H   0  0  0  0  0  0  0  0  0  0  0  0
  1  6  2  0
  2  1  1  0
  3  2  2  0
  3  4  1  0
  4  5  2  0
  5  6  1  0
  5 12  1  0
  7  3  1  0
  8  7  1  0
  9 10  1  0
  9  8  1  0
 10 11  1  0
 11  7  1  0
 12 13  1  0
 13 14  1  0
 13 17  1  0
 14 15  2  0
 15 16  1  0
 17 18  1  0
 17 16  2  0
  1 19  1  0
  2 20  1  0
  7 21  1  0
  8 22  1  0
  8 23  1  0
  9 24  1  0
  9 25  1  0
 10 26  1  0
 10 27  1  0
 11 28  1  0
 11 29  1  0
 12 30  1  0
 12 31  1  0
 14 32  1  0
 15 33  1  0
 18 34  1  0
 18 35  1  0
M  ISO  8  19  14  20  14  21  13  22  13  23  13  24  13  25  13  26  13
M  ISO  7  27  13  28  13  29  13  30   8  31   8  32  14  33  14
M  END
>  <minimizedAffinity>  (1) 
-5.25389671

>  <minimizedRMSD>  (1) 
0.346783638

$$$$
