
     RDKit          3D

 40 43  0  0  1  0  0  0  0  0999 V2000
   46.0570   31.0650   47.0270 C   0  0  2  0  0  0  0  0  0  0  0  0
   44.7390   34.9330   45.8520 C   0  0  0  0  0  0  0  0  0  0  0  0
   44.5540   35.6120   44.6510 C   0  0  0  0  0  0  0  0  0  0  0  0
   45.1450   35.0880   43.4870 C   0  0  0  0  0  0  0  0  0  0  0  0
   45.8660   33.9520   43.5860 N   0  0  0  0  0  0  0  0  0  0  0  0
   46.0380   33.2960   44.7760 C   0  0  0  0  0  0  0  0  0  0  0  0
   45.4720   33.8000   45.8810 N   0  0  0  0  0  0  0  0  0  0  0  0
   46.7920   32.1100   44.8930 N   0  0  0  0  0  0  0  0  0  0  0  0
   47.6670   31.8450   43.8830 C   0  0  0  0  0  0  0  0  0  0  0  0
   48.2890   30.6360   44.2410 C   0  0  0  0  0  0  0  0  0  0  0  0
   47.7760   30.2230   45.4340 N   0  0  0  0  0  0  0  0  0  0  0  0
   46.8670   31.1330   45.8120 C   0  0  0  0  0  0  0  0  0  0  0  0
   46.8690   31.8170   48.1210 C   0  0  0  0  0  0  0  0  0  0  0  0
   45.9350   29.6430   47.4970 C   0  0  0  0  0  0  0  0  0  0  0  0
   44.9180   28.9120   46.8200 N   0  0  0  0  0  0  0  0  0  0  0  0
   44.2260   29.3410   45.7640 N   0  0  0  0  0  0  0  0  0  0  0  0
   43.3600   28.3650   45.4140 C   0  0  0  0  0  0  0  0  0  0  0  0
   43.4920   27.2930   46.2490 C   0  0  0  0  0  0  0  0  0  0  0  0
   44.5060   27.6580   47.1580 C   0  0  0  0  0  0  0  0  0  0  0  0
   44.9310   26.7530   48.2410 C   0  0  0  0  0  0  0  0  0  0  0  0
   44.2670   25.3700   48.0940 C   0  0  0  0  0  0  0  0  0  0  0  0
   44.1410   26.2790   49.3440 C   0  0  0  0  0  0  0  0  0  0  0  0
   45.0569   31.4838   46.8414 H   0  0  0  0  0  0  0  0  0  0  0  0
   44.2877   35.3199   46.7776 H   0  0  0  0  0  0  0  0  0  0  0  0
   43.9595   36.5367   44.6130 H   0  0  0  0  0  0  0  0  0  0  0  0
   45.0220   35.5932   42.5177 H   0  0  0  0  0  0  0  0  0  0  0  0
   47.8481   32.4477   42.9808 H   0  0  0  0  0  0  0  0  0  0  0  0
   49.0597   30.1119   43.6567 H   0  0  0  0  0  0  0  0  0  0  0  0
   46.5254   31.4988   49.1163 H   0  0  0  0  0  0  0  0  0  0  0  0
   47.9381   31.5829   48.0100 H   0  0  0  0  0  0  0  0  0  0  0  0
   46.7175   32.9008   48.0100 H   0  0  0  0  0  0  0  0  0  0  0  0
   46.8976   29.1368   47.3320 H   0  0  0  0  0  0  0  0  0  0  0  0
   45.6605   29.6739   48.5617 H   0  0  0  0  0  0  0  0  0  0  0  0
   42.6500   28.4254   44.5760 H   0  0  0  0  0  0  0  0  0  0  0  0
   42.9289   26.3485   46.2190 H   0  0  0  0  0  0  0  0  0  0  0  0
   45.9204   27.2312   48.2899 H   0  0  0  0  0  0  0  0  0  0  0  0
   43.4133   25.2254   47.4155 H   0  0  0  0  0  0  0  0  0  0  0  0
   44.5914   24.3415   47.8774 H   0  0  0  0  0  0  0  0  0  0  0  0
   44.6356   25.9865   50.2820 H   0  0  0  0  0  0  0  0  0  0  0  0
   43.2920   26.6893   49.9104 H   0  0  0  0  0  0  0  0  0  0  0  0
  1 14  1  0
  1 13  1  0
  2  7  2  0
  3  2  1  0
  4  5  1  0
  4  3  2  0
  5  6  2  0
  6  8  1  0
  6  7  1  0
  8 12  1  0
  9 10  2  0
  9  8  1  0
 10 11  1  0
 11 12  2  0
 12  1  1  0
 15 19  1  0
 15 14  1  0
 16 15  1  0
 17 16  2  0
 17 18  1  0
 18 19  2  0
 19 20  1  0
 20 22  1  0
 21 20  1  0
 21 22  1  0
  1 23  1  6
  2 24  1  0
  3 25  1  0
  4 26  1  0
  9 27  1  0
 10 28  1  0
 13 29  1  0
 13 30  1  0
 13 31  1  0
 14 32  1  0
 14 33  1  0
 17 34  1  0
 18 35  1  0
 20 36  1  0
 21 37  1  0
 21 38  1  0
 22 39  1  0
 22 40  1  0
M  ISO  8  23   8  24  14  25  14  26  14  27  14  28  14  29   8  30   8
M  ISO  8  31   8  32   8  33   8  34  14  35  14  36  13  37  13  38  13
M  ISO  2  39  13  40  13
M  END
>  <minimizedAffinity>  (1) 
-4.73207331

>  <minimizedRMSD>  (1) 
0.836007893

$$$$
