
     RDKit          3D

 50 53  0  0  0  0  0  0  0  0999 V2000
   45.2470   34.3990   45.0090 C   0  0  0  0  0  0  0  0  0  0  0  0
   45.8980   34.6500   43.7790 C   0  0  0  0  0  0  0  0  0  0  0  0
   47.0220   33.8330   43.4400 C   0  0  0  0  0  0  0  0  0  0  0  0
   47.3770   32.8780   44.3240 N   0  0  0  0  0  0  0  0  0  0  0  0
   46.7380   32.6620   45.4880 C   0  0  0  0  0  0  0  0  0  0  0  0
   45.6810   33.4160   45.8290 N   0  0  0  0  0  0  0  0  0  0  0  0
   47.7560   34.0310   42.1840 C   0  0  0  0  0  0  0  0  0  0  0  0
   46.9170   34.2840   41.0000 C   0  0  0  0  0  0  0  0  0  0  0  0
   47.9990   34.6210   39.9930 C   0  0  0  0  0  0  0  0  0  0  0  0
   48.9020   35.5300   40.7750 C   0  0  0  0  0  0  0  0  0  0  0  0
   48.6940   35.2310   42.2540 C   0  0  0  0  0  0  0  0  0  0  0  0
   47.2050   31.5820   46.3910 C   0  0  0  0  0  0  0  0  0  0  0  0
   46.4100   31.4140   47.5710 N   0  0  0  0  0  0  0  0  0  0  0  0
   46.4250   32.0820   48.7250 C   0  0  0  0  0  0  0  0  0  0  0  0
   45.4460   31.5760   49.5860 C   0  0  0  0  0  0  0  0  0  0  0  0
   44.8270   30.5760   48.9250 N   0  0  0  0  0  0  0  0  0  0  0  0
   45.4210   30.4870   47.7040 C   0  0  0  0  0  0  0  0  0  0  0  0
   44.9730   29.2850   46.4520 S   0  0  0  0  0  0  0  0  0  0  0  0
   44.6580   27.7030   47.2300 C   0  0  0  0  0  0  0  0  0  0  0  0
   45.8340   26.8490   47.5000 C   0  0  0  0  0  0  0  0  0  0  0  0
   46.3410   26.0710   46.3340 C   0  0  0  0  0  0  0  0  0  0  0  0
   45.2790   25.6300   45.3610 C   0  0  0  0  0  0  0  0  0  0  0  0
   44.2060   26.6370   45.1090 C   0  0  0  0  0  0  0  0  0  0  0  0
   43.5700   26.9760   46.4500 C   0  0  0  0  0  0  0  0  0  0  0  0
   44.3796   35.0092   45.3011 H   0  0  0  0  0  0  0  0  0  0  0  0
   45.5514   35.4473   43.1051 H   0  0  0  0  0  0  0  0  0  0  0  0
   48.2843   33.0729   42.0705 H   0  0  0  0  0  0  0  0  0  0  0  0
   46.3449   33.3921   40.7044 H   0  0  0  0  0  0  0  0  0  0  0  0
   46.1432   35.0548   41.1309 H   0  0  0  0  0  0  0  0  0  0  0  0
   47.5792   35.1363   39.1165 H   0  0  0  0  0  0  0  0  0  0  0  0
   48.5122   33.7358   39.5893 H   0  0  0  0  0  0  0  0  0  0  0  0
   49.9505   35.3440   40.4992 H   0  0  0  0  0  0  0  0  0  0  0  0
   48.6688   36.5830   40.5588 H   0  0  0  0  0  0  0  0  0  0  0  0
   48.2255   36.0791   42.7748 H   0  0  0  0  0  0  0  0  0  0  0  0
   49.6234   35.0458   42.8124 H   0  0  0  0  0  0  0  0  0  0  0  0
   47.1936   30.6356   45.8305 H   0  0  0  0  0  0  0  0  0  0  0  0
   48.2123   31.8676   46.7283 H   0  0  0  0  0  0  0  0  0  0  0  0
   47.1079   32.9103   48.9648 H   0  0  0  0  0  0  0  0  0  0  0  0
   45.2237   31.9257   50.6050 H   0  0  0  0  0  0  0  0  0  0  0  0
   44.3146   27.9320   48.2496 H   0  0  0  0  0  0  0  0  0  0  0  0
   46.6489   27.4964   47.8560 H   0  0  0  0  0  0  0  0  0  0  0  0
   45.5045   26.1051   48.2403 H   0  0  0  0  0  0  0  0  0  0  0  0
   47.0633   26.6986   45.7914 H   0  0  0  0  0  0  0  0  0  0  0  0
   46.7871   25.1528   46.7438 H   0  0  0  0  0  0  0  0  0  0  0  0
   45.7667   25.4019   44.4018 H   0  0  0  0  0  0  0  0  0  0  0  0
   44.7857   24.7576   45.8143 H   0  0  0  0  0  0  0  0  0  0  0  0
   44.6394   27.5427   44.6596 H   0  0  0  0  0  0  0  0  0  0  0  0
   43.4535   26.2347   44.4148 H   0  0  0  0  0  0  0  0  0  0  0  0
   42.6946   27.6271   46.3091 H   0  0  0  0  0  0  0  0  0  0  0  0
   43.2136   26.0786   46.9768 H   0  0  0  0  0  0  0  0  0  0  0  0
  1  6  2  0
  2  1  1  0
  3  2  2  0
  3  4  1  0
  4  5  2  0
  5  6  1  0
  5 12  1  0
  7 11  1  0
  7  3  1  0
  8  7  1  0
  9 10  1  0
  9  8  1  0
 10 11  1  0
 12 13  1  0
 13 17  1  0
 13 14  1  0
 14 15  2  0
 16 15  1  0
 17 16  2  0
 18 19  1  0
 18 17  1  0
 19 20  1  0
 21 20  1  0
 22 21  1  0
 23 22  1  0
 23 24  1  0
 24 19  1  0
  1 25  1  0
  2 26  1  0
  7 27  1  0
  8 28  1  0
  8 29  1  0
  9 30  1  0
  9 31  1  0
 10 32  1  0
 10 33  1  0
 11 34  1  0
 11 35  1  0
 12 36  1  0
 12 37  1  0
 14 38  1  0
 15 39  1  0
 19 40  1  0
 20 41  1  0
 20 42  1  0
 21 43  1  0
 21 44  1  0
 22 45  1  0
 22 46  1  0
 23 47  1  0
 23 48  1  0
 24 49  1  0
 24 50  1  0
M  ISO  8  25  14  26  14  27  13  28  13  29  13  30  13  31  13  32  13
M  ISO  8  33  13  34  13  35  13  36   8  37   8  38  14  39  14  40  13
M  ISO  8  41  13  42  13  43  13  44  13  45  13  46  13  47  13  48  13
M  ISO  2  49  13  50  13
M  END
>  <minimizedAffinity>  (1) 
-5.61173725

>  <minimizedRMSD>  (1) 
2.36038852

$$$$
