
     RDKit          3D

 25 26  0  0  0  0  0  0  0  0999 V2000
   45.6440   34.8520   42.5250 C   0  0  0  0  0  0  0  0  0  0  0  0
   45.2110   36.1600   42.9920 C   0  0  0  0  0  0  0  0  0  0  0  0
   44.7720   36.0120   44.4540 C   0  0  0  0  0  0  0  0  0  0  0  0
   45.0920   34.5940   44.8730 C   0  0  0  0  0  0  0  0  0  0  0  0
   45.1070   33.8450   43.5990 C   0  0  0  0  0  0  0  0  0  0  0  0
   47.0850   34.5930   42.4680 C   0  0  0  0  0  0  0  0  0  0  0  0
   47.9620   35.6230   42.0050 C   0  0  0  0  0  0  0  0  0  0  0  0
   49.3400   35.4120   41.9850 C   0  0  0  0  0  0  0  0  0  0  0  0
   49.7760   34.1910   42.4280 N   0  0  0  0  0  0  0  0  0  0  0  0
   48.9160   33.2280   42.8650 C   0  0  0  0  0  0  0  0  0  0  0  0
   47.5830   33.4270   42.8850 N   0  0  0  0  0  0  0  0  0  0  0  0
   44.9580   34.4790   41.2380 C   0  0  0  0  0  0  0  0  0  0  0  0
   43.9780   35.0490   40.7890 O   0  0  0  0  0  0  0  0  0  0  0  0
   46.0422   36.8770   42.9213 H   0  0  0  0  0  0  0  0  0  0  0  0
   44.3793   36.5328   42.3761 H   0  0  0  0  0  0  0  0  0  0  0  0
   45.3205   36.7253   45.0867 H   0  0  0  0  0  0  0  0  0  0  0  0
   43.6973   36.2195   44.5631 H   0  0  0  0  0  0  0  0  0  0  0  0
   46.0727   34.5437   45.3688 H   0  0  0  0  0  0  0  0  0  0  0  0
   44.3675   34.1901   45.5955 H   0  0  0  0  0  0  0  0  0  0  0  0
   44.0921   33.5104   43.3382 H   0  0  0  0  0  0  0  0  0  0  0  0
   45.7357   32.9446   43.6633 H   0  0  0  0  0  0  0  0  0  0  0  0
   47.5487   36.5837   41.6639 H   0  0  0  0  0  0  0  0  0  0  0  0
   50.0395   36.1843   41.6325 H   0  0  0  0  0  0  0  0  0  0  0  0
   49.3198   32.2647   43.2099 H   0  0  0  0  0  0  0  0  0  0  0  0
   45.3685   33.6353   40.6638 H   0  0  0  0  0  0  0  0  0  0  0  0
  1  2  1  0
  1  5  1  0
  2  3  1  0
  3  4  1  0
  5  4  1  0
  6  1  1  0
  6 11  1  0
  7  6  2  0
  8  7  1  0
  8  9  2  0
  9 10  1  0
 10 11  2  0
 12  1  1  0
 13 12  2  0
  2 14  1  0
  2 15  1  0
  3 16  1  0
  3 17  1  0
  4 18  1  0
  4 19  1  0
  5 20  1  0
  5 21  1  0
  7 22  1  0
  8 23  1  0
 10 24  1  0
 12 25  1  0
M  ISO  8  14  13  15  13  16  13  17  13  18  13  19  13  20  13  21  13
M  ISO  4  22  14  23  14  24  14  25   6
M  END
>  <minimizedAffinity>  (1) 
-4.14632034

>  <minimizedRMSD>  (1) 
3.96154857

$$$$
