
     RDKit          3D

 37 39  0  0  0  0  0  0  0  0999 V2000
   45.6960   34.8770   42.5300 C   0  0  0  0  0  0  0  0  0  0  0  0
   45.2400   36.1360   43.1100 C   0  0  0  0  0  0  0  0  0  0  0  0
   44.7980   35.8860   44.5450 C   0  0  0  0  0  0  0  0  0  0  0  0
   45.1280   34.4470   44.8660 C   0  0  0  0  0  0  0  0  0  0  0  0
   45.1460   33.7970   43.5430 C   0  0  0  0  0  0  0  0  0  0  0  0
   47.1300   34.6250   42.5030 C   0  0  0  0  0  0  0  0  0  0  0  0
   48.0010   35.6420   42.0350 C   0  0  0  0  0  0  0  0  0  0  0  0
   49.3740   35.4460   41.9880 C   0  0  0  0  0  0  0  0  0  0  0  0
   49.8180   34.2310   42.4130 N   0  0  0  0  0  0  0  0  0  0  0  0
   48.9670   33.2650   42.8600 C   0  0  0  0  0  0  0  0  0  0  0  0
   47.6400   33.4700   42.9010 N   0  0  0  0  0  0  0  0  0  0  0  0
   45.0090   34.5760   41.2360 C   0  0  0  0  0  0  0  0  0  0  0  0
   43.9690   35.1450   40.8910 O   0  0  0  0  0  0  0  0  0  0  0  0
   45.3580   33.6560   40.2080 N   0  0  0  0  0  0  0  0  0  0  0  0
   46.7680   33.7260   39.8820 C   0  0  0  0  0  0  0  0  0  0  0  0
   46.9110   32.9110   38.5900 C   0  0  0  0  0  0  0  0  0  0  0  0
   45.9300   31.7920   38.8730 C   0  0  0  0  0  0  0  0  0  0  0  0
   44.7420   32.6360   39.3560 C   0  0  0  0  0  0  0  0  0  0  0  0
   46.0620   36.8669   43.0988 H   0  0  0  0  0  0  0  0  0  0  0  0
   44.3977   36.5329   42.5243 H   0  0  0  0  0  0  0  0  0  0  0  0
   45.3370   36.5585   45.2286 H   0  0  0  0  0  0  0  0  0  0  0  0
   43.7210   36.0767   44.6623 H   0  0  0  0  0  0  0  0  0  0  0  0
   46.1094   34.3683   45.3566 H   0  0  0  0  0  0  0  0  0  0  0  0
   44.4102   33.9866   45.5608 H   0  0  0  0  0  0  0  0  0  0  0  0
   44.1302   33.4874   43.2562 H   0  0  0  0  0  0  0  0  0  0  0  0
   45.7748   32.8945   43.5479 H   0  0  0  0  0  0  0  0  0  0  0  0
   47.5807   36.6030   41.7035 H   0  0  0  0  0  0  0  0  0  0  0  0
   50.0623   36.2253   41.6290 H   0  0  0  0  0  0  0  0  0  0  0  0
   49.3744   32.2992   43.1935 H   0  0  0  0  0  0  0  0  0  0  0  0
   47.0769   34.7690   39.7187 H   0  0  0  0  0  0  0  0  0  0  0  0
   47.4019   33.3359   40.6920 H   0  0  0  0  0  0  0  0  0  0  0  0
   47.9352   32.5320   38.4580 H   0  0  0  0  0  0  0  0  0  0  0  0
   46.7173   33.4731   37.6645 H   0  0  0  0  0  0  0  0  0  0  0  0
   45.6870   31.2168   37.9674 H   0  0  0  0  0  0  0  0  0  0  0  0
   46.2800   31.0201   39.5742 H   0  0  0  0  0  0  0  0  0  0  0  0
   44.2198   33.0993   38.5059 H   0  0  0  0  0  0  0  0  0  0  0  0
   43.9859   32.0394   39.8874 H   0  0  0  0  0  0  0  0  0  0  0  0
  1  2  1  0
  1  5  1  0
  2  3  1  0
  3  4  1  0
  5  4  1  0
  6  1  1  0
  6 11  1  0
  7  6  2  0
  8  7  1  0
  8  9  2  0
  9 10  1  0
 10 11  2  0
 12  1  1  0
 13 12  2  0
 14 12  1  0
 15 14  1  0
 16 17  1  0
 16 15  1  0
 17 18  1  0
 18 14  1  0
  2 19  1  0
  2 20  1  0
  3 21  1  0
  3 22  1  0
  4 23  1  0
  4 24  1  0
  5 25  1  0
  5 26  1  0
  7 27  1  0
  8 28  1  0
 10 29  1  0
 15 30  1  0
 15 31  1  0
 16 32  1  0
 16 33  1  0
 17 34  1  0
 17 35  1  0
 18 36  1  0
 18 37  1  0
M  ISO  8  19  13  20  13  21  13  22  13  23  13  24  13  25  13  26  13
M  ISO  8  27  14  28  14  29  14  30  13  31  13  32  13  33  13  34  13
M  ISO  3  35  13  36  13  37  13
M  END
>  <minimizedAffinity>  (1) 
-4.94847679

>  <minimizedRMSD>  (1) 
0.278093129

$$$$
