
     RDKit          3D

 39 41  0  0  0  0  0  0  0  0999 V2000
   45.6890   34.8650   42.5110 C   0  0  0  0  0  0  0  0  0  0  0  0
   45.2340   36.1240   43.0840 C   0  0  0  0  0  0  0  0  0  0  0  0
   44.8020   35.8850   44.5240 C   0  0  0  0  0  0  0  0  0  0  0  0
   45.1190   34.4450   44.8480 C   0  0  0  0  0  0  0  0  0  0  0  0
   45.1330   33.7880   43.5280 C   0  0  0  0  0  0  0  0  0  0  0  0
   47.1200   34.6080   42.4780 C   0  0  0  0  0  0  0  0  0  0  0  0
   47.9990   35.6300   42.0380 C   0  0  0  0  0  0  0  0  0  0  0  0
   49.3770   35.4200   41.9980 C   0  0  0  0  0  0  0  0  0  0  0  0
   49.8080   34.1880   42.4030 N   0  0  0  0  0  0  0  0  0  0  0  0
   48.9520   33.2240   42.8200 C   0  0  0  0  0  0  0  0  0  0  0  0
   47.6310   33.4470   42.8520 N   0  0  0  0  0  0  0  0  0  0  0  0
   44.9900   34.5520   41.2210 C   0  0  0  0  0  0  0  0  0  0  0  0
   43.9720   35.1460   40.8580 O   0  0  0  0  0  0  0  0  0  0  0  0
   45.2120   33.6280   40.1600 N   0  0  0  0  0  0  0  0  0  0  0  0
   46.6430   33.7610   39.9300 C   0  0  0  0  0  0  0  0  0  0  0  0
   47.0670   32.8150   38.8380 C   0  0  0  0  0  0  0  0  0  0  0  0
   46.3160   33.0170   37.6150 N   0  0  0  0  0  0  0  0  0  0  0  0
   44.8890   32.9550   37.8380 C   0  0  0  0  0  0  0  0  0  0  0  0
   44.5660   32.6810   39.2990 C   0  0  0  0  0  0  0  0  0  0  0  0
   46.0538   36.8571   43.0616 H   0  0  0  0  0  0  0  0  0  0  0  0
   44.3862   36.5130   42.5011 H   0  0  0  0  0  0  0  0  0  0  0  0
   45.3542   36.5545   45.1999 H   0  0  0  0  0  0  0  0  0  0  0  0
   43.7283   36.0880   44.6500 H   0  0  0  0  0  0  0  0  0  0  0  0
   46.0993   34.3596   45.3397 H   0  0  0  0  0  0  0  0  0  0  0  0
   44.3952   33.9937   45.5426 H   0  0  0  0  0  0  0  0  0  0  0  0
   44.1157   33.4820   43.2425 H   0  0  0  0  0  0  0  0  0  0  0  0
   45.7560   32.8815   43.5356 H   0  0  0  0  0  0  0  0  0  0  0  0
   47.5885   36.6011   41.7241 H   0  0  0  0  0  0  0  0  0  0  0  0
   50.0756   36.1997   41.6605 H   0  0  0  0  0  0  0  0  0  0  0  0
   49.3461   32.2468   43.1360 H   0  0  0  0  0  0  0  0  0  0  0  0
   46.8713   34.7941   39.6290 H   0  0  0  0  0  0  0  0  0  0  0  0
   47.1866   33.5194   40.8553 H   0  0  0  0  0  0  0  0  0  0  0  0
   48.1351   32.9729   38.6277 H   0  0  0  0  0  0  0  0  0  0  0  0
   46.8743   31.7896   39.1865 H   0  0  0  0  0  0  0  0  0  0  0  0
   46.5788   32.2857   36.9390 H   0  0  0  0  0  0  0  0  0  0  0  0
   44.4393   33.9155   37.5463 H   0  0  0  0  0  0  0  0  0  0  0  0
   44.4799   32.1322   37.2332 H   0  0  0  0  0  0  0  0  0  0  0  0
   43.4777   32.7482   39.4444 H   0  0  0  0  0  0  0  0  0  0  0  0
   44.9303   31.6747   39.5531 H   0  0  0  0  0  0  0  0  0  0  0  0
  1  2  1  0
  1  5  1  0
  2  3  1  0
  3  4  1  0
  5  4  1  0
  6  1  1  0
  6 11  1  0
  7  6  2  0
  8  7  1  0
  8  9  2  0
  9 10  1  0
 10 11  2  0
 12  1  1  0
 13 12  2  0
 14 12  1  0
 15 14  1  0
 16 15  1  0
 17 18  1  0
 17 16  1  0
 18 19  1  0
 19 14  1  0
  2 20  1  0
  2 21  1  0
  3 22  1  0
  3 23  1  0
  4 24  1  0
  4 25  1  0
  5 26  1  0
  5 27  1  0
  7 28  1  0
  8 29  1  0
 10 30  1  0
 15 31  1  0
 15 32  1  0
 16 33  1  0
 16 34  1  0
 17 35  1  0
 18 36  1  0
 18 37  1  0
 19 38  1  0
 19 39  1  0
M  ISO  8  20  13  21  13  22  13  23  13  24  13  25  13  26  13  27  13
M  ISO  8  28  14  29  14  30  14  31  13  32  13  33  13  34  13  35   5
M  ISO  4  36  13  37  13  38  13  39  13
M  END
>  <minimizedAffinity>  (1) 
-5.16828108

>  <minimizedRMSD>  (1) 
0.282853425

$$$$
