
     RDKit          3D

 35 37  0  0  0  0  0  0  0  0999 V2000
   45.6350   34.9350   42.5310 C   0  0  0  0  0  0  0  0  0  0  0  0
   45.2250   36.1760   43.1900 C   0  0  0  0  0  0  0  0  0  0  0  0
   44.7960   35.8840   44.6180 C   0  0  0  0  0  0  0  0  0  0  0  0
   45.0910   34.4200   44.8660 C   0  0  0  0  0  0  0  0  0  0  0  0
   45.0990   33.8240   43.5230 C   0  0  0  0  0  0  0  0  0  0  0  0
   47.0770   34.6750   42.4930 C   0  0  0  0  0  0  0  0  0  0  0  0
   47.9580   35.6490   41.9790 C   0  0  0  0  0  0  0  0  0  0  0  0
   49.3290   35.4330   41.9060 C   0  0  0  0  0  0  0  0  0  0  0  0
   49.7570   34.2240   42.3620 N   0  0  0  0  0  0  0  0  0  0  0  0
   48.9100   33.2930   42.8540 C   0  0  0  0  0  0  0  0  0  0  0  0
   47.6040   33.5400   42.9070 N   0  0  0  0  0  0  0  0  0  0  0  0
   44.9360   34.6650   41.2510 C   0  0  0  0  0  0  0  0  0  0  0  0
   43.9210   35.3470   40.9590 O   0  0  0  0  0  0  0  0  0  0  0  0
   45.0350   33.7740   40.0950 C   0  0  0  0  0  0  0  0  0  0  0  0
   46.2690   33.3810   39.6340 C   0  0  0  0  0  0  0  0  0  0  0  0
   46.4060   32.5380   38.5170 C   0  0  0  0  0  0  0  0  0  0  0  0
   45.2760   32.1010   37.8790 C   0  0  0  0  0  0  0  0  0  0  0  0
   44.0120   32.4580   38.2890 C   0  0  0  0  0  0  0  0  0  0  0  0
   43.9730   33.2800   39.3820 C   0  0  0  0  0  0  0  0  0  0  0  0
   46.0697   36.8806   43.1995 H   0  0  0  0  0  0  0  0  0  0  0  0
   44.3803   36.6168   42.6403 H   0  0  0  0  0  0  0  0  0  0  0  0
   45.3647   36.5104   45.3210 H   0  0  0  0  0  0  0  0  0  0  0  0
   43.7284   36.1046   44.7651 H   0  0  0  0  0  0  0  0  0  0  0  0
   46.0689   34.2959   45.3542 H   0  0  0  0  0  0  0  0  0  0  0  0
   44.3548   33.9479   45.5332 H   0  0  0  0  0  0  0  0  0  0  0  0
   44.0808   33.5210   43.2374 H   0  0  0  0  0  0  0  0  0  0  0  0
   45.7368   32.9283   43.4932 H   0  0  0  0  0  0  0  0  0  0  0  0
   47.5484   36.6069   41.6258 H   0  0  0  0  0  0  0  0  0  0  0  0
   50.0217   36.1884   41.5065 H   0  0  0  0  0  0  0  0  0  0  0  0
   49.3013   32.3291   43.2113 H   0  0  0  0  0  0  0  0  0  0  0  0
   47.1724   33.7351   40.1522 H   0  0  0  0  0  0  0  0  0  0  0  0
   47.4023   32.2353   38.1623 H   0  0  0  0  0  0  0  0  0  0  0  0
   45.3827   31.4400   37.0063 H   0  0  0  0  0  0  0  0  0  0  0  0
   43.1028   32.1093   37.7774 H   0  0  0  0  0  0  0  0  0  0  0  0
   42.9732   33.5795   39.7293 H   0  0  0  0  0  0  0  0  0  0  0  0
  1  2  1  0
  1  5  1  0
  2  3  1  0
  3  4  1  0
  5  4  1  0
  6  1  1  0
  6 11  1  0
  7  6  2  0
  8  7  1  0
  8  9  2  0
  9 10  1  0
 10 11  2  0
 12  1  1  0
 13 12  2  0
 14 12  1  0
 15 14  2  0
 16 15  1  0
 17 18  1  0
 17 16  2  0
 18 19  2  0
 19 14  1  0
  2 20  1  0
  2 21  1  0
  3 22  1  0
  3 23  1  0
  4 24  1  0
  4 25  1  0
  5 26  1  0
  5 27  1  0
  7 28  1  0
  8 29  1  0
 10 30  1  0
 15 31  1  0
 16 32  1  0
 17 33  1  0
 18 34  1  0
 19 35  1  0
M  ISO  8  20  13  21  13  22  13  23  13  24  13  25  13  26  13  27  13
M  ISO  8  28  14  29  14  30  14  31  14  32  14  33  14  34  14  35  14
M  END
>  <minimizedAffinity>  (1) 
-4.85528708

>  <minimizedRMSD>  (1) 
0.39878425

$$$$
