
     RDKit          3D

 41 44  0  0  0  0  0  0  0  0999 V2000
   45.3720   34.8800   42.9150 C   0  0  0  0  0  0  0  0  0  0  0  0
   45.0790   35.7750   44.0290 C   0  0  0  0  0  0  0  0  0  0  0  0
   44.9250   34.9850   45.3180 C   0  0  0  0  0  0  0  0  0  0  0  0
   45.2390   33.5420   44.9730 C   0  0  0  0  0  0  0  0  0  0  0  0
   45.0100   33.4550   43.5210 C   0  0  0  0  0  0  0  0  0  0  0  0
   46.7670   34.7200   42.5390 C   0  0  0  0  0  0  0  0  0  0  0  0
   47.1960   35.1650   41.2650 C   0  0  0  0  0  0  0  0  0  0  0  0
   48.5160   35.0220   40.8550 C   0  0  0  0  0  0  0  0  0  0  0  0
   49.3570   34.4320   41.7500 N   0  0  0  0  0  0  0  0  0  0  0  0
   48.9400   34.0100   42.9660 C   0  0  0  0  0  0  0  0  0  0  0  0
   47.6630   34.1530   43.3530 N   0  0  0  0  0  0  0  0  0  0  0  0
   44.4530   35.0470   41.7550 C   0  0  0  0  0  0  0  0  0  0  0  0
   44.0850   36.1920   41.4370 O   0  0  0  0  0  0  0  0  0  0  0  0
   43.7810   34.1780   40.7910 C   0  0  0  0  0  0  0  0  0  0  0  0
   44.4560   33.4660   39.8290 C   0  0  0  0  0  0  0  0  0  0  0  0
   43.9300   32.7120   38.8060 C   0  0  0  0  0  0  0  0  0  0  0  0
   42.5560   32.6610   38.7300 C   0  0  0  0  0  0  0  0  0  0  0  0
   41.8100   33.3450   39.6550 C   0  0  0  0  0  0  0  0  0  0  0  0
   40.4410   33.2610   39.5790 C   0  0  0  0  0  0  0  0  0  0  0  0
   39.5880   33.8820   40.4670 C   0  0  0  0  0  0  0  0  0  0  0  0
   40.1970   34.6220   41.4810 C   0  0  0  0  0  0  0  0  0  0  0  0
   41.5700   34.6770   41.5160 C   0  0  0  0  0  0  0  0  0  0  0  0
   42.4320   34.0730   40.6450 C   0  0  0  0  0  0  0  0  0  0  0  0
   45.9029   36.4950   44.1416 H   0  0  0  0  0  0  0  0  0  0  0  0
   44.1382   36.3059   43.8218 H   0  0  0  0  0  0  0  0  0  0  0  0
   45.6276   35.3563   46.0785 H   0  0  0  0  0  0  0  0  0  0  0  0
   43.9100   35.0858   45.7298 H   0  0  0  0  0  0  0  0  0  0  0  0
   46.2843   33.3018   45.2174 H   0  0  0  0  0  0  0  0  0  0  0  0
   44.6191   32.8309   45.5388 H   0  0  0  0  0  0  0  0  0  0  0  0
   43.9565   33.2129   43.3172 H   0  0  0  0  0  0  0  0  0  0  0  0
   45.6278   32.6646   43.0697 H   0  0  0  0  0  0  0  0  0  0  0  0
   46.4690   35.6338   40.5855 H   0  0  0  0  0  0  0  0  0  0  0  0
   48.8609   35.3642   39.8681 H   0  0  0  0  0  0  0  0  0  0  0  0
   49.6617   33.5406   43.6507 H   0  0  0  0  0  0  0  0  0  0  0  0
   45.5540   33.5037   39.8839 H   0  0  0  0  0  0  0  0  0  0  0  0
   44.5713   32.1793   38.0884 H   0  0  0  0  0  0  0  0  0  0  0  0
   42.0632   32.0789   37.9373 H   0  0  0  0  0  0  0  0  0  0  0  0
   40.0010   32.6658   38.7653 H   0  0  0  0  0  0  0  0  0  0  0  0
   38.4945   33.7990   40.3811 H   0  0  0  0  0  0  0  0  0  0  0  0
   39.5929   35.1488   42.2344 H   0  0  0  0  0  0  0  0  0  0  0  0
   42.0204   35.2672   42.3276 H   0  0  0  0  0  0  0  0  0  0  0  0
  1  5  1  0
  1  2  1  0
  2  3  1  0
  4  3  1  0
  5  4  1  0
  6  1  1  0
  6 11  1  0
  7  6  2  0
  8  7  1  0
  8  9  2  0
  9 10  1  0
 10 11  2  0
 12  1  1  0
 13 12  2  0
 14 12  1  0
 15 14  2  0
 16 15  1  0
 17 16  2  0
 17 18  1  0
 18 23  2  0
 19 18  1  0
 19 20  2  0
 20 21  1  0
 21 22  2  0
 23 14  1  0
 23 22  1  0
  2 24  1  0
  2 25  1  0
  3 26  1  0
  3 27  1  0
  4 28  1  0
  4 29  1  0
  5 30  1  0
  5 31  1  0
  7 32  1  0
  8 33  1  0
 10 34  1  0
 15 35  1  0
 16 36  1  0
 17 37  1  0
 19 38  1  0
 20 39  1  0
 21 40  1  0
 22 41  1  0
M  ISO  8  24  13  25  13  26  13  27  13  28  13  29  13  30  13  31  13
M  ISO  8  32  14  33  14  34  14  35  14  36  14  37  14  38  14  39  14
M  ISO  2  40  14  41  14
M  END
>  <minimizedAffinity>  (1) 
-5.5226655

>  <minimizedRMSD>  (1) 
3.66655159

$$$$
