
     RDKit          3D

 32 34  0  0  0  0  0  0  0  0999 V2000
   45.6840   34.8870   42.5260 C   0  0  0  0  0  0  0  0  0  0  0  0
   45.2300   36.1450   43.1070 C   0  0  0  0  0  0  0  0  0  0  0  0
   44.7850   35.9060   44.5370 C   0  0  0  0  0  0  0  0  0  0  0  0
   45.1170   34.4730   44.8710 C   0  0  0  0  0  0  0  0  0  0  0  0
   45.1390   33.8110   43.5550 C   0  0  0  0  0  0  0  0  0  0  0  0
   47.1160   34.6330   42.5030 C   0  0  0  0  0  0  0  0  0  0  0  0
   47.9880   35.6360   42.0140 C   0  0  0  0  0  0  0  0  0  0  0  0
   49.3640   35.4300   41.9700 C   0  0  0  0  0  0  0  0  0  0  0  0
   49.8060   34.2180   42.4230 N   0  0  0  0  0  0  0  0  0  0  0  0
   48.9600   33.2700   42.8880 C   0  0  0  0  0  0  0  0  0  0  0  0
   47.6440   33.4970   42.9170 N   0  0  0  0  0  0  0  0  0  0  0  0
   44.9940   34.5460   41.2480 C   0  0  0  0  0  0  0  0  0  0  0  0
   43.9570   35.1470   40.8970 O   0  0  0  0  0  0  0  0  0  0  0  0
   45.1550   33.5740   40.0850 C   0  0  0  0  0  0  0  0  0  0  0  0
   46.2420   33.3100   39.4640 C   0  0  0  0  0  0  0  0  0  0  0  0
   46.4110   32.4500   38.4350 C   0  0  0  0  0  0  0  0  0  0  0  0
   45.1220   31.8290   38.1080 C   0  0  0  0  0  0  0  0  0  0  0  0
   43.9350   32.6480   39.3910 S   0  0  0  0  0  0  0  0  0  0  0  0
   46.0542   36.8734   43.0957 H   0  0  0  0  0  0  0  0  0  0  0  0
   44.3870   36.5385   42.5201 H   0  0  0  0  0  0  0  0  0  0  0  0
   45.3195   36.5856   45.2171 H   0  0  0  0  0  0  0  0  0  0  0  0
   43.7070   36.0944   44.6483 H   0  0  0  0  0  0  0  0  0  0  0  0
   46.0976   34.4010   45.3641 H   0  0  0  0  0  0  0  0  0  0  0  0
   44.3986   34.0175   45.5685 H   0  0  0  0  0  0  0  0  0  0  0  0
   44.1250   33.4922   43.2718 H   0  0  0  0  0  0  0  0  0  0  0  0
   45.7742   32.9131   43.5692 H   0  0  0  0  0  0  0  0  0  0  0  0
   47.5718   36.5921   41.6637 H   0  0  0  0  0  0  0  0  0  0  0  0
   50.0556   36.1977   41.5927 H   0  0  0  0  0  0  0  0  0  0  0  0
   49.3577   32.3081   43.2437 H   0  0  0  0  0  0  0  0  0  0  0  0
   47.1410   33.8434   39.8063 H   0  0  0  0  0  0  0  0  0  0  0  0
   47.3637   32.2476   37.9237 H   0  0  0  0  0  0  0  0  0  0  0  0
   44.8912   31.0863   37.3301 H   0  0  0  0  0  0  0  0  0  0  0  0
  1  2  1  0
  1  5  1  0
  2  3  1  0
  3  4  1  0
  5  4  1  0
  6  1  1  0
  6 11  1  0
  7  6  2  0
  8  7  1  0
  8  9  2  0
  9 10  1  0
 10 11  2  0
 12  1  1  0
 13 12  2  0
 14 12  1  0
 15 14  2  0
 16 15  1  0
 17 16  2  0
 17 18  1  0
 18 14  1  0
  2 19  1  0
  2 20  1  0
  3 21  1  0
  3 22  1  0
  4 23  1  0
  4 24  1  0
  5 25  1  0
  5 26  1  0
  7 27  1  0
  8 28  1  0
 10 29  1  0
 15 30  1  0
 16 31  1  0
 17 32  1  0
M  ISO  8  19  13  20  13  21  13  22  13  23  13  24  13  25  13  26  13
M  ISO  6  27  14  28  14  29  14  30  14  31  14  32  14
M  END
>  <minimizedAffinity>  (1) 
-4.6723485

>  <minimizedRMSD>  (1) 
0.486916333

$$$$
