
     RDKit          3D

 34 36  0  0  0  0  0  0  0  0999 V2000
   45.7000   34.8600   42.5040 C   0  0  0  0  0  0  0  0  0  0  0  0
   45.2260   36.1150   43.0610 C   0  0  0  0  0  0  0  0  0  0  0  0
   44.8030   35.9060   44.5030 C   0  0  0  0  0  0  0  0  0  0  0  0
   45.1150   34.4620   44.8460 C   0  0  0  0  0  0  0  0  0  0  0  0
   45.1450   33.7910   43.5360 C   0  0  0  0  0  0  0  0  0  0  0  0
   47.1320   34.6130   42.4830 C   0  0  0  0  0  0  0  0  0  0  0  0
   47.9920   35.6270   41.9900 C   0  0  0  0  0  0  0  0  0  0  0  0
   49.3770   35.4170   41.9710 C   0  0  0  0  0  0  0  0  0  0  0  0
   49.8260   34.2220   42.4390 N   0  0  0  0  0  0  0  0  0  0  0  0
   48.9800   33.2630   42.9070 C   0  0  0  0  0  0  0  0  0  0  0  0
   47.6580   33.4790   42.9180 N   0  0  0  0  0  0  0  0  0  0  0  0
   45.0100   34.5010   41.2170 C   0  0  0  0  0  0  0  0  0  0  0  0
   43.9720   35.0800   40.8600 O   0  0  0  0  0  0  0  0  0  0  0  0
   45.5130   33.4530   40.3310 C   0  0  0  0  0  0  0  0  0  0  0  0
   45.0430   32.1630   40.4240 C   0  0  0  0  0  0  0  0  0  0  0  0
   45.4360   31.0960   39.6510 C   0  0  0  0  0  0  0  0  0  0  0  0
   46.3910   31.3150   38.6820 C   0  0  0  0  0  0  0  0  0  0  0  0
   46.8780   32.5980   38.5680 C   0  0  0  0  0  0  0  0  0  0  0  0
   46.4370   33.5810   39.3660 N   0  0  0  0  0  0  0  0  0  0  0  0
   46.0333   36.8611   43.0211 H   0  0  0  0  0  0  0  0  0  0  0  0
   44.3651   36.4714   42.4764 H   0  0  0  0  0  0  0  0  0  0  0  0
   45.3647   36.5822   45.1643 H   0  0  0  0  0  0  0  0  0  0  0  0
   43.7323   36.1208   44.6355 H   0  0  0  0  0  0  0  0  0  0  0  0
   46.0888   34.3803   45.3510 H   0  0  0  0  0  0  0  0  0  0  0  0
   44.3808   34.0192   45.5351 H   0  0  0  0  0  0  0  0  0  0  0  0
   44.1325   33.4723   43.2475 H   0  0  0  0  0  0  0  0  0  0  0  0
   45.7777   32.8915   43.5607 H   0  0  0  0  0  0  0  0  0  0  0  0
   47.5729   36.5757   41.6236 H   0  0  0  0  0  0  0  0  0  0  0  0
   50.0697   36.1841   41.5946 H   0  0  0  0  0  0  0  0  0  0  0  0
   49.3831   32.3087   43.2769 H   0  0  0  0  0  0  0  0  0  0  0  0
   44.2792   31.9665   41.1908 H   0  0  0  0  0  0  0  0  0  0  0  0
   45.0009   30.0970   39.8016 H   0  0  0  0  0  0  0  0  0  0  0  0
   46.7474   30.5035   38.0305 H   0  0  0  0  0  0  0  0  0  0  0  0
   47.6423   32.8203   37.8088 H   0  0  0  0  0  0  0  0  0  0  0  0
  1  2  1  0
  1  5  1  0
  2  3  1  0
  3  4  1  0
  5  4  1  0
  6  1  1  0
  6 11  1  0
  7  6  2  0
  8  7  1  0
  8  9  2  0
  9 10  1  0
 10 11  2  0
 12  1  1  0
 13 12  2  0
 14 15  2  0
 14 12  1  0
 16 15  1  0
 17 16  2  0
 18 17  1  0
 18 19  2  0
 19 14  1  0
  2 20  1  0
  2 21  1  0
  3 22  1  0
  3 23  1  0
  4 24  1  0
  4 25  1  0
  5 26  1  0
  5 27  1  0
  7 28  1  0
  8 29  1  0
 10 30  1  0
 15 31  1  0
 16 32  1  0
 17 33  1  0
 18 34  1  0
M  ISO  8  20  13  21  13  22  13  23  13  24  13  25  13  26  13  27  13
M  ISO  7  28  14  29  14  30  14  31  14  32  14  33  14  34  14
M  END
>  <minimizedAffinity>  (1) 
-4.62850094

>  <minimizedRMSD>  (1) 
0.381004512

$$$$
