
     RDKit          3D

 30 32  0  0  0  0  0  0  0  0999 V2000
   45.6910   34.8930   42.5180 C   0  0  0  0  0  0  0  0  0  0  0  0
   45.2260   36.1420   43.0770 C   0  0  0  0  0  0  0  0  0  0  0  0
   44.7870   35.9210   44.5180 C   0  0  0  0  0  0  0  0  0  0  0  0
   45.1030   34.4740   44.8480 C   0  0  0  0  0  0  0  0  0  0  0  0
   45.1300   33.8090   43.5340 C   0  0  0  0  0  0  0  0  0  0  0  0
   47.1190   34.6300   42.4900 C   0  0  0  0  0  0  0  0  0  0  0  0
   47.9900   35.6340   41.9980 C   0  0  0  0  0  0  0  0  0  0  0  0
   49.3690   35.4260   41.9620 C   0  0  0  0  0  0  0  0  0  0  0  0
   49.8110   34.2240   42.4200 N   0  0  0  0  0  0  0  0  0  0  0  0
   48.9540   33.2710   42.8900 C   0  0  0  0  0  0  0  0  0  0  0  0
   47.6340   33.4880   42.9170 N   0  0  0  0  0  0  0  0  0  0  0  0
   44.9940   34.5420   41.2250 C   0  0  0  0  0  0  0  0  0  0  0  0
   43.9550   35.1090   40.8640 O   0  0  0  0  0  0  0  0  0  0  0  0
   45.5420   33.4990   40.3590 C   0  0  0  0  0  0  0  0  0  0  0  0
   45.1260   32.2210   40.4110 N   0  0  0  0  0  0  0  0  0  0  0  0
   45.7590   31.4830   39.5480 O   0  0  0  0  0  0  0  0  0  0  0  0
   46.6030   32.2510   38.9080 C   0  0  0  0  0  0  0  0  0  0  0  0
   46.4760   33.4960   39.4020 N   0  0  0  0  0  0  0  0  0  0  0  0
   46.0403   36.8810   43.0510 H   0  0  0  0  0  0  0  0  0  0  0  0
   44.3749   36.5133   42.4873 H   0  0  0  0  0  0  0  0  0  0  0  0
   45.3393   36.5935   45.1908 H   0  0  0  0  0  0  0  0  0  0  0  0
   43.7149   36.1326   44.6439 H   0  0  0  0  0  0  0  0  0  0  0  0
   46.0788   34.3909   45.3489 H   0  0  0  0  0  0  0  0  0  0  0  0
   44.3705   34.0258   45.5354 H   0  0  0  0  0  0  0  0  0  0  0  0
   44.1169   33.4963   43.2411 H   0  0  0  0  0  0  0  0  0  0  0  0
   45.7545   32.9036   43.5489 H   0  0  0  0  0  0  0  0  0  0  0  0
   47.5742   36.5876   41.6406 H   0  0  0  0  0  0  0  0  0  0  0  0
   50.0613   36.1925   41.5837 H   0  0  0  0  0  0  0  0  0  0  0  0
   49.3539   32.3121   43.2513 H   0  0  0  0  0  0  0  0  0  0  0  0
   47.2918   31.9358   38.1104 H   0  0  0  0  0  0  0  0  0  0  0  0
  1  2  1  0
  1  5  1  0
  2  3  1  0
  3  4  1  0
  5  4  1  0
  6  1  1  0
  6 11  1  0
  7  6  2  0
  8  7  1  0
  8  9  2  0
  9 10  1  0
 10 11  2  0
 12  1  1  0
 13 12  2  0
 14 15  2  0
 14 12  1  0
 16 15  1  0
 17 18  2  0
 17 16  1  0
 18 14  1  0
  2 19  1  0
  2 20  1  0
  3 21  1  0
  3 22  1  0
  4 23  1  0
  4 24  1  0
  5 25  1  0
  5 26  1  0
  7 27  1  0
  8 28  1  0
 10 29  1  0
 17 30  1  0
M  ISO  8  19  13  20  13  21  13  22  13  23  13  24  13  25  13  26  13
M  ISO  4  27  14  28  14  29  14  30  14
M  END
>  <minimizedAffinity>  (1) 
-4.57501078

>  <minimizedRMSD>  (1) 
0.339807779

$$$$
