
     RDKit          3D

 24 26  0  0  0  0  0  0  0  0999 V2000
   46.1000   34.0310   41.3060 N   0  0  0  0  0  0  0  0  0  0  0  0
   45.1930   33.7010   40.3710 C   0  0  0  0  0  0  0  0  0  0  0  0
   45.9300   33.4430   39.2220 C   0  0  0  0  0  0  0  0  0  0  0  0
   47.2430   33.6180   39.4810 N   0  0  0  0  0  0  0  0  0  0  0  0
   47.3430   33.9870   40.7870 C   0  0  0  0  0  0  0  0  0  0  0  0
   44.7860   35.9880   44.1370 C   0  0  0  0  0  0  0  0  0  0  0  0
   45.1570   35.6390   42.8190 C   0  0  0  0  0  0  0  0  0  0  0  0
   45.7300   34.3690   42.6390 C   0  0  0  0  0  0  0  0  0  0  0  0
   45.8970   33.5590   43.7100 N   0  0  0  0  0  0  0  0  0  0  0  0
   45.5290   33.9330   44.9490 C   0  0  0  0  0  0  0  0  0  0  0  0
   44.9730   35.1490   45.1600 N   0  0  0  0  0  0  0  0  0  0  0  0
   48.5260   34.3010   41.5840 C   0  0  0  0  0  0  0  0  0  0  0  0
   49.5400   33.4030   41.8470 C   0  0  0  0  0  0  0  0  0  0  0  0
   50.5060   33.9950   42.6180 C   0  0  0  0  0  0  0  0  0  0  0  0
   50.0640   35.2560   42.8140 N   0  0  0  0  0  0  0  0  0  0  0  0
   48.8850   35.4610   42.2070 N   0  0  0  0  0  0  0  0  0  0  0  0
   44.1008   33.6468   40.4900 H   0  0  0  0  0  0  0  0  0  0  0  0
   45.5087   33.1426   38.2513 H   0  0  0  0  0  0  0  0  0  0  0  0
   44.3330   36.9726   44.3251 H   0  0  0  0  0  0  0  0  0  0  0  0
   45.0046   36.3280   41.9752 H   0  0  0  0  0  0  0  0  0  0  0  0
   45.6808   33.2468   45.7952 H   0  0  0  0  0  0  0  0  0  0  0  0
   49.5688   32.3630   41.4897 H   0  0  0  0  0  0  0  0  0  0  0  0
   51.4357   33.5431   42.9940 H   0  0  0  0  0  0  0  0  0  0  0  0
   50.5678   35.9695   43.3599 H   0  0  0  0  0  0  0  0  0  0  0  0
  1  8  1  0
  2  1  1  0
  3  4  1  0
  3  2  2  0
  4  5  2  0
  5  1  1  0
  5 12  1  0
  6 11  2  0
  7  6  1  0
  8  7  2  0
  8  9  1  0
  9 10  2  0
 10 11  1  0
 12 13  1  0
 12 16  2  0
 13 14  2  0
 14 15  1  0
 16 15  1  0
  2 17  1  0
  3 18  1  0
  6 19  1  0
  7 20  1  0
 10 21  1  0
 13 22  1  0
 14 23  1  0
 15 24  1  0
M  ISO  8  17  14  18  14  19  14  20  14  21  14  22  14  23  14  24   9
M  END
>  <minimizedAffinity>  (1) 
-4.94447279

>  <minimizedRMSD>  (1) 
1.81190705

$$$$
