
     RDKit          3D

 27 29  0  0  0  0  0  0  0  0999 V2000
   46.3660   33.2800   39.1220 N   0  0  0  0  0  0  0  0  0  0  0  0
   45.9930   33.0840   37.8510 C   0  0  0  0  0  0  0  0  0  0  0  0
   47.0970   33.4340   37.0760 C   0  0  0  0  0  0  0  0  0  0  0  0
   48.1140   33.8330   37.8940 N   0  0  0  0  0  0  0  0  0  0  0  0
   47.6380   33.7290   39.1620 C   0  0  0  0  0  0  0  0  0  0  0  0
   43.7020   33.7950   41.6090 C   0  0  0  0  0  0  0  0  0  0  0  0
   44.5590   34.0190   40.5150 C   0  0  0  0  0  0  0  0  0  0  0  0
   45.5180   33.0350   40.2240 C   0  0  0  0  0  0  0  0  0  0  0  0
   45.5680   31.9310   41.0070 N   0  0  0  0  0  0  0  0  0  0  0  0
   44.7360   31.7380   42.0500 C   0  0  0  0  0  0  0  0  0  0  0  0
   43.8020   32.6720   42.3510 N   0  0  0  0  0  0  0  0  0  0  0  0
   48.4360   34.0700   40.3370 C   0  0  0  0  0  0  0  0  0  0  0  0
   49.1420   33.2010   41.1470 C   0  0  0  0  0  0  0  0  0  0  0  0
   49.8560   33.6290   42.2250 C   0  0  0  0  0  0  0  0  0  0  0  0
   49.9200   34.9530   42.5710 C   0  0  0  0  0  0  0  0  0  0  0  0
   49.2190   35.8580   41.7770 C   0  0  0  0  0  0  0  0  0  0  0  0
   48.4980   35.4180   40.6880 C   0  0  0  0  0  0  0  0  0  0  0  0
   45.0179   32.7220   37.4931 H   0  0  0  0  0  0  0  0  0  0  0  0
   47.1417   33.3948   35.9776 H   0  0  0  0  0  0  0  0  0  0  0  0
   42.9396   34.5462   41.8629 H   0  0  0  0  0  0  0  0  0  0  0  0
   44.4803   34.9335   39.9087 H   0  0  0  0  0  0  0  0  0  0  0  0
   44.8154   30.8233   42.6559 H   0  0  0  0  0  0  0  0  0  0  0  0
   49.1268   32.1263   40.9130 H   0  0  0  0  0  0  0  0  0  0  0  0
   50.3967   32.8905   42.8352 H   0  0  0  0  0  0  0  0  0  0  0  0
   50.5022   35.2885   43.4419 H   0  0  0  0  0  0  0  0  0  0  0  0
   49.2411   36.9304   42.0208 H   0  0  0  0  0  0  0  0  0  0  0  0
   47.9544   36.1533   40.0766 H   0  0  0  0  0  0  0  0  0  0  0  0
  1  5  1  0
  1  8  1  0
  2  1  1  0
  3  2  2  0
  3  4  1  0
  4  5  2  0
  5 12  1  0
  6 11  2  0
  7  6  1  0
  8  7  2  0
  8  9  1  0
  9 10  2  0
 10 11  1  0
 12 17  1  0
 12 13  2  0
 13 14  1  0
 14 15  2  0
 16 15  1  0
 17 16  2  0
  2 18  1  0
  3 19  1  0
  6 20  1  0
  7 21  1  0
 10 22  1  0
 13 23  1  0
 14 24  1  0
 15 25  1  0
 16 26  1  0
 17 27  1  0
M  ISO  8  18  14  19  14  20  14  21  14  22  14  23  14  24  14  25  14
M  ISO  2  26  14  27  14
M  END
>  <minimizedAffinity>  (1) 
-4.6485076

>  <minimizedRMSD>  (1) 
3.43308187

$$$$
