
     RDKit          3D

 26 27  0  0  0  0  0  0  0  0999 V2000
   46.4840   34.2920   41.7690 N   0  0  0  0  0  0  0  0  0  0  0  0
   45.7960   33.7360   40.7630 C   0  0  0  0  0  0  0  0  0  0  0  0
   46.7100   33.6050   39.7150 C   0  0  0  0  0  0  0  0  0  0  0  0
   47.9200   34.0830   40.1180 N   0  0  0  0  0  0  0  0  0  0  0  0
   47.7610   34.5060   41.3970 C   0  0  0  0  0  0  0  0  0  0  0  0
   44.6270   36.0870   44.3950 C   0  0  0  0  0  0  0  0  0  0  0  0
   45.2060   35.7990   43.1370 C   0  0  0  0  0  0  0  0  0  0  0  0
   45.8990   34.5910   43.0250 C   0  0  0  0  0  0  0  0  0  0  0  0
   45.9690   33.7860   44.1180 N   0  0  0  0  0  0  0  0  0  0  0  0
   45.4100   34.0850   45.2950 C   0  0  0  0  0  0  0  0  0  0  0  0
   44.7300   35.2550   45.4290 N   0  0  0  0  0  0  0  0  0  0  0  0
   48.8580   35.1070   42.2190 C   0  0  0  0  0  0  0  0  0  0  0  0
   49.3520   36.3790   41.6100 C   0  0  0  0  0  0  0  0  0  0  0  0
   49.9590   34.0810   42.4090 C   0  0  0  0  0  0  0  0  0  0  0  0
   44.7354   33.4443   40.7624 H   0  0  0  0  0  0  0  0  0  0  0  0
   46.4882   33.1835   38.7235 H   0  0  0  0  0  0  0  0  0  0  0  0
   44.0737   37.0290   44.5230 H   0  0  0  0  0  0  0  0  0  0  0  0
   45.1151   36.4925   42.2880 H   0  0  0  0  0  0  0  0  0  0  0  0
   45.4991   33.3927   46.1452 H   0  0  0  0  0  0  0  0  0  0  0  0
   48.4714   35.3779   43.2126 H   0  0  0  0  0  0  0  0  0  0  0  0
   49.6262   37.0851   42.4076 H   0  0  0  0  0  0  0  0  0  0  0  0
   50.2339   36.1690   40.9870 H   0  0  0  0  0  0  0  0  0  0  0  0
   48.5595   36.8193   40.9870 H   0  0  0  0  0  0  0  0  0  0  0  0
   50.1301   33.9216   43.4839 H   0  0  0  0  0  0  0  0  0  0  0  0
   49.6603   33.1316   41.9405 H   0  0  0  0  0  0  0  0  0  0  0  0
   50.8850   34.4458   41.9405 H   0  0  0  0  0  0  0  0  0  0  0  0
  1  8  1  0
  2  1  1  0
  3  4  1  0
  3  2  2  0
  4  5  2  0
  5  1  1  0
  5 12  1  0
  6 11  2  0
  7  6  1  0
  8  7  2  0
  8  9  1  0
  9 10  2  0
 10 11  1  0
 12 14  1  0
 13 12  1  0
  2 15  1  0
  3 16  1  0
  6 17  1  0
  7 18  1  0
 10 19  1  0
 12 20  1  0
 13 21  1  0
 13 22  1  0
 13 23  1  0
 14 24  1  0
 14 25  1  0
 14 26  1  0
M  ISO  8  15  14  16  14  17  14  18  14  19  14  20   8  21   8  22   8
M  ISO  4  23   8  24   8  25   8  26   8
M  END
>  <minimizedAffinity>  (1) 
-4.8563962

>  <minimizedRMSD>  (1) 
0.949620068

$$$$
