
     RDKit          3D

 29 30  0  0  0  0  0  0  0  0999 V2000
   44.8570   33.9130   41.6170 N   0  0  0  0  0  0  0  0  0  0  0  0
   43.7130   33.6310   40.9830 C   0  0  0  0  0  0  0  0  0  0  0  0
   44.0800   33.3610   39.6700 C   0  0  0  0  0  0  0  0  0  0  0  0
   45.4180   33.4840   39.5470 N   0  0  0  0  0  0  0  0  0  0  0  0
   45.9160   33.8340   40.7780 C   0  0  0  0  0  0  0  0  0  0  0  0
   44.4590   35.8850   44.7090 C   0  0  0  0  0  0  0  0  0  0  0  0
   44.4270   35.5240   43.3550 C   0  0  0  0  0  0  0  0  0  0  0  0
   44.9000   34.2490   43.0020 C   0  0  0  0  0  0  0  0  0  0  0  0
   45.3610   33.4370   43.9810 N   0  0  0  0  0  0  0  0  0  0  0  0
   45.3780   33.8170   45.2730 C   0  0  0  0  0  0  0  0  0  0  0  0
   44.9310   35.0290   45.6370 N   0  0  0  0  0  0  0  0  0  0  0  0
   47.3470   34.0700   41.0900 C   0  0  0  0  0  0  0  0  0  0  0  0
   48.1170   34.3010   39.7860 C   0  0  0  0  0  0  0  0  0  0  0  0
   48.0100   32.9220   41.7640 C   0  0  0  0  0  0  0  0  0  0  0  0
   47.5240   35.3070   41.9510 C   0  0  0  0  0  0  0  0  0  0  0  0
   42.6992   33.6161   41.4096 H   0  0  0  0  0  0  0  0  0  0  0  0
   43.3885   33.0897   38.8587 H   0  0  0  0  0  0  0  0  0  0  0  0
   44.0954   36.8764   45.0172 H   0  0  0  0  0  0  0  0  0  0  0  0
   44.0434   36.2176   42.5923 H   0  0  0  0  0  0  0  0  0  0  0  0
   45.7624   33.1265   46.0382 H   0  0  0  0  0  0  0  0  0  0  0  0
   49.1469   34.6100   40.0181 H   0  0  0  0  0  0  0  0  0  0  0  0
   48.1366   33.3692   39.2018 H   0  0  0  0  0  0  0  0  0  0  0  0
   47.6204   35.0897   39.2018 H   0  0  0  0  0  0  0  0  0  0  0  0
   47.9384   33.0460   42.8546 H   0  0  0  0  0  0  0  0  0  0  0  0
   47.5132   31.9863   41.4679 H   0  0  0  0  0  0  0  0  0  0  0  0
   49.0687   32.8846   41.4679 H   0  0  0  0  0  0  0  0  0  0  0  0
   47.4834   35.0234   43.0130 H   0  0  0  0  0  0  0  0  0  0  0  0
   48.4975   35.7699   41.7320 H   0  0  0  0  0  0  0  0  0  0  0  0
   46.7194   36.0244   41.7320 H   0  0  0  0  0  0  0  0  0  0  0  0
  1  8  1  0
  2  1  1  0
  3  2  2  0
  4  3  1  0
  4  5  2  0
  5 12  1  0
  5  1  1  0
  6 11  2  0
  7  6  1  0
  8  7  2  0
  8  9  1  0
  9 10  2  0
 10 11  1  0
 12 14  1  0
 12 15  1  0
 13 12  1  0
  2 16  1  0
  3 17  1  0
  6 18  1  0
  7 19  1  0
 10 20  1  0
 13 21  1  0
 13 22  1  0
 13 23  1  0
 14 24  1  0
 14 25  1  0
 14 26  1  0
 15 27  1  0
 15 28  1  0
 15 29  1  0
M  ISO  8  16  14  17  14  18  14  19  14  20  14  21   8  22   8  23   8
M  ISO  6  24   8  25   8  26   8  27   8  28   8  29   8
M  END
>  <minimizedAffinity>  (1) 
-4.20163393

>  <minimizedRMSD>  (1) 
2.50528169

$$$$
