
     RDKit          3D

 24 25  0  0  0  0  0  0  0  0999 V2000
   45.5980   34.4180   41.2210 N   0  0  0  0  0  0  0  0  0  0  0  0
   46.4250   33.8900   40.3040 C   0  0  0  0  0  0  0  0  0  0  0  0
   47.6980   34.2960   40.7260 C   0  0  0  0  0  0  0  0  0  0  0  0
   47.5900   35.0400   41.8620 N   0  0  0  0  0  0  0  0  0  0  0  0
   46.2750   35.1120   42.1680 C   0  0  0  0  0  0  0  0  0  0  0  0
   45.6550   35.7740   43.2640 N   0  0  0  0  0  0  0  0  0  0  0  0
   45.1680   35.0120   44.3590 C   0  0  0  0  0  0  0  0  0  0  0  0
   45.7990   33.9930   44.7700 N   0  0  0  0  0  0  0  0  0  0  0  0
   43.9430   35.4100   45.0080 N   0  0  0  0  0  0  0  0  0  0  0  0
   46.6810   33.6700   44.3390 H   0  0  0  0  0  0  0  0  0  0  0  0
   42.0300   35.1930   40.6900 C   0  0  0  0  0  0  0  0  0  0  0  0
   43.4170   35.3430   40.7550 C   0  0  0  0  0  0  0  0  0  0  0  0
   44.1820   34.2400   41.1640 C   0  0  0  0  0  0  0  0  0  0  0  0
   43.5300   33.0940   41.4710 N   0  0  0  0  0  0  0  0  0  0  0  0
   42.1940   32.9770   41.3990 C   0  0  0  0  0  0  0  0  0  0  0  0
   41.4470   34.0190   41.0110 N   0  0  0  0  0  0  0  0  0  0  0  0
   46.1639   33.2807   39.4261 H   0  0  0  0  0  0  0  0  0  0  0  0
   48.6418   34.0510   40.2169 H   0  0  0  0  0  0  0  0  0  0  0  0
   45.5599   36.7996   43.2633 H   0  0  0  0  0  0  0  0  0  0  0  0
   43.5807   34.8646   45.8031 H   0  0  0  0  0  0  0  0  0  0  0  0
   43.4305   36.2396   44.6764 H   0  0  0  0  0  0  0  0  0  0  0  0
   41.4056   36.0415   40.3735 H   0  0  0  0  0  0  0  0  0  0  0  0
   43.8959   36.2981   40.4932 H   0  0  0  0  0  0  0  0  0  0  0  0
   41.7120   32.0231   41.6593 H   0  0  0  0  0  0  0  0  0  0  0  0
  1  5  1  0
  2  3  2  0
  2  1  1  0
  3  4  1  0
  4  5  2  0
  5  6  1  0
  6  7  1  0
  7  8  2  0
  7  9  1  0
 10  8  1  0
 11 12  2  0
 11 16  1  0
 12 13  1  0
 13  1  1  0
 13 14  2  0
 15 14  1  0
 16 15  2  0
  2 17  1  0
  3 18  1  0
  6 19  1  0
  9 20  1  0
  9 21  1  0
 11 22  1  0
 12 23  1  0
 15 24  1  0
M  ISO  5  17  14  18  14  22  14  23  14  24  14
M  END
>  <minimizedAffinity>  (1) 
-4.6261158

>  <minimizedRMSD>  (1) 
3.7220943

$$$$
