
     RDKit          3D

 19 20  0  0  0  0  0  0  0  0999 V2000
   46.5710   34.4120   41.5970 N   0  0  0  0  0  0  0  0  0  0  0  0
   45.9240   33.7820   40.6040 C   0  0  0  0  0  0  0  0  0  0  0  0
   46.8070   33.7100   39.5410 C   0  0  0  0  0  0  0  0  0  0  0  0
   47.9770   34.3050   39.9220 N   0  0  0  0  0  0  0  0  0  0  0  0
   47.8050   34.7300   41.1970 C   0  0  0  0  0  0  0  0  0  0  0  0
   44.6620   36.1220   44.2380 C   0  0  0  0  0  0  0  0  0  0  0  0
   45.2560   35.8410   43.0060 C   0  0  0  0  0  0  0  0  0  0  0  0
   45.9810   34.6710   42.8560 C   0  0  0  0  0  0  0  0  0  0  0  0
   46.0790   33.8360   43.9390 N   0  0  0  0  0  0  0  0  0  0  0  0
   45.5030   34.1180   45.1170 C   0  0  0  0  0  0  0  0  0  0  0  0
   44.7990   35.2550   45.2680 N   0  0  0  0  0  0  0  0  0  0  0  0
   48.8010   35.4190   41.9950 C   0  0  0  0  0  0  0  0  0  0  0  0
   49.3560   36.4830   41.5830 O   0  0  0  0  0  0  0  0  0  0  0  0
   44.8935   33.3981   40.6301 H   0  0  0  0  0  0  0  0  0  0  0  0
   46.6030   33.2538   38.5611 H   0  0  0  0  0  0  0  0  0  0  0  0
   44.0829   37.0477   44.3713 H   0  0  0  0  0  0  0  0  0  0  0  0
   45.1492   36.5411   42.1643 H   0  0  0  0  0  0  0  0  0  0  0  0
   45.6061   33.4194   45.9604 H   0  0  0  0  0  0  0  0  0  0  0  0
   49.0809   35.0108   42.9774 H   0  0  0  0  0  0  0  0  0  0  0  0
  1  8  1  0
  2  1  1  0
  3  4  1  0
  3  2  2  0
  4  5  2  0
  5  1  1  0
  5 12  1  0
  6 11  2  0
  7  6  1  0
  8  7  2  0
  8  9  1  0
  9 10  2  0
 10 11  1  0
 13 12  2  0
  2 14  1  0
  3 15  1  0
  6 16  1  0
  7 17  1  0
 10 18  1  0
 12 19  1  0
M  ISO  6  14  14  15  14  16  14  17  14  18  14  19   6
M  END
>  <minimizedAffinity>  (1) 
-4.26955605

>  <minimizedRMSD>  (1) 
0.685329139

$$$$
