
     RDKit          3D

 18 19  0  0  0  0  0  0  0  0999 V2000
   44.6520   36.1050   44.2760 C   0  0  0  0  0  0  0  0  0  0  0  0
   45.2980   35.8710   43.0570 C   0  0  0  0  0  0  0  0  0  0  0  0
   46.0570   34.7230   42.9130 C   0  0  0  0  0  0  0  0  0  0  0  0
   46.1330   33.8770   43.9750 N   0  0  0  0  0  0  0  0  0  0  0  0
   45.5110   34.1120   45.1360 C   0  0  0  0  0  0  0  0  0  0  0  0
   44.7640   35.2390   45.2820 N   0  0  0  0  0  0  0  0  0  0  0  0
   46.7010   34.5090   41.6710 N   0  0  0  0  0  0  0  0  0  0  0  0
   46.1420   33.8450   40.6520 C   0  0  0  0  0  0  0  0  0  0  0  0
   47.0800   33.8520   39.6280 C   0  0  0  0  0  0  0  0  0  0  0  0
   48.1810   34.5150   40.0370 N   0  0  0  0  0  0  0  0  0  0  0  0
   47.9390   34.9230   41.3140 C   0  0  0  0  0  0  0  0  0  0  0  0
   48.8520   35.6530   42.0980 O   0  0  0  0  0  0  0  0  0  0  0  0
   44.0454   37.0135   44.4049 H   0  0  0  0  0  0  0  0  0  0  0  0
   45.2041   36.5873   42.2275 H   0  0  0  0  0  0  0  0  0  0  0  0
   45.6033   33.3978   45.9675 H   0  0  0  0  0  0  0  0  0  0  0  0
   45.1423   33.3867   40.6302 H   0  0  0  0  0  0  0  0  0  0  0  0
   46.9461   33.3896   38.6389 H   0  0  0  0  0  0  0  0  0  0  0  0
   48.6108   35.9179   43.0209 H   0  0  0  0  0  0  0  0  0  0  0  0
  1  6  2  0
  2  1  1  0
  3  2  2  0
  3  4  1  0
  4  5  2  0
  5  6  1  0
  7  3  1  0
  8  7  1  0
  9 10  1  0
  9  8  2  0
 10 11  2  0
 11  7  1  0
 11 12  1  0
  1 13  1  0
  2 14  1  0
  5 15  1  0
  8 16  1  0
  9 17  1  0
 12 18  1  0
M  ISO  6  13  14  14  14  15  14  16  14  17  14  18   3
M  END
>  <minimizedAffinity>  (1) 
-4.07651615

>  <minimizedRMSD>  (1) 
0.477669537

$$$$
