
     RDKit          3D

 35 37  0  0  0  0  0  0  0  0999 V2000
   44.7500   35.4860   44.8470 C   0  0  0  0  0  0  0  0  0  0  0  0
   45.4990   35.4800   43.6470 C   0  0  0  0  0  0  0  0  0  0  0  0
   46.4060   34.4130   43.4760 C   0  0  0  0  0  0  0  0  0  0  0  0
   46.4930   33.4900   44.4520 N   0  0  0  0  0  0  0  0  0  0  0  0
   45.7650   33.5290   45.5780 C   0  0  0  0  0  0  0  0  0  0  0  0
   44.8880   34.5360   45.7730 N   0  0  0  0  0  0  0  0  0  0  0  0
   47.1570   34.4090   42.2700 N   0  0  0  0  0  0  0  0  0  0  0  0
   46.5780   34.3070   41.0550 C   0  0  0  0  0  0  0  0  0  0  0  0
   47.6460   34.3430   40.1540 C   0  0  0  0  0  0  0  0  0  0  0  0
   48.8130   34.4630   40.8350 N   0  0  0  0  0  0  0  0  0  0  0  0
   48.4920   34.5030   42.1550 C   0  0  0  0  0  0  0  0  0  0  0  0
   49.3800   34.6240   43.2730 N   0  0  0  0  0  0  0  0  0  0  0  0
   45.8950   32.4920   46.6220 C   0  0  0  0  0  0  0  0  0  0  0  0
   47.3410   32.2930   47.0420 C   0  0  0  0  0  0  0  0  0  0  0  0
   47.4560   31.9640   48.4980 C   0  0  0  0  0  0  0  0  0  0  0  0
   46.3600   31.1110   49.0440 C   0  0  0  0  0  0  0  0  0  0  0  0
   44.9760   31.5100   48.6320 C   0  0  0  0  0  0  0  0  0  0  0  0
   45.1090   32.8310   47.8710 C   0  0  0  0  0  0  0  0  0  0  0  0
   44.0310   36.2999   45.0220 H   0  0  0  0  0  0  0  0  0  0  0  0
   45.3804   36.2662   42.8869 H   0  0  0  0  0  0  0  0  0  0  0  0
   45.5061   34.2160   40.8254 H   0  0  0  0  0  0  0  0  0  0  0  0
   47.5541   34.2831   39.0595 H   0  0  0  0  0  0  0  0  0  0  0  0
   49.0023   34.6422   44.2311 H   0  0  0  0  0  0  0  0  0  0  0  0
   50.3960   34.6928   43.1186 H   0  0  0  0  0  0  0  0  0  0  0  0
   45.4965   31.5737   46.1660 H   0  0  0  0  0  0  0  0  0  0  0  0
   47.7721   31.4684   46.4554 H   0  0  0  0  0  0  0  0  0  0  0  0
   47.8828   33.2328   46.8596 H   0  0  0  0  0  0  0  0  0  0  0  0
   48.4083   31.4358   48.6536 H   0  0  0  0  0  0  0  0  0  0  0  0
   47.3933   32.9226   49.0340 H   0  0  0  0  0  0  0  0  0  0  0  0
   46.5315   30.0785   48.7055 H   0  0  0  0  0  0  0  0  0  0  0  0
   46.3985   31.2270   50.1372 H   0  0  0  0  0  0  0  0  0  0  0  0
   44.5371   30.7396   47.9809 H   0  0  0  0  0  0  0  0  0  0  0  0
   44.3186   31.6212   49.5069 H   0  0  0  0  0  0  0  0  0  0  0  0
   45.6494   33.5728   48.4774 H   0  0  0  0  0  0  0  0  0  0  0  0
   44.1284   33.2693   47.6335 H   0  0  0  0  0  0  0  0  0  0  0  0
  1  6  2  0
  2  1  1  0
  3  2  2  0
  3  4  1  0
  4  5  2  0
  5  6  1  0
  5 13  1  0
  7  3  1  0
  8  7  1  0
  9 10  1  0
  9  8  2  0
 10 11  2  0
 11  7  1  0
 11 12  1  0
 13 14  1  0
 13 18  1  0
 14 15  1  0
 15 16  1  0
 17 16  1  0
 18 17  1  0
  1 19  1  0
  2 20  1  0
  8 21  1  0
  9 22  1  0
 12 23  1  0
 12 24  1  0
 13 25  1  0
 14 26  1  0
 14 27  1  0
 15 28  1  0
 15 29  1  0
 16 30  1  0
 16 31  1  0
 17 32  1  0
 17 33  1  0
 18 34  1  0
 18 35  1  0
M  ISO  8  19  14  20  14  21  14  22  14  25  13  26  13  27  13  28  13
M  ISO  7  29  13  30  13  31  13  32  13  33  13  34  13  35  13
M  END
>  <minimizedAffinity>  (1) 
-5.96205664

>  <minimizedRMSD>  (1) 
0.646961033

$$$$
