
     RDKit          3D

 28 30  0  0  0  0  0  0  0  0999 V2000
   44.5630   35.4980   44.9670 C   0  0  0  0  0  0  0  0  0  0  0  0
   45.2440   35.4310   43.7280 C   0  0  0  0  0  0  0  0  0  0  0  0
   46.2280   34.4400   43.6000 C   0  0  0  0  0  0  0  0  0  0  0  0
   46.4460   33.6400   44.6560 N   0  0  0  0  0  0  0  0  0  0  0  0
   45.7920   33.7180   45.8200 C   0  0  0  0  0  0  0  0  0  0  0  0
   44.8400   34.6660   45.9640 N   0  0  0  0  0  0  0  0  0  0  0  0
   46.9080   34.3730   42.3610 N   0  0  0  0  0  0  0  0  0  0  0  0
   46.2520   34.2750   41.1780 C   0  0  0  0  0  0  0  0  0  0  0  0
   47.2620   34.2340   40.2180 C   0  0  0  0  0  0  0  0  0  0  0  0
   48.4650   34.3090   40.8260 N   0  0  0  0  0  0  0  0  0  0  0  0
   48.2330   34.3940   42.1660 C   0  0  0  0  0  0  0  0  0  0  0  0
   49.1840   34.4920   43.2180 N   0  0  0  0  0  0  0  0  0  0  0  0
   46.0920   32.8030   46.9250 C   0  0  0  0  0  0  0  0  0  0  0  0
   45.1430   32.6230   47.9080 C   0  0  0  0  0  0  0  0  0  0  0  0
   45.3910   31.7610   48.9770 C   0  0  0  0  0  0  0  0  0  0  0  0
   46.6300   31.1600   48.9140 C   0  0  0  0  0  0  0  0  0  0  0  0
   47.6010   31.3110   47.9580 C   0  0  0  0  0  0  0  0  0  0  0  0
   47.2940   32.1660   46.9440 N   0  0  0  0  0  0  0  0  0  0  0  0
   43.7827   36.2604   45.1078 H   0  0  0  0  0  0  0  0  0  0  0  0
   45.0125   36.1231   42.9049 H   0  0  0  0  0  0  0  0  0  0  0  0
   45.1652   34.2365   41.0128 H   0  0  0  0  0  0  0  0  0  0  0  0
   47.1032   34.1530   39.1325 H   0  0  0  0  0  0  0  0  0  0  0  0
   48.8660   34.5499   44.1960 H   0  0  0  0  0  0  0  0  0  0  0  0
   50.1911   34.5051   43.0023 H   0  0  0  0  0  0  0  0  0  0  0  0
   44.1855   33.1614   47.8497 H   0  0  0  0  0  0  0  0  0  0  0  0
   44.6705   31.5794   49.7881 H   0  0  0  0  0  0  0  0  0  0  0  0
   46.8706   30.4705   49.7367 H   0  0  0  0  0  0  0  0  0  0  0  0
   48.5620   30.7780   48.0069 H   0  0  0  0  0  0  0  0  0  0  0  0
  1  6  2  0
  2  1  1  0
  3  2  2  0
  3  4  1  0
  4  5  2  0
  5  6  1  0
  5 13  1  0
  7  3  1  0
  8  7  1  0
  9 10  1  0
  9  8  2  0
 10 11  2  0
 11  7  1  0
 11 12  1  0
 13 18  1  0
 13 14  2  0
 14 15  1  0
 16 15  2  0
 17 16  1  0
 18 17  2  0
  1 19  1  0
  2 20  1  0
  8 21  1  0
  9 22  1  0
 12 23  1  0
 12 24  1  0
 14 25  1  0
 15 26  1  0
 16 27  1  0
 17 28  1  0
M  ISO  8  19  14  20  14  21  14  22  14  25  14  26  14  27  14  28  14
M  END
>  <minimizedAffinity>  (1) 
-6.0325551

>  <minimizedRMSD>  (1) 
0.86045891

$$$$
