
     RDKit          3D

 26 27  0  0  0  0  0  0  0  0999 V2000
   45.6590   34.7760   43.7660 C   0  0  0  0  0  0  0  0  0  0  0  0
   46.8000   34.4540   42.9930 C   0  0  0  0  0  0  0  0  0  0  0  0
   47.6150   33.4120   43.4860 C   0  0  0  0  0  0  0  0  0  0  0  0
   47.2560   32.8130   44.6320 N   0  0  0  0  0  0  0  0  0  0  0  0
   46.1660   33.1420   45.3410 C   0  0  0  0  0  0  0  0  0  0  0  0
   45.3610   34.1330   44.9040 N   0  0  0  0  0  0  0  0  0  0  0  0
   45.8420   32.4630   46.5510 N   0  0  0  0  0  0  0  0  0  0  0  0
   44.8870   33.0090   47.4560 C   0  0  0  0  0  0  0  0  0  0  0  0
   44.5610   34.2570   47.4010 N   0  0  0  0  0  0  0  0  0  0  0  0
   44.3260   32.0920   48.4130 N   0  0  0  0  0  0  0  0  0  0  0  0
   43.8410   34.5730   48.1160 H   0  0  0  0  0  0  0  0  0  0  0  0
   48.7510   33.0900   42.7190 N   0  0  0  0  0  0  0  0  0  0  0  0
   48.8350   31.9300   42.0040 C   0  0  0  0  0  0  0  0  0  0  0  0
   50.0930   31.9770   41.3880 C   0  0  0  0  0  0  0  0  0  0  0  0
   50.7100   33.1240   41.7390 N   0  0  0  0  0  0  0  0  0  0  0  0
   49.8630   33.8010   42.5630 C   0  0  0  0  0  0  0  0  0  0  0  0
   50.0680   35.0690   43.1960 N   0  0  0  0  0  0  0  0  0  0  0  0
   44.9939   35.5815   43.4212 H   0  0  0  0  0  0  0  0  0  0  0  0
   47.0385   34.9859   42.0602 H   0  0  0  0  0  0  0  0  0  0  0  0
   46.3026   31.5690   46.7734 H   0  0  0  0  0  0  0  0  0  0  0  0
   43.6296   32.4226   49.0961 H   0  0  0  0  0  0  0  0  0  0  0  0
   44.6209   31.1051   48.4148 H   0  0  0  0  0  0  0  0  0  0  0  0
   48.0806   31.1331   41.9280 H   0  0  0  0  0  0  0  0  0  0  0  0
   50.5097   31.2039   40.7257 H   0  0  0  0  0  0  0  0  0  0  0  0
   49.3351   35.4675   43.8001 H   0  0  0  0  0  0  0  0  0  0  0  0
   50.9484   35.5826   43.0472 H   0  0  0  0  0  0  0  0  0  0  0  0
  1  6  2  0
  2  3  2  0
  2  1  1  0
  3  4  1  0
  4  5  2  0
  5  7  1  0
  6  5  1  0
  7  8  1  0
  8 10  1  0
  9  8  2  0
  9 11  1  0
 12  3  1  0
 13 12  1  0
 14 15  1  0
 14 13  2  0
 15 16  2  0
 16 12  1  0
 16 17  1  0
  1 18  1  0
  2 19  1  0
  7 20  1  0
 10 21  1  0
 10 22  1  0
 13 23  1  0
 14 24  1  0
 17 25  1  0
 17 26  1  0
M  ISO  4  18  14  19  14  23  14  24  14
M  END
>  <minimizedAffinity>  (1) 
-6.12614393

>  <minimizedRMSD>  (1) 
1.97651613

$$$$
