
     RDKit          3D

 30 33  0  0  0  0  0  0  0  0999 V2000
   44.6480   35.6970   44.4570 C   0  0  0  0  0  0  0  0  0  0  0  0
   45.4590   35.6190   43.3100 C   0  0  0  0  0  0  0  0  0  0  0  0
   46.4360   34.6030   43.2850 C   0  0  0  0  0  0  0  0  0  0  0  0
   46.5320   33.7790   44.3470 N   0  0  0  0  0  0  0  0  0  0  0  0
   45.7390   33.8760   45.4380 C   0  0  0  0  0  0  0  0  0  0  0  0
   44.7980   34.8430   45.4790 N   0  0  0  0  0  0  0  0  0  0  0  0
   45.8700   32.9850   46.5430 N   0  0  0  0  0  0  0  0  0  0  0  0
   45.2570   33.2510   47.7120 C   0  0  0  0  0  0  0  0  0  0  0  0
   45.4920   32.3060   48.6380 N   0  0  0  0  0  0  0  0  0  0  0  0
   46.2920   31.3870   48.0400 C   0  0  0  0  0  0  0  0  0  0  0  0
   46.9110   30.1910   48.3690 C   0  0  0  0  0  0  0  0  0  0  0  0
   47.6560   29.5640   47.4420 N   0  0  0  0  0  0  0  0  0  0  0  0
   47.8550   30.0120   46.1920 C   0  0  0  0  0  0  0  0  0  0  0  0
   47.2710   31.1850   45.8110 N   0  0  0  0  0  0  0  0  0  0  0  0
   46.5210   31.8220   46.7360 C   0  0  0  0  0  0  0  0  0  0  0  0
   47.2450   34.5310   42.1320 N   0  0  0  0  0  0  0  0  0  0  0  0
   46.7100   34.3960   40.8800 C   0  0  0  0  0  0  0  0  0  0  0  0
   47.8240   34.3640   40.0310 C   0  0  0  0  0  0  0  0  0  0  0  0
   48.9670   34.4750   40.7680 N   0  0  0  0  0  0  0  0  0  0  0  0
   48.5810   34.5770   42.0600 C   0  0  0  0  0  0  0  0  0  0  0  0
   49.4130   34.7150   43.2180 N   0  0  0  0  0  0  0  0  0  0  0  0
   43.8737   36.4761   44.5163 H   0  0  0  0  0  0  0  0  0  0  0  0
   45.3363   36.3192   42.4706 H   0  0  0  0  0  0  0  0  0  0  0  0
   44.6347   34.1406   47.8888 H   0  0  0  0  0  0  0  0  0  0  0  0
   46.7942   29.7609   49.3747 H   0  0  0  0  0  0  0  0  0  0  0  0
   48.4785   29.4429   45.4867 H   0  0  0  0  0  0  0  0  0  0  0  0
   45.6476   34.3281   40.6032 H   0  0  0  0  0  0  0  0  0  0  0  0
   47.7834   34.2645   38.9363 H   0  0  0  0  0  0  0  0  0  0  0  0
   48.9868   34.7830   44.1532 H   0  0  0  0  0  0  0  0  0  0  0  0
   50.4374   34.7462   43.1154 H   0  0  0  0  0  0  0  0  0  0  0  0
  1  6  2  0
  2  1  1  0
  3  2  2  0
  3  4  1  0
  4  5  2  0
  5  6  1  0
  5  7  1  0
  7 15  1  0
  7  8  1  0
  8  9  2  0
 10 11  2  0
 10  9  1  0
 12 11  1  0
 13 12  2  0
 14 13  1  0
 14 15  2  0
 15 10  1  0
 16  3  1  0
 17 16  1  0
 18 19  1  0
 18 17  2  0
 19 20  2  0
 20 16  1  0
 20 21  1  0
  1 22  1  0
  2 23  1  0
  8 24  1  0
 11 25  1  0
 13 26  1  0
 17 27  1  0
 18 28  1  0
 21 29  1  0
 21 30  1  0
M  ISO  7  22  14  23  14  24  14  25  14  26  14  27  14  28  14
M  END
>  <minimizedAffinity>  (1) 
-6.22622204

>  <minimizedRMSD>  (1) 
0.446169138

$$$$
