
     RDKit          3D

 26 28  0  0  0  0  0  0  0  0999 V2000
   44.5340   35.6850   44.7580 C   0  0  0  0  0  0  0  0  0  0  0  0
   45.2490   35.5430   43.5570 C   0  0  0  0  0  0  0  0  0  0  0  0
   46.2110   34.5380   43.4840 C   0  0  0  0  0  0  0  0  0  0  0  0
   46.3870   33.7700   44.5810 N   0  0  0  0  0  0  0  0  0  0  0  0
   45.6980   33.9160   45.7230 C   0  0  0  0  0  0  0  0  0  0  0  0
   44.7520   34.9010   45.7990 N   0  0  0  0  0  0  0  0  0  0  0  0
   45.9280   33.0690   46.8590 N   0  0  0  0  0  0  0  0  0  0  0  0
   47.0930   32.4400   47.0850 C   0  0  0  0  0  0  0  0  0  0  0  0
   46.8730   31.7460   48.2700 C   0  0  0  0  0  0  0  0  0  0  0  0
   45.6120   31.9640   48.7170 N   0  0  0  0  0  0  0  0  0  0  0  0
   45.0370   32.8010   47.8120 C   0  0  0  0  0  0  0  0  0  0  0  0
   46.9200   34.4060   42.2790 N   0  0  0  0  0  0  0  0  0  0  0  0
   46.2820   34.2800   41.0830 C   0  0  0  0  0  0  0  0  0  0  0  0
   47.3170   34.1750   40.1400 C   0  0  0  0  0  0  0  0  0  0  0  0
   48.5210   34.2370   40.7850 N   0  0  0  0  0  0  0  0  0  0  0  0
   48.2400   34.3790   42.0970 C   0  0  0  0  0  0  0  0  0  0  0  0
   49.1730   34.4890   43.1680 N   0  0  0  0  0  0  0  0  0  0  0  0
   43.7698   36.4725   44.8340 H   0  0  0  0  0  0  0  0  0  0  0  0
   45.0551   36.2052   42.7003 H   0  0  0  0  0  0  0  0  0  0  0  0
   48.0079   32.4674   46.4750 H   0  0  0  0  0  0  0  0  0  0  0  0
   47.6167   31.1105   48.7731 H   0  0  0  0  0  0  0  0  0  0  0  0
   44.0095   33.1908   47.8592 H   0  0  0  0  0  0  0  0  0  0  0  0
   45.1980   34.2640   40.8970 H   0  0  0  0  0  0  0  0  0  0  0  0
   47.1808   34.0609   39.0544 H   0  0  0  0  0  0  0  0  0  0  0  0
   48.8362   34.5944   44.1357 H   0  0  0  0  0  0  0  0  0  0  0  0
   50.1844   34.4631   42.9747 H   0  0  0  0  0  0  0  0  0  0  0  0
  1  6  2  0
  2  1  1  0
  3  2  2  0
  3  4  1  0
  4  5  2  0
  5  6  1  0
  5  7  1  0
  7  8  1  0
  7 11  1  0
  8  9  2  0
  9 10  1  0
 11 10  2  0
 12  3  1  0
 13 12  1  0
 14 15  1  0
 14 13  2  0
 15 16  2  0
 16 12  1  0
 16 17  1  0
  1 18  1  0
  2 19  1  0
  8 20  1  0
  9 21  1  0
 11 22  1  0
 13 23  1  0
 14 24  1  0
 17 25  1  0
 17 26  1  0
M  ISO  7  18  14  19  14  20  14  21  14  22  14  23  14  24  14
M  END
>  <minimizedAffinity>  (1) 
-5.79452324

>  <minimizedRMSD>  (1) 
0.336817354

$$$$
