
     RDKit          3D

 26 28  0  0  0  0  0  0  0  0999 V2000
   44.5000   35.9460   44.4960 C   0  0  0  0  0  0  0  0  0  0  0  0
   45.2650   35.7320   43.3310 C   0  0  0  0  0  0  0  0  0  0  0  0
   46.1690   34.6760   43.3460 C   0  0  0  0  0  0  0  0  0  0  0  0
   46.2600   33.9200   44.4720 N   0  0  0  0  0  0  0  0  0  0  0  0
   45.5140   34.1510   45.5690 C   0  0  0  0  0  0  0  0  0  0  0  0
   44.6330   35.1730   45.5700 N   0  0  0  0  0  0  0  0  0  0  0  0
   46.9390   34.4530   42.1850 N   0  0  0  0  0  0  0  0  0  0  0  0
   46.3620   34.3020   40.9570 C   0  0  0  0  0  0  0  0  0  0  0  0
   47.4260   34.1030   40.0790 C   0  0  0  0  0  0  0  0  0  0  0  0
   48.5880   34.1350   40.7660 N   0  0  0  0  0  0  0  0  0  0  0  0
   48.2550   34.3530   42.0670 C   0  0  0  0  0  0  0  0  0  0  0  0
   49.1440   34.4670   43.1940 N   0  0  0  0  0  0  0  0  0  0  0  0
   45.7380   33.2440   46.6920 C   0  0  0  0  0  0  0  0  0  0  0  0
   46.9350   32.5320   46.7780 C   0  0  0  0  0  0  0  0  0  0  0  0
   46.9030   31.7520   47.9180 C   0  0  0  0  0  0  0  0  0  0  0  0
   45.6550   32.0400   48.4780 C   0  0  0  0  0  0  0  0  0  0  0  0
   45.0210   32.9060   47.7360 O   0  0  0  0  0  0  0  0  0  0  0  0
   43.7750   36.7730   44.5170 H   0  0  0  0  0  0  0  0  0  0  0  0
   45.1510   36.3749   42.4457 H   0  0  0  0  0  0  0  0  0  0  0  0
   45.2897   34.3311   40.7133 H   0  0  0  0  0  0  0  0  0  0  0  0
   47.3335   33.9444   38.9944 H   0  0  0  0  0  0  0  0  0  0  0  0
   48.7625   34.6338   44.1361 H   0  0  0  0  0  0  0  0  0  0  0  0
   50.1614   34.3818   43.0581 H   0  0  0  0  0  0  0  0  0  0  0  0
   47.7654   32.5832   46.0584 H   0  0  0  0  0  0  0  0  0  0  0  0
   47.6763   31.0668   48.2955 H   0  0  0  0  0  0  0  0  0  0  0  0
   45.2646   31.6009   49.4079 H   0  0  0  0  0  0  0  0  0  0  0  0
  1  6  2  0
  2  3  2  0
  2  1  1  0
  3  4  1  0
  4  5  2  0
  5  6  1  0
  5 13  1  0
  7  3  1  0
  8  7  1  0
  9 10  1  0
  9  8  2  0
 10 11  2  0
 11  7  1  0
 11 12  1  0
 13 14  2  0
 13 17  1  0
 14 15  1  0
 15 16  2  0
 17 16  1  0
  1 18  1  0
  2 19  1  0
  8 20  1  0
  9 21  1  0
 12 22  1  0
 12 23  1  0
 14 24  1  0
 15 25  1  0
 16 26  1  0
M  ISO  7  18  14  19  14  20  14  21  14  24  14  25  14  26  14
M  END
>  <minimizedAffinity>  (1) 
-5.72720242

>  <minimizedRMSD>  (1) 
0.57964617

$$$$
