
     RDKit          3D

 26 28  0  0  0  0  0  0  0  0999 V2000
   44.5910   35.8350   44.7600 C   0  0  0  0  0  0  0  0  0  0  0  0
   45.3220   35.6710   43.5600 C   0  0  0  0  0  0  0  0  0  0  0  0
   46.1700   34.5570   43.4660 C   0  0  0  0  0  0  0  0  0  0  0  0
   46.2280   33.7280   44.5210 N   0  0  0  0  0  0  0  0  0  0  0  0
   45.5310   33.8940   45.6520 C   0  0  0  0  0  0  0  0  0  0  0  0
   44.7020   34.9740   45.7580 N   0  0  0  0  0  0  0  0  0  0  0  0
   46.8910   34.4110   42.2570 N   0  0  0  0  0  0  0  0  0  0  0  0
   46.2790   34.2910   41.0560 C   0  0  0  0  0  0  0  0  0  0  0  0
   47.3310   34.1720   40.1420 C   0  0  0  0  0  0  0  0  0  0  0  0
   48.5240   34.2210   40.8000 N   0  0  0  0  0  0  0  0  0  0  0  0
   48.2240   34.3700   42.1110 C   0  0  0  0  0  0  0  0  0  0  0  0
   49.1450   34.4720   43.2020 N   0  0  0  0  0  0  0  0  0  0  0  0
   45.6430   32.9350   46.7830 C   0  0  0  0  0  0  0  0  0  0  0  0
   47.0780   32.6480   47.2520 C   0  0  0  0  0  0  0  0  0  0  0  0
   46.2110   31.5840   46.5770 C   0  0  0  0  0  0  0  0  0  0  0  0
   43.9158   36.6970   44.8654 H   0  0  0  0  0  0  0  0  0  0  0  0
   45.2292   36.3894   42.7322 H   0  0  0  0  0  0  0  0  0  0  0  0
   45.1992   34.2878   40.8462 H   0  0  0  0  0  0  0  0  0  0  0  0
   47.2133   34.0562   39.0545 H   0  0  0  0  0  0  0  0  0  0  0  0
   48.7937   34.5838   44.1638 H   0  0  0  0  0  0  0  0  0  0  0  0
   50.1590   34.4336   43.0253 H   0  0  0  0  0  0  0  0  0  0  0  0
   44.7008   33.2799   47.2339 H   0  0  0  0  0  0  0  0  0  0  0  0
   47.9352   33.0865   46.7201 H   0  0  0  0  0  0  0  0  0  0  0  0
   47.6328   32.7328   48.1980 H   0  0  0  0  0  0  0  0  0  0  0  0
   45.8303   30.7360   47.1652 H   0  0  0  0  0  0  0  0  0  0  0  0
   46.3387   30.9279   45.7034 H   0  0  0  0  0  0  0  0  0  0  0  0
  1  6  2  0
  2  1  1  0
  3  2  2  0
  3  4  1  0
  4  5  2  0
  5  6  1  0
  5 13  1  0
  7  3  1  0
  8  7  1  0
  9 10  1  0
  9  8  2  0
 10 11  2  0
 11  7  1  0
 11 12  1  0
 13 14  1  0
 15 13  1  0
 15 14  1  0
  1 16  1  0
  2 17  1  0
  8 18  1  0
  9 19  1  0
 12 20  1  0
 12 21  1  0
 13 22  1  0
 14 23  1  0
 14 24  1  0
 15 25  1  0
 15 26  1  0
M  ISO  8  16  14  17  14  18  14  19  14  22  13  23  13  24  13  25  13
M  ISO  1  26  13
M  END
>  <minimizedAffinity>  (1) 
-5.00517797

>  <minimizedRMSD>  (1) 
0.318180442

$$$$
