
     RDKit          3D

 22 23  0  0  0  0  0  0  0  0999 V2000
   44.5620   36.0660   44.4020 C   0  0  0  0  0  0  0  0  0  0  0  0
   45.3410   35.8260   43.2490 C   0  0  0  0  0  0  0  0  0  0  0  0
   46.1970   34.7070   43.2790 C   0  0  0  0  0  0  0  0  0  0  0  0
   46.2260   33.9350   44.3930 N   0  0  0  0  0  0  0  0  0  0  0  0
   45.4640   34.1990   45.4780 C   0  0  0  0  0  0  0  0  0  0  0  0
   44.6370   35.2650   45.4710 N   0  0  0  0  0  0  0  0  0  0  0  0
   46.9720   34.4760   42.1210 N   0  0  0  0  0  0  0  0  0  0  0  0
   46.4110   34.3170   40.8880 C   0  0  0  0  0  0  0  0  0  0  0  0
   47.4880   34.1140   40.0270 C   0  0  0  0  0  0  0  0  0  0  0  0
   48.6460   34.1540   40.7400 N   0  0  0  0  0  0  0  0  0  0  0  0
   48.3030   34.3800   42.0390 C   0  0  0  0  0  0  0  0  0  0  0  0
   49.1620   34.5040   43.1630 N   0  0  0  0  0  0  0  0  0  0  0  0
   45.5170   33.3570   46.6520 C   0  0  0  0  0  0  0  0  0  0  0  0
   46.3530   32.4220   46.7520 O   0  0  0  0  0  0  0  0  0  0  0  0
   44.6490   33.5420   47.7180 O   0  0  0  0  0  0  0  0  0  0  0  0
   43.8799   36.9287   44.4217 H   0  0  0  0  0  0  0  0  0  0  0  0
   45.2824   36.4822   42.3681 H   0  0  0  0  0  0  0  0  0  0  0  0
   45.3421   34.3432   40.6296 H   0  0  0  0  0  0  0  0  0  0  0  0
   47.4135   33.9477   38.9422 H   0  0  0  0  0  0  0  0  0  0  0  0
   48.7653   34.6759   44.0979 H   0  0  0  0  0  0  0  0  0  0  0  0
   50.1817   34.4220   43.0434 H   0  0  0  0  0  0  0  0  0  0  0  0
   44.7057   32.9517   48.5107 H   0  0  0  0  0  0  0  0  0  0  0  0
  1  6  2  0
  2  3  2  0
  2  1  1  0
  3  4  1  0
  4  5  2  0
  5 13  1  0
  6  5  1  0
  7  3  1  0
  8  7  1  0
  9 10  1  0
  9  8  2  0
 10 11  2  0
 11  7  1  0
 11 12  1  0
 13 14  2  0
 13 15  1  0
  1 16  1  0
  2 17  1  0
  8 18  1  0
  9 19  1  0
 12 20  1  0
 12 21  1  0
 15 22  1  0
M  ISO  5  16  14  17  14  18  14  19  14  22   3
M  END
>  <minimizedAffinity>  (1) 
-5.44524097

>  <minimizedRMSD>  (1) 
0.135187089

$$$$
