
     RDKit          3D

 31 32  0  0  0  0  0  0  0  0999 V2000
   44.6360   35.4110   45.1780 C   0  0  0  0  0  0  0  0  0  0  0  0
   45.3050   35.4040   43.9270 C   0  0  0  0  0  0  0  0  0  0  0  0
   46.2150   34.3740   43.7000 C   0  0  0  0  0  0  0  0  0  0  0  0
   46.3940   33.4660   44.6810 N   0  0  0  0  0  0  0  0  0  0  0  0
   45.7530   33.4860   45.8610 C   0  0  0  0  0  0  0  0  0  0  0  0
   44.8560   34.4900   46.1000 N   0  0  0  0  0  0  0  0  0  0  0  0
   46.8900   34.3510   42.4610 N   0  0  0  0  0  0  0  0  0  0  0  0
   46.2030   34.2800   41.2810 C   0  0  0  0  0  0  0  0  0  0  0  0
   47.2070   34.2790   40.2980 C   0  0  0  0  0  0  0  0  0  0  0  0
   48.4220   34.3480   40.8980 N   0  0  0  0  0  0  0  0  0  0  0  0
   48.2030   34.3920   42.2290 C   0  0  0  0  0  0  0  0  0  0  0  0
   49.1670   34.4690   43.2700 N   0  0  0  0  0  0  0  0  0  0  0  0
   46.0180   32.4350   46.8840 C   0  0  0  0  0  0  0  0  0  0  0  0
   45.9250   31.0640   46.2510 C   0  0  0  0  0  0  0  0  0  0  0  0
   47.3680   32.6220   47.4960 C   0  0  0  0  0  0  0  0  0  0  0  0
   44.9670   32.6140   47.9680 C   0  0  0  0  0  0  0  0  0  0  0  0
   43.9096   36.2100   45.3877 H   0  0  0  0  0  0  0  0  0  0  0  0
   45.1135   36.1781   43.1693 H   0  0  0  0  0  0  0  0  0  0  0  0
   45.1137   34.2342   41.1347 H   0  0  0  0  0  0  0  0  0  0  0  0
   47.0350   34.2300   39.2126 H   0  0  0  0  0  0  0  0  0  0  0  0
   48.8619   34.4961   44.2534 H   0  0  0  0  0  0  0  0  0  0  0  0
   50.1709   34.4977   43.0412 H   0  0  0  0  0  0  0  0  0  0  0  0
   45.8731   30.2988   47.0395 H   0  0  0  0  0  0  0  0  0  0  0  0
   45.0211   31.0090   45.6266 H   0  0  0  0  0  0  0  0  0  0  0  0
   46.8132   30.8874   45.6266 H   0  0  0  0  0  0  0  0  0  0  0  0
   47.2785   32.6096   48.5923 H   0  0  0  0  0  0  0  0  0  0  0  0
   48.0330   31.8074   47.1732 H   0  0  0  0  0  0  0  0  0  0  0  0
   47.7865   33.5867   47.1732 H   0  0  0  0  0  0  0  0  0  0  0  0
   45.4424   32.5330   48.9566 H   0  0  0  0  0  0  0  0  0  0  0  0
   44.4999   33.6046   47.8658 H   0  0  0  0  0  0  0  0  0  0  0  0
   44.1983   31.8338   47.8658 H   0  0  0  0  0  0  0  0  0  0  0  0
  1  6  2  0
  2  1  1  0
  3  2  2  0
  3  4  1  0
  4  5  2  0
  5  6  1  0
  5 13  1  0
  7  3  1  0
  8  7  1  0
  9 10  1  0
  9  8  2  0
 10 11  2  0
 11  7  1  0
 11 12  1  0
 13 15  1  0
 13 16  1  0
 14 13  1  0
  1 17  1  0
  2 18  1  0
  8 19  1  0
  9 20  1  0
 12 21  1  0
 12 22  1  0
 14 23  1  0
 14 24  1  0
 14 25  1  0
 15 26  1  0
 15 27  1  0
 15 28  1  0
 16 29  1  0
 16 30  1  0
 16 31  1  0
M  ISO  8  17  14  18  14  19  14  20  14  23   8  24   8  25   8  26   8
M  ISO  5  27   8  28   8  29   8  30   8  31   8
M  END
>  <minimizedAffinity>  (1) 
-4.95889807

>  <minimizedRMSD>  (1) 
0.855919838

$$$$
