
     RDKit          3D

 45 48  0  0  0  0  0  0  0  0999 V2000
   44.5780   35.6800   45.1010 C   0  0  0  0  0  0  0  0  0  0  0  0
   44.0110   35.6540   43.8130 C   0  0  0  0  0  0  0  0  0  0  0  0
   44.2990   34.5900   42.9630 C   0  0  0  0  0  0  0  0  0  0  0  0
   45.1230   33.6520   43.4720 N   0  0  0  0  0  0  0  0  0  0  0  0
   45.6620   33.6780   44.6950 C   0  0  0  0  0  0  0  0  0  0  0  0
   45.3670   34.7080   45.4830 N   0  0  0  0  0  0  0  0  0  0  0  0
   46.4530   32.5510   44.6820 C   0  0  0  0  0  0  0  0  0  0  0  0
   47.2030   31.5240   44.5680 N   0  0  0  0  0  0  0  0  0  0  0  0
   47.8940   30.5600   44.5290 C   0  0  0  0  0  0  0  0  0  0  0  0
   47.8450   30.2210   45.8080 N   0  0  0  0  0  0  0  0  0  0  0  0
   47.0810   31.0260   46.6380 C   0  0  0  0  0  0  0  0  0  0  0  0
   47.0740   30.5760   47.9780 C   0  0  0  0  0  0  0  0  0  0  0  0
   46.3290   31.2890   48.8450 C   0  0  0  0  0  0  0  0  0  0  0  0
   45.6160   32.3760   48.4780 C   0  0  0  0  0  0  0  0  0  0  0  0
   45.7150   32.7040   47.1470 C   0  0  0  0  0  0  0  0  0  0  0  0
   46.4180   32.1420   46.0570 C   0  0  0  0  0  0  0  0  0  0  0  0
   43.7410   34.5900   41.6780 N   0  0  0  0  0  0  0  0  0  0  0  0
   42.4440   34.7980   41.4570 C   0  0  0  0  0  0  0  0  0  0  0  0
   42.2990   34.7190   40.0670 C   0  0  0  0  0  0  0  0  0  0  0  0
   43.5260   34.4640   39.4960 N   0  0  0  0  0  0  0  0  0  0  0  0
   44.4050   34.3880   40.5080 C   0  0  0  0  0  0  0  0  0  0  0  0
   45.8060   34.1370   40.4170 N   0  0  0  0  0  0  0  0  0  0  0  0
   41.0380   34.8790   39.2900 C   0  0  0  0  0  0  0  0  0  0  0  0
   39.9290   35.4650   40.1210 C   0  0  0  0  0  0  0  0  0  0  0  0
   41.2110   35.7350   38.0600 C   0  0  0  0  0  0  0  0  0  0  0  0
   40.5580   33.5280   38.8030 C   0  0  0  0  0  0  0  0  0  0  0  0
   44.3589   36.5140   45.7840 H   0  0  0  0  0  0  0  0  0  0  0  0
   43.3472   36.4661   43.4816 H   0  0  0  0  0  0  0  0  0  0  0  0
   48.4179   30.0894   43.6840 H   0  0  0  0  0  0  0  0  0  0  0  0
   47.6458   29.6916   48.2956 H   0  0  0  0  0  0  0  0  0  0  0  0
   46.3001   30.9721   49.8980 H   0  0  0  0  0  0  0  0  0  0  0  0
   45.0048   32.9527   49.1878 H   0  0  0  0  0  0  0  0  0  0  0  0
   45.1231   33.5895   46.8724 H   0  0  0  0  0  0  0  0  0  0  0  0
   41.6589   34.9898   42.2033 H   0  0  0  0  0  0  0  0  0  0  0  0
   46.3796   34.1022   41.2718 H   0  0  0  0  0  0  0  0  0  0  0  0
   46.2442   33.9905   39.4965 H   0  0  0  0  0  0  0  0  0  0  0  0
   40.1652   35.3402   41.1881 H   0  0  0  0  0  0  0  0  0  0  0  0
   39.8251   36.5357   39.8912 H   0  0  0  0  0  0  0  0  0  0  0  0
   38.9859   34.9475   39.8912 H   0  0  0  0  0  0  0  0  0  0  0  0
   41.4206   36.7719   38.3614 H   0  0  0  0  0  0  0  0  0  0  0  0
   42.0496   35.3507   37.4608 H   0  0  0  0  0  0  0  0  0  0  0  0
   40.2889   35.7066   37.4608 H   0  0  0  0  0  0  0  0  0  0  0  0
   40.3301   32.8865   39.6671 H   0  0  0  0  0  0  0  0  0  0  0  0
   39.6513   33.6587   38.1941 H   0  0  0  0  0  0  0  0  0  0  0  0
   41.3439   33.0573   38.1941 H   0  0  0  0  0  0  0  0  0  0  0  0
  1  6  2  0
  2  1  1  0
  3  4  1  0
  3  2  2  0
  4  5  2  0
  5  6  1  0
  7  5  1  0
  7 16  1  0
  8  7  2  0
  9  8  1  0
  9 10  2  0
 10 11  1  0
 11 12  1  0
 12 13  2  0
 14 13  1  0
 15 14  2  0
 16 11  2  0
 16 15  1  0
 17  3  1  0
 18 17  1  0
 19 18  2  0
 20 19  1  0
 20 21  2  0
 21 17  1  0
 22 21  1  0
 23 19  1  0
 23 24  1  0
 25 23  1  0
 26 23  1  0
  1 27  1  0
  2 28  1  0
  9 29  1  0
 12 30  1  0
 13 31  1  0
 14 32  1  0
 15 33  1  0
 18 34  1  0
 22 35  1  0
 22 36  1  0
 24 37  1  0
 24 38  1  0
 24 39  1  0
 25 40  1  0
 25 41  1  0
 25 42  1  0
 26 43  1  0
 26 44  1  0
 26 45  1  0
M  ISO  8  27  14  28  14  29  14  30  14  31  14  32  14  33  14  34  14
M  ISO  8  37   8  38   8  39   8  40   8  41   8  42   8  43   8  44   8
M  ISO  1  45   8
M  END
>  <minimizedAffinity>  (1) 
-6.83059788

>  <minimizedRMSD>  (1) 
0.693990409

$$$$
