
     RDKit          3D

 42 45  0  0  0  0  0  0  0  0999 V2000
   44.5990   35.6940   45.2100 C   0  0  0  0  0  0  0  0  0  0  0  0
   44.0380   35.6930   43.9170 C   0  0  0  0  0  0  0  0  0  0  0  0
   44.3030   34.6270   43.0620 C   0  0  0  0  0  0  0  0  0  0  0  0
   45.1000   33.6610   43.5680 N   0  0  0  0  0  0  0  0  0  0  0  0
   45.6320   33.6660   44.7950 C   0  0  0  0  0  0  0  0  0  0  0  0
   45.3580   34.6990   45.5880 N   0  0  0  0  0  0  0  0  0  0  0  0
   46.3950   32.5210   44.7770 C   0  0  0  0  0  0  0  0  0  0  0  0
   47.1230   31.4780   44.6620 N   0  0  0  0  0  0  0  0  0  0  0  0
   47.7890   30.4980   44.6250 C   0  0  0  0  0  0  0  0  0  0  0  0
   47.7180   30.1490   45.9050 N   0  0  0  0  0  0  0  0  0  0  0  0
   46.9640   30.9670   46.7320 C   0  0  0  0  0  0  0  0  0  0  0  0
   46.9290   30.5010   48.0660 C   0  0  0  0  0  0  0  0  0  0  0  0
   46.1830   31.2200   48.9300 C   0  0  0  0  0  0  0  0  0  0  0  0
   45.4980   32.3220   48.5710 C   0  0  0  0  0  0  0  0  0  0  0  0
   45.6270   32.6630   47.2390 C   0  0  0  0  0  0  0  0  0  0  0  0
   46.3360   32.1000   46.1500 C   0  0  0  0  0  0  0  0  0  0  0  0
   43.7530   34.6520   41.7750 N   0  0  0  0  0  0  0  0  0  0  0  0
   42.4620   34.8980   41.5520 C   0  0  0  0  0  0  0  0  0  0  0  0
   42.3200   34.8320   40.1610 C   0  0  0  0  0  0  0  0  0  0  0  0
   43.5460   34.5440   39.5900 N   0  0  0  0  0  0  0  0  0  0  0  0
   44.4190   34.4380   40.6050 C   0  0  0  0  0  0  0  0  0  0  0  0
   45.8090   34.1530   40.5180 N   0  0  0  0  0  0  0  0  0  0  0  0
   41.0080   35.0490   39.4550 C   0  0  0  0  0  0  0  0  0  0  0  0
   40.0590   35.8450   40.3260 C   0  0  0  0  0  0  0  0  0  0  0  0
   41.1910   35.7760   38.1620 C   0  0  0  0  0  0  0  0  0  0  0  0
   44.3990   36.5285   45.8982 H   0  0  0  0  0  0  0  0  0  0  0  0
   43.3982   36.5249   43.5874 H   0  0  0  0  0  0  0  0  0  0  0  0
   48.3102   30.0202   43.7824 H   0  0  0  0  0  0  0  0  0  0  0  0
   47.4792   29.6024   48.3820 H   0  0  0  0  0  0  0  0  0  0  0  0
   46.1320   30.8900   49.9781 H   0  0  0  0  0  0  0  0  0  0  0  0
   44.8873   32.9017   49.2788 H   0  0  0  0  0  0  0  0  0  0  0  0
   45.0578   33.5637   46.9657 H   0  0  0  0  0  0  0  0  0  0  0  0
   41.6803   35.1069   42.2971 H   0  0  0  0  0  0  0  0  0  0  0  0
   46.3779   34.0973   41.3748 H   0  0  0  0  0  0  0  0  0  0  0  0
   46.2472   34.0022   39.5981 H   0  0  0  0  0  0  0  0  0  0  0  0
   40.5870   34.0537   39.2497 H   0  0  0  0  0  0  0  0  0  0  0  0
   40.2863   35.6544   41.3853 H   0  0  0  0  0  0  0  0  0  0  0  0
   40.1779   36.9176   40.1127 H   0  0  0  0  0  0  0  0  0  0  0  0
   39.0235   35.5413   40.1127 H   0  0  0  0  0  0  0  0  0  0  0  0
   41.4549   36.8244   38.3650 H   0  0  0  0  0  0  0  0  0  0  0  0
   41.9974   35.3001   37.5847 H   0  0  0  0  0  0  0  0  0  0  0  0
   40.2554   35.7386   37.5847 H   0  0  0  0  0  0  0  0  0  0  0  0
  1  6  2  0
  2  1  1  0
  3  4  1  0
  3  2  2  0
  4  5  2  0
  5  6  1  0
  7  5  1  0
  7 16  1  0
  8  7  2  0
  9  8  1  0
  9 10  2  0
 10 11  1  0
 11 12  1  0
 12 13  2  0
 14 13  1  0
 15 14  2  0
 16 11  2  0
 16 15  1  0
 17  3  1  0
 18 17  1  0
 19 18  2  0
 20 19  1  0
 20 21  2  0
 21 17  1  0
 22 21  1  0
 23 19  1  0
 23 24  1  0
 25 23  1  0
  1 26  1  0
  2 27  1  0
  9 28  1  0
 12 29  1  0
 13 30  1  0
 14 31  1  0
 15 32  1  0
 18 33  1  0
 22 34  1  0
 22 35  1  0
 23 36  1  0
 24 37  1  0
 24 38  1  0
 24 39  1  0
 25 40  1  0
 25 41  1  0
 25 42  1  0
M  ISO  8  26  14  27  14  28  14  29  14  30  14  31  14  32  14  33  14
M  ISO  7  36   8  37   8  38   8  39   8  40   8  41   8  42   8
M  END
>  <minimizedAffinity>  (1) 
-6.63234568

>  <minimizedRMSD>  (1) 
0.551818252

$$$$
