
     RDKit          3D

 38 42  0  0  0  0  0  0  0  0999 V2000
   44.6250   35.6940   45.0160 C   0  0  0  0  0  0  0  0  0  0  0  0
   44.0290   35.6010   43.7430 C   0  0  0  0  0  0  0  0  0  0  0  0
   44.2880   34.4850   42.9500 C   0  0  0  0  0  0  0  0  0  0  0  0
   45.1150   33.5650   43.4950 N   0  0  0  0  0  0  0  0  0  0  0  0
   45.6780   33.6600   44.7060 C   0  0  0  0  0  0  0  0  0  0  0  0
   45.4110   34.7360   45.4380 N   0  0  0  0  0  0  0  0  0  0  0  0
   46.4560   32.5270   44.7430 C   0  0  0  0  0  0  0  0  0  0  0  0
   47.2030   31.4920   44.6770 N   0  0  0  0  0  0  0  0  0  0  0  0
   47.8840   30.5220   44.6830 C   0  0  0  0  0  0  0  0  0  0  0  0
   47.7670   30.1920   45.9610 N   0  0  0  0  0  0  0  0  0  0  0  0
   46.9700   31.0120   46.7420 C   0  0  0  0  0  0  0  0  0  0  0  0
   46.8860   30.5710   48.0850 C   0  0  0  0  0  0  0  0  0  0  0  0
   46.1000   31.2960   48.9040 C   0  0  0  0  0  0  0  0  0  0  0  0
   45.4190   32.3840   48.4910 C   0  0  0  0  0  0  0  0  0  0  0  0
   45.5900   32.7040   47.1640 C   0  0  0  0  0  0  0  0  0  0  0  0
   46.3480   32.1280   46.1180 C   0  0  0  0  0  0  0  0  0  0  0  0
   43.7000   34.4150   41.6820 N   0  0  0  0  0  0  0  0  0  0  0  0
   42.3810   34.4910   41.4970 C   0  0  0  0  0  0  0  0  0  0  0  0
   42.2070   34.3820   40.1130 C   0  0  0  0  0  0  0  0  0  0  0  0
   43.4330   34.2440   39.5080 N   0  0  0  0  0  0  0  0  0  0  0  0
   44.3480   34.2660   40.4960 C   0  0  0  0  0  0  0  0  0  0  0  0
   45.7630   34.1550   40.3670 N   0  0  0  0  0  0  0  0  0  0  0  0
   40.9430   34.4050   39.3830 C   0  0  0  0  0  0  0  0  0  0  0  0
   39.6980   34.5110   39.8820 N   0  0  0  0  0  0  0  0  0  0  0  0
   38.8340   34.4930   38.8950 O   0  0  0  0  0  0  0  0  0  0  0  0
   39.4780   34.3780   37.7350 C   0  0  0  0  0  0  0  0  0  0  0  0
   40.8020   34.3230   38.0490 N   0  0  0  0  0  0  0  0  0  0  0  0
   44.4305   36.5690   45.6536 H   0  0  0  0  0  0  0  0  0  0  0  0
   43.3667   36.4003   43.3791 H   0  0  0  0  0  0  0  0  0  0  0  0
   48.4459   30.0394   43.8698 H   0  0  0  0  0  0  0  0  0  0  0  0
   47.4327   29.6849   48.4399 H   0  0  0  0  0  0  0  0  0  0  0  0
   46.0097   30.9870   49.9558 H   0  0  0  0  0  0  0  0  0  0  0  0
   44.7760   32.9707   49.1635 H   0  0  0  0  0  0  0  0  0  0  0  0
   45.0193   33.5911   46.8520 H   0  0  0  0  0  0  0  0  0  0  0  0
   41.6017   34.6126   42.2638 H   0  0  0  0  0  0  0  0  0  0  0  0
   46.3606   34.1863   41.2053 H   0  0  0  0  0  0  0  0  0  0  0  0
   46.1880   34.0435   39.4354 H   0  0  0  0  0  0  0  0  0  0  0  0
   39.0323   34.3361   36.7302 H   0  0  0  0  0  0  0  0  0  0  0  0
  1  6  2  0
  2  1  1  0
  3  4  1  0
  3  2  2  0
  4  5  2  0
  5  7  1  0
  5  6  1  0
  7 16  2  0
  8  9  2  0
  8  7  1  0
  9 10  1  0
 10 11  2  0
 11 12  1  0
 12 13  2  0
 14 13  1  0
 15 14  2  0
 16 11  1  0
 16 15  1  0
 17  3  1  0
 18 17  1  0
 19 18  2  0
 20 19  1  0
 20 21  2  0
 21 17  1  0
 22 21  1  0
 23 24  2  0
 23 19  1  0
 25 24  1  0
 26 27  2  0
 26 25  1  0
 27 23  1  0
  1 28  1  0
  2 29  1  0
  9 30  1  0
 12 31  1  0
 13 32  1  0
 14 33  1  0
 15 34  1  0
 18 35  1  0
 22 36  1  0
 22 37  1  0
 26 38  1  0
M  ISO  8  28  14  29  14  30  14  31  14  32  14  33  14  34  14  35  14
M  ISO  1  38  14
M  END
>  <minimizedAffinity>  (1) 
-6.72233248

>  <minimizedRMSD>  (1) 
0.416632026

$$$$
