
     RDKit          3D

 46 50  0  0  0  0  0  0  0  0999 V2000
   44.7900   35.4040   45.0300 C   0  0  0  0  0  0  0  0  0  0  0  0
   44.3130   35.2340   43.7170 C   0  0  0  0  0  0  0  0  0  0  0  0
   44.6420   34.0750   43.0180 C   0  0  0  0  0  0  0  0  0  0  0  0
   45.4130   33.1890   43.6880 N   0  0  0  0  0  0  0  0  0  0  0  0
   45.8640   33.3600   44.9390 C   0  0  0  0  0  0  0  0  0  0  0  0
   45.5330   34.4750   45.5760 N   0  0  0  0  0  0  0  0  0  0  0  0
   46.6430   32.2410   45.1100 C   0  0  0  0  0  0  0  0  0  0  0  0
   47.3980   31.2160   45.1740 N   0  0  0  0  0  0  0  0  0  0  0  0
   48.0860   30.2480   45.3030 C   0  0  0  0  0  0  0  0  0  0  0  0
   47.8130   29.9670   46.5720 N   0  0  0  0  0  0  0  0  0  0  0  0
   46.9200   30.8070   47.2160 C   0  0  0  0  0  0  0  0  0  0  0  0
   46.6820   30.4150   48.5470 C   0  0  0  0  0  0  0  0  0  0  0  0
   45.8010   31.1600   49.2430 C   0  0  0  0  0  0  0  0  0  0  0  0
   45.1670   32.2240   48.7170 C   0  0  0  0  0  0  0  0  0  0  0  0
   45.4920   32.4990   47.4070 C   0  0  0  0  0  0  0  0  0  0  0  0
   46.3720   31.8870   46.4840 C   0  0  0  0  0  0  0  0  0  0  0  0
   44.1720   33.9270   41.7050 N   0  0  0  0  0  0  0  0  0  0  0  0
   42.9000   33.6430   41.4280 C   0  0  0  0  0  0  0  0  0  0  0  0
   42.8450   33.5800   40.0310 C   0  0  0  0  0  0  0  0  0  0  0  0
   44.0900   33.8290   39.5140 N   0  0  0  0  0  0  0  0  0  0  0  0
   44.9060   34.0430   40.5660 C   0  0  0  0  0  0  0  0  0  0  0  0
   46.2990   34.3380   40.5390 N   0  0  0  0  0  0  0  0  0  0  0  0
   39.3120   32.8410   37.8600 C   0  0  0  0  0  0  0  0  0  0  0  0
   39.9400   31.7800   38.5030 C   0  0  0  0  0  0  0  0  0  0  0  0
   41.0980   32.0030   39.2190 C   0  0  0  0  0  0  0  0  0  0  0  0
   41.6080   33.2870   39.2790 C   0  0  0  0  0  0  0  0  0  0  0  0
   40.9810   34.3360   38.6380 C   0  0  0  0  0  0  0  0  0  0  0  0
   39.8050   34.1310   37.9070 C   0  0  0  0  0  0  0  0  0  0  0  0
   37.8490   32.3530   37.0000 S   0  0  0  0  0  0  0  0  0  0  0  0
   37.1700   33.5970   36.4750 O   0  0  0  0  0  0  0  0  0  0  0  0
   38.1540   31.3730   35.9340 O   0  0  0  0  0  0  0  0  0  0  0  0
   44.5395   36.3139   45.5951 H   0  0  0  0  0  0  0  0  0  0  0  0
   43.6874   36.0077   43.2480 H   0  0  0  0  0  0  0  0  0  0  0  0
   48.7478   29.7410   44.5853 H   0  0  0  0  0  0  0  0  0  0  0  0
   47.1881   29.5471   48.9948 H   0  0  0  0  0  0  0  0  0  0  0  0
   45.5907   30.8863   50.2874 H   0  0  0  0  0  0  0  0  0  0  0  0
   44.4458   32.8269   49.2883 H   0  0  0  0  0  0  0  0  0  0  0  0
   44.9602   33.3697   46.9959 H   0  0  0  0  0  0  0  0  0  0  0  0
   42.0753   33.4915   42.1400 H   0  0  0  0  0  0  0  0  0  0  0  0
   46.8123   34.4811   41.4204 H   0  0  0  0  0  0  0  0  0  0  0  0
   46.7932   34.4083   39.6380 H   0  0  0  0  0  0  0  0  0  0  0  0
   39.5153   30.7672   38.4410 H   0  0  0  0  0  0  0  0  0  0  0  0
   41.6066   31.1741   39.7331 H   0  0  0  0  0  0  0  0  0  0  0  0
   41.4110   35.3464   38.7023 H   0  0  0  0  0  0  0  0  0  0  0  0
   39.2961   34.9597   37.3930 H   0  0  0  0  0  0  0  0  0  0  0  0
   36.9897   31.7112   37.8525 H   0  0  0  0  0  0  0  0  0  0  0  0
  1  6  2  0
  2  1  1  0
  3  4  1  0
  3  2  2  0
  4  5  2  0
  5  7  1  0
  5  6  1  0
  7  8  2  0
  7 16  1  0
  8  9  1  0
  9 10  2  0
 10 11  1  0
 11 12  1  0
 12 13  2  0
 14 13  1  0
 15 14  2  0
 16 11  2  0
 16 15  1  0
 17  3  1  0
 18 17  1  0
 19 18  2  0
 20 19  1  0
 20 21  2  0
 21 17  1  0
 22 21  1  0
 23 28  2  0
 23 24  1  0
 24 25  2  0
 25 26  1  0
 26 19  1  0
 27 26  2  0
 28 27  1  0
 29 23  1  0
 30 29  2  0
 31 29  2  0
  1 32  1  0
  2 33  1  0
  9 34  1  0
 12 35  1  0
 13 36  1  0
 14 37  1  0
 15 38  1  0
 18 39  1  0
 22 40  1  0
 22 41  1  0
 24 42  1  0
 25 43  1  0
 27 44  1  0
 28 45  1  0
 29 46  1  0
M  ISO  8  32  14  33  14  34  14  35  14  36  14  37  14  38  14  39  14
M  ISO  5  42  14  43  14  44  14  45  14  46  11
M  END
>  <minimizedAffinity>  (1) 
-6.2340126

>  <minimizedRMSD>  (1) 
1.03990519

$$$$
