
     RDKit          3D

 35 38  0  0  0  0  0  0  0  0999 V2000
   44.6360   35.6430   44.9720 C   0  0  0  0  0  0  0  0  0  0  0  0
   44.0620   35.5320   43.6920 C   0  0  0  0  0  0  0  0  0  0  0  0
   44.3400   34.4080   42.9160 C   0  0  0  0  0  0  0  0  0  0  0  0
   45.1600   33.4990   43.4850 N   0  0  0  0  0  0  0  0  0  0  0  0
   45.7040   33.6100   44.7020 C   0  0  0  0  0  0  0  0  0  0  0  0
   45.4190   34.6940   45.4150 N   0  0  0  0  0  0  0  0  0  0  0  0
   46.4900   32.4820   44.7650 C   0  0  0  0  0  0  0  0  0  0  0  0
   47.2440   31.4530   44.7190 N   0  0  0  0  0  0  0  0  0  0  0  0
   47.9310   30.4870   44.7490 C   0  0  0  0  0  0  0  0  0  0  0  0
   47.7990   30.1730   46.0320 N   0  0  0  0  0  0  0  0  0  0  0  0
   46.9840   30.9980   46.7890 C   0  0  0  0  0  0  0  0  0  0  0  0
   46.8860   30.5720   48.1340 C   0  0  0  0  0  0  0  0  0  0  0  0
   46.0840   31.3020   48.9350 C   0  0  0  0  0  0  0  0  0  0  0  0
   45.3990   32.3810   48.5040 C   0  0  0  0  0  0  0  0  0  0  0  0
   45.5890   32.6840   47.1750 C   0  0  0  0  0  0  0  0  0  0  0  0
   46.3640   32.1010   46.1460 C   0  0  0  0  0  0  0  0  0  0  0  0
   43.7760   34.3250   41.6360 N   0  0  0  0  0  0  0  0  0  0  0  0
   42.4610   34.3590   41.4220 C   0  0  0  0  0  0  0  0  0  0  0  0
   42.3220   34.2510   40.0350 C   0  0  0  0  0  0  0  0  0  0  0  0
   43.5670   34.1540   39.4540 N   0  0  0  0  0  0  0  0  0  0  0  0
   44.4580   34.2020   40.4620 C   0  0  0  0  0  0  0  0  0  0  0  0
   45.8770   34.1410   40.3610 N   0  0  0  0  0  0  0  0  0  0  0  0
   41.0210   34.2470   39.3640 C   0  0  0  0  0  0  0  0  0  0  0  0
   40.3480   35.2800   39.1190 O   0  0  0  0  0  0  0  0  0  0  0  0
   44.4270   36.5238   45.5969 H   0  0  0  0  0  0  0  0  0  0  0  0
   43.4014   36.3233   43.3082 H   0  0  0  0  0  0  0  0  0  0  0  0
   48.5069   29.9965   43.9504 H   0  0  0  0  0  0  0  0  0  0  0  0
   47.4338   29.6937   48.5060 H   0  0  0  0  0  0  0  0  0  0  0  0
   45.9836   31.0038   49.9890 H   0  0  0  0  0  0  0  0  0  0  0  0
   44.7424   32.9704   49.1608 H   0  0  0  0  0  0  0  0  0  0  0  0
   45.0184   33.5642   46.8439 H   0  0  0  0  0  0  0  0  0  0  0  0
   41.6612   34.4516   42.1715 H   0  0  0  0  0  0  0  0  0  0  0  0
   46.4563   34.1879   41.2113 H   0  0  0  0  0  0  0  0  0  0  0  0
   46.3241   34.0500   39.4376 H   0  0  0  0  0  0  0  0  0  0  0  0
   40.6053   33.2769   39.0540 H   0  0  0  0  0  0  0  0  0  0  0  0
  1  6  2  0
  2  1  1  0
  3  4  1  0
  3  2  2  0
  4  5  2  0
  5  7  1  0
  5  6  1  0
  7 16  2  0
  8  9  2  0
  8  7  1  0
  9 10  1  0
 10 11  2  0
 11 12  1  0
 12 13  2  0
 14 13  1  0
 15 14  2  0
 16 11  1  0
 16 15  1  0
 17  3  1  0
 18 17  1  0
 19 18  2  0
 20 19  1  0
 20 21  2  0
 21 17  1  0
 22 21  1  0
 23 19  1  0
 24 23  2  0
  1 25  1  0
  2 26  1  0
  9 27  1  0
 12 28  1  0
 13 29  1  0
 14 30  1  0
 15 31  1  0
 18 32  1  0
 22 33  1  0
 22 34  1  0
 23 35  1  0
M  ISO  8  25  14  26  14  27  14  28  14  29  14  30  14  31  14  32  14
M  ISO  1  35   6
M  END
>  <minimizedAffinity>  (1) 
-5.85959864

>  <minimizedRMSD>  (1) 
0.212670237

$$$$
