
     RDKit          3D

 36 39  0  0  0  0  0  0  0  0999 V2000
   44.6500   35.6140   44.9380 C   0  0  0  0  0  0  0  0  0  0  0  0
   44.0760   35.4860   43.6610 C   0  0  0  0  0  0  0  0  0  0  0  0
   44.3530   34.3540   42.9020 C   0  0  0  0  0  0  0  0  0  0  0  0
   45.1740   33.4520   43.4840 N   0  0  0  0  0  0  0  0  0  0  0  0
   45.7190   33.5790   44.6990 C   0  0  0  0  0  0  0  0  0  0  0  0
   45.4350   34.6730   45.3990 N   0  0  0  0  0  0  0  0  0  0  0  0
   46.5070   32.4540   44.7770 C   0  0  0  0  0  0  0  0  0  0  0  0
   47.2640   31.4260   44.7510 N   0  0  0  0  0  0  0  0  0  0  0  0
   47.9520   30.4640   44.7950 C   0  0  0  0  0  0  0  0  0  0  0  0
   47.8100   30.1660   46.0790 N   0  0  0  0  0  0  0  0  0  0  0  0
   46.9890   30.9950   46.8280 C   0  0  0  0  0  0  0  0  0  0  0  0
   46.8820   30.5830   48.1720 C   0  0  0  0  0  0  0  0  0  0  0  0
   46.0680   31.3170   48.9580 C   0  0  0  0  0  0  0  0  0  0  0  0
   45.3820   32.3860   48.5120 C   0  0  0  0  0  0  0  0  0  0  0  0
   45.5840   32.6780   47.1790 C   0  0  0  0  0  0  0  0  0  0  0  0
   46.3720   32.0900   46.1600 C   0  0  0  0  0  0  0  0  0  0  0  0
   43.7880   34.2490   41.6240 N   0  0  0  0  0  0  0  0  0  0  0  0
   42.4720   34.2260   41.4180 C   0  0  0  0  0  0  0  0  0  0  0  0
   42.3260   34.1140   40.0340 C   0  0  0  0  0  0  0  0  0  0  0  0
   43.5730   34.0730   39.4440 N   0  0  0  0  0  0  0  0  0  0  0  0
   44.4640   34.1590   40.4440 C   0  0  0  0  0  0  0  0  0  0  0  0
   45.8860   34.1540   40.3360 N   0  0  0  0  0  0  0  0  0  0  0  0
   41.0390   34.0460   39.2870 C   0  0  0  0  0  0  0  0  0  0  0  0
   44.4398   36.5040   45.5493 H   0  0  0  0  0  0  0  0  0  0  0  0
   43.4154   36.2722   43.2667 H   0  0  0  0  0  0  0  0  0  0  0  0
   48.5350   29.9660   44.0063 H   0  0  0  0  0  0  0  0  0  0  0  0
   47.4316   29.7118   48.5580 H   0  0  0  0  0  0  0  0  0  0  0  0
   45.9595   31.0283   50.0139 H   0  0  0  0  0  0  0  0  0  0  0  0
   44.7157   32.9776   49.1570 H   0  0  0  0  0  0  0  0  0  0  0  0
   45.0121   33.5524   46.8350 H   0  0  0  0  0  0  0  0  0  0  0  0
   41.6745   34.2828   42.1735 H   0  0  0  0  0  0  0  0  0  0  0  0
   46.4671   34.2264   41.1833 H   0  0  0  0  0  0  0  0  0  0  0  0
   46.3319   34.0780   39.4107 H   0  0  0  0  0  0  0  0  0  0  0  0
   40.2029   34.0018   40.0004 H   0  0  0  0  0  0  0  0  0  0  0  0
   40.9345   34.9399   38.6545 H   0  0  0  0  0  0  0  0  0  0  0  0
   41.0293   33.1461   38.6545 H   0  0  0  0  0  0  0  0  0  0  0  0
  1  6  2  0
  2  1  1  0
  3  4  1  0
  3  2  2  0
  4  5  2  0
  5  7  1  0
  5  6  1  0
  7 16  1  0
  8  7  2  0
  8  9  1  0
  9 10  2  0
 10 11  1  0
 11 12  1  0
 12 13  2  0
 14 13  1  0
 15 14  2  0
 16 11  2  0
 16 15  1  0
 17  3  1  0
 18 17  1  0
 19 18  2  0
 20 19  1  0
 20 21  2  0
 21 17  1  0
 22 21  1  0
 23 19  1  0
  1 24  1  0
  2 25  1  0
  9 26  1  0
 12 27  1  0
 13 28  1  0
 14 29  1  0
 15 30  1  0
 18 31  1  0
 22 32  1  0
 22 33  1  0
 23 34  1  0
 23 35  1  0
 23 36  1  0
M  ISO  8  24  14  25  14  26  14  27  14  28  14  29  14  30  14  31  14
M  ISO  3  34   8  35   8  36   8
M  END
>  <minimizedAffinity>  (1) 
-5.87470102

>  <minimizedRMSD>  (1) 
0.103195556

$$$$
