
     RDKit          3D

 39 42  0  0  0  0  0  0  0  0999 V2000
   44.5970   35.7110   45.2040 C   0  0  0  0  0  0  0  0  0  0  0  0
   44.0240   35.7110   43.9170 C   0  0  0  0  0  0  0  0  0  0  0  0
   44.2770   34.6420   43.0610 C   0  0  0  0  0  0  0  0  0  0  0  0
   45.0740   33.6740   43.5590 N   0  0  0  0  0  0  0  0  0  0  0  0
   45.6170   33.6800   44.7820 C   0  0  0  0  0  0  0  0  0  0  0  0
   45.3580   34.7120   45.5760 N   0  0  0  0  0  0  0  0  0  0  0  0
   46.3760   32.5310   44.7600 C   0  0  0  0  0  0  0  0  0  0  0  0
   47.0990   31.4860   44.6390 N   0  0  0  0  0  0  0  0  0  0  0  0
   47.7610   30.5030   44.5930 C   0  0  0  0  0  0  0  0  0  0  0  0
   47.6940   30.1480   45.8690 N   0  0  0  0  0  0  0  0  0  0  0  0
   46.9470   30.9640   46.7040 C   0  0  0  0  0  0  0  0  0  0  0  0
   46.9180   30.4950   48.0350 C   0  0  0  0  0  0  0  0  0  0  0  0
   46.1870   31.2180   48.9060 C   0  0  0  0  0  0  0  0  0  0  0  0
   45.5070   32.3280   48.5510 C   0  0  0  0  0  0  0  0  0  0  0  0
   45.6250   32.6720   47.2240 C   0  0  0  0  0  0  0  0  0  0  0  0
   46.3210   32.1040   46.1320 C   0  0  0  0  0  0  0  0  0  0  0  0
   43.7060   34.6640   41.7810 N   0  0  0  0  0  0  0  0  0  0  0  0
   42.4120   34.9060   41.5740 C   0  0  0  0  0  0  0  0  0  0  0  0
   42.2510   34.8380   40.1870 C   0  0  0  0  0  0  0  0  0  0  0  0
   43.4550   34.5570   39.6010 N   0  0  0  0  0  0  0  0  0  0  0  0
   44.3530   34.4490   40.6050 C   0  0  0  0  0  0  0  0  0  0  0  0
   45.7440   34.1620   40.4980 N   0  0  0  0  0  0  0  0  0  0  0  0
   41.0320   35.0210   39.3560 C   0  0  0  0  0  0  0  0  0  0  0  0
   39.9050   35.5330   40.2080 C   0  0  0  0  0  0  0  0  0  0  0  0
   44.4061   36.5465   45.8936 H   0  0  0  0  0  0  0  0  0  0  0  0
   43.3846   36.5451   43.5922 H   0  0  0  0  0  0  0  0  0  0  0  0
   48.2765   30.0278   43.7454 H   0  0  0  0  0  0  0  0  0  0  0  0
   47.4617   29.5900   48.3439 H   0  0  0  0  0  0  0  0  0  0  0  0
   46.1426   30.8882   49.9544 H   0  0  0  0  0  0  0  0  0  0  0  0
   44.9066   32.9110   49.2650 H   0  0  0  0  0  0  0  0  0  0  0  0
   45.0603   33.5774   46.9570 H   0  0  0  0  0  0  0  0  0  0  0  0
   41.6396   35.1138   42.3292 H   0  0  0  0  0  0  0  0  0  0  0  0
   46.3251   34.1064   41.3466 H   0  0  0  0  0  0  0  0  0  0  0  0
   46.1688   34.0100   39.5720 H   0  0  0  0  0  0  0  0  0  0  0  0
   41.2418   35.7451   38.5550 H   0  0  0  0  0  0  0  0  0  0  0  0
   40.7442   34.0543   38.9170 H   0  0  0  0  0  0  0  0  0  0  0  0
   40.1654   35.4147   41.2702 H   0  0  0  0  0  0  0  0  0  0  0  0
   39.7338   36.5972   39.9887 H   0  0  0  0  0  0  0  0  0  0  0  0
   38.9908   34.9618   39.9887 H   0  0  0  0  0  0  0  0  0  0  0  0
  1  6  2  0
  2  1  1  0
  3  4  1  0
  3  2  2  0
  4  5  2  0
  5  6  1  0
  7  5  1  0
  7 16  1  0
  8  7  2  0
  9  8  1  0
  9 10  2  0
 10 11  1  0
 11 12  1  0
 12 13  2  0
 14 13  1  0
 15 14  2  0
 16 11  2  0
 16 15  1  0
 17  3  1  0
 18 17  1  0
 19 18  2  0
 20 19  1  0
 20 21  2  0
 21 17  1  0
 22 21  1  0
 23 19  1  0
 23 24  1  0
  1 25  1  0
  2 26  1  0
  9 27  1  0
 12 28  1  0
 13 29  1  0
 14 30  1  0
 15 31  1  0
 18 32  1  0
 22 33  1  0
 22 34  1  0
 23 35  1  0
 23 36  1  0
 24 37  1  0
 24 38  1  0
 24 39  1  0
M  ISO  8  25  14  26  14  27  14  28  14  29  14  30  14  31  14  32  14
M  ISO  5  35   8  36   8  37   8  38   8  39   8
M  END
>  <minimizedAffinity>  (1) 
-6.13915491

>  <minimizedRMSD>  (1) 
0.698593497

$$$$
