
     RDKit          3D

 34 37  0  0  0  0  0  0  0  0999 V2000
   44.6530   35.6190   44.9690 C   0  0  0  0  0  0  0  0  0  0  0  0
   44.0760   35.4960   43.6900 C   0  0  0  0  0  0  0  0  0  0  0  0
   44.3530   34.3660   42.9250 C   0  0  0  0  0  0  0  0  0  0  0  0
   45.1760   33.4620   43.5010 N   0  0  0  0  0  0  0  0  0  0  0  0
   45.7220   33.5840   44.7160 C   0  0  0  0  0  0  0  0  0  0  0  0
   45.4380   34.6750   45.4220 N   0  0  0  0  0  0  0  0  0  0  0  0
   46.5080   32.4570   44.7870 C   0  0  0  0  0  0  0  0  0  0  0  0
   47.2620   31.4270   44.7560 N   0  0  0  0  0  0  0  0  0  0  0  0
   47.9460   30.4630   44.7960 C   0  0  0  0  0  0  0  0  0  0  0  0
   47.8050   30.1580   46.0730 N   0  0  0  0  0  0  0  0  0  0  0  0
   46.9860   30.9830   46.8280 C   0  0  0  0  0  0  0  0  0  0  0  0
   46.8790   30.5660   48.1690 C   0  0  0  0  0  0  0  0  0  0  0  0
   46.0730   31.2970   48.9630 C   0  0  0  0  0  0  0  0  0  0  0  0
   45.3900   32.3720   48.5270 C   0  0  0  0  0  0  0  0  0  0  0  0
   45.5890   32.6720   47.1930 C   0  0  0  0  0  0  0  0  0  0  0  0
   46.3690   32.0860   46.1690 C   0  0  0  0  0  0  0  0  0  0  0  0
   43.7830   34.2670   41.6500 N   0  0  0  0  0  0  0  0  0  0  0  0
   42.4670   34.2550   41.4450 C   0  0  0  0  0  0  0  0  0  0  0  0
   42.3190   34.1460   40.0600 C   0  0  0  0  0  0  0  0  0  0  0  0
   43.5690   34.0960   39.4680 N   0  0  0  0  0  0  0  0  0  0  0  0
   44.4580   34.1730   40.4710 C   0  0  0  0  0  0  0  0  0  0  0  0
   45.8750   34.1610   40.3570 N   0  0  0  0  0  0  0  0  0  0  0  0
   40.8040   34.0760   39.1140 S   0  0  0  0  0  0  0  0  0  0  0  0
   44.4444   36.5060   45.5853 H   0  0  0  0  0  0  0  0  0  0  0  0
   43.4143   36.2834   43.3000 H   0  0  0  0  0  0  0  0  0  0  0  0
   48.5272   29.9675   44.0043 H   0  0  0  0  0  0  0  0  0  0  0  0
   47.4249   29.6895   48.5480 H   0  0  0  0  0  0  0  0  0  0  0  0
   45.9679   31.0016   50.0174 H   0  0  0  0  0  0  0  0  0  0  0  0
   44.7287   32.9623   49.1783 H   0  0  0  0  0  0  0  0  0  0  0  0
   45.0212   33.5520   46.8565 H   0  0  0  0  0  0  0  0  0  0  0  0
   41.6705   34.3173   42.2011 H   0  0  0  0  0  0  0  0  0  0  0  0
   46.4602   34.2262   41.2021 H   0  0  0  0  0  0  0  0  0  0  0  0
   46.3164   34.0871   39.4293 H   0  0  0  0  0  0  0  0  0  0  0  0
   39.7341   34.0266   39.9682 H   0  0  0  0  0  0  0  0  0  0  0  0
  1  6  2  0
  2  1  1  0
  3  4  1  0
  3  2  2  0
  4  5  2  0
  5  7  1  0
  5  6  1  0
  7 16  1  0
  8  7  2  0
  8  9  1  0
  9 10  2  0
 10 11  1  0
 11 12  1  0
 12 13  2  0
 14 13  1  0
 15 14  2  0
 16 11  2  0
 16 15  1  0
 17  3  1  0
 18 17  1  0
 19 18  2  0
 20 19  1  0
 20 21  2  0
 21 17  1  0
 22 21  1  0
 23 19  1  0
  1 24  1  0
  2 25  1  0
  9 26  1  0
 12 27  1  0
 13 28  1  0
 14 29  1  0
 15 30  1  0
 18 31  1  0
 22 32  1  0
 22 33  1  0
 23 34  1  0
M  ISO  8  24  14  25  14  26  14  27  14  28  14  29  14  30  14  31  14
M  ISO  1  34  11
M  END
>  <minimizedAffinity>  (1) 
-5.86724043

>  <minimizedRMSD>  (1) 
0.0970753133

$$$$
