
     RDKit          3D

 35 39  0  0  0  0  0  0  0  0999 V2000
   44.4390   35.9160   44.5220 C   0  0  0  0  0  0  0  0  0  0  0  0
   45.2000   35.8400   43.3320 C   0  0  0  0  0  0  0  0  0  0  0  0
   46.2020   34.8860   43.2480 C   0  0  0  0  0  0  0  0  0  0  0  0
   46.4020   34.0790   44.3000 N   0  0  0  0  0  0  0  0  0  0  0  0
   45.6560   34.1660   45.4460 C   0  0  0  0  0  0  0  0  0  0  0  0
   44.6880   35.0710   45.5570 N   0  0  0  0  0  0  0  0  0  0  0  0
   45.9660   33.2400   46.5130 C   0  0  0  0  0  0  0  0  0  0  0  0
   45.0690   33.0340   47.5460 C   0  0  0  0  0  0  0  0  0  0  0  0
   45.5920   32.1140   48.4330 C   0  0  0  0  0  0  0  0  0  0  0  0
   46.8040   31.7800   47.9120 N   0  0  0  0  0  0  0  0  0  0  0  0
   47.0270   32.4430   46.7810 N   0  0  0  0  0  0  0  0  0  0  0  0
   49.0720   29.1170   48.7460 N   0  0  0  0  0  0  0  0  0  0  0  0
   47.9940   29.5790   48.1160 N   0  0  0  0  0  0  0  0  0  0  0  0
   47.8190   30.8770   48.3690 C   0  0  0  0  0  0  0  0  0  0  0  0
   48.8410   31.2910   49.2110 C   0  0  0  0  0  0  0  0  0  0  0  0
   49.6020   30.1570   49.4210 C   0  0  0  0  0  0  0  0  0  0  0  0
   46.9770   34.7850   42.0740 N   0  0  0  0  0  0  0  0  0  0  0  0
   48.2150   35.3020   41.9140 C   0  0  0  0  0  0  0  0  0  0  0  0
   48.7290   35.0620   40.6940 N   0  0  0  0  0  0  0  0  0  0  0  0
   47.7750   34.3510   40.0290 C   0  0  0  0  0  0  0  0  0  0  0  0
   47.7140   33.8230   38.7640 C   0  0  0  0  0  0  0  0  0  0  0  0
   46.6140   33.1460   38.3570 N   0  0  0  0  0  0  0  0  0  0  0  0
   45.5770   33.0030   39.2250 C   0  0  0  0  0  0  0  0  0  0  0  0
   45.6230   33.5190   40.4760 N   0  0  0  0  0  0  0  0  0  0  0  0
   46.7050   34.2000   40.9150 C   0  0  0  0  0  0  0  0  0  0  0  0
   43.6387   36.6655   44.6105 H   0  0  0  0  0  0  0  0  0  0  0  0
   45.0011   36.5224   42.4925 H   0  0  0  0  0  0  0  0  0  0  0  0
   44.0906   33.5268   47.6453 H   0  0  0  0  0  0  0  0  0  0  0  0
   45.1308   31.7348   49.3568 H   0  0  0  0  0  0  0  0  0  0  0  0
   49.4315   28.1521   48.7224 H   0  0  0  0  0  0  0  0  0  0  0  0
   49.0083   32.2982   49.6204 H   0  0  0  0  0  0  0  0  0  0  0  0
   50.5059   30.1097   50.0460 H   0  0  0  0  0  0  0  0  0  0  0  0
   48.7467   35.8603   42.6986 H   0  0  0  0  0  0  0  0  0  0  0  0
   48.5633   33.9503   38.0766 H   0  0  0  0  0  0  0  0  0  0  0  0
   44.6792   32.4550   38.9031 H   0  0  0  0  0  0  0  0  0  0  0  0
  1  6  2  0
  2  1  1  0
  3  2  2  0
  3  4  1  0
  4  5  2  0
  5  6  1  0
  5  7  1  0
  7 11  2  0
  7  8  1  0
  8  9  2  0
 10 14  1  0
 10  9  1  0
 11 10  1  0
 12 16  1  0
 13 14  2  0
 13 12  1  0
 14 15  1  0
 15 16  2  0
 17  3  1  0
 18 17  1  0
 19 18  2  0
 20 19  1  0
 20 25  2  0
 21 20  1  0
 22 21  2  0
 22 23  1  0
 23 24  2  0
 24 25  1  0
 25 17  1  0
  1 26  1  0
  2 27  1  0
  8 28  1  0
  9 29  1  0
 12 30  1  0
 15 31  1  0
 16 32  1  0
 18 33  1  0
 21 34  1  0
 23 35  1  0
M  ISO  8  26  14  27  14  28  14  29  14  30   9  31  14  32  14  33  14
M  ISO  2  34  14  35  14
M  END
>  <minimizedAffinity>  (1) 
-7.27163506

>  <minimizedRMSD>  (1) 
0.603063822

$$$$
