
     RDKit          3D

 34 37  0  0  0  0  0  0  0  0999 V2000
   44.3880   36.0200   44.7740 C   0  0  0  0  0  0  0  0  0  0  0  0
   45.0610   35.9510   43.5260 C   0  0  0  0  0  0  0  0  0  0  0  0
   45.9840   34.9520   43.3300 C   0  0  0  0  0  0  0  0  0  0  0  0
   46.2060   34.0850   44.3310 N   0  0  0  0  0  0  0  0  0  0  0  0
   45.5540   34.1610   45.5230 C   0  0  0  0  0  0  0  0  0  0  0  0
   44.6530   35.1110   45.7570 N   0  0  0  0  0  0  0  0  0  0  0  0
   45.8820   33.1620   46.5320 C   0  0  0  0  0  0  0  0  0  0  0  0
   45.0670   32.9840   47.6390 C   0  0  0  0  0  0  0  0  0  0  0  0
   45.5900   31.9890   48.4330 C   0  0  0  0  0  0  0  0  0  0  0  0
   46.7220   31.5820   47.7850 N   0  0  0  0  0  0  0  0  0  0  0  0
   46.9000   32.2700   46.6610 N   0  0  0  0  0  0  0  0  0  0  0  0
   48.8440   28.7410   48.3220 N   0  0  0  0  0  0  0  0  0  0  0  0
   47.7520   29.2860   47.7890 N   0  0  0  0  0  0  0  0  0  0  0  0
   47.6870   30.5850   48.1120 C   0  0  0  0  0  0  0  0  0  0  0  0
   48.8090   30.8970   48.9030 C   0  0  0  0  0  0  0  0  0  0  0  0
   49.5120   29.7130   49.0140 C   0  0  0  0  0  0  0  0  0  0  0  0
   46.7430   34.7660   42.1060 C   0  0  0  0  0  0  0  0  0  0  0  0
   46.2190   34.0010   41.1110 C   0  0  0  0  0  0  0  0  0  0  0  0
   46.8800   33.7700   39.9000 C   0  0  0  0  0  0  0  0  0  0  0  0
   48.1150   34.3230   39.6680 C   0  0  0  0  0  0  0  0  0  0  0  0
   48.6310   35.0960   40.6870 C   0  0  0  0  0  0  0  0  0  0  0  0
   47.9840   35.3260   41.8820 C   0  0  0  0  0  0  0  0  0  0  0  0
   43.6464   36.8131   44.9503 H   0  0  0  0  0  0  0  0  0  0  0  0
   44.8480   36.6821   42.7322 H   0  0  0  0  0  0  0  0  0  0  0  0
   44.1470   33.5491   47.8497 H   0  0  0  0  0  0  0  0  0  0  0  0
   45.1855   31.6055   49.3813 H   0  0  0  0  0  0  0  0  0  0  0  0
   49.1351   27.7574   48.2291 H   0  0  0  0  0  0  0  0  0  0  0  0
   49.0696   31.8729   49.3386 H   0  0  0  0  0  0  0  0  0  0  0  0
   50.4528   29.5751   49.5671 H   0  0  0  0  0  0  0  0  0  0  0  0
   45.2308   33.5433   41.2655 H   0  0  0  0  0  0  0  0  0  0  0  0
   46.4080   33.1422   39.1299 H   0  0  0  0  0  0  0  0  0  0  0  0
   48.6599   34.1595   38.7265 H   0  0  0  0  0  0  0  0  0  0  0  0
   49.6185   35.5568   40.5369 H   0  0  0  0  0  0  0  0  0  0  0  0
   48.4547   35.9530   42.6535 H   0  0  0  0  0  0  0  0  0  0  0  0
  1  6  2  0
  2  1  1  0
  3  2  2  0
  3  4  1  0
  4  5  2  0
  5  6  1  0
  5  7  1  0
  7 11  2  0
  7  8  1  0
  8  9  2  0
 10 14  1  0
 10  9  1  0
 11 10  1  0
 12 16  1  0
 13 14  2  0
 13 12  1  0
 14 15  1  0
 15 16  2  0
 17  3  1  0
 18 17  2  0
 19 18  1  0
 20 19  2  0
 20 21  1  0
 21 22  2  0
 22 17  1  0
  1 23  1  0
  2 24  1  0
  8 25  1  0
  9 26  1  0
 12 27  1  0
 15 28  1  0
 16 29  1  0
 18 30  1  0
 19 31  1  0
 20 32  1  0
 21 33  1  0
 22 34  1  0
M  ISO  8  23  14  24  14  25  14  26  14  27   9  28  14  29  14  30  14
M  ISO  4  31  14  32  14  33  14  34  14
M  END
>  <minimizedAffinity>  (1) 
-7.27002573

>  <minimizedRMSD>  (1) 
0.543823838

$$$$
