
     RDKit          3D

 40 43  0  0  0  0  0  0  0  0999 V2000
   46.1840   32.9410   46.7600 C   0  0  0  0  0  0  0  0  0  0  0  0
   45.2680   32.7530   47.7620 C   0  0  0  0  0  0  0  0  0  0  0  0
   45.7950   31.8990   48.7130 C   0  0  0  0  0  0  0  0  0  0  0  0
   47.0360   31.5910   48.2540 N   0  0  0  0  0  0  0  0  0  0  0  0
   47.2740   32.2000   47.1040 N   0  0  0  0  0  0  0  0  0  0  0  0
   49.3760   29.0770   49.3060 N   0  0  0  0  0  0  0  0  0  0  0  0
   48.3010   29.4520   48.6190 N   0  0  0  0  0  0  0  0  0  0  0  0
   48.0670   30.7560   48.7900 C   0  0  0  0  0  0  0  0  0  0  0  0
   49.0500   31.2480   49.6370 C   0  0  0  0  0  0  0  0  0  0  0  0
   49.8470   30.1710   49.9370 C   0  0  0  0  0  0  0  0  0  0  0  0
   44.6820   35.4980   44.6040 C   0  0  0  0  0  0  0  0  0  0  0  0
   45.4370   35.3510   43.4160 C   0  0  0  0  0  0  0  0  0  0  0  0
   46.4280   34.3910   43.3910 C   0  0  0  0  0  0  0  0  0  0  0  0
   46.6420   33.6320   44.4880 N   0  0  0  0  0  0  0  0  0  0  0  0
   45.8920   33.8000   45.6200 C   0  0  0  0  0  0  0  0  0  0  0  0
   44.9180   34.7160   45.7000 N   0  0  0  0  0  0  0  0  0  0  0  0
   47.2400   34.2070   42.1670 C   0  0  0  0  0  0  0  0  0  0  0  0
   48.0790   35.4550   42.0160 C   0  0  0  0  0  0  0  0  0  0  0  0
   48.9460   35.4170   40.7850 C   0  0  0  0  0  0  0  0  0  0  0  0
   48.2260   34.9280   39.5680 C   0  0  0  0  0  0  0  0  0  0  0  0
   47.3910   33.7000   39.7980 C   0  0  0  0  0  0  0  0  0  0  0  0
   46.4170   34.0100   40.9180 C   0  0  0  0  0  0  0  0  0  0  0  0
   44.2685   33.2106   47.8032 H   0  0  0  0  0  0  0  0  0  0  0  0
   45.3150   31.5465   49.6379 H   0  0  0  0  0  0  0  0  0  0  0  0
   49.7743   28.1280   49.3481 H   0  0  0  0  0  0  0  0  0  0  0  0
   49.1661   32.2823   49.9929 H   0  0  0  0  0  0  0  0  0  0  0  0
   50.7317   30.1969   50.5902 H   0  0  0  0  0  0  0  0  0  0  0  0
   43.8880   36.2581   44.6463 H   0  0  0  0  0  0  0  0  0  0  0  0
   45.2396   35.9836   42.5380 H   0  0  0  0  0  0  0  0  0  0  0  0
   47.8412   33.2928   42.2796 H   0  0  0  0  0  0  0  0  0  0  0  0
   47.4094   36.3252   41.9501 H   0  0  0  0  0  0  0  0  0  0  0  0
   48.7415   35.5224   42.8915 H   0  0  0  0  0  0  0  0  0  0  0  0
   49.3155   36.4340   40.5868 H   0  0  0  0  0  0  0  0  0  0  0  0
   49.7645   34.7098   40.9851 H   0  0  0  0  0  0  0  0  0  0  0  0
   48.9733   34.6971   38.7946 H   0  0  0  0  0  0  0  0  0  0  0  0
   47.5344   35.7286   39.2669 H   0  0  0  0  0  0  0  0  0  0  0  0
   46.8393   33.4446   38.8813 H   0  0  0  0  0  0  0  0  0  0  0  0
   48.0284   32.8446   40.0665 H   0  0  0  0  0  0  0  0  0  0  0  0
   45.8532   34.9259   40.6873 H   0  0  0  0  0  0  0  0  0  0  0  0
   45.6908   33.1940   41.0476 H   0  0  0  0  0  0  0  0  0  0  0  0
  1  5  2  0
  1  2  1  0
  2  3  2  0
  4  3  1  0
  4  8  1  0
  5  4  1  0
  6 10  1  0
  7  8  2  0
  7  6  1  0
  8  9  1  0
  9 10  2  0
 11 16  2  0
 12 11  1  0
 13 12  2  0
 13 14  1  0
 14 15  2  0
 15 16  1  0
 15  1  1  0
 17 13  1  0
 18 17  1  0
 19 18  1  0
 20 21  1  0
 20 19  1  0
 21 22  1  0
 22 17  1  0
  2 23  1  0
  3 24  1  0
  6 25  1  0
  9 26  1  0
 10 27  1  0
 11 28  1  0
 12 29  1  0
 17 30  1  0
 18 31  1  0
 18 32  1  0
 19 33  1  0
 19 34  1  0
 20 35  1  0
 20 36  1  0
 21 37  1  0
 21 38  1  0
 22 39  1  0
 22 40  1  0
M  ISO  8  23  14  24  14  25   9  26  14  27  14  28  14  29  14  30  13
M  ISO  8  31  13  32  13  33  13  34  13  35  13  36  13  37  13  38  13
M  ISO  2  39  13  40  13
M  END
>  <minimizedAffinity>  (1) 
-6.97598982

>  <minimizedRMSD>  (1) 
0.627984107

$$$$
