
     RDKit          3D

 31 34  0  0  0  0  0  0  0  0999 V2000
   45.9120   33.1780   46.5800 C   0  0  0  0  0  0  0  0  0  0  0  0
   45.0460   32.9470   47.6270 C   0  0  0  0  0  0  0  0  0  0  0  0
   45.5810   31.9920   48.4630 C   0  0  0  0  0  0  0  0  0  0  0  0
   46.7620   31.6640   47.9040 N   0  0  0  0  0  0  0  0  0  0  0  0
   46.9650   32.3610   46.7880 N   0  0  0  0  0  0  0  0  0  0  0  0
   49.0360   28.9530   48.5500 N   0  0  0  0  0  0  0  0  0  0  0  0
   47.9470   29.4370   47.9690 N   0  0  0  0  0  0  0  0  0  0  0  0
   47.7800   30.7390   48.2900 C   0  0  0  0  0  0  0  0  0  0  0  0
   48.8270   31.0990   49.1250 C   0  0  0  0  0  0  0  0  0  0  0  0
   49.5900   29.9530   49.2630 C   0  0  0  0  0  0  0  0  0  0  0  0
   44.3990   35.9740   44.7570 C   0  0  0  0  0  0  0  0  0  0  0  0
   45.0670   35.9090   43.5200 C   0  0  0  0  0  0  0  0  0  0  0  0
   46.0060   34.9160   43.3540 C   0  0  0  0  0  0  0  0  0  0  0  0
   46.2380   34.0690   44.3640 N   0  0  0  0  0  0  0  0  0  0  0  0
   45.5890   34.1450   45.5450 C   0  0  0  0  0  0  0  0  0  0  0  0
   44.6650   35.0980   45.7510 N   0  0  0  0  0  0  0  0  0  0  0  0
   46.7940   34.6990   42.1390 C   0  0  0  0  0  0  0  0  0  0  0  0
   47.9770   35.3310   41.8840 C   0  0  0  0  0  0  0  0  0  0  0  0
   48.6590   35.0780   40.7280 C   0  0  0  0  0  0  0  0  0  0  0  0
   47.9900   34.0910   39.8440 C   0  0  0  0  0  0  0  0  0  0  0  0
   46.4440   33.6580   40.8210 S   0  0  0  0  0  0  0  0  0  0  0  0
   44.0775   33.4478   47.7725 H   0  0  0  0  0  0  0  0  0  0  0  0
   45.1403   31.5859   49.3854 H   0  0  0  0  0  0  0  0  0  0  0  0
   49.3928   27.9900   48.4709 H   0  0  0  0  0  0  0  0  0  0  0  0
   49.0112   32.0835   49.5797 H   0  0  0  0  0  0  0  0  0  0  0  0
   50.5083   29.8709   49.8630 H   0  0  0  0  0  0  0  0  0  0  0  0
   43.6426   36.7562   44.9185 H   0  0  0  0  0  0  0  0  0  0  0  0
   44.8468   36.6256   42.7150 H   0  0  0  0  0  0  0  0  0  0  0  0
   48.3829   36.0476   42.6132 H   0  0  0  0  0  0  0  0  0  0  0  0
   49.6147   35.5606   40.4757 H   0  0  0  0  0  0  0  0  0  0  0  0
   48.3163   33.7097   38.8652 H   0  0  0  0  0  0  0  0  0  0  0  0
  1  5  2  0
  1  2  1  0
  2  3  2  0
  4  8  1  0
  4  3  1  0
  5  4  1  0
  6 10  1  0
  7  8  2  0
  7  6  1  0
  8  9  1  0
  9 10  2  0
 11 16  2  0
 12 11  1  0
 13 12  2  0
 13 14  1  0
 14 15  2  0
 15 16  1  0
 15  1  1  0
 17 13  1  0
 18 17  2  0
 19 18  1  0
 20 19  2  0
 20 21  1  0
 21 17  1  0
  2 22  1  0
  3 23  1  0
  6 24  1  0
  9 25  1  0
 10 26  1  0
 11 27  1  0
 12 28  1  0
 18 29  1  0
 19 30  1  0
 20 31  1  0
M  ISO  8  22  14  23  14  24   9  25  14  26  14  27  14  28  14  29  14
M  ISO  2  30  14  31  14
M  END
>  <minimizedAffinity>  (1) 
-6.7218852

>  <minimizedRMSD>  (1) 
0.412055671

$$$$
