
     RDKit          3D

 30 33  0  0  0  0  0  0  0  0999 V2000
   45.9590   33.1780   46.5880 C   0  0  0  0  0  0  0  0  0  0  0  0
   45.0630   32.9460   47.6190 C   0  0  0  0  0  0  0  0  0  0  0  0
   45.5910   32.0140   48.4890 C   0  0  0  0  0  0  0  0  0  0  0  0
   46.7930   31.6930   47.9760 N   0  0  0  0  0  0  0  0  0  0  0  0
   47.0190   32.3800   46.8480 N   0  0  0  0  0  0  0  0  0  0  0  0
   49.0940   29.0460   48.7350 N   0  0  0  0  0  0  0  0  0  0  0  0
   48.0130   29.4890   48.1180 N   0  0  0  0  0  0  0  0  0  0  0  0
   47.8120   30.7970   48.4030 C   0  0  0  0  0  0  0  0  0  0  0  0
   48.8380   31.1810   49.2510 C   0  0  0  0  0  0  0  0  0  0  0  0
   49.6210   30.0680   49.4390 C   0  0  0  0  0  0  0  0  0  0  0  0
   44.4300   35.8850   44.6590 C   0  0  0  0  0  0  0  0  0  0  0  0
   45.1630   35.8230   43.4550 C   0  0  0  0  0  0  0  0  0  0  0  0
   46.1600   34.8610   43.3350 C   0  0  0  0  0  0  0  0  0  0  0  0
   46.3680   34.0360   44.3870 N   0  0  0  0  0  0  0  0  0  0  0  0
   45.6510   34.1180   45.5290 C   0  0  0  0  0  0  0  0  0  0  0  0
   44.6910   35.0230   45.6800 N   0  0  0  0  0  0  0  0  0  0  0  0
   46.9700   34.7360   42.1020 C   0  0  0  0  0  0  0  0  0  0  0  0
   46.5540   33.8530   41.0540 C   0  0  0  0  0  0  0  0  0  0  0  0
   47.8590   34.0870   39.8370 S   0  0  0  0  0  0  0  0  0  0  0  0
   48.7690   35.3380   40.9220 C   0  0  0  0  0  0  0  0  0  0  0  0
   48.0860   35.4150   41.9110 N   0  0  0  0  0  0  0  0  0  0  0  0
   44.0814   33.4304   47.7274 H   0  0  0  0  0  0  0  0  0  0  0  0
   45.1286   31.6183   49.4053 H   0  0  0  0  0  0  0  0  0  0  0  0
   49.4686   28.0877   48.6867 H   0  0  0  0  0  0  0  0  0  0  0  0
   48.9946   32.1787   49.6871 H   0  0  0  0  0  0  0  0  0  0  0  0
   50.5272   30.0188   50.0605 H   0  0  0  0  0  0  0  0  0  0  0  0
   43.6377   36.6393   44.7742 H   0  0  0  0  0  0  0  0  0  0  0  0
   44.9508   36.5194   42.6304 H   0  0  0  0  0  0  0  0  0  0  0  0
   45.6686   33.2021   41.0056 H   0  0  0  0  0  0  0  0  0  0  0  0
   49.7051   35.8719   40.7016 H   0  0  0  0  0  0  0  0  0  0  0  0
  1  5  2  0
  1  2  1  0
  2  3  2  0
  4  8  1  0
  4  3  1  0
  5  4  1  0
  6 10  1  0
  7  8  2  0
  7  6  1  0
  8  9  1  0
  9 10  2  0
 11 16  2  0
 12 11  1  0
 13 12  2  0
 13 14  1  0
 14 15  2  0
 15 16  1  0
 15  1  1  0
 17 13  1  0
 18 17  2  0
 19 20  1  0
 19 18  1  0
 20 21  2  0
 21 17  1  0
  2 22  1  0
  3 23  1  0
  6 24  1  0
  9 25  1  0
 10 26  1  0
 11 27  1  0
 12 28  1  0
 18 29  1  0
 20 30  1  0
M  ISO  8  22  14  23  14  24   9  25  14  26  14  27  14  28  14  29  14
M  ISO  1  30  14
M  END
>  <minimizedAffinity>  (1) 
-6.52783728

>  <minimizedRMSD>  (1) 
0.319765151

$$$$
