
     RDKit          3D

 27 29  0  0  0  0  0  0  0  0999 V2000
   45.9850   33.2750   46.4290 C   0  0  0  0  0  0  0  0  0  0  0  0
   45.1010   33.1280   47.4590 C   0  0  0  0  0  0  0  0  0  0  0  0
   45.6060   32.2260   48.3740 C   0  0  0  0  0  0  0  0  0  0  0  0
   46.7950   31.8390   47.8750 N   0  0  0  0  0  0  0  0  0  0  0  0
   47.0310   32.4560   46.7170 N   0  0  0  0  0  0  0  0  0  0  0  0
   48.9990   29.1560   48.7840 N   0  0  0  0  0  0  0  0  0  0  0  0
   47.9360   29.6220   48.1470 N   0  0  0  0  0  0  0  0  0  0  0  0
   47.7830   30.9320   48.3520 C   0  0  0  0  0  0  0  0  0  0  0  0
   48.8270   31.3610   49.1900 C   0  0  0  0  0  0  0  0  0  0  0  0
   49.5600   30.2050   49.4290 C   0  0  0  0  0  0  0  0  0  0  0  0
   44.5170   35.8880   44.3310 C   0  0  0  0  0  0  0  0  0  0  0  0
   45.2920   35.8070   43.1600 C   0  0  0  0  0  0  0  0  0  0  0  0
   46.2960   34.8560   43.1270 C   0  0  0  0  0  0  0  0  0  0  0  0
   46.4830   34.0650   44.1980 N   0  0  0  0  0  0  0  0  0  0  0  0
   45.7210   34.1660   45.3110 C   0  0  0  0  0  0  0  0  0  0  0  0
   44.7380   35.0710   45.3870 N   0  0  0  0  0  0  0  0  0  0  0  0
   47.1760   34.6800   41.9420 C   0  0  0  0  0  0  0  0  0  0  0  0
   47.9940   35.7950   41.8330 F   0  0  0  0  0  0  0  0  0  0  0  0
   48.0130   33.5710   42.0770 F   0  0  0  0  0  0  0  0  0  0  0  0
   46.4430   34.6060   40.7870 F   0  0  0  0  0  0  0  0  0  0  0  0
   44.1356   33.6479   47.5463 H   0  0  0  0  0  0  0  0  0  0  0  0
   45.1365   31.8940   49.3117 H   0  0  0  0  0  0  0  0  0  0  0  0
   49.3345   28.1822   48.7879 H   0  0  0  0  0  0  0  0  0  0  0  0
   49.0190   32.3758   49.5685 H   0  0  0  0  0  0  0  0  0  0  0  0
   50.4649   30.1505   50.0520 H   0  0  0  0  0  0  0  0  0  0  0  0
   43.7110   36.6342   44.3899 H   0  0  0  0  0  0  0  0  0  0  0  0
   45.1071   36.4733   42.3046 H   0  0  0  0  0  0  0  0  0  0  0  0
  1  5  2  0
  1  2  1  0
  2  3  2  0
  4  8  1  0
  4  3  1  0
  5  4  1  0
  6 10  1  0
  7  8  2  0
  7  6  1  0
  8  9  1  0
  9 10  2  0
 11 16  2  0
 12 11  1  0
 13 12  2  0
 13 14  1  0
 14 15  2  0
 15 16  1  0
 15  1  1  0
 17 19  1  0
 17 13  1  0
 18 17  1  0
 20 17  1  0
  2 21  1  0
  3 22  1  0
  6 23  1  0
  9 24  1  0
 10 25  1  0
 11 26  1  0
 12 27  1  0
M  ISO  7  21  14  22  14  23   9  24  14  25  14  26  14  27  14
M  END
>  <minimizedAffinity>  (1) 
-6.37392521

>  <minimizedRMSD>  (1) 
0.459739983

$$$$
