
     RDKit          3D

 31 34  0  0  0  0  0  0  0  0999 V2000
   45.9560   33.1760   46.5830 C   0  0  0  0  0  0  0  0  0  0  0  0
   45.0580   32.9610   47.6150 C   0  0  0  0  0  0  0  0  0  0  0  0
   45.5800   32.0250   48.4870 C   0  0  0  0  0  0  0  0  0  0  0  0
   46.7910   31.6930   47.9610 N   0  0  0  0  0  0  0  0  0  0  0  0
   47.0170   32.3730   46.8340 N   0  0  0  0  0  0  0  0  0  0  0  0
   49.0710   29.0190   48.7130 N   0  0  0  0  0  0  0  0  0  0  0  0
   47.9920   29.4830   48.0910 N   0  0  0  0  0  0  0  0  0  0  0  0
   47.8010   30.7910   48.3890 C   0  0  0  0  0  0  0  0  0  0  0  0
   48.8160   31.1830   49.2480 C   0  0  0  0  0  0  0  0  0  0  0  0
   49.5920   30.0560   49.4320 C   0  0  0  0  0  0  0  0  0  0  0  0
   44.4370   35.9110   44.6650 C   0  0  0  0  0  0  0  0  0  0  0  0
   45.1230   35.8140   43.4400 C   0  0  0  0  0  0  0  0  0  0  0  0
   46.0840   34.8220   43.3110 C   0  0  0  0  0  0  0  0  0  0  0  0
   46.3170   33.9970   44.3570 N   0  0  0  0  0  0  0  0  0  0  0  0
   45.6350   34.1170   45.5300 C   0  0  0  0  0  0  0  0  0  0  0  0
   44.7030   35.0600   45.6950 N   0  0  0  0  0  0  0  0  0  0  0  0
   46.8310   34.6450   42.1100 N   0  0  0  0  0  0  0  0  0  0  0  0
   46.5110   34.1230   40.8920 C   0  0  0  0  0  0  0  0  0  0  0  0
   47.6670   34.2240   40.1150 C   0  0  0  0  0  0  0  0  0  0  0  0
   48.6460   34.7950   40.8660 N   0  0  0  0  0  0  0  0  0  0  0  0
   48.1270   35.0500   42.0870 C   0  0  0  0  0  0  0  0  0  0  0  0
   44.0824   33.4574   47.7235 H   0  0  0  0  0  0  0  0  0  0  0  0
   45.1181   31.6336   49.4054 H   0  0  0  0  0  0  0  0  0  0  0  0
   49.4432   28.0599   48.6623 H   0  0  0  0  0  0  0  0  0  0  0  0
   48.9702   32.1790   49.6888 H   0  0  0  0  0  0  0  0  0  0  0  0
   50.4924   30.0019   50.0616 H   0  0  0  0  0  0  0  0  0  0  0  0
   43.6706   36.6896   44.7934 H   0  0  0  0  0  0  0  0  0  0  0  0
   44.9040   36.5031   42.6110 H   0  0  0  0  0  0  0  0  0  0  0  0
   45.5403   33.7071   40.5841 H   0  0  0  0  0  0  0  0  0  0  0  0
   47.7685   33.8963   39.0699 H   0  0  0  0  0  0  0  0  0  0  0  0
   48.6671   35.5113   42.9270 H   0  0  0  0  0  0  0  0  0  0  0  0
  1  5  2  0
  1  2  1  0
  2  3  2  0
  4  8  1  0
  4  3  1  0
  5  4  1  0
  6 10  1  0
  7  8  2  0
  7  6  1  0
  8  9  1  0
  9 10  2  0
 11 16  2  0
 12 11  1  0
 13 12  2  0
 13 14  1  0
 14 15  2  0
 15 16  1  0
 15  1  1  0
 17 13  1  0
 18 17  1  0
 19 20  1  0
 19 18  2  0
 20 21  2  0
 21 17  1  0
  2 22  1  0
  3 23  1  0
  6 24  1  0
  9 25  1  0
 10 26  1  0
 11 27  1  0
 12 28  1  0
 18 29  1  0
 19 30  1  0
 21 31  1  0
M  ISO  8  22  14  23  14  24   9  25  14  26  14  27  14  28  14  29  14
M  ISO  2  30  14  31  14
M  END
>  <minimizedAffinity>  (1) 
-6.50312662

>  <minimizedRMSD>  (1) 
0.1876968

$$$$
