
     RDKit          3D

 26 28  0  0  0  0  0  0  0  0999 V2000
   45.9660   33.1690   46.5900 C   0  0  0  0  0  0  0  0  0  0  0  0
   45.0950   32.9740   47.6280 C   0  0  0  0  0  0  0  0  0  0  0  0
   45.6340   32.0620   48.5180 C   0  0  0  0  0  0  0  0  0  0  0  0
   46.8310   31.7220   47.9960 N   0  0  0  0  0  0  0  0  0  0  0  0
   47.0440   32.3680   46.8540 N   0  0  0  0  0  0  0  0  0  0  0  0
   49.1300   29.0910   48.8390 N   0  0  0  0  0  0  0  0  0  0  0  0
   48.0380   29.5330   48.2060 N   0  0  0  0  0  0  0  0  0  0  0  0
   47.8480   30.8320   48.4470 C   0  0  0  0  0  0  0  0  0  0  0  0
   48.8840   31.2660   49.2910 C   0  0  0  0  0  0  0  0  0  0  0  0
   49.6650   30.1490   49.5140 C   0  0  0  0  0  0  0  0  0  0  0  0
   44.4920   35.8530   44.5820 C   0  0  0  0  0  0  0  0  0  0  0  0
   45.2120   35.7210   43.3680 C   0  0  0  0  0  0  0  0  0  0  0  0
   46.1680   34.7370   43.2620 C   0  0  0  0  0  0  0  0  0  0  0  0
   46.3630   33.9460   44.3390 N   0  0  0  0  0  0  0  0  0  0  0  0
   45.6680   34.0840   45.4920 C   0  0  0  0  0  0  0  0  0  0  0  0
   44.7210   35.0280   45.6520 N   0  0  0  0  0  0  0  0  0  0  0  0
   46.9110   34.5620   42.0850 N   0  0  0  0  0  0  0  0  0  0  0  0
   44.1175   33.4664   47.7376 H   0  0  0  0  0  0  0  0  0  0  0  0
   45.1833   31.6931   49.4512 H   0  0  0  0  0  0  0  0  0  0  0  0
   49.4989   28.1295   48.8204 H   0  0  0  0  0  0  0  0  0  0  0  0
   49.0398   32.2795   49.6893 H   0  0  0  0  0  0  0  0  0  0  0  0
   50.5720   30.1175   50.1355 H   0  0  0  0  0  0  0  0  0  0  0  0
   43.7280   36.6398   44.6675 H   0  0  0  0  0  0  0  0  0  0  0  0
   45.0094   36.3954   42.5230 H   0  0  0  0  0  0  0  0  0  0  0  0
   47.6213   33.8181   42.0301 H   0  0  0  0  0  0  0  0  0  0  0  0
   46.7463   35.1774   41.2757 H   0  0  0  0  0  0  0  0  0  0  0  0
  1  5  2  0
  1  2  1  0
  2  3  2  0
  4  8  1  0
  4  3  1  0
  5  4  1  0
  6 10  1  0
  7  8  2  0
  7  6  1  0
  8  9  1  0
  9 10  2  0
 11 16  2  0
 12 11  1  0
 13 12  2  0
 13 14  1  0
 14 15  2  0
 15 16  1  0
 15  1  1  0
 17 13  1  0
  2 18  1  0
  3 19  1  0
  6 20  1  0
  9 21  1  0
 10 22  1  0
 11 23  1  0
 12 24  1  0
 17 25  1  0
 17 26  1  0
M  ISO  7  18  14  19  14  20   9  21  14  22  14  23  14  24  14
M  END
>  <minimizedAffinity>  (1) 
-5.66596174

>  <minimizedRMSD>  (1) 
0.0670437887

$$$$
