
     RDKit          3D

 44 48  0  0  0  0  0  0  0  0999 V2000
   44.4360   35.9280   44.6870 C   0  0  0  0  0  0  0  0  0  0  0  0
   44.8560   35.6320   43.3820 C   0  0  0  0  0  0  0  0  0  0  0  0
   45.6150   34.5020   43.1910 C   0  0  0  0  0  0  0  0  0  0  0  0
   45.9270   33.7240   44.2600 N   0  0  0  0  0  0  0  0  0  0  0  0
   45.4920   34.0590   45.5140 C   0  0  0  0  0  0  0  0  0  0  0  0
   44.7590   35.1400   45.7280 N   0  0  0  0  0  0  0  0  0  0  0  0
   45.8800   33.1590   46.5900 C   0  0  0  0  0  0  0  0  0  0  0  0
   45.0390   32.9690   47.6800 C   0  0  0  0  0  0  0  0  0  0  0  0
   45.6080   32.0870   48.5580 C   0  0  0  0  0  0  0  0  0  0  0  0
   46.7940   31.7470   47.9950 N   0  0  0  0  0  0  0  0  0  0  0  0
   46.9540   32.3800   46.8340 N   0  0  0  0  0  0  0  0  0  0  0  0
   49.1360   29.1370   48.7690 N   0  0  0  0  0  0  0  0  0  0  0  0
   48.0200   29.5590   48.1650 N   0  0  0  0  0  0  0  0  0  0  0  0
   47.8340   30.8740   48.4200 C   0  0  0  0  0  0  0  0  0  0  0  0
   48.8680   31.3030   49.2170 C   0  0  0  0  0  0  0  0  0  0  0  0
   49.6660   30.2000   49.4180 C   0  0  0  0  0  0  0  0  0  0  0  0
   46.1230   34.0790   41.8470 C   0  0  0  0  0  0  0  0  0  0  0  0
   47.4510   34.8000   41.6460 C   0  0  0  0  0  0  0  0  0  0  0  0
   48.2480   33.9260   40.7260 C   0  0  0  0  0  0  0  0  0  0  0  0
   48.1810   33.7930   39.3560 C   0  0  0  0  0  0  0  0  0  0  0  0
   49.0800   32.8960   38.9190 N   0  0  0  0  0  0  0  0  0  0  0  0
   49.7420   32.4340   40.0000 C   0  0  0  0  0  0  0  0  0  0  0  0
   50.7600   31.4940   40.0580 C   0  0  0  0  0  0  0  0  0  0  0  0
   51.2600   31.2060   41.2940 C   0  0  0  0  0  0  0  0  0  0  0  0
   50.8240   31.7800   42.4830 C   0  0  0  0  0  0  0  0  0  0  0  0
   49.8090   32.7060   42.3540 C   0  0  0  0  0  0  0  0  0  0  0  0
   49.2490   33.0550   41.1420 C   0  0  0  0  0  0  0  0  0  0  0  0
   43.8273   36.8270   44.8635 H   0  0  0  0  0  0  0  0  0  0  0  0
   44.5865   36.2837   42.5378 H   0  0  0  0  0  0  0  0  0  0  0  0
   44.0617   33.4551   47.8166 H   0  0  0  0  0  0  0  0  0  0  0  0
   45.1935   31.7312   49.5128 H   0  0  0  0  0  0  0  0  0  0  0  0
   49.5204   28.1817   48.7449 H   0  0  0  0  0  0  0  0  0  0  0  0
   49.0252   32.3174   49.6122 H   0  0  0  0  0  0  0  0  0  0  0  0
   50.5908   30.1846   50.0135 H   0  0  0  0  0  0  0  0  0  0  0  0
   46.2733   32.9896   41.8221 H   0  0  0  0  0  0  0  0  0  0  0  0
   45.4066   34.3307   41.0511 H   0  0  0  0  0  0  0  0  0  0  0  0
   47.2867   35.7878   41.1908 H   0  0  0  0  0  0  0  0  0  0  0  0
   47.9715   34.9685   42.6003 H   0  0  0  0  0  0  0  0  0  0  0  0
   47.4854   34.3465   38.7081 H   0  0  0  0  0  0  0  0  0  0  0  0
   49.2352   32.6134   37.9408 H   0  0  0  0  0  0  0  0  0  0  0  0
   51.1455   31.0045   39.1515 H   0  0  0  0  0  0  0  0  0  0  0  0
   52.0693   30.4635   41.3547 H   0  0  0  0  0  0  0  0  0  0  0  0
   51.2578   31.5145   43.4583 H   0  0  0  0  0  0  0  0  0  0  0  0
   49.4266   33.1910   43.2643 H   0  0  0  0  0  0  0  0  0  0  0  0
  1  6  2  0
  2  1  1  0
  3  2  2  0
  3  4  1  0
  4  5  2  0
  5  6  1  0
  5  7  1  0
  7 11  2  0
  7  8  1  0
  8  9  2  0
 10 14  1  0
 10  9  1  0
 11 10  1  0
 12 16  1  0
 13 14  2  0
 13 12  1  0
 14 15  1  0
 15 16  2  0
 17  3  1  0
 18 17  1  0
 19 27  1  0
 19 18  1  0
 20 19  2  0
 21 20  1  0
 21 22  1  0
 22 23  2  0
 22 27  1  0
 23 24  1  0
 24 25  2  0
 26 25  1  0
 27 26  2  0
  1 28  1  0
  2 29  1  0
  8 30  1  0
  9 31  1  0
 12 32  1  0
 15 33  1  0
 16 34  1  0
 17 35  1  0
 17 36  1  0
 18 37  1  0
 18 38  1  0
 20 39  1  0
 21 40  1  0
 23 41  1  0
 24 42  1  0
 25 43  1  0
 26 44  1  0
M  ISO  8  28  14  29  14  30  14  31  14  32   9  33  14  34  14  35   8
M  ISO  8  36   8  37   8  38   8  39  14  40   9  41  14  42  14  43  14
M  ISO  1  44  14
M  END
>  <minimizedAffinity>  (1) 
-6.86200142

>  <minimizedRMSD>  (1) 
1.23841667

$$$$
