
     RDKit          3D

 45 48  0  0  0  0  0  0  0  0999 V2000
   44.4400   35.9180   44.6980 C   0  0  0  0  0  0  0  0  0  0  0  0
   45.0240   35.7390   43.4390 C   0  0  0  0  0  0  0  0  0  0  0  0
   45.9140   34.6780   43.2750 C   0  0  0  0  0  0  0  0  0  0  0  0
   46.1640   33.8830   44.3430 N   0  0  0  0  0  0  0  0  0  0  0  0
   45.5690   34.1020   45.5500 C   0  0  0  0  0  0  0  0  0  0  0  0
   44.7190   35.0960   45.7460 N   0  0  0  0  0  0  0  0  0  0  0  0
   45.9150   33.1770   46.6170 C   0  0  0  0  0  0  0  0  0  0  0  0
   45.0480   32.9670   47.6640 C   0  0  0  0  0  0  0  0  0  0  0  0
   45.5880   32.0560   48.5470 C   0  0  0  0  0  0  0  0  0  0  0  0
   46.7950   31.7230   48.0100 N   0  0  0  0  0  0  0  0  0  0  0  0
   46.9900   32.3860   46.8670 N   0  0  0  0  0  0  0  0  0  0  0  0
   49.1000   29.1020   48.7870 N   0  0  0  0  0  0  0  0  0  0  0  0
   48.0020   29.5160   48.1690 N   0  0  0  0  0  0  0  0  0  0  0  0
   47.8140   30.8430   48.4410 C   0  0  0  0  0  0  0  0  0  0  0  0
   48.8450   31.2550   49.2640 C   0  0  0  0  0  0  0  0  0  0  0  0
   49.6390   30.1500   49.4690 C   0  0  0  0  0  0  0  0  0  0  0  0
   46.5690   34.4280   41.9680 C   0  0  0  0  0  0  0  0  0  0  0  0
   47.9700   34.9580   42.0660 C   0  0  0  0  0  0  0  0  0  0  0  0
   48.8080   33.8540   42.5390 N   0  0  0  0  0  0  0  0  0  0  0  0
   50.2190   34.1730   42.3570 C   0  0  0  0  0  0  0  0  0  0  0  0
   50.9880   32.8630   42.4810 C   0  0  0  0  0  0  0  0  0  0  0  0
   50.8270   32.1860   41.1050 C   0  0  0  0  0  0  0  0  0  0  0  0
   49.4190   32.4540   40.5980 C   0  0  0  0  0  0  0  0  0  0  0  0
   48.4820   32.6410   41.7860 C   0  0  0  0  0  0  0  0  0  0  0  0
   43.7339   36.7485   44.8450 H   0  0  0  0  0  0  0  0  0  0  0  0
   44.7881   36.4149   42.6038 H   0  0  0  0  0  0  0  0  0  0  0  0
   44.0685   33.4539   47.7798 H   0  0  0  0  0  0  0  0  0  0  0  0
   45.1422   31.6806   49.4799 H   0  0  0  0  0  0  0  0  0  0  0  0
   49.4818   28.1459   48.7562 H   0  0  0  0  0  0  0  0  0  0  0  0
   48.9999   32.2642   49.6732 H   0  0  0  0  0  0  0  0  0  0  0  0
   50.5533   30.1187   50.0798 H   0  0  0  0  0  0  0  0  0  0  0  0
   46.0239   34.9492   41.1673 H   0  0  0  0  0  0  0  0  0  0  0  0
   46.5732   33.3536   41.7321 H   0  0  0  0  0  0  0  0  0  0  0  0
   48.3155   35.2998   41.0792 H   0  0  0  0  0  0  0  0  0  0  0  0
   48.0206   35.8148   42.7540 H   0  0  0  0  0  0  0  0  0  0  0  0
   50.5499   34.8807   43.1314 H   0  0  0  0  0  0  0  0  0  0  0  0
   50.3938   34.6412   41.3771 H   0  0  0  0  0  0  0  0  0  0  0  0
   52.0493   33.0547   42.6977 H   0  0  0  0  0  0  0  0  0  0  0  0
   50.6120   32.2345   43.3018 H   0  0  0  0  0  0  0  0  0  0  0  0
   51.5611   32.6013   40.3989 H   0  0  0  0  0  0  0  0  0  0  0  0
   50.9954   31.1028   41.1956 H   0  0  0  0  0  0  0  0  0  0  0  0
   49.4176   33.3654   39.9821 H   0  0  0  0  0  0  0  0  0  0  0  0
   49.0781   31.6026   39.9906 H   0  0  0  0  0  0  0  0  0  0  0  0
   47.4481   32.7155   41.4179 H   0  0  0  0  0  0  0  0  0  0  0  0
   48.5968   31.7765   42.4564 H   0  0  0  0  0  0  0  0  0  0  0  0
  1  6  2  0
  2  1  1  0
  3  2  2  0
  3  4  1  0
  4  5  2  0
  5  6  1  0
  5  7  1  0
  7 11  2  0
  7  8  1  0
  8  9  2  0
 10 14  1  0
 10  9  1  0
 11 10  1  0
 12 16  1  0
 13 14  2  0
 13 12  1  0
 14 15  1  0
 15 16  2  0
 17 18  1  0
 17  3  1  0
 18 19  1  0
 20 21  1  0
 20 19  1  0
 22 21  1  0
 23 22  1  0
 23 24  1  0
 24 19  1  0
  1 25  1  0
  2 26  1  0
  8 27  1  0
  9 28  1  0
 12 29  1  0
 15 30  1  0
 16 31  1  0
 17 32  1  0
 17 33  1  0
 18 34  1  0
 18 35  1  0
 20 36  1  0
 20 37  1  0
 21 38  1  0
 21 39  1  0
 22 40  1  0
 22 41  1  0
 23 42  1  0
 23 43  1  0
 24 44  1  0
 24 45  1  0
M  ISO  8  25  14  26  14  27  14  28  14  29   9  30  14  31  14  32   8
M  ISO  8  33   8  34   8  35   8  36  13  37  13  38  13  39  13  40  13
M  ISO  5  41  13  42  13  43  13  44  13  45  13
M  END
>  <minimizedAffinity>  (1) 
-6.50689411

>  <minimizedRMSD>  (1) 
0.961919963

$$$$
