
     RDKit          3D

 47 51  0  0  1  0  0  0  0  0999 V2000
   44.4140   35.9460   44.7340 C   0  0  0  0  0  0  0  0  0  0  0  0
   45.0080   35.7720   43.4750 C   0  0  0  0  0  0  0  0  0  0  0  0
   45.8920   34.7260   43.2970 C   0  0  0  0  0  0  0  0  0  0  0  0
   46.1420   33.9220   44.3450 N   0  0  0  0  0  0  0  0  0  0  0  0
   45.5610   34.1030   45.5540 C   0  0  0  0  0  0  0  0  0  0  0  0
   44.7000   35.1060   45.7620 N   0  0  0  0  0  0  0  0  0  0  0  0
   45.9060   33.1680   46.6220 C   0  0  0  0  0  0  0  0  0  0  0  0
   45.0450   32.9490   47.6680 C   0  0  0  0  0  0  0  0  0  0  0  0
   45.5970   32.0350   48.5280 C   0  0  0  0  0  0  0  0  0  0  0  0
   46.7840   31.7110   47.9940 N   0  0  0  0  0  0  0  0  0  0  0  0
   46.9840   32.3760   46.8590 N   0  0  0  0  0  0  0  0  0  0  0  0
   49.1300   29.1080   48.7460 N   0  0  0  0  0  0  0  0  0  0  0  0
   48.0200   29.5160   48.1210 N   0  0  0  0  0  0  0  0  0  0  0  0
   47.8160   30.8250   48.4100 C   0  0  0  0  0  0  0  0  0  0  0  0
   48.8450   31.2180   49.2410 C   0  0  0  0  0  0  0  0  0  0  0  0
   49.6490   30.1350   49.4360 C   0  0  0  0  0  0  0  0  0  0  0  0
   46.5530   34.4860   41.9940 C   0  0  0  0  0  0  0  0  0  0  0  0
   47.7950   35.3480   41.9480 C   0  0  0  0  0  0  0  0  0  0  0  0
   49.0250   34.6610   41.4760 C   0  0  1  0  0  0  0  0  0  0  0  0
   50.1010   34.4160   42.5070 C   0  0  0  0  0  0  0  0  0  0  0  0
   49.3550   33.2700   41.8670 C   0  0  2  0  0  0  0  0  0  0  0  0
   50.1660   32.3980   41.0150 C   0  0  0  0  0  0  0  0  0  0  0  0
   51.4680   32.0550   41.3140 C   0  0  0  0  0  0  0  0  0  0  0  0
   52.3210   31.2470   40.5910 C   0  0  0  0  0  0  0  0  0  0  0  0
   51.7880   30.7230   39.4240 C   0  0  0  0  0  0  0  0  0  0  0  0
   50.4790   31.0070   39.0280 C   0  0  0  0  0  0  0  0  0  0  0  0
   49.6890   31.8380   39.8280 C   0  0  0  0  0  0  0  0  0  0  0  0
   43.7070   36.7740   44.8906 H   0  0  0  0  0  0  0  0  0  0  0  0
   44.7741   36.4556   42.6455 H   0  0  0  0  0  0  0  0  0  0  0  0
   44.0649   33.4315   47.7964 H   0  0  0  0  0  0  0  0  0  0  0  0
   45.1586   31.6486   49.4600 H   0  0  0  0  0  0  0  0  0  0  0  0
   49.5236   28.1571   48.7042 H   0  0  0  0  0  0  0  0  0  0  0  0
   48.9898   32.2214   49.6678 H   0  0  0  0  0  0  0  0  0  0  0  0
   50.5613   30.1077   50.0500 H   0  0  0  0  0  0  0  0  0  0  0  0
   46.8287   33.4250   41.9026 H   0  0  0  0  0  0  0  0  0  0  0  0
   45.8761   34.7377   41.1643 H   0  0  0  0  0  0  0  0  0  0  0  0
   47.5974   36.1938   41.2730 H   0  0  0  0  0  0  0  0  0  0  0  0
   47.9944   35.6516   42.9863 H   0  0  0  0  0  0  0  0  0  0  0  0
   48.9419   35.1554   40.4969 H   0  0  0  0  0  0  0  0  0  0  0  0
   51.1572   34.5964   42.2581 H   0  0  0  0  0  0  0  0  0  0  0  0
   50.2915   34.7506   43.5374 H   0  0  0  0  0  0  0  0  0  0  0  0
   48.7245   32.4282   42.1892 H   0  0  0  0  0  0  0  0  0  0  0  0
   51.8767   32.4779   42.2436 H   0  0  0  0  0  0  0  0  0  0  0  0
   53.3497   31.0341   40.9172 H   0  0  0  0  0  0  0  0  0  0  0  0
   52.4098   30.0687   38.7954 H   0  0  0  0  0  0  0  0  0  0  0  0
   50.0744   30.5818   38.0976 H   0  0  0  0  0  0  0  0  0  0  0  0
   48.6585   32.0578   39.5122 H   0  0  0  0  0  0  0  0  0  0  0  0
  1  6  2  0
  2  1  1  0
  3  2  2  0
  3  4  1  0
  4  5  2  0
  5  6  1  0
  5  7  1  0
  7 11  2  0
  7  8  1  0
  8  9  2  0
 10 14  1  0
 10  9  1  0
 11 10  1  0
 12 16  1  0
 13 14  2  0
 13 12  1  0
 14 15  1  0
 15 16  2  0
 17  3  1  0
 18 17  1  0
 19 21  1  0
 19 18  1  0
 19 20  1  0
 21 20  1  0
 22 23  2  0
 22 21  1  0
 24 23  1  0
 25 24  2  0
 26 25  1  0
 26 27  2  0
 27 22  1  0
  1 28  1  0
  2 29  1  0
  8 30  1  0
  9 31  1  0
 12 32  1  0
 15 33  1  0
 16 34  1  0
 17 35  1  0
 17 36  1  0
 18 37  1  0
 18 38  1  0
 19 39  1  6
 20 40  1  0
 20 41  1  0
 21 42  1  1
 23 43  1  0
 24 44  1  0
 25 45  1  0
 26 46  1  0
 27 47  1  0
M  ISO  8  28  14  29  14  30  14  31  14  32   9  33  14  34  14  35   8
M  ISO  8  36   8  37   8  38   8  39  13  40  13  41  13  42  13  43  14
M  ISO  4  44  14  45  14  46  14  47  14
M  END
>  <minimizedAffinity>  (1) 
-6.99556589

>  <minimizedRMSD>  (1) 
0.633801639

$$$$
