
     RDKit          3D

 50 54  0  0  1  0  0  0  0  0999 V2000
   44.4230   35.9060   44.7440 C   0  0  0  0  0  0  0  0  0  0  0  0
   45.0080   35.7170   43.4790 C   0  0  0  0  0  0  0  0  0  0  0  0
   45.8920   34.6640   43.3120 C   0  0  0  0  0  0  0  0  0  0  0  0
   46.1550   33.8660   44.3660 N   0  0  0  0  0  0  0  0  0  0  0  0
   45.5710   34.0780   45.5750 C   0  0  0  0  0  0  0  0  0  0  0  0
   44.7150   35.0790   45.7770 N   0  0  0  0  0  0  0  0  0  0  0  0
   45.9320   33.1440   46.6500 C   0  0  0  0  0  0  0  0  0  0  0  0
   45.0640   32.9270   47.6920 C   0  0  0  0  0  0  0  0  0  0  0  0
   45.6120   32.0250   48.5650 C   0  0  0  0  0  0  0  0  0  0  0  0
   46.8160   31.7120   48.0290 N   0  0  0  0  0  0  0  0  0  0  0  0
   47.0140   32.3690   46.8960 N   0  0  0  0  0  0  0  0  0  0  0  0
   49.1540   29.1000   48.8040 N   0  0  0  0  0  0  0  0  0  0  0  0
   48.0540   29.5150   48.1920 N   0  0  0  0  0  0  0  0  0  0  0  0
   47.8500   30.8380   48.4580 C   0  0  0  0  0  0  0  0  0  0  0  0
   48.8790   31.2390   49.2720 C   0  0  0  0  0  0  0  0  0  0  0  0
   49.6730   30.1350   49.4690 C   0  0  0  0  0  0  0  0  0  0  0  0
   46.5430   34.4070   42.0110 C   0  0  0  0  0  0  0  0  0  0  0  0
   47.7440   35.3330   41.9020 C   0  0  0  0  0  0  0  0  0  0  0  0
   48.9960   34.6780   41.4390 C   0  0  1  0  0  0  0  0  0  0  0  0
   50.0510   34.4440   42.5140 C   0  0  0  0  0  0  0  0  0  0  0  0
   49.3510   33.3010   41.7810 C   0  0  2  0  0  0  0  0  0  0  0  0
   51.7050   30.7970   39.1880 C   0  0  0  0  0  0  0  0  0  0  0  0
   52.2040   31.2130   40.4100 C   0  0  0  0  0  0  0  0  0  0  0  0
   51.4560   32.0130   41.2410 C   0  0  0  0  0  0  0  0  0  0  0  0
   50.1830   32.4440   40.9180 C   0  0  0  0  0  0  0  0  0  0  0  0
   49.7240   32.0040   39.6860 C   0  0  0  0  0  0  0  0  0  0  0  0
   50.4230   31.2010   38.8050 C   0  0  0  0  0  0  0  0  0  0  0  0
   52.5290   29.7830   38.0240 S   0  0  0  0  0  0  0  0  0  0  0  0
   53.8910   29.3960   38.5040 O   0  0  0  0  0  0  0  0  0  0  0  0
   52.5990   30.5310   36.7120 O   0  0  0  0  0  0  0  0  0  0  0  0
   43.7185   36.7368   44.8970 H   0  0  0  0  0  0  0  0  0  0  0  0
   44.7691   36.3896   42.6421 H   0  0  0  0  0  0  0  0  0  0  0  0
   44.0797   33.4043   47.8077 H   0  0  0  0  0  0  0  0  0  0  0  0
   45.1714   31.6396   49.4963 H   0  0  0  0  0  0  0  0  0  0  0  0
   49.5408   28.1459   48.7722 H   0  0  0  0  0  0  0  0  0  0  0  0
   49.0372   32.2460   49.6855 H   0  0  0  0  0  0  0  0  0  0  0  0
   50.5893   30.1082   50.0771 H   0  0  0  0  0  0  0  0  0  0  0  0
   46.8725   33.3588   41.9579 H   0  0  0  0  0  0  0  0  0  0  0  0
   45.8393   34.5913   41.1859 H   0  0  0  0  0  0  0  0  0  0  0  0
   47.4945   36.1350   41.1917 H   0  0  0  0  0  0  0  0  0  0  0  0
   47.9447   35.7011   42.9190 H   0  0  0  0  0  0  0  0  0  0  0  0
   48.9238   35.1870   40.4665 H   0  0  0  0  0  0  0  0  0  0  0  0
   51.1092   34.6687   42.3148 H   0  0  0  0  0  0  0  0  0  0  0  0
   50.1955   34.7436   43.5625 H   0  0  0  0  0  0  0  0  0  0  0  0
   48.7368   32.4285   42.0484 H   0  0  0  0  0  0  0  0  0  0  0  0
   53.2117   30.8996   40.7203 H   0  0  0  0  0  0  0  0  0  0  0  0
   51.8888   32.3232   42.2035 H   0  0  0  0  0  0  0  0  0  0  0  0
   48.7153   32.3218   39.3834 H   0  0  0  0  0  0  0  0  0  0  0  0
   49.9886   30.8927   37.8426 H   0  0  0  0  0  0  0  0  0  0  0  0
   51.8325   28.6155   37.8544 H   0  0  0  0  0  0  0  0  0  0  0  0
  1  6  2  0
  2  1  1  0
  3  2  2  0
  3  4  1  0
  4  5  2  0
  5  6  1  0
  5  7  1  0
  7 11  2  0
  7  8  1  0
  8  9  2  0
 10 14  1  0
 10  9  1  0
 11 10  1  0
 12 16  1  0
 13 14  2  0
 13 12  1  0
 14 15  1  0
 15 16  2  0
 17  3  1  0
 18 17  1  0
 19 21  1  0
 19 18  1  0
 19 20  1  0
 21 20  1  0
 22 23  2  0
 23 24  1  0
 25 24  2  0
 25 21  1  0
 26 25  1  0
 27 22  1  0
 27 26  2  0
 28 29  2  0
 28 22  1  0
 30 28  2  0
  1 31  1  0
  2 32  1  0
  8 33  1  0
  9 34  1  0
 12 35  1  0
 15 36  1  0
 16 37  1  0
 17 38  1  0
 17 39  1  0
 18 40  1  0
 18 41  1  0
 19 42  1  6
 20 43  1  0
 20 44  1  0
 21 45  1  1
 23 46  1  0
 24 47  1  0
 26 48  1  0
 27 49  1  0
 28 50  1  0
M  ISO  8  31  14  32  14  33  14  34  14  35   9  36  14  37  14  38   8
M  ISO  8  39   8  40   8  41   8  42  13  43  13  44  13  45  13  46  14
M  ISO  4  47  14  48  14  49  14  50  11
M  END
>  <minimizedAffinity>  (1) 
-6.91432238

>  <minimizedRMSD>  (1) 
1.02736902

$$$$
