
     RDKit          3D

 50 54  0  0  1  0  0  0  0  0999 V2000
   44.4480   35.8430   44.7050 C   0  0  0  0  0  0  0  0  0  0  0  0
   45.0420   35.6390   43.4460 C   0  0  0  0  0  0  0  0  0  0  0  0
   45.9330   34.5880   43.2970 C   0  0  0  0  0  0  0  0  0  0  0  0
   46.1940   33.8120   44.3580 N   0  0  0  0  0  0  0  0  0  0  0  0
   45.6090   34.0320   45.5630 C   0  0  0  0  0  0  0  0  0  0  0  0
   44.7420   35.0340   45.7490 N   0  0  0  0  0  0  0  0  0  0  0  0
   45.9620   33.1270   46.6570 C   0  0  0  0  0  0  0  0  0  0  0  0
   45.0900   32.9180   47.6980 C   0  0  0  0  0  0  0  0  0  0  0  0
   45.6510   32.0330   48.5900 C   0  0  0  0  0  0  0  0  0  0  0  0
   46.8580   31.7220   48.0710 N   0  0  0  0  0  0  0  0  0  0  0  0
   47.0520   32.3670   46.9200 N   0  0  0  0  0  0  0  0  0  0  0  0
   49.2060   29.1340   48.8910 N   0  0  0  0  0  0  0  0  0  0  0  0
   48.1010   29.5480   48.2850 N   0  0  0  0  0  0  0  0  0  0  0  0
   47.9010   30.8680   48.5170 C   0  0  0  0  0  0  0  0  0  0  0  0
   48.9320   31.2950   49.3030 C   0  0  0  0  0  0  0  0  0  0  0  0
   49.7290   30.1980   49.5210 C   0  0  0  0  0  0  0  0  0  0  0  0
   46.5950   34.3150   41.9960 C   0  0  0  0  0  0  0  0  0  0  0  0
   47.6830   35.3390   41.8080 C   0  0  0  0  0  0  0  0  0  0  0  0
   49.0280   34.7740   41.4920 C   0  0  1  0  0  0  0  0  0  0  0  0
   50.0340   34.8040   42.6420 C   0  0  0  0  0  0  0  0  0  0  0  0
   49.5160   33.5080   42.0450 C   0  0  2  0  0  0  0  0  0  0  0  0
   50.3600   32.6990   41.2330 N   0  0  0  0  0  0  0  0  0  0  0  0
   51.0430   31.6520   41.9570 C   0  0  0  0  0  0  0  0  0  0  0  0
   51.9870   30.9880   40.9720 C   0  0  0  0  0  0  0  0  0  0  0  0
   51.6630   31.3070   39.6450 O   0  0  0  0  0  0  0  0  0  0  0  0
   50.2970   31.0210   39.4610 C   0  0  0  0  0  0  0  0  0  0  0  0
   49.5330   32.1320   40.1600 C   0  0  0  0  0  0  0  0  0  0  0  0
   43.7360   36.6702   44.8423 H   0  0  0  0  0  0  0  0  0  0  0  0
   44.8045   36.2991   42.5987 H   0  0  0  0  0  0  0  0  0  0  0  0
   44.0993   33.3847   47.8020 H   0  0  0  0  0  0  0  0  0  0  0  0
   45.2103   31.6589   49.5258 H   0  0  0  0  0  0  0  0  0  0  0  0
   49.5897   28.1782   48.8803 H   0  0  0  0  0  0  0  0  0  0  0  0
   49.0924   32.3139   49.6853 H   0  0  0  0  0  0  0  0  0  0  0  0
   50.6523   30.1920   50.1188 H   0  0  0  0  0  0  0  0  0  0  0  0
   47.0295   33.3045   42.0023 H   0  0  0  0  0  0  0  0  0  0  0  0
   45.8659   34.3745   41.1745 H   0  0  0  0  0  0  0  0  0  0  0  0
   47.3885   36.0032   40.9821 H   0  0  0  0  0  0  0  0  0  0  0  0
   47.7855   35.8615   42.7706 H   0  0  0  0  0  0  0  0  0  0  0  0
   48.9582   35.1341   40.4550 H   0  0  0  0  0  0  0  0  0  0  0  0
   51.0720   35.1226   42.4656 H   0  0  0  0  0  0  0  0  0  0  0  0
   50.0770   35.2525   43.6455 H   0  0  0  0  0  0  0  0  0  0  0  0
   49.0473   32.6117   42.4774 H   0  0  0  0  0  0  0  0  0  0  0  0
   51.6102   32.0793   42.7971 H   0  0  0  0  0  0  0  0  0  0  0  0
   50.3285   30.9261   42.3724 H   0  0  0  0  0  0  0  0  0  0  0  0
   53.0132   31.3257   41.1791 H   0  0  0  0  0  0  0  0  0  0  0  0
   51.8976   29.8984   41.0937 H   0  0  0  0  0  0  0  0  0  0  0  0
   50.0517   31.0058   38.3888 H   0  0  0  0  0  0  0  0  0  0  0  0
   50.0353   30.0348   39.8720 H   0  0  0  0  0  0  0  0  0  0  0  0
   49.2858   32.9198   39.4332 H   0  0  0  0  0  0  0  0  0  0  0  0
   48.6064   31.7238   40.5899 H   0  0  0  0  0  0  0  0  0  0  0  0
  1  6  2  0
  2  1  1  0
  3  2  2  0
  3  4  1  0
  4  5  2  0
  5  6  1  0
  5  7  1  0
  7 11  2  0
  7  8  1  0
  8  9  2  0
 10 14  1  0
 10  9  1  0
 11 10  1  0
 12 16  1  0
 13 14  2  0
 13 12  1  0
 14 15  1  0
 15 16  2  0
 17  3  1  0
 18 17  1  0
 19 18  1  0
 19 21  1  0
 19 20  1  0
 21 20  1  0
 22 23  1  0
 22 21  1  0
 24 23  1  0
 25 24  1  0
 26 25  1  0
 26 27  1  0
 27 22  1  0
  1 28  1  0
  2 29  1  0
  8 30  1  0
  9 31  1  0
 12 32  1  0
 15 33  1  0
 16 34  1  0
 17 35  1  0
 17 36  1  0
 18 37  1  0
 18 38  1  0
 19 39  1  6
 20 40  1  0
 20 41  1  0
 21 42  1  1
 23 43  1  0
 23 44  1  0
 24 45  1  0
 24 46  1  0
 26 47  1  0
 26 48  1  0
 27 49  1  0
 27 50  1  0
M  ISO  8  28  14  29  14  30  14  31  14  32   9  33  14  34  14  35   8
M  ISO  8  36   8  37   8  38   8  39  13  40  13  41  13  42  13  43  13
M  ISO  7  44  13  45  13  46  13  47  13  48  13  49  13  50  13
M  END
>  <minimizedAffinity>  (1) 
-6.86885881

>  <minimizedRMSD>  (1) 
0.715393662

$$$$
