
     RDKit          3D

 42 46  0  0  1  0  0  0  0  0999 V2000
   44.4430   35.8970   44.7190 C   0  0  0  0  0  0  0  0  0  0  0  0
   45.0130   35.7020   43.4520 C   0  0  0  0  0  0  0  0  0  0  0  0
   45.8900   34.6430   43.2820 C   0  0  0  0  0  0  0  0  0  0  0  0
   46.1540   33.8500   44.3410 N   0  0  0  0  0  0  0  0  0  0  0  0
   45.5840   34.0670   45.5570 C   0  0  0  0  0  0  0  0  0  0  0  0
   44.7440   35.0690   45.7500 N   0  0  0  0  0  0  0  0  0  0  0  0
   45.9460   33.1430   46.6320 C   0  0  0  0  0  0  0  0  0  0  0  0
   45.0700   32.9420   47.6770 C   0  0  0  0  0  0  0  0  0  0  0  0
   45.6230   32.0350   48.5610 C   0  0  0  0  0  0  0  0  0  0  0  0
   46.8210   31.7160   48.0200 N   0  0  0  0  0  0  0  0  0  0  0  0
   47.0120   32.3680   46.8830 N   0  0  0  0  0  0  0  0  0  0  0  0
   49.1440   29.0890   48.7870 N   0  0  0  0  0  0  0  0  0  0  0  0
   48.0380   29.5050   48.1630 N   0  0  0  0  0  0  0  0  0  0  0  0
   47.8610   30.8340   48.4550 C   0  0  0  0  0  0  0  0  0  0  0  0
   48.8790   31.2360   49.2710 C   0  0  0  0  0  0  0  0  0  0  0  0
   49.6690   30.1330   49.4670 C   0  0  0  0  0  0  0  0  0  0  0  0
   46.5300   34.3750   41.9720 C   0  0  0  0  0  0  0  0  0  0  0  0
   47.6930   35.3430   41.8500 C   0  0  0  0  0  0  0  0  0  0  0  0
   48.9840   34.6900   41.4880 C   0  0  1  0  0  0  0  0  0  0  0  0
   50.0470   34.6550   42.5620 C   0  0  0  0  0  0  0  0  0  0  0  0
   49.4080   33.3870   42.0290 C   0  0  2  0  0  0  0  0  0  0  0  0
   50.3020   32.5370   41.2010 C   0  0  0  0  0  0  0  0  0  0  0  0
   51.5480   32.0880   41.3520 N   0  0  0  0  0  0  0  0  0  0  0  0
   51.8640   31.3680   40.3170 O   0  0  0  0  0  0  0  0  0  0  0  0
   50.8830   31.3070   39.4600 C   0  0  0  0  0  0  0  0  0  0  0  0
   49.9010   32.0340   40.0030 N   0  0  0  0  0  0  0  0  0  0  0  0
   43.7438   36.7312   44.8780 H   0  0  0  0  0  0  0  0  0  0  0  0
   44.7698   36.3728   42.6148 H   0  0  0  0  0  0  0  0  0  0  0  0
   44.0885   33.4258   47.7893 H   0  0  0  0  0  0  0  0  0  0  0  0
   45.1860   31.6565   49.4968 H   0  0  0  0  0  0  0  0  0  0  0  0
   49.5309   28.1349   48.7553 H   0  0  0  0  0  0  0  0  0  0  0  0
   49.0341   32.2423   49.6873 H   0  0  0  0  0  0  0  0  0  0  0  0
   50.5826   30.1023   50.0788 H   0  0  0  0  0  0  0  0  0  0  0  0
   46.8941   33.3377   41.9328 H   0  0  0  0  0  0  0  0  0  0  0  0
   45.8149   34.5088   41.1469 H   0  0  0  0  0  0  0  0  0  0  0  0
   47.4486   36.0826   41.0733 H   0  0  0  0  0  0  0  0  0  0  0  0
   47.8327   35.8024   42.8397 H   0  0  0  0  0  0  0  0  0  0  0  0
   48.8860   35.0572   40.4558 H   0  0  0  0  0  0  0  0  0  0  0  0
   51.0920   34.8953   42.3165 H   0  0  0  0  0  0  0  0  0  0  0  0
   50.1816   35.1133   43.5529 H   0  0  0  0  0  0  0  0  0  0  0  0
   48.8612   32.5330   42.4552 H   0  0  0  0  0  0  0  0  0  0  0  0
   50.8669   30.7730   38.4984 H   0  0  0  0  0  0  0  0  0  0  0  0
  1  6  2  0
  2  1  1  0
  3  2  2  0
  3  4  1  0
  4  5  2  0
  5  6  1  0
  5  7  1  0
  7 11  2  0
  7  8  1  0
  8  9  2  0
 10 14  1  0
 10  9  1  0
 11 10  1  0
 12 16  1  0
 13 14  2  0
 13 12  1  0
 14 15  1  0
 15 16  2  0
 17  3  1  0
 18 17  1  0
 19 18  1  0
 19 21  1  0
 19 20  1  0
 21 20  1  0
 22 23  2  0
 22 21  1  0
 24 23  1  0
 25 26  2  0
 25 24  1  0
 26 22  1  0
  1 27  1  0
  2 28  1  0
  8 29  1  0
  9 30  1  0
 12 31  1  0
 15 32  1  0
 16 33  1  0
 17 34  1  0
 17 35  1  0
 18 36  1  0
 18 37  1  0
 19 38  1  6
 20 39  1  0
 20 40  1  0
 21 41  1  1
 25 42  1  0
M  ISO  8  27  14  28  14  29  14  30  14  31   9  32  14  33  14  34   8
M  ISO  8  35   8  36   8  37   8  38  13  39  13  40  13  41  13  42  14
M  END
>  <minimizedAffinity>  (1) 
-6.86179113

>  <minimizedRMSD>  (1) 
0.401372045

$$$$
