
     RDKit          3D

 40 43  0  0  1  0  0  0  0  0999 V2000
   44.4650   35.8340   44.6430 C   0  0  0  0  0  0  0  0  0  0  0  0
   44.9670   35.5400   43.3590 C   0  0  0  0  0  0  0  0  0  0  0  0
   45.7850   34.4370   43.2100 C   0  0  0  0  0  0  0  0  0  0  0  0
   46.0640   33.6950   44.2960 N   0  0  0  0  0  0  0  0  0  0  0  0
   45.5670   33.9980   45.5250 C   0  0  0  0  0  0  0  0  0  0  0  0
   44.7750   35.0550   45.7080 N   0  0  0  0  0  0  0  0  0  0  0  0
   45.9390   33.1200   46.6290 C   0  0  0  0  0  0  0  0  0  0  0  0
   45.0910   32.9500   47.6960 C   0  0  0  0  0  0  0  0  0  0  0  0
   45.6730   32.0760   48.5950 C   0  0  0  0  0  0  0  0  0  0  0  0
   46.8490   31.7430   48.0560 N   0  0  0  0  0  0  0  0  0  0  0  0
   47.0260   32.3510   46.8900 N   0  0  0  0  0  0  0  0  0  0  0  0
   49.2120   29.1820   48.9080 N   0  0  0  0  0  0  0  0  0  0  0  0
   48.0890   29.5550   48.2970 N   0  0  0  0  0  0  0  0  0  0  0  0
   47.8970   30.8850   48.5010 C   0  0  0  0  0  0  0  0  0  0  0  0
   48.9510   31.3350   49.2710 C   0  0  0  0  0  0  0  0  0  0  0  0
   49.7480   30.2510   49.5050 C   0  0  0  0  0  0  0  0  0  0  0  0
   46.3380   34.0840   41.8870 C   0  0  0  0  0  0  0  0  0  0  0  0
   47.3610   35.1380   41.5320 C   0  0  0  0  0  0  0  0  0  0  0  0
   48.7650   34.6540   41.4730 C   0  0  1  0  0  0  0  0  0  0  0  0
   49.7290   35.2860   42.4760 C   0  0  0  0  0  0  0  0  0  0  0  0
   49.3580   33.8220   42.5370 C   0  0  2  0  0  0  0  0  0  0  0  0
   50.3600   32.7820   42.0730 C   0  0  0  0  0  0  0  0  0  0  0  0
   50.3230   31.6340   42.8140 F   0  0  0  0  0  0  0  0  0  0  0  0
   51.6160   33.3690   42.1110 F   0  0  0  0  0  0  0  0  0  0  0  0
   50.1330   32.5180   40.7160 F   0  0  0  0  0  0  0  0  0  0  0  0
   43.8122   36.7083   44.7827 H   0  0  0  0  0  0  0  0  0  0  0  0
   44.7134   36.1737   42.4964 H   0  0  0  0  0  0  0  0  0  0  0  0
   44.1089   33.4309   47.8156 H   0  0  0  0  0  0  0  0  0  0  0  0
   45.2560   31.7283   49.5517 H   0  0  0  0  0  0  0  0  0  0  0  0
   49.6023   28.2289   48.9187 H   0  0  0  0  0  0  0  0  0  0  0  0
   49.1161   32.3631   49.6257 H   0  0  0  0  0  0  0  0  0  0  0  0
   50.6797   30.2567   50.0898 H   0  0  0  0  0  0  0  0  0  0  0  0
   46.8166   33.0945   41.9308 H   0  0  0  0  0  0  0  0  0  0  0  0
   45.5411   34.0440   41.1298 H   0  0  0  0  0  0  0  0  0  0  0  0
   47.0997   35.5490   40.5457 H   0  0  0  0  0  0  0  0  0  0  0  0
   47.3263   35.8850   42.3387 H   0  0  0  0  0  0  0  0  0  0  0  0
   48.6972   34.5193   40.3834 H   0  0  0  0  0  0  0  0  0  0  0  0
   50.7378   35.5905   42.1605 H   0  0  0  0  0  0  0  0  0  0  0  0
   49.6976   36.1376   43.1716 H   0  0  0  0  0  0  0  0  0  0  0  0
   48.9764   33.1808   43.3452 H   0  0  0  0  0  0  0  0  0  0  0  0
  1  6  2  0
  2  1  1  0
  3  2  2  0
  3  4  1  0
  4  5  2  0
  5  6  1  0
  5  7  1  0
  7 11  2  0
  7  8  1  0
  8  9  2  0
 10 14  1  0
 10  9  1  0
 11 10  1  0
 12 16  1  0
 13 14  2  0
 13 12  1  0
 14 15  1  0
 15 16  2  0
 17  3  1  0
 18 17  1  0
 19 18  1  0
 19 20  1  0
 19 21  1  0
 20 21  1  0
 22 24  1  0
 22 21  1  0
 22 23  1  0
 25 22  1  0
  1 26  1  0
  2 27  1  0
  8 28  1  0
  9 29  1  0
 12 30  1  0
 15 31  1  0
 16 32  1  0
 17 33  1  0
 17 34  1  0
 18 35  1  0
 18 36  1  0
 19 37  1  6
 20 38  1  0
 20 39  1  0
 21 40  1  1
M  ISO  8  26  14  27  14  28  14  29  14  30   9  31  14  32  14  33   8
M  ISO  7  34   8  35   8  36   8  37  13  38  13  39  13  40  13
M  END
>  <minimizedAffinity>  (1) 
-6.824121

>  <minimizedRMSD>  (1) 
0.393532157

$$$$
