
     RDKit          3D

 39 42  0  0  1  0  0  0  0  0999 V2000
   44.4570   35.8690   44.6540 C   0  0  0  0  0  0  0  0  0  0  0  0
   45.0340   35.6370   43.3880 C   0  0  0  0  0  0  0  0  0  0  0  0
   45.9080   34.5790   43.2420 C   0  0  0  0  0  0  0  0  0  0  0  0
   46.1730   33.8110   44.3170 N   0  0  0  0  0  0  0  0  0  0  0  0
   45.6000   34.0560   45.5340 C   0  0  0  0  0  0  0  0  0  0  0  0
   44.7590   35.0640   45.7040 N   0  0  0  0  0  0  0  0  0  0  0  0
   45.9720   33.1500   46.6140 C   0  0  0  0  0  0  0  0  0  0  0  0
   45.0940   32.9520   47.6650 C   0  0  0  0  0  0  0  0  0  0  0  0
   45.6520   32.0650   48.5550 C   0  0  0  0  0  0  0  0  0  0  0  0
   46.8420   31.7490   48.0330 N   0  0  0  0  0  0  0  0  0  0  0  0
   47.0450   32.3870   46.8790 N   0  0  0  0  0  0  0  0  0  0  0  0
   49.1770   29.1310   48.8390 N   0  0  0  0  0  0  0  0  0  0  0  0
   48.0700   29.5440   48.2250 N   0  0  0  0  0  0  0  0  0  0  0  0
   47.8870   30.8830   48.4790 C   0  0  0  0  0  0  0  0  0  0  0  0
   48.9210   31.2900   49.2750 C   0  0  0  0  0  0  0  0  0  0  0  0
   49.7030   30.1820   49.4800 C   0  0  0  0  0  0  0  0  0  0  0  0
   46.5510   34.2800   41.9360 C   0  0  0  0  0  0  0  0  0  0  0  0
   47.7330   35.2030   41.7990 C   0  0  0  0  0  0  0  0  0  0  0  0
   49.0360   34.5330   41.5770 C   0  0  1  0  0  0  0  0  0  0  0  0
   50.1080   34.7860   42.6280 C   0  0  0  0  0  0  0  0  0  0  0  0
   49.5150   33.4160   42.4090 C   0  0  2  0  0  0  0  0  0  0  0  0
   50.3200   32.4020   41.7510 N   0  0  0  0  0  0  0  0  0  0  0  0
   43.7581   36.7073   44.7910 H   0  0  0  0  0  0  0  0  0  0  0  0
   44.7921   36.2866   42.5339 H   0  0  0  0  0  0  0  0  0  0  0  0
   44.1080   33.4278   47.7713 H   0  0  0  0  0  0  0  0  0  0  0  0
   45.2141   31.6951   49.4938 H   0  0  0  0  0  0  0  0  0  0  0  0
   49.5598   28.1749   48.8235 H   0  0  0  0  0  0  0  0  0  0  0  0
   49.0915   32.3019   49.6712 H   0  0  0  0  0  0  0  0  0  0  0  0
   50.6241   30.1602   50.0809 H   0  0  0  0  0  0  0  0  0  0  0  0
   46.8862   33.2326   41.9121 H   0  0  0  0  0  0  0  0  0  0  0  0
   45.8416   34.4291   41.1086 H   0  0  0  0  0  0  0  0  0  0  0  0
   47.5450   35.8720   40.9463 H   0  0  0  0  0  0  0  0  0  0  0  0
   47.8212   35.7298   42.7606 H   0  0  0  0  0  0  0  0  0  0  0  0
   48.9197   34.6415   40.4886 H   0  0  0  0  0  0  0  0  0  0  0  0
   51.1440   34.9974   42.3245 H   0  0  0  0  0  0  0  0  0  0  0  0
   50.2278   35.4657   43.4845 H   0  0  0  0  0  0  0  0  0  0  0  0
   49.0412   32.6787   43.0737 H   0  0  0  0  0  0  0  0  0  0  0  0
   50.7839   31.8177   42.4612 H   0  0  0  0  0  0  0  0  0  0  0  0
   49.7149   31.8117   41.1626 H   0  0  0  0  0  0  0  0  0  0  0  0
  1  6  2  0
  2  1  1  0
  3  2  2  0
  3  4  1  0
  4  5  2  0
  5  6  1  0
  5  7  1  0
  7 11  2  0
  7  8  1  0
  8  9  2  0
 10 14  1  0
 10  9  1  0
 11 10  1  0
 12 16  1  0
 13 14  2  0
 13 12  1  0
 14 15  1  0
 15 16  2  0
 17  3  1  0
 18 17  1  0
 19 18  1  0
 19 21  1  0
 19 20  1  0
 21 20  1  0
 22 21  1  0
  1 23  1  0
  2 24  1  0
  8 25  1  0
  9 26  1  0
 12 27  1  0
 15 28  1  0
 16 29  1  0
 17 30  1  0
 17 31  1  0
 18 32  1  0
 18 33  1  0
 19 34  1  6
 20 35  1  0
 20 36  1  0
 21 37  1  1
 22 38  1  0
 22 39  1  0
M  ISO  8  23  14  24  14  25  14  26  14  27   9  28  14  29  14  30   8
M  ISO  8  31   8  32   8  33   8  34  13  35  13  36  13  37  13  38   5
M  ISO  1  39   5
M  END
>  <minimizedAffinity>  (1) 
-6.43899584

>  <minimizedRMSD>  (1) 
0.023931006

$$$$
