
     RDKit          3D

 28 29  0  0  1  0  0  0  0  0999 V2000
   44.5410   35.8420   44.8680 C   0  0  0  0  0  0  0  0  0  0  0  0
   45.1690   35.8420   43.6060 C   0  0  0  0  0  0  0  0  0  0  0  0
   46.0340   34.7980   43.3280 C   0  0  0  0  0  0  0  0  0  0  0  0
   46.2240   33.8410   44.2890 N   0  0  0  0  0  0  0  0  0  0  0  0
   45.6080   33.8750   45.4760 C   0  0  0  0  0  0  0  0  0  0  0  0
   44.7630   34.8790   45.7710 N   0  0  0  0  0  0  0  0  0  0  0  0
   45.8460   32.8370   46.4370 N   0  0  0  0  0  0  0  0  0  0  0  0
   45.1550   32.8850   47.7390 C   0  0  0  0  0  0  0  0  0  0  0  0
   45.9610   32.2590   48.8260 C   0  0  0  0  0  0  0  0  0  0  0  0
   47.4090   32.2390   48.4210 C   0  0  0  0  0  0  0  0  0  0  0  0
   47.5100   31.2450   47.2890 C   0  0  0  0  0  0  0  0  0  0  0  0
   46.7600   31.7560   46.1110 C   0  0  1  0  0  0  0  0  0  0  0  0
   46.0000   30.6560   45.3810 C   0  0  0  0  0  0  0  0  0  0  0  0
   45.0760   30.0590   46.2270 F   0  0  0  0  0  0  0  0  0  0  0  0
   45.2760   31.1800   44.3150 F   0  0  0  0  0  0  0  0  0  0  0  0
   46.8820   29.7030   44.9650 F   0  0  0  0  0  0  0  0  0  0  0  0
   43.8474   36.6582   45.1184 H   0  0  0  0  0  0  0  0  0  0  0  0
   44.9793   36.6392   42.8722 H   0  0  0  0  0  0  0  0  0  0  0  0
   46.5550   34.7385   42.3610 H   0  0  0  0  0  0  0  0  0  0  0  0
   44.9634   33.9362   48.0002 H   0  0  0  0  0  0  0  0  0  0  0  0
   44.2164   32.3192   47.6450 H   0  0  0  0  0  0  0  0  0  0  0  0
   45.8461   32.8424   49.7514 H   0  0  0  0  0  0  0  0  0  0  0  0
   45.6119   31.2302   48.9985 H   0  0  0  0  0  0  0  0  0  0  0  0
   47.7253   33.2368   48.0830 H   0  0  0  0  0  0  0  0  0  0  0  0
   48.0593   31.9589   49.2628 H   0  0  0  0  0  0  0  0  0  0  0  0
   48.5668   31.1045   47.0179 H   0  0  0  0  0  0  0  0  0  0  0  0
   47.0815   30.2831   47.6069 H   0  0  0  0  0  0  0  0  0  0  0  0
   47.5363   32.1562   45.4422 H   0  0  0  0  0  0  0  0  0  0  0  0
  1  6  2  0
  2  1  1  0
  3  2  2  0
  3  4  1  0
  4  5  2  0
  5  6  1  0
  5  7  1  0
  7  8  1  0
  8  9  1  0
 10  9  1  0
 11 10  1  0
 12  7  1  0
 12 11  1  0
 13 12  1  0
 13 14  1  0
 15 13  1  0
 16 13  1  0
  1 17  1  0
  2 18  1  0
  3 19  1  0
  8 20  1  0
  8 21  1  0
  9 22  1  0
  9 23  1  0
 10 24  1  0
 10 25  1  0
 11 26  1  0
 11 27  1  0
 12 28  1  6
M  ISO  8  17  14  18  14  19  14  20  13  21  13  22  13  23  13  24  13
M  ISO  4  25  13  26  13  27  13  28  13
M  END
>  <minimizedAffinity>  (1) 
-5.01692963

>  <minimizedRMSD>  (1) 
0.246640965

$$$$
