
     RDKit          3D

 49 52  0  0  1  0  0  0  0  0999 V2000
   44.4240   35.9790   44.7030 C   0  0  0  0  0  0  0  0  0  0  0  0
   44.9990   35.8060   43.4350 C   0  0  0  0  0  0  0  0  0  0  0  0
   45.8810   34.7380   43.2500 C   0  0  0  0  0  0  0  0  0  0  0  0
   46.1240   33.9460   44.2970 N   0  0  0  0  0  0  0  0  0  0  0  0
   45.5500   34.1410   45.5150 C   0  0  0  0  0  0  0  0  0  0  0  0
   44.7070   35.1460   45.7230 N   0  0  0  0  0  0  0  0  0  0  0  0
   45.9040   33.1920   46.5840 C   0  0  0  0  0  0  0  0  0  0  0  0
   45.0440   33.0010   47.6390 C   0  0  0  0  0  0  0  0  0  0  0  0
   45.5970   32.0730   48.4960 C   0  0  0  0  0  0  0  0  0  0  0  0
   46.7690   31.7290   47.9410 N   0  0  0  0  0  0  0  0  0  0  0  0
   46.9610   32.3870   46.8060 N   0  0  0  0  0  0  0  0  0  0  0  0
   49.0630   29.0610   48.6530 N   0  0  0  0  0  0  0  0  0  0  0  0
   47.9620   29.5030   48.0560 N   0  0  0  0  0  0  0  0  0  0  0  0
   47.7940   30.8200   48.3450 C   0  0  0  0  0  0  0  0  0  0  0  0
   48.8410   31.2100   49.1590 C   0  0  0  0  0  0  0  0  0  0  0  0
   49.6090   30.0780   49.3250 C   0  0  0  0  0  0  0  0  0  0  0  0
   46.5240   34.4980   41.9380 C   0  0  0  0  0  0  0  0  0  0  0  0
   47.8470   35.2180   41.9400 C   0  0  0  0  0  0  0  0  0  0  0  0
   49.0200   34.4130   41.5150 C   0  0  1  0  0  0  0  0  0  0  0  0
   50.1460   34.3140   42.5210 C   0  0  0  0  0  0  0  0  0  0  0  0
   49.3330   33.0980   42.0970 C   0  0  2  0  0  0  0  0  0  0  0  0
   50.0480   32.0050   41.3900 C   0  0  0  0  0  0  0  0  0  0  0  0
   49.5480   31.9280   39.9410 C   0  0  0  0  0  0  0  0  0  0  0  0
   51.5360   32.1270   41.3370 C   0  0  0  0  0  0  0  0  0  0  0  0
   49.7060   30.6260   41.9670 C   0  0  0  0  0  0  0  0  0  0  0  0
   43.7265   36.8135   44.8679 H   0  0  0  0  0  0  0  0  0  0  0  0
   44.7620   36.4925   42.6088 H   0  0  0  0  0  0  0  0  0  0  0  0
   44.0758   33.5046   47.7768 H   0  0  0  0  0  0  0  0  0  0  0  0
   45.1681   31.6948   49.4357 H   0  0  0  0  0  0  0  0  0  0  0  0
   49.4319   28.1005   48.6059 H   0  0  0  0  0  0  0  0  0  0  0  0
   49.0221   32.2088   49.5829 H   0  0  0  0  0  0  0  0  0  0  0  0
   50.5319   30.0206   49.9207 H   0  0  0  0  0  0  0  0  0  0  0  0
   45.8862   34.8877   41.1309 H   0  0  0  0  0  0  0  0  0  0  0  0
   46.6710   33.4207   41.7715 H   0  0  0  0  0  0  0  0  0  0  0  0
   47.7640   36.0789   41.2603 H   0  0  0  0  0  0  0  0  0  0  0  0
   48.0366   35.4930   42.9881 H   0  0  0  0  0  0  0  0  0  0  0  0
   48.8907   34.7360   40.4715 H   0  0  0  0  0  0  0  0  0  0  0  0
   51.1915   34.4236   42.1971 H   0  0  0  0  0  0  0  0  0  0  0  0
   50.3982   34.8018   43.4741 H   0  0  0  0  0  0  0  0  0  0  0  0
   48.6942   32.3370   42.5691 H   0  0  0  0  0  0  0  0  0  0  0  0
   48.4608   31.7606   39.9367 H   0  0  0  0  0  0  0  0  0  0  0  0
   49.7757   32.8718   39.4239 H   0  0  0  0  0  0  0  0  0  0  0  0
   50.0491   31.0964   39.4239 H   0  0  0  0  0  0  0  0  0  0  0  0
   51.9379   32.1599   42.3604 H   0  0  0  0  0  0  0  0  0  0  0  0
   51.9563   31.2603   40.8058 H   0  0  0  0  0  0  0  0  0  0  0  0
   51.8095   33.0506   40.8058 H   0  0  0  0  0  0  0  0  0  0  0  0
   49.7182   30.6750   43.0658 H   0  0  0  0  0  0  0  0  0  0  0  0
   48.7055   30.3231   41.6245 H   0  0  0  0  0  0  0  0  0  0  0  0
   50.4490   29.8907   41.6245 H   0  0  0  0  0  0  0  0  0  0  0  0
  1  6  2  0
  2  1  1  0
  3  2  2  0
  3  4  1  0
  4  5  2  0
  5  6  1  0
  5  7  1  0
  7 11  2  0
  7  8  1  0
  8  9  2  0
 10 14  1  0
 10  9  1  0
 11 10  1  0
 12 16  1  0
 13 14  2  0
 13 12  1  0
 14 15  1  0
 15 16  2  0
 17 18  1  0
 17  3  1  0
 19 18  1  0
 19 21  1  0
 19 20  1  0
 21 20  1  0
 22 25  1  0
 22 21  1  0
 23 22  1  0
 24 22  1  0
  1 26  1  0
  2 27  1  0
  8 28  1  0
  9 29  1  0
 12 30  1  0
 15 31  1  0
 16 32  1  0
 17 33  1  0
 17 34  1  0
 18 35  1  0
 18 36  1  0
 19 37  1  6
 20 38  1  0
 20 39  1  0
 21 40  1  1
 23 41  1  0
 23 42  1  0
 23 43  1  0
 24 44  1  0
 24 45  1  0
 24 46  1  0
 25 47  1  0
 25 48  1  0
 25 49  1  0
M  ISO  8  26  14  27  14  28  14  29  14  30   9  31  14  32  14  33   8
M  ISO  8  34   8  35   8  36   8  37  13  38  13  39  13  40  13  41   8
M  ISO  8  42   8  43   8  44   8  45   8  46   8  47   8  48   8  49   8
M  END
>  <minimizedAffinity>  (1) 
-6.6139245

>  <minimizedRMSD>  (1) 
0.384057015

$$$$
