
     RDKit          3D

 45 49  0  0  1  0  0  0  0  0999 V2000
   44.4400   35.8660   44.6970 C   0  0  0  0  0  0  0  0  0  0  0  0
   45.0270   35.6790   43.4400 C   0  0  0  0  0  0  0  0  0  0  0  0
   45.9160   34.6310   43.3010 C   0  0  0  0  0  0  0  0  0  0  0  0
   46.1670   33.8610   44.3520 N   0  0  0  0  0  0  0  0  0  0  0  0
   45.5940   34.0520   45.5560 C   0  0  0  0  0  0  0  0  0  0  0  0
   44.7250   35.0530   45.7460 N   0  0  0  0  0  0  0  0  0  0  0  0
   45.9470   33.1450   46.6370 C   0  0  0  0  0  0  0  0  0  0  0  0
   45.0700   32.9420   47.6840 C   0  0  0  0  0  0  0  0  0  0  0  0
   45.6290   32.0470   48.5720 C   0  0  0  0  0  0  0  0  0  0  0  0
   46.8350   31.7300   48.0410 N   0  0  0  0  0  0  0  0  0  0  0  0
   47.0060   32.3820   46.9050 N   0  0  0  0  0  0  0  0  0  0  0  0
   49.1610   29.1390   48.8470 N   0  0  0  0  0  0  0  0  0  0  0  0
   48.0650   29.5480   48.2270 N   0  0  0  0  0  0  0  0  0  0  0  0
   47.8750   30.8640   48.4830 C   0  0  0  0  0  0  0  0  0  0  0  0
   48.8900   31.2670   49.2850 C   0  0  0  0  0  0  0  0  0  0  0  0
   49.6810   30.1930   49.5060 C   0  0  0  0  0  0  0  0  0  0  0  0
   46.5850   34.3690   42.0120 C   0  0  0  0  0  0  0  0  0  0  0  0
   47.7370   35.3770   41.9000 C   0  0  0  0  0  0  0  0  0  0  0  0
   48.9980   34.7670   41.4550 C   0  0  1  0  0  0  0  0  0  0  0  0
   50.0980   34.7660   42.5060 C   0  0  0  0  0  0  0  0  0  0  0  0
   49.4880   33.4820   41.9270 C   0  0  1  0  0  0  0  0  0  0  0  0
   49.0320   32.6910   42.9390 O   0  0  0  0  0  0  0  0  0  0  0  0
   49.2560   31.2900   42.7370 C   0  0  0  0  0  0  0  0  0  0  0  0
   50.5400   30.8080   42.5640 C   0  0  0  0  0  0  0  0  0  0  0  0
   50.5350   29.4130   42.3820 C   0  0  0  0  0  0  0  0  0  0  0  0
   49.1650   29.1510   42.4660 C   0  0  0  0  0  0  0  0  0  0  0  0
   48.5240   30.2420   42.6630 O   0  0  0  0  0  0  0  0  0  0  0  0
   43.7291   36.6935   44.8384 H   0  0  0  0  0  0  0  0  0  0  0  0
   44.7893   36.3417   42.5948 H   0  0  0  0  0  0  0  0  0  0  0  0
   44.0841   33.4176   47.7924 H   0  0  0  0  0  0  0  0  0  0  0  0
   45.1909   31.6717   49.5086 H   0  0  0  0  0  0  0  0  0  0  0  0
   49.5476   28.1845   48.8288 H   0  0  0  0  0  0  0  0  0  0  0  0
   49.0424   32.2811   49.6830 H   0  0  0  0  0  0  0  0  0  0  0  0
   50.5939   30.1816   50.1195 H   0  0  0  0  0  0  0  0  0  0  0  0
   46.9769   33.3414   41.9903 H   0  0  0  0  0  0  0  0  0  0  0  0
   45.8823   34.4764   41.1725 H   0  0  0  0  0  0  0  0  0  0  0  0
   47.4512   36.1559   41.1777 H   0  0  0  0  0  0  0  0  0  0  0  0
   47.9098   35.7894   42.9050 H   0  0  0  0  0  0  0  0  0  0  0  0
   48.8408   35.1322   40.4294 H   0  0  0  0  0  0  0  0  0  0  0  0
   51.1229   35.0658   42.2422 H   0  0  0  0  0  0  0  0  0  0  0  0
   50.2425   35.1974   43.5075 H   0  0  0  0  0  0  0  0  0  0  0  0
   49.7009   32.5968   41.3096 H   0  0  0  0  0  0  0  0  0  0  0  0
   51.4456   31.4324   42.5681 H   0  0  0  0  0  0  0  0  0  0  0  0
   51.3749   28.7216   42.2191 H   0  0  0  0  0  0  0  0  0  0  0  0
   48.7055   28.1556   42.3763 H   0  0  0  0  0  0  0  0  0  0  0  0
  1  6  2  0
  2  1  1  0
  3  2  2  0
  3  4  1  0
  4  5  2  0
  5  6  1  0
  5  7  1  0
  7 11  2  0
  7  8  1  0
  8  9  2  0
 10 14  1  0
 10  9  1  0
 11 10  1  0
 12 16  1  0
 13 14  2  0
 13 12  1  0
 14 15  1  0
 15 16  2  0
 17  3  1  0
 18 17  1  0
 19 18  1  0
 19 21  1  0
 19 20  1  0
 21 20  1  0
 21 22  1  0
 23 22  1  0
 24 23  2  0
 25 26  2  0
 25 24  1  0
 26 27  1  0
 27 23  1  0
  1 28  1  0
  2 29  1  0
  8 30  1  0
  9 31  1  0
 12 32  1  0
 15 33  1  0
 16 34  1  0
 17 35  1  0
 17 36  1  0
 18 37  1  0
 18 38  1  0
 19 39  1  6
 20 40  1  0
 20 41  1  0
 21 42  1  6
 24 43  1  0
 25 44  1  0
 26 45  1  0
M  ISO  8  28  14  29  14  30  14  31  14  32   9  33  14  34  14  35   8
M  ISO  8  36   8  37   8  38   8  39  13  40  13  41  13  42  13  43  14
M  ISO  2  44  14  45  14
M  END
>  <minimizedAffinity>  (1) 
-6.31810236

>  <minimizedRMSD>  (1) 
1.24612439

$$$$
