
     RDKit          3D

 54 58  0  0  1  0  0  0  0  0999 V2000
   44.4300   36.0860   44.4860 C   0  0  0  0  0  0  0  0  0  0  0  0
   45.0360   35.9110   43.2340 C   0  0  0  0  0  0  0  0  0  0  0  0
   45.9150   34.8530   43.1100 C   0  0  0  0  0  0  0  0  0  0  0  0
   46.1320   34.0780   44.1590 N   0  0  0  0  0  0  0  0  0  0  0  0
   45.5430   34.2570   45.3580 C   0  0  0  0  0  0  0  0  0  0  0  0
   44.6840   35.2650   45.5370 N   0  0  0  0  0  0  0  0  0  0  0  0
   45.8710   33.3340   46.4360 C   0  0  0  0  0  0  0  0  0  0  0  0
   45.0000   33.1850   47.4920 C   0  0  0  0  0  0  0  0  0  0  0  0
   45.5320   32.2580   48.3800 C   0  0  0  0  0  0  0  0  0  0  0  0
   46.7050   31.8790   47.8290 N   0  0  0  0  0  0  0  0  0  0  0  0
   46.8980   32.5180   46.6820 N   0  0  0  0  0  0  0  0  0  0  0  0
   48.9280   29.1920   48.6280 N   0  0  0  0  0  0  0  0  0  0  0  0
   47.8220   29.6390   48.0140 N   0  0  0  0  0  0  0  0  0  0  0  0
   47.6970   30.9650   48.2530 C   0  0  0  0  0  0  0  0  0  0  0  0
   48.7580   31.3140   49.0300 C   0  0  0  0  0  0  0  0  0  0  0  0
   49.5070   30.2100   49.2520 C   0  0  0  0  0  0  0  0  0  0  0  0
   46.6070   34.5870   41.8230 C   0  0  0  0  0  0  0  0  0  0  0  0
   47.9540   35.2990   41.8970 C   0  0  0  0  0  0  0  0  0  0  0  0
   49.0930   34.4600   41.4940 C   0  0  1  0  0  0  0  0  0  0  0  0
   50.2280   34.3630   42.4920 C   0  0  0  0  0  0  0  0  0  0  0  0
   49.4100   33.1700   42.0850 C   0  0  1  0  0  0  0  0  0  0  0  0
   48.8280   32.5190   43.1210 O   0  0  0  0  0  0  0  0  0  0  0  0
   49.0040   31.1280   43.0320 C   0  0  0  0  0  0  0  0  0  0  0  0
   50.3200   30.6500   42.5920 C   0  0  0  0  0  0  0  0  0  0  0  0
   50.3420   29.1720   42.3440 C   0  0  0  0  0  0  0  0  0  0  0  0
   48.9590   28.6100   42.4910 C   0  0  0  0  0  0  0  0  0  0  0  0
   48.4980   28.8660   43.9130 C   0  0  0  0  0  0  0  0  0  0  0  0
   48.3560   30.3490   44.1520 C   0  0  0  0  0  0  0  0  0  0  0  0
   43.7235   36.9182   44.6216 H   0  0  0  0  0  0  0  0  0  0  0  0
   44.8217   36.5841   42.3908 H   0  0  0  0  0  0  0  0  0  0  0  0
   44.0421   33.7122   47.6126 H   0  0  0  0  0  0  0  0  0  0  0  0
   45.0929   31.9088   49.3262 H   0  0  0  0  0  0  0  0  0  0  0  0
   49.2705   28.2207   48.6169 H   0  0  0  0  0  0  0  0  0  0  0  0
   48.9706   32.3231   49.4128 H   0  0  0  0  0  0  0  0  0  0  0  0
   50.4324   30.1641   49.8449 H   0  0  0  0  0  0  0  0  0  0  0  0
   46.0144   34.9821   40.9847 H   0  0  0  0  0  0  0  0  0  0  0  0
   46.7376   33.5072   41.6587 H   0  0  0  0  0  0  0  0  0  0  0  0
   47.9188   36.1769   41.2351 H   0  0  0  0  0  0  0  0  0  0  0  0
   48.1144   35.5715   42.9506 H   0  0  0  0  0  0  0  0  0  0  0  0
   48.9419   34.7580   40.4460 H   0  0  0  0  0  0  0  0  0  0  0  0
   51.2717   34.4619   42.1591 H   0  0  0  0  0  0  0  0  0  0  0  0
   50.4932   34.8550   43.4394 H   0  0  0  0  0  0  0  0  0  0  0  0
   49.4935   32.1984   41.5760 H   0  0  0  0  0  0  0  0  0  0  0  0
   48.4043   30.8677   42.1473 H   0  0  0  0  0  0  0  0  0  0  0  0
   50.5895   31.1679   41.6597 H   0  0  0  0  0  0  0  0  0  0  0  0
   51.0388   30.8639   43.3967 H   0  0  0  0  0  0  0  0  0  0  0  0
   51.0111   28.6898   43.0718 H   0  0  0  0  0  0  0  0  0  0  0  0
   50.7044   28.9810   41.3231 H   0  0  0  0  0  0  0  0  0  0  0  0
   48.2778   29.1046   41.7829 H   0  0  0  0  0  0  0  0  0  0  0  0
   48.9604   27.5308   42.2781 H   0  0  0  0  0  0  0  0  0  0  0  0
   47.5261   28.3766   44.0742 H   0  0  0  0  0  0  0  0  0  0  0  0
   49.2426   28.4579   44.6123 H   0  0  0  0  0  0  0  0  0  0  0  0
   48.8417   30.6108   45.1036 H   0  0  0  0  0  0  0  0  0  0  0  0
   47.2864   30.6031   44.1906 H   0  0  0  0  0  0  0  0  0  0  0  0
  1  6  2  0
  2  1  1  0
  3  2  2  0
  3  4  1  0
  4  5  2  0
  5  6  1  0
  5  7  1  0
  7 11  2  0
  7  8  1  0
  8  9  2  0
 10 14  1  0
 10  9  1  0
 11 10  1  0
 12 16  1  0
 13 14  2  0
 13 12  1  0
 14 15  1  0
 15 16  2  0
 17 18  1  0
 17  3  1  0
 19 18  1  0
 19 21  1  0
 19 20  1  0
 21 20  1  0
 21 22  1  0
 23 22  1  0
 23 28  1  0
 24 23  1  0
 25 26  1  0
 25 24  1  0
 26 27  1  0
 27 28  1  0
  1 29  1  0
  2 30  1  0
  8 31  1  0
  9 32  1  0
 12 33  1  0
 15 34  1  0
 16 35  1  0
 17 36  1  0
 17 37  1  0
 18 38  1  0
 18 39  1  0
 19 40  1  6
 20 41  1  0
 20 42  1  0
 21 43  1  6
 23 44  1  0
 24 45  1  0
 24 46  1  0
 25 47  1  0
 25 48  1  0
 26 49  1  0
 26 50  1  0
 27 51  1  0
 27 52  1  0
 28 53  1  0
 28 54  1  0
M  ISO  8  29  14  30  14  31  14  32  14  33   9  34  14  35  14  36   8
M  ISO  8  37   8  38   8  39   8  40  13  41  13  42  13  43  13  44  13
M  ISO  8  45  13  46  13  47  13  48  13  49  13  50  13  51  13  52  13
M  ISO  2  53  13  54  13
M  END
>  <minimizedAffinity>  (1) 
-6.30032253

>  <minimizedRMSD>  (1) 
0.714215338

$$$$
