
     RDKit          3D

 50 54  0  0  1  0  0  0  0  0999 V2000
   44.4160   35.9200   44.6940 C   0  0  0  0  0  0  0  0  0  0  0  0
   45.0060   35.7400   43.4310 C   0  0  0  0  0  0  0  0  0  0  0  0
   45.8950   34.6980   43.2840 C   0  0  0  0  0  0  0  0  0  0  0  0
   46.1520   33.9170   44.3260 N   0  0  0  0  0  0  0  0  0  0  0  0
   45.5720   34.1060   45.5400 C   0  0  0  0  0  0  0  0  0  0  0  0
   44.7050   35.1000   45.7350 N   0  0  0  0  0  0  0  0  0  0  0  0
   45.9270   33.1890   46.6110 C   0  0  0  0  0  0  0  0  0  0  0  0
   45.0430   32.9730   47.6500 C   0  0  0  0  0  0  0  0  0  0  0  0
   45.6060   32.0690   48.5330 C   0  0  0  0  0  0  0  0  0  0  0  0
   46.8130   31.7610   48.0050 N   0  0  0  0  0  0  0  0  0  0  0  0
   47.0000   32.4250   46.8700 N   0  0  0  0  0  0  0  0  0  0  0  0
   49.1450   29.1730   48.8090 N   0  0  0  0  0  0  0  0  0  0  0  0
   48.0390   29.5830   48.1860 N   0  0  0  0  0  0  0  0  0  0  0  0
   47.8480   30.8980   48.4430 C   0  0  0  0  0  0  0  0  0  0  0  0
   48.8700   31.2870   49.2410 C   0  0  0  0  0  0  0  0  0  0  0  0
   49.6600   30.2100   49.4560 C   0  0  0  0  0  0  0  0  0  0  0  0
   46.5670   34.4290   41.9970 C   0  0  0  0  0  0  0  0  0  0  0  0
   47.7770   35.3440   41.9130 C   0  0  0  0  0  0  0  0  0  0  0  0
   49.0260   34.6970   41.5000 C   0  0  1  0  0  0  0  0  0  0  0  0
   50.1590   34.6720   42.5050 C   0  0  0  0  0  0  0  0  0  0  0  0
   49.5110   33.4170   42.0220 C   0  0  1  0  0  0  0  0  0  0  0  0
   48.9930   32.6420   43.0020 O   0  0  0  0  0  0  0  0  0  0  0  0
   48.7050   30.8850   41.3900 N   0  0  0  0  0  0  0  0  0  0  0  0
   49.2660   29.5240   41.2680 C   0  0  0  0  0  0  0  0  0  0  0  0
   50.6530   29.5800   41.8390 C   0  0  0  0  0  0  0  0  0  0  0  0
   50.6650   30.8830   42.6570 C   0  0  0  0  0  0  0  0  0  0  0  0
   49.2190   31.3220   42.6720 C   0  0  1  0  0  0  0  0  0  0  0  0
   43.7035   36.7449   44.8415 H   0  0  0  0  0  0  0  0  0  0  0  0
   44.7664   36.4073   42.5900 H   0  0  0  0  0  0  0  0  0  0  0  0
   44.0541   33.4425   47.7577 H   0  0  0  0  0  0  0  0  0  0  0  0
   45.1665   31.6833   49.4647 H   0  0  0  0  0  0  0  0  0  0  0  0
   49.5314   28.2184   48.7908 H   0  0  0  0  0  0  0  0  0  0  0  0
   49.0296   32.2984   49.6429 H   0  0  0  0  0  0  0  0  0  0  0  0
   50.5758   30.1966   50.0652 H   0  0  0  0  0  0  0  0  0  0  0  0
   46.8875   33.3776   41.9533 H   0  0  0  0  0  0  0  0  0  0  0  0
   45.8822   34.6145   41.1564 H   0  0  0  0  0  0  0  0  0  0  0  0
   47.5511   36.1400   41.1882 H   0  0  0  0  0  0  0  0  0  0  0  0
   47.9498   35.7132   42.9347 H   0  0  0  0  0  0  0  0  0  0  0  0
   48.8470   35.0509   40.4740 H   0  0  0  0  0  0  0  0  0  0  0  0
   51.1833   34.9231   42.1924 H   0  0  0  0  0  0  0  0  0  0  0  0
   50.3525   35.1316   43.4855 H   0  0  0  0  0  0  0  0  0  0  0  0
   49.7368   32.4963   41.4640 H   0  0  0  0  0  0  0  0  0  0  0  0
   47.6752   30.8646   41.3892 H   0  0  0  0  0  0  0  0  0  0  0  0
   48.6514   28.8079   41.8332 H   0  0  0  0  0  0  0  0  0  0  0  0
   49.2816   29.1935   40.2189 H   0  0  0  0  0  0  0  0  0  0  0  0
   50.8455   28.7107   42.4850 H   0  0  0  0  0  0  0  0  0  0  0  0
   51.4321   29.5596   41.0627 H   0  0  0  0  0  0  0  0  0  0  0  0
   51.0279   30.6992   43.6790 H   0  0  0  0  0  0  0  0  0  0  0  0
   51.3330   31.6445   42.2283 H   0  0  0  0  0  0  0  0  0  0  0  0
   48.6643   30.8601   43.5020 H   0  0  0  0  0  0  0  0  0  0  0  0
  1  6  2  0
  2  1  1  0
  3  2  2  0
  3  4  1  0
  4  5  2  0
  5  6  1  0
  5  7  1  0
  7 11  2  0
  7  8  1  0
  8  9  2  0
 10 14  1  0
 10  9  1  0
 11 10  1  0
 12 16  1  0
 13 14  2  0
 13 12  1  0
 14 15  1  0
 15 16  2  0
 17  3  1  0
 18 17  1  0
 19 18  1  0
 19 21  1  0
 19 20  1  0
 21 20  1  0
 21 22  1  0
 23 27  1  0
 24 23  1  0
 24 25  1  0
 25 26  1  0
 26 27  1  0
 27 22  1  0
  1 28  1  0
  2 29  1  0
  8 30  1  0
  9 31  1  0
 12 32  1  0
 15 33  1  0
 16 34  1  0
 17 35  1  0
 17 36  1  0
 18 37  1  0
 18 38  1  0
 19 39  1  6
 20 40  1  0
 20 41  1  0
 21 42  1  6
 23 43  1  0
 24 44  1  0
 24 45  1  0
 25 46  1  0
 25 47  1  0
 26 48  1  0
 26 49  1  0
 27 50  1  1
M  ISO  8  28  14  29  14  30  14  31  14  32   9  33  14  34  14  35   8
M  ISO  8  36   8  37   8  38   8  39  13  40  13  41  13  42  13  43   5
M  ISO  7  44  13  45  13  46  13  47  13  48  13  49  13  50  13
M  END
>  <minimizedAffinity>  (1) 
-6.31072521

>  <minimizedRMSD>  (1) 
0.896457553

$$$$
