
     RDKit          3D

 43 47  0  0  1  0  0  0  0  0999 V2000
   44.4310   35.9760   44.5280 C   0  0  0  0  0  0  0  0  0  0  0  0
   45.0700   35.8040   43.2900 C   0  0  0  0  0  0  0  0  0  0  0  0
   45.9820   34.7850   43.1820 C   0  0  0  0  0  0  0  0  0  0  0  0
   46.2130   34.0200   44.2410 N   0  0  0  0  0  0  0  0  0  0  0  0
   45.5990   34.1880   45.4240 C   0  0  0  0  0  0  0  0  0  0  0  0
   44.7020   35.1660   45.5820 N   0  0  0  0  0  0  0  0  0  0  0  0
   45.9330   33.2810   46.5120 C   0  0  0  0  0  0  0  0  0  0  0  0
   45.0350   33.0880   47.5450 C   0  0  0  0  0  0  0  0  0  0  0  0
   45.5740   32.1860   48.4400 C   0  0  0  0  0  0  0  0  0  0  0  0
   46.7790   31.8600   47.9280 N   0  0  0  0  0  0  0  0  0  0  0  0
   46.9840   32.5100   46.7920 N   0  0  0  0  0  0  0  0  0  0  0  0
   49.0330   29.1910   48.7460 N   0  0  0  0  0  0  0  0  0  0  0  0
   47.9440   29.6390   48.1390 N   0  0  0  0  0  0  0  0  0  0  0  0
   47.7990   30.9810   48.3830 C   0  0  0  0  0  0  0  0  0  0  0  0
   48.8400   31.3570   49.1650 C   0  0  0  0  0  0  0  0  0  0  0  0
   49.5860   30.2230   49.3720 C   0  0  0  0  0  0  0  0  0  0  0  0
   46.6980   34.5400   41.9080 C   0  0  0  0  0  0  0  0  0  0  0  0
   48.0040   35.3130   41.9690 C   0  0  0  0  0  0  0  0  0  0  0  0
   49.1770   34.5600   41.4900 C   0  0  1  0  0  0  0  0  0  0  0  0
   50.3040   34.3900   42.4950 C   0  0  0  0  0  0  0  0  0  0  0  0
   49.5210   33.2250   41.9290 C   0  0  1  0  0  0  0  0  0  0  0  0
   48.9470   32.4220   42.8640 O   0  0  0  0  0  0  0  0  0  0  0  0
   49.5020   31.0760   42.8610 C   0  0  0  0  0  0  0  0  0  0  0  0
   48.8660   29.9010   42.8850 N   0  0  0  0  0  0  0  0  0  0  0  0
   49.7190   28.9420   42.8710 O   0  0  0  0  0  0  0  0  0  0  0  0
   50.9220   29.4460   42.8370 C   0  0  0  0  0  0  0  0  0  0  0  0
   50.8120   30.7760   42.8300 N   0  0  0  0  0  0  0  0  0  0  0  0
   43.6948   36.7848   44.6460 H   0  0  0  0  0  0  0  0  0  0  0  0
   44.8475   36.4625   42.4374 H   0  0  0  0  0  0  0  0  0  0  0  0
   44.0524   33.5735   47.6384 H   0  0  0  0  0  0  0  0  0  0  0  0
   45.1194   31.8134   49.3698 H   0  0  0  0  0  0  0  0  0  0  0  0
   49.3849   28.2230   48.7344 H   0  0  0  0  0  0  0  0  0  0  0  0
   49.0454   32.3650   49.5545 H   0  0  0  0  0  0  0  0  0  0  0  0
   50.5082   30.1763   49.9698 H   0  0  0  0  0  0  0  0  0  0  0  0
   46.0910   34.8925   41.0611 H   0  0  0  0  0  0  0  0  0  0  0  0
   46.8872   33.4655   41.7676 H   0  0  0  0  0  0  0  0  0  0  0  0
   47.8987   36.2167   41.3508 H   0  0  0  0  0  0  0  0  0  0  0  0
   48.1867   35.5398   43.0297 H   0  0  0  0  0  0  0  0  0  0  0  0
   49.0332   34.9703   40.4796 H   0  0  0  0  0  0  0  0  0  0  0  0
   51.3490   34.5583   42.1956 H   0  0  0  0  0  0  0  0  0  0  0  0
   50.5408   34.7769   43.4971 H   0  0  0  0  0  0  0  0  0  0  0  0
   49.6376   32.3239   41.3089 H   0  0  0  0  0  0  0  0  0  0  0  0
   51.8619   28.8749   42.8175 H   0  0  0  0  0  0  0  0  0  0  0  0
  1  6  2  0
  2  1  1  0
  3  2  2  0
  3  4  1  0
  4  5  2  0
  5  6  1  0
  5  7  1  0
  7 11  2  0
  7  8  1  0
  8  9  2  0
 10 14  1  0
 10  9  1  0
 11 10  1  0
 12 16  1  0
 13 14  2  0
 13 12  1  0
 14 15  1  0
 15 16  2  0
 17 18  1  0
 17  3  1  0
 19 21  1  0
 19 18  1  0
 19 20  1  0
 21 20  1  0
 21 22  1  0
 23 22  1  0
 23 24  2  0
 25 24  1  0
 26 25  1  0
 27 26  2  0
 27 23  1  0
  1 28  1  0
  2 29  1  0
  8 30  1  0
  9 31  1  0
 12 32  1  0
 15 33  1  0
 16 34  1  0
 17 35  1  0
 17 36  1  0
 18 37  1  0
 18 38  1  0
 19 39  1  6
 20 40  1  0
 20 41  1  0
 21 42  1  6
 26 43  1  0
M  ISO  8  28  14  29  14  30  14  31  14  32   9  33  14  34  14  35   8
M  ISO  8  36   8  37   8  38   8  39  13  40  13  41  13  42  13  43  14
M  END
>  <minimizedAffinity>  (1) 
-6.22692871

>  <minimizedRMSD>  (1) 
0.729699016

$$$$
