
     RDKit          3D

 42 45  0  0  1  0  0  0  0  0999 V2000
   44.4140   35.9160   44.6880 C   0  0  0  0  0  0  0  0  0  0  0  0
   44.9990   35.7320   43.4300 C   0  0  0  0  0  0  0  0  0  0  0  0
   45.8830   34.6910   43.2900 C   0  0  0  0  0  0  0  0  0  0  0  0
   46.1410   33.9180   44.3340 N   0  0  0  0  0  0  0  0  0  0  0  0
   45.5710   34.1040   45.5440 C   0  0  0  0  0  0  0  0  0  0  0  0
   44.7040   35.1020   45.7370 N   0  0  0  0  0  0  0  0  0  0  0  0
   45.9310   33.1880   46.6170 C   0  0  0  0  0  0  0  0  0  0  0  0
   45.0460   32.9680   47.6530 C   0  0  0  0  0  0  0  0  0  0  0  0
   45.6090   32.0660   48.5370 C   0  0  0  0  0  0  0  0  0  0  0  0
   46.8210   31.7620   48.0120 N   0  0  0  0  0  0  0  0  0  0  0  0
   46.9960   32.4330   46.8790 N   0  0  0  0  0  0  0  0  0  0  0  0
   49.1460   29.1630   48.8020 N   0  0  0  0  0  0  0  0  0  0  0  0
   48.0460   29.5840   48.1990 N   0  0  0  0  0  0  0  0  0  0  0  0
   47.8580   30.9020   48.4480 C   0  0  0  0  0  0  0  0  0  0  0  0
   48.8880   31.2970   49.2340 C   0  0  0  0  0  0  0  0  0  0  0  0
   49.6750   30.1990   49.4400 C   0  0  0  0  0  0  0  0  0  0  0  0
   46.5490   34.4310   41.9890 C   0  0  0  0  0  0  0  0  0  0  0  0
   47.7610   35.3560   41.9240 C   0  0  0  0  0  0  0  0  0  0  0  0
   48.9950   34.6850   41.4960 C   0  0  1  0  0  0  0  0  0  0  0  0
   50.1490   34.7170   42.4690 C   0  0  0  0  0  0  0  0  0  0  0  0
   49.4860   33.4240   42.0340 C   0  0  1  0  0  0  0  0  0  0  0  0
   49.0210   32.7060   43.0830 O   0  0  0  0  0  0  0  0  0  0  0  0
   48.5000   31.4240   42.7960 C   0  0  0  0  0  0  0  0  0  0  0  0
   47.4160   30.7110   42.3160 N   0  0  0  0  0  0  0  0  0  0  0  0
   49.1720   30.3530   43.0020 O   0  0  0  0  0  0  0  0  0  0  0  0
   43.7008   36.7411   44.8315 H   0  0  0  0  0  0  0  0  0  0  0  0
   44.7598   36.3958   42.5861 H   0  0  0  0  0  0  0  0  0  0  0  0
   44.0551   33.4339   47.7582 H   0  0  0  0  0  0  0  0  0  0  0  0
   45.1678   31.6783   49.4670 H   0  0  0  0  0  0  0  0  0  0  0  0
   49.5232   28.2048   48.7801 H   0  0  0  0  0  0  0  0  0  0  0  0
   49.0585   32.3087   49.6308 H   0  0  0  0  0  0  0  0  0  0  0  0
   50.5979   30.1776   50.0381 H   0  0  0  0  0  0  0  0  0  0  0  0
   46.8703   33.3806   41.9309 H   0  0  0  0  0  0  0  0  0  0  0  0
   45.8634   34.6177   41.1493 H   0  0  0  0  0  0  0  0  0  0  0  0
   47.5417   36.1659   41.2126 H   0  0  0  0  0  0  0  0  0  0  0  0
   47.9355   35.7284   42.9442 H   0  0  0  0  0  0  0  0  0  0  0  0
   48.7878   34.9926   40.4604 H   0  0  0  0  0  0  0  0  0  0  0  0
   51.1626   34.9669   42.1225 H   0  0  0  0  0  0  0  0  0  0  0  0
   50.3641   35.2137   43.4266 H   0  0  0  0  0  0  0  0  0  0  0  0
   49.6779   32.4882   41.4886 H   0  0  0  0  0  0  0  0  0  0  0  0
   46.5694   31.2083   42.0049 H   0  0  0  0  0  0  0  0  0  0  0  0
   47.4555   29.6828   42.2697 H   0  0  0  0  0  0  0  0  0  0  0  0
  1  6  2  0
  2  1  1  0
  3  2  2  0
  3  4  1  0
  4  5  2  0
  5  6  1  0
  5  7  1  0
  7 11  2  0
  7  8  1  0
  8  9  2  0
 10 14  1  0
 10  9  1  0
 11 10  1  0
 12 16  1  0
 13 14  2  0
 13 12  1  0
 14 15  1  0
 15 16  2  0
 17  3  1  0
 18 17  1  0
 19 18  1  0
 19 21  1  0
 19 20  1  0
 21 20  1  0
 21 22  1  0
 23 25  2  0
 23 22  1  0
 24 23  1  0
  1 26  1  0
  2 27  1  0
  8 28  1  0
  9 29  1  0
 12 30  1  0
 15 31  1  0
 16 32  1  0
 17 33  1  0
 17 34  1  0
 18 35  1  0
 18 36  1  0
 19 37  1  6
 20 38  1  0
 20 39  1  0
 21 40  1  6
 24 41  1  0
 24 42  1  0
M  ISO  8  26  14  27  14  28  14  29  14  30   9  31  14  32  14  33   8
M  ISO  7  34   8  35   8  36   8  37  13  38  13  39  13  40  13
M  END
>  <minimizedAffinity>  (1) 
-6.11815596

>  <minimizedRMSD>  (1) 
0.697324932

$$$$
