
     RDKit          3D

 48 52  0  0  1  0  0  0  0  0999 V2000
   44.4040   35.9200   44.6820 C   0  0  0  0  0  0  0  0  0  0  0  0
   44.9830   35.7350   43.4190 C   0  0  0  0  0  0  0  0  0  0  0  0
   45.8730   34.7010   43.2730 C   0  0  0  0  0  0  0  0  0  0  0  0
   46.1330   33.9380   44.3290 N   0  0  0  0  0  0  0  0  0  0  0  0
   45.5760   34.1170   45.5370 C   0  0  0  0  0  0  0  0  0  0  0  0
   44.7050   35.1100   45.7270 N   0  0  0  0  0  0  0  0  0  0  0  0
   45.9380   33.2090   46.6110 C   0  0  0  0  0  0  0  0  0  0  0  0
   45.0440   32.9760   47.6410 C   0  0  0  0  0  0  0  0  0  0  0  0
   45.6080   32.0740   48.5230 C   0  0  0  0  0  0  0  0  0  0  0  0
   46.8290   31.7820   48.0050 N   0  0  0  0  0  0  0  0  0  0  0  0
   47.0080   32.4630   46.8760 N   0  0  0  0  0  0  0  0  0  0  0  0
   49.1390   29.1630   48.7860 N   0  0  0  0  0  0  0  0  0  0  0  0
   48.0390   29.5900   48.1890 N   0  0  0  0  0  0  0  0  0  0  0  0
   47.8630   30.9230   48.4380 C   0  0  0  0  0  0  0  0  0  0  0  0
   48.9000   31.3140   49.2130 C   0  0  0  0  0  0  0  0  0  0  0  0
   49.6770   30.2000   49.4150 C   0  0  0  0  0  0  0  0  0  0  0  0
   46.5250   34.4440   41.9700 C   0  0  0  0  0  0  0  0  0  0  0  0
   47.7480   35.3340   41.8950 C   0  0  0  0  0  0  0  0  0  0  0  0
   48.9960   34.6440   41.5350 C   0  0  1  0  0  0  0  0  0  0  0  0
   50.1430   34.7590   42.5190 C   0  0  0  0  0  0  0  0  0  0  0  0
   49.4840   33.4490   42.1860 C   0  0  1  0  0  0  0  0  0  0  0  0
   48.9740   32.7180   43.2180 O   0  0  0  0  0  0  0  0  0  0  0  0
   48.6120   31.3820   42.7960 C   0  0  0  0  0  0  0  0  0  0  0  0
   49.6560   30.4380   42.7540 C   0  0  0  0  0  0  0  0  0  0  0  0
   49.4670   29.1020   42.3740 C   0  0  0  0  0  0  0  0  0  0  0  0
   48.2070   28.6800   42.0210 C   0  0  0  0  0  0  0  0  0  0  0  0
   47.1500   29.5590   42.0430 C   0  0  0  0  0  0  0  0  0  0  0  0
   47.4220   30.8400   42.4270 C   0  0  0  0  0  0  0  0  0  0  0  0
   43.6881   36.7421   44.8290 H   0  0  0  0  0  0  0  0  0  0  0  0
   44.7329   36.3950   42.5753 H   0  0  0  0  0  0  0  0  0  0  0  0
   44.0486   33.4333   47.7412 H   0  0  0  0  0  0  0  0  0  0  0  0
   45.1630   31.6772   49.4474 H   0  0  0  0  0  0  0  0  0  0  0  0
   49.5099   28.2023   48.7663 H   0  0  0  0  0  0  0  0  0  0  0  0
   49.0847   32.3253   49.6045 H   0  0  0  0  0  0  0  0  0  0  0  0
   50.6034   30.1717   50.0074 H   0  0  0  0  0  0  0  0  0  0  0  0
   46.8234   33.3875   41.9003 H   0  0  0  0  0  0  0  0  0  0  0  0
   45.8354   34.6590   41.1404 H   0  0  0  0  0  0  0  0  0  0  0  0
   47.5583   36.1122   41.1411 H   0  0  0  0  0  0  0  0  0  0  0  0
   47.8992   35.7358   42.9078 H   0  0  0  0  0  0  0  0  0  0  0  0
   48.8022   34.8660   40.4752 H   0  0  0  0  0  0  0  0  0  0  0  0
   51.1615   34.9766   42.1651 H   0  0  0  0  0  0  0  0  0  0  0  0
   50.3495   35.3338   43.4339 H   0  0  0  0  0  0  0  0  0  0  0  0
   49.7144   32.4698   41.7410 H   0  0  0  0  0  0  0  0  0  0  0  0
   50.6687   30.7647   43.0328 H   0  0  0  0  0  0  0  0  0  0  0  0
   50.3147   28.4012   42.3585 H   0  0  0  0  0  0  0  0  0  0  0  0
   48.0439   27.6347   41.7197 H   0  0  0  0  0  0  0  0  0  0  0  0
   46.1334   29.2446   41.7643 H   0  0  0  0  0  0  0  0  0  0  0  0
   46.5622   31.5260   42.4394 H   0  0  0  0  0  0  0  0  0  0  0  0
  1  6  2  0
  2  1  1  0
  3  2  2  0
  3  4  1  0
  4  5  2  0
  5  6  1  0
  5  7  1  0
  7 11  2  0
  7  8  1  0
  8  9  2  0
 10 14  1  0
 10  9  1  0
 11 10  1  0
 12 16  1  0
 13 14  2  0
 13 12  1  0
 14 15  1  0
 15 16  2  0
 17  3  1  0
 18 17  1  0
 19 18  1  0
 19 21  1  0
 19 20  1  0
 21 20  1  0
 21 22  1  0
 23 22  1  0
 24 23  2  0
 25 24  1  0
 26 27  1  0
 26 25  2  0
 27 28  2  0
 28 23  1  0
  1 29  1  0
  2 30  1  0
  8 31  1  0
  9 32  1  0
 12 33  1  0
 15 34  1  0
 16 35  1  0
 17 36  1  0
 17 37  1  0
 18 38  1  0
 18 39  1  0
 19 40  1  6
 20 41  1  0
 20 42  1  0
 21 43  1  6
 24 44  1  0
 25 45  1  0
 26 46  1  0
 27 47  1  0
 28 48  1  0
M  ISO  8  29  14  30  14  31  14  32  14  33   9  34  14  35  14  36   8
M  ISO  8  37   8  38   8  39   8  40  13  41  13  42  13  43  13  44  14
M  ISO  4  45  14  46  14  47  14  48  14
M  END
>  <minimizedAffinity>  (1) 
-6.21698618

>  <minimizedRMSD>  (1) 
0.622266233

$$$$
