
     RDKit          3D

 37 38  0  0  1  0  0  0  0  0999 V2000
   44.5740   35.7590   44.7450 C   0  0  0  0  0  0  0  0  0  0  0  0
   45.3010   35.7830   43.5150 C   0  0  0  0  0  0  0  0  0  0  0  0
   46.2440   34.7770   43.2850 C   0  0  0  0  0  0  0  0  0  0  0  0
   46.3940   33.8430   44.2640 N   0  0  0  0  0  0  0  0  0  0  0  0
   45.7010   33.8400   45.4080 C   0  0  0  0  0  0  0  0  0  0  0  0
   44.7940   34.7850   45.6620 N   0  0  0  0  0  0  0  0  0  0  0  0
   45.9260   32.8030   46.3690 N   0  0  0  0  0  0  0  0  0  0  0  0
   45.2080   32.8310   47.6520 C   0  0  0  0  0  0  0  0  0  0  0  0
   45.9950   32.2620   48.7910 C   0  0  0  0  0  0  0  0  0  0  0  0
   47.4470   32.2700   48.4190 C   0  0  0  0  0  0  0  0  0  0  0  0
   47.6150   31.2700   47.3110 C   0  0  0  0  0  0  0  0  0  0  0  0
   46.8380   31.7360   46.1000 C   0  0  1  0  0  0  0  0  0  0  0  0
   46.2100   30.5500   45.3810 C   0  0  0  0  0  0  0  0  0  0  0  0
   47.3400   29.6520   44.8540 C   0  0  0  0  0  0  0  0  0  0  0  0
   45.3180   29.7230   46.2530 C   0  0  0  0  0  0  0  0  0  0  0  0
   45.4570   30.9720   44.1220 C   0  0  0  0  0  0  0  0  0  0  0  0
   43.8271   36.5400   44.9502 H   0  0  0  0  0  0  0  0  0  0  0  0
   45.1234   36.5718   42.7692 H   0  0  0  0  0  0  0  0  0  0  0  0
   46.8358   34.7418   42.3584 H   0  0  0  0  0  0  0  0  0  0  0  0
   44.9593   33.8760   47.8887 H   0  0  0  0  0  0  0  0  0  0  0  0
   44.3116   32.2044   47.5341 H   0  0  0  0  0  0  0  0  0  0  0  0
   45.8396   32.8744   49.6915 H   0  0  0  0  0  0  0  0  0  0  0  0
   45.6656   31.2333   48.9990 H   0  0  0  0  0  0  0  0  0  0  0  0
   47.7443   33.2713   48.0741 H   0  0  0  0  0  0  0  0  0  0  0  0
   48.0778   32.0128   49.2827 H   0  0  0  0  0  0  0  0  0  0  0  0
   48.6807   31.1819   47.0531 H   0  0  0  0  0  0  0  0  0  0  0  0
   47.2385   30.2893   47.6374 H   0  0  0  0  0  0  0  0  0  0  0  0
   47.5589   32.1932   45.4063 H   0  0  0  0  0  0  0  0  0  0  0  0
   47.8881   29.2164   45.7024 H   0  0  0  0  0  0  0  0  0  0  0  0
   46.9116   28.8452   44.2411 H   0  0  0  0  0  0  0  0  0  0  0  0
   48.0292   30.2515   44.2411 H   0  0  0  0  0  0  0  0  0  0  0  0
   45.5426   29.9312   47.3095 H   0  0  0  0  0  0  0  0  0  0  0  0
   44.2673   29.9736   46.0452 H   0  0  0  0  0  0  0  0  0  0  0  0
   45.4885   28.6564   46.0452 H   0  0  0  0  0  0  0  0  0  0  0  0
   44.5300   31.4915   44.4060 H   0  0  0  0  0  0  0  0  0  0  0  0
   46.0883   31.6478   43.5264 H   0  0  0  0  0  0  0  0  0  0  0  0
   45.2101   30.0808   43.5264 H   0  0  0  0  0  0  0  0  0  0  0  0
  1  6  2  0
  2  1  1  0
  3  2  2  0
  3  4  1  0
  4  5  2  0
  5  6  1  0
  5  7  1  0
  7  8  1  0
  8  9  1  0
 10  9  1  0
 11 10  1  0
 12  7  1  0
 12 11  1  0
 13 12  1  0
 13 15  1  0
 14 13  1  0
 16 13  1  0
  1 17  1  0
  2 18  1  0
  3 19  1  0
  8 20  1  0
  8 21  1  0
  9 22  1  0
  9 23  1  0
 10 24  1  0
 10 25  1  0
 11 26  1  0
 11 27  1  0
 12 28  1  6
 14 29  1  0
 14 30  1  0
 14 31  1  0
 15 32  1  0
 15 33  1  0
 15 34  1  0
 16 35  1  0
 16 36  1  0
 16 37  1  0
M  ISO  8  17  14  18  14  19  14  20  13  21  13  22  13  23  13  24  13
M  ISO  8  25  13  26  13  27  13  28  13  29   8  30   8  31   8  32   8
M  ISO  5  33   8  34   8  35   8  36   8  37   8
M  END
>  <minimizedAffinity>  (1) 
-4.95122242

>  <minimizedRMSD>  (1) 
0.315860599

$$$$
