
     RDKit          3D

 47 51  0  0  1  0  0  0  0  0999 V2000
   44.4310   36.0380   44.5030 C   0  0  0  0  0  0  0  0  0  0  0  0
   45.0500   35.8540   43.2540 C   0  0  0  0  0  0  0  0  0  0  0  0
   45.9340   34.8180   43.1260 C   0  0  0  0  0  0  0  0  0  0  0  0
   46.1570   34.0460   44.1890 N   0  0  0  0  0  0  0  0  0  0  0  0
   45.5580   34.2300   45.3810 C   0  0  0  0  0  0  0  0  0  0  0  0
   44.6930   35.2270   45.5450 N   0  0  0  0  0  0  0  0  0  0  0  0
   45.8880   33.3130   46.4650 C   0  0  0  0  0  0  0  0  0  0  0  0
   45.0140   33.1640   47.5240 C   0  0  0  0  0  0  0  0  0  0  0  0
   45.5480   32.2440   48.4150 C   0  0  0  0  0  0  0  0  0  0  0  0
   46.7170   31.8700   47.8720 N   0  0  0  0  0  0  0  0  0  0  0  0
   46.9180   32.5040   46.7170 N   0  0  0  0  0  0  0  0  0  0  0  0
   48.9430   29.1660   48.6640 N   0  0  0  0  0  0  0  0  0  0  0  0
   47.8460   29.6160   48.0570 N   0  0  0  0  0  0  0  0  0  0  0  0
   47.7290   30.9510   48.3100 C   0  0  0  0  0  0  0  0  0  0  0  0
   48.7830   31.3180   49.0910 C   0  0  0  0  0  0  0  0  0  0  0  0
   49.5170   30.1870   49.2910 C   0  0  0  0  0  0  0  0  0  0  0  0
   46.6490   34.5610   41.8510 C   0  0  0  0  0  0  0  0  0  0  0  0
   47.9300   35.3730   41.8850 C   0  0  0  0  0  0  0  0  0  0  0  0
   49.1250   34.6380   41.4970 C   0  0  1  0  0  0  0  0  0  0  0  0
   50.2560   34.5170   42.4930 C   0  0  0  0  0  0  0  0  0  0  0  0
   49.5340   33.3180   42.0440 C   0  0  1  0  0  0  0  0  0  0  0  0
   48.9050   32.6210   43.0290 O   0  0  0  0  0  0  0  0  0  0  0  0
   48.6090   31.3260   42.6640 C   0  0  0  0  0  0  0  0  0  0  0  0
   49.3750   30.3960   43.4840 N   0  0  0  0  0  0  0  0  0  0  0  0
   48.9020   29.6950   44.5470 C   0  0  0  0  0  0  0  0  0  0  0  0
   49.8530   28.9160   45.0890 N   0  0  0  0  0  0  0  0  0  0  0  0
   50.9530   29.1410   44.3370 C   0  0  0  0  0  0  0  0  0  0  0  0
   50.6340   30.0310   43.3850 N   0  0  0  0  0  0  0  0  0  0  0  0
   43.7160   36.8639   44.6317 H   0  0  0  0  0  0  0  0  0  0  0  0
   44.8306   36.5213   42.4075 H   0  0  0  0  0  0  0  0  0  0  0  0
   44.0539   33.6878   47.6416 H   0  0  0  0  0  0  0  0  0  0  0  0
   45.1084   31.8964   49.3615 H   0  0  0  0  0  0  0  0  0  0  0  0
   49.2866   28.1951   48.6497 H   0  0  0  0  0  0  0  0  0  0  0  0
   48.9982   32.3236   49.4813 H   0  0  0  0  0  0  0  0  0  0  0  0
   50.4433   30.1285   49.8814 H   0  0  0  0  0  0  0  0  0  0  0  0
   46.0265   34.8741   40.9998 H   0  0  0  0  0  0  0  0  0  0  0  0
   46.8683   33.4894   41.7348 H   0  0  0  0  0  0  0  0  0  0  0  0
   47.8140   36.2254   41.1994 H   0  0  0  0  0  0  0  0  0  0  0  0
   48.0779   35.6774   42.9316 H   0  0  0  0  0  0  0  0  0  0  0  0
   48.9648   35.0049   40.4725 H   0  0  0  0  0  0  0  0  0  0  0  0
   51.2939   34.6876   42.1710 H   0  0  0  0  0  0  0  0  0  0  0  0
   50.4858   34.9681   43.4696 H   0  0  0  0  0  0  0  0  0  0  0  0
   49.7296   32.3715   41.5188 H   0  0  0  0  0  0  0  0  0  0  0  0
   47.5343   31.1419   42.8096 H   0  0  0  0  0  0  0  0  0  0  0  0
   48.8698   31.1777   41.6057 H   0  0  0  0  0  0  0  0  0  0  0  0
   47.8684   29.7574   44.9181 H   0  0  0  0  0  0  0  0  0  0  0  0
   51.9391   28.6752   44.4805 H   0  0  0  0  0  0  0  0  0  0  0  0
  1  6  2  0
  2  1  1  0
  3  2  2  0
  3  4  1  0
  4  5  2  0
  5  6  1  0
  5  7  1  0
  7 11  2  0
  7  8  1  0
  8  9  2  0
 10 14  1  0
 10  9  1  0
 11 10  1  0
 12 16  1  0
 13 14  2  0
 13 12  1  0
 14 15  1  0
 15 16  2  0
 17 18  1  0
 17  3  1  0
 19 18  1  0
 19 21  1  0
 19 20  1  0
 21 20  1  0
 21 22  1  0
 23 22  1  0
 23 24  1  0
 24 25  1  0
 25 26  2  0
 27 26  1  0
 28 24  1  0
 28 27  2  0
  1 29  1  0
  2 30  1  0
  8 31  1  0
  9 32  1  0
 12 33  1  0
 15 34  1  0
 16 35  1  0
 17 36  1  0
 17 37  1  0
 18 38  1  0
 18 39  1  0
 19 40  1  6
 20 41  1  0
 20 42  1  0
 21 43  1  6
 23 44  1  0
 23 45  1  0
 25 46  1  0
 27 47  1  0
M  ISO  8  29  14  30  14  31  14  32  14  33   9  34  14  35  14  36   8
M  ISO  8  37   8  38   8  39   8  40  13  41  13  42  13  43  13  44   8
M  ISO  3  45   8  46  14  47  14
M  END
>  <minimizedAffinity>  (1) 
-6.131001

>  <minimizedRMSD>  (1) 
1.11189258

$$$$
