
     RDKit          3D

 48 52  0  0  1  0  0  0  0  0999 V2000
   44.4100   35.9270   44.6960 C   0  0  0  0  0  0  0  0  0  0  0  0
   44.9870   35.7400   43.4380 C   0  0  0  0  0  0  0  0  0  0  0  0
   45.8610   34.6970   43.2880 C   0  0  0  0  0  0  0  0  0  0  0  0
   46.1150   33.9260   44.3330 N   0  0  0  0  0  0  0  0  0  0  0  0
   45.5560   34.1060   45.5520 C   0  0  0  0  0  0  0  0  0  0  0  0
   44.7000   35.1050   45.7470 N   0  0  0  0  0  0  0  0  0  0  0  0
   45.9160   33.1900   46.6180 C   0  0  0  0  0  0  0  0  0  0  0  0
   45.0400   32.9790   47.6650 C   0  0  0  0  0  0  0  0  0  0  0  0
   45.6090   32.0690   48.5480 C   0  0  0  0  0  0  0  0  0  0  0  0
   46.7950   31.7640   48.0110 N   0  0  0  0  0  0  0  0  0  0  0  0
   46.9790   32.4260   46.8690 N   0  0  0  0  0  0  0  0  0  0  0  0
   49.1290   29.1510   48.7860 N   0  0  0  0  0  0  0  0  0  0  0  0
   48.0180   29.5600   48.1740 N   0  0  0  0  0  0  0  0  0  0  0  0
   47.8410   30.8870   48.4440 C   0  0  0  0  0  0  0  0  0  0  0  0
   48.8690   31.2880   49.2370 C   0  0  0  0  0  0  0  0  0  0  0  0
   49.6560   30.1860   49.4340 C   0  0  0  0  0  0  0  0  0  0  0  0
   46.5330   34.4330   41.9830 C   0  0  0  0  0  0  0  0  0  0  0  0
   47.7380   35.3470   41.9120 C   0  0  0  0  0  0  0  0  0  0  0  0
   48.9740   34.6950   41.5010 C   0  0  1  0  0  0  0  0  0  0  0  0
   50.1590   34.7290   42.4360 C   0  0  0  0  0  0  0  0  0  0  0  0
   49.5210   33.4500   42.0960 C   0  0  1  0  0  0  0  0  0  0  0  0
   48.9970   32.7610   43.1500 O   0  0  0  0  0  0  0  0  0  0  0  0
   48.7120   31.4660   42.8370 C   0  0  0  0  0  0  0  0  0  0  0  0
   47.8060   30.7550   43.7950 C   0  0  0  0  0  0  0  0  0  0  0  0
   48.5550   29.7090   44.6230 C   0  0  0  0  0  0  0  0  0  0  0  0
   47.5130   29.3070   43.6510 C   0  0  0  0  0  0  0  0  0  0  0  0
   43.7040   36.7575   44.8439 H   0  0  0  0  0  0  0  0  0  0  0  0
   44.7476   36.4074   42.5971 H   0  0  0  0  0  0  0  0  0  0  0  0
   44.0542   33.4532   47.7808 H   0  0  0  0  0  0  0  0  0  0  0  0
   45.1780   31.6839   49.4839 H   0  0  0  0  0  0  0  0  0  0  0  0
   49.5140   28.1960   48.7613 H   0  0  0  0  0  0  0  0  0  0  0  0
   49.0355   32.2977   49.6404 H   0  0  0  0  0  0  0  0  0  0  0  0
   50.5781   30.1603   50.0332 H   0  0  0  0  0  0  0  0  0  0  0  0
   46.8526   33.3819   41.9286 H   0  0  0  0  0  0  0  0  0  0  0  0
   45.8476   34.6216   41.1436 H   0  0  0  0  0  0  0  0  0  0  0  0
   47.5178   36.1487   41.1918 H   0  0  0  0  0  0  0  0  0  0  0  0
   47.9074   35.7172   42.9339 H   0  0  0  0  0  0  0  0  0  0  0  0
   48.7323   34.9873   40.4684 H   0  0  0  0  0  0  0  0  0  0  0  0
   51.1605   34.9653   42.0473 H   0  0  0  0  0  0  0  0  0  0  0  0
   50.3987   35.2559   43.3714 H   0  0  0  0  0  0  0  0  0  0  0  0
   49.7741   32.4929   41.6164 H   0  0  0  0  0  0  0  0  0  0  0  0
   48.2340   31.4542   41.8463 H   0  0  0  0  0  0  0  0  0  0  0  0
   49.6711   30.9286   42.8732 H   0  0  0  0  0  0  0  0  0  0  0  0
   47.1476   31.6245   43.9384 H   0  0  0  0  0  0  0  0  0  0  0  0
   49.6144   29.4963   44.4170 H   0  0  0  0  0  0  0  0  0  0  0  0
   48.7332   29.5396   45.6952 H   0  0  0  0  0  0  0  0  0  0  0  0
   46.5550   28.9070   44.0147 H   0  0  0  0  0  0  0  0  0  0  0  0
   47.4892   28.6123   42.7984 H   0  0  0  0  0  0  0  0  0  0  0  0
  1  6  2  0
  2  1  1  0
  3  2  2  0
  3  4  1  0
  4  5  2  0
  5  6  1  0
  5  7  1  0
  7 11  2  0
  7  8  1  0
  8  9  2  0
 10 14  1  0
 10  9  1  0
 11 10  1  0
 12 16  1  0
 13 14  2  0
 13 12  1  0
 14 15  1  0
 15 16  2  0
 17  3  1  0
 18 17  1  0
 19 18  1  0
 19 21  1  0
 19 20  1  0
 21 20  1  0
 21 22  1  0
 23 22  1  0
 23 24  1  0
 24 25  1  0
 26 24  1  0
 26 25  1  0
  1 27  1  0
  2 28  1  0
  8 29  1  0
  9 30  1  0
 12 31  1  0
 15 32  1  0
 16 33  1  0
 17 34  1  0
 17 35  1  0
 18 36  1  0
 18 37  1  0
 19 38  1  6
 20 39  1  0
 20 40  1  0
 21 41  1  6
 23 42  1  0
 23 43  1  0
 24 44  1  0
 25 45  1  0
 25 46  1  0
 26 47  1  0
 26 48  1  0
M  ISO  8  27  14  28  14  29  14  30  14  31   9  32  14  33  14  34   8
M  ISO  8  35   8  36   8  37   8  38  13  39  13  40  13  41  13  42   8
M  ISO  6  43   8  44  13  45  13  46  13  47  13  48  13
M  END
>  <minimizedAffinity>  (1) 
-5.97554493

>  <minimizedRMSD>  (1) 
0.374500364

$$$$
