
     RDKit          3D

 48 52  0  0  1  0  0  0  0  0999 V2000
   44.4090   35.9530   44.6760 C   0  0  0  0  0  0  0  0  0  0  0  0
   44.9970   35.7870   43.4230 C   0  0  0  0  0  0  0  0  0  0  0  0
   45.8800   34.7520   43.2620 C   0  0  0  0  0  0  0  0  0  0  0  0
   46.1260   33.9640   44.3070 N   0  0  0  0  0  0  0  0  0  0  0  0
   45.5550   34.1300   45.5150 C   0  0  0  0  0  0  0  0  0  0  0  0
   44.6910   35.1230   45.7180 N   0  0  0  0  0  0  0  0  0  0  0  0
   45.9120   33.1990   46.5770 C   0  0  0  0  0  0  0  0  0  0  0  0
   45.0510   33.0120   47.6400 C   0  0  0  0  0  0  0  0  0  0  0  0
   45.6110   32.0860   48.5100 C   0  0  0  0  0  0  0  0  0  0  0  0
   46.7780   31.7490   47.9500 N   0  0  0  0  0  0  0  0  0  0  0  0
   46.9650   32.4050   46.8040 N   0  0  0  0  0  0  0  0  0  0  0  0
   49.0490   29.0600   48.6690 N   0  0  0  0  0  0  0  0  0  0  0  0
   47.9350   29.5130   48.0880 N   0  0  0  0  0  0  0  0  0  0  0  0
   47.8130   30.8430   48.3620 C   0  0  0  0  0  0  0  0  0  0  0  0
   48.8790   31.2040   49.1290 C   0  0  0  0  0  0  0  0  0  0  0  0
   49.6240   30.0780   49.3000 C   0  0  0  0  0  0  0  0  0  0  0  0
   46.5680   34.5070   41.9640 C   0  0  0  0  0  0  0  0  0  0  0  0
   47.8270   35.3450   41.9680 C   0  0  0  0  0  0  0  0  0  0  0  0
   49.0290   34.6470   41.5300 C   0  0  1  0  0  0  0  0  0  0  0  0
   50.1950   34.5420   42.4850 C   0  0  0  0  0  0  0  0  0  0  0  0
   49.4890   33.3320   42.0410 C   0  0  1  0  0  0  0  0  0  0  0  0
   48.9040   32.6010   43.0280 O   0  0  0  0  0  0  0  0  0  0  0  0
   48.5380   31.3340   42.6330 C   0  0  0  0  0  0  0  0  0  0  0  0
   49.3960   30.3630   43.4090 C   0  0  0  0  0  0  0  0  0  0  0  0
   50.6640   29.8910   43.2340 C   0  0  0  0  0  0  0  0  0  0  0  0
   50.9560   29.0440   44.2370 N   0  0  0  0  0  0  0  0  0  0  0  0
   49.9020   28.9470   45.0710 C   0  0  0  0  0  0  0  0  0  0  0  0
   48.9670   29.7590   44.5420 N   0  0  0  0  0  0  0  0  0  0  0  0
   43.6971   36.7778   44.8272 H   0  0  0  0  0  0  0  0  0  0  0  0
   44.7596   36.4653   42.5902 H   0  0  0  0  0  0  0  0  0  0  0  0
   44.0815   33.5137   47.7753 H   0  0  0  0  0  0  0  0  0  0  0  0
   45.1875   31.7114   49.4536 H   0  0  0  0  0  0  0  0  0  0  0  0
   49.4003   28.0924   48.6340 H   0  0  0  0  0  0  0  0  0  0  0  0
   49.0947   32.2053   49.5300 H   0  0  0  0  0  0  0  0  0  0  0  0
   50.5606   30.0196   49.8739 H   0  0  0  0  0  0  0  0  0  0  0  0
   45.9174   34.8060   41.1289 H   0  0  0  0  0  0  0  0  0  0  0  0
   46.8059   33.4402   41.8401 H   0  0  0  0  0  0  0  0  0  0  0  0
   47.6679   36.2042   41.2998 H   0  0  0  0  0  0  0  0  0  0  0  0
   48.0020   35.6346   43.0147 H   0  0  0  0  0  0  0  0  0  0  0  0
   48.8252   35.0251   40.5173 H   0  0  0  0  0  0  0  0  0  0  0  0
   51.2167   34.7447   42.1313 H   0  0  0  0  0  0  0  0  0  0  0  0
   50.4461   34.9844   43.4603 H   0  0  0  0  0  0  0  0  0  0  0  0
   49.6957   32.3986   41.4969 H   0  0  0  0  0  0  0  0  0  0  0  0
   47.4750   31.1610   42.8570 H   0  0  0  0  0  0  0  0  0  0  0  0
   48.6808   31.2044   41.5500 H   0  0  0  0  0  0  0  0  0  0  0  0
   51.3379   30.1595   42.4071 H   0  0  0  0  0  0  0  0  0  0  0  0
   49.8228   28.3381   45.9837 H   0  0  0  0  0  0  0  0  0  0  0  0
   48.0333   29.9038   44.9521 H   0  0  0  0  0  0  0  0  0  0  0  0
  1  6  2  0
  2  1  1  0
  3  2  2  0
  3  4  1  0
  4  5  2  0
  5  6  1  0
  5  7  1  0
  7 11  2  0
  7  8  1  0
  8  9  2  0
 10 14  1  0
 10  9  1  0
 11 10  1  0
 12 16  1  0
 13 14  2  0
 13 12  1  0
 14 15  1  0
 15 16  2  0
 17 18  1  0
 17  3  1  0
 19 18  1  0
 19 21  1  0
 19 20  1  0
 21 20  1  0
 21 22  1  0
 23 22  1  0
 23 24  1  0
 24 28  1  0
 25 24  2  0
 25 26  1  0
 26 27  2  0
 28 27  1  0
  1 29  1  0
  2 30  1  0
  8 31  1  0
  9 32  1  0
 12 33  1  0
 15 34  1  0
 16 35  1  0
 17 36  1  0
 17 37  1  0
 18 38  1  0
 18 39  1  0
 19 40  1  6
 20 41  1  0
 20 42  1  0
 21 43  1  6
 23 44  1  0
 23 45  1  0
 25 46  1  0
 27 47  1  0
 28 48  1  0
M  ISO  8  29  14  30  14  31  14  32  14  33   9  34  14  35  14  36   8
M  ISO  8  37   8  38   8  39   8  40  13  41  13  42  13  43  13  44   8
M  ISO  4  45   8  46  14  47  14  48   9
M  END
>  <minimizedAffinity>  (1) 
-6.11870432

>  <minimizedRMSD>  (1) 
1.08462536

$$$$
