
     RDKit          3D

 48 52  0  0  1  0  0  0  0  0999 V2000
   44.4280   36.0290   44.5170 C   0  0  0  0  0  0  0  0  0  0  0  0
   45.0460   35.8470   43.2750 C   0  0  0  0  0  0  0  0  0  0  0  0
   45.9300   34.8120   43.1460 C   0  0  0  0  0  0  0  0  0  0  0  0
   46.1550   34.0380   44.2030 N   0  0  0  0  0  0  0  0  0  0  0  0
   45.5570   34.2190   45.3950 C   0  0  0  0  0  0  0  0  0  0  0  0
   44.6890   35.2110   45.5690 N   0  0  0  0  0  0  0  0  0  0  0  0
   45.8940   33.2970   46.4770 C   0  0  0  0  0  0  0  0  0  0  0  0
   45.0210   33.1430   47.5350 C   0  0  0  0  0  0  0  0  0  0  0  0
   45.5640   32.2220   48.4260 C   0  0  0  0  0  0  0  0  0  0  0  0
   46.7310   31.8590   47.8810 N   0  0  0  0  0  0  0  0  0  0  0  0
   46.9380   32.4910   46.7240 N   0  0  0  0  0  0  0  0  0  0  0  0
   48.9620   29.1680   48.6770 N   0  0  0  0  0  0  0  0  0  0  0  0
   47.8570   29.6150   48.0760 N   0  0  0  0  0  0  0  0  0  0  0  0
   47.7460   30.9510   48.3200 C   0  0  0  0  0  0  0  0  0  0  0  0
   48.8140   31.3220   49.0920 C   0  0  0  0  0  0  0  0  0  0  0  0
   49.5470   30.1890   49.2940 C   0  0  0  0  0  0  0  0  0  0  0  0
   46.6430   34.5550   41.8630 C   0  0  0  0  0  0  0  0  0  0  0  0
   47.9030   35.3890   41.8780 C   0  0  0  0  0  0  0  0  0  0  0  0
   49.1110   34.6740   41.4910 C   0  0  1  0  0  0  0  0  0  0  0  0
   50.2390   34.5630   42.4910 C   0  0  0  0  0  0  0  0  0  0  0  0
   49.5350   33.3570   42.0310 C   0  0  1  0  0  0  0  0  0  0  0  0
   48.9110   32.6410   43.0030 O   0  0  0  0  0  0  0  0  0  0  0  0
   48.6480   31.3390   42.6360 C   0  0  0  0  0  0  0  0  0  0  0  0
   49.2780   30.3650   43.5300 N   0  0  0  0  0  0  0  0  0  0  0  0
   50.5770   29.9780   43.3710 C   0  0  0  0  0  0  0  0  0  0  0  0
   50.9590   29.0820   44.3330 C   0  0  0  0  0  0  0  0  0  0  0  0
   49.8630   28.9280   45.0840 N   0  0  0  0  0  0  0  0  0  0  0  0
   48.8760   29.6930   44.5990 C   0  0  0  0  0  0  0  0  0  0  0  0
   43.7130   36.8552   44.6444 H   0  0  0  0  0  0  0  0  0  0  0  0
   44.8276   36.5154   42.4291 H   0  0  0  0  0  0  0  0  0  0  0  0
   44.0580   33.6611   47.6539 H   0  0  0  0  0  0  0  0  0  0  0  0
   45.1285   31.8692   49.3725 H   0  0  0  0  0  0  0  0  0  0  0  0
   49.3033   28.1963   48.6645 H   0  0  0  0  0  0  0  0  0  0  0  0
   49.0363   32.3299   49.4726 H   0  0  0  0  0  0  0  0  0  0  0  0
   50.4778   30.1300   49.8772 H   0  0  0  0  0  0  0  0  0  0  0  0
   46.0078   34.8469   41.0137 H   0  0  0  0  0  0  0  0  0  0  0  0
   46.8827   33.4867   41.7563 H   0  0  0  0  0  0  0  0  0  0  0  0
   47.7653   36.2302   41.1828 H   0  0  0  0  0  0  0  0  0  0  0  0
   48.0516   35.7084   42.9201 H   0  0  0  0  0  0  0  0  0  0  0  0
   48.9508   35.0457   40.4682 H   0  0  0  0  0  0  0  0  0  0  0  0
   51.2758   34.7498   42.1747 H   0  0  0  0  0  0  0  0  0  0  0  0
   50.4585   35.0112   43.4713 H   0  0  0  0  0  0  0  0  0  0  0  0
   49.7469   32.4165   41.5014 H   0  0  0  0  0  0  0  0  0  0  0  0
   47.5596   31.1809   42.6532 H   0  0  0  0  0  0  0  0  0  0  0  0
   49.0637   31.1856   41.6292 H   0  0  0  0  0  0  0  0  0  0  0  0
   51.2360   30.3413   42.5686 H   0  0  0  0  0  0  0  0  0  0  0  0
   51.9399   28.6004   44.4591 H   0  0  0  0  0  0  0  0  0  0  0  0
   47.8662   29.7551   45.0307 H   0  0  0  0  0  0  0  0  0  0  0  0
  1  6  2  0
  2  1  1  0
  3  2  2  0
  3  4  1  0
  4  5  2  0
  5  6  1  0
  5  7  1  0
  7 11  2  0
  7  8  1  0
  8  9  2  0
 10 14  1  0
 10  9  1  0
 11 10  1  0
 12 16  1  0
 13 14  2  0
 13 12  1  0
 14 15  1  0
 15 16  2  0
 17 18  1  0
 17  3  1  0
 19 18  1  0
 19 21  1  0
 19 20  1  0
 21 20  1  0
 21 22  1  0
 23 22  1  0
 23 24  1  0
 24 28  1  0
 25 24  1  0
 25 26  2  0
 26 27  1  0
 28 27  2  0
  1 29  1  0
  2 30  1  0
  8 31  1  0
  9 32  1  0
 12 33  1  0
 15 34  1  0
 16 35  1  0
 17 36  1  0
 17 37  1  0
 18 38  1  0
 18 39  1  0
 19 40  1  6
 20 41  1  0
 20 42  1  0
 21 43  1  6
 23 44  1  0
 23 45  1  0
 25 46  1  0
 26 47  1  0
 28 48  1  0
M  ISO  8  29  14  30  14  31  14  32  14  33   9  34  14  35  14  36   8
M  ISO  8  37   8  38   8  39   8  40  13  41  13  42  13  43  13  44   8
M  ISO  4  45   8  46  14  47  14  48  14
M  END
>  <minimizedAffinity>  (1) 
-6.13698673

>  <minimizedRMSD>  (1) 
1.26694572

$$$$
