
     RDKit          3D

 38 41  0  0  0  0  0  0  0  0999 V2000
   45.6400   34.0950   42.7750 N   0  0  0  0  0  0  0  0  0  0  0  0
   44.9040   33.9000   41.6810 C   0  0  0  0  0  0  0  0  0  0  0  0
   45.6680   34.0380   40.5740 N   0  0  0  0  0  0  0  0  0  0  0  0
   46.9190   34.3290   40.9620 C   0  0  0  0  0  0  0  0  0  0  0  0
   48.0760   34.5660   40.2240 C   0  0  0  0  0  0  0  0  0  0  0  0
   48.0930   34.5340   38.9720 O   0  0  0  0  0  0  0  0  0  0  0  0
   49.2280   34.8410   40.8480 N   0  0  0  0  0  0  0  0  0  0  0  0
   49.2010   34.8740   42.1920 C   0  0  0  0  0  0  0  0  0  0  0  0
   50.3530   35.1530   42.9640 N   0  0  0  0  0  0  0  0  0  0  0  0
   48.0940   34.6470   42.9030 N   0  0  0  0  0  0  0  0  0  0  0  0
   46.8990   34.3640   42.3330 C   0  0  0  0  0  0  0  0  0  0  0  0
   44.4670   35.1790   46.0950 C   0  0  0  0  0  0  0  0  0  0  0  0
   44.7090   35.1740   44.7040 C   0  0  0  0  0  0  0  0  0  0  0  0
   45.4070   34.0840   44.1650 C   0  0  0  0  0  0  0  0  0  0  0  0
   45.8030   33.1020   45.0270 N   0  0  0  0  0  0  0  0  0  0  0  0
   45.5540   33.1440   46.3440 C   0  0  0  0  0  0  0  0  0  0  0  0
   44.8950   34.1610   46.8900 N   0  0  0  0  0  0  0  0  0  0  0  0
   45.9950   32.0860   47.1870 N   0  0  0  0  0  0  0  0  0  0  0  0
   45.1160   31.0770   47.7370 C   0  0  0  0  0  0  0  0  0  0  0  0
   45.2150   31.2000   49.2330 C   0  0  0  0  0  0  0  0  0  0  0  0
   46.5410   31.0780   49.7350 N   0  0  0  0  0  0  0  0  0  0  0  0
   47.5970   31.1330   48.7850 C   0  0  0  0  0  0  0  0  0  0  0  0
   47.3730   31.9390   47.5650 C   0  0  0  0  0  0  0  0  0  0  0  0
   43.8302   33.6613   41.6790 H   0  0  0  0  0  0  0  0  0  0  0  0
   50.0957   35.0192   40.3224 H   0  0  0  0  0  0  0  0  0  0  0  0
   50.2924   35.1694   43.9921 H   0  0  0  0  0  0  0  0  0  0  0  0
   51.2524   35.3398   42.4980 H   0  0  0  0  0  0  0  0  0  0  0  0
   43.9220   36.0221   46.5447 H   0  0  0  0  0  0  0  0  0  0  0  0
   44.3613   35.9984   44.0641 H   0  0  0  0  0  0  0  0  0  0  0  0
   44.0812   31.2532   47.4081 H   0  0  0  0  0  0  0  0  0  0  0  0
   45.4026   30.0702   47.3990 H   0  0  0  0  0  0  0  0  0  0  0  0
   44.8229   32.1850   49.5263 H   0  0  0  0  0  0  0  0  0  0  0  0
   44.6339   30.3698   49.6608 H   0  0  0  0  0  0  0  0  0  0  0  0
   46.6896   31.8419   50.4097 H   0  0  0  0  0  0  0  0  0  0  0  0
   48.4794   31.5457   49.2959 H   0  0  0  0  0  0  0  0  0  0  0  0
   47.7050   30.0996   48.4239 H   0  0  0  0  0  0  0  0  0  0  0  0
   47.9069   31.4567   46.7329 H   0  0  0  0  0  0  0  0  0  0  0  0
   47.7433   32.9504   47.7887 H   0  0  0  0  0  0  0  0  0  0  0  0
  1 14  1  0
  2  1  1  0
  3  4  1  0
  3  2  2  0
  4 11  2  0
  5  7  1  0
  5  4  1  0
  6  5  2  0
  7  8  1  0
  8 10  2  0
  8  9  1  0
 11  1  1  0
 11 10  1  0
 12 17  2  0
 13 12  1  0
 14 13  2  0
 14 15  1  0
 15 16  2  0
 16 17  1  0
 16 18  1  0
 18 23  1  0
 18 19  1  0
 19 20  1  0
 20 21  1  0
 22 21  1  0
 23 22  1  0
  2 24  1  0
  7 25  1  0
  9 26  1  0
  9 27  1  0
 12 28  1  0
 13 29  1  0
 19 30  1  0
 19 31  1  0
 20 32  1  0
 20 33  1  0
 21 34  1  0
 22 35  1  0
 22 36  1  0
 23 37  1  0
 23 38  1  0
M  ISO  8  24  14  25   9  28  14  29  14  30  13  31  13  32  13  33  13
M  ISO  5  34   5  35  13  36  13  37  13  38  13
M  END
>  <minimizedAffinity>  (1) 
-7.78096819

>  <minimizedRMSD>  (1) 
1.14102113

$$$$
