
     RDKit          3D

 37 40  0  0  0  0  0  0  0  0999 V2000
   44.5700   34.7520   46.3310 C   0  0  0  0  0  0  0  0  0  0  0  0
   44.7550   34.8610   44.9320 C   0  0  0  0  0  0  0  0  0  0  0  0
   45.5800   33.9280   44.3220 C   0  0  0  0  0  0  0  0  0  0  0  0
   46.1730   32.9530   45.0880 N   0  0  0  0  0  0  0  0  0  0  0  0
   45.9610   32.9010   46.4130 C   0  0  0  0  0  0  0  0  0  0  0  0
   45.1730   33.7790   47.0410 N   0  0  0  0  0  0  0  0  0  0  0  0
   46.6470   31.8330   47.0590 N   0  0  0  0  0  0  0  0  0  0  0  0
   47.2600   30.9600   46.2120 C   0  0  0  0  0  0  0  0  0  0  0  0
   47.9650   29.8760   46.6850 C   0  0  0  0  0  0  0  0  0  0  0  0
   48.6470   28.8990   45.7990 C   0  0  0  0  0  0  0  0  0  0  0  0
   48.0490   29.6720   48.0540 C   0  0  0  0  0  0  0  0  0  0  0  0
   48.6700   28.7090   48.6080 O   0  0  0  0  0  0  0  0  0  0  0  0
   47.4310   30.5560   48.8530 N   0  0  0  0  0  0  0  0  0  0  0  0
   46.7420   31.6180   48.3950 C   0  0  0  0  0  0  0  0  0  0  0  0
   46.1570   32.4560   49.1080 O   0  0  0  0  0  0  0  0  0  0  0  0
   45.7480   34.0600   42.9180 N   0  0  0  0  0  0  0  0  0  0  0  0
   44.9330   34.0080   41.8490 C   0  0  0  0  0  0  0  0  0  0  0  0
   45.6330   34.2030   40.7170 N   0  0  0  0  0  0  0  0  0  0  0  0
   46.9320   34.3880   41.0560 C   0  0  0  0  0  0  0  0  0  0  0  0
   48.0640   34.6280   40.2750 C   0  0  0  0  0  0  0  0  0  0  0  0
   47.9930   34.7080   39.0260 O   0  0  0  0  0  0  0  0  0  0  0  0
   49.2630   34.7770   40.8630 N   0  0  0  0  0  0  0  0  0  0  0  0
   49.2960   34.6840   42.1890 C   0  0  0  0  0  0  0  0  0  0  0  0
   50.5050   34.8240   42.9220 N   0  0  0  0  0  0  0  0  0  0  0  0
   48.2220   34.4550   42.9500 N   0  0  0  0  0  0  0  0  0  0  0  0
   46.9850   34.2950   42.4300 C   0  0  0  0  0  0  0  0  0  0  0  0
   43.9220   35.4751   46.8479 H   0  0  0  0  0  0  0  0  0  0  0  0
   44.2633   35.6552   44.3510 H   0  0  0  0  0  0  0  0  0  0  0  0
   47.1903   31.1246   45.1266 H   0  0  0  0  0  0  0  0  0  0  0  0
   49.1696   28.1503   46.4124 H   0  0  0  0  0  0  0  0  0  0  0  0
   47.9018   28.3974   45.1641 H   0  0  0  0  0  0  0  0  0  0  0  0
   49.3748   29.4255   45.1641 H   0  0  0  0  0  0  0  0  0  0  0  0
   47.4870   30.4141   49.8716 H   0  0  0  0  0  0  0  0  0  0  0  0
   43.8483   33.8311   41.8942 H   0  0  0  0  0  0  0  0  0  0  0  0
   50.1155   34.9547   40.3130 H   0  0  0  0  0  0  0  0  0  0  0  0
   50.4965   34.7465   43.9490 H   0  0  0  0  0  0  0  0  0  0  0  0
   51.3900   35.0030   42.4264 H   0  0  0  0  0  0  0  0  0  0  0  0
  1  6  2  0
  2  1  1  0
  3  2  2  0
  3  4  1  0
  4  5  2  0
  5  6  1  0
  5  7  1  0
  7 14  1  0
  8  9  2  0
  8  7  1  0
  9 11  1  0
 10  9  1  0
 11 12  2  0
 11 13  1  0
 14 13  1  0
 14 15  2  0
 16  3  1  0
 17 16  1  0
 18 19  1  0
 18 17  2  0
 19 26  2  0
 20 22  1  0
 20 19  1  0
 21 20  2  0
 22 23  1  0
 23 24  1  0
 23 25  2  0
 26 16  1  0
 26 25  1  0
  1 27  1  0
  2 28  1  0
  8 29  1  0
 10 30  1  0
 10 31  1  0
 10 32  1  0
 13 33  1  0
 17 34  1  0
 22 35  1  0
 24 36  1  0
 24 37  1  0
M  ISO  8  27  14  28  14  29  14  30   8  31   8  32   8  33   9  34  14
M  ISO  1  35   9
M  END
>  <minimizedAffinity>  (1) 
-7.31274176

>  <minimizedRMSD>  (1) 
1.52441823

$$$$
