
     RDKit          3D

 35 38  0  0  0  0  0  0  0  0999 V2000
   44.3000   35.6540   44.9320 C   0  0  0  0  0  0  0  0  0  0  0  0
   44.5600   35.3390   43.5830 C   0  0  0  0  0  0  0  0  0  0  0  0
   45.3040   34.1790   43.3030 C   0  0  0  0  0  0  0  0  0  0  0  0
   45.7300   33.4310   44.3510 N   0  0  0  0  0  0  0  0  0  0  0  0
   45.4590   33.7670   45.6250 C   0  0  0  0  0  0  0  0  0  0  0  0
   44.7560   34.8590   45.9290 N   0  0  0  0  0  0  0  0  0  0  0  0
   45.9500   32.9150   46.6550 N   0  0  0  0  0  0  0  0  0  0  0  0
   45.3290   33.0570   47.8410 C   0  0  0  0  0  0  0  0  0  0  0  0
   45.7420   32.2700   48.8970 C   0  0  0  0  0  0  0  0  0  0  0  0
   46.7660   31.3970   48.6410 C   0  0  0  0  0  0  0  0  0  0  0  0
   47.2280   30.5690   49.6780 N   0  0  0  0  0  0  0  0  0  0  0  0
   47.3700   31.2800   47.4310 N   0  0  0  0  0  0  0  0  0  0  0  0
   46.9550   32.0550   46.4120 C   0  0  0  0  0  0  0  0  0  0  0  0
   47.4360   32.0390   45.2450 O   0  0  0  0  0  0  0  0  0  0  0  0
   45.5450   33.8970   41.9460 N   0  0  0  0  0  0  0  0  0  0  0  0
   44.8970   33.2150   40.9820 C   0  0  0  0  0  0  0  0  0  0  0  0
   45.5960   33.2660   39.8220 N   0  0  0  0  0  0  0  0  0  0  0  0
   46.7040   33.9900   40.0450 C   0  0  0  0  0  0  0  0  0  0  0  0
   47.7510   34.3400   39.1880 C   0  0  0  0  0  0  0  0  0  0  0  0
   47.7870   33.9920   37.9990 O   0  0  0  0  0  0  0  0  0  0  0  0
   48.7760   35.0910   39.6530 N   0  0  0  0  0  0  0  0  0  0  0  0
   48.7160   35.4540   40.9330 C   0  0  0  0  0  0  0  0  0  0  0  0
   49.7350   36.2460   41.5430 N   0  0  0  0  0  0  0  0  0  0  0  0
   47.7240   35.1260   41.7620 N   0  0  0  0  0  0  0  0  0  0  0  0
   46.6660   34.3770   41.3610 C   0  0  0  0  0  0  0  0  0  0  0  0
   43.7201   36.5558   45.1778 H   0  0  0  0  0  0  0  0  0  0  0  0
   44.1909   35.9831   42.7712 H   0  0  0  0  0  0  0  0  0  0  0  0
   44.5120   33.7829   47.9655 H   0  0  0  0  0  0  0  0  0  0  0  0
   45.2743   32.3401   49.8901 H   0  0  0  0  0  0  0  0  0  0  0  0
   47.9971   29.9064   49.5041 H   0  0  0  0  0  0  0  0  0  0  0  0
   46.7975   30.6247   50.6121 H   0  0  0  0  0  0  0  0  0  0  0  0
   43.9387   32.6921   41.1168 H   0  0  0  0  0  0  0  0  0  0  0  0
   49.5624   35.3678   39.0481 H   0  0  0  0  0  0  0  0  0  0  0  0
   49.6575   36.5093   42.5358 H   0  0  0  0  0  0  0  0  0  0  0  0
   50.5477   36.5542   40.9904 H   0  0  0  0  0  0  0  0  0  0  0  0
  1  6  2  0
  2  1  1  0
  3  2  2  0
  3  4  1  0
  4  5  2  0
  5  6  1  0
  5  7  1  0
  7  8  1  0
  8  9  2  0
 10  9  1  0
 10 11  1  0
 12 10  2  0
 13  7  1  0
 13 12  1  0
 14 13  2  0
 15  3  1  0
 16 15  1  0
 17 18  1  0
 17 16  2  0
 18 25  2  0
 19 21  1  0
 19 18  1  0
 20 19  2  0
 21 22  1  0
 22 23  1  0
 22 24  2  0
 25 24  1  0
 25 15  1  0
  1 26  1  0
  2 27  1  0
  8 28  1  0
  9 29  1  0
 11 30  1  0
 11 31  1  0
 16 32  1  0
 21 33  1  0
 23 34  1  0
 23 35  1  0
M  ISO  6  26  14  27  14  28  14  29  14  32  14  33   9
M  END
>  <minimizedAffinity>  (1) 
-7.48308086

>  <minimizedRMSD>  (1) 
0.330985963

$$$$
