
     RDKit          3D

 40 43  0  0  0  0  0  0  0  0999 V2000
   45.5910   33.7430   42.2530 N   0  0  0  0  0  0  0  0  0  0  0  0
   44.9490   33.0470   41.2940 C   0  0  0  0  0  0  0  0  0  0  0  0
   45.6240   33.1170   40.1280 N   0  0  0  0  0  0  0  0  0  0  0  0
   46.7180   33.8700   40.3350 C   0  0  0  0  0  0  0  0  0  0  0  0
   47.7490   34.2560   39.4740 C   0  0  0  0  0  0  0  0  0  0  0  0
   47.7790   33.9130   38.2810 O   0  0  0  0  0  0  0  0  0  0  0  0
   48.7600   35.0300   39.9290 N   0  0  0  0  0  0  0  0  0  0  0  0
   48.7100   35.3920   41.2220 C   0  0  0  0  0  0  0  0  0  0  0  0
   49.7150   36.1930   41.8140 N   0  0  0  0  0  0  0  0  0  0  0  0
   47.7330   35.0290   42.0450 N   0  0  0  0  0  0  0  0  0  0  0  0
   46.6900   34.2580   41.6670 C   0  0  0  0  0  0  0  0  0  0  0  0
   44.5170   35.5410   45.2770 C   0  0  0  0  0  0  0  0  0  0  0  0
   44.7630   35.2320   43.9170 C   0  0  0  0  0  0  0  0  0  0  0  0
   45.3610   34.0150   43.6240 C   0  0  0  0  0  0  0  0  0  0  0  0
   45.6850   33.1640   44.6530 N   0  0  0  0  0  0  0  0  0  0  0  0
   45.4250   33.5150   45.9290 C   0  0  0  0  0  0  0  0  0  0  0  0
   44.8470   34.6870   46.2570 N   0  0  0  0  0  0  0  0  0  0  0  0
   45.8510   32.4600   46.8810 C   0  0  0  0  0  0  0  0  0  0  0  0
   44.9980   32.5500   48.1330 C   0  0  0  0  0  0  0  0  0  0  0  0
   45.4470   31.6240   49.2070 C   0  0  0  0  0  0  0  0  0  0  0  0
   46.5350   30.6820   48.7320 C   0  0  0  0  0  0  0  0  0  0  0  0
   47.6950   31.3990   48.0890 C   0  0  0  0  0  0  0  0  0  0  0  0
   47.2860   32.6100   47.3190 C   0  0  0  0  0  0  0  0  0  0  0  0
   44.0068   32.4988   41.4413 H   0  0  0  0  0  0  0  0  0  0  0  0
   49.5310   35.3276   39.3143 H   0  0  0  0  0  0  0  0  0  0  0  0
   49.6471   36.4531   42.8083 H   0  0  0  0  0  0  0  0  0  0  0  0
   50.5145   36.5159   41.2507 H   0  0  0  0  0  0  0  0  0  0  0  0
   44.0457   36.5009   45.5348 H   0  0  0  0  0  0  0  0  0  0  0  0
   44.4883   35.9356   43.1173 H   0  0  0  0  0  0  0  0  0  0  0  0
   45.7378   31.4991   46.3577 H   0  0  0  0  0  0  0  0  0  0  0  0
   45.0441   33.5802   48.5158 H   0  0  0  0  0  0  0  0  0  0  0  0
   43.9733   32.2619   47.8557 H   0  0  0  0  0  0  0  0  0  0  0  0
   45.8347   32.2179   50.0478 H   0  0  0  0  0  0  0  0  0  0  0  0
   44.5827   31.0157   49.5119 H   0  0  0  0  0  0  0  0  0  0  0  0
   46.9094   30.1144   49.5967 H   0  0  0  0  0  0  0  0  0  0  0  0
   46.0914   30.0241   47.9701 H   0  0  0  0  0  0  0  0  0  0  0  0
   48.3960   31.7074   48.8786 H   0  0  0  0  0  0  0  0  0  0  0  0
   48.1560   30.6996   47.3760 H   0  0  0  0  0  0  0  0  0  0  0  0
   47.9309   32.7183   46.4345 H   0  0  0  0  0  0  0  0  0  0  0  0
   47.3863   33.5023   47.9544 H   0  0  0  0  0  0  0  0  0  0  0  0
  1 14  1  0
  2  1  1  0
  3  4  1  0
  3  2  2  0
  4 11  2  0
  5  7  1  0
  5  4  1  0
  6  5  2  0
  7  8  1  0
  8  9  1  0
  8 10  2  0
 11 10  1  0
 11  1  1  0
 12 17  2  0
 13 12  1  0
 14 13  2  0
 14 15  1  0
 15 16  2  0
 16 17  1  0
 16 18  1  0
 18 23  1  0
 18 19  1  0
 19 20  1  0
 21 20  1  0
 22 21  1  0
 23 22  1  0
  2 24  1  0
  7 25  1  0
  9 26  1  0
  9 27  1  0
 12 28  1  0
 13 29  1  0
 18 30  1  0
 19 31  1  0
 19 32  1  0
 20 33  1  0
 20 34  1  0
 21 35  1  0
 21 36  1  0
 22 37  1  0
 22 38  1  0
 23 39  1  0
 23 40  1  0
M  ISO  8  24  14  25   9  28  14  29  14  30  13  31  13  32  13  33  13
M  ISO  7  34  13  35  13  36  13  37  13  38  13  39  13  40  13
M  END
>  <minimizedAffinity>  (1) 
-6.92240238

>  <minimizedRMSD>  (1) 
0.525422335

$$$$
