
     RDKit          3D

 34 37  0  0  0  0  0  0  0  0999 V2000
   44.2780   35.7180   44.9150 C   0  0  0  0  0  0  0  0  0  0  0  0
   44.5490   35.3720   43.5730 C   0  0  0  0  0  0  0  0  0  0  0  0
   45.2730   34.2170   43.3120 C   0  0  0  0  0  0  0  0  0  0  0  0
   45.6930   33.4630   44.3790 N   0  0  0  0  0  0  0  0  0  0  0  0
   45.4120   33.8310   45.6370 C   0  0  0  0  0  0  0  0  0  0  0  0
   44.7210   34.9310   45.9260 N   0  0  0  0  0  0  0  0  0  0  0  0
   45.8830   32.9950   46.7020 N   0  0  0  0  0  0  0  0  0  0  0  0
   45.3370   33.0470   47.9320 C   0  0  0  0  0  0  0  0  0  0  0  0
   45.8370   32.2120   48.9200 C   0  0  0  0  0  0  0  0  0  0  0  0
   46.8670   31.3400   48.6770 C   0  0  0  0  0  0  0  0  0  0  0  0
   47.3560   30.5610   49.5430 O   0  0  0  0  0  0  0  0  0  0  0  0
   47.3970   31.3030   47.4490 N   0  0  0  0  0  0  0  0  0  0  0  0
   46.8870   32.1240   46.5220 C   0  0  0  0  0  0  0  0  0  0  0  0
   47.4180   32.0580   45.3670 O   0  0  0  0  0  0  0  0  0  0  0  0
   45.5230   33.9060   41.9550 N   0  0  0  0  0  0  0  0  0  0  0  0
   44.8990   33.2120   40.9990 C   0  0  0  0  0  0  0  0  0  0  0  0
   45.6070   33.2400   39.8510 N   0  0  0  0  0  0  0  0  0  0  0  0
   46.7110   33.9690   40.0670 C   0  0  0  0  0  0  0  0  0  0  0  0
   47.7660   34.3090   39.2240 C   0  0  0  0  0  0  0  0  0  0  0  0
   47.8230   33.9390   38.0390 O   0  0  0  0  0  0  0  0  0  0  0  0
   48.7780   35.0660   39.6790 N   0  0  0  0  0  0  0  0  0  0  0  0
   48.7180   35.4670   40.9670 C   0  0  0  0  0  0  0  0  0  0  0  0
   49.7200   36.2630   41.5670 N   0  0  0  0  0  0  0  0  0  0  0  0
   47.7060   35.1410   41.7750 N   0  0  0  0  0  0  0  0  0  0  0  0
   46.6640   34.3900   41.3880 C   0  0  0  0  0  0  0  0  0  0  0  0
   43.7053   36.6296   45.1409 H   0  0  0  0  0  0  0  0  0  0  0  0
   44.1924   36.0070   42.7486 H   0  0  0  0  0  0  0  0  0  0  0  0
   44.5098   33.7389   48.1490 H   0  0  0  0  0  0  0  0  0  0  0  0
   45.3950   32.2503   49.9266 H   0  0  0  0  0  0  0  0  0  0  0  0
   48.1724   30.6635   47.2239 H   0  0  0  0  0  0  0  0  0  0  0  0
   43.9399   32.6896   41.1299 H   0  0  0  0  0  0  0  0  0  0  0  0
   49.5666   35.3295   39.0710 H   0  0  0  0  0  0  0  0  0  0  0  0
   49.6315   36.5451   42.5537 H   0  0  0  0  0  0  0  0  0  0  0  0
   50.5387   36.5610   41.0176 H   0  0  0  0  0  0  0  0  0  0  0  0
  1  6  2  0
  2  1  1  0
  3  2  2  0
  3  4  1  0
  4  5  2  0
  5  6  1  0
  5  7  1  0
  7  8  1  0
  8  9  2  0
 10  9  1  0
 10 11  2  0
 12 10  1  0
 13  7  1  0
 13 12  1  0
 14 13  2  0
 15  3  1  0
 16 15  1  0
 17 18  1  0
 17 16  2  0
 18 25  2  0
 19 21  1  0
 19 18  1  0
 20 19  2  0
 21 22  1  0
 22 23  1  0
 22 24  2  0
 25 24  1  0
 25 15  1  0
  1 26  1  0
  2 27  1  0
  8 28  1  0
  9 29  1  0
 12 30  1  0
 16 31  1  0
 21 32  1  0
 23 33  1  0
 23 34  1  0
M  ISO  7  26  14  27  14  28  14  29  14  30   9  31  14  32   9
M  END
>  <minimizedAffinity>  (1) 
-7.1231513

>  <minimizedRMSD>  (1) 
0.259178311

$$$$
