
     RDKit          3D

 31 34  0  0  0  0  0  0  0  0999 V2000
   45.5360   33.8880   42.1170 N   0  0  0  0  0  0  0  0  0  0  0  0
   44.9190   33.1280   41.1920 C   0  0  0  0  0  0  0  0  0  0  0  0
   45.6380   33.1290   40.0420 N   0  0  0  0  0  0  0  0  0  0  0  0
   46.7250   33.8950   40.2310 C   0  0  0  0  0  0  0  0  0  0  0  0
   47.7750   34.2240   39.3730 C   0  0  0  0  0  0  0  0  0  0  0  0
   47.8350   33.7970   38.2030 O   0  0  0  0  0  0  0  0  0  0  0  0
   48.7710   35.0290   39.8050 N   0  0  0  0  0  0  0  0  0  0  0  0
   48.6820   35.4700   41.0570 C   0  0  0  0  0  0  0  0  0  0  0  0
   49.6680   36.3240   41.6270 N   0  0  0  0  0  0  0  0  0  0  0  0
   47.6820   35.1630   41.8880 N   0  0  0  0  0  0  0  0  0  0  0  0
   46.6510   34.3610   41.5210 C   0  0  0  0  0  0  0  0  0  0  0  0
   44.3440   35.8500   44.9920 C   0  0  0  0  0  0  0  0  0  0  0  0
   44.6280   35.4590   43.6660 C   0  0  0  0  0  0  0  0  0  0  0  0
   45.2680   34.2480   43.4540 C   0  0  0  0  0  0  0  0  0  0  0  0
   45.5940   33.4920   44.5480 N   0  0  0  0  0  0  0  0  0  0  0  0
   45.3070   33.8960   45.7980 C   0  0  0  0  0  0  0  0  0  0  0  0
   44.6920   35.0580   46.0300 N   0  0  0  0  0  0  0  0  0  0  0  0
   45.6710   33.0610   46.9370 C   0  0  0  0  0  0  0  0  0  0  0  0
   46.8970   32.5140   47.2590 C   0  0  0  0  0  0  0  0  0  0  0  0
   46.8300   31.7950   48.4040 N   0  0  0  0  0  0  0  0  0  0  0  0
   45.5380   31.8770   48.8290 C   0  0  0  0  0  0  0  0  0  0  0  0
   44.8760   32.6360   47.9340 N   0  0  0  0  0  0  0  0  0  0  0  0
   43.9735   32.5874   41.3461 H   0  0  0  0  0  0  0  0  0  0  0  0
   49.5597   35.2881   39.1953 H   0  0  0  0  0  0  0  0  0  0  0  0
   49.5689   36.6476   42.5998 H   0  0  0  0  0  0  0  0  0  0  0  0
   50.4806   36.6183   41.0666 H   0  0  0  0  0  0  0  0  0  0  0  0
   43.8355   36.8067   45.1819 H   0  0  0  0  0  0  0  0  0  0  0  0
   44.3473   36.1018   42.8186 H   0  0  0  0  0  0  0  0  0  0  0  0
   47.8112   32.6456   46.6616 H   0  0  0  0  0  0  0  0  0  0  0  0
   45.1155   31.4117   49.7318 H   0  0  0  0  0  0  0  0  0  0  0  0
   43.8743   32.8646   48.0057 H   0  0  0  0  0  0  0  0  0  0  0  0
  1 14  1  0
  2  1  1  0
  3  4  1  0
  3  2  2  0
  4 11  2  0
  5  7  1  0
  5  4  1  0
  6  5  2  0
  7  8  1  0
  8  9  1  0
  8 10  2  0
 11 10  1  0
 11  1  1  0
 12 17  2  0
 13 12  1  0
 14 13  2  0
 14 15  1  0
 15 16  2  0
 16 17  1  0
 16 18  1  0
 18 19  2  0
 18 22  1  0
 19 20  1  0
 20 21  2  0
 22 21  1  0
  2 23  1  0
  7 24  1  0
  9 25  1  0
  9 26  1  0
 12 27  1  0
 13 28  1  0
 19 29  1  0
 21 30  1  0
 22 31  1  0
M  ISO  7  23  14  24   9  27  14  28  14  29  14  30  14  31   9
M  END
>  <minimizedAffinity>  (1) 
-6.86280727

>  <minimizedRMSD>  (1) 
0.25178346

$$$$
