
     RDKit          3D

 28 29  0  0  1  0  0  0  0  0999 V2000
   44.5340   35.8910   44.8480 C   0  0  0  0  0  0  0  0  0  0  0  0
   45.1470   35.8950   43.5800 C   0  0  0  0  0  0  0  0  0  0  0  0
   46.0070   34.8330   43.2610 C   0  0  0  0  0  0  0  0  0  0  0  0
   46.1900   33.8740   44.1950 N   0  0  0  0  0  0  0  0  0  0  0  0
   45.5980   33.8880   45.3940 C   0  0  0  0  0  0  0  0  0  0  0  0
   44.7710   34.8950   45.7230 N   0  0  0  0  0  0  0  0  0  0  0  0
   45.8250   32.8430   46.3550 N   0  0  0  0  0  0  0  0  0  0  0  0
   45.1780   32.8910   47.6750 C   0  0  0  0  0  0  0  0  0  0  0  0
   46.0040   32.2510   48.7400 C   0  0  0  0  0  0  0  0  0  0  0  0
   47.4400   32.2320   48.3040 C   0  0  0  0  0  0  0  0  0  0  0  0
   47.4960   31.2250   47.1580 C   0  0  0  0  0  0  0  0  0  0  0  0
   46.7030   31.7440   45.9980 C   0  0  1  0  0  0  0  0  0  0  0  0
   45.9050   30.5860   45.4180 C   0  0  0  0  0  0  0  0  0  0  0  0
   43.8545   36.7100   45.1266 H   0  0  0  0  0  0  0  0  0  0  0  0
   44.9574   36.7060   42.8615 H   0  0  0  0  0  0  0  0  0  0  0  0
   46.5137   34.7831   42.2859 H   0  0  0  0  0  0  0  0  0  0  0  0
   45.0069   33.9433   47.9459 H   0  0  0  0  0  0  0  0  0  0  0  0
   44.2329   32.3327   47.6044 H   0  0  0  0  0  0  0  0  0  0  0  0
   45.9102   32.8251   49.6736 H   0  0  0  0  0  0  0  0  0  0  0  0
   45.6553   31.2218   48.9107 H   0  0  0  0  0  0  0  0  0  0  0  0
   47.7514   33.2285   47.9576 H   0  0  0  0  0  0  0  0  0  0  0  0
   48.1163   31.9571   49.1268 H   0  0  0  0  0  0  0  0  0  0  0  0
   48.5418   31.0773   46.8505 H   0  0  0  0  0  0  0  0  0  0  0  0
   47.0729   30.2660   47.4916 H   0  0  0  0  0  0  0  0  0  0  0  0
   47.4022   32.1523   45.2534 H   0  0  0  0  0  0  0  0  0  0  0  0
   45.4883   29.9813   46.2370 H   0  0  0  0  0  0  0  0  0  0  0  0
   45.0853   30.9793   44.7988 H   0  0  0  0  0  0  0  0  0  0  0  0
   46.5644   29.9600   44.7988 H   0  0  0  0  0  0  0  0  0  0  0  0
  1  6  2  0
  2  1  1  0
  3  2  2  0
  3  4  1  0
  4  5  2  0
  5  6  1  0
  5  7  1  0
  7  8  1  0
  8  9  1  0
 10  9  1  0
 11 10  1  0
 12  7  1  0
 12 11  1  0
 13 12  1  0
  1 14  1  0
  2 15  1  0
  3 16  1  0
  8 17  1  0
  8 18  1  0
  9 19  1  0
  9 20  1  0
 10 21  1  0
 10 22  1  0
 11 23  1  0
 11 24  1  0
 12 25  1  6
 13 26  1  0
 13 27  1  0
 13 28  1  0
M  ISO  8  14  14  15  14  16  14  17  13  18  13  19  13  20  13  21  13
M  ISO  7  22  13  23  13  24  13  25  13  26   8  27   8  28   8
M  END
>  <minimizedAffinity>  (1) 
-4.81809521

>  <minimizedRMSD>  (1) 
0.0396244414

$$$$
