
     RDKit          3D

 32 35  0  0  0  0  0  0  0  0999 V2000
   45.5780   33.8490   42.2240 N   0  0  0  0  0  0  0  0  0  0  0  0
   44.9430   33.1190   41.2860 C   0  0  0  0  0  0  0  0  0  0  0  0
   45.6360   33.1490   40.1240 N   0  0  0  0  0  0  0  0  0  0  0  0
   46.7270   33.9040   40.3150 C   0  0  0  0  0  0  0  0  0  0  0  0
   47.7660   34.2550   39.4440 C   0  0  0  0  0  0  0  0  0  0  0  0
   47.8090   33.8690   38.2660 O   0  0  0  0  0  0  0  0  0  0  0  0
   48.7720   35.0430   39.8780 N   0  0  0  0  0  0  0  0  0  0  0  0
   48.7070   35.4470   41.1500 C   0  0  0  0  0  0  0  0  0  0  0  0
   49.7060   36.2830   41.7310 N   0  0  0  0  0  0  0  0  0  0  0  0
   47.7200   35.1160   41.9830 N   0  0  0  0  0  0  0  0  0  0  0  0
   46.6860   34.3390   41.6290 C   0  0  0  0  0  0  0  0  0  0  0  0
   44.3910   35.6840   45.1750 C   0  0  0  0  0  0  0  0  0  0  0  0
   44.6440   35.3510   43.8300 C   0  0  0  0  0  0  0  0  0  0  0  0
   45.3330   34.1670   43.5750 C   0  0  0  0  0  0  0  0  0  0  0  0
   45.7250   33.3950   44.6380 N   0  0  0  0  0  0  0  0  0  0  0  0
   45.4560   33.7620   45.9060 C   0  0  0  0  0  0  0  0  0  0  0  0
   44.7990   34.8890   46.1810 N   0  0  0  0  0  0  0  0  0  0  0  0
   45.9180   32.8690   46.9620 C   0  0  0  0  0  0  0  0  0  0  0  0
   45.1240   32.5580   48.0350 C   0  0  0  0  0  0  0  0  0  0  0  0
   45.6240   31.7050   49.0000 C   0  0  0  0  0  0  0  0  0  0  0  0
   46.8590   31.1540   48.9480 N   0  0  0  0  0  0  0  0  0  0  0  0
   47.6180   31.4830   47.8730 C   0  0  0  0  0  0  0  0  0  0  0  0
   47.1330   32.3220   46.9190 N   0  0  0  0  0  0  0  0  0  0  0  0
   43.9984   32.5773   41.4422 H   0  0  0  0  0  0  0  0  0  0  0  0
   49.5493   35.3186   39.2609 H   0  0  0  0  0  0  0  0  0  0  0  0
   49.6241   36.5756   42.7152 H   0  0  0  0  0  0  0  0  0  0  0  0
   50.5093   36.5941   41.1664 H   0  0  0  0  0  0  0  0  0  0  0  0
   43.8490   36.6125   45.4076 H   0  0  0  0  0  0  0  0  0  0  0  0
   44.3094   36.0029   43.0096 H   0  0  0  0  0  0  0  0  0  0  0  0
   44.1114   32.9781   48.1258 H   0  0  0  0  0  0  0  0  0  0  0  0
   44.9821   31.4599   49.8590 H   0  0  0  0  0  0  0  0  0  0  0  0
   48.6320   31.0686   47.7723 H   0  0  0  0  0  0  0  0  0  0  0  0
  1 14  1  0
  2  1  1  0
  3  4  1  0
  3  2  2  0
  4 11  2  0
  5  7  1  0
  5  4  1  0
  6  5  2  0
  7  8  1  0
  8  9  1  0
  8 10  2  0
 11 10  1  0
 11  1  1  0
 12 17  2  0
 13 12  1  0
 14 13  2  0
 14 15  1  0
 15 16  2  0
 16 17  1  0
 16 18  1  0
 18 19  2  0
 19 20  1  0
 21 20  2  0
 22 21  1  0
 23 18  1  0
 23 22  2  0
  2 24  1  0
  7 25  1  0
  9 26  1  0
  9 27  1  0
 12 28  1  0
 13 29  1  0
 19 30  1  0
 20 31  1  0
 22 32  1  0
M  ISO  7  24  14  25   9  28  14  29  14  30  14  31  14  32  14
M  END
>  <minimizedAffinity>  (1) 
-6.8393693

>  <minimizedRMSD>  (1) 
0.194929361

$$$$
