
     RDKit          3D

 33 35  0  0  0  0  0  0  0  0999 V2000
   45.6480   34.0890   42.7850 N   0  0  0  0  0  0  0  0  0  0  0  0
   44.9050   33.8790   41.6820 C   0  0  0  0  0  0  0  0  0  0  0  0
   45.6590   34.0070   40.5720 N   0  0  0  0  0  0  0  0  0  0  0  0
   46.9150   34.3060   40.9590 C   0  0  0  0  0  0  0  0  0  0  0  0
   48.0740   34.5410   40.2210 C   0  0  0  0  0  0  0  0  0  0  0  0
   48.0890   34.4970   38.9790 O   0  0  0  0  0  0  0  0  0  0  0  0
   49.2300   34.8290   40.8610 N   0  0  0  0  0  0  0  0  0  0  0  0
   49.1920   34.8700   42.1980 C   0  0  0  0  0  0  0  0  0  0  0  0
   50.3400   35.1600   42.9730 N   0  0  0  0  0  0  0  0  0  0  0  0
   48.0900   34.6480   42.9070 N   0  0  0  0  0  0  0  0  0  0  0  0
   46.8930   34.3550   42.3450 C   0  0  0  0  0  0  0  0  0  0  0  0
   44.4670   35.2040   46.0800 C   0  0  0  0  0  0  0  0  0  0  0  0
   44.7230   35.1870   44.6920 C   0  0  0  0  0  0  0  0  0  0  0  0
   45.4030   34.0870   44.1770 C   0  0  0  0  0  0  0  0  0  0  0  0
   45.7840   33.0890   45.0370 N   0  0  0  0  0  0  0  0  0  0  0  0
   45.5150   33.1560   46.3500 C   0  0  0  0  0  0  0  0  0  0  0  0
   44.8610   34.2010   46.8830 N   0  0  0  0  0  0  0  0  0  0  0  0
   45.9850   32.0040   47.1700 C   0  0  0  0  0  0  0  0  0  0  0  0
   47.3180   32.3970   47.7640 C   0  0  0  0  0  0  0  0  0  0  0  0
   44.9990   31.7890   48.3010 C   0  0  0  0  0  0  0  0  0  0  0  0
   43.8320   33.6367   41.6861 H   0  0  0  0  0  0  0  0  0  0  0  0
   50.1014   35.0089   40.3421 H   0  0  0  0  0  0  0  0  0  0  0  0
   50.2751   35.1834   44.0007 H   0  0  0  0  0  0  0  0  0  0  0  0
   51.2404   35.3477   42.5094 H   0  0  0  0  0  0  0  0  0  0  0  0
   43.9312   36.0603   46.5156 H   0  0  0  0  0  0  0  0  0  0  0  0
   44.3973   36.0122   44.0416 H   0  0  0  0  0  0  0  0  0  0  0  0
   46.0711   31.0890   46.5655 H   0  0  0  0  0  0  0  0  0  0  0  0
   47.2504   32.3771   48.8617 H   0  0  0  0  0  0  0  0  0  0  0  0
   48.0909   31.6885   47.4313 H   0  0  0  0  0  0  0  0  0  0  0  0
   47.5829   33.4115   47.4313 H   0  0  0  0  0  0  0  0  0  0  0  0
   45.5166   31.9019   49.2651 H   0  0  0  0  0  0  0  0  0  0  0  0
   44.1911   32.5321   48.2294 H   0  0  0  0  0  0  0  0  0  0  0  0
   44.5738   30.7770   48.2294 H   0  0  0  0  0  0  0  0  0  0  0  0
  1 14  1  0
  2  1  1  0
  3  4  1  0
  3  2  2  0
  4 11  2  0
  5  7  1  0
  5  4  1  0
  6  5  2  0
  7  8  1  0
  8 10  2  0
  8  9  1  0
 11  1  1  0
 11 10  1  0
 12 17  2  0
 13 12  1  0
 14 13  2  0
 14 15  1  0
 15 16  2  0
 16 17  1  0
 16 18  1  0
 18 19  1  0
 18 20  1  0
  2 21  1  0
  7 22  1  0
  9 23  1  0
  9 24  1  0
 12 25  1  0
 13 26  1  0
 18 27  1  0
 19 28  1  0
 19 29  1  0
 19 30  1  0
 20 31  1  0
 20 32  1  0
 20 33  1  0
M  ISO  8  21  14  22   9  25  14  26  14  27   8  28   8  29   8  30   8
M  ISO  3  31   8  32   8  33   8
M  END
>  <minimizedAffinity>  (1) 
-6.44633865

>  <minimizedRMSD>  (1) 
1.07104385

$$$$
