
     RDKit          3D

 29 32  0  0  0  0  0  0  0  0999 V2000
   45.5560   33.8360   42.1120 N   0  0  0  0  0  0  0  0  0  0  0  0
   44.9540   33.0690   41.1970 C   0  0  0  0  0  0  0  0  0  0  0  0
   45.6660   33.0770   40.0460 N   0  0  0  0  0  0  0  0  0  0  0  0
   46.7490   33.8670   40.2280 C   0  0  0  0  0  0  0  0  0  0  0  0
   47.7900   34.2090   39.3700 C   0  0  0  0  0  0  0  0  0  0  0  0
   47.8460   33.7740   38.1960 O   0  0  0  0  0  0  0  0  0  0  0  0
   48.7660   35.0240   39.7870 N   0  0  0  0  0  0  0  0  0  0  0  0
   48.6820   35.4750   41.0440 C   0  0  0  0  0  0  0  0  0  0  0  0
   49.6550   36.3410   41.6000 N   0  0  0  0  0  0  0  0  0  0  0  0
   47.6880   35.1510   41.8760 N   0  0  0  0  0  0  0  0  0  0  0  0
   46.6760   34.3370   41.5170 C   0  0  0  0  0  0  0  0  0  0  0  0
   44.3120   35.7880   44.9820 C   0  0  0  0  0  0  0  0  0  0  0  0
   44.5970   35.3840   43.6660 C   0  0  0  0  0  0  0  0  0  0  0  0
   45.2930   34.2010   43.4530 C   0  0  0  0  0  0  0  0  0  0  0  0
   45.6600   33.4940   44.5510 N   0  0  0  0  0  0  0  0  0  0  0  0
   45.3870   33.8830   45.7990 C   0  0  0  0  0  0  0  0  0  0  0  0
   44.7140   35.0260   46.0300 N   0  0  0  0  0  0  0  0  0  0  0  0
   45.8260   33.0510   46.9140 C   0  0  0  0  0  0  0  0  0  0  0  0
   47.0680   32.5620   47.0810 N   0  0  0  0  0  0  0  0  0  0  0  0
   47.1370   31.8610   48.1710 O   0  0  0  0  0  0  0  0  0  0  0  0
   45.9610   31.8640   48.7520 C   0  0  0  0  0  0  0  0  0  0  0  0
   45.1200   32.6040   47.9810 N   0  0  0  0  0  0  0  0  0  0  0  0
   44.0181   32.5134   41.3563 H   0  0  0  0  0  0  0  0  0  0  0  0
   49.5455   35.2917   39.1692 H   0  0  0  0  0  0  0  0  0  0  0  0
   49.5579   36.6684   42.5717 H   0  0  0  0  0  0  0  0  0  0  0  0
   50.4597   36.6434   41.0326 H   0  0  0  0  0  0  0  0  0  0  0  0
   43.7621   36.7235   45.1623 H   0  0  0  0  0  0  0  0  0  0  0  0
   44.2721   35.9986   42.8135 H   0  0  0  0  0  0  0  0  0  0  0  0
   45.7016   31.3586   49.6939 H   0  0  0  0  0  0  0  0  0  0  0  0
  1 14  1  0
  2  1  1  0
  3  4  1  0
  3  2  2  0
  4 11  2  0
  5  7  1  0
  5  4  1  0
  6  5  2  0
  7  8  1  0
  8  9  1  0
  8 10  2  0
 11 10  1  0
 11  1  1  0
 12 17  2  0
 13 12  1  0
 14 13  2  0
 14 15  1  0
 15 16  2  0
 16 17  1  0
 16 18  1  0
 18 19  2  0
 18 22  1  0
 19 20  1  0
 20 21  1  0
 22 21  2  0
  2 23  1  0
  7 24  1  0
  9 25  1  0
  9 26  1  0
 12 27  1  0
 13 28  1  0
 21 29  1  0
M  ISO  5  23  14  24   9  27  14  28  14  29  14
M  END
>  <minimizedAffinity>  (1) 
-6.43891096

>  <minimizedRMSD>  (1) 
0.513291597

$$$$
