
     RDKit          3D

 27 29  0  0  0  0  0  0  0  0999 V2000
   45.5660   33.8570   42.1910 N   0  0  0  0  0  0  0  0  0  0  0  0
   44.9300   33.1710   41.2310 C   0  0  0  0  0  0  0  0  0  0  0  0
   45.6200   33.2180   40.0680 N   0  0  0  0  0  0  0  0  0  0  0  0
   46.7240   33.9510   40.2750 C   0  0  0  0  0  0  0  0  0  0  0  0
   47.7640   34.3090   39.4260 C   0  0  0  0  0  0  0  0  0  0  0  0
   47.8060   33.9600   38.2380 O   0  0  0  0  0  0  0  0  0  0  0  0
   48.7810   35.0660   39.8790 N   0  0  0  0  0  0  0  0  0  0  0  0
   48.7320   35.4440   41.1690 C   0  0  0  0  0  0  0  0  0  0  0  0
   49.7400   36.2410   41.7630 N   0  0  0  0  0  0  0  0  0  0  0  0
   47.7350   35.1030   41.9940 N   0  0  0  0  0  0  0  0  0  0  0  0
   46.6890   34.3490   41.6050 C   0  0  0  0  0  0  0  0  0  0  0  0
   44.4310   35.6530   45.1880 C   0  0  0  0  0  0  0  0  0  0  0  0
   44.6800   35.3410   43.8310 C   0  0  0  0  0  0  0  0  0  0  0  0
   45.3300   34.1450   43.5530 C   0  0  0  0  0  0  0  0  0  0  0  0
   45.6860   33.3490   44.5920 N   0  0  0  0  0  0  0  0  0  0  0  0
   45.4320   33.6810   45.8670 C   0  0  0  0  0  0  0  0  0  0  0  0
   44.8100   34.8220   46.1700 N   0  0  0  0  0  0  0  0  0  0  0  0
   45.8540   32.7520   46.9670 C   0  0  0  0  0  0  0  0  0  0  0  0
   47.1900   32.9310   47.2690 F   0  0  0  0  0  0  0  0  0  0  0  0
   45.6560   31.4370   46.6370 F   0  0  0  0  0  0  0  0  0  0  0  0
   45.0240   33.0260   48.0350 F   0  0  0  0  0  0  0  0  0  0  0  0
   43.9760   32.6414   41.3699 H   0  0  0  0  0  0  0  0  0  0  0  0
   49.5609   35.3430   39.2659 H   0  0  0  0  0  0  0  0  0  0  0  0
   49.6664   36.5098   42.7546 H   0  0  0  0  0  0  0  0  0  0  0  0
   50.5470   36.5520   41.2036 H   0  0  0  0  0  0  0  0  0  0  0  0
   43.9182   36.5924   45.4419 H   0  0  0  0  0  0  0  0  0  0  0  0
   44.3699   36.0214   43.0242 H   0  0  0  0  0  0  0  0  0  0  0  0
  1 14  1  0
  2  1  1  0
  3  4  1  0
  3  2  2  0
  4 11  2  0
  5  7  1  0
  5  4  1  0
  6  5  2  0
  7  8  1  0
  8  9  1  0
  8 10  2  0
 11 10  1  0
 11  1  1  0
 12 17  2  0
 13 12  1  0
 14 13  2  0
 14 15  1  0
 15 16  2  0
 16 17  1  0
 16 18  1  0
 18 19  1  0
 18 21  1  0
 20 18  1  0
  2 22  1  0
  7 23  1  0
  9 24  1  0
  9 25  1  0
 12 26  1  0
 13 27  1  0
M  ISO  4  22  14  23   9  26  14  27  14
M  END
>  <minimizedAffinity>  (1) 
-6.24315739

>  <minimizedRMSD>  (1) 
0.192216054

$$$$
