
     RDKit          3D

 32 34  0  0  1  0  0  0  0  0999 V2000
   44.5600   35.8920   44.7680 C   0  0  0  0  0  0  0  0  0  0  0  0
   45.2360   35.8740   43.5090 C   0  0  0  0  0  0  0  0  0  0  0  0
   46.1040   34.8240   43.2430 C   0  0  0  0  0  0  0  0  0  0  0  0
   46.2410   33.8860   44.2170 N   0  0  0  0  0  0  0  0  0  0  0  0
   45.6010   33.9180   45.3870 C   0  0  0  0  0  0  0  0  0  0  0  0
   44.7590   34.9160   45.6740 N   0  0  0  0  0  0  0  0  0  0  0  0
   45.8100   32.8470   46.3310 N   0  0  0  0  0  0  0  0  0  0  0  0
   45.1490   32.9240   47.6440 C   0  0  0  0  0  0  0  0  0  0  0  0
   45.9320   32.2980   48.7450 C   0  0  0  0  0  0  0  0  0  0  0  0
   47.3740   32.2460   48.3400 C   0  0  0  0  0  0  0  0  0  0  0  0
   47.5220   31.2950   47.1910 C   0  0  0  0  0  0  0  0  0  0  0  0
   46.6080   31.7100   46.0500 C   0  0  2  0  0  0  0  0  0  0  0  0
   47.1950   31.5280   44.7160 C   0  0  0  0  0  0  0  0  0  0  0  0
   46.7410   30.3340   43.8240 C   0  0  0  0  0  0  0  0  0  0  0  0
   48.0570   30.2740   44.5080 C   0  0  0  0  0  0  0  0  0  0  0  0
   43.8675   36.7146   45.0001 H   0  0  0  0  0  0  0  0  0  0  0  0
   45.0726   36.6719   42.7696 H   0  0  0  0  0  0  0  0  0  0  0  0
   46.6530   34.7546   42.2923 H   0  0  0  0  0  0  0  0  0  0  0  0
   44.9888   33.9839   47.8907 H   0  0  0  0  0  0  0  0  0  0  0  0
   44.2050   32.3652   47.5624 H   0  0  0  0  0  0  0  0  0  0  0  0
   45.8263   32.8972   49.6614 H   0  0  0  0  0  0  0  0  0  0  0  0
   45.5601   31.2809   48.9380 H   0  0  0  0  0  0  0  0  0  0  0  0
   47.7081   33.2486   48.0348 H   0  0  0  0  0  0  0  0  0  0  0  0
   47.9868   31.9047   49.1873 H   0  0  0  0  0  0  0  0  0  0  0  0
   48.5655   31.3039   46.8432 H   0  0  0  0  0  0  0  0  0  0  0  0
   47.2474   30.2829   47.5230 H   0  0  0  0  0  0  0  0  0  0  0  0
   45.8025   30.9647   45.9749 H   0  0  0  0  0  0  0  0  0  0  0  0
   47.2916   32.6136   44.5670 H   0  0  0  0  0  0  0  0  0  0  0  0
   46.6958   30.4520   42.7313 H   0  0  0  0  0  0  0  0  0  0  0  0
   45.8541   29.6840   43.7928 H   0  0  0  0  0  0  0  0  0  0  0  0
   48.2056   29.5715   45.3413 H   0  0  0  0  0  0  0  0  0  0  0  0
   49.0890   30.1024   44.1682 H   0  0  0  0  0  0  0  0  0  0  0  0
  1  6  2  0
  2  1  1  0
  3  2  2  0
  3  4  1  0
  4  5  2  0
  5  6  1  0
  5  7  1  0
  7  8  1  0
  8  9  1  0
 10  9  1  0
 11 10  1  0
 12  7  1  0
 12 11  1  0
 13 12  1  0
 14 15  1  0
 14 13  1  0
 15 13  1  0
  1 16  1  0
  2 17  1  0
  3 18  1  0
  8 19  1  0
  8 20  1  0
  9 21  1  0
  9 22  1  0
 10 23  1  0
 10 24  1  0
 11 25  1  0
 11 26  1  0
 12 27  1  6
 13 28  1  0
 14 29  1  0
 14 30  1  0
 15 31  1  0
 15 32  1  0
M  ISO  8  16  14  17  14  18  14  19  13  20  13  21  13  22  13  23  13
M  ISO  8  24  13  25  13  26  13  27  13  28  13  29  13  30  13  31  13
M  ISO  1  32  13
M  END
>  <minimizedAffinity>  (1) 
-4.81763983

>  <minimizedRMSD>  (1) 
0.339140743

$$$$
