
     RDKit          3D

 37 40  0  0  0  0  0  0  0  0999 V2000
   44.4560   35.7480   44.3240 C   0  0  0  0  0  0  0  0  0  0  0  0
   44.1720   35.3230   42.9960 C   0  0  0  0  0  0  0  0  0  0  0  0
   44.6070   34.0420   42.6200 C   0  0  0  0  0  0  0  0  0  0  0  0
   45.2760   33.2820   43.5430 N   0  0  0  0  0  0  0  0  0  0  0  0
   45.5130   33.7380   44.7790 C   0  0  0  0  0  0  0  0  0  0  0  0
   45.1190   34.9490   45.1850 N   0  0  0  0  0  0  0  0  0  0  0  0
   44.3150   33.6420   41.3000 N   0  0  0  0  0  0  0  0  0  0  0  0
   43.2320   33.1930   40.6580 C   0  0  0  0  0  0  0  0  0  0  0  0
   43.5290   32.9540   39.3550 N   0  0  0  0  0  0  0  0  0  0  0  0
   44.8220   33.2550   39.1590 C   0  0  0  0  0  0  0  0  0  0  0  0
   45.6230   33.1910   38.0170 C   0  0  0  0  0  0  0  0  0  0  0  0
   45.1710   32.8010   36.9170 O   0  0  0  0  0  0  0  0  0  0  0  0
   46.9240   33.5560   38.0790 N   0  0  0  0  0  0  0  0  0  0  0  0
   47.3750   33.9670   39.2630 C   0  0  0  0  0  0  0  0  0  0  0  0
   48.7190   34.3760   39.4600 N   0  0  0  0  0  0  0  0  0  0  0  0
   46.6210   34.0340   40.3630 N   0  0  0  0  0  0  0  0  0  0  0  0
   45.3110   33.6840   40.3790 C   0  0  0  0  0  0  0  0  0  0  0  0
   47.6240   31.0970   47.3910 C   0  0  0  0  0  0  0  0  0  0  0  0
   47.1430   32.2930   47.8490 C   0  0  0  0  0  0  0  0  0  0  0  0
   46.4510   33.1710   47.0190 C   0  0  0  0  0  0  0  0  0  0  0  0
   46.2390   32.8380   45.6940 C   0  0  0  0  0  0  0  0  0  0  0  0
   46.7080   31.6420   45.1880 C   0  0  0  0  0  0  0  0  0  0  0  0
   47.3920   30.8060   46.0690 C   0  0  0  0  0  0  0  0  0  0  0  0
   48.5010   29.9230   48.3360 S   0  0  0  0  0  0  0  0  0  0  0  0
   49.7290   29.5480   47.5540 O   0  0  0  0  0  0  0  0  0  0  0  0
   48.8030   30.4520   49.6950 O   0  0  0  0  0  0  0  0  0  0  0  0
   44.1293   36.7452   44.6540 H   0  0  0  0  0  0  0  0  0  0  0  0
   43.6326   35.9729   42.2912 H   0  0  0  0  0  0  0  0  0  0  0  0
   42.2447   33.0396   41.1181 H   0  0  0  0  0  0  0  0  0  0  0  0
   47.5359   33.5180   37.2513 H   0  0  0  0  0  0  0  0  0  0  0  0
   49.0313   34.6877   40.3907 H   0  0  0  0  0  0  0  0  0  0  0  0
   49.3825   34.3612   38.6723 H   0  0  0  0  0  0  0  0  0  0  0  0
   47.3074   32.5684   48.9012 H   0  0  0  0  0  0  0  0  0  0  0  0
   46.0746   34.1254   47.4158 H   0  0  0  0  0  0  0  0  0  0  0  0
   46.5489   31.3614   44.1364 H   0  0  0  0  0  0  0  0  0  0  0  0
   47.7712   29.8497   45.6795 H   0  0  0  0  0  0  0  0  0  0  0  0
   47.7533   28.7956   48.5525 H   0  0  0  0  0  0  0  0  0  0  0  0
  1  6  2  0
  2  1  1  0
  3  2  2  0
  3  4  1  0
  4  5  2  0
  5  6  1  0
  5 21  1  0
  7  3  1  0
  8  7  1  0
  9  8  2  0
 10  9  1  0
 10 17  2  0
 11 13  1  0
 11 10  1  0
 12 11  2  0
 13 14  1  0
 14 15  1  0
 14 16  2  0
 16 17  1  0
 17  7  1  0
 18 19  2  0
 18 24  1  0
 20 19  1  0
 21 20  2  0
 22 21  1  0
 22 23  2  0
 23 18  1  0
 24 26  2  0
 25 24  2  0
  1 27  1  0
  2 28  1  0
  8 29  1  0
 13 30  1  0
 15 31  1  0
 15 32  1  0
 19 33  1  0
 20 34  1  0
 22 35  1  0
 23 36  1  0
 24 37  1  0
M  ISO  8  27  14  28  14  29  14  30   9  33  14  34  14  35  14  36  14
M  ISO  1  37  11
M  END
>  <minimizedAffinity>  (1) 
-5.99485731

>  <minimizedRMSD>  (1) 
2.13126564

$$$$
