
     RDKit          3D

 32 34  0  0  1  0  0  0  0  0999 V2000
   44.5200   36.1600   44.7960 C   0  0  0  0  0  0  0  0  0  0  0  0
   44.9320   36.0690   43.4510 C   0  0  0  0  0  0  0  0  0  0  0  0
   45.5710   34.9180   43.0260 C   0  0  0  0  0  0  0  0  0  0  0  0
   45.7590   33.9480   43.9430 N   0  0  0  0  0  0  0  0  0  0  0  0
   45.3700   34.0360   45.2130 C   0  0  0  0  0  0  0  0  0  0  0  0
   44.7530   35.1460   45.6230 N   0  0  0  0  0  0  0  0  0  0  0  0
   45.6300   32.9510   46.1300 N   0  0  0  0  0  0  0  0  0  0  0  0
   45.2080   33.0940   47.5290 C   0  0  0  0  0  0  0  0  0  0  0  0
   46.0590   32.3080   48.4580 C   0  0  0  0  0  0  0  0  0  0  0  0
   47.4310   32.1560   47.8180 C   0  0  0  0  0  0  0  0  0  0  0  0
   47.2230   31.1930   46.6710 C   0  0  0  0  0  0  0  0  0  0  0  0
   46.2900   31.7500   45.6650 C   0  0  2  0  0  0  0  0  0  0  0  0
   47.0150   31.9570   44.3950 C   0  0  0  0  0  0  0  0  0  0  0  0
   48.0640   32.6090   43.8500 C   0  0  0  0  0  0  0  0  0  0  0  0
   48.3200   32.5220   42.5390 C   0  0  0  0  0  0  0  0  0  0  0  0
   47.4680   31.7390   41.7780 C   0  0  0  0  0  0  0  0  0  0  0  0
   46.1780   31.0470   42.9670 S   0  0  0  0  0  0  0  0  0  0  0  0
   44.0091   37.0641   45.1587 H   0  0  0  0  0  0  0  0  0  0  0  0
   44.7487   36.8983   42.7519 H   0  0  0  0  0  0  0  0  0  0  0  0
   45.9105   34.7996   41.9864 H   0  0  0  0  0  0  0  0  0  0  0  0
   45.2661   34.1561   47.8091 H   0  0  0  0  0  0  0  0  0  0  0  0
   44.1795   32.7124   47.6107 H   0  0  0  0  0  0  0  0  0  0  0  0
   46.1508   32.8362   49.4185 H   0  0  0  0  0  0  0  0  0  0  0  0
   45.6117   31.3208   48.6458 H   0  0  0  0  0  0  0  0  0  0  0  0
   47.7944   33.1259   47.4475 H   0  0  0  0  0  0  0  0  0  0  0  0
   48.1825   31.7906   48.5333 H   0  0  0  0  0  0  0  0  0  0  0  0
   48.1919   30.9938   46.1899 H   0  0  0  0  0  0  0  0  0  0  0  0
   46.7895   30.2644   47.0708 H   0  0  0  0  0  0  0  0  0  0  0  0
   45.4797   31.0262   45.4934 H   0  0  0  0  0  0  0  0  0  0  0  0
   48.7166   33.2195   44.4914 H   0  0  0  0  0  0  0  0  0  0  0  0
   49.1714   33.0503   42.0851 H   0  0  0  0  0  0  0  0  0  0  0  0
   47.5312   31.5569   40.6950 H   0  0  0  0  0  0  0  0  0  0  0  0
  1  6  2  0
  2  1  1  0
  3  2  2  0
  3  4  1  0
  4  5  2  0
  5  6  1  0
  5  7  1  0
  7  8  1  0
  8  9  1  0
 10  9  1  0
 11 10  1  0
 12  7  1  0
 12 11  1  0
 13 12  1  0
 14 13  2  0
 15 14  1  0
 16 15  2  0
 16 17  1  0
 17 13  1  0
  1 18  1  0
  2 19  1  0
  3 20  1  0
  8 21  1  0
  8 22  1  0
  9 23  1  0
  9 24  1  0
 10 25  1  0
 10 26  1  0
 11 27  1  0
 11 28  1  0
 12 29  1  6
 14 30  1  0
 15 31  1  0
 16 32  1  0
M  ISO  8  18  14  19  14  20  14  21  13  22  13  23  13  24  13  25  13
M  ISO  7  26  13  27  13  28  13  29  13  30  14  31  14  32  14
M  END
>  <minimizedAffinity>  (1) 
-4.81704664

>  <minimizedRMSD>  (1) 
0.750560224

$$$$
