
     RDKit          3D

 25 27  0  0  0  0  0  0  0  0999 V2000
   45.5510   33.8560   42.1990 N   0  0  0  0  0  0  0  0  0  0  0  0
   44.9110   33.1610   41.2400 C   0  0  0  0  0  0  0  0  0  0  0  0
   45.6160   33.2150   40.0840 N   0  0  0  0  0  0  0  0  0  0  0  0
   46.7250   33.9540   40.2960 C   0  0  0  0  0  0  0  0  0  0  0  0
   47.7680   34.3060   39.4440 C   0  0  0  0  0  0  0  0  0  0  0  0
   47.7980   33.9400   38.2510 O   0  0  0  0  0  0  0  0  0  0  0  0
   48.7840   35.0660   39.9080 N   0  0  0  0  0  0  0  0  0  0  0  0
   48.7190   35.4350   41.1840 C   0  0  0  0  0  0  0  0  0  0  0  0
   49.7400   36.2090   41.7830 N   0  0  0  0  0  0  0  0  0  0  0  0
   47.7250   35.1050   42.0080 N   0  0  0  0  0  0  0  0  0  0  0  0
   46.6800   34.3510   41.6160 C   0  0  0  0  0  0  0  0  0  0  0  0
   44.4350   35.6710   45.1860 C   0  0  0  0  0  0  0  0  0  0  0  0
   44.6840   35.3560   43.8350 C   0  0  0  0  0  0  0  0  0  0  0  0
   45.3120   34.1490   43.5550 C   0  0  0  0  0  0  0  0  0  0  0  0
   45.6480   33.3450   44.6010 N   0  0  0  0  0  0  0  0  0  0  0  0
   45.3990   33.6690   45.8760 C   0  0  0  0  0  0  0  0  0  0  0  0
   44.7970   34.8220   46.1850 N   0  0  0  0  0  0  0  0  0  0  0  0
   45.8500   32.5970   47.2250 S   0  0  0  0  0  0  0  0  0  0  0  0
   43.9579   32.6286   41.3747 H   0  0  0  0  0  0  0  0  0  0  0  0
   49.5698   35.3457   39.3036 H   0  0  0  0  0  0  0  0  0  0  0  0
   49.6656   36.4817   42.7734 H   0  0  0  0  0  0  0  0  0  0  0  0
   50.5580   36.4999   41.2288 H   0  0  0  0  0  0  0  0  0  0  0  0
   43.9391   36.6203   45.4369 H   0  0  0  0  0  0  0  0  0  0  0  0
   44.3905   36.0438   43.0283 H   0  0  0  0  0  0  0  0  0  0  0  0
   45.5863   33.2239   48.4143 H   0  0  0  0  0  0  0  0  0  0  0  0
  1 14  1  0
  2  1  1  0
  3  4  1  0
  3  2  2  0
  4 11  2  0
  5  7  1  0
  5  4  1  0
  6  5  2  0
  7  8  1  0
  8  9  1  0
  8 10  2  0
 11 10  1  0
 11  1  1  0
 12 17  2  0
 13 12  1  0
 14 13  2  0
 14 15  1  0
 15 16  2  0
 16 17  1  0
 16 18  1  0
  2 19  1  0
  7 20  1  0
  9 21  1  0
  9 22  1  0
 12 23  1  0
 13 24  1  0
 18 25  1  0
M  ISO  5  19  14  20   9  23  14  24  14  25  11
M  END
>  <minimizedAffinity>  (1) 
-5.48440599

>  <minimizedRMSD>  (1) 
0.15935035

$$$$
