
     RDKit          3D

 31 32  0  0  1  0  0  0  0  0999 V2000
   44.5340   35.9060   44.8470 C   0  0  0  0  0  0  0  0  0  0  0  0
   45.1350   35.9070   43.5580 C   0  0  0  0  0  0  0  0  0  0  0  0
   45.9820   34.8350   43.2370 C   0  0  0  0  0  0  0  0  0  0  0  0
   46.1710   33.8660   44.1830 N   0  0  0  0  0  0  0  0  0  0  0  0
   45.5840   33.9080   45.3850 C   0  0  0  0  0  0  0  0  0  0  0  0
   44.7690   34.9220   45.7160 N   0  0  0  0  0  0  0  0  0  0  0  0
   45.8250   32.8540   46.3320 N   0  0  0  0  0  0  0  0  0  0  0  0
   45.1780   32.8990   47.6540 C   0  0  0  0  0  0  0  0  0  0  0  0
   46.0320   32.2980   48.7350 C   0  0  0  0  0  0  0  0  0  0  0  0
   47.4560   32.2190   48.2550 C   0  0  0  0  0  0  0  0  0  0  0  0
   47.4450   31.1960   47.1200 C   0  0  0  0  0  0  0  0  0  0  0  0
   46.6930   31.7690   45.9860 C   0  0  1  0  0  0  0  0  0  0  0  0
   45.9140   30.7510   45.1840 C   0  0  0  0  0  0  0  0  0  0  0  0
   45.4220   29.6130   46.0540 C   0  0  0  0  0  0  0  0  0  0  0  0
   43.8641   36.7306   45.1320 H   0  0  0  0  0  0  0  0  0  0  0  0
   44.9432   36.7176   42.8396 H   0  0  0  0  0  0  0  0  0  0  0  0
   46.4775   34.7763   42.2567 H   0  0  0  0  0  0  0  0  0  0  0  0
   44.9721   33.9488   47.9102 H   0  0  0  0  0  0  0  0  0  0  0  0
   44.2523   32.3079   47.5927 H   0  0  0  0  0  0  0  0  0  0  0  0
   45.9819   32.9273   49.6358 H   0  0  0  0  0  0  0  0  0  0  0  0
   45.6669   31.2887   48.9757 H   0  0  0  0  0  0  0  0  0  0  0  0
   47.7929   33.1992   47.8865 H   0  0  0  0  0  0  0  0  0  0  0  0
   48.1443   31.9275   49.0620 H   0  0  0  0  0  0  0  0  0  0  0  0
   48.4766   30.9751   46.8085 H   0  0  0  0  0  0  0  0  0  0  0  0
   46.9703   30.2624   47.4562 H   0  0  0  0  0  0  0  0  0  0  0  0
   47.4997   32.1692   45.3542 H   0  0  0  0  0  0  0  0  0  0  0  0
   45.0478   31.2475   44.7223 H   0  0  0  0  0  0  0  0  0  0  0  0
   46.5826   30.3331   44.4169 H   0  0  0  0  0  0  0  0  0  0  0  0
   45.5393   29.8843   47.1135 H   0  0  0  0  0  0  0  0  0  0  0  0
   44.3603   29.4205   45.8402 H   0  0  0  0  0  0  0  0  0  0  0  0
   46.0091   28.7077   45.8402 H   0  0  0  0  0  0  0  0  0  0  0  0
  1  6  2  0
  2  1  1  0
  3  2  2  0
  3  4  1  0
  4  5  2  0
  5  6  1  0
  5  7  1  0
  7  8  1  0
  8  9  1  0
 10  9  1  0
 11 10  1  0
 12  7  1  0
 12 11  1  0
 13 12  1  0
 13 14  1  0
  1 15  1  0
  2 16  1  0
  3 17  1  0
  8 18  1  0
  8 19  1  0
  9 20  1  0
  9 21  1  0
 10 22  1  0
 10 23  1  0
 11 24  1  0
 11 25  1  0
 12 26  1  6
 13 27  1  0
 13 28  1  0
 14 29  1  0
 14 30  1  0
 14 31  1  0
M  ISO  8  15  14  16  14  17  14  18  13  19  13  20  13  21  13  22  13
M  ISO  8  23  13  24  13  25  13  26  13  27   8  28   8  29   8  30   8
M  ISO  1  31   8
M  END
>  <minimizedAffinity>  (1) 
-4.76775694

>  <minimizedRMSD>  (1) 
0.429408163

$$$$
