
     RDKit          3D

 42 45  0  0  0  0  0  0  0  0999 V2000
   44.5090   35.0590   46.1600 C   0  0  0  0  0  0  0  0  0  0  0  0
   44.7470   35.0590   44.7770 C   0  0  0  0  0  0  0  0  0  0  0  0
   45.4710   33.9810   44.2190 C   0  0  0  0  0  0  0  0  0  0  0  0
   45.8940   33.0130   45.0520 N   0  0  0  0  0  0  0  0  0  0  0  0
   45.6430   33.0500   46.3850 C   0  0  0  0  0  0  0  0  0  0  0  0
   44.9560   34.0660   46.9320 N   0  0  0  0  0  0  0  0  0  0  0  0
   45.6860   34.0240   42.8270 N   0  0  0  0  0  0  0  0  0  0  0  0
   44.9320   33.8360   41.7470 C   0  0  0  0  0  0  0  0  0  0  0  0
   45.6670   34.0050   40.6250 N   0  0  0  0  0  0  0  0  0  0  0  0
   46.9210   34.3090   40.9910 C   0  0  0  0  0  0  0  0  0  0  0  0
   48.0510   34.5750   40.2330 C   0  0  0  0  0  0  0  0  0  0  0  0
   48.0520   34.5670   38.9990 O   0  0  0  0  0  0  0  0  0  0  0  0
   49.2190   34.8600   40.8450 N   0  0  0  0  0  0  0  0  0  0  0  0
   49.2100   34.8670   42.1880 C   0  0  0  0  0  0  0  0  0  0  0  0
   50.3740   35.1520   42.9560 N   0  0  0  0  0  0  0  0  0  0  0  0
   48.1310   34.6120   42.9210 N   0  0  0  0  0  0  0  0  0  0  0  0
   46.9320   34.3210   42.3740 C   0  0  0  0  0  0  0  0  0  0  0  0
   46.1050   31.9910   47.3050 C   0  0  0  0  0  0  0  0  0  0  0  0
   47.2840   32.4630   48.1290 C   0  0  0  0  0  0  0  0  0  0  0  0
   45.0170   31.4900   48.2240 C   0  0  0  0  0  0  0  0  0  0  0  0
   46.6090   30.8510   46.4360 C   0  0  0  0  0  0  0  0  0  0  0  0
   45.7820   29.6030   46.6200 C   0  0  0  0  0  0  0  0  0  0  0  0
   46.2270   28.6520   47.4530 C   0  0  0  0  0  0  0  0  0  0  0  0
   44.9720   27.3130   47.4120 S   0  0  0  0  0  0  0  0  0  0  0  0
   43.9750   28.3560   46.1710 C   0  0  0  0  0  0  0  0  0  0  0  0
   44.6440   29.3040   46.0570 N   0  0  0  0  0  0  0  0  0  0  0  0
   43.9466   35.8883   46.6139 H   0  0  0  0  0  0  0  0  0  0  0  0
   44.3788   35.8785   44.1423 H   0  0  0  0  0  0  0  0  0  0  0  0
   43.8625   33.5795   41.7645 H   0  0  0  0  0  0  0  0  0  0  0  0
   50.0750   35.0622   40.3090 H   0  0  0  0  0  0  0  0  0  0  0  0
   50.3260   35.1475   43.9849 H   0  0  0  0  0  0  0  0  0  0  0  0
   51.2643   35.3628   42.4829 H   0  0  0  0  0  0  0  0  0  0  0  0
   47.0455   32.3675   49.1986 H   0  0  0  0  0  0  0  0  0  0  0  0
   48.1654   31.8484   47.8936 H   0  0  0  0  0  0  0  0  0  0  0  0
   47.4978   33.5160   47.8936 H   0  0  0  0  0  0  0  0  0  0  0  0
   45.3262   31.6324   49.2700 H   0  0  0  0  0  0  0  0  0  0  0  0
   44.0904   32.0521   48.0358 H   0  0  0  0  0  0  0  0  0  0  0  0
   44.8417   30.4205   48.0358 H   0  0  0  0  0  0  0  0  0  0  0  0
   47.6522   30.6307   46.7064 H   0  0  0  0  0  0  0  0  0  0  0  0
   46.5324   31.1617   45.3836 H   0  0  0  0  0  0  0  0  0  0  0  0
   47.1559   28.6702   48.0419 H   0  0  0  0  0  0  0  0  0  0  0  0
   43.0151   28.1242   45.6863 H   0  0  0  0  0  0  0  0  0  0  0  0
  1  6  2  0
  2  1  1  0
  3  2  2  0
  3  4  1  0
  4  5  2  0
  5  6  1  0
  5 18  1  0
  7  3  1  0
  8  7  1  0
  9 10  1  0
  9  8  2  0
 10 17  2  0
 11 13  1  0
 11 10  1  0
 12 11  2  0
 13 14  1  0
 14 16  2  0
 14 15  1  0
 17  7  1  0
 17 16  1  0
 18 19  1  0
 18 20  1  0
 21 22  1  0
 21 18  1  0
 22 23  2  0
 24 23  1  0
 25 24  1  0
 26 25  2  0
 26 22  1  0
  1 27  1  0
  2 28  1  0
  8 29  1  0
 13 30  1  0
 15 31  1  0
 15 32  1  0
 19 33  1  0
 19 34  1  0
 19 35  1  0
 20 36  1  0
 20 37  1  0
 20 38  1  0
 21 39  1  0
 21 40  1  0
 23 41  1  0
 25 42  1  0
M  ISO  8  27  14  28  14  29  14  30   9  33   8  34   8  35   8  36   8
M  ISO  6  37   8  38   8  39   8  40   8  41  14  42  14
M  END
>  <minimizedAffinity>  (1) 
-6.73425293

>  <minimizedRMSD>  (1) 
1.17406619

$$$$
