
     RDKit          3D

 45 48  0  0  0  0  0  0  0  0999 V2000
   44.5300   35.0160   46.1720 C   0  0  0  0  0  0  0  0  0  0  0  0
   44.7640   35.0180   44.7900 C   0  0  0  0  0  0  0  0  0  0  0  0
   45.4900   33.9490   44.2400 C   0  0  0  0  0  0  0  0  0  0  0  0
   45.9210   32.9840   45.0680 N   0  0  0  0  0  0  0  0  0  0  0  0
   45.6720   33.0190   46.4110 C   0  0  0  0  0  0  0  0  0  0  0  0
   44.9850   34.0230   46.9520 N   0  0  0  0  0  0  0  0  0  0  0  0
   45.7020   33.9920   42.8410 N   0  0  0  0  0  0  0  0  0  0  0  0
   44.9540   33.7970   41.7640 C   0  0  0  0  0  0  0  0  0  0  0  0
   45.6710   33.9690   40.6410 N   0  0  0  0  0  0  0  0  0  0  0  0
   46.9320   34.2890   41.0070 C   0  0  0  0  0  0  0  0  0  0  0  0
   48.0610   34.5690   40.2440 C   0  0  0  0  0  0  0  0  0  0  0  0
   48.0490   34.5560   39.0090 O   0  0  0  0  0  0  0  0  0  0  0  0
   49.2190   34.8640   40.8530 N   0  0  0  0  0  0  0  0  0  0  0  0
   49.2160   34.8730   42.2000 C   0  0  0  0  0  0  0  0  0  0  0  0
   50.3790   35.1710   42.9540 N   0  0  0  0  0  0  0  0  0  0  0  0
   48.1380   34.6060   42.9280 N   0  0  0  0  0  0  0  0  0  0  0  0
   46.9500   34.3040   42.3890 C   0  0  0  0  0  0  0  0  0  0  0  0
   46.1480   31.9560   47.3070 C   0  0  0  0  0  0  0  0  0  0  0  0
   47.3400   32.4310   48.1280 C   0  0  0  0  0  0  0  0  0  0  0  0
   45.0860   31.4670   48.2530 C   0  0  0  0  0  0  0  0  0  0  0  0
   46.6340   30.8220   46.4380 C   0  0  0  0  0  0  0  0  0  0  0  0
   45.7450   29.6110   46.5540 C   0  0  0  0  0  0  0  0  0  0  0  0
   46.1290   28.5870   47.3510 C   0  0  0  0  0  0  0  0  0  0  0  0
   44.7990   27.3320   47.2190 S   0  0  0  0  0  0  0  0  0  0  0  0
   43.8920   28.4780   46.0320 C   0  0  0  0  0  0  0  0  0  0  0  0
   44.6090   29.3880   45.9770 N   0  0  0  0  0  0  0  0  0  0  0  0
   42.5520   28.2380   45.3380 C   0  0  0  0  0  0  0  0  0  0  0  0
   43.9635   35.8428   46.6253 H   0  0  0  0  0  0  0  0  0  0  0  0
   44.3896   35.8338   44.1542 H   0  0  0  0  0  0  0  0  0  0  0  0
   43.8872   33.5297   41.7868 H   0  0  0  0  0  0  0  0  0  0  0  0
   50.0719   35.0741   40.3151 H   0  0  0  0  0  0  0  0  0  0  0  0
   50.3401   35.1687   43.9833 H   0  0  0  0  0  0  0  0  0  0  0  0
   51.2629   35.3898   42.4725 H   0  0  0  0  0  0  0  0  0  0  0  0
   47.1077   32.3384   49.1992 H   0  0  0  0  0  0  0  0  0  0  0  0
   48.2190   31.8144   47.8888 H   0  0  0  0  0  0  0  0  0  0  0  0
   47.5541   33.4831   47.8888 H   0  0  0  0  0  0  0  0  0  0  0  0
   45.4196   31.6206   49.2899 H   0  0  0  0  0  0  0  0  0  0  0  0
   44.1552   32.0272   48.0805 H   0  0  0  0  0  0  0  0  0  0  0  0
   44.9065   30.3955   48.0805 H   0  0  0  0  0  0  0  0  0  0  0  0
   47.6531   30.5471   46.7475 H   0  0  0  0  0  0  0  0  0  0  0  0
   46.6178   31.1605   45.3915 H   0  0  0  0  0  0  0  0  0  0  0  0
   47.0476   28.5213   47.9526 H   0  0  0  0  0  0  0  0  0  0  0  0
   41.7668   28.0974   46.0954 H   0  0  0  0  0  0  0  0  0  0  0  0
   42.3039   29.1060   44.7095 H   0  0  0  0  0  0  0  0  0  0  0  0
   42.6206   27.3379   44.7095 H   0  0  0  0  0  0  0  0  0  0  0  0
  1  6  2  0
  2  1  1  0
  3  2  2  0
  3  4  1  0
  4  5  2  0
  5  6  1  0
  5 18  1  0
  7  3  1  0
  8  7  1  0
  9 10  1  0
  9  8  2  0
 10 17  2  0
 11 13  1  0
 11 10  1  0
 12 11  2  0
 13 14  1  0
 14 16  2  0
 14 15  1  0
 17  7  1  0
 17 16  1  0
 18 19  1  0
 18 20  1  0
 21 22  1  0
 21 18  1  0
 22 23  2  0
 24 23  1  0
 25 24  1  0
 26 25  2  0
 26 22  1  0
 27 25  1  0
  1 28  1  0
  2 29  1  0
  8 30  1  0
 13 31  1  0
 15 32  1  0
 15 33  1  0
 19 34  1  0
 19 35  1  0
 19 36  1  0
 20 37  1  0
 20 38  1  0
 20 39  1  0
 21 40  1  0
 21 41  1  0
 23 42  1  0
 27 43  1  0
 27 44  1  0
 27 45  1  0
M  ISO  8  28  14  29  14  30  14  31   9  34   8  35   8  36   8  37   8
M  ISO  8  38   8  39   8  40   8  41   8  42  14  43   8  44   8  45   8
M  END
>  <minimizedAffinity>  (1) 
-6.94151592

>  <minimizedRMSD>  (1) 
0.102687337

$$$$
