
     RDKit          3D

 29 31  0  0  0  0  0  0  0  0999 V2000
   47.3890   35.1740   42.0750 C   0  0  0  0  0  0  0  0  0  0  0  0
   48.7240   35.2590   41.4900 C   0  0  0  0  0  0  0  0  0  0  0  0
   49.5590   34.1040   42.0380 C   0  0  0  0  0  0  0  0  0  0  0  0
   48.6380   33.2740   42.9110 C   0  0  0  0  0  0  0  0  0  0  0  0
   47.5650   34.2220   43.2920 C   0  0  0  0  0  0  0  0  0  0  0  0
   46.3220   34.5760   41.2580 C   0  0  0  0  0  0  0  0  0  0  0  0
   46.6680   33.7930   40.1450 C   0  0  0  0  0  0  0  0  0  0  0  0
   45.6590   33.2130   39.3730 C   0  0  0  0  0  0  0  0  0  0  0  0
   44.3700   33.4510   39.7610 N   0  0  0  0  0  0  0  0  0  0  0  0
   44.0650   34.2160   40.8460 C   0  0  0  0  0  0  0  0  0  0  0  0
   45.0440   34.7750   41.5900 N   0  0  0  0  0  0  0  0  0  0  0  0
   42.6780   34.3700   41.1210 N   0  0  0  0  0  0  0  0  0  0  0  0
   41.8720   35.3710   41.5510 C   0  0  0  0  0  0  0  0  0  0  0  0
   40.6050   34.9240   41.6260 N   0  0  0  0  0  0  0  0  0  0  0  0
   40.6100   33.6320   41.2400 C   0  0  0  0  0  0  0  0  0  0  0  0
   41.8830   33.3410   40.9440 N   0  0  0  0  0  0  0  0  0  0  0  0
   47.0637   36.2081   42.2618 H   0  0  0  0  0  0  0  0  0  0  0  0
   49.1898   36.2175   41.7627 H   0  0  0  0  0  0  0  0  0  0  0  0
   48.6631   35.1973   40.3934 H   0  0  0  0  0  0  0  0  0  0  0  0
   49.9493   33.4929   41.2108 H   0  0  0  0  0  0  0  0  0  0  0  0
   50.4190   34.4768   42.6137 H   0  0  0  0  0  0  0  0  0  0  0  0
   48.2273   32.4223   42.3490 H   0  0  0  0  0  0  0  0  0  0  0  0
   49.1524   32.8407   43.7815 H   0  0  0  0  0  0  0  0  0  0  0  0
   47.8577   34.7928   44.1856 H   0  0  0  0  0  0  0  0  0  0  0  0
   46.6289   33.6977   43.5346 H   0  0  0  0  0  0  0  0  0  0  0  0
   47.7251   33.6377   39.8833 H   0  0  0  0  0  0  0  0  0  0  0  0
   45.8907   32.5937   38.4939 H   0  0  0  0  0  0  0  0  0  0  0  0
   42.2021   36.3903   41.8000 H   0  0  0  0  0  0  0  0  0  0  0  0
   39.7449   32.9552   41.1804 H   0  0  0  0  0  0  0  0  0  0  0  0
  1  5  1  0
  2  3  1  0
  2  1  1  0
  3  4  1  0
  4  5  1  0
  6 11  1  0
  6  1  1  0
  7  6  2  0
  8  9  2  0
  8  7  1  0
  9 10  1  0
 10 12  1  0
 10 11  2  0
 12 13  1  0
 13 14  2  0
 15 14  1  0
 16 12  1  0
 16 15  2  0
  1 17  1  0
  2 18  1  0
  2 19  1  0
  3 20  1  0
  3 21  1  0
  4 22  1  0
  4 23  1  0
  5 24  1  0
  5 25  1  0
  7 26  1  0
  8 27  1  0
 13 28  1  0
 15 29  1  0
M  ISO  8  17  13  18  13  19  13  20  13  21  13  22  13  23  13  24  13
M  ISO  5  25  13  26  14  27  14  28  14  29  14
M  END
>  <minimizedAffinity>  (1) 
-4.95905066

>  <minimizedRMSD>  (1) 
3.0518086

$$$$
