
     RDKit          3D

 35 37  0  0  1  0  0  0  0  0999 V2000
   44.5530   36.1910   44.7680 C   0  0  0  0  0  0  0  0  0  0  0  0
   44.8400   36.0670   43.3940 C   0  0  0  0  0  0  0  0  0  0  0  0
   45.3600   34.8710   42.9360 C   0  0  0  0  0  0  0  0  0  0  0  0
   45.5560   33.9060   43.8350 N   0  0  0  0  0  0  0  0  0  0  0  0
   45.2860   34.0240   45.1360 C   0  0  0  0  0  0  0  0  0  0  0  0
   44.7830   35.1720   45.5900 N   0  0  0  0  0  0  0  0  0  0  0  0
   45.5670   32.9190   46.0240 N   0  0  0  0  0  0  0  0  0  0  0  0
   45.2400   33.0750   47.4590 C   0  0  0  0  0  0  0  0  0  0  0  0
   46.1440   32.2820   48.3350 C   0  0  0  0  0  0  0  0  0  0  0  0
   47.4440   32.0380   47.5780 C   0  0  0  0  0  0  0  0  0  0  0  0
   47.0820   31.0680   46.4890 C   0  0  0  0  0  0  0  0  0  0  0  0
   46.1440   31.6980   45.5240 C   0  0  2  0  0  0  0  0  0  0  0  0
   46.8270   31.9020   44.2030 C   0  0  0  0  0  0  0  0  0  0  0  0
   47.9890   32.6470   43.9830 C   0  0  0  0  0  0  0  0  0  0  0  0
   48.5270   32.7620   42.7220 C   0  0  0  0  0  0  0  0  0  0  0  0
   47.9510   32.1530   41.6260 C   0  0  0  0  0  0  0  0  0  0  0  0
   46.8090   31.4080   41.7690 C   0  0  0  0  0  0  0  0  0  0  0  0
   46.3090   31.3210   43.0380 C   0  0  0  0  0  0  0  0  0  0  0  0
   44.1385   37.1313   45.1605 H   0  0  0  0  0  0  0  0  0  0  0  0
   44.6546   36.9021   42.7024 H   0  0  0  0  0  0  0  0  0  0  0  0
   45.6022   34.7215   41.8735 H   0  0  0  0  0  0  0  0  0  0  0  0
   45.3295   34.1377   47.7284 H   0  0  0  0  0  0  0  0  0  0  0  0
   44.2151   32.7059   47.6120 H   0  0  0  0  0  0  0  0  0  0  0  0
   46.3505   32.8401   49.2601 H   0  0  0  0  0  0  0  0  0  0  0  0
   45.6728   31.3243   48.6010 H   0  0  0  0  0  0  0  0  0  0  0  0
   47.8240   32.9770   47.1491 H   0  0  0  0  0  0  0  0  0  0  0  0
   48.2371   31.6479   48.2328 H   0  0  0  0  0  0  0  0  0  0  0  0
   47.9956   30.7612   45.9586 H   0  0  0  0  0  0  0  0  0  0  0  0
   46.5940   30.1914   46.9401 H   0  0  0  0  0  0  0  0  0  0  0  0
   45.2993   31.0082   45.3804 H   0  0  0  0  0  0  0  0  0  0  0  0
   48.4802   33.1484   44.8300 H   0  0  0  0  0  0  0  0  0  0  0  0
   49.4423   33.3563   42.5836 H   0  0  0  0  0  0  0  0  0  0  0  0
   48.4102   32.2658   40.6328 H   0  0  0  0  0  0  0  0  0  0  0  0
   46.3251   30.9111   40.9152 H   0  0  0  0  0  0  0  0  0  0  0  0
   45.3924   30.7249   43.1589 H   0  0  0  0  0  0  0  0  0  0  0  0
  1  6  2  0
  2  1  1  0
  3  2  2  0
  3  4  1  0
  4  5  2  0
  5  6  1  0
  5  7  1  0
  7  8  1  0
  8  9  1  0
 10  9  1  0
 11 10  1  0
 12  7  1  0
 12 11  1  0
 13 12  1  0
 14 13  2  0
 15 14  1  0
 16 17  1  0
 16 15  2  0
 17 18  2  0
 18 13  1  0
  1 19  1  0
  2 20  1  0
  3 21  1  0
  8 22  1  0
  8 23  1  0
  9 24  1  0
  9 25  1  0
 10 26  1  0
 10 27  1  0
 11 28  1  0
 11 29  1  0
 12 30  1  6
 14 31  1  0
 15 32  1  0
 16 33  1  0
 17 34  1  0
 18 35  1  0
M  ISO  8  19  14  20  14  21  14  22  13  23  13  24  13  25  13  26  13
M  ISO  8  27  13  28  13  29  13  30  13  31  14  32  14  33  14  34  14
M  ISO  1  35  14
M  END
>  <minimizedAffinity>  (1) 
-4.68841839

>  <minimizedRMSD>  (1) 
1.09501219

$$$$
