
     RDKit          3D

 39 41  0  0  0  0  0  0  0  0999 V2000
   46.0390   34.0110   40.6210 C   0  0  0  0  0  0  0  0  0  0  0  0
   46.4660   32.9080   39.8480 C   0  0  0  0  0  0  0  0  0  0  0  0
   45.5150   32.1450   39.1730 C   0  0  0  0  0  0  0  0  0  0  0  0
   44.2050   32.5260   39.3100 N   0  0  0  0  0  0  0  0  0  0  0  0
   43.8290   33.5880   40.0570 C   0  0  0  0  0  0  0  0  0  0  0  0
   44.7440   34.3270   40.7100 N   0  0  0  0  0  0  0  0  0  0  0  0
   47.0440   34.8010   41.3540 C   0  0  0  0  0  0  0  0  0  0  0  0
   48.3260   34.1670   41.6410 C   0  0  0  0  0  0  0  0  0  0  0  0
   48.3060   33.6730   43.0890 C   0  0  0  0  0  0  0  0  0  0  0  0
   46.9220   33.9540   43.6270 C   0  0  0  0  0  0  0  0  0  0  0  0
   46.4290   35.0520   42.7600 C   0  0  0  0  0  0  0  0  0  0  0  0
   42.3950   33.9650   40.1790 C   0  0  0  0  0  0  0  0  0  0  0  0
   41.4620   32.9750   39.5820 C   0  0  0  0  0  0  0  0  0  0  0  0
   41.0260   33.2720   38.1830 C   0  0  0  0  0  0  0  0  0  0  0  0
   40.5270   34.6950   38.0330 C   0  0  0  0  0  0  0  0  0  0  0  0
   41.7440   35.5610   38.3190 C   0  0  0  0  0  0  0  0  0  0  0  0
   42.2340   35.3720   39.7140 C   0  0  0  0  0  0  0  0  0  0  0  0
   47.5344   32.6550   39.7799 H   0  0  0  0  0  0  0  0  0  0  0  0
   45.8017   31.2782   38.5594 H   0  0  0  0  0  0  0  0  0  0  0  0
   47.2564   35.6662   40.7088 H   0  0  0  0  0  0  0  0  0  0  0  0
   48.4808   33.3168   40.9604 H   0  0  0  0  0  0  0  0  0  0  0  0
   49.1448   34.8876   41.4984 H   0  0  0  0  0  0  0  0  0  0  0  0
   48.5138   32.5934   43.1237 H   0  0  0  0  0  0  0  0  0  0  0  0
   49.0740   34.1816   43.6902 H   0  0  0  0  0  0  0  0  0  0  0  0
   46.2788   33.0658   43.5404 H   0  0  0  0  0  0  0  0  0  0  0  0
   46.9233   34.2192   44.6946 H   0  0  0  0  0  0  0  0  0  0  0  0
   46.7583   36.0254   43.1524 H   0  0  0  0  0  0  0  0  0  0  0  0
   45.3299   35.0699   42.7203 H   0  0  0  0  0  0  0  0  0  0  0  0
   42.0924   33.9329   41.2361 H   0  0  0  0  0  0  0  0  0  0  0  0
   41.9610   31.9947   39.5817 H   0  0  0  0  0  0  0  0  0  0  0  0
   40.5510   33.0052   40.1978 H   0  0  0  0  0  0  0  0  0  0  0  0
   41.8797   33.1219   37.5057 H   0  0  0  0  0  0  0  0  0  0  0  0
   40.1965   32.5935   37.9347 H   0  0  0  0  0  0  0  0  0  0  0  0
   40.1565   34.8709   37.0123 H   0  0  0  0  0  0  0  0  0  0  0  0
   39.6891   34.9166   38.7104 H   0  0  0  0  0  0  0  0  0  0  0  0
   42.5476   35.2906   37.6183 H   0  0  0  0  0  0  0  0  0  0  0  0
   41.4542   36.6149   38.1951 H   0  0  0  0  0  0  0  0  0  0  0  0
   43.2146   35.8641   39.7930 H   0  0  0  0  0  0  0  0  0  0  0  0
   41.4525   35.8028   40.3572 H   0  0  0  0  0  0  0  0  0  0  0  0
  1  6  1  0
  1  7  1  0
  2  1  2  0
  3  4  2  0
  3  2  1  0
  4  5  1  0
  5 12  1  0
  5  6  2  0
  7  8  1  0
  7 11  1  0
  8  9  1  0
  9 10  1  0
 11 10  1  0
 13 12  1  0
 14 13  1  0
 15 14  1  0
 15 16  1  0
 16 17  1  0
 17 12  1  0
  2 18  1  0
  3 19  1  0
  7 20  1  0
  8 21  1  0
  8 22  1  0
  9 23  1  0
  9 24  1  0
 10 25  1  0
 10 26  1  0
 11 27  1  0
 11 28  1  0
 12 29  1  0
 13 30  1  0
 13 31  1  0
 14 32  1  0
 14 33  1  0
 15 34  1  0
 15 35  1  0
 16 36  1  0
 16 37  1  0
 17 38  1  0
 17 39  1  0
M  ISO  8  18  14  19  14  20  13  21  13  22  13  23  13  24  13  25  13
M  ISO  8  26  13  27  13  28  13  29  13  30  13  31  13  32  13  33  13
M  ISO  6  34  13  35  13  36  13  37  13  38  13  39  13
M  END
>  <minimizedAffinity>  (1) 
-4.64571047

>  <minimizedRMSD>  (1) 
3.86815786

$$$$
