
     RDKit          3D

 37 40  0  0  0  0  0  0  0  0999 V2000
   46.5420   33.0860   40.8630 C   0  0  0  0  0  0  0  0  0  0  0  0
   47.3500   32.2020   40.1260 C   0  0  0  0  0  0  0  0  0  0  0  0
   47.0090   30.8510   40.0640 C   0  0  0  0  0  0  0  0  0  0  0  0
   45.8850   30.4660   40.7410 N   0  0  0  0  0  0  0  0  0  0  0  0
   45.1210   31.3470   41.4470 C   0  0  0  0  0  0  0  0  0  0  0  0
   45.4540   32.6490   41.5040 N   0  0  0  0  0  0  0  0  0  0  0  0
   43.9940   30.7770   42.0860 N   0  0  0  0  0  0  0  0  0  0  0  0
   44.0980   29.6740   42.8540 C   0  0  0  0  0  0  0  0  0  0  0  0
   42.8790   29.3270   43.3520 N   0  0  0  0  0  0  0  0  0  0  0  0
   41.9860   30.2010   42.9090 C   0  0  0  0  0  0  0  0  0  0  0  0
   40.6250   30.3670   43.0700 C   0  0  0  0  0  0  0  0  0  0  0  0
   39.9720   29.5450   43.7910 O   0  0  0  0  0  0  0  0  0  0  0  0
   39.9970   31.3940   42.4640 N   0  0  0  0  0  0  0  0  0  0  0  0
   40.7360   32.2430   41.7030 C   0  0  0  0  0  0  0  0  0  0  0  0
   39.9970   33.3160   41.0880 N   0  0  0  0  0  0  0  0  0  0  0  0
   42.0750   32.1260   41.5140 N   0  0  0  0  0  0  0  0  0  0  0  0
   42.6830   31.0960   42.1250 C   0  0  0  0  0  0  0  0  0  0  0  0
   46.9180   34.5080   40.9410 C   0  0  0  0  0  0  0  0  0  0  0  0
   48.2480   34.8810   40.4680 C   0  0  0  0  0  0  0  0  0  0  0  0
   49.1510   35.0500   41.6910 C   0  0  0  0  0  0  0  0  0  0  0  0
   48.3430   34.6420   42.9000 C   0  0  0  0  0  0  0  0  0  0  0  0
   46.9420   34.8530   42.4550 C   0  0  0  0  0  0  0  0  0  0  0  0
   48.2436   32.5729   39.6027 H   0  0  0  0  0  0  0  0  0  0  0  0
   47.6156   30.1293   39.4973 H   0  0  0  0  0  0  0  0  0  0  0  0
   45.0345   29.1314   43.0505 H   0  0  0  0  0  0  0  0  0  0  0  0
   38.9823   31.5318   42.5750 H   0  0  0  0  0  0  0  0  0  0  0  0
   40.4841   34.0031   40.4951 H   0  0  0  0  0  0  0  0  0  0  0  0
   38.9816   33.3960   41.2412 H   0  0  0  0  0  0  0  0  0  0  0  0
   46.1962   35.0327   40.2978 H   0  0  0  0  0  0  0  0  0  0  0  0
   48.6475   34.0914   39.8146 H   0  0  0  0  0  0  0  0  0  0  0  0
   48.2018   35.8177   39.8931 H   0  0  0  0  0  0  0  0  0  0  0  0
   50.0387   34.4074   41.5962 H   0  0  0  0  0  0  0  0  0  0  0  0
   49.4944   36.0910   41.7830 H   0  0  0  0  0  0  0  0  0  0  0  0
   48.5213   33.5873   43.1566 H   0  0  0  0  0  0  0  0  0  0  0  0
   48.6001   35.2124   43.8047 H   0  0  0  0  0  0  0  0  0  0  0  0
   46.6441   35.9000   42.6133 H   0  0  0  0  0  0  0  0  0  0  0  0
   46.2397   34.2250   43.0228 H   0  0  0  0  0  0  0  0  0  0  0  0
  1 18  1  0
  1  6  1  0
  2  1  2  0
  3  2  1  0
  3  4  2  0
  4  5  1  0
  5  6  2  0
  5  7  1  0
  7 17  1  0
  7  8  1  0
  8  9  2  0
 10 11  1  0
 10  9  1  0
 11 12  2  0
 13 11  1  0
 14 13  1  0
 15 14  1  0
 16 14  2  0
 16 17  1  0
 17 10  2  0
 18 22  1  0
 19 18  1  0
 19 20  1  0
 20 21  1  0
 22 21  1  0
  2 23  1  0
  3 24  1  0
  8 25  1  0
 13 26  1  0
 15 27  1  0
 15 28  1  0
 18 29  1  0
 19 30  1  0
 19 31  1  0
 20 32  1  0
 20 33  1  0
 21 34  1  0
 21 35  1  0
 22 36  1  0
 22 37  1  0
M  ISO  8  23  14  24  14  25  14  26   9  29  13  30  13  31  13  32  13
M  ISO  5  33  13  34  13  35  13  36  13  37  13
M  END
>  <minimizedAffinity>  (1) 
-4.79834604

>  <minimizedRMSD>  (1) 
1.97419918

$$$$
