
     RDKit          3D

 30 32  0  0  0  0  0  0  0  0999 V2000
   46.4920   33.0070   38.0370 C   0  0  0  0  0  0  0  0  0  0  0  0
   45.4680   32.2880   38.6770 C   0  0  0  0  0  0  0  0  0  0  0  0
   45.3720   32.3060   40.0690 C   0  0  0  0  0  0  0  0  0  0  0  0
   46.3170   33.0480   40.7360 N   0  0  0  0  0  0  0  0  0  0  0  0
   47.2940   33.7310   40.0900 C   0  0  0  0  0  0  0  0  0  0  0  0
   47.3770   33.7070   38.7560 N   0  0  0  0  0  0  0  0  0  0  0  0
   48.1890   34.4470   40.9300 N   0  0  0  0  0  0  0  0  0  0  0  0
   48.7410   35.6630   40.8610 N   0  0  0  0  0  0  0  0  0  0  0  0
   49.5360   35.8430   41.9520 C   0  0  0  0  0  0  0  0  0  0  0  0
   49.4590   34.6750   42.7170 C   0  0  0  0  0  0  0  0  0  0  0  0
   48.6020   33.8260   42.0370 C   0  0  0  0  0  0  0  0  0  0  0  0
   46.5870   32.9610   36.5700 C   0  0  0  0  0  0  0  0  0  0  0  0
   46.0310   31.7860   35.8920 C   0  0  0  0  0  0  0  0  0  0  0  0
   47.1940   30.8510   35.5540 C   0  0  0  0  0  0  0  0  0  0  0  0
   48.4450   31.4530   36.1400 C   0  0  0  0  0  0  0  0  0  0  0  0
   48.1110   32.8940   36.2570 C   0  0  0  0  0  0  0  0  0  0  0  0
   44.7438   31.7123   38.0819 H   0  0  0  0  0  0  0  0  0  0  0  0
   44.5830   31.7563   40.6032 H   0  0  0  0  0  0  0  0  0  0  0  0
   50.1281   36.7397   42.1874 H   0  0  0  0  0  0  0  0  0  0  0  0
   49.9749   34.4717   43.6670 H   0  0  0  0  0  0  0  0  0  0  0  0
   48.3115   32.8137   42.3546 H   0  0  0  0  0  0  0  0  0  0  0  0
   46.0153   33.8303   36.2130 H   0  0  0  0  0  0  0  0  0  0  0  0
   45.3184   31.2732   36.5547 H   0  0  0  0  0  0  0  0  0  0  0  0
   45.4983   32.0849   34.9772 H   0  0  0  0  0  0  0  0  0  0  0  0
   47.0157   29.8571   35.9903 H   0  0  0  0  0  0  0  0  0  0  0  0
   47.2936   30.7352   34.4647 H   0  0  0  0  0  0  0  0  0  0  0  0
   48.6661   31.0189   37.1262 H   0  0  0  0  0  0  0  0  0  0  0  0
   49.3389   31.2678   35.5263 H   0  0  0  0  0  0  0  0  0  0  0  0
   48.6886   33.3546   37.0720 H   0  0  0  0  0  0  0  0  0  0  0  0
   48.3555   33.4391   35.3334 H   0  0  0  0  0  0  0  0  0  0  0  0
  1  2  2  0
  1  6  1  0
  2  3  1  0
  3  4  2  0
  5  4  1  0
  5  7  1  0
  6  5  2  0
  7 11  1  0
  8  7  1  0
  8  9  2  0
  9 10  1  0
 11 10  2  0
 12  1  1  0
 13 12  1  0
 14 13  1  0
 14 15  1  0
 15 16  1  0
 16 12  1  0
  2 17  1  0
  3 18  1  0
  9 19  1  0
 10 20  1  0
 11 21  1  0
 12 22  1  0
 13 23  1  0
 13 24  1  0
 14 25  1  0
 14 26  1  0
 15 27  1  0
 15 28  1  0
 16 29  1  0
 16 30  1  0
M  ISO  8  17  14  18  14  19  14  20  14  21  14  22  13  23  13  24  13
M  ISO  6  25  13  26  13  27  13  28  13  29  13  30  13
M  END
>  <minimizedAffinity>  (1) 
-3.58364367

>  <minimizedRMSD>  (1) 
6.09301615

$$$$
