
     RDKit          3D

 26 27  0  0  0  0  0  0  0  0999 V2000
   46.9060   34.7490   42.6020 C   0  0  0  0  0  0  0  0  0  0  0  0
   46.6750   34.0410   43.8590 C   0  0  0  0  0  0  0  0  0  0  0  0
   45.2320   33.5390   43.8540 C   0  0  0  0  0  0  0  0  0  0  0  0
   44.6510   33.8610   42.4980 C   0  0  0  0  0  0  0  0  0  0  0  0
   45.4770   35.0040   42.0390 C   0  0  0  0  0  0  0  0  0  0  0  0
   47.6240   34.0290   41.5380 C   0  0  0  0  0  0  0  0  0  0  0  0
   48.3280   32.8550   41.8550 C   0  0  0  0  0  0  0  0  0  0  0  0
   48.9960   32.1620   40.8460 C   0  0  0  0  0  0  0  0  0  0  0  0
   48.9180   32.6830   39.5820 N   0  0  0  0  0  0  0  0  0  0  0  0
   48.2280   33.8220   39.3060 C   0  0  0  0  0  0  0  0  0  0  0  0
   47.5830   34.4910   40.2860 N   0  0  0  0  0  0  0  0  0  0  0  0
   48.2010   34.3100   37.9060 C   0  0  0  0  0  0  0  0  0  0  0  0
   47.5366   35.6176   42.8424 H   0  0  0  0  0  0  0  0  0  0  0  0
   47.3670   33.1899   43.9417 H   0  0  0  0  0  0  0  0  0  0  0  0
   46.8457   34.7112   44.7144 H   0  0  0  0  0  0  0  0  0  0  0  0
   45.2105   32.4525   44.0247 H   0  0  0  0  0  0  0  0  0  0  0  0
   44.6487   34.0205   44.6527 H   0  0  0  0  0  0  0  0  0  0  0  0
   44.7472   33.0048   41.8141 H   0  0  0  0  0  0  0  0  0  0  0  0
   43.5760   34.0917   42.5327 H   0  0  0  0  0  0  0  0  0  0  0  0
   45.4998   35.0430   40.9399 H   0  0  0  0  0  0  0  0  0  0  0  0
   45.0696   35.9639   42.3892 H   0  0  0  0  0  0  0  0  0  0  0  0
   48.3520   32.4855   42.8908 H   0  0  0  0  0  0  0  0  0  0  0  0
   49.5589   31.2405   41.0555 H   0  0  0  0  0  0  0  0  0  0  0  0
   48.1402   35.4083   37.9016 H   0  0  0  0  0  0  0  0  0  0  0  0
   49.1181   33.9915   37.3889 H   0  0  0  0  0  0  0  0  0  0  0  0
   47.3246   33.8922   37.3889 H   0  0  0  0  0  0  0  0  0  0  0  0
  1  2  1  0
  3  2  1  0
  4  3  1  0
  5  4  1  0
  5  1  1  0
  6  7  2  0
  6  1  1  0
  8  7  1  0
  9  8  2  0
 10  9  1  0
 10 11  2  0
 11  6  1  0
 12 10  1  0
  1 13  1  0
  2 14  1  0
  2 15  1  0
  3 16  1  0
  3 17  1  0
  4 18  1  0
  4 19  1  0
  5 20  1  0
  5 21  1  0
  7 22  1  0
  8 23  1  0
 12 24  1  0
 12 25  1  0
 12 26  1  0
M  ISO  8  13  13  14  13  15  13  16  13  17  13  18  13  19  13  20  13
M  ISO  6  21  13  22  14  23  14  24   8  25   8  26   8
M  END
>  <minimizedAffinity>  (1) 
-3.41987062

>  <minimizedRMSD>  (1) 
4.24511242

$$$$
