
     RDKit          3D

 39 42  0  0  0  0  0  0  0  0999 V2000
   47.9790   34.0910   40.8650 C   0  0  0  0  0  0  0  0  0  0  0  0
   48.7090   32.8840   41.0070 C   0  0  0  0  0  0  0  0  0  0  0  0
   49.1040   32.1930   39.8760 C   0  0  0  0  0  0  0  0  0  0  0  0
   48.7520   32.7380   38.6540 N   0  0  0  0  0  0  0  0  0  0  0  0
   48.0490   33.8990   38.5640 C   0  0  0  0  0  0  0  0  0  0  0  0
   47.6620   34.5770   39.6700 N   0  0  0  0  0  0  0  0  0  0  0  0
   47.7170   34.4080   37.2850 N   0  0  0  0  0  0  0  0  0  0  0  0
   49.8390   30.9770   39.9200 N   0  0  0  0  0  0  0  0  0  0  0  0
   49.3790   29.8330   40.4230 C   0  0  0  0  0  0  0  0  0  0  0  0
   50.3200   28.8990   40.3060 N   0  0  0  0  0  0  0  0  0  0  0  0
   51.4300   29.3920   39.7240 C   0  0  0  0  0  0  0  0  0  0  0  0
   52.6840   28.9360   39.3480 C   0  0  0  0  0  0  0  0  0  0  0  0
   52.9520   27.7310   39.5770 O   0  0  0  0  0  0  0  0  0  0  0  0
   53.5320   29.8060   38.7660 N   0  0  0  0  0  0  0  0  0  0  0  0
   53.2200   31.0960   38.5330 C   0  0  0  0  0  0  0  0  0  0  0  0
   54.1680   31.9640   37.9100 N   0  0  0  0  0  0  0  0  0  0  0  0
   52.0020   31.5250   38.9010 N   0  0  0  0  0  0  0  0  0  0  0  0
   51.0890   30.7250   39.4890 C   0  0  0  0  0  0  0  0  0  0  0  0
   47.5530   34.7900   42.0780 C   0  0  0  0  0  0  0  0  0  0  0  0
   47.6900   34.1730   43.3620 C   0  0  0  0  0  0  0  0  0  0  0  0
   46.3420   33.5500   43.7630 C   0  0  0  0  0  0  0  0  0  0  0  0
   45.3900   33.7850   42.5920 C   0  0  0  0  0  0  0  0  0  0  0  0
   45.9900   34.9410   41.9130 C   0  0  0  0  0  0  0  0  0  0  0  0
   48.9589   32.5007   42.0073 H   0  0  0  0  0  0  0  0  0  0  0  0
   47.1850   35.2861   37.2024 H   0  0  0  0  0  0  0  0  0  0  0  0
   48.0075   33.9001   36.4373 H   0  0  0  0  0  0  0  0  0  0  0  0
   48.3823   29.6840   40.8640 H   0  0  0  0  0  0  0  0  0  0  0  0
   54.4640   29.4688   38.4855 H   0  0  0  0  0  0  0  0  0  0  0  0
   53.9257   32.9494   37.7336 H   0  0  0  0  0  0  0  0  0  0  0  0
   55.0939   31.6045   37.6372 H   0  0  0  0  0  0  0  0  0  0  0  0
   48.2078   35.6730   42.1173 H   0  0  0  0  0  0  0  0  0  0  0  0
   48.4595   33.3884   43.3142 H   0  0  0  0  0  0  0  0  0  0  0  0
   47.9885   34.9256   44.1067 H   0  0  0  0  0  0  0  0  0  0  0  0
   46.4610   32.4718   43.9455 H   0  0  0  0  0  0  0  0  0  0  0  0
   45.9542   34.0022   44.6877 H   0  0  0  0  0  0  0  0  0  0  0  0
   45.3552   32.9091   41.9275 H   0  0  0  0  0  0  0  0  0  0  0  0
   44.3489   33.9548   42.9039 H   0  0  0  0  0  0  0  0  0  0  0  0
   45.6465   35.8766   42.3785 H   0  0  0  0  0  0  0  0  0  0  0  0
   45.7015   34.9754   40.8521 H   0  0  0  0  0  0  0  0  0  0  0  0
  1  2  2  0
  1 19  1  0
  3  8  1  0
  3  2  1  0
  4  3  2  0
  5  4  1  0
  5  6  2  0
  6  1  1  0
  7  5  1  0
  8  9  1  0
 10  9  2  0
 11 10  1  0
 12 13  2  0
 12 11  1  0
 14 12  1  0
 15 14  1  0
 15 17  2  0
 16 15  1  0
 17 18  1  0
 18 11  2  0
 18  8  1  0
 19 20  1  0
 20 21  1  0
 22 21  1  0
 23 19  1  0
 23 22  1  0
  2 24  1  0
  7 25  1  0
  7 26  1  0
  9 27  1  0
 14 28  1  0
 16 29  1  0
 16 30  1  0
 19 31  1  0
 20 32  1  0
 20 33  1  0
 21 34  1  0
 21 35  1  0
 22 36  1  0
 22 37  1  0
 23 38  1  0
 23 39  1  0
M  ISO  8  24  14  27  14  28   9  31  13  32  13  33  13  34  13  35  13
M  ISO  4  36  13  37  13  38  13  39  13
M  END
>  <minimizedAffinity>  (1) 
-4.91545963

>  <minimizedRMSD>  (1) 
0.769082546

$$$$
