
     RDKit          3D

 35 37  0  0  1  0  0  0  0  0999 V2000
   46.4070   31.3190   46.8870 C   0  0  2  0  0  0  0  0  0  0  0  0
   44.7430   35.0720   45.7120 C   0  0  0  0  0  0  0  0  0  0  0  0
   44.3830   35.6820   44.5130 C   0  0  0  0  0  0  0  0  0  0  0  0
   44.8610   35.1330   43.3130 C   0  0  0  0  0  0  0  0  0  0  0  0
   45.6490   34.0370   43.3710 N   0  0  0  0  0  0  0  0  0  0  0  0
   45.9940   33.4490   44.5570 C   0  0  0  0  0  0  0  0  0  0  0  0
   45.5360   33.9760   45.6980 N   0  0  0  0  0  0  0  0  0  0  0  0
   46.8190   32.3120   44.6450 N   0  0  0  0  0  0  0  0  0  0  0  0
   47.5840   32.0530   43.5490 C   0  0  0  0  0  0  0  0  0  0  0  0
   48.3230   30.8930   43.8720 C   0  0  0  0  0  0  0  0  0  0  0  0
   47.9750   30.5070   45.1350 N   0  0  0  0  0  0  0  0  0  0  0  0
   47.0630   31.3850   45.5770 C   0  0  0  0  0  0  0  0  0  0  0  0
   47.2190   32.2710   47.8120 C   0  0  0  0  0  0  0  0  0  0  0  0
   46.5130   29.9460   47.4680 C   0  0  0  0  0  0  0  0  0  0  0  0
   45.4830   29.0680   47.0400 N   0  0  0  0  0  0  0  0  0  0  0  0
   44.4870   29.3860   46.2010 N   0  0  0  0  0  0  0  0  0  0  0  0
   43.7150   28.2830   46.0420 C   0  0  0  0  0  0  0  0  0  0  0  0
   44.2240   27.2400   46.7910 C   0  0  0  0  0  0  0  0  0  0  0  0
   45.3470   27.7650   47.4160 C   0  0  0  0  0  0  0  0  0  0  0  0
   46.1510   26.9890   48.2810 N   0  0  0  0  0  0  0  0  0  0  0  0
   45.3440   31.5866   46.7951 H   0  0  0  0  0  0  0  0  0  0  0  0
   44.3835   35.4803   46.6681 H   0  0  0  0  0  0  0  0  0  0  0  0
   43.7388   36.5736   44.5066 H   0  0  0  0  0  0  0  0  0  0  0  0
   44.5995   35.5857   42.3452 H   0  0  0  0  0  0  0  0  0  0  0  0
   47.6193   32.6257   42.6105 H   0  0  0  0  0  0  0  0  0  0  0  0
   49.0515   30.3888   43.2200 H   0  0  0  0  0  0  0  0  0  0  0  0
   47.0103   32.0263   48.8639 H   0  0  0  0  0  0  0  0  0  0  0  0
   48.2937   32.1470   47.6130 H   0  0  0  0  0  0  0  0  0  0  0  0
   46.9270   33.3127   47.6130 H   0  0  0  0  0  0  0  0  0  0  0  0
   47.4815   29.5167   47.1720 H   0  0  0  0  0  0  0  0  0  0  0  0
   46.4175   30.0486   48.5590 H   0  0  0  0  0  0  0  0  0  0  0  0
   42.8164   28.2269   45.4101 H   0  0  0  0  0  0  0  0  0  0  0  0
   43.8267   26.2176   46.8741 H   0  0  0  0  0  0  0  0  0  0  0  0
   45.9091   26.0047   48.4642 H   0  0  0  0  0  0  0  0  0  0  0  0
   46.9790   27.4077   48.7283 H   0  0  0  0  0  0  0  0  0  0  0  0
  1 14  1  0
  1 13  1  0
  3  2  2  0
  4  5  2  0
  4  3  1  0
  5  6  1  0
  6  8  1  0
  6  7  2  0
  7  2  1  0
  8 12  1  0
  9 10  2  0
  9  8  1  0
 10 11  1  0
 11 12  2  0
 12  1  1  0
 15 19  1  0
 15 14  1  0
 16 15  1  0
 17 16  2  0
 17 18  1  0
 18 19  2  0
 19 20  1  0
  1 21  1  6
  2 22  1  0
  3 23  1  0
  4 24  1  0
  9 25  1  0
 10 26  1  0
 13 27  1  0
 13 28  1  0
 13 29  1  0
 14 30  1  0
 14 31  1  0
 17 32  1  0
 18 33  1  0
 20 34  1  0
 20 35  1  0
M  ISO  8  21   8  22  14  23  14  24  14  25  14  26  14  27   8  28   8
M  ISO  5  29   8  30   8  31   8  32  14  33  14
M  END
>  <minimizedAffinity>  (1) 
-4.59289789

>  <minimizedRMSD>  (1) 
0.129352584

$$$$
