
     RDKit          3D

 36 39  0  0  0  0  0  0  0  0999 V2000
   48.3880   34.0930   40.6190 C   0  0  0  0  0  0  0  0  0  0  0  0
   49.1830   32.9250   40.6360 C   0  0  0  0  0  0  0  0  0  0  0  0
   49.4310   32.2280   39.4530 C   0  0  0  0  0  0  0  0  0  0  0  0
   48.8650   32.7450   38.3210 N   0  0  0  0  0  0  0  0  0  0  0  0
   48.1070   33.8660   38.3360 C   0  0  0  0  0  0  0  0  0  0  0  0
   47.8670   34.5400   39.4770 N   0  0  0  0  0  0  0  0  0  0  0  0
   47.5160   34.3850   37.1390 N   0  0  0  0  0  0  0  0  0  0  0  0
   50.2230   31.0460   39.4000 N   0  0  0  0  0  0  0  0  0  0  0  0
   49.7670   29.8720   39.8760 C   0  0  0  0  0  0  0  0  0  0  0  0
   50.7330   28.9490   39.6860 N   0  0  0  0  0  0  0  0  0  0  0  0
   51.7680   29.5560   39.1010 C   0  0  0  0  0  0  0  0  0  0  0  0
   53.0150   29.1530   38.6680 C   0  0  0  0  0  0  0  0  0  0  0  0
   53.8790   30.0350   38.0900 N   0  0  0  0  0  0  0  0  0  0  0  0
   53.5340   31.3400   37.9230 C   0  0  0  0  0  0  0  0  0  0  0  0
   52.3220   31.7480   38.3400 N   0  0  0  0  0  0  0  0  0  0  0  0
   51.4680   30.9020   38.9050 C   0  0  0  0  0  0  0  0  0  0  0  0
   48.1400   34.7750   41.8830 C   0  0  0  0  0  0  0  0  0  0  0  0
   48.4500   34.1420   43.1300 C   0  0  0  0  0  0  0  0  0  0  0  0
   47.1740   33.4940   43.6950 C   0  0  0  0  0  0  0  0  0  0  0  0
   46.0710   33.7630   42.6900 C   0  0  0  0  0  0  0  0  0  0  0  0
   46.5700   34.9260   41.9470 C   0  0  0  0  0  0  0  0  0  0  0  0
   49.6075   32.5642   41.5845 H   0  0  0  0  0  0  0  0  0  0  0  0
   46.9430   35.2401   37.1764 H   0  0  0  0  0  0  0  0  0  0  0  0
   47.6640   33.9031   36.2408 H   0  0  0  0  0  0  0  0  0  0  0  0
   48.7837   29.6967   40.3369 H   0  0  0  0  0  0  0  0  0  0  0  0
   53.3168   28.1024   38.7914 H   0  0  0  0  0  0  0  0  0  0  0  0
   54.2333   32.0488   37.4555 H   0  0  0  0  0  0  0  0  0  0  0  0
   48.7976   35.6555   41.8356 H   0  0  0  0  0  0  0  0  0  0  0  0
   49.2163   33.3691   42.9706 H   0  0  0  0  0  0  0  0  0  0  0  0
   48.8326   34.8894   43.8406 H   0  0  0  0  0  0  0  0  0  0  0  0
   47.3204   32.4107   43.8171 H   0  0  0  0  0  0  0  0  0  0  0  0
   46.9216   33.9089   44.6820 H   0  0  0  0  0  0  0  0  0  0  0  0
   45.9269   32.9007   42.0224 H   0  0  0  0  0  0  0  0  0  0  0  0
   45.0925   33.9394   43.1606 H   0  0  0  0  0  0  0  0  0  0  0  0
   46.2983   35.8556   42.4685 H   0  0  0  0  0  0  0  0  0  0  0  0
   46.1328   34.9722   40.9387 H   0  0  0  0  0  0  0  0  0  0  0  0
  1  2  2  0
  1 17  1  0
  3  2  1  0
  4  5  1  0
  4  3  2  0
  5  6  2  0
  6  1  1  0
  7  5  1  0
  8  3  1  0
  8  9  1  0
 10  9  2  0
 11 10  1  0
 12 11  2  0
 13 12  1  0
 14 13  2  0
 14 15  1  0
 15 16  2  0
 16 11  1  0
 16  8  1  0
 17 21  1  0
 17 18  1  0
 18 19  1  0
 20 19  1  0
 21 20  1  0
  2 22  1  0
  7 23  1  0
  7 24  1  0
  9 25  1  0
 12 26  1  0
 14 27  1  0
 17 28  1  0
 18 29  1  0
 18 30  1  0
 19 31  1  0
 19 32  1  0
 20 33  1  0
 20 34  1  0
 21 35  1  0
 21 36  1  0
M  ISO  8  22  14  25  14  26  14  27  14  28  13  29  13  30  13  31  13
M  ISO  5  32  13  33  13  34  13  35  13  36  13
M  END
>  <minimizedAffinity>  (1) 
-4.82334995

>  <minimizedRMSD>  (1) 
0.441796482

$$$$
