
     RDKit          3D

 33 35  0  0  1  0  0  0  0  0999 V2000
   44.5690   36.1410   44.7100 C   0  0  0  0  0  0  0  0  0  0  0  0
   44.8450   35.9900   43.3360 C   0  0  0  0  0  0  0  0  0  0  0  0
   45.3550   34.7750   42.9110 C   0  0  0  0  0  0  0  0  0  0  0  0
   45.5530   33.8270   43.8300 N   0  0  0  0  0  0  0  0  0  0  0  0
   45.2890   33.9800   45.1320 C   0  0  0  0  0  0  0  0  0  0  0  0
   44.7950   35.1340   45.5870 N   0  0  0  0  0  0  0  0  0  0  0  0
   45.5630   32.8810   46.0360 N   0  0  0  0  0  0  0  0  0  0  0  0
   45.2670   33.0800   47.4740 C   0  0  0  0  0  0  0  0  0  0  0  0
   46.1680   32.2940   48.3570 C   0  0  0  0  0  0  0  0  0  0  0  0
   47.4380   31.9830   47.5780 C   0  0  0  0  0  0  0  0  0  0  0  0
   47.0180   30.9850   46.5360 C   0  0  0  0  0  0  0  0  0  0  0  0
   46.1010   31.6430   45.5480 C   0  0  2  0  0  0  0  0  0  0  0  0
   46.8280   31.8010   44.2540 C   0  0  0  0  0  0  0  0  0  0  0  0
   48.0120   32.4960   44.0310 C   0  0  0  0  0  0  0  0  0  0  0  0
   48.6030   32.5790   42.7910 C   0  0  0  0  0  0  0  0  0  0  0  0
   48.0550   31.9840   41.7220 N   0  0  0  0  0  0  0  0  0  0  0  0
   46.9130   31.3140   41.9270 C   0  0  0  0  0  0  0  0  0  0  0  0
   46.3220   31.2190   43.1250 N   0  0  0  0  0  0  0  0  0  0  0  0
   44.1623   37.0949   45.0769 H   0  0  0  0  0  0  0  0  0  0  0  0
   44.6615   36.8095   42.6256 H   0  0  0  0  0  0  0  0  0  0  0  0
   45.5893   34.5967   41.8511 H   0  0  0  0  0  0  0  0  0  0  0  0
   45.3827   34.1475   47.7131 H   0  0  0  0  0  0  0  0  0  0  0  0
   44.2387   32.7332   47.6536 H   0  0  0  0  0  0  0  0  0  0  0  0
   46.4150   32.8799   49.2546 H   0  0  0  0  0  0  0  0  0  0  0  0
   45.6758   31.3621   48.6722 H   0  0  0  0  0  0  0  0  0  0  0  0
   47.8342   32.8934   47.1045 H   0  0  0  0  0  0  0  0  0  0  0  0
   48.2365   31.5933   48.2265 H   0  0  0  0  0  0  0  0  0  0  0  0
   47.9082   30.6058   46.0127 H   0  0  0  0  0  0  0  0  0  0  0  0
   46.4921   30.1499   47.0218 H   0  0  0  0  0  0  0  0  0  0  0  0
   45.2228   31.0001   45.3881 H   0  0  0  0  0  0  0  0  0  0  0  0
   48.4958   33.0000   44.8807 H   0  0  0  0  0  0  0  0  0  0  0  0
   49.5404   33.1428   42.6751 H   0  0  0  0  0  0  0  0  0  0  0  0
   46.4372   30.8172   41.0686 H   0  0  0  0  0  0  0  0  0  0  0  0
  1  6  2  0
  2  1  1  0
  3  2  2  0
  3  4  1  0
  4  5  2  0
  5  6  1  0
  5  7  1  0
  7  8  1  0
  8  9  1  0
 10  9  1  0
 11 10  1  0
 12  7  1  0
 12 11  1  0
 13 12  1  0
 14 13  2  0
 15 14  1  0
 16 17  1  0
 16 15  2  0
 17 18  2  0
 18 13  1  0
  1 19  1  0
  2 20  1  0
  3 21  1  0
  8 22  1  0
  8 23  1  0
  9 24  1  0
  9 25  1  0
 10 26  1  0
 10 27  1  0
 11 28  1  0
 11 29  1  0
 12 30  1  6
 14 31  1  0
 15 32  1  0
 17 33  1  0
M  ISO  8  19  14  20  14  21  14  22  13  23  13  24  13  25  13  26  13
M  ISO  7  27  13  28  13  29  13  30  13  31  14  32  14  33  14
M  END
>  <minimizedAffinity>  (1) 
-4.56289816

>  <minimizedRMSD>  (1) 
1.01610589

$$$$
