
     RDKit          3D

 32 34  0  0  0  0  0  0  0  0999 V2000
   48.3860   34.1020   40.6550 C   0  0  0  0  0  0  0  0  0  0  0  0
   49.1410   32.9090   40.6940 C   0  0  0  0  0  0  0  0  0  0  0  0
   49.3930   32.2030   39.5220 C   0  0  0  0  0  0  0  0  0  0  0  0
   48.8750   32.7340   38.3760 N   0  0  0  0  0  0  0  0  0  0  0  0
   48.1510   33.8840   38.3650 C   0  0  0  0  0  0  0  0  0  0  0  0
   47.9070   34.5670   39.5020 N   0  0  0  0  0  0  0  0  0  0  0  0
   47.6090   34.4170   37.1540 N   0  0  0  0  0  0  0  0  0  0  0  0
   50.1460   30.9960   39.4860 N   0  0  0  0  0  0  0  0  0  0  0  0
   49.8280   29.7140   39.3880 N   0  0  0  0  0  0  0  0  0  0  0  0
   50.9570   28.9630   39.4000 C   0  0  0  0  0  0  0  0  0  0  0  0
   52.0400   29.8400   39.5140 C   0  0  0  0  0  0  0  0  0  0  0  0
   51.4940   31.1220   39.5650 C   0  0  0  0  0  0  0  0  0  0  0  0
   48.1270   34.7970   41.9140 C   0  0  0  0  0  0  0  0  0  0  0  0
   48.4080   34.1620   43.1680 C   0  0  0  0  0  0  0  0  0  0  0  0
   47.1120   33.5410   43.7170 C   0  0  0  0  0  0  0  0  0  0  0  0
   46.0290   33.8300   42.6940 C   0  0  0  0  0  0  0  0  0  0  0  0
   46.5610   34.9740   41.9510 C   0  0  0  0  0  0  0  0  0  0  0  0
   49.5306   32.5372   41.6532 H   0  0  0  0  0  0  0  0  0  0  0  0
   47.0639   35.2907   37.1745 H   0  0  0  0  0  0  0  0  0  0  0  0
   47.7637   33.9273   36.2612 H   0  0  0  0  0  0  0  0  0  0  0  0
   51.0109   27.8664   39.3325 H   0  0  0  0  0  0  0  0  0  0  0  0
   53.1063   29.5728   39.5551 H   0  0  0  0  0  0  0  0  0  0  0  0
   52.0547   32.0642   39.6533 H   0  0  0  0  0  0  0  0  0  0  0  0
   48.7971   35.6684   41.8743 H   0  0  0  0  0  0  0  0  0  0  0  0
   49.1613   33.3739   43.0216 H   0  0  0  0  0  0  0  0  0  0  0  0
   48.7956   34.9041   43.8815 H   0  0  0  0  0  0  0  0  0  0  0  0
   47.2349   32.4553   43.8440 H   0  0  0  0  0  0  0  0  0  0  0  0
   46.8539   33.9627   44.6996 H   0  0  0  0  0  0  0  0  0  0  0  0
   45.8743   32.9668   42.0299 H   0  0  0  0  0  0  0  0  0  0  0  0
   45.0493   34.0328   43.1512 H   0  0  0  0  0  0  0  0  0  0  0  0
   46.2969   35.9130   42.4595 H   0  0  0  0  0  0  0  0  0  0  0  0
   46.1422   35.0169   40.9348 H   0  0  0  0  0  0  0  0  0  0  0  0
  1  2  2  0
  1 13  1  0
  3  2  1  0
  4  3  2  0
  5  4  1  0
  5  6  2  0
  6  1  1  0
  7  5  1  0
  8  3  1  0
  8 12  1  0
  9 10  2  0
  9  8  1  0
 10 11  1  0
 11 12  2  0
 13 17  1  0
 13 14  1  0
 14 15  1  0
 16 15  1  0
 17 16  1  0
  2 18  1  0
  7 19  1  0
  7 20  1  0
 10 21  1  0
 11 22  1  0
 12 23  1  0
 13 24  1  0
 14 25  1  0
 14 26  1  0
 15 27  1  0
 15 28  1  0
 16 29  1  0
 16 30  1  0
 17 31  1  0
 17 32  1  0
M  ISO  8  18  14  21  14  22  14  23  14  24  13  25  13  26  13  27  13
M  ISO  5  28  13  29  13  30  13  31  13  32  13
M  END
>  <minimizedAffinity>  (1) 
-4.2644434

>  <minimizedRMSD>  (1) 
0.262751698

$$$$
