
     RDKit          3D

 32 34  0  0  0  0  0  0  0  0999 V2000
   48.3820   34.1120   40.6780 C   0  0  0  0  0  0  0  0  0  0  0  0
   49.1370   32.9170   40.7200 C   0  0  0  0  0  0  0  0  0  0  0  0
   49.4000   32.2090   39.5470 C   0  0  0  0  0  0  0  0  0  0  0  0
   48.8830   32.7490   38.3860 N   0  0  0  0  0  0  0  0  0  0  0  0
   48.1610   33.9010   38.3880 C   0  0  0  0  0  0  0  0  0  0  0  0
   47.9140   34.5750   39.5220 N   0  0  0  0  0  0  0  0  0  0  0  0
   47.6440   34.4190   37.1640 N   0  0  0  0  0  0  0  0  0  0  0  0
   50.1530   31.0020   39.5270 N   0  0  0  0  0  0  0  0  0  0  0  0
   49.8950   29.6840   39.6170 C   0  0  0  0  0  0  0  0  0  0  0  0
   51.1320   29.0570   39.5190 C   0  0  0  0  0  0  0  0  0  0  0  0
   52.0930   29.9750   39.3750 N   0  0  0  0  0  0  0  0  0  0  0  0
   51.5010   31.1670   39.3790 C   0  0  0  0  0  0  0  0  0  0  0  0
   48.1170   34.8070   41.9320 C   0  0  0  0  0  0  0  0  0  0  0  0
   48.3910   34.1730   43.1890 C   0  0  0  0  0  0  0  0  0  0  0  0
   47.0930   33.5430   43.7250 C   0  0  0  0  0  0  0  0  0  0  0  0
   46.0160   33.8270   42.6930 C   0  0  0  0  0  0  0  0  0  0  0  0
   46.5490   34.9800   41.9600 C   0  0  0  0  0  0  0  0  0  0  0  0
   49.5186   32.5440   41.6819 H   0  0  0  0  0  0  0  0  0  0  0  0
   47.0969   35.2917   37.1644 H   0  0  0  0  0  0  0  0  0  0  0  0
   47.8177   33.9204   36.2796 H   0  0  0  0  0  0  0  0  0  0  0  0
   48.9130   29.2044   39.7417 H   0  0  0  0  0  0  0  0  0  0  0  0
   51.2953   27.9698   39.5546 H   0  0  0  0  0  0  0  0  0  0  0  0
   52.0164   32.1336   39.2788 H   0  0  0  0  0  0  0  0  0  0  0  0
   48.7864   35.6791   41.8953 H   0  0  0  0  0  0  0  0  0  0  0  0
   49.1509   33.3900   43.0494 H   0  0  0  0  0  0  0  0  0  0  0  0
   48.7673   34.9169   43.9066 H   0  0  0  0  0  0  0  0  0  0  0  0
   47.2215   32.4578   43.8511 H   0  0  0  0  0  0  0  0  0  0  0  0
   46.8237   33.9620   44.7058 H   0  0  0  0  0  0  0  0  0  0  0  0
   45.8741   32.9656   42.0238 H   0  0  0  0  0  0  0  0  0  0  0  0
   45.0298   34.0192   43.1408 H   0  0  0  0  0  0  0  0  0  0  0  0
   46.2789   35.9146   42.4734 H   0  0  0  0  0  0  0  0  0  0  0  0
   46.1360   35.0296   40.9417 H   0  0  0  0  0  0  0  0  0  0  0  0
  1  2  2  0
  1 13  1  0
  3  2  1  0
  4  5  1  0
  4  3  2  0
  5  6  2  0
  6  1  1  0
  7  5  1  0
  8  3  1  0
  8  9  1  0
 10  9  2  0
 11 12  2  0
 11 10  1  0
 12  8  1  0
 13 17  1  0
 13 14  1  0
 14 15  1  0
 16 15  1  0
 17 16  1  0
  2 18  1  0
  7 19  1  0
  7 20  1  0
  9 21  1  0
 10 22  1  0
 12 23  1  0
 13 24  1  0
 14 25  1  0
 14 26  1  0
 15 27  1  0
 15 28  1  0
 16 29  1  0
 16 30  1  0
 17 31  1  0
 17 32  1  0
M  ISO  8  18  14  21  14  22  14  23  14  24  13  25  13  26  13  27  13
M  ISO  5  28  13  29  13  30  13  31  13  32  13
M  END
>  <minimizedAffinity>  (1) 
-4.28939199

>  <minimizedRMSD>  (1) 
0.270942658

$$$$
