
     RDKit          3D

 30 32  0  0  0  0  0  0  0  0999 V2000
   48.4260   34.0860   40.6490 C   0  0  0  0  0  0  0  0  0  0  0  0
   49.1310   32.8610   40.6860 C   0  0  0  0  0  0  0  0  0  0  0  0
   49.3560   32.1490   39.5110 C   0  0  0  0  0  0  0  0  0  0  0  0
   48.8580   32.7150   38.3710 N   0  0  0  0  0  0  0  0  0  0  0  0
   48.1880   33.8830   38.3470 C   0  0  0  0  0  0  0  0  0  0  0  0
   47.9720   34.5730   39.4980 N   0  0  0  0  0  0  0  0  0  0  0  0
   47.6750   34.4450   37.1470 N   0  0  0  0  0  0  0  0  0  0  0  0
   48.1920   34.7890   41.9110 C   0  0  0  0  0  0  0  0  0  0  0  0
   48.4770   34.1450   43.1600 C   0  0  0  0  0  0  0  0  0  0  0  0
   47.1690   33.5610   43.7260 C   0  0  0  0  0  0  0  0  0  0  0  0
   46.0850   33.8470   42.7010 C   0  0  0  0  0  0  0  0  0  0  0  0
   46.6290   34.9910   41.9590 C   0  0  0  0  0  0  0  0  0  0  0  0
   50.0760   30.8790   39.4740 C   0  0  0  0  0  0  0  0  0  0  0  0
   50.4710   30.1590   40.5430 N   0  0  0  0  0  0  0  0  0  0  0  0
   51.0860   29.0810   40.1380 O   0  0  0  0  0  0  0  0  0  0  0  0
   51.1180   29.0520   38.8280 C   0  0  0  0  0  0  0  0  0  0  0  0
   50.4840   30.1800   38.3970 N   0  0  0  0  0  0  0  0  0  0  0  0
   49.5023   32.4699   41.6447 H   0  0  0  0  0  0  0  0  0  0  0  0
   47.1681   35.3412   37.1736 H   0  0  0  0  0  0  0  0  0  0  0  0
   47.8100   33.9561   36.2505 H   0  0  0  0  0  0  0  0  0  0  0  0
   48.8731   35.6518   41.8688 H   0  0  0  0  0  0  0  0  0  0  0  0
   49.2051   33.3359   43.0013 H   0  0  0  0  0  0  0  0  0  0  0  0
   48.8992   34.8729   43.8685 H   0  0  0  0  0  0  0  0  0  0  0  0
   47.2719   32.4762   43.8766 H   0  0  0  0  0  0  0  0  0  0  0  0
   46.9227   34.0110   44.6990 H   0  0  0  0  0  0  0  0  0  0  0  0
   45.9294   32.9831   42.0380 H   0  0  0  0  0  0  0  0  0  0  0  0
   45.1026   34.0495   43.1526 H   0  0  0  0  0  0  0  0  0  0  0  0
   46.3827   35.9308   42.4749 H   0  0  0  0  0  0  0  0  0  0  0  0
   46.2033   35.0479   40.9463 H   0  0  0  0  0  0  0  0  0  0  0  0
   51.5684   28.2702   38.1988 H   0  0  0  0  0  0  0  0  0  0  0  0
  1  2  2  0
  1  8  1  0
  3  2  1  0
  4  3  2  0
  5  4  1  0
  5  6  2  0
  6  1  1  0
  7  5  1  0
  8 12  1  0
  8  9  1  0
  9 10  1  0
 11 10  1  0
 12 11  1  0
 13  3  1  0
 13 14  2  0
 15 14  1  0
 16 15  1  0
 17 16  2  0
 17 13  1  0
  2 18  1  0
  7 19  1  0
  7 20  1  0
  8 21  1  0
  9 22  1  0
  9 23  1  0
 10 24  1  0
 10 25  1  0
 11 26  1  0
 11 27  1  0
 12 28  1  0
 12 29  1  0
 16 30  1  0
M  ISO  8  18  14  21  13  22  13  23  13  24  13  25  13  26  13  27  13
M  ISO  3  28  13  29  13  30  14
M  END
>  <minimizedAffinity>  (1) 
-4.00102711

>  <minimizedRMSD>  (1) 
0.158586338

$$$$
