
     RDKit          3D

 32 34  0  0  0  0  0  0  0  0999 V2000
   48.4110   34.0970   40.6670 C   0  0  0  0  0  0  0  0  0  0  0  0
   49.1350   32.8810   40.6910 C   0  0  0  0  0  0  0  0  0  0  0  0
   49.3640   32.1810   39.5160 C   0  0  0  0  0  0  0  0  0  0  0  0
   48.8530   32.7330   38.3760 N   0  0  0  0  0  0  0  0  0  0  0  0
   48.1560   33.9080   38.3780 C   0  0  0  0  0  0  0  0  0  0  0  0
   47.9390   34.5820   39.5200 N   0  0  0  0  0  0  0  0  0  0  0  0
   47.6490   34.4330   37.1530 N   0  0  0  0  0  0  0  0  0  0  0  0
   48.1720   34.7910   41.9290 C   0  0  0  0  0  0  0  0  0  0  0  0
   48.4480   34.1430   43.1770 C   0  0  0  0  0  0  0  0  0  0  0  0
   47.1400   33.5570   43.7370 C   0  0  0  0  0  0  0  0  0  0  0  0
   46.0580   33.8570   42.7080 C   0  0  0  0  0  0  0  0  0  0  0  0
   46.6110   35.0040   41.9790 C   0  0  0  0  0  0  0  0  0  0  0  0
   50.1020   30.9230   39.4690 C   0  0  0  0  0  0  0  0  0  0  0  0
   51.4460   30.8270   39.7720 C   0  0  0  0  0  0  0  0  0  0  0  0
   51.7400   29.4750   39.6030 C   0  0  0  0  0  0  0  0  0  0  0  0
   50.5610   28.8330   39.2090 C   0  0  0  0  0  0  0  0  0  0  0  0
   49.6060   29.7570   39.1460 O   0  0  0  0  0  0  0  0  0  0  0  0
   49.5175   32.4898   41.6453 H   0  0  0  0  0  0  0  0  0  0  0  0
   47.1231   35.3186   37.1507 H   0  0  0  0  0  0  0  0  0  0  0  0
   47.8087   33.9266   36.2704 H   0  0  0  0  0  0  0  0  0  0  0  0
   48.8587   35.6493   41.8876 H   0  0  0  0  0  0  0  0  0  0  0  0
   49.1768   33.3343   43.0194 H   0  0  0  0  0  0  0  0  0  0  0  0
   48.8645   34.8704   43.8894 H   0  0  0  0  0  0  0  0  0  0  0  0
   47.2398   32.4707   43.8782 H   0  0  0  0  0  0  0  0  0  0  0  0
   46.8929   33.9966   44.7146 H   0  0  0  0  0  0  0  0  0  0  0  0
   45.9008   32.9996   42.0370 H   0  0  0  0  0  0  0  0  0  0  0  0
   45.0745   34.0597   43.1570 H   0  0  0  0  0  0  0  0  0  0  0  0
   46.3717   35.9400   42.5050 H   0  0  0  0  0  0  0  0  0  0  0  0
   46.1862   35.0748   40.9668 H   0  0  0  0  0  0  0  0  0  0  0  0
   52.1288   31.6336   40.0771 H   0  0  0  0  0  0  0  0  0  0  0  0
   52.7206   28.9994   39.7522 H   0  0  0  0  0  0  0  0  0  0  0  0
   50.4450   27.7610   38.9913 H   0  0  0  0  0  0  0  0  0  0  0  0
  1  2  2  0
  1  8  1  0
  3  2  1  0
  4  5  1  0
  4  3  2  0
  5  6  2  0
  6  1  1  0
  7  5  1  0
  8 12  1  0
  8  9  1  0
  9 10  1  0
 11 10  1  0
 12 11  1  0
 13  3  1  0
 13 14  2  0
 15 14  1  0
 16 15  2  0
 17 16  1  0
 17 13  1  0
  2 18  1  0
  7 19  1  0
  7 20  1  0
  8 21  1  0
  9 22  1  0
  9 23  1  0
 10 24  1  0
 10 25  1  0
 11 26  1  0
 11 27  1  0
 12 28  1  0
 12 29  1  0
 14 30  1  0
 15 31  1  0
 16 32  1  0
M  ISO  8  18  14  21  13  22  13  23  13  24  13  25  13  26  13  27  13
M  ISO  5  28  13  29  13  30  14  31  14  32  14
M  END
>  <minimizedAffinity>  (1) 
-4.01135874

>  <minimizedRMSD>  (1) 
0.210014507

$$$$
