
     RDKit          3D

 31 33  0  0  0  0  0  0  0  0999 V2000
   48.3870   34.0990   40.6750 C   0  0  0  0  0  0  0  0  0  0  0  0
   49.1470   32.9040   40.7090 C   0  0  0  0  0  0  0  0  0  0  0  0
   49.3970   32.2110   39.5280 C   0  0  0  0  0  0  0  0  0  0  0  0
   48.8630   32.7630   38.3750 N   0  0  0  0  0  0  0  0  0  0  0  0
   48.1450   33.9020   38.3810 C   0  0  0  0  0  0  0  0  0  0  0  0
   47.9040   34.5730   39.5220 N   0  0  0  0  0  0  0  0  0  0  0  0
   47.6210   34.4100   37.1700 N   0  0  0  0  0  0  0  0  0  0  0  0
   48.1310   34.7940   41.9300 C   0  0  0  0  0  0  0  0  0  0  0  0
   48.3990   34.1580   43.1880 C   0  0  0  0  0  0  0  0  0  0  0  0
   47.0880   33.5580   43.7260 C   0  0  0  0  0  0  0  0  0  0  0  0
   46.0170   33.8450   42.6910 C   0  0  0  0  0  0  0  0  0  0  0  0
   46.5630   34.9910   41.9560 C   0  0  0  0  0  0  0  0  0  0  0  0
   50.1650   30.9750   39.4480 C   0  0  0  0  0  0  0  0  0  0  0  0
   51.6430   31.0760   39.6340 C   0  0  0  0  0  0  0  0  0  0  0  0
   52.1250   29.3820   39.4590 S   0  0  0  0  0  0  0  0  0  0  0  0
   50.3530   28.7700   39.1690 C   0  0  0  0  0  0  0  0  0  0  0  0
   49.6120   29.8130   39.2240 N   0  0  0  0  0  0  0  0  0  0  0  0
   49.5380   32.5253   41.6649 H   0  0  0  0  0  0  0  0  0  0  0  0
   47.0714   35.2811   37.1719 H   0  0  0  0  0  0  0  0  0  0  0  0
   47.7889   33.9089   36.2859 H   0  0  0  0  0  0  0  0  0  0  0  0
   48.8133   35.6561   41.8954 H   0  0  0  0  0  0  0  0  0  0  0  0
   49.1419   33.3589   43.0481 H   0  0  0  0  0  0  0  0  0  0  0  0
   48.7960   34.8936   43.9031 H   0  0  0  0  0  0  0  0  0  0  0  0
   47.1979   32.4725   43.8661 H   0  0  0  0  0  0  0  0  0  0  0  0
   46.8236   33.9967   44.6994 H   0  0  0  0  0  0  0  0  0  0  0  0
   45.8704   32.9821   42.0247 H   0  0  0  0  0  0  0  0  0  0  0  0
   45.0304   34.0459   43.1341 H   0  0  0  0  0  0  0  0  0  0  0  0
   46.3054   35.9298   42.4681 H   0  0  0  0  0  0  0  0  0  0  0  0
   46.1498   35.0471   40.9381 H   0  0  0  0  0  0  0  0  0  0  0  0
   52.2641   31.9630   39.8274 H   0  0  0  0  0  0  0  0  0  0  0  0
   50.0291   27.7340   38.9906 H   0  0  0  0  0  0  0  0  0  0  0  0
  1  2  2  0
  1  8  1  0
  3  2  1  0
  4  5  1  0
  4  3  2  0
  5  6  2  0
  6  1  1  0
  7  5  1  0
  8 12  1  0
  8  9  1  0
  9 10  1  0
 11 10  1  0
 12 11  1  0
 13  3  1  0
 13 14  2  0
 15 14  1  0
 16 17  2  0
 16 15  1  0
 17 13  1  0
  2 18  1  0
  7 19  1  0
  7 20  1  0
  8 21  1  0
  9 22  1  0
  9 23  1  0
 10 24  1  0
 10 25  1  0
 11 26  1  0
 11 27  1  0
 12 28  1  0
 12 29  1  0
 14 30  1  0
 16 31  1  0
M  ISO  8  18  14  21  13  22  13  23  13  24  13  25  13  26  13  27  13
M  ISO  4  28  13  29  13  30  14  31  14
M  END
>  <minimizedAffinity>  (1) 
-4.00856924

>  <minimizedRMSD>  (1) 
0.280124843

$$$$
