
     RDKit          3D

 50 54  0  0  1  0  0  0  0  0999 V2000
   47.9490   34.6730   40.8320 C   0  0  2  0  0  0  0  0  0  0  0  0
   48.7570   35.7170   41.3490 C   0  0  0  0  0  0  0  0  0  0  0  0
   49.5400   35.1600   42.5700 C   0  0  0  0  0  0  0  0  0  0  0  0
   49.1270   33.7140   42.7410 C   0  0  0  0  0  0  0  0  0  0  0  0
   47.8380   33.6550   42.0500 C   0  0  1  0  0  0  0  0  0  0  0  0
   48.3870   33.8440   39.7170 C   0  0  0  0  0  0  0  0  0  0  0  0
   49.1670   32.6970   40.0020 C   0  0  0  0  0  0  0  0  0  0  0  0
   49.6050   31.8630   38.9820 C   0  0  0  0  0  0  0  0  0  0  0  0
   49.2290   32.2340   37.7210 N   0  0  0  0  0  0  0  0  0  0  0  0
   48.4770   33.3440   37.4710 C   0  0  0  0  0  0  0  0  0  0  0  0
   48.0630   34.1390   38.4700 N   0  0  0  0  0  0  0  0  0  0  0  0
   48.1190   33.6660   36.1260 N   0  0  0  0  0  0  0  0  0  0  0  0
   50.3930   30.7080   39.2000 N   0  0  0  0  0  0  0  0  0  0  0  0
   50.0750   29.5370   38.6060 C   0  0  0  0  0  0  0  0  0  0  0  0
   50.8790   28.4290   38.8540 C   0  0  0  0  0  0  0  0  0  0  0  0
   51.9740   28.5550   39.7000 C   0  0  0  0  0  0  0  0  0  0  0  0
   52.7580   27.3810   39.9140 N   0  0  0  0  0  0  0  0  0  0  0  0
   52.2510   29.7220   40.2630 N   0  0  0  0  0  0  0  0  0  0  0  0
   51.4720   30.7990   40.0220 C   0  0  0  0  0  0  0  0  0  0  0  0
   51.8240   31.8670   40.6100 O   0  0  0  0  0  0  0  0  0  0  0  0
   46.8000   34.2990   42.9200 C   0  0  0  0  0  0  0  0  0  0  0  0
   46.1370   35.3800   42.4590 N   0  0  0  0  0  0  0  0  0  0  0  0
   45.1980   36.0020   43.1900 C   0  0  0  0  0  0  0  0  0  0  0  0
   44.8620   35.5810   44.4360 N   0  0  0  0  0  0  0  0  0  0  0  0
   45.4900   34.5070   44.9510 C   0  0  0  0  0  0  0  0  0  0  0  0
   45.2030   34.0090   46.2240 C   0  0  0  0  0  0  0  0  0  0  0  0
   45.8530   32.9060   46.7420 C   0  0  0  0  0  0  0  0  0  0  0  0
   46.8220   32.2820   45.9580 C   0  0  0  0  0  0  0  0  0  0  0  0
   47.0880   32.7940   44.7030 C   0  0  0  0  0  0  0  0  0  0  0  0
   46.4480   33.8910   44.1750 C   0  0  0  0  0  0  0  0  0  0  0  0
   47.0670   35.1933   40.4303 H   0  0  0  0  0  0  0  0  0  0  0  0
   49.4628   36.0593   40.5778 H   0  0  0  0  0  0  0  0  0  0  0  0
   48.1312   36.5689   41.6533 H   0  0  0  0  0  0  0  0  0  0  0  0
   50.6225   35.2240   42.3853 H   0  0  0  0  0  0  0  0  0  0  0  0
   49.3164   35.7411   43.4769 H   0  0  0  0  0  0  0  0  0  0  0  0
   49.8571   33.0366   42.2741 H   0  0  0  0  0  0  0  0  0  0  0  0
   49.0686   33.4018   43.7942 H   0  0  0  0  0  0  0  0  0  0  0  0
   47.5962   32.6161   41.7814 H   0  0  0  0  0  0  0  0  0  0  0  0
   49.4292   32.4638   41.0445 H   0  0  0  0  0  0  0  0  0  0  0  0
   47.5513   34.5029   35.9305 H   0  0  0  0  0  0  0  0  0  0  0  0
   48.4286   33.0613   35.3518 H   0  0  0  0  0  0  0  0  0  0  0  0
   49.2012   29.4614   37.9421 H   0  0  0  0  0  0  0  0  0  0  0  0
   50.6497   27.4612   38.3842 H   0  0  0  0  0  0  0  0  0  0  0  0
   53.5813   27.4171   40.5319 H   0  0  0  0  0  0  0  0  0  0  0  0
   52.5003   26.4980   39.4505 H   0  0  0  0  0  0  0  0  0  0  0  0
   44.6859   36.8786   42.7666 H   0  0  0  0  0  0  0  0  0  0  0  0
   44.4360   34.5105   46.8324 H   0  0  0  0  0  0  0  0  0  0  0  0
   45.6123   32.5297   47.7472 H   0  0  0  0  0  0  0  0  0  0  0  0
   47.3636   31.4002   46.3310 H   0  0  0  0  0  0  0  0  0  0  0  0
   47.8549   32.2963   44.0913 H   0  0  0  0  0  0  0  0  0  0  0  0
  1  2  1  0
  1  5  1  0
  2  3  1  0
  3  4  1  0
  5  4  1  0
  5 21  1  0
  6  7  2  0
  6  1  1  0
  8 13  1  0
  8  7  1  0
  9  8  2  0
 10  9  1  0
 10 11  2  0
 11  6  1  0
 12 10  1  0
 13 19  1  0
 14 15  2  0
 14 13  1  0
 15 16  1  0
 16 17  1  0
 16 18  2  0
 19 18  1  0
 19 20  2  0
 21 30  1  0
 22 21  2  0
 22 23  1  0
 23 24  2  0
 24 25  1  0
 25 26  2  0
 26 27  1  0
 28 27  2  0
 29 28  1  0
 30 29  2  0
 30 25  1  0
  1 31  1  6
  2 32  1  0
  2 33  1  0
  3 34  1  0
  3 35  1  0
  4 36  1  0
  4 37  1  0
  5 38  1  6
  7 39  1  0
 12 40  1  0
 12 41  1  0
 14 42  1  0
 15 43  1  0
 17 44  1  0
 17 45  1  0
 23 46  1  0
 26 47  1  0
 27 48  1  0
 28 49  1  0
 29 50  1  0
M  ISO  8  31  13  32  13  33  13  34  13  35  13  36  13  37  13  38  13
M  ISO  8  39  14  42  14  43  14  46  14  47  14  48  14  49  14  50  14
M  END
>  <minimizedAffinity>  (1) 
-7.67028856

>  <minimizedRMSD>  (1) 
2.08591318

$$$$
