
     RDKit          3D

 41 44  0  0  1  0  0  0  0  0999 V2000
   48.4070   33.9090   39.7270 C   0  0  0  0  0  0  0  0  0  0  0  0
   49.1600   32.7420   40.0130 C   0  0  0  0  0  0  0  0  0  0  0  0
   49.5470   31.8790   39.0050 C   0  0  0  0  0  0  0  0  0  0  0  0
   49.1520   32.2360   37.7410 N   0  0  0  0  0  0  0  0  0  0  0  0
   48.4300   33.3580   37.4820 C   0  0  0  0  0  0  0  0  0  0  0  0
   48.0610   34.1900   38.4730 N   0  0  0  0  0  0  0  0  0  0  0  0
   48.0410   33.6620   36.1490 N   0  0  0  0  0  0  0  0  0  0  0  0
   50.3070   30.7010   39.2350 N   0  0  0  0  0  0  0  0  0  0  0  0
   49.9410   29.5270   38.6740 C   0  0  0  0  0  0  0  0  0  0  0  0
   50.7190   28.4090   38.9300 C   0  0  0  0  0  0  0  0  0  0  0  0
   51.8400   28.5230   39.7440 C   0  0  0  0  0  0  0  0  0  0  0  0
   52.5930   27.3190   39.9370 N   0  0  0  0  0  0  0  0  0  0  0  0
   52.1690   29.6950   40.2790 N   0  0  0  0  0  0  0  0  0  0  0  0
   51.4100   30.7840   40.0280 C   0  0  0  0  0  0  0  0  0  0  0  0
   51.8000   31.8550   40.5790 O   0  0  0  0  0  0  0  0  0  0  0  0
   48.0150   34.7750   40.8420 C   0  0  2  0  0  0  0  0  0  0  0  0
   48.8930   35.7520   41.3560 C   0  0  0  0  0  0  0  0  0  0  0  0
   49.6360   35.1580   42.5810 C   0  0  0  0  0  0  0  0  0  0  0  0
   49.1370   33.7240   42.7460 C   0  0  0  0  0  0  0  0  0  0  0  0
   47.8590   33.7480   42.0530 C   0  0  1  0  0  0  0  0  0  0  0  0
   46.7770   34.3640   42.8830 C   0  0  0  0  0  0  0  0  0  0  0  0
   46.4580   34.0940   44.1780 N   0  0  0  0  0  0  0  0  0  0  0  0
   45.4660   34.8360   44.5290 O   0  0  0  0  0  0  0  0  0  0  0  0
   45.0800   35.6110   43.5440 C   0  0  0  0  0  0  0  0  0  0  0  0
   45.8880   35.3270   42.5140 N   0  0  0  0  0  0  0  0  0  0  0  0
   49.4405   32.5200   41.0532 H   0  0  0  0  0  0  0  0  0  0  0  0
   47.4939   34.5125   35.9534 H   0  0  0  0  0  0  0  0  0  0  0  0
   48.3063   33.0318   35.3787 H   0  0  0  0  0  0  0  0  0  0  0  0
   49.0502   29.4608   38.0320 H   0  0  0  0  0  0  0  0  0  0  0  0
   50.4508   27.4365   38.4913 H   0  0  0  0  0  0  0  0  0  0  0  0
   53.4364   27.3282   40.5282 H   0  0  0  0  0  0  0  0  0  0  0  0
   52.2908   26.4445   39.4845 H   0  0  0  0  0  0  0  0  0  0  0  0
   47.1657   35.3561   40.4535 H   0  0  0  0  0  0  0  0  0  0  0  0
   49.6222   36.0374   40.5835 H   0  0  0  0  0  0  0  0  0  0  0  0
   48.3251   36.6441   41.6586 H   0  0  0  0  0  0  0  0  0  0  0  0
   50.7218   35.1634   42.4047 H   0  0  0  0  0  0  0  0  0  0  0  0
   49.4410   35.7508   43.4869 H   0  0  0  0  0  0  0  0  0  0  0  0
   49.8282   33.0073   42.2785 H   0  0  0  0  0  0  0  0  0  0  0  0
   49.0578   33.4078   43.7966 H   0  0  0  0  0  0  0  0  0  0  0  0
   47.6062   32.7124   41.7816 H   0  0  0  0  0  0  0  0  0  0  0  0
   44.2603   36.3444   43.5603 H   0  0  0  0  0  0  0  0  0  0  0  0
  1  2  2  0
  1 16  1  0
  3  8  1  0
  3  2  1  0
  4  3  2  0
  5  4  1  0
  5  6  2  0
  6  1  1  0
  7  5  1  0
  8 14  1  0
  9 10  2  0
  9  8  1  0
 10 11  1  0
 11 12  1  0
 11 13  2  0
 14 13  1  0
 14 15  2  0
 16 17  1  0
 16 20  1  0
 17 18  1  0
 18 19  1  0
 20 19  1  0
 20 21  1  0
 21 22  2  0
 22 23  1  0
 24 23  1  0
 25 21  1  0
 25 24  2  0
  2 26  1  0
  7 27  1  0
  7 28  1  0
  9 29  1  0
 10 30  1  0
 12 31  1  0
 12 32  1  0
 16 33  1  6
 17 34  1  0
 17 35  1  0
 18 36  1  0
 18 37  1  0
 19 38  1  0
 19 39  1  0
 20 40  1  6
 24 41  1  0
M  ISO  8  26  14  29  14  30  14  33  13  34  13  35  13  36  13  37  13
M  ISO  4  38  13  39  13  40  13  41  14
M  END
>  <minimizedAffinity>  (1) 
-6.0696454

>  <minimizedRMSD>  (1) 
1.69547117

$$$$
