
     RDKit          3D

 39 41  0  0  1  0  0  0  0  0999 V2000
   48.1980   34.1060   40.4930 C   0  0  0  0  0  0  0  0  0  0  0  0
   48.9790   32.9290   40.5650 C   0  0  0  0  0  0  0  0  0  0  0  0
   49.3530   32.2550   39.3980 C   0  0  0  0  0  0  0  0  0  0  0  0
   48.9110   32.8140   38.2300 N   0  0  0  0  0  0  0  0  0  0  0  0
   48.1590   33.9490   38.1970 C   0  0  0  0  0  0  0  0  0  0  0  0
   47.8130   34.5800   39.3160 N   0  0  0  0  0  0  0  0  0  0  0  0
   47.7250   34.4690   36.9440 N   0  0  0  0  0  0  0  0  0  0  0  0
   50.1400   31.0720   39.4050 N   0  0  0  0  0  0  0  0  0  0  0  0
   49.7750   30.0080   38.6570 C   0  0  0  0  0  0  0  0  0  0  0  0
   50.5580   28.8680   38.6890 C   0  0  0  0  0  0  0  0  0  0  0  0
   51.6960   28.8410   39.4840 C   0  0  0  0  0  0  0  0  0  0  0  0
   52.4680   27.6570   39.4970 N   0  0  0  0  0  0  0  0  0  0  0  0
   52.0200   29.9150   40.2060 N   0  0  0  0  0  0  0  0  0  0  0  0
   51.2580   31.0270   40.1760 C   0  0  0  0  0  0  0  0  0  0  0  0
   51.6460   31.9930   40.8950 O   0  0  0  0  0  0  0  0  0  0  0  0
   47.8210   34.7620   41.7270 C   0  0  2  0  0  0  0  0  0  0  0  0
   48.4870   34.4760   42.9520 C   0  0  0  0  0  0  0  0  0  0  0  0
   47.6470   33.4250   43.7280 C   0  0  0  0  0  0  0  0  0  0  0  0
   46.4350   33.0950   42.8410 C   0  0  0  0  0  0  0  0  0  0  0  0
   46.3640   34.3010   42.0250 C   0  0  2  0  0  0  0  0  0  0  0  0
   45.4430   34.3170   40.8840 C   0  0  0  0  0  0  0  0  0  0  0  0
   49.2942   32.5413   41.5450 H   0  0  0  0  0  0  0  0  0  0  0  0
   47.1560   35.3270   36.9117 H   0  0  0  0  0  0  0  0  0  0  0  0
   47.9801   33.9871   36.0702 H   0  0  0  0  0  0  0  0  0  0  0  0
   48.8701   30.0474   38.0328 H   0  0  0  0  0  0  0  0  0  0  0  0
   50.2809   27.9889   38.0887 H   0  0  0  0  0  0  0  0  0  0  0  0
   53.3183   27.6030   40.0757 H   0  0  0  0  0  0  0  0  0  0  0  0
   52.1802   26.8483   38.9277 H   0  0  0  0  0  0  0  0  0  0  0  0
   48.0508   35.8148   41.5059 H   0  0  0  0  0  0  0  0  0  0  0  0
   49.4893   34.0725   42.7454 H   0  0  0  0  0  0  0  0  0  0  0  0
   48.5932   35.3934   43.5496 H   0  0  0  0  0  0  0  0  0  0  0  0
   48.2442   32.5190   43.9082 H   0  0  0  0  0  0  0  0  0  0  0  0
   47.3299   33.8130   44.7072 H   0  0  0  0  0  0  0  0  0  0  0  0
   46.6132   32.1997   42.2272 H   0  0  0  0  0  0  0  0  0  0  0  0
   45.5132   32.8619   43.3941 H   0  0  0  0  0  0  0  0  0  0  0  0
   45.8427   35.0619   42.6243 H   0  0  0  0  0  0  0  0  0  0  0  0
   44.4059   34.3350   41.2502 H   0  0  0  0  0  0  0  0  0  0  0  0
   45.6317   35.2120   40.2730 H   0  0  0  0  0  0  0  0  0  0  0  0
   45.6005   33.4160   40.2730 H   0  0  0  0  0  0  0  0  0  0  0  0
  1  2  2  0
  1 16  1  0
  3  8  1  0
  3  2  1  0
  4  3  2  0
  5  4  1  0
  5  6  2  0
  6  1  1  0
  7  5  1  0
  8 14  1  0
  9 10  2  0
  9  8  1  0
 10 11  1  0
 11 12  1  0
 11 13  2  0
 14 13  1  0
 14 15  2  0
 16 20  1  0
 16 17  1  0
 17 18  1  0
 19 18  1  0
 20 19  1  0
 21 20  1  0
  2 22  1  0
  7 23  1  0
  7 24  1  0
  9 25  1  0
 10 26  1  0
 12 27  1  0
 12 28  1  0
 16 29  1  6
 17 30  1  0
 17 31  1  0
 18 32  1  0
 18 33  1  0
 19 34  1  0
 19 35  1  0
 20 36  1  1
 21 37  1  0
 21 38  1  0
 21 39  1  0
M  ISO  8  22  14  25  14  26  14  29  13  30  13  31  13  32  13  33  13
M  ISO  6  34  13  35  13  36  13  37   8  38   8  39   8
M  END
>  <minimizedAffinity>  (1) 
-4.79632139

>  <minimizedRMSD>  (1) 
0.423479289

$$$$
