
     RDKit          3D

 42 44  0  0  1  0  0  0  0  0999 V2000
   46.6720   32.2070   37.9170 C   0  0  0  0  0  0  0  0  0  0  0  0
   46.0050   32.6520   39.0840 C   0  0  0  0  0  0  0  0  0  0  0  0
   46.4180   33.7840   39.7600 C   0  0  0  0  0  0  0  0  0  0  0  0
   47.5070   34.4290   39.2190 N   0  0  0  0  0  0  0  0  0  0  0  0
   48.1390   33.9890   38.0980 C   0  0  0  0  0  0  0  0  0  0  0  0
   47.7200   32.8810   37.4510 N   0  0  0  0  0  0  0  0  0  0  0  0
   49.2700   34.6810   37.5880 N   0  0  0  0  0  0  0  0  0  0  0  0
   45.7860   34.2820   40.9260 N   0  0  0  0  0  0  0  0  0  0  0  0
   46.5150   34.6450   42.0070 C   0  0  0  0  0  0  0  0  0  0  0  0
   45.8350   35.1260   43.1150 C   0  0  0  0  0  0  0  0  0  0  0  0
   44.4600   35.2260   43.0990 C   0  0  0  0  0  0  0  0  0  0  0  0
   43.8280   35.7340   44.2780 N   0  0  0  0  0  0  0  0  0  0  0  0
   43.7850   34.8610   42.0210 N   0  0  0  0  0  0  0  0  0  0  0  0
   44.4310   34.3900   40.9350 C   0  0  0  0  0  0  0  0  0  0  0  0
   43.6960   34.0670   39.9520 O   0  0  0  0  0  0  0  0  0  0  0  0
   46.1910   30.9980   37.2680 C   0  0  2  0  0  0  0  0  0  0  0  0
   46.8900   30.3850   36.2090 C   0  0  0  0  0  0  0  0  0  0  0  0
   46.2930   30.8790   34.8640 C   0  0  0  0  0  0  0  0  0  0  0  0
   45.1710   31.8610   35.2170 C   0  0  0  0  0  0  0  0  0  0  0  0
   44.8300   31.4730   36.5780 C   0  0  1  0  0  0  0  0  0  0  0  0
   44.0080   30.1830   36.5170 C   0  0  0  0  0  0  0  0  0  0  0  0
   42.6610   30.3790   35.8960 C   0  0  0  0  0  0  0  0  0  0  0  0
   45.1406   32.0851   39.4600 H   0  0  0  0  0  0  0  0  0  0  0  0
   49.7422   34.3403   36.7384 H   0  0  0  0  0  0  0  0  0  0  0  0
   49.6178   35.5234   38.0679 H   0  0  0  0  0  0  0  0  0  0  0  0
   47.6118   34.5610   42.0063 H   0  0  0  0  0  0  0  0  0  0  0  0
   46.3953   35.4295   44.0116 H   0  0  0  0  0  0  0  0  0  0  0  0
   42.8028   35.8270   44.3134 H   0  0  0  0  0  0  0  0  0  0  0  0
   44.3983   36.0067   45.0912 H   0  0  0  0  0  0  0  0  0  0  0  0
   46.2179   30.2442   38.0687 H   0  0  0  0  0  0  0  0  0  0  0  0
   47.9547   30.6561   36.2628 H   0  0  0  0  0  0  0  0  0  0  0  0
   46.7945   29.2915   36.2813 H   0  0  0  0  0  0  0  0  0  0  0  0
   45.8885   30.0298   34.2937 H   0  0  0  0  0  0  0  0  0  0  0  0
   47.0616   31.3618   34.2426 H   0  0  0  0  0  0  0  0  0  0  0  0
   45.5261   32.9014   35.1773 H   0  0  0  0  0  0  0  0  0  0  0  0
   44.3186   31.8212   34.5228 H   0  0  0  0  0  0  0  0  0  0  0  0
   44.3120   32.2971   37.0904 H   0  0  0  0  0  0  0  0  0  0  0  0
   44.5630   29.4410   35.9242 H   0  0  0  0  0  0  0  0  0  0  0  0
   43.8482   29.8445   37.5514 H   0  0  0  0  0  0  0  0  0  0  0  0
   41.9049   30.4890   36.6873 H   0  0  0  0  0  0  0  0  0  0  0  0
   42.6732   31.2848   35.2720 H   0  0  0  0  0  0  0  0  0  0  0  0
   42.4145   29.5073   35.2720 H   0  0  0  0  0  0  0  0  0  0  0  0
  1  2  2  0
  2  3  1  0
  3  8  1  0
  4  3  2  0
  5  4  1  0
  6  1  1  0
  6  5  2  0
  7  5  1  0
  8 14  1  0
  8  9  1  0
  9 10  2  0
 11 10  1  0
 11 12  1  0
 13 11  2  0
 14 13  1  0
 15 14  2  0
 16  1  1  0
 17 16  1  0
 18 19  1  0
 18 17  1  0
 19 20  1  0
 20 16  1  0
 21 20  1  0
 22 21  1  0
  2 23  1  0
  7 24  1  0
  7 25  1  0
  9 26  1  0
 10 27  1  0
 12 28  1  0
 12 29  1  0
 16 30  1  1
 17 31  1  0
 17 32  1  0
 18 33  1  0
 18 34  1  0
 19 35  1  0
 19 36  1  0
 20 37  1  1
 21 38  1  0
 21 39  1  0
 22 40  1  0
 22 41  1  0
 22 42  1  0
M  ISO  8  23  14  26  14  27  14  30  13  31  13  32  13  33  13  34  13
M  ISO  8  35  13  36  13  37  13  38   8  39   8  40   8  41   8  42   8
M  END
>  <minimizedAffinity>  (1) 
-5.16182232

>  <minimizedRMSD>  (1) 
7.41152477

$$$$
