
     RDKit          3D

 48 50  0  0  1  0  0  0  0  0999 V2000
   48.2640   33.6990   40.4500 C   0  0  0  0  0  0  0  0  0  0  0  0
   49.1330   32.6040   40.3440 C   0  0  0  0  0  0  0  0  0  0  0  0
   49.5380   32.1390   39.1040 C   0  0  0  0  0  0  0  0  0  0  0  0
   49.0350   32.8170   38.0220 N   0  0  0  0  0  0  0  0  0  0  0  0
   48.1910   33.8790   38.1550 C   0  0  0  0  0  0  0  0  0  0  0  0
   47.8050   34.3230   39.3620 N   0  0  0  0  0  0  0  0  0  0  0  0
   47.6960   34.5330   36.9900 N   0  0  0  0  0  0  0  0  0  0  0  0
   50.4200   31.0410   38.9360 N   0  0  0  0  0  0  0  0  0  0  0  0
   50.1360   30.0510   38.0590 C   0  0  0  0  0  0  0  0  0  0  0  0
   51.0400   29.0090   37.9460 C   0  0  0  0  0  0  0  0  0  0  0  0
   52.1820   28.9850   38.7000 C   0  0  0  0  0  0  0  0  0  0  0  0
   53.0650   27.8790   38.5300 N   0  0  0  0  0  0  0  0  0  0  0  0
   52.4290   29.9720   39.5510 N   0  0  0  0  0  0  0  0  0  0  0  0
   51.5590   30.9970   39.6750 C   0  0  0  0  0  0  0  0  0  0  0  0
   51.8850   31.8960   40.5160 O   0  0  0  0  0  0  0  0  0  0  0  0
   47.8330   34.1600   41.7810 C   0  0  2  0  0  0  0  0  0  0  0  0
   48.5180   33.7300   42.9460 C   0  0  0  0  0  0  0  0  0  0  0  0
   47.7340   32.5260   43.5350 C   0  0  0  0  0  0  0  0  0  0  0  0
   46.5360   32.3080   42.6420 C   0  0  0  0  0  0  0  0  0  0  0  0
   46.3760   33.5670   41.9420 C   0  0  1  0  0  0  0  0  0  0  0  0
   45.4580   34.5970   42.4860 C   0  0  0  0  0  0  0  0  0  0  0  0
   44.2720   34.8930   41.5830 C   0  0  0  0  0  0  0  0  0  0  0  0
   44.8300   34.1140   43.7800 C   0  0  0  0  0  0  0  0  0  0  0  0
   46.0630   35.9410   42.7890 C   0  0  0  0  0  0  0  0  0  0  0  0
   49.4973   32.1086   41.2561 H   0  0  0  0  0  0  0  0  0  0  0  0
   47.0578   35.3362   37.0822 H   0  0  0  0  0  0  0  0  0  0  0  0
   47.9763   34.2026   36.0556 H   0  0  0  0  0  0  0  0  0  0  0  0
   49.2167   30.0733   37.4554 H   0  0  0  0  0  0  0  0  0  0  0  0
   50.8379   28.1893   37.2408 H   0  0  0  0  0  0  0  0  0  0  0  0
   53.9346   27.8250   39.0794 H   0  0  0  0  0  0  0  0  0  0  0  0
   52.8335   27.1338   37.8577 H   0  0  0  0  0  0  0  0  0  0  0  0
   47.9931   35.2481   41.7594 H   0  0  0  0  0  0  0  0  0  0  0  0
   49.5412   33.4204   42.6866 H   0  0  0  0  0  0  0  0  0  0  0  0
   48.5806   34.5465   43.6805 H   0  0  0  0  0  0  0  0  0  0  0  0
   48.3690   31.6278   43.5431 H   0  0  0  0  0  0  0  0  0  0  0  0
   47.4234   32.7255   44.5712 H   0  0  0  0  0  0  0  0  0  0  0  0
   46.7232   31.4888   41.9322 H   0  0  0  0  0  0  0  0  0  0  0  0
   45.6363   32.0251   43.2081 H   0  0  0  0  0  0  0  0  0  0  0  0
   45.8586   33.3152   41.0045 H   0  0  0  0  0  0  0  0  0  0  0  0
   43.3880   35.1136   42.1993 H   0  0  0  0  0  0  0  0  0  0  0  0
   44.5023   35.7612   40.9480 H   0  0  0  0  0  0  0  0  0  0  0  0
   44.0673   34.0184   40.9480 H   0  0  0  0  0  0  0  0  0  0  0  0
   45.3793   34.5365   44.6342 H   0  0  0  0  0  0  0  0  0  0  0  0
   43.7801   34.4396   43.8219 H   0  0  0  0  0  0  0  0  0  0  0  0
   44.8752   33.0157   43.8219 H   0  0  0  0  0  0  0  0  0  0  0  0
   46.1247   36.0781   43.8787 H   0  0  0  0  0  0  0  0  0  0  0  0
   47.0723   35.9951   42.3549 H   0  0  0  0  0  0  0  0  0  0  0  0
   45.4343   36.7324   42.3549 H   0  0  0  0  0  0  0  0  0  0  0  0
  1 16  1  0
  2  1  2  0
  3  2  1  0
  4  5  1  0
  4  3  2  0
  5  6  2  0
  6  1  1  0
  7  5  1  0
  8  3  1  0
  8 14  1  0
  9  8  1  0
 10  9  2  0
 10 11  1  0
 11 13  2  0
 12 11  1  0
 13 14  1  0
 14 15  2  0
 16 20  1  0
 16 17  1  0
 17 18  1  0
 19 18  1  0
 20 21  1  0
 20 19  1  0
 21 24  1  0
 21 23  1  0
 22 21  1  0
  2 25  1  0
  7 26  1  0
  7 27  1  0
  9 28  1  0
 10 29  1  0
 12 30  1  0
 12 31  1  0
 16 32  1  6
 17 33  1  0
 17 34  1  0
 18 35  1  0
 18 36  1  0
 19 37  1  0
 19 38  1  0
 20 39  1  6
 22 40  1  0
 22 41  1  0
 22 42  1  0
 23 43  1  0
 23 44  1  0
 23 45  1  0
 24 46  1  0
 24 47  1  0
 24 48  1  0
M  ISO  8  25  14  28  14  29  14  32  13  33  13  34  13  35  13  36  13
M  ISO  8  37  13  38  13  39  13  40   8  41   8  42   8  43   8  44   8
M  ISO  4  45   8  46   8  47   8  48   8
M  END
>  <minimizedAffinity>  (1) 
-4.96022558

>  <minimizedRMSD>  (1) 
1.13837802

$$$$
