
     RDKit          3D

 27 29  0  0  0  0  0  0  0  0999 V2000
   45.9580   32.7050   44.9050 C   0  0  0  0  0  0  0  0  0  0  0  0
   45.2860   33.8930   44.4170 N   0  0  0  0  0  0  0  0  0  0  0  0
   44.9510   35.0020   45.1170 C   0  0  0  0  0  0  0  0  0  0  0  0
   44.3320   35.8870   44.2880 N   0  0  0  0  0  0  0  0  0  0  0  0
   44.2660   35.3540   43.0550 C   0  0  0  0  0  0  0  0  0  0  0  0
   43.7740   35.7430   41.8250 C   0  0  0  0  0  0  0  0  0  0  0  0
   43.8620   34.9630   40.7460 N   0  0  0  0  0  0  0  0  0  0  0  0
   44.4430   33.7580   40.8460 C   0  0  0  0  0  0  0  0  0  0  0  0
   44.9370   33.3330   42.0190 N   0  0  0  0  0  0  0  0  0  0  0  0
   44.8630   34.1080   43.1390 C   0  0  0  0  0  0  0  0  0  0  0  0
   46.5380   33.0750   46.2780 C   0  0  0  0  0  0  0  0  0  0  0  0
   45.1740   29.9070   47.7090 C   0  0  0  0  0  0  0  0  0  0  0  0
   45.0540   30.2500   49.0680 C   0  0  0  0  0  0  0  0  0  0  0  0
   45.4380   31.5290   49.4400 C   0  0  0  0  0  0  0  0  0  0  0  0
   45.9080   32.3980   48.5030 N   0  0  0  0  0  0  0  0  0  0  0  0
   46.0050   32.0150   47.1970 C   0  0  0  0  0  0  0  0  0  0  0  0
   45.6420   30.7890   46.8100 N   0  0  0  0  0  0  0  0  0  0  0  0
   46.7645   32.4130   44.2164 H   0  0  0  0  0  0  0  0  0  0  0  0
   45.2651   31.8539   44.9785 H   0  0  0  0  0  0  0  0  0  0  0  0
   45.1479   35.1629   46.1872 H   0  0  0  0  0  0  0  0  0  0  0  0
   43.2938   36.7282   41.7315 H   0  0  0  0  0  0  0  0  0  0  0  0
   44.5151   33.1124   39.9583 H   0  0  0  0  0  0  0  0  0  0  0  0
   47.6376   33.0558   46.2556 H   0  0  0  0  0  0  0  0  0  0  0  0
   46.2573   34.0900   46.5958 H   0  0  0  0  0  0  0  0  0  0  0  0
   44.8799   28.9004   47.3770 H   0  0  0  0  0  0  0  0  0  0  0  0
   44.6703   29.5311   49.8069 H   0  0  0  0  0  0  0  0  0  0  0  0
   45.3630   31.8418   50.4919 H   0  0  0  0  0  0  0  0  0  0  0  0
  1 11  1  0
  2  1  1  0
  2  3  1  0
  4  3  2  0
  5 10  2  0
  5  4  1  0
  6  5  1  0
  7  8  1  0
  7  6  2  0
  8  9  2  0
  9 10  1  0
 10  2  1  0
 11 16  1  0
 12 13  2  0
 13 14  1  0
 15 14  2  0
 16 15  1  0
 17 16  2  0
 17 12  1  0
  1 18  1  0
  1 19  1  0
  3 20  1  0
  6 21  1  0
  8 22  1  0
 11 23  1  0
 11 24  1  0
 12 25  1  0
 13 26  1  0
 14 27  1  0
M  ISO  8  18   8  19   8  20  14  21  14  22  14  23   8  24   8  25  14
M  ISO  2  26  14  27  14
M  END
>  <minimizedAffinity>  (1) 
-4.81004238

>  <minimizedRMSD>  (1) 
7.38033485

$$$$
