
     RDKit          3D

 25 26  0  0  0  0  0  0  0  0999 V2000
   46.5750   32.6970   45.0580 C   0  0  0  0  0  0  0  0  0  0  0  0
   44.5550   35.8070   44.5800 C   0  0  0  0  0  0  0  0  0  0  0  0
   45.0090   36.2300   43.3160 C   0  0  0  0  0  0  0  0  0  0  0  0
   45.9740   35.4470   42.6870 C   0  0  0  0  0  0  0  0  0  0  0  0
   46.4440   34.3200   43.2920 N   0  0  0  0  0  0  0  0  0  0  0  0
   45.9620   33.9590   44.5220 C   0  0  0  0  0  0  0  0  0  0  0  0
   45.0410   34.6850   45.1500 N   0  0  0  0  0  0  0  0  0  0  0  0
   46.7930   32.9750   46.5400 C   0  0  0  0  0  0  0  0  0  0  0  0
   46.1460   31.9380   47.3850 C   0  0  0  0  0  0  0  0  0  0  0  0
   45.9060   32.2920   48.6950 C   0  0  0  0  0  0  0  0  0  0  0  0
   45.3050   31.3470   49.5010 C   0  0  0  0  0  0  0  0  0  0  0  0
   44.9950   30.1190   48.9140 C   0  0  0  0  0  0  0  0  0  0  0  0
   45.2540   29.8100   47.5970 C   0  0  0  0  0  0  0  0  0  0  0  0
   45.8460   30.7550   46.8230 N   0  0  0  0  0  0  0  0  0  0  0  0
   47.5317   32.4870   44.5575 H   0  0  0  0  0  0  0  0  0  0  0  0
   45.9360   31.8179   44.8880 H   0  0  0  0  0  0  0  0  0  0  0  0
   43.7941   36.3991   45.1096 H   0  0  0  0  0  0  0  0  0  0  0  0
   44.6170   37.1429   42.8439 H   0  0  0  0  0  0  0  0  0  0  0  0
   46.3580   35.7393   41.6985 H   0  0  0  0  0  0  0  0  0  0  0  0
   47.8732   32.9837   46.7478 H   0  0  0  0  0  0  0  0  0  0  0  0
   46.3424   33.9493   46.7803 H   0  0  0  0  0  0  0  0  0  0  0  0
   46.1815   33.2845   49.0812 H   0  0  0  0  0  0  0  0  0  0  0  0
   45.0804   31.5520   50.5581 H   0  0  0  0  0  0  0  0  0  0  0  0
   44.5154   29.3526   49.5405 H   0  0  0  0  0  0  0  0  0  0  0  0
   44.9887   28.8255   47.1842 H   0  0  0  0  0  0  0  0  0  0  0  0
  1  8  1  0
  2  7  2  0
  3  2  1  0
  4  5  1  0
  4  3  2  0
  5  6  2  0
  6  1  1  0
  6  7  1  0
  8  9  1  0
  9 10  2  0
 10 11  1  0
 12 11  2  0
 13 12  1  0
 14  9  1  0
 14 13  2  0
  1 15  1  0
  1 16  1  0
  2 17  1  0
  3 18  1  0
  4 19  1  0
  8 20  1  0
  8 21  1  0
 10 22  1  0
 11 23  1  0
 12 24  1  0
 13 25  1  0
M  ISO  8  15   8  16   8  17  14  18  14  19  14  20   8  21   8  22  14
M  ISO  3  23  14  24  14  25  14
M  END
>  <minimizedAffinity>  (1) 
-4.75169563

>  <minimizedRMSD>  (1) 
1.72423363

$$$$
