
     RDKit          3D

 26 27  0  0  0  0  0  0  0  0999 V2000
   46.4370   32.6660   45.0590 C   0  0  0  0  0  0  0  0  0  0  0  0
   44.5620   35.8610   44.5880 C   0  0  0  0  0  0  0  0  0  0  0  0
   45.0230   36.2760   43.3260 C   0  0  0  0  0  0  0  0  0  0  0  0
   45.9440   35.4530   42.6970 C   0  0  0  0  0  0  0  0  0  0  0  0
   46.3630   34.3120   43.2930 N   0  0  0  0  0  0  0  0  0  0  0  0
   45.8990   33.9420   44.5100 C   0  0  0  0  0  0  0  0  0  0  0  0
   45.0090   34.7110   45.1460 N   0  0  0  0  0  0  0  0  0  0  0  0
   46.8190   32.9730   46.4940 C   0  0  0  0  0  0  0  0  0  0  0  0
   46.1760   32.0390   47.4480 C   0  0  0  0  0  0  0  0  0  0  0  0
   45.8810   32.2890   48.7620 C   0  0  0  0  0  0  0  0  0  0  0  0
   45.2730   31.3150   49.5440 C   0  0  0  0  0  0  0  0  0  0  0  0
   44.9850   30.1080   48.9530 C   0  0  0  0  0  0  0  0  0  0  0  0
   45.2680   29.8240   47.6350 C   0  0  0  0  0  0  0  0  0  0  0  0
   45.8770   30.8220   46.8790 C   0  0  0  0  0  0  0  0  0  0  0  0
   47.3191   32.3427   44.4869 H   0  0  0  0  0  0  0  0  0  0  0  0
   45.6999   31.8518   44.9976 H   0  0  0  0  0  0  0  0  0  0  0  0
   43.8293   36.4781   45.1286 H   0  0  0  0  0  0  0  0  0  0  0  0
   44.6700   37.2082   42.8607 H   0  0  0  0  0  0  0  0  0  0  0  0
   46.3369   35.7287   41.7073 H   0  0  0  0  0  0  0  0  0  0  0  0
   47.9111   32.8907   46.5969 H   0  0  0  0  0  0  0  0  0  0  0  0
   46.4747   33.9911   46.7285 H   0  0  0  0  0  0  0  0  0  0  0  0
   46.1271   33.2672   49.2008 H   0  0  0  0  0  0  0  0  0  0  0  0
   45.0303   31.5033   50.6002 H   0  0  0  0  0  0  0  0  0  0  0  0
   44.5042   29.3293   49.5633 H   0  0  0  0  0  0  0  0  0  0  0  0
   45.0221   28.8456   47.1964 H   0  0  0  0  0  0  0  0  0  0  0  0
   46.1203   30.6370   45.8223 H   0  0  0  0  0  0  0  0  0  0  0  0
  1  8  1  0
  2  7  2  0
  3  2  1  0
  4  5  1  0
  4  3  2  0
  5  6  2  0
  6  1  1  0
  6  7  1  0
  8  9  1  0
  9 10  2  0
 10 11  1  0
 12 11  2  0
 13 12  1  0
 14  9  1  0
 14 13  2  0
  1 15  1  0
  1 16  1  0
  2 17  1  0
  3 18  1  0
  4 19  1  0
  8 20  1  0
  8 21  1  0
 10 22  1  0
 11 23  1  0
 12 24  1  0
 13 25  1  0
 14 26  1  0
M  ISO  8  15   8  16   8  17  14  18  14  19  14  20   8  21   8  22  14
M  ISO  4  23  14  24  14  25  14  26  14
M  END
>  <minimizedAffinity>  (1) 
-4.84009218

>  <minimizedRMSD>  (1) 
1.45600986

$$$$
