
     RDKit          3D

 24 25  0  0  0  0  0  0  0  0999 V2000
   46.1420   32.6980   45.0820 C   0  0  0  0  0  0  0  0  0  0  0  0
   44.5820   36.0150   44.5300 C   0  0  0  0  0  0  0  0  0  0  0  0
   45.1150   36.3330   43.2670 C   0  0  0  0  0  0  0  0  0  0  0  0
   45.9750   35.4390   42.6390 C   0  0  0  0  0  0  0  0  0  0  0  0
   46.2690   34.2700   43.2860 N   0  0  0  0  0  0  0  0  0  0  0  0
   45.7370   33.9990   44.5000 C   0  0  0  0  0  0  0  0  0  0  0  0
   44.9140   34.8490   45.1080 N   0  0  0  0  0  0  0  0  0  0  0  0
   46.6420   32.9980   46.4970 C   0  0  0  0  0  0  0  0  0  0  0  0
   46.0460   32.0240   47.4580 C   0  0  0  0  0  0  0  0  0  0  0  0
   45.8500   32.2910   48.8110 C   0  0  0  0  0  0  0  0  0  0  0  0
   45.2860   31.2750   49.5540 C   0  0  0  0  0  0  0  0  0  0  0  0
   44.9550   30.1060   48.9790 N   0  0  0  0  0  0  0  0  0  0  0  0
   45.1620   29.8900   47.6660 C   0  0  0  0  0  0  0  0  0  0  0  0
   45.7150   30.8580   46.8840 N   0  0  0  0  0  0  0  0  0  0  0  0
   46.9454   32.2458   44.4819 H   0  0  0  0  0  0  0  0  0  0  0  0
   45.3023   31.9876   45.0967 H   0  0  0  0  0  0  0  0  0  0  0  0
   43.9011   36.7136   45.0382 H   0  0  0  0  0  0  0  0  0  0  0  0
   44.8527   37.2835   42.7794 H   0  0  0  0  0  0  0  0  0  0  0  0
   46.4057   35.6647   41.6523 H   0  0  0  0  0  0  0  0  0  0  0  0
   47.7384   32.9131   46.5231 H   0  0  0  0  0  0  0  0  0  0  0  0
   46.3437   34.0182   46.7802 H   0  0  0  0  0  0  0  0  0  0  0  0
   46.1287   33.2555   49.2605 H   0  0  0  0  0  0  0  0  0  0  0  0
   45.1051   31.4230   50.6289 H   0  0  0  0  0  0  0  0  0  0  0  0
   44.8820   28.9236   47.2215 H   0  0  0  0  0  0  0  0  0  0  0  0
  1  8  1  0
  2  7  2  0
  3  2  1  0
  4  3  2  0
  4  5  1  0
  5  6  2  0
  6  1  1  0
  6  7  1  0
  8  9  1  0
  9 10  2  0
 10 11  1  0
 12 11  2  0
 13 12  1  0
 14  9  1  0
 14 13  2  0
  1 15  1  0
  1 16  1  0
  2 17  1  0
  3 18  1  0
  4 19  1  0
  8 20  1  0
  8 21  1  0
 10 22  1  0
 11 23  1  0
 13 24  1  0
M  ISO  8  15   8  16   8  17  14  18  14  19  14  20   8  21   8  22  14
M  ISO  2  23  14  24  14
M  END
>  <minimizedAffinity>  (1) 
-4.58155346

>  <minimizedRMSD>  (1) 
1.77202606

$$$$
