
     RDKit          3D

 30 31  0  0  0  0  0  0  0  0999 V2000
   46.7610   32.6450   45.4510 C   0  0  0  0  0  0  0  0  0  0  0  0
   44.5290   35.5850   45.0200 C   0  0  0  0  0  0  0  0  0  0  0  0
   44.8690   36.0210   43.7290 C   0  0  0  0  0  0  0  0  0  0  0  0
   45.8430   35.3060   43.0450 C   0  0  0  0  0  0  0  0  0  0  0  0
   46.4280   34.2210   43.6400 N   0  0  0  0  0  0  0  0  0  0  0  0
   46.0690   33.8340   44.8920 C   0  0  0  0  0  0  0  0  0  0  0  0
   45.1310   34.5100   45.5710 N   0  0  0  0  0  0  0  0  0  0  0  0
   46.1440   32.3910   46.8150 C   0  0  0  0  0  0  0  0  0  0  0  0
   45.7830   31.0190   46.9800 N   0  0  0  0  0  0  0  0  0  0  0  0
   44.9030   30.8400   48.1000 C   0  0  0  0  0  0  0  0  0  0  0  0
   45.5790   31.4170   49.3120 C   0  0  0  0  0  0  0  0  0  0  0  0
   46.9130   30.9870   49.5110 N   0  0  0  0  0  0  0  0  0  0  0  0
   47.6680   30.6000   48.3770 C   0  0  0  0  0  0  0  0  0  0  0  0
   46.9110   30.1460   47.1780 C   0  0  0  0  0  0  0  0  0  0  0  0
   47.8381   32.8443   45.5519 H   0  0  0  0  0  0  0  0  0  0  0  0
   46.6464   31.7711   44.7928 H   0  0  0  0  0  0  0  0  0  0  0  0
   43.7608   36.1276   45.5905 H   0  0  0  0  0  0  0  0  0  0  0  0
   44.3814   36.8970   43.2763 H   0  0  0  0  0  0  0  0  0  0  0  0
   46.1427   35.6096   42.0311 H   0  0  0  0  0  0  0  0  0  0  0  0
   46.8718   32.6649   47.5929 H   0  0  0  0  0  0  0  0  0  0  0  0
   45.2319   33.0000   46.8995 H   0  0  0  0  0  0  0  0  0  0  0  0
   43.9529   31.3632   47.9168 H   0  0  0  0  0  0  0  0  0  0  0  0
   44.6870   29.7722   48.2522 H   0  0  0  0  0  0  0  0  0  0  0  0
   45.5843   32.5124   49.2114 H   0  0  0  0  0  0  0  0  0  0  0  0
   45.0073   31.0628   50.1824 H   0  0  0  0  0  0  0  0  0  0  0  0
   47.4188   31.7610   49.9649 H   0  0  0  0  0  0  0  0  0  0  0  0
   48.2784   31.4639   48.0754 H   0  0  0  0  0  0  0  0  0  0  0  0
   48.2377   29.7175   48.7035 H   0  0  0  0  0  0  0  0  0  0  0  0
   46.5578   29.1158   47.3326 H   0  0  0  0  0  0  0  0  0  0  0  0
   47.5635   30.1738   46.2929 H   0  0  0  0  0  0  0  0  0  0  0  0
  1  8  1  0
  2  7  2  0
  3  2  1  0
  4  5  1  0
  4  3  2  0
  5  6  2  0
  6  1  1  0
  6  7  1  0
  8  9  1  0
  9 14  1  0
  9 10  1  0
 10 11  1  0
 11 12  1  0
 13 12  1  0
 14 13  1  0
  1 15  1  0
  1 16  1  0
  2 17  1  0
  3 18  1  0
  4 19  1  0
  8 20  1  0
  8 21  1  0
 10 22  1  0
 10 23  1  0
 11 24  1  0
 11 25  1  0
 12 26  1  0
 13 27  1  0
 13 28  1  0
 14 29  1  0
 14 30  1  0
M  ISO  8  15   8  16   8  17  14  18  14  19  14  20   8  21   8  22  13
M  ISO  8  23  13  24  13  25  13  26   5  27  13  28  13  29  13  30  13
M  END
>  <minimizedAffinity>  (1) 
-4.65193987

>  <minimizedRMSD>  (1) 
2.09970546

$$$$
