
     RDKit          3D

 39 42  0  0  1  0  0  0  0  0999 V2000
   46.0000   31.0580   47.1960 C   0  0  2  0  0  0  0  0  0  0  0  0
   44.7340   34.9260   45.9000 C   0  0  0  0  0  0  0  0  0  0  0  0
   44.5530   35.5720   44.6830 C   0  0  0  0  0  0  0  0  0  0  0  0
   45.1340   35.0020   43.5380 C   0  0  0  0  0  0  0  0  0  0  0  0
   45.8370   33.8570   43.6730 N   0  0  0  0  0  0  0  0  0  0  0  0
   46.0040   33.2330   44.8790 C   0  0  0  0  0  0  0  0  0  0  0  0
   45.4470   33.7840   45.9680 N   0  0  0  0  0  0  0  0  0  0  0  0
   46.7360   32.0430   45.0430 N   0  0  0  0  0  0  0  0  0  0  0  0
   47.6070   31.7450   44.0390 C   0  0  0  0  0  0  0  0  0  0  0  0
   48.2160   30.5350   44.4350 C   0  0  0  0  0  0  0  0  0  0  0  0
   47.6950   30.1600   45.6400 N   0  0  0  0  0  0  0  0  0  0  0  0
   46.7970   31.0940   45.9890 C   0  0  0  0  0  0  0  0  0  0  0  0
   46.8060   31.8320   48.2780 C   0  0  0  0  0  0  0  0  0  0  0  0
   45.8160   29.6650   47.7040 C   0  0  0  0  0  0  0  0  0  0  0  0
   44.8980   28.8880   46.9490 N   0  0  0  0  0  0  0  0  0  0  0  0
   43.9060   29.3790   46.2120 N   0  0  0  0  0  0  0  0  0  0  0  0
   43.2370   28.3480   45.6430 C   0  0  0  0  0  0  0  0  0  0  0  0
   43.8290   27.1610   46.0380 C   0  0  0  0  0  0  0  0  0  0  0  0
   44.8780   27.5380   46.8640 C   0  0  0  0  0  0  0  0  0  0  0  0
   45.8490   26.7070   47.5690 C   0  0  0  0  0  0  0  0  0  0  0  0
   45.3460   25.7160   48.4930 C   0  0  0  0  0  0  0  0  0  0  0  0
   46.8670   24.8640   49.1890 S   0  0  0  0  0  0  0  0  0  0  0  0
   47.9160   26.0050   48.1020 C   0  0  0  0  0  0  0  0  0  0  0  0
   47.1500   26.6210   47.5810 N   0  0  0  0  0  0  0  0  0  0  0  0
   45.0094   31.4872   46.9851 H   0  0  0  0  0  0  0  0  0  0  0  0
   44.2924   35.3495   46.8142 H   0  0  0  0  0  0  0  0  0  0  0  0
   43.9713   36.5033   44.6181 H   0  0  0  0  0  0  0  0  0  0  0  0
   45.0188   35.4780   42.5530 H   0  0  0  0  0  0  0  0  0  0  0  0
   47.7946   32.3211   43.1209 H   0  0  0  0  0  0  0  0  0  0  0  0
   48.9821   29.9860   43.8678 H   0  0  0  0  0  0  0  0  0  0  0  0
   46.4757   31.5148   49.2781 H   0  0  0  0  0  0  0  0  0  0  0  0
   47.8783   31.6165   48.1605 H   0  0  0  0  0  0  0  0  0  0  0  0
   46.6341   32.9121   48.1605 H   0  0  0  0  0  0  0  0  0  0  0  0
   46.7927   29.1592   47.6863 H   0  0  0  0  0  0  0  0  0  0  0  0
   45.3994   29.7503   48.7185 H   0  0  0  0  0  0  0  0  0  0  0  0
   42.3665   28.4391   44.9767 H   0  0  0  0  0  0  0  0  0  0  0  0
   43.5320   26.1396   45.7577 H   0  0  0  0  0  0  0  0  0  0  0  0
   44.2942   25.5055   48.7369 H   0  0  0  0  0  0  0  0  0  0  0  0
   49.0112   26.0482   48.0087 H   0  0  0  0  0  0  0  0  0  0  0  0
  1 14  1  0
  1 13  1  0
  2  7  2  0
  3  2  1  0
  4  5  1  0
  4  3  2  0
  5  6  2  0
  6  8  1  0
  6  7  1  0
  8 12  1  0
  9 10  2  0
  9  8  1  0
 10 11  1  0
 11 12  2  0
 12  1  1  0
 15 14  1  0
 16 15  1  0
 17 18  1  0
 17 16  2  0
 18 19  2  0
 19 15  1  0
 19 20  1  0
 20 24  1  0
 20 21  2  0
 21 22  1  0
 23 22  1  0
 24 23  2  0
  1 25  1  6
  2 26  1  0
  3 27  1  0
  4 28  1  0
  9 29  1  0
 10 30  1  0
 13 31  1  0
 13 32  1  0
 13 33  1  0
 14 34  1  0
 14 35  1  0
 17 36  1  0
 18 37  1  0
 21 38  1  0
 23 39  1  0
M  ISO  8  25   8  26  14  27  14  28  14  29  14  30  14  31   8  32   8
M  ISO  7  33   8  34   8  35   8  36  14  37  14  38  14  39  14
M  END
>  <minimizedAffinity>  (1) 
-4.58842325

>  <minimizedRMSD>  (1) 
0.908849418

$$$$
