
     RDKit          3D

 23 24  0  0  0  0  0  0  0  0999 V2000
   44.5380   35.6930   44.8430 C   0  0  0  0  0  0  0  0  0  0  0  0
   45.1720   35.6980   43.5850 C   0  0  0  0  0  0  0  0  0  0  0  0
   46.1410   34.7450   43.2920 C   0  0  0  0  0  0  0  0  0  0  0  0
   46.4450   33.8350   44.2410 N   0  0  0  0  0  0  0  0  0  0  0  0
   45.8300   33.8370   45.4540 C   0  0  0  0  0  0  0  0  0  0  0  0
   44.9020   34.7510   45.7300 N   0  0  0  0  0  0  0  0  0  0  0  0
   46.2520   32.7860   46.4110 C   0  0  0  0  0  0  0  0  0  0  0  0
   45.2980   32.9050   47.6010 C   0  0  0  0  0  0  0  0  0  0  0  0
   44.8660   31.5900   48.1470 C   0  0  0  0  0  0  0  0  0  0  0  0
   45.7870   30.5120   48.5050 C   0  0  0  0  0  0  0  0  0  0  0  0
   45.2150   31.3200   49.6160 C   0  0  0  0  0  0  0  0  0  0  0  0
   43.7679   36.4379   45.0920 H   0  0  0  0  0  0  0  0  0  0  0  0
   44.9006   36.4555   42.8350 H   0  0  0  0  0  0  0  0  0  0  0  0
   46.6454   34.7331   42.3146 H   0  0  0  0  0  0  0  0  0  0  0  0
   46.1681   31.7909   45.9498 H   0  0  0  0  0  0  0  0  0  0  0  0
   47.3012   32.9118   46.7167 H   0  0  0  0  0  0  0  0  0  0  0  0
   45.8060   33.4643   48.4004 H   0  0  0  0  0  0  0  0  0  0  0  0
   44.3945   33.4198   47.2422 H   0  0  0  0  0  0  0  0  0  0  0  0
   43.9769   31.6128   47.4997 H   0  0  0  0  0  0  0  0  0  0  0  0
   45.4730   29.4655   48.3778 H   0  0  0  0  0  0  0  0  0  0  0  0
   46.8118   30.2528   48.2006 H   0  0  0  0  0  0  0  0  0  0  0  0
   45.8491   32.0238   50.1751 H   0  0  0  0  0  0  0  0  0  0  0  0
   44.6506   31.1100   50.5365 H   0  0  0  0  0  0  0  0  0  0  0  0
  1  6  2  0
  2  1  1  0
  3  2  2  0
  3  4  1  0
  4  5  2  0
  5  6  1  0
  5  7  1  0
  7  8  1  0
  8  9  1  0
  9 10  1  0
  9 11  1  0
 10 11  1  0
  1 12  1  0
  2 13  1  0
  3 14  1  0
  7 15  1  0
  7 16  1  0
  8 17  1  0
  8 18  1  0
  9 19  1  0
 10 20  1  0
 10 21  1  0
 11 22  1  0
 11 23  1  0
M  ISO  8  12  14  13  14  14  14  15   8  16   8  17   8  18   8  19  13
M  ISO  4  20  13  21  13  22  13  23  13
M  END
>  <minimizedAffinity>  (1) 
-4.07317162

>  <minimizedRMSD>  (1) 
1.36951637

$$$$
