
     RDKit          3D

 18 18  0  0  0  0  0  0  0  0999 V2000
   44.5470   35.5530   45.0720 C   0  0  0  0  0  0  0  0  0  0  0  0
   45.1310   35.6280   43.7910 C   0  0  0  0  0  0  0  0  0  0  0  0
   46.0840   34.6590   43.4480 C   0  0  0  0  0  0  0  0  0  0  0  0
   46.3900   33.7070   44.3630 N   0  0  0  0  0  0  0  0  0  0  0  0
   45.8120   33.6610   45.5820 C   0  0  0  0  0  0  0  0  0  0  0  0
   44.9060   34.5680   45.9310 N   0  0  0  0  0  0  0  0  0  0  0  0
   46.2550   32.5570   46.4650 C   0  0  0  0  0  0  0  0  0  0  0  0
   45.6820   32.8560   47.8490 C   0  0  0  0  0  0  0  0  0  0  0  0
   44.4560   32.1390   48.0730 N   0  0  0  0  0  0  0  0  0  0  0  0
   43.7964   36.2975   45.3758 H   0  0  0  0  0  0  0  0  0  0  0  0
   44.8479   36.4213   43.0835 H   0  0  0  0  0  0  0  0  0  0  0  0
   46.5710   34.6709   42.4617 H   0  0  0  0  0  0  0  0  0  0  0  0
   45.8710   31.5954   46.0938 H   0  0  0  0  0  0  0  0  0  0  0  0
   47.3523   32.4854   46.4944 H   0  0  0  0  0  0  0  0  0  0  0  0
   46.4158   32.5584   48.6125 H   0  0  0  0  0  0  0  0  0  0  0  0
   45.4704   33.9336   47.9117 H   0  0  0  0  0  0  0  0  0  0  0  0
   44.2938   32.0442   49.0857 H   0  0  0  0  0  0  0  0  0  0  0  0
   43.6734   32.6556   47.6469 H   0  0  0  0  0  0  0  0  0  0  0  0
  1  6  2  0
  2  1  1  0
  3  2  2  0
  3  4  1  0
  4  5  2  0
  5  6  1  0
  5  7  1  0
  7  8  1  0
  8  9  1  0
  1 10  1  0
  2 11  1  0
  3 12  1  0
  7 13  1  0
  7 14  1  0
  8 15  1  0
  8 16  1  0
  9 17  1  0
  9 18  1  0
M  ISO  8  10  14  11  14  12  14  13   8  14   8  15   8  16   8  17   5
M  ISO  1  18   5
M  END
>  <minimizedAffinity>  (1) 
-3.44839454

>  <minimizedRMSD>  (1) 
0.442663163

$$$$
