
     RDKit          3D

 34 36  0  0  1  0  0  0  0  0999 V2000
   45.7050   32.0060   47.1260 N   0  0  0  0  0  0  0  0  0  0  0  0
   45.7770   30.6680   46.6200 C   0  0  0  0  0  0  0  0  0  0  0  0
   44.8570   29.7370   47.3590 C   0  0  0  0  0  0  0  0  0  0  0  0
   45.0420   29.7440   48.7140 O   0  0  0  0  0  0  0  0  0  0  0  0
   45.0100   31.0230   49.2510 C   0  0  0  0  0  0  0  0  0  0  0  0
   45.9790   31.9450   48.5600 C   0  0  1  0  0  0  0  0  0  0  0  0
   47.3790   31.6650   48.8930 C   0  0  0  0  0  0  0  0  0  0  0  0
   48.4610   32.4550   48.7790 N   0  0  0  0  0  0  0  0  0  0  0  0
   49.4880   31.7810   49.1950 O   0  0  0  0  0  0  0  0  0  0  0  0
   49.1660   30.5740   49.5860 C   0  0  0  0  0  0  0  0  0  0  0  0
   47.8440   30.4850   49.4020 N   0  0  0  0  0  0  0  0  0  0  0  0
   46.6920   32.8250   46.5160 C   0  0  0  0  0  0  0  0  0  0  0  0
   46.7770   32.7390   45.0480 C   0  0  0  0  0  0  0  0  0  0  0  0
   44.5870   35.7200   44.5710 C   0  0  0  0  0  0  0  0  0  0  0  0
   45.0060   36.1910   43.3060 C   0  0  0  0  0  0  0  0  0  0  0  0
   46.0090   35.4700   42.6780 C   0  0  0  0  0  0  0  0  0  0  0  0
   46.5550   34.3610   43.2650 N   0  0  0  0  0  0  0  0  0  0  0  0
   46.1210   33.9480   44.4780 C   0  0  0  0  0  0  0  0  0  0  0  0
   45.1540   34.6180   45.1160 N   0  0  0  0  0  0  0  0  0  0  0  0
   45.4962   30.6748   45.5565 H   0  0  0  0  0  0  0  0  0  0  0  0
   46.8072   30.3076   46.7569 H   0  0  0  0  0  0  0  0  0  0  0  0
   43.8191   30.0344   47.1484 H   0  0  0  0  0  0  0  0  0  0  0  0
   45.0803   28.7184   47.0088 H   0  0  0  0  0  0  0  0  0  0  0  0
   43.9935   31.4291   49.1427 H   0  0  0  0  0  0  0  0  0  0  0  0
   45.2987   30.9559   50.3103 H   0  0  0  0  0  0  0  0  0  0  0  0
   45.8142   32.9591   48.9531 H   0  0  0  0  0  0  0  0  0  0  0  0
   49.8387   29.7986   49.9814 H   0  0  0  0  0  0  0  0  0  0  0  0
   46.4744   33.8702   46.7810 H   0  0  0  0  0  0  0  0  0  0  0  0
   47.6586   32.4602   46.8936 H   0  0  0  0  0  0  0  0  0  0  0  0
   47.8314   32.7044   44.7364 H   0  0  0  0  0  0  0  0  0  0  0  0
   46.2769   31.8275   44.6888 H   0  0  0  0  0  0  0  0  0  0  0  0
   43.7943   36.2528   45.1168 H   0  0  0  0  0  0  0  0  0  0  0  0
   44.5591   37.0836   42.8439 H   0  0  0  0  0  0  0  0  0  0  0  0
   46.3722   35.7944   41.6917 H   0  0  0  0  0  0  0  0  0  0  0  0
  1  6  1  0
  2  1  1  0
  2  3  1  0
  3  4  1  0
  4  5  1  0
  6  7  1  0
  6  5  1  0
  7 11  1  0
  8  7  2  0
  8  9  1  0
  9 10  1  0
 11 10  2  0
 12  1  1  0
 13 12  1  0
 14 19  2  0
 15 14  1  0
 16 17  1  0
 16 15  2  0
 17 18  2  0
 18 13  1  0
 18 19  1  0
  2 20  1  0
  2 21  1  0
  3 22  1  0
  3 23  1  0
  5 24  1  0
  5 25  1  0
  6 26  1  1
 10 27  1  0
 12 28  1  0
 12 29  1  0
 13 30  1  0
 13 31  1  0
 14 32  1  0
 15 33  1  0
 16 34  1  0
M  ISO  8  20  13  21  13  22  13  23  13  24  13  25  13  26  13  27  14
M  ISO  7  28   8  29   8  30   8  31   8  32  14  33  14  34  14
M  END
>  <minimizedAffinity>  (1) 
-5.16734123

>  <minimizedRMSD>  (1) 
0.340196639

$$$$
