
     RDKit          3D

 36 38  0  0  1  0  0  0  0  0999 V2000
   45.8720   31.5300   46.9300 N   0  0  0  0  0  0  0  0  0  0  0  0
   45.7370   30.4060   46.1040 C   0  0  0  0  0  0  0  0  0  0  0  0
   44.6740   29.4430   46.6360 C   0  0  0  0  0  0  0  0  0  0  0  0
   45.0170   28.9890   47.8800 O   0  0  0  0  0  0  0  0  0  0  0  0
   45.3240   29.9970   48.7760 C   0  0  0  0  0  0  0  0  0  0  0  0
   46.2270   31.0790   48.2760 C   0  0  1  0  0  0  0  0  0  0  0  0
   47.6440   30.8190   48.4840 C   0  0  0  0  0  0  0  0  0  0  0  0
   48.5150   31.6930   49.2080 C   0  0  0  0  0  0  0  0  0  0  0  0
   49.8190   31.3390   49.3470 C   0  0  0  0  0  0  0  0  0  0  0  0
   50.2120   30.1200   48.7560 C   0  0  0  0  0  0  0  0  0  0  0  0
   48.6220   29.4860   47.9820 S   0  0  0  0  0  0  0  0  0  0  0  0
   46.8580   32.4040   46.4190 C   0  0  0  0  0  0  0  0  0  0  0  0
   46.8070   32.5250   44.9270 C   0  0  0  0  0  0  0  0  0  0  0  0
   44.5940   35.5120   45.1580 C   0  0  0  0  0  0  0  0  0  0  0  0
   44.8190   36.1190   43.8910 C   0  0  0  0  0  0  0  0  0  0  0  0
   45.7250   35.4870   43.0230 C   0  0  0  0  0  0  0  0  0  0  0  0
   46.3350   34.3490   43.4190 N   0  0  0  0  0  0  0  0  0  0  0  0
   46.0870   33.8110   44.6360 C   0  0  0  0  0  0  0  0  0  0  0  0
   45.2440   34.3680   45.4830 N   0  0  0  0  0  0  0  0  0  0  0  0
   46.7023   29.8808   46.0546 H   0  0  0  0  0  0  0  0  0  0  0  0
   45.4249   30.7470   45.1059 H   0  0  0  0  0  0  0  0  0  0  0  0
   43.7086   29.9668   46.6955 H   0  0  0  0  0  0  0  0  0  0  0  0
   44.5986   28.5843   45.9527 H   0  0  0  0  0  0  0  0  0  0  0  0
   44.3795   30.4668   49.0877 H   0  0  0  0  0  0  0  0  0  0  0  0
   45.8788   29.5061   49.5892 H   0  0  0  0  0  0  0  0  0  0  0  0
   46.0411   31.9484   48.9238 H   0  0  0  0  0  0  0  0  0  0  0  0
   48.1373   32.6304   49.6423 H   0  0  0  0  0  0  0  0  0  0  0  0
   50.5335   31.9719   49.8937 H   0  0  0  0  0  0  0  0  0  0  0  0
   51.2082   29.6536   48.7498 H   0  0  0  0  0  0  0  0  0  0  0  0
   46.7060   33.4010   46.8582 H   0  0  0  0  0  0  0  0  0  0  0  0
   47.8408   31.9874   46.6848 H   0  0  0  0  0  0  0  0  0  0  0  0
   47.8251   32.5554   44.5117 H   0  0  0  0  0  0  0  0  0  0  0  0
   46.2928   31.6655   44.4721 H   0  0  0  0  0  0  0  0  0  0  0  0
   43.8940   35.9702   45.8722 H   0  0  0  0  0  0  0  0  0  0  0  0
   44.3037   37.0470   43.6023 H   0  0  0  0  0  0  0  0  0  0  0  0
   45.9353   35.9144   42.0315 H   0  0  0  0  0  0  0  0  0  0  0  0
  1  6  1  0
  2  3  1  0
  2  1  1  0
  3  4  1  0
  4  5  1  0
  6  7  1  0
  6  5  1  0
  7  8  2  0
  8  9  1  0
 10  9  2  0
 11  7  1  0
 11 10  1  0
 12  1  1  0
 13 12  1  0
 14 19  2  0
 15 14  1  0
 16 17  1  0
 16 15  2  0
 17 18  2  0
 18 13  1  0
 18 19  1  0
  2 20  1  0
  2 21  1  0
  3 22  1  0
  3 23  1  0
  5 24  1  0
  5 25  1  0
  6 26  1  1
  8 27  1  0
  9 28  1  0
 10 29  1  0
 12 30  1  0
 12 31  1  0
 13 32  1  0
 13 33  1  0
 14 34  1  0
 15 35  1  0
 16 36  1  0
M  ISO  8  20  13  21  13  22  13  23  13  24  13  25  13  26  13  27  14
M  ISO  8  28  14  29  14  30   8  31   8  32   8  33   8  34  14  35  14
M  ISO  1  36  14
M  END
>  <minimizedAffinity>  (1) 
-4.85504913

>  <minimizedRMSD>  (1) 
1.34023881

$$$$
