
     RDKit          3D

 36 38  0  0  1  0  0  0  0  0999 V2000
   45.9300   30.8470   45.8040 N   0  0  0  0  0  0  0  0  0  0  0  0
   46.5340   29.7300   45.1070 C   0  0  0  0  0  0  0  0  0  0  0  0
   45.7450   28.4710   45.2660 C   0  0  0  0  0  0  0  0  0  0  0  0
   45.4390   28.1410   46.5530 O   0  0  0  0  0  0  0  0  0  0  0  0
   44.9180   29.1970   47.2740 C   0  0  0  0  0  0  0  0  0  0  0  0
   45.7980   30.4120   47.2130 C   0  0  2  0  0  0  0  0  0  0  0  0
   46.8740   31.9380   45.8160 C   0  0  0  0  0  0  0  0  0  0  0  0
   47.0860   32.6110   44.5140 C   0  0  0  0  0  0  0  0  0  0  0  0
   44.6500   35.2960   45.4400 C   0  0  0  0  0  0  0  0  0  0  0  0
   44.6410   36.0830   44.2490 C   0  0  0  0  0  0  0  0  0  0  0  0
   45.4500   35.6620   43.2070 C   0  0  0  0  0  0  0  0  0  0  0  0
   46.2070   34.5450   43.3450 N   0  0  0  0  0  0  0  0  0  0  0  0
   46.2020   33.8130   44.4810 C   0  0  0  0  0  0  0  0  0  0  0  0
   45.4320   34.1900   45.5070 N   0  0  0  0  0  0  0  0  0  0  0  0
   45.1160   31.4780   48.0290 C   0  0  0  0  0  0  0  0  0  0  0  0
   45.2690   31.2580   49.5450 C   0  0  0  0  0  0  0  0  0  0  0  0
   45.8210   32.4590   48.8490 C   0  0  0  0  0  0  0  0  0  0  0  0
   47.5452   29.5672   45.5083 H   0  0  0  0  0  0  0  0  0  0  0  0
   46.5629   29.9769   44.0355 H   0  0  0  0  0  0  0  0  0  0  0  0
   44.8028   28.5863   44.7101 H   0  0  0  0  0  0  0  0  0  0  0  0
   46.3813   27.6593   44.8837 H   0  0  0  0  0  0  0  0  0  0  0  0
   43.9303   29.4536   46.8635 H   0  0  0  0  0  0  0  0  0  0  0  0
   44.8444   28.8849   48.3262 H   0  0  0  0  0  0  0  0  0  0  0  0
   46.8055   30.2078   47.6045 H   0  0  0  0  0  0  0  0  0  0  0  0
   46.5129   32.6909   46.5320 H   0  0  0  0  0  0  0  0  0  0  0  0
   47.8435   31.4959   46.0892 H   0  0  0  0  0  0  0  0  0  0  0  0
   48.1383   32.9159   44.4158 H   0  0  0  0  0  0  0  0  0  0  0  0
   46.8466   31.9312   43.6830 H   0  0  0  0  0  0  0  0  0  0  0  0
   44.0261   35.5851   46.2986 H   0  0  0  0  0  0  0  0  0  0  0  0
   44.0179   36.9854   44.1627 H   0  0  0  0  0  0  0  0  0  0  0  0
   45.4787   36.2334   42.2675 H   0  0  0  0  0  0  0  0  0  0  0  0
   44.3326   31.6134   47.2688 H   0  0  0  0  0  0  0  0  0  0  0  0
   44.3991   31.3517   50.2118 H   0  0  0  0  0  0  0  0  0  0  0  0
   45.6690   30.4650   50.1939 H   0  0  0  0  0  0  0  0  0  0  0  0
   46.9101   32.5714   48.7433 H   0  0  0  0  0  0  0  0  0  0  0  0
   45.7123   33.5431   49.0003 H   0  0  0  0  0  0  0  0  0  0  0  0
  1  7  1  0
  1  6  1  0
  2  3  1  0
  2  1  1  0
  3  4  1  0
  4  5  1  0
  6  5  1  0
  6 15  1  0
  8  7  1  0
  9 14  2  0
 10  9  1  0
 11 12  1  0
 11 10  2  0
 12 13  2  0
 13  8  1  0
 13 14  1  0
 15 17  1  0
 15 16  1  0
 17 16  1  0
  2 18  1  0
  2 19  1  0
  3 20  1  0
  3 21  1  0
  5 22  1  0
  5 23  1  0
  6 24  1  1
  7 25  1  0
  7 26  1  0
  8 27  1  0
  8 28  1  0
  9 29  1  0
 10 30  1  0
 11 31  1  0
 15 32  1  0
 16 33  1  0
 16 34  1  0
 17 35  1  0
 17 36  1  0
M  ISO  8  18  13  19  13  20  13  21  13  22  13  23  13  24  13  25   8
M  ISO  8  26   8  27   8  28   8  29  14  30  14  31  14  32  13  33  13
M  ISO  3  34  13  35  13  36  13
M  END
>  <minimizedAffinity>  (1) 
-4.62761688

>  <minimizedRMSD>  (1) 
2.00099063

$$$$
