
     RDKit          3D

 32 33  0  0  1  0  0  0  0  0999 V2000
   46.5870   32.5840   46.5250 C   0  0  0  0  0  0  0  0  0  0  0  0
   45.6590   31.5380   46.8130 N   0  0  0  0  0  0  0  0  0  0  0  0
   45.9040   30.4880   45.9000 C   0  0  0  0  0  0  0  0  0  0  0  0
   44.9570   29.3160   46.1630 C   0  0  0  0  0  0  0  0  0  0  0  0
   45.1480   28.7980   47.4090 O   0  0  0  0  0  0  0  0  0  0  0  0
   45.2240   29.7330   48.4170 C   0  0  0  0  0  0  0  0  0  0  0  0
   46.0310   30.9610   48.1310 C   0  0  2  0  0  0  0  0  0  0  0  0
   45.6380   31.9450   49.2370 C   0  0  0  0  0  0  0  0  0  0  0  0
   46.8540   32.7000   45.0590 C   0  0  0  0  0  0  0  0  0  0  0  0
   44.5750   35.6190   44.8120 C   0  0  0  0  0  0  0  0  0  0  0  0
   44.9280   36.1250   43.5200 C   0  0  0  0  0  0  0  0  0  0  0  0
   45.9410   35.4600   42.8090 C   0  0  0  0  0  0  0  0  0  0  0  0
   46.5390   34.3770   43.3610 N   0  0  0  0  0  0  0  0  0  0  0  0
   46.1600   33.9420   44.5910 C   0  0  0  0  0  0  0  0  0  0  0  0
   45.2170   34.5300   45.3010 N   0  0  0  0  0  0  0  0  0  0  0  0
   46.1740   33.5366   46.8883 H   0  0  0  0  0  0  0  0  0  0  0  0
   47.5362   32.3475   47.0281 H   0  0  0  0  0  0  0  0  0  0  0  0
   46.9433   30.1457   46.0127 H   0  0  0  0  0  0  0  0  0  0  0  0
   45.7350   30.8589   44.8783 H   0  0  0  0  0  0  0  0  0  0  0  0
   43.9183   29.6675   46.0759 H   0  0  0  0  0  0  0  0  0  0  0  0
   45.1634   28.5286   45.4231 H   0  0  0  0  0  0  0  0  0  0  0  0
   44.1987   30.0545   48.6523 H   0  0  0  0  0  0  0  0  0  0  0  0
   45.7461   29.2280   49.2431 H   0  0  0  0  0  0  0  0  0  0  0  0
   47.1091   30.7441   48.1039 H   0  0  0  0  0  0  0  0  0  0  0  0
   45.8217   31.4851   50.2192 H   0  0  0  0  0  0  0  0  0  0  0  0
   46.2391   32.8614   49.1430 H   0  0  0  0  0  0  0  0  0  0  0  0
   44.5710   32.1952   49.1430 H   0  0  0  0  0  0  0  0  0  0  0  0
   47.9358   32.7786   44.8759 H   0  0  0  0  0  0  0  0  0  0  0  0
   46.4867   31.8148   44.5191 H   0  0  0  0  0  0  0  0  0  0  0  0
   43.7885   36.1105   45.4035 H   0  0  0  0  0  0  0  0  0  0  0  0
   44.4224   37.0059   43.0977 H   0  0  0  0  0  0  0  0  0  0  0  0
   46.2457   35.8154   41.8136 H   0  0  0  0  0  0  0  0  0  0  0  0
  1  2  1  0
  2  7  1  0
  3  4  1  0
  3  2  1  0
  4  5  1  0
  5  6  1  0
  7  6  1  0
  7  8  1  0
  9  1  1  0
 10 15  2  0
 11 10  1  0
 12 13  1  0
 12 11  2  0
 13 14  2  0
 14  9  1  0
 14 15  1  0
  1 16  1  0
  1 17  1  0
  3 18  1  0
  3 19  1  0
  4 20  1  0
  4 21  1  0
  6 22  1  0
  6 23  1  0
  7 24  1  6
  8 25  1  0
  8 26  1  0
  8 27  1  0
  9 28  1  0
  9 29  1  0
 10 30  1  0
 11 31  1  0
 12 32  1  0
M  ISO  8  16   8  17   8  18  13  19  13  20  13  21  13  22  13  23  13
M  ISO  8  24  13  25   8  26   8  27   8  28   8  29   8  30  14  31  14
M  ISO  1  32  14
M  END
>  <minimizedAffinity>  (1) 
-4.40813065

>  <minimizedRMSD>  (1) 
1.064551

$$$$
