
     RDKit          3D

 42 44  0  0  1  0  0  0  0  0999 V2000
   46.5880   32.0510   47.5770 N   0  0  0  0  0  0  0  0  0  0  0  0
   45.2420   32.2780   48.0010 C   0  0  0  0  0  0  0  0  0  0  0  0
   44.8670   31.3460   49.1400 C   0  0  0  0  0  0  0  0  0  0  0  0
   45.0290   30.0350   48.8540 O   0  0  0  0  0  0  0  0  0  0  0  0
   46.2110   29.7090   48.2020 C   0  0  0  0  0  0  0  0  0  0  0  0
   46.6720   30.6450   47.1600 C   0  0  2  0  0  0  0  0  0  0  0  0
   48.0780   30.2960   46.7510 C   0  0  0  0  0  0  0  0  0  0  0  0
   48.8330   29.4620   47.7200 C   0  0  0  0  0  0  0  0  0  0  0  0
   49.9420   28.8660   46.8420 C   0  0  0  0  0  0  0  0  0  0  0  0
   49.5150   29.0780   45.4050 C   0  0  0  0  0  0  0  0  0  0  0  0
   48.0260   29.3590   45.5420 C   0  0  0  0  0  0  0  0  0  0  0  0
   46.8180   32.8790   46.4310 C   0  0  0  0  0  0  0  0  0  0  0  0
   45.9770   32.6270   45.2640 C   0  0  0  0  0  0  0  0  0  0  0  0
   44.5920   36.0440   44.6460 C   0  0  0  0  0  0  0  0  0  0  0  0
   45.1080   36.3300   43.3530 C   0  0  0  0  0  0  0  0  0  0  0  0
   45.8940   35.3510   42.7610 C   0  0  0  0  0  0  0  0  0  0  0  0
   46.1310   34.1970   43.4200 N   0  0  0  0  0  0  0  0  0  0  0  0
   45.6260   33.9530   44.6490 C   0  0  0  0  0  0  0  0  0  0  0  0
   44.8670   34.8670   45.2520 N   0  0  0  0  0  0  0  0  0  0  0  0
   45.1424   33.3195   48.3405 H   0  0  0  0  0  0  0  0  0  0  0  0
   44.5693   32.0838   47.1526 H   0  0  0  0  0  0  0  0  0  0  0  0
   45.4961   31.5908   50.0085 H   0  0  0  0  0  0  0  0  0  0  0  0
   43.7955   31.4987   49.3363 H   0  0  0  0  0  0  0  0  0  0  0  0
   47.0030   29.6400   48.9622 H   0  0  0  0  0  0  0  0  0  0  0  0
   45.9994   28.7683   47.6727 H   0  0  0  0  0  0  0  0  0  0  0  0
   45.9961   30.5365   46.2989 H   0  0  0  0  0  0  0  0  0  0  0  0
   48.5563   31.2766   46.6111 H   0  0  0  0  0  0  0  0  0  0  0  0
   49.2529   30.0750   48.5311 H   0  0  0  0  0  0  0  0  0  0  0  0
   48.2155   28.7047   48.2251 H   0  0  0  0  0  0  0  0  0  0  0  0
   50.8958   29.3791   47.0344 H   0  0  0  0  0  0  0  0  0  0  0  0
   50.0896   27.7978   47.0591 H   0  0  0  0  0  0  0  0  0  0  0  0
   49.6955   28.1775   44.7997 H   0  0  0  0  0  0  0  0  0  0  0  0
   50.0681   29.8819   44.8972 H   0  0  0  0  0  0  0  0  0  0  0  0
   47.6149   29.8558   44.6508 H   0  0  0  0  0  0  0  0  0  0  0  0
   47.3826   28.4737   45.6530 H   0  0  0  0  0  0  0  0  0  0  0  0
   46.6603   33.9238   46.7369 H   0  0  0  0  0  0  0  0  0  0  0  0
   47.8429   32.6469   46.1060 H   0  0  0  0  0  0  0  0  0  0  0  0
   46.5244   32.0109   44.5355 H   0  0  0  0  0  0  0  0  0  0  0  0
   45.0640   32.0895   45.5599 H   0  0  0  0  0  0  0  0  0  0  0  0
   43.9632   36.7870   45.1584 H   0  0  0  0  0  0  0  0  0  0  0  0
   44.8946   37.2822   42.8454 H   0  0  0  0  0  0  0  0  0  0  0  0
   46.3213   35.5146   41.7607 H   0  0  0  0  0  0  0  0  0  0  0  0
  1  2  1  0
  2  3  1  0
  4  3  1  0
  5  4  1  0
  6  1  1  0
  6  5  1  0
  7  6  1  0
  7  8  1  0
  9  8  1  0
 10 11  1  0
 10  9  1  0
 11  7  1  0
 12  1  1  0
 13 12  1  0
 14 19  2  0
 15 14  1  0
 16 15  2  0
 16 17  1  0
 17 18  2  0
 18 19  1  0
 18 13  1  0
  2 20  1  0
  2 21  1  0
  3 22  1  0
  3 23  1  0
  5 24  1  0
  5 25  1  0
  6 26  1  6
  7 27  1  0
  8 28  1  0
  8 29  1  0
  9 30  1  0
  9 31  1  0
 10 32  1  0
 10 33  1  0
 11 34  1  0
 11 35  1  0
 12 36  1  0
 12 37  1  0
 13 38  1  0
 13 39  1  0
 14 40  1  0
 15 41  1  0
 16 42  1  0
M  ISO  8  20  13  21  13  22  13  23  13  24  13  25  13  26  13  27  13
M  ISO  8  28  13  29  13  30  13  31  13  32  13  33  13  34  13  35  13
M  ISO  7  36   8  37   8  38   8  39   8  40  14  41  14  42  14
M  END
>  <minimizedAffinity>  (1) 
-4.64248276

>  <minimizedRMSD>  (1) 
3.80908227

$$$$
