
     RDKit          3D

 30 31  0  0  1  0  0  0  0  0999 V2000
   46.7040   32.9100   46.5440 C   0  0  0  0  0  0  0  0  0  0  0  0
   45.7520   32.1190   47.2550 N   0  0  0  0  0  0  0  0  0  0  0  0
   45.8320   30.7970   46.7740 C   0  0  0  0  0  0  0  0  0  0  0  0
   44.8480   29.8960   47.5180 C   0  0  0  0  0  0  0  0  0  0  0  0
   45.1080   29.8500   48.8540 O   0  0  0  0  0  0  0  0  0  0  0  0
   45.3500   31.0800   49.4410 C   0  0  0  0  0  0  0  0  0  0  0  0
   46.2330   32.0080   48.6580 C   0  0  1  0  0  0  0  0  0  0  0  0
   47.9690   31.5500   48.7020 S   0  0  0  0  0  0  0  0  0  0  0  0
   46.6010   32.7190   45.0690 C   0  0  0  0  0  0  0  0  0  0  0  0
   44.5630   35.7830   44.5640 C   0  0  0  0  0  0  0  0  0  0  0  0
   45.0270   36.2140   43.2850 C   0  0  0  0  0  0  0  0  0  0  0  0
   46.0260   35.4450   42.6630 C   0  0  0  0  0  0  0  0  0  0  0  0
   46.5170   34.3310   43.2870 N   0  0  0  0  0  0  0  0  0  0  0  0
   46.0240   33.9840   44.5050 C   0  0  0  0  0  0  0  0  0  0  0  0
   45.0870   34.6700   45.1310 N   0  0  0  0  0  0  0  0  0  0  0  0
   46.5292   33.9706   46.7775 H   0  0  0  0  0  0  0  0  0  0  0  0
   47.7097   32.5932   46.8575 H   0  0  0  0  0  0  0  0  0  0  0  0
   45.5913   30.7872   45.7007 H   0  0  0  0  0  0  0  0  0  0  0  0
   46.8525   30.4203   46.9375 H   0  0  0  0  0  0  0  0  0  0  0  0
   43.8292   30.2825   47.3676 H   0  0  0  0  0  0  0  0  0  0  0  0
   44.9504   28.8769   47.1167 H   0  0  0  0  0  0  0  0  0  0  0  0
   44.3818   31.5800   49.5913 H   0  0  0  0  0  0  0  0  0  0  0  0
   45.8894   30.8673   50.3757 H   0  0  0  0  0  0  0  0  0  0  0  0
   46.1652   32.9910   49.1470 H   0  0  0  0  0  0  0  0  0  0  0  0
   48.3798   31.4416   50.0045 H   0  0  0  0  0  0  0  0  0  0  0  0
   47.5973   32.5340   44.6410 H   0  0  0  0  0  0  0  0  0  0  0  0
   45.9654   31.8543   44.8274 H   0  0  0  0  0  0  0  0  0  0  0  0
   43.7818   36.3532   45.0880 H   0  0  0  0  0  0  0  0  0  0  0  0
   44.6180   37.1146   42.8037 H   0  0  0  0  0  0  0  0  0  0  0  0
   46.4124   35.7386   41.6758 H   0  0  0  0  0  0  0  0  0  0  0  0
  1  2  1  0
  2  7  1  0
  3  2  1  0
  3  4  1  0
  4  5  1  0
  5  6  1  0
  7  8  1  0
  7  6  1  0
  9  1  1  0
 10 15  2  0
 11 10  1  0
 12 11  2  0
 12 13  1  0
 13 14  2  0
 14  9  1  0
 14 15  1  0
  1 16  1  0
  1 17  1  0
  3 18  1  0
  3 19  1  0
  4 20  1  0
  4 21  1  0
  6 22  1  0
  6 23  1  0
  7 24  1  1
  8 25  1  0
  9 26  1  0
  9 27  1  0
 10 28  1  0
 11 29  1  0
 12 30  1  0
M  ISO  8  16   8  17   8  18  13  19  13  20  13  21  13  22  13  23  13
M  ISO  7  24  13  25  11  26   8  27   8  28  14  29  14  30  14
M  END
>  <minimizedAffinity>  (1) 
-4.74668741

>  <minimizedRMSD>  (1) 
0.198266074

$$$$
