
     RDKit          3D

 40 43  0  0  1  0  0  0  0  0999 V2000
   46.8530   32.1620   46.1530 N   0  0  0  0  0  0  0  0  0  0  0  0
   45.8010   33.0140   46.6670 C   0  0  0  0  0  0  0  0  0  0  0  0
   45.2540   32.5510   47.9720 C   0  0  0  0  0  0  0  0  0  0  0  0
   44.9210   31.2260   48.0280 O   0  0  0  0  0  0  0  0  0  0  0  0
   45.8670   30.3840   47.4960 C   0  0  0  0  0  0  0  0  0  0  0  0
   46.3180   30.8020   46.1280 C   0  0  2  0  0  0  0  0  0  0  0  0
   47.3850   29.8910   45.7460 N   0  0  0  0  0  0  0  0  0  0  0  0
   48.4840   29.6860   46.4740 C   0  0  0  0  0  0  0  0  0  0  0  0
   49.2460   28.7830   45.8140 N   0  0  0  0  0  0  0  0  0  0  0  0
   48.6110   28.4380   44.6780 C   0  0  0  0  0  0  0  0  0  0  0  0
   48.9770   27.5520   43.6680 C   0  0  0  0  0  0  0  0  0  0  0  0
   48.1160   27.4150   42.6400 N   0  0  0  0  0  0  0  0  0  0  0  0
   46.9620   28.1070   42.6050 C   0  0  0  0  0  0  0  0  0  0  0  0
   46.5950   28.9640   43.5720 N   0  0  0  0  0  0  0  0  0  0  0  0
   47.4130   29.1470   44.6300 C   0  0  0  0  0  0  0  0  0  0  0  0
   47.1330   32.5300   44.7970 C   0  0  0  0  0  0  0  0  0  0  0  0
   46.4900   33.7870   44.3250 C   0  0  0  0  0  0  0  0  0  0  0  0
   46.9550   34.3220   40.6650 C   0  0  0  0  0  0  0  0  0  0  0  0
   48.2970   34.8070   40.6320 C   0  0  0  0  0  0  0  0  0  0  0  0
   48.9660   34.9150   41.8440 C   0  0  0  0  0  0  0  0  0  0  0  0
   48.3440   34.5670   42.9910 N   0  0  0  0  0  0  0  0  0  0  0  0
   47.0680   34.1100   42.9980 C   0  0  0  0  0  0  0  0  0  0  0  0
   46.3890   33.9900   41.8500 N   0  0  0  0  0  0  0  0  0  0  0  0
   46.2058   34.0284   46.7981 H   0  0  0  0  0  0  0  0  0  0  0  0
   44.9759   32.9881   45.9399 H   0  0  0  0  0  0  0  0  0  0  0  0
   46.0114   32.7442   48.7459 H   0  0  0  0  0  0  0  0  0  0  0  0
   44.3173   33.1072   48.1242 H   0  0  0  0  0  0  0  0  0  0  0  0
   46.7404   30.3705   48.1645 H   0  0  0  0  0  0  0  0  0  0  0  0
   45.4075   29.3890   47.4021 H   0  0  0  0  0  0  0  0  0  0  0  0
   45.4735   30.7753   45.4237 H   0  0  0  0  0  0  0  0  0  0  0  0
   48.7264   30.1635   47.4348 H   0  0  0  0  0  0  0  0  0  0  0  0
   49.9226   26.9913   43.7072 H   0  0  0  0  0  0  0  0  0  0  0  0
   46.2895   27.9643   41.7463 H   0  0  0  0  0  0  0  0  0  0  0  0
   48.2220   32.6487   44.6967 H   0  0  0  0  0  0  0  0  0  0  0  0
   46.7137   31.7258   44.1746 H   0  0  0  0  0  0  0  0  0  0  0  0
   45.4030   33.6430   44.2366 H   0  0  0  0  0  0  0  0  0  0  0  0
   46.6700   34.6062   45.0367 H   0  0  0  0  0  0  0  0  0  0  0  0
   46.3825   34.2182   39.7315 H   0  0  0  0  0  0  0  0  0  0  0  0
   48.7819   35.0841   39.6843 H   0  0  0  0  0  0  0  0  0  0  0  0
   50.0020   35.2838   41.8698 H   0  0  0  0  0  0  0  0  0  0  0  0
  1  2  1  0
  2  3  1  0
  3  4  1  0
  5  4  1  0
  6  1  1  0
  6  5  1  0
  7  6  1  0
  7  8  1  0
  9  8  2  0
 10  9  1  0
 11 10  2  0
 12 11  1  0
 13 12  2  0
 13 14  1  0
 14 15  2  0
 15 10  1  0
 15  7  1  0
 16  1  1  0
 17 16  1  0
 18 23  2  0
 19 18  1  0
 19 20  2  0
 20 21  1  0
 21 22  2  0
 22 17  1  0
 23 22  1  0
  2 24  1  0
  2 25  1  0
  3 26  1  0
  3 27  1  0
  5 28  1  0
  5 29  1  0
  6 30  1  6
  8 31  1  0
 11 32  1  0
 13 33  1  0
 16 34  1  0
 16 35  1  0
 17 36  1  0
 17 37  1  0
 18 38  1  0
 19 39  1  0
 20 40  1  0
M  ISO  8  24  13  25  13  26  13  27  13  28  13  29  13  30  13  31  14
M  ISO  8  32  14  33  14  34   8  35   8  36   8  37   8  38  14  39  14
M  ISO  1  40  14
M  END
>  <minimizedAffinity>  (1) 
-4.11374283

>  <minimizedRMSD>  (1) 
6.08340645

$$$$
