
     RDKit          3D

 36 37  0  0  1  0  0  0  0  0999 V2000
   43.3200   27.3050   45.6800 N   0  0  0  0  0  0  0  0  0  0  0  0
   43.4820   26.7600   46.9790 C   0  0  0  0  0  0  0  0  0  0  0  0
   42.6480   25.5040   47.1420 C   0  0  0  0  0  0  0  0  0  0  0  0
   41.3120   25.7200   46.9100 O   0  0  0  0  0  0  0  0  0  0  0  0
   41.0670   26.3800   45.7340 C   0  0  0  0  0  0  0  0  0  0  0  0
   41.8730   27.6360   45.6040 C   0  0  2  0  0  0  0  0  0  0  0  0
   41.5350   28.4050   44.4630 N   0  0  0  0  0  0  0  0  0  0  0  0
   40.7580   29.5820   44.6610 C   0  0  0  0  0  0  0  0  0  0  0  0
   40.0490   29.8300   45.7140 N   0  0  0  0  0  0  0  0  0  0  0  0
   40.7310   30.5990   43.6380 N   0  0  0  0  0  0  0  0  0  0  0  0
   39.4800   30.6910   45.8590 H   0  0  0  0  0  0  0  0  0  0  0  0
   44.0360   28.5400   45.6380 C   0  0  0  0  0  0  0  0  0  0  0  0
   45.3220   28.5610   46.3510 C   0  0  0  0  0  0  0  0  0  0  0  0
   45.9050   32.1720   47.1270 C   0  0  0  0  0  0  0  0  0  0  0  0
   45.5320   32.2110   48.5080 C   0  0  0  0  0  0  0  0  0  0  0  0
   45.1080   31.0270   49.0880 C   0  0  0  0  0  0  0  0  0  0  0  0
   45.0600   29.8970   48.3470 N   0  0  0  0  0  0  0  0  0  0  0  0
   45.4200   29.8990   47.0410 C   0  0  0  0  0  0  0  0  0  0  0  0
   45.8380   31.0170   46.4330 N   0  0  0  0  0  0  0  0  0  0  0  0
   44.5421   26.5124   47.1369 H   0  0  0  0  0  0  0  0  0  0  0  0
   43.1491   27.5035   47.7182 H   0  0  0  0  0  0  0  0  0  0  0  0
   43.0104   24.7465   46.4314 H   0  0  0  0  0  0  0  0  0  0  0  0
   42.7537   25.1685   48.1842 H   0  0  0  0  0  0  0  0  0  0  0  0
   41.3161   25.7124   44.8960 H   0  0  0  0  0  0  0  0  0  0  0  0
   40.0038   26.6618   45.7234 H   0  0  0  0  0  0  0  0  0  0  0  0
   41.6233   28.2932   46.4501 H   0  0  0  0  0  0  0  0  0  0  0  0
   41.8412   28.1221   43.5212 H   0  0  0  0  0  0  0  0  0  0  0  0
   40.1711   31.4526   43.7750 H   0  0  0  0  0  0  0  0  0  0  0  0
   41.2717   30.4715   42.7706 H   0  0  0  0  0  0  0  0  0  0  0  0
   44.2317   28.7805   44.5826 H   0  0  0  0  0  0  0  0  0  0  0  0
   43.3974   29.2722   46.1539 H   0  0  0  0  0  0  0  0  0  0  0  0
   45.3562   27.7496   47.0929 H   0  0  0  0  0  0  0  0  0  0  0  0
   46.1605   28.4156   45.6540 H   0  0  0  0  0  0  0  0  0  0  0  0
   46.2487   33.0900   46.6279 H   0  0  0  0  0  0  0  0  0  0  0  0
   45.5802   33.1453   49.0865 H   0  0  0  0  0  0  0  0  0  0  0  0
   44.8115   31.0060   50.1471 H   0  0  0  0  0  0  0  0  0  0  0  0
  1  2  1  0
  2  3  1  0
  4  3  1  0
  5  4  1  0
  6  1  1  0
  6  5  1  0
  7  8  1  0
  7  6  1  0
  8  9  2  0
  9 11  1  0
 10  8  1  0
 12  1  1  0
 12 13  1  0
 13 18  1  0
 14 15  2  0
 15 16  1  0
 17 16  2  0
 18 17  1  0
 19 18  2  0
 19 14  1  0
  2 20  1  0
  2 21  1  0
  3 22  1  0
  3 23  1  0
  5 24  1  0
  5 25  1  0
  6 26  1  1
  7 27  1  0
 10 28  1  0
 10 29  1  0
 12 30  1  0
 12 31  1  0
 13 32  1  0
 13 33  1  0
 14 34  1  0
 15 35  1  0
 16 36  1  0
M  ISO  8  20  13  21  13  22  13  23  13  24  13  25  13  26  13  30   8
M  ISO  6  31   8  32   8  33   8  34  14  35  14  36  14
M  END
>  <minimizedAffinity>  (1) 
-4.27308559

>  <minimizedRMSD>  (1) 
6.81094551

$$$$
