
     RDKit          3D

 41 43  0  0  1  0  0  0  0  0999 V2000
   47.2440   30.1080   45.5680 N   0  0  0  0  0  0  0  0  0  0  0  0
   48.3900   30.0210   44.6880 C   0  0  0  0  0  0  0  0  0  0  0  0
   49.4270   29.0710   45.2080 C   0  0  0  0  0  0  0  0  0  0  0  0
   49.7690   29.2380   46.5100 O   0  0  0  0  0  0  0  0  0  0  0  0
   48.6780   29.3670   47.3620 C   0  0  0  0  0  0  0  0  0  0  0  0
   47.7620   30.4640   46.8830 C   0  0  2  0  0  0  0  0  0  0  0  0
   46.7540   30.8010   47.8430 N   0  0  0  0  0  0  0  0  0  0  0  0
   45.6910   30.0830   48.2130 C   0  0  0  0  0  0  0  0  0  0  0  0
   44.9930   30.7680   49.1480 N   0  0  0  0  0  0  0  0  0  0  0  0
   45.6420   31.9280   49.3540 C   0  0  0  0  0  0  0  0  0  0  0  0
   46.7040   31.9330   48.5580 N   0  0  0  0  0  0  0  0  0  0  0  0
   46.4030   31.1800   45.1440 C   0  0  0  0  0  0  0  0  0  0  0  0
   47.0930   32.3970   44.6600 C   0  0  0  0  0  0  0  0  0  0  0  0
   44.6960   34.9000   46.0010 C   0  0  0  0  0  0  0  0  0  0  0  0
   44.4520   35.7120   44.8700 C   0  0  0  0  0  0  0  0  0  0  0  0
   45.1140   35.3660   43.7110 C   0  0  0  0  0  0  0  0  0  0  0  0
   45.9500   34.2950   43.6960 N   0  0  0  0  0  0  0  0  0  0  0  0
   46.1620   33.5390   44.7940 C   0  0  0  0  0  0  0  0  0  0  0  0
   45.5420   33.8430   45.9240 N   0  0  0  0  0  0  0  0  0  0  0  0
   44.9240   36.1570   42.4710 C   0  0  0  0  0  0  0  0  0  0  0  0
   43.8140   35.5500   41.6680 C   0  0  0  0  0  0  0  0  0  0  0  0
   48.8402   31.0200   44.5914 H   0  0  0  0  0  0  0  0  0  0  0  0
   48.0428   29.6451   43.7143 H   0  0  0  0  0  0  0  0  0  0  0  0
   49.0410   28.0480   45.0871 H   0  0  0  0  0  0  0  0  0  0  0  0
   50.3395   29.2710   44.6271 H   0  0  0  0  0  0  0  0  0  0  0  0
   48.1236   28.4173   47.3868 H   0  0  0  0  0  0  0  0  0  0  0  0
   49.0407   29.6203   48.3691 H   0  0  0  0  0  0  0  0  0  0  0  0
   48.3339   31.3973   46.7743 H   0  0  0  0  0  0  0  0  0  0  0  0
   45.4246   29.0909   47.8197 H   0  0  0  0  0  0  0  0  0  0  0  0
   45.3472   32.7248   50.0527 H   0  0  0  0  0  0  0  0  0  0  0  0
   45.7682   30.8062   44.3271 H   0  0  0  0  0  0  0  0  0  0  0  0
   45.8476   31.4922   46.0407 H   0  0  0  0  0  0  0  0  0  0  0  0
   47.3770   32.2696   43.6049 H   0  0  0  0  0  0  0  0  0  0  0  0
   48.0040   32.5777   45.2494 H   0  0  0  0  0  0  0  0  0  0  0  0
   44.1946   35.1278   46.9532 H   0  0  0  0  0  0  0  0  0  0  0  0
   43.7702   36.5742   44.9122 H   0  0  0  0  0  0  0  0  0  0  0  0
   44.6658   37.1941   42.7315 H   0  0  0  0  0  0  0  0  0  0  0  0
   45.8531   36.1522   41.8822 H   0  0  0  0  0  0  0  0  0  0  0  0
   43.0548   35.1348   42.3471 H   0  0  0  0  0  0  0  0  0  0  0  0
   43.3553   36.3228   41.0337 H   0  0  0  0  0  0  0  0  0  0  0  0
   44.2171   34.7468   41.0337 H   0  0  0  0  0  0  0  0  0  0  0  0
  1  6  1  0
  2  3  1  0
  2  1  1  0
  3  4  1  0
  4  5  1  0
  6  5  1  0
  6  7  1  0
  7  8  1  0
  7 11  1  0
  8  9  2  0
  9 10  1  0
 11 10  2  0
 12  1  1  0
 13 18  1  0
 13 12  1  0
 15 14  2  0
 16 15  1  0
 17 16  2  0
 17 18  1  0
 18 19  2  0
 19 14  1  0
 20 16  1  0
 21 20  1  0
  2 22  1  0
  2 23  1  0
  3 24  1  0
  3 25  1  0
  5 26  1  0
  5 27  1  0
  6 28  1  6
  8 29  1  0
 10 30  1  0
 12 31  1  0
 12 32  1  0
 13 33  1  0
 13 34  1  0
 14 35  1  0
 15 36  1  0
 20 37  1  0
 20 38  1  0
 21 39  1  0
 21 40  1  0
 21 41  1  0
M  ISO  8  22  13  23  13  24  13  25  13  26  13  27  13  28  13  29  14
M  ISO  8  30  14  31   8  32   8  33   8  34   8  35  14  36  14  37   8
M  ISO  4  38   8  39   8  40   8  41   8
M  END
>  <minimizedAffinity>  (1) 
-4.69799519

>  <minimizedRMSD>  (1) 
0.581320226

$$$$
