
     RDKit          3D

 38 40  0  0  1  0  0  0  0  0999 V2000
   47.2390   30.1060   45.5770 N   0  0  0  0  0  0  0  0  0  0  0  0
   48.4000   30.0060   44.6950 C   0  0  0  0  0  0  0  0  0  0  0  0
   49.4370   29.0770   45.2240 C   0  0  0  0  0  0  0  0  0  0  0  0
   49.7720   29.2410   46.5330 O   0  0  0  0  0  0  0  0  0  0  0  0
   48.6820   29.3690   47.3690 C   0  0  0  0  0  0  0  0  0  0  0  0
   47.7740   30.4660   46.8930 C   0  0  2  0  0  0  0  0  0  0  0  0
   46.7650   30.8010   47.8450 N   0  0  0  0  0  0  0  0  0  0  0  0
   45.6920   30.0870   48.2190 C   0  0  0  0  0  0  0  0  0  0  0  0
   44.9920   30.7570   49.1400 N   0  0  0  0  0  0  0  0  0  0  0  0
   45.6450   31.9270   49.3530 C   0  0  0  0  0  0  0  0  0  0  0  0
   46.6960   31.9180   48.5640 N   0  0  0  0  0  0  0  0  0  0  0  0
   46.4010   31.1740   45.1450 C   0  0  0  0  0  0  0  0  0  0  0  0
   47.0960   32.3910   44.6650 C   0  0  0  0  0  0  0  0  0  0  0  0
   44.6770   34.8720   46.0340 C   0  0  0  0  0  0  0  0  0  0  0  0
   44.4940   35.7390   44.9260 C   0  0  0  0  0  0  0  0  0  0  0  0
   45.2030   35.4270   43.7820 C   0  0  0  0  0  0  0  0  0  0  0  0
   46.0150   34.3530   43.7520 N   0  0  0  0  0  0  0  0  0  0  0  0
   46.1760   33.5430   44.8150 C   0  0  0  0  0  0  0  0  0  0  0  0
   45.5140   33.8030   45.9380 N   0  0  0  0  0  0  0  0  0  0  0  0
   45.0190   36.3200   42.6270 C   0  0  0  0  0  0  0  0  0  0  0  0
   48.8454   31.0055   44.5828 H   0  0  0  0  0  0  0  0  0  0  0  0
   48.0543   29.6078   43.7296 H   0  0  0  0  0  0  0  0  0  0  0  0
   49.0646   28.0497   45.0979 H   0  0  0  0  0  0  0  0  0  0  0  0
   50.3515   29.2970   44.6536 H   0  0  0  0  0  0  0  0  0  0  0  0
   48.1252   28.4205   47.3841 H   0  0  0  0  0  0  0  0  0  0  0  0
   49.0385   29.6184   48.3793 H   0  0  0  0  0  0  0  0  0  0  0  0
   48.3577   31.3921   46.7854 H   0  0  0  0  0  0  0  0  0  0  0  0
   45.4270   29.0947   47.8250 H   0  0  0  0  0  0  0  0  0  0  0  0
   45.3522   32.7264   50.0495 H   0  0  0  0  0  0  0  0  0  0  0  0
   45.7737   30.7984   44.3232 H   0  0  0  0  0  0  0  0  0  0  0  0
   45.8361   31.4867   46.0355 H   0  0  0  0  0  0  0  0  0  0  0  0
   47.3702   32.2695   43.6067 H   0  0  0  0  0  0  0  0  0  0  0  0
   48.0122   32.5594   45.2501 H   0  0  0  0  0  0  0  0  0  0  0  0
   44.1402   35.0645   46.9746 H   0  0  0  0  0  0  0  0  0  0  0  0
   43.8250   36.6108   44.9750 H   0  0  0  0  0  0  0  0  0  0  0  0
   44.8089   37.3398   42.9818 H   0  0  0  0  0  0  0  0  0  0  0  0
   45.9350   36.3251   42.0179 H   0  0  0  0  0  0  0  0  0  0  0  0
   44.1756   35.9626   42.0179 H   0  0  0  0  0  0  0  0  0  0  0  0
  1  6  1  0
  2  3  1  0
  2  1  1  0
  3  4  1  0
  4  5  1  0
  6  5  1  0
  6  7  1  0
  7  8  1  0
  7 11  1  0
  8  9  2  0
  9 10  1  0
 11 10  2  0
 12  1  1  0
 13 18  1  0
 13 12  1  0
 15 14  2  0
 16 15  1  0
 17 16  2  0
 17 18  1  0
 18 19  2  0
 19 14  1  0
 20 16  1  0
  2 21  1  0
  2 22  1  0
  3 23  1  0
  3 24  1  0
  5 25  1  0
  5 26  1  0
  6 27  1  6
  8 28  1  0
 10 29  1  0
 12 30  1  0
 12 31  1  0
 13 32  1  0
 13 33  1  0
 14 34  1  0
 15 35  1  0
 20 36  1  0
 20 37  1  0
 20 38  1  0
M  ISO  8  21  13  22  13  23  13  24  13  25  13  26  13  27  13  28  14
M  ISO  8  29  14  30   8  31   8  32   8  33   8  34  14  35  14  36   8
M  ISO  2  37   8  38   8
M  END
>  <minimizedAffinity>  (1) 
-4.57476664

>  <minimizedRMSD>  (1) 
0.426601797

$$$$
