
     RDKit          3D

 36 38  0  0  1  0  0  0  0  0999 V2000
   47.2240   30.1510   45.5340 N   0  0  0  0  0  0  0  0  0  0  0  0
   48.3660   30.0530   44.6540 C   0  0  0  0  0  0  0  0  0  0  0  0
   49.3900   29.0840   45.1630 C   0  0  0  0  0  0  0  0  0  0  0  0
   49.7500   29.2520   46.4770 O   0  0  0  0  0  0  0  0  0  0  0  0
   48.6580   29.3710   47.3180 C   0  0  0  0  0  0  0  0  0  0  0  0
   47.7440   30.4740   46.8540 C   0  0  2  0  0  0  0  0  0  0  0  0
   46.7390   30.7950   47.8130 N   0  0  0  0  0  0  0  0  0  0  0  0
   45.6860   30.0780   48.2040 C   0  0  0  0  0  0  0  0  0  0  0  0
   44.9840   30.7480   49.1340 N   0  0  0  0  0  0  0  0  0  0  0  0
   45.6090   31.9140   49.3310 C   0  0  0  0  0  0  0  0  0  0  0  0
   46.6510   31.9060   48.5270 N   0  0  0  0  0  0  0  0  0  0  0  0
   46.3850   31.2250   45.1090 C   0  0  0  0  0  0  0  0  0  0  0  0
   47.0780   32.4330   44.6480 C   0  0  0  0  0  0  0  0  0  0  0  0
   44.6640   34.9210   45.9810 C   0  0  0  0  0  0  0  0  0  0  0  0
   44.4960   35.7950   44.8920 C   0  0  0  0  0  0  0  0  0  0  0  0
   45.2150   35.4910   43.7520 C   0  0  0  0  0  0  0  0  0  0  0  0
   46.0320   34.4010   43.7200 N   0  0  0  0  0  0  0  0  0  0  0  0
   46.1640   33.5890   44.7890 C   0  0  0  0  0  0  0  0  0  0  0  0
   45.4910   33.8480   45.8970 N   0  0  0  0  0  0  0  0  0  0  0  0
   45.1560   36.2590   42.5930 O   0  0  0  0  0  0  0  0  0  0  0  0
   48.8310   31.0459   44.5648 H   0  0  0  0  0  0  0  0  0  0  0  0
   48.0111   29.6888   43.6786 H   0  0  0  0  0  0  0  0  0  0  0  0
   48.9840   28.0681   45.0484 H   0  0  0  0  0  0  0  0  0  0  0  0
   50.3001   29.2622   44.5715 H   0  0  0  0  0  0  0  0  0  0  0  0
   48.1028   28.4214   47.3249 H   0  0  0  0  0  0  0  0  0  0  0  0
   49.0165   29.6120   48.3296 H   0  0  0  0  0  0  0  0  0  0  0  0
   48.3243   31.4037   46.7602 H   0  0  0  0  0  0  0  0  0  0  0  0
   45.4280   29.0799   47.8203 H   0  0  0  0  0  0  0  0  0  0  0  0
   45.3127   32.7157   50.0234 H   0  0  0  0  0  0  0  0  0  0  0  0
   45.7601   30.8579   44.2815 H   0  0  0  0  0  0  0  0  0  0  0  0
   45.8152   31.5291   45.9994 H   0  0  0  0  0  0  0  0  0  0  0  0
   47.3650   32.3149   43.5927 H   0  0  0  0  0  0  0  0  0  0  0  0
   47.9844   32.5970   45.2493 H   0  0  0  0  0  0  0  0  0  0  0  0
   44.1163   35.1101   46.9160 H   0  0  0  0  0  0  0  0  0  0  0  0
   43.8310   36.6696   44.9448 H   0  0  0  0  0  0  0  0  0  0  0  0
   45.6902   36.0009   41.8004 H   0  0  0  0  0  0  0  0  0  0  0  0
  1  6  1  0
  2  3  1  0
  2  1  1  0
  3  4  1  0
  4  5  1  0
  6  5  1  0
  6  7  1  0
  7  8  1  0
  7 11  1  0
  8  9  2  0
  9 10  1  0
 11 10  2  0
 12  1  1  0
 13 18  1  0
 13 12  1  0
 15 14  2  0
 16 15  1  0
 17 16  2  0
 17 18  1  0
 18 19  2  0
 19 14  1  0
 20 16  1  0
  2 21  1  0
  2 22  1  0
  3 23  1  0
  3 24  1  0
  5 25  1  0
  5 26  1  0
  6 27  1  6
  8 28  1  0
 10 29  1  0
 12 30  1  0
 12 31  1  0
 13 32  1  0
 13 33  1  0
 14 34  1  0
 15 35  1  0
 20 36  1  0
M  ISO  8  21  13  22  13  23  13  24  13  25  13  26  13  27  13  28  14
M  ISO  8  29  14  30   8  31   8  32   8  33   8  34  14  35  14  36   3
M  END
>  <minimizedAffinity>  (1) 
-4.59027624

>  <minimizedRMSD>  (1) 
0.375325173

$$$$
