
     RDKit          3D

 40 43  0  0  1  0  0  0  0  0999 V2000
   44.6930   35.6490   44.8700 C   0  0  0  0  0  0  0  0  0  0  0  0
   45.1730   35.4730   43.5480 C   0  0  0  0  0  0  0  0  0  0  0  0
   45.8580   34.3070   43.2730 C   0  0  0  0  0  0  0  0  0  0  0  0
   46.0330   33.3990   44.2800 N   0  0  0  0  0  0  0  0  0  0  0  0
   45.5650   33.6020   45.5120 C   0  0  0  0  0  0  0  0  0  0  0  0
   44.9000   34.7190   45.8080 N   0  0  0  0  0  0  0  0  0  0  0  0
   45.7830   32.6000   46.5520 N   0  0  0  0  0  0  0  0  0  0  0  0
   45.2780   32.8110   47.8870 C   0  0  0  0  0  0  0  0  0  0  0  0
   46.1910   32.2610   48.9450 C   0  0  0  0  0  0  0  0  0  0  0  0
   47.5430   32.0000   48.3590 C   0  0  0  0  0  0  0  0  0  0  0  0
   47.3550   30.8820   47.3330 C   0  0  0  0  0  0  0  0  0  0  0  0
   46.5190   31.3940   46.2150 C   0  0  1  0  0  0  0  0  0  0  0  0
   45.6290   30.3570   45.6210 C   0  0  0  0  0  0  0  0  0  0  0  0
   45.5440   29.9320   44.3590 N   0  0  0  0  0  0  0  0  0  0  0  0
   44.6630   29.0070   44.2090 O   0  0  0  0  0  0  0  0  0  0  0  0
   44.1260   28.7880   45.3990 C   0  0  0  0  0  0  0  0  0  0  0  0
   44.7110   29.6130   46.2840 N   0  0  0  0  0  0  0  0  0  0  0  0
   43.1010   27.8350   45.6790 N   0  0  0  0  0  0  0  0  0  0  0  0
   43.3850   26.7490   46.4240 C   0  0  0  0  0  0  0  0  0  0  0  0
   42.3520   25.8390   46.6770 C   0  0  0  0  0  0  0  0  0  0  0  0
   41.0860   26.0660   46.1670 C   0  0  0  0  0  0  0  0  0  0  0  0
   40.1340   25.2850   46.3630 O   0  0  0  0  0  0  0  0  0  0  0  0
   40.8420   27.1680   45.4230 N   0  0  0  0  0  0  0  0  0  0  0  0
   41.8640   28.0370   45.1930 C   0  0  0  0  0  0  0  0  0  0  0  0
   41.5650   29.0370   44.4950 O   0  0  0  0  0  0  0  0  0  0  0  0
   44.1415   36.5651   45.1283 H   0  0  0  0  0  0  0  0  0  0  0  0
   45.0062   36.2351   42.7725 H   0  0  0  0  0  0  0  0  0  0  0  0
   46.2545   34.1124   42.2656 H   0  0  0  0  0  0  0  0  0  0  0  0
   45.1593   33.8921   48.0517 H   0  0  0  0  0  0  0  0  0  0  0  0
   44.3181   32.2799   47.9672 H   0  0  0  0  0  0  0  0  0  0  0  0
   46.2820   32.9895   49.7641 H   0  0  0  0  0  0  0  0  0  0  0  0
   45.7741   31.3196   49.3323 H   0  0  0  0  0  0  0  0  0  0  0  0
   47.9276   32.9066   47.8689 H   0  0  0  0  0  0  0  0  0  0  0  0
   48.2678   31.7137   49.1354 H   0  0  0  0  0  0  0  0  0  0  0  0
   48.3353   30.5657   46.9470 H   0  0  0  0  0  0  0  0  0  0  0  0
   46.8608   30.0202   47.8053 H   0  0  0  0  0  0  0  0  0  0  0  0
   47.2416   31.6741   45.4344 H   0  0  0  0  0  0  0  0  0  0  0  0
   44.3972   26.5826   46.8211 H   0  0  0  0  0  0  0  0  0  0  0  0
   42.5471   24.9416   47.2825 H   0  0  0  0  0  0  0  0  0  0  0  0
   39.9032   27.3461   45.0386 H   0  0  0  0  0  0  0  0  0  0  0  0
  1  6  2  0
  2  1  1  0
  3  2  2  0
  3  4  1  0
  4  5  2  0
  5  6  1  0
  5  7  1  0
  7  8  1  0
  8  9  1  0
 10  9  1  0
 11 10  1  0
 12  7  1  0
 12 11  1  0
 13 12  1  0
 13 17  1  0
 14 13  2  0
 15 14  1  0
 15 16  1  0
 16 18  1  0
 16 17  2  0
 18 19  1  0
 19 20  2  0
 21 22  2  0
 21 20  1  0
 23 21  1  0
 24 23  1  0
 24 18  1  0
 25 24  2  0
  1 26  1  0
  2 27  1  0
  3 28  1  0
  8 29  1  0
  8 30  1  0
  9 31  1  0
  9 32  1  0
 10 33  1  0
 10 34  1  0
 11 35  1  0
 11 36  1  0
 12 37  1  6
 19 38  1  0
 20 39  1  0
 23 40  1  0
M  ISO  8  26  14  27  14  28  14  29  13  30  13  31  13  32  13  33  13
M  ISO  7  34  13  35  13  36  13  37  13  38  14  39  14  40   9
M  END
>  <minimizedAffinity>  (1) 
-6.61542702

>  <minimizedRMSD>  (1) 
0.721705973

$$$$
