
     RDKit          3D

 44 46  0  0  1  0  0  0  0  0999 V2000
   48.0020   29.5310   46.4850 N   0  0  0  0  0  0  0  0  0  0  0  0
   49.3220   29.2340   45.9960 C   0  0  0  0  0  0  0  0  0  0  0  0
   50.2450   28.8130   47.0950 C   0  0  0  0  0  0  0  0  0  0  0  0
   50.2670   29.6350   48.1890 O   0  0  0  0  0  0  0  0  0  0  0  0
   48.9960   29.9230   48.6570 C   0  0  0  0  0  0  0  0  0  0  0  0
   48.1460   30.5160   47.5650 C   0  0  2  0  0  0  0  0  0  0  0  0
   46.9370   31.0670   48.0320 N   0  0  0  0  0  0  0  0  0  0  0  0
   45.8820   30.4140   48.5650 C   0  0  0  0  0  0  0  0  0  0  0  0
   44.9200   31.2940   48.8870 N   0  0  0  0  0  0  0  0  0  0  0  0
   45.3800   32.5100   48.5510 C   0  0  0  0  0  0  0  0  0  0  0  0
   46.5880   32.3540   48.0410 N   0  0  0  0  0  0  0  0  0  0  0  0
   47.2120   30.1360   45.4590 C   0  0  0  0  0  0  0  0  0  0  0  0
   47.9720   30.7810   44.3810 C   0  0  0  0  0  0  0  0  0  0  0  0
   45.6490   33.6850   44.3370 C   0  0  0  0  0  0  0  0  0  0  0  0
   46.1940   34.4720   43.2900 C   0  0  0  0  0  0  0  0  0  0  0  0
   47.3140   33.9910   42.6490 C   0  0  0  0  0  0  0  0  0  0  0  0
   47.8390   32.8000   43.0450 N   0  0  0  0  0  0  0  0  0  0  0  0
   47.3140   32.0620   44.0390 C   0  0  0  0  0  0  0  0  0  0  0  0
   46.2270   32.5100   44.6740 N   0  0  0  0  0  0  0  0  0  0  0  0
   47.9530   34.7080   41.5450 C   0  0  0  0  0  0  0  0  0  0  0  0
   49.1270   34.0070   41.2350 F   0  0  0  0  0  0  0  0  0  0  0  0
   47.1260   34.7160   40.4160 F   0  0  0  0  0  0  0  0  0  0  0  0
   48.3380   35.9490   41.9330 F   0  0  0  0  0  0  0  0  0  0  0  0
   45.5330   35.7360   43.0050 C   0  0  0  0  0  0  0  0  0  0  0  0
   44.7040   36.1580   44.1830 C   0  0  0  0  0  0  0  0  0  0  0  0
   49.2530   28.4204   45.2590 H   0  0  0  0  0  0  0  0  0  0  0  0
   49.7298   30.1490   45.5415 H   0  0  0  0  0  0  0  0  0  0  0  0
   49.9397   27.8106   47.4295 H   0  0  0  0  0  0  0  0  0  0  0  0
   51.2588   28.8467   46.6696 H   0  0  0  0  0  0  0  0  0  0  0  0
   48.5256   28.9961   49.0170 H   0  0  0  0  0  0  0  0  0  0  0  0
   49.0786   30.6533   49.4754 H   0  0  0  0  0  0  0  0  0  0  0  0
   48.6575   31.3947   47.1452 H   0  0  0  0  0  0  0  0  0  0  0  0
   45.8200   29.3258   48.7130 H   0  0  0  0  0  0  0  0  0  0  0  0
   44.8468   33.4638   48.6777 H   0  0  0  0  0  0  0  0  0  0  0  0
   46.5816   29.3544   45.0099 H   0  0  0  0  0  0  0  0  0  0  0  0
   46.6386   30.9369   45.9486 H   0  0  0  0  0  0  0  0  0  0  0  0
   49.0020   30.9717   44.7168 H   0  0  0  0  0  0  0  0  0  0  0  0
   48.0002   30.1260   43.4977 H   0  0  0  0  0  0  0  0  0  0  0  0
   44.7546   34.0313   44.8756 H   0  0  0  0  0  0  0  0  0  0  0  0
   46.2915   36.5055   42.7988 H   0  0  0  0  0  0  0  0  0  0  0  0
   44.8795   35.6126   42.1288 H   0  0  0  0  0  0  0  0  0  0  0  0
   45.2268   35.8918   45.1135 H   0  0  0  0  0  0  0  0  0  0  0  0
   44.5463   37.2461   44.1494 H   0  0  0  0  0  0  0  0  0  0  0  0
   43.7314   35.6453   44.1494 H   0  0  0  0  0  0  0  0  0  0  0  0
  1  6  1  0
  2  1  1  0
  2  3  1  0
  3  4  1  0
  4  5  1  0
  6  7  1  0
  6  5  1  0
  7 11  1  0
  7  8  1  0
  8  9  2  0
 10  9  1  0
 11 10  2  0
 12  1  1  0
 13 12  1  0
 14 19  2  0
 15 14  1  0
 16 17  1  0
 16 15  2  0
 17 18  2  0
 18 13  1  0
 18 19  1  0
 20 23  1  0
 20 16  1  0
 21 20  1  0
 22 20  1  0
 24 15  1  0
 24 25  1  0
  2 26  1  0
  2 27  1  0
  3 28  1  0
  3 29  1  0
  5 30  1  0
  5 31  1  0
  6 32  1  6
  8 33  1  0
 10 34  1  0
 12 35  1  0
 12 36  1  0
 13 37  1  0
 13 38  1  0
 14 39  1  0
 24 40  1  0
 24 41  1  0
 25 42  1  0
 25 43  1  0
 25 44  1  0
M  ISO  8  26  13  27  13  28  13  29  13  30  13  31  13  32  13  33  14
M  ISO  8  34  14  35   8  36   8  37   8  38   8  39  14  40   8  41   8
M  ISO  3  42   8  43   8  44   8
M  END
>  <minimizedAffinity>  (1) 
-5.11567163

>  <minimizedRMSD>  (1) 
2.21105552

$$$$
