
     RDKit          3D

 41 44  0  0  1  0  0  0  0  0999 V2000
   44.6510   35.6060   44.8940 C   0  0  0  0  0  0  0  0  0  0  0  0
   45.0410   35.4110   43.5460 C   0  0  0  0  0  0  0  0  0  0  0  0
   45.7040   34.2250   43.2440 C   0  0  0  0  0  0  0  0  0  0  0  0
   45.9380   33.3300   44.2470 N   0  0  0  0  0  0  0  0  0  0  0  0
   45.5460   33.5670   45.5090 C   0  0  0  0  0  0  0  0  0  0  0  0
   44.9090   34.6970   45.8250 N   0  0  0  0  0  0  0  0  0  0  0  0
   45.8220   32.5850   46.5550 N   0  0  0  0  0  0  0  0  0  0  0  0
   45.4010   32.8290   47.9190 C   0  0  0  0  0  0  0  0  0  0  0  0
   46.3760   32.2910   48.9270 C   0  0  0  0  0  0  0  0  0  0  0  0
   47.6830   32.0020   48.2690 C   0  0  0  0  0  0  0  0  0  0  0  0
   47.4270   30.8720   47.2730 C   0  0  0  0  0  0  0  0  0  0  0  0
   46.5250   31.3660   46.1990 C   0  0  1  0  0  0  0  0  0  0  0  0
   45.5840   30.3210   45.6860 C   0  0  0  0  0  0  0  0  0  0  0  0
   45.3530   29.9490   44.4270 N   0  0  0  0  0  0  0  0  0  0  0  0
   44.4760   28.9970   44.3570 O   0  0  0  0  0  0  0  0  0  0  0  0
   44.1080   28.7240   45.5960 C   0  0  0  0  0  0  0  0  0  0  0  0
   44.7740   29.5240   46.4550 N   0  0  0  0  0  0  0  0  0  0  0  0
   43.1380   27.6980   45.7950 N   0  0  0  0  0  0  0  0  0  0  0  0
   43.2440   26.5800   46.5380 C   0  0  0  0  0  0  0  0  0  0  0  0
   42.1760   25.7070   46.5970 C   0  0  0  0  0  0  0  0  0  0  0  0
   41.0240   25.9980   45.8930 C   0  0  0  0  0  0  0  0  0  0  0  0
   39.9050   25.0910   45.9510 N   0  0  0  0  0  0  0  0  0  0  0  0
   40.9460   27.1200   45.1610 N   0  0  0  0  0  0  0  0  0  0  0  0
   42.0000   27.9830   45.1010 C   0  0  0  0  0  0  0  0  0  0  0  0
   41.7890   28.9800   44.3860 O   0  0  0  0  0  0  0  0  0  0  0  0
   44.1236   36.5298   45.1742 H   0  0  0  0  0  0  0  0  0  0  0  0
   44.8292   36.1636   42.7722 H   0  0  0  0  0  0  0  0  0  0  0  0
   46.0332   34.0132   42.2160 H   0  0  0  0  0  0  0  0  0  0  0  0
   45.3016   33.9142   48.0687 H   0  0  0  0  0  0  0  0  0  0  0  0
   44.4429   32.3103   48.0709 H   0  0  0  0  0  0  0  0  0  0  0  0
   46.5255   33.0358   49.7226 H   0  0  0  0  0  0  0  0  0  0  0  0
   45.9748   31.3613   49.3568 H   0  0  0  0  0  0  0  0  0  0  0  0
   48.0497   32.8960   47.7434 H   0  0  0  0  0  0  0  0  0  0  0  0
   48.4456   31.7155   49.0081 H   0  0  0  0  0  0  0  0  0  0  0  0
   48.3807   30.5462   46.8323 H   0  0  0  0  0  0  0  0  0  0  0  0
   46.9578   30.0216   47.7894 H   0  0  0  0  0  0  0  0  0  0  0  0
   47.1989   31.6196   45.3674 H   0  0  0  0  0  0  0  0  0  0  0  0
   44.1701   26.3649   47.0912 H   0  0  0  0  0  0  0  0  0  0  0  0
   42.2420   24.7886   47.1989 H   0  0  0  0  0  0  0  0  0  0  0  0
   39.0431   25.3024   45.4282 H   0  0  0  0  0  0  0  0  0  0  0  0
   39.9674   24.2316   46.5152 H   0  0  0  0  0  0  0  0  0  0  0  0
  1  6  2  0
  2  1  1  0
  3  2  2  0
  3  4  1  0
  4  5  2  0
  5  6  1  0
  5  7  1  0
  7  8  1  0
  8  9  1  0
 10  9  1  0
 11 10  1  0
 12  7  1  0
 12 11  1  0
 13 12  1  0
 13 17  1  0
 14 13  2  0
 15 14  1  0
 15 16  1  0
 16 18  1  0
 16 17  2  0
 18 19  1  0
 19 20  2  0
 21 22  1  0
 21 20  1  0
 23 21  2  0
 24 23  1  0
 24 18  1  0
 25 24  2  0
  1 26  1  0
  2 27  1  0
  3 28  1  0
  8 29  1  0
  8 30  1  0
  9 31  1  0
  9 32  1  0
 10 33  1  0
 10 34  1  0
 11 35  1  0
 11 36  1  0
 12 37  1  6
 19 38  1  0
 20 39  1  0
 22 40  1  0
 22 41  1  0
M  ISO  8  26  14  27  14  28  14  29  13  30  13  31  13  32  13  33  13
M  ISO  6  34  13  35  13  36  13  37  13  38  14  39  14
M  END
>  <minimizedAffinity>  (1) 
-6.58784008

>  <minimizedRMSD>  (1) 
0.889428437

$$$$
