
     RDKit          3D

 43 46  0  0  1  0  0  0  0  0999 V2000
   44.5520   35.9350   44.8740 C   0  0  0  0  0  0  0  0  0  0  0  0
   45.1000   35.9290   43.5650 C   0  0  0  0  0  0  0  0  0  0  0  0
   45.8960   34.8430   43.2200 C   0  0  0  0  0  0  0  0  0  0  0  0
   46.1070   33.8550   44.1400 N   0  0  0  0  0  0  0  0  0  0  0  0
   45.5610   33.9150   45.3670 C   0  0  0  0  0  0  0  0  0  0  0  0
   44.7920   34.9460   45.7270 N   0  0  0  0  0  0  0  0  0  0  0  0
   45.8140   32.8440   46.3280 N   0  0  0  0  0  0  0  0  0  0  0  0
   45.2320   32.8950   47.6550 C   0  0  0  0  0  0  0  0  0  0  0  0
   46.1330   32.3130   48.7040 C   0  0  0  0  0  0  0  0  0  0  0  0
   47.5260   32.2140   48.1770 C   0  0  0  0  0  0  0  0  0  0  0  0
   47.4940   31.2000   47.0350 C   0  0  0  0  0  0  0  0  0  0  0  0
   46.6600   31.7340   45.9260 C   0  0  1  0  0  0  0  0  0  0  0  0
   45.8740   30.6770   45.2060 C   0  0  0  0  0  0  0  0  0  0  0  0
   45.9320   30.3410   43.9160 N   0  0  0  0  0  0  0  0  0  0  0  0
   45.1150   29.3660   43.6400 O   0  0  0  0  0  0  0  0  0  0  0  0
   44.5080   29.0530   44.7700 C   0  0  0  0  0  0  0  0  0  0  0  0
   44.9540   29.8470   45.7640 N   0  0  0  0  0  0  0  0  0  0  0  0
   43.5120   28.0250   44.9560 N   0  0  0  0  0  0  0  0  0  0  0  0
   43.5050   27.3110   46.1030 C   0  0  0  0  0  0  0  0  0  0  0  0
   42.5440   26.3490   46.2350 C   0  0  0  0  0  0  0  0  0  0  0  0
   42.5100   25.5430   47.4900 C   0  0  0  0  0  0  0  0  0  0  0  0
   41.6250   26.1250   45.2320 C   0  0  0  0  0  0  0  0  0  0  0  0
   40.7580   25.2210   45.4110 O   0  0  0  0  0  0  0  0  0  0  0  0
   41.6660   26.8590   44.1040 N   0  0  0  0  0  0  0  0  0  0  0  0
   42.6130   27.8050   43.9790 C   0  0  0  0  0  0  0  0  0  0  0  0
   42.5890   28.4500   42.8970 O   0  0  0  0  0  0  0  0  0  0  0  0
   43.9158   36.7755   45.1883 H   0  0  0  0  0  0  0  0  0  0  0  0
   44.9038   36.7465   42.8557 H   0  0  0  0  0  0  0  0  0  0  0  0
   46.3499   34.7798   42.2200 H   0  0  0  0  0  0  0  0  0  0  0  0
   45.0276   33.9454   47.9097 H   0  0  0  0  0  0  0  0  0  0  0  0
   44.3105   32.2945   47.6375 H   0  0  0  0  0  0  0  0  0  0  0  0
   46.1242   32.9608   49.5930 H   0  0  0  0  0  0  0  0  0  0  0  0
   45.7747   31.3085   48.9733 H   0  0  0  0  0  0  0  0  0  0  0  0
   47.8607   33.1935   47.8046 H   0  0  0  0  0  0  0  0  0  0  0  0
   48.2252   31.8989   48.9656 H   0  0  0  0  0  0  0  0  0  0  0  0
   48.5173   31.0226   46.6725 H   0  0  0  0  0  0  0  0  0  0  0  0
   47.0652   30.2532   47.3952 H   0  0  0  0  0  0  0  0  0  0  0  0
   47.3864   32.1324   45.2024 H   0  0  0  0  0  0  0  0  0  0  0  0
   44.2426   27.4966   46.8977 H   0  0  0  0  0  0  0  0  0  0  0  0
   42.5384   26.2165   48.3592 H   0  0  0  0  0  0  0  0  0  0  0  0
   41.5859   24.9469   47.5181 H   0  0  0  0  0  0  0  0  0  0  0  0
   43.3806   24.8712   47.5181 H   0  0  0  0  0  0  0  0  0  0  0  0
   40.9834   26.6984   43.3496 H   0  0  0  0  0  0  0  0  0  0  0  0
  1  6  2  0
  2  1  1  0
  3  2  2  0
  3  4  1  0
  4  5  2  0
  5  6  1  0
  5  7  1  0
  7  8  1  0
  8  9  1  0
 10  9  1  0
 11 10  1  0
 12  7  1  0
 12 11  1  0
 13 17  1  0
 13 12  1  0
 14 13  2  0
 15 14  1  0
 15 16  1  0
 16 18  1  0
 16 17  2  0
 18 19  1  0
 19 20  2  0
 20 21  1  0
 22 23  2  0
 22 20  1  0
 24 22  1  0
 25 24  1  0
 25 18  1  0
 26 25  2  0
  1 27  1  0
  2 28  1  0
  3 29  1  0
  8 30  1  0
  8 31  1  0
  9 32  1  0
  9 33  1  0
 10 34  1  0
 10 35  1  0
 11 36  1  0
 11 37  1  0
 12 38  1  6
 19 39  1  0
 21 40  1  0
 21 41  1  0
 21 42  1  0
 24 43  1  0
M  ISO  8  27  14  28  14  29  14  30  13  31  13  32  13  33  13  34  13
M  ISO  8  35  13  36  13  37  13  38  13  39  14  40   8  41   8  42   8
M  ISO  1  43   9
M  END
>  <minimizedAffinity>  (1) 
-6.41798973

>  <minimizedRMSD>  (1) 
0.369638294

$$$$
