
     RDKit          3D

 34 35  0  0  0  0  0  0  0  0999 V2000
   48.3960   34.5170   40.9710 C   0  0  0  0  0  0  0  0  0  0  0  0
   49.3630   33.3810   41.2150 C   0  0  0  0  0  0  0  0  0  0  0  0
   50.2880   33.6240   42.2640 C   0  0  0  0  0  0  0  0  0  0  0  0
   51.2140   32.6000   42.5510 C   0  0  0  0  0  0  0  0  0  0  0  0
   51.1590   31.4550   41.8070 N   0  0  0  0  0  0  0  0  0  0  0  0
   50.2510   31.2660   40.8070 C   0  0  0  0  0  0  0  0  0  0  0  0
   49.3660   32.2320   40.5260 N   0  0  0  0  0  0  0  0  0  0  0  0
   48.1040   34.6770   39.5250 C   0  0  0  0  0  0  0  0  0  0  0  0
   49.0190   35.8500   41.4320 C   0  0  0  0  0  0  0  0  0  0  0  0
   47.2020   34.2730   41.8260 C   0  0  0  0  0  0  0  0  0  0  0  0
   46.0610   35.0660   41.7060 N   0  0  0  0  0  0  0  0  0  0  0  0
   44.8870   34.5370   41.1610 C   0  0  0  0  0  0  0  0  0  0  0  0
   44.0760   34.0640   42.3650 C   0  0  0  0  0  0  0  0  0  0  0  0
   44.5220   34.9460   43.4810 C   0  0  0  0  0  0  0  0  0  0  0  0
   45.7030   35.7260   42.9400 C   0  0  0  0  0  0  0  0  0  0  0  0
   50.2827   34.5686   42.8276 H   0  0  0  0  0  0  0  0  0  0  0  0
   51.9595   32.7194   43.3510 H   0  0  0  0  0  0  0  0  0  0  0  0
   50.2453   30.3265   40.2348 H   0  0  0  0  0  0  0  0  0  0  0  0
   47.1455   35.2022   39.4004 H   0  0  0  0  0  0  0  0  0  0  0  0
   48.9066   35.2614   39.0513 H   0  0  0  0  0  0  0  0  0  0  0  0
   48.0434   33.6861   39.0513 H   0  0  0  0  0  0  0  0  0  0  0  0
   49.0359   35.8861   42.5313 H   0  0  0  0  0  0  0  0  0  0  0  0
   50.0465   35.9272   41.0468 H   0  0  0  0  0  0  0  0  0  0  0  0
   48.4191   36.6877   41.0468 H   0  0  0  0  0  0  0  0  0  0  0  0
   46.8853   33.2373   41.6335 H   0  0  0  0  0  0  0  0  0  0  0  0
   47.5682   34.5248   42.8322 H   0  0  0  0  0  0  0  0  0  0  0  0
   44.3371   35.3088   40.6025 H   0  0  0  0  0  0  0  0  0  0  0  0
   45.0897   33.7216   40.4510 H   0  0  0  0  0  0  0  0  0  0  0  0
   42.9983   34.1846   42.1803 H   0  0  0  0  0  0  0  0  0  0  0  0
   44.2335   32.9976   42.5843 H   0  0  0  0  0  0  0  0  0  0  0  0
   43.7129   35.6304   43.7758 H   0  0  0  0  0  0  0  0  0  0  0  0
   44.7942   34.3645   44.3742 H   0  0  0  0  0  0  0  0  0  0  0  0
   46.5423   35.6968   43.6504 H   0  0  0  0  0  0  0  0  0  0  0  0
   45.4571   36.7865   42.7822 H   0  0  0  0  0  0  0  0  0  0  0  0
  1  2  1  0
  1  9  1  0
  1 10  1  0
  2  3  2  0
  3  4  1  0
  5  4  2  0
  6  5  1  0
  7  6  2  0
  7  2  1  0
  8  1  1  0
 11 10  1  0
 11 15  1  0
 12 11  1  0
 12 13  1  0
 13 14  1  0
 15 14  1  0
  3 16  1  0
  4 17  1  0
  6 18  1  0
  8 19  1  0
  8 20  1  0
  8 21  1  0
  9 22  1  0
  9 23  1  0
  9 24  1  0
 10 25  1  0
 10 26  1  0
 12 27  1  0
 12 28  1  0
 13 29  1  0
 13 30  1  0
 14 31  1  0
 14 32  1  0
 15 33  1  0
 15 34  1  0
M  ISO  8  16  14  17  14  18  14  19   8  20   8  21   8  22   8  23   8
M  ISO  8  24   8  25   8  26   8  27  13  28  13  29  13  30  13  31  13
M  ISO  3  32  13  33  13  34  13
M  END
>  <minimizedAffinity>  (1) 
-3.87607098

>  <minimizedRMSD>  (1) 
5.03061152

$$$$
