
     RDKit          3D

 45 48  0  0  1  0  0  0  0  0999 V2000
   44.6140   35.7680   44.9190 C   0  0  0  0  0  0  0  0  0  0  0  0
   45.1790   35.6800   43.6210 C   0  0  0  0  0  0  0  0  0  0  0  0
   45.9390   34.5580   43.3360 C   0  0  0  0  0  0  0  0  0  0  0  0
   46.1050   33.6070   44.2990 N   0  0  0  0  0  0  0  0  0  0  0  0
   45.5490   33.7360   45.5170 C   0  0  0  0  0  0  0  0  0  0  0  0
   44.8120   34.8050   45.8200 N   0  0  0  0  0  0  0  0  0  0  0  0
   45.7540   32.6980   46.5260 N   0  0  0  0  0  0  0  0  0  0  0  0
   45.1530   32.8220   47.8380 C   0  0  0  0  0  0  0  0  0  0  0  0
   46.0280   32.2640   48.9240 C   0  0  0  0  0  0  0  0  0  0  0  0
   47.4250   32.0940   48.4240 C   0  0  0  0  0  0  0  0  0  0  0  0
   47.3660   31.0320   47.3290 C   0  0  0  0  0  0  0  0  0  0  0  0
   46.5700   31.5460   46.1850 C   0  0  1  0  0  0  0  0  0  0  0  0
   45.7690   30.4950   45.4960 C   0  0  0  0  0  0  0  0  0  0  0  0
   45.4870   30.3580   44.2020 N   0  0  0  0  0  0  0  0  0  0  0  0
   44.7720   29.3150   43.9580 O   0  0  0  0  0  0  0  0  0  0  0  0
   44.5590   28.7200   45.1190 C   0  0  0  0  0  0  0  0  0  0  0  0
   45.1680   29.4350   46.0850 N   0  0  0  0  0  0  0  0  0  0  0  0
   43.8540   27.5460   45.5040 N   0  0  0  0  0  0  0  0  0  0  0  0
   42.8920   26.7940   44.7220 C   0  0  0  0  0  0  0  0  0  0  0  0
   41.5770   26.9350   45.4630 C   0  0  0  0  0  0  0  0  0  0  0  0
   41.6970   26.0400   46.6790 C   0  0  0  0  0  0  0  0  0  0  0  0
   43.0990   25.8910   47.1520 C   0  0  0  0  0  0  0  0  0  0  0  0
   44.0520   26.9640   46.7980 C   0  0  0  0  0  0  0  0  0  0  0  0
   44.0037   36.6432   45.1863 H   0  0  0  0  0  0  0  0  0  0  0  0
   45.0201   36.4699   42.8721 H   0  0  0  0  0  0  0  0  0  0  0  0
   46.4026   34.4356   42.3460 H   0  0  0  0  0  0  0  0  0  0  0  0
   44.9706   33.8871   48.0437 H   0  0  0  0  0  0  0  0  0  0  0  0
   44.2159   32.2460   47.8333 H   0  0  0  0  0  0  0  0  0  0  0  0
   46.0299   32.9548   49.7800 H   0  0  0  0  0  0  0  0  0  0  0  0
   45.6356   31.2840   49.2333 H   0  0  0  0  0  0  0  0  0  0  0  0
   47.8000   33.0431   48.0134 H   0  0  0  0  0  0  0  0  0  0  0  0
   48.1043   31.7926   49.2350 H   0  0  0  0  0  0  0  0  0  0  0  0
   48.3859   30.7972   46.9903 H   0  0  0  0  0  0  0  0  0  0  0  0
   46.8933   30.1214   47.7256 H   0  0  0  0  0  0  0  0  0  0  0  0
   47.3225   31.8906   45.4604 H   0  0  0  0  0  0  0  0  0  0  0  0
   43.1881   25.7364   44.6603 H   0  0  0  0  0  0  0  0  0  0  0  0
   42.8227   27.1658   43.6890 H   0  0  0  0  0  0  0  0  0  0  0  0
   41.4188   27.9796   45.7692 H   0  0  0  0  0  0  0  0  0  0  0  0
   40.7217   26.6519   44.8319 H   0  0  0  0  0  0  0  0  0  0  0  0
   41.0960   26.4714   47.4930 H   0  0  0  0  0  0  0  0  0  0  0  0
   41.3382   25.0411   46.3902 H   0  0  0  0  0  0  0  0  0  0  0  0
   43.0718   25.8222   48.2495 H   0  0  0  0  0  0  0  0  0  0  0  0
   43.4773   24.9961   46.6361 H   0  0  0  0  0  0  0  0  0  0  0  0
   45.0677   26.5431   46.8312 H   0  0  0  0  0  0  0  0  0  0  0  0
   43.8904   27.7719   47.5268 H   0  0  0  0  0  0  0  0  0  0  0  0
  1  6  2  0
  2  1  1  0
  3  2  2  0
  3  4  1  0
  4  5  2  0
  5  6  1  0
  5  7  1  0
  7  8  1  0
  8  9  1  0
 10  9  1  0
 11 10  1  0
 12  7  1  0
 12 11  1  0
 13 17  1  0
 13 12  1  0
 14 13  2  0
 15 14  1  0
 15 16  1  0
 16 18  1  0
 16 17  2  0
 18 23  1  0
 19 20  1  0
 19 18  1  0
 20 21  1  0
 21 22  1  0
 23 22  1  0
  1 24  1  0
  2 25  1  0
  3 26  1  0
  8 27  1  0
  8 28  1  0
  9 29  1  0
  9 30  1  0
 10 31  1  0
 10 32  1  0
 11 33  1  0
 11 34  1  0
 12 35  1  6
 19 36  1  0
 19 37  1  0
 20 38  1  0
 20 39  1  0
 21 40  1  0
 21 41  1  0
 22 42  1  0
 22 43  1  0
 23 44  1  0
 23 45  1  0
M  ISO  8  24  14  25  14  26  14  27  13  28  13  29  13  30  13  31  13
M  ISO  8  32  13  33  13  34  13  35  13  36  13  37  13  38  13  39  13
M  ISO  6  40  13  41  13  42  13  43  13  44  13  45  13
M  END
>  <minimizedAffinity>  (1) 
-6.33099985

>  <minimizedRMSD>  (1) 
0.373281717

$$$$
