
     RDKit          3D

 23 23  0  0  0  0  0  0  0  0999 V2000
   47.0280   34.3100   42.0810 C   0  0  0  0  0  0  0  0  0  0  0  0
   46.1650   34.7190   43.2260 C   0  0  0  0  0  0  0  0  0  0  0  0
   46.2020   33.8440   44.3120 C   0  0  0  0  0  0  0  0  0  0  0  0
   45.4230   34.1380   45.4440 C   0  0  0  0  0  0  0  0  0  0  0  0
   44.6740   35.2690   45.4120 N   0  0  0  0  0  0  0  0  0  0  0  0
   44.6550   36.1050   44.3420 C   0  0  0  0  0  0  0  0  0  0  0  0
   45.3950   35.8220   43.2720 N   0  0  0  0  0  0  0  0  0  0  0  0
   46.2500   34.1920   40.8140 C   0  0  0  0  0  0  0  0  0  0  0  0
   47.7060   32.9770   42.3420 C   0  0  0  0  0  0  0  0  0  0  0  0
   48.1040   35.3630   41.9280 C   0  0  0  0  0  0  0  0  0  0  0  0
   49.7150   34.7490   42.4710 S   0  0  0  0  0  0  0  0  0  0  0  0
   46.8292   32.9408   44.2827 H   0  0  0  0  0  0  0  0  0  0  0  0
   45.4205   33.4763   46.3228 H   0  0  0  0  0  0  0  0  0  0  0  0
   44.0316   37.0111   44.3592 H   0  0  0  0  0  0  0  0  0  0  0  0
   45.1877   34.0309   41.0497 H   0  0  0  0  0  0  0  0  0  0  0  0
   46.3596   35.1170   40.2289 H   0  0  0  0  0  0  0  0  0  0  0  0
   46.6289   33.3411   40.2289 H   0  0  0  0  0  0  0  0  0  0  0  0
   47.7889   32.8140   43.4267 H   0  0  0  0  0  0  0  0  0  0  0  0
   47.1096   32.1684   41.8942 H   0  0  0  0  0  0  0  0  0  0  0  0
   48.7107   32.9828   41.8942 H   0  0  0  0  0  0  0  0  0  0  0  0
   48.1709   35.6542   40.8694 H   0  0  0  0  0  0  0  0  0  0  0  0
   47.8343   36.2253   42.5555 H   0  0  0  0  0  0  0  0  0  0  0  0
   49.7594   34.7321   43.8402 H   0  0  0  0  0  0  0  0  0  0  0  0
  1  9  1  0
  1  2  1  0
  2  7  2  0
  2  3  1  0
  3  4  2  0
  5  4  1  0
  6  5  2  0
  7  6  1  0
  8  1  1  0
 10  1  1  0
 10 11  1  0
  3 12  1  0
  4 13  1  0
  6 14  1  0
  8 15  1  0
  8 16  1  0
  8 17  1  0
  9 18  1  0
  9 19  1  0
  9 20  1  0
 10 21  1  0
 10 22  1  0
 11 23  1  0
M  ISO  8  12  14  13  14  14  14  15   8  16   8  17   8  18   8  19   8
M  ISO  4  20   8  21   8  22   8  23  11
M  END
>  <minimizedAffinity>  (1) 
-3.85041046

>  <minimizedRMSD>  (1) 
1.6085794

$$$$
