
     RDKit          3D

 40 43  0  0  1  0  0  0  0  0999 V2000
   44.6490   35.6080   44.8740 C   0  0  0  0  0  0  0  0  0  0  0  0
   45.0520   35.4080   43.5300 C   0  0  0  0  0  0  0  0  0  0  0  0
   45.7130   34.2330   43.2370 C   0  0  0  0  0  0  0  0  0  0  0  0
   45.9410   33.3370   44.2470 N   0  0  0  0  0  0  0  0  0  0  0  0
   45.5440   33.5680   45.4990 C   0  0  0  0  0  0  0  0  0  0  0  0
   44.9030   34.6950   45.8110 N   0  0  0  0  0  0  0  0  0  0  0  0
   45.8140   32.5830   46.5460 N   0  0  0  0  0  0  0  0  0  0  0  0
   45.3870   32.8200   47.9030 C   0  0  0  0  0  0  0  0  0  0  0  0
   46.3550   32.2850   48.9190 C   0  0  0  0  0  0  0  0  0  0  0  0
   47.6800   32.0030   48.2570 C   0  0  0  0  0  0  0  0  0  0  0  0
   47.4160   30.8750   47.2730 C   0  0  0  0  0  0  0  0  0  0  0  0
   46.5220   31.3650   46.1930 C   0  0  1  0  0  0  0  0  0  0  0  0
   45.5940   30.3180   45.6670 C   0  0  0  0  0  0  0  0  0  0  0  0
   45.3830   29.9510   44.4010 N   0  0  0  0  0  0  0  0  0  0  0  0
   44.5050   28.9880   44.3280 O   0  0  0  0  0  0  0  0  0  0  0  0
   44.1350   28.7180   45.5610 C   0  0  0  0  0  0  0  0  0  0  0  0
   44.7860   29.5210   46.4290 N   0  0  0  0  0  0  0  0  0  0  0  0
   43.1580   27.6910   45.9110 C   0  0  0  0  0  0  0  0  0  0  0  0
   43.5440   26.6590   46.7440 C   0  0  0  0  0  0  0  0  0  0  0  0
   42.6880   25.6570   47.1210 C   0  0  0  0  0  0  0  0  0  0  0  0
   41.4070   25.7420   46.6130 C   0  0  0  0  0  0  0  0  0  0  0  0
   40.9720   26.7610   45.7720 C   0  0  0  0  0  0  0  0  0  0  0  0
   41.8660   27.7570   45.4120 C   0  0  0  0  0  0  0  0  0  0  0  0
   44.1181   36.5316   45.1481 H   0  0  0  0  0  0  0  0  0  0  0  0
   44.8463   36.1586   42.7526 H   0  0  0  0  0  0  0  0  0  0  0  0
   46.0503   34.0201   42.2119 H   0  0  0  0  0  0  0  0  0  0  0  0
   45.2822   33.9045   48.0542 H   0  0  0  0  0  0  0  0  0  0  0  0
   44.4316   32.2941   48.0464 H   0  0  0  0  0  0  0  0  0  0  0  0
   46.4957   33.0285   49.7174 H   0  0  0  0  0  0  0  0  0  0  0  0
   45.9561   31.3541   49.3483 H   0  0  0  0  0  0  0  0  0  0  0  0
   48.0423   32.8967   47.7278 H   0  0  0  0  0  0  0  0  0  0  0  0
   48.4510   31.7286   48.9920 H   0  0  0  0  0  0  0  0  0  0  0  0
   48.3678   30.5373   46.8372 H   0  0  0  0  0  0  0  0  0  0  0  0
   46.9359   30.0347   47.7959 H   0  0  0  0  0  0  0  0  0  0  0  0
   47.1997   31.6217   45.3655 H   0  0  0  0  0  0  0  0  0  0  0  0
   44.5779   26.6405   47.1192 H   0  0  0  0  0  0  0  0  0  0  0  0
   43.0014   24.8382   47.7853 H   0  0  0  0  0  0  0  0  0  0  0  0
   40.6876   24.9572   46.8898 H   0  0  0  0  0  0  0  0  0  0  0  0
   39.9371   26.7760   45.3994 H   0  0  0  0  0  0  0  0  0  0  0  0
   41.5587   28.5783   44.7479 H   0  0  0  0  0  0  0  0  0  0  0  0
  1  6  2  0
  2  1  1  0
  3  2  2  0
  3  4  1  0
  4  5  2  0
  5  6  1  0
  5  7  1  0
  7  8  1  0
  8  9  1  0
 10  9  1  0
 11 10  1  0
 12  7  1  0
 12 11  1  0
 13 12  1  0
 13 17  1  0
 14 13  2  0
 15 14  1  0
 15 16  1  0
 16 18  1  0
 16 17  2  0
 18 19  2  0
 19 20  1  0
 21 20  2  0
 22 21  1  0
 23 22  2  0
 23 18  1  0
  1 24  1  0
  2 25  1  0
  3 26  1  0
  8 27  1  0
  8 28  1  0
  9 29  1  0
  9 30  1  0
 10 31  1  0
 10 32  1  0
 11 33  1  0
 11 34  1  0
 12 35  1  6
 19 36  1  0
 20 37  1  0
 21 38  1  0
 22 39  1  0
 23 40  1  0
M  ISO  8  24  14  25  14  26  14  27  13  28  13  29  13  30  13  31  13
M  ISO  8  32  13  33  13  34  13  35  13  36  14  37  14  38  14  39  14
M  ISO  1  40  14
M  END
>  <minimizedAffinity>  (1) 
-6.28527832

>  <minimizedRMSD>  (1) 
0.914700985

$$$$
