
     RDKit          3D

 43 46  0  0  1  0  0  0  0  0999 V2000
   48.5750   33.2370   40.9360 C   0  0  0  0  0  0  0  0  0  0  0  0
   48.0320   33.6160   39.6000 C   0  0  2  0  0  0  0  0  0  0  0  0
   46.6410   33.3390   39.2060 C   0  0  0  0  0  0  0  0  0  0  0  0
   47.7500   32.4590   38.6610 C   0  0  1  0  0  0  0  0  0  0  0  0
   47.9180   32.5750   37.2130 C   0  0  0  0  0  0  0  0  0  0  0  0
   48.7700   33.4600   36.5500 C   0  0  0  0  0  0  0  0  0  0  0  0
   48.6180   33.2390   35.2230 N   0  0  0  0  0  0  0  0  0  0  0  0
   47.7000   32.2440   35.0400 C   0  0  0  0  0  0  0  0  0  0  0  0
   47.2270   31.6830   33.8500 C   0  0  0  0  0  0  0  0  0  0  0  0
   46.2820   30.6730   33.9450 C   0  0  0  0  0  0  0  0  0  0  0  0
   45.8260   30.2360   35.1730 C   0  0  0  0  0  0  0  0  0  0  0  0
   46.3060   30.8040   36.3370 C   0  0  0  0  0  0  0  0  0  0  0  0
   47.2530   31.8200   36.2940 C   0  0  0  0  0  0  0  0  0  0  0  0
   48.7150   34.4070   41.8800 C   0  0  0  0  0  0  0  0  0  0  0  0
   47.5800   34.3490   42.8200 C   0  0  0  0  0  0  0  0  0  0  0  0
   46.5660   35.2560   42.5320 C   0  0  0  0  0  0  0  0  0  0  0  0
   45.4270   35.3020   43.3700 C   0  0  0  0  0  0  0  0  0  0  0  0
   45.3960   34.4360   44.4230 N   0  0  0  0  0  0  0  0  0  0  0  0
   46.3940   33.5730   44.6690 C   0  0  0  0  0  0  0  0  0  0  0  0
   47.4520   33.5420   43.8780 N   0  0  0  0  0  0  0  0  0  0  0  0
   50.0330   34.2950   42.6240 C   0  0  0  0  0  0  0  0  0  0  0  0
   48.7870   35.6600   41.0830 C   0  0  0  0  0  0  0  0  0  0  0  0
   49.5669   32.7834   40.7934 H   0  0  0  0  0  0  0  0  0  0  0  0
   47.8591   32.5365   41.3908 H   0  0  0  0  0  0  0  0  0  0  0  0
   48.6224   34.5441   39.5930 H   0  0  0  0  0  0  0  0  0  0  0  0
   45.9334   32.9336   39.9442 H   0  0  0  0  0  0  0  0  0  0  0  0
   45.8338   33.9334   38.7530 H   0  0  0  0  0  0  0  0  0  0  0  0
   48.0685   31.4061   38.6697 H   0  0  0  0  0  0  0  0  0  0  0  0
   49.4387   34.1977   37.0175 H   0  0  0  0  0  0  0  0  0  0  0  0
   49.1144   33.7402   34.4725 H   0  0  0  0  0  0  0  0  0  0  0  0
   47.5919   32.0308   32.8723 H   0  0  0  0  0  0  0  0  0  0  0  0
   45.8889   30.2121   33.0268 H   0  0  0  0  0  0  0  0  0  0  0  0
   45.0771   29.4319   35.2245 H   0  0  0  0  0  0  0  0  0  0  0  0
   45.9343   30.4480   37.3092 H   0  0  0  0  0  0  0  0  0  0  0  0
   46.6483   35.9281   41.6651 H   0  0  0  0  0  0  0  0  0  0  0  0
   44.6027   36.0053   43.1805 H   0  0  0  0  0  0  0  0  0  0  0  0
   46.3312   32.8910   45.5298 H   0  0  0  0  0  0  0  0  0  0  0  0
   49.8448   34.3110   43.7077 H   0  0  0  0  0  0  0  0  0  0  0  0
   50.5287   33.3515   42.3518 H   0  0  0  0  0  0  0  0  0  0  0  0
   50.6808   35.1413   42.3518 H   0  0  0  0  0  0  0  0  0  0  0  0
   48.8367   36.5241   41.7619 H   0  0  0  0  0  0  0  0  0  0  0  0
   49.6855   35.6400   40.4487 H   0  0  0  0  0  0  0  0  0  0  0  0
   47.8921   35.7430   40.4487 H   0  0  0  0  0  0  0  0  0  0  0  0
  1 14  1  0
  2  1  1  0
  3  2  1  0
  4  3  1  0
  4  2  1  0
  5  4  1  0
  6  5  2  0
  7  6  1  0
  8  7  1  0
  8 13  2  0
  9 10  2  0
  9  8  1  0
 10 11  1  0
 11 12  2  0
 13 12  1  0
 13  5  1  0
 14 21  1  0
 14 15  1  0
 15 20  1  0
 16 15  2  0
 16 17  1  0
 17 18  2  0
 18 19  1  0
 20 19  2  0
 22 14  1  0
  1 23  1  0
  1 24  1  0
  2 25  1  6
  3 26  1  0
  3 27  1  0
  4 28  1  1
  6 29  1  0
  7 30  1  0
  9 31  1  0
 10 32  1  0
 11 33  1  0
 12 34  1  0
 16 35  1  0
 17 36  1  0
 19 37  1  0
 21 38  1  0
 21 39  1  0
 21 40  1  0
 22 41  1  0
 22 42  1  0
 22 43  1  0
M  ISO  8  23   8  24   8  25  13  26  13  27  13  28  13  29  14  30   9
M  ISO  8  31  14  32  14  33  14  34  14  35  14  36  14  37  14  38   8
M  ISO  5  39   8  40   8  41   8  42   8  43   8
M  END
>  <minimizedAffinity>  (1) 
-5.39176846

>  <minimizedRMSD>  (1) 
2.83184338

$$$$
