
     RDKit          3D

 36 38  0  0  1  0  0  0  0  0999 V2000
   48.9030   34.5680   41.8240 C   0  0  0  0  0  0  0  0  0  0  0  0
   47.7890   34.3260   42.7600 C   0  0  0  0  0  0  0  0  0  0  0  0
   46.7290   35.2080   42.6080 C   0  0  0  0  0  0  0  0  0  0  0  0
   45.6030   35.0680   43.4650 C   0  0  0  0  0  0  0  0  0  0  0  0
   45.6400   34.0690   44.3840 N   0  0  0  0  0  0  0  0  0  0  0  0
   46.6860   33.2360   44.4960 C   0  0  0  0  0  0  0  0  0  0  0  0
   47.7290   33.3740   43.6970 N   0  0  0  0  0  0  0  0  0  0  0  0
   50.2360   34.2470   42.4770 C   0  0  0  0  0  0  0  0  0  0  0  0
   49.0130   35.9700   41.3510 C   0  0  0  0  0  0  0  0  0  0  0  0
   48.6740   33.6520   40.6370 C   0  0  0  0  0  0  0  0  0  0  0  0
   47.8150   34.2460   39.5950 C   0  0  2  0  0  0  0  0  0  0  0  0
   46.9180   33.4740   38.7220 C   0  0  0  0  0  0  0  0  0  0  0  0
   48.1970   34.1230   38.1590 C   0  0  2  0  0  0  0  0  0  0  0  0
   49.0830   33.1280   37.5800 C   0  0  0  0  0  0  0  0  0  0  0  0
   48.5800   32.6800   36.3410 C   0  0  0  0  0  0  0  0  0  0  0  0
   49.4000   31.7420   35.7670 N   0  0  0  0  0  0  0  0  0  0  0  0
   50.4250   31.5760   36.6130 C   0  0  0  0  0  0  0  0  0  0  0  0
   50.2040   32.3960   37.6490 N   0  0  0  0  0  0  0  0  0  0  0  0
   46.7589   35.9972   41.8424 H   0  0  0  0  0  0  0  0  0  0  0  0
   44.7370   35.7417   43.3867 H   0  0  0  0  0  0  0  0  0  0  0  0
   46.6750   32.4381   45.2532 H   0  0  0  0  0  0  0  0  0  0  0  0
   50.1243   34.2739   43.5710 H   0  0  0  0  0  0  0  0  0  0  0  0
   50.5643   33.2441   42.1665 H   0  0  0  0  0  0  0  0  0  0  0  0
   50.9849   34.9905   42.1665 H   0  0  0  0  0  0  0  0  0  0  0  0
   49.0660   36.6461   42.2171 H   0  0  0  0  0  0  0  0  0  0  0  0
   49.9226   36.0814   40.7426 H   0  0  0  0  0  0  0  0  0  0  0  0
   48.1319   36.2219   40.7426 H   0  0  0  0  0  0  0  0  0  0  0  0
   49.6494   33.4113   40.1892 H   0  0  0  0  0  0  0  0  0  0  0  0
   48.1565   32.7570   41.0128 H   0  0  0  0  0  0  0  0  0  0  0  0
   47.6274   35.0751   40.2931 H   0  0  0  0  0  0  0  0  0  0  0  0
   46.8534   32.3808   38.8254 H   0  0  0  0  0  0  0  0  0  0  0  0
   45.8474   33.5110   38.4722 H   0  0  0  0  0  0  0  0  0  0  0  0
   48.5553   34.8928   37.4597 H   0  0  0  0  0  0  0  0  0  0  0  0
   47.6435   33.0393   35.8895 H   0  0  0  0  0  0  0  0  0  0  0  0
   51.2815   30.8983   36.4825 H   0  0  0  0  0  0  0  0  0  0  0  0
   50.8529   32.4599   38.4464 H   0  0  0  0  0  0  0  0  0  0  0  0
  1  8  1  0
  1  2  1  0
  2  7  1  0
  3  2  2  0
  3  4  1  0
  4  5  2  0
  5  6  1  0
  7  6  2  0
  9  1  1  0
 10  1  1  0
 11 10  1  0
 12 11  1  0
 13 12  1  0
 13 11  1  0
 14 18  1  0
 14 13  1  0
 15 14  2  0
 16 15  1  0
 16 17  2  0
 17 18  1  0
  3 19  1  0
  4 20  1  0
  6 21  1  0
  8 22  1  0
  8 23  1  0
  8 24  1  0
  9 25  1  0
  9 26  1  0
  9 27  1  0
 10 28  1  0
 10 29  1  0
 11 30  1  1
 12 31  1  0
 12 32  1  0
 13 33  1  6
 15 34  1  0
 17 35  1  0
 18 36  1  0
M  ISO  8  19  14  20  14  21  14  22   8  23   8  24   8  25   8  26   8
M  ISO  8  27   8  28   8  29   8  30  13  31  13  32  13  33  13  34  14
M  ISO  2  35  14  36   9
M  END
>  <minimizedAffinity>  (1) 
-5.03521252

>  <minimizedRMSD>  (1) 
0.581042469

$$$$
