
     RDKit          3D

 32 33  0  0  1  0  0  0  0  0999 V2000
   48.8180   34.5370   41.8830 C   0  0  0  0  0  0  0  0  0  0  0  0
   47.7180   34.3330   42.8460 C   0  0  0  0  0  0  0  0  0  0  0  0
   46.6670   35.2280   42.6850 C   0  0  0  0  0  0  0  0  0  0  0  0
   45.5540   35.1360   43.5630 C   0  0  0  0  0  0  0  0  0  0  0  0
   45.5940   34.1600   44.5170 N   0  0  0  0  0  0  0  0  0  0  0  0
   46.6290   33.3180   44.6360 C   0  0  0  0  0  0  0  0  0  0  0  0
   47.6640   33.4100   43.8120 N   0  0  0  0  0  0  0  0  0  0  0  0
   50.1600   34.2960   42.5470 C   0  0  0  0  0  0  0  0  0  0  0  0
   48.8750   35.8900   41.2820 C   0  0  0  0  0  0  0  0  0  0  0  0
   48.6270   33.5170   40.7800 C   0  0  0  0  0  0  0  0  0  0  0  0
   47.7050   33.9950   39.6900 C   0  0  2  0  0  0  0  0  0  0  0  0
   46.3840   33.3890   39.4740 C   0  0  0  0  0  0  0  0  0  0  0  0
   47.5300   33.0410   38.5270 C   0  0  1  0  0  0  0  0  0  0  0  0
   47.4990   33.4870   37.1360 C   0  0  0  0  0  0  0  0  0  0  0  0
   47.2160   32.6710   36.2210 O   0  0  0  0  0  0  0  0  0  0  0  0
   47.7880   34.8300   36.8250 O   0  0  0  0  0  0  0  0  0  0  0  0
   46.6964   35.9919   41.8940 H   0  0  0  0  0  0  0  0  0  0  0  0
   44.6975   35.8210   43.4780 H   0  0  0  0  0  0  0  0  0  0  0  0
   46.6204   32.5470   45.4205 H   0  0  0  0  0  0  0  0  0  0  0  0
   50.0375   34.3180   43.6399 H   0  0  0  0  0  0  0  0  0  0  0  0
   50.5492   33.3136   42.2413 H   0  0  0  0  0  0  0  0  0  0  0  0
   50.8667   35.0816   42.2413 H   0  0  0  0  0  0  0  0  0  0  0  0
   48.9068   36.6452   42.0812 H   0  0  0  0  0  0  0  0  0  0  0  0
   49.7776   35.9769   40.6593 H   0  0  0  0  0  0  0  0  0  0  0  0
   47.9829   36.0525   40.6593 H   0  0  0  0  0  0  0  0  0  0  0  0
   49.6082   33.2930   40.3360 H   0  0  0  0  0  0  0  0  0  0  0  0
   48.1677   32.6256   41.2321 H   0  0  0  0  0  0  0  0  0  0  0  0
   48.0142   35.0404   39.8368 H   0  0  0  0  0  0  0  0  0  0  0  0
   46.0060   32.6331   40.1781 H   0  0  0  0  0  0  0  0  0  0  0  0
   45.3646   33.7814   39.3438 H   0  0  0  0  0  0  0  0  0  0  0  0
   48.0438   32.1303   38.1855 H   0  0  0  0  0  0  0  0  0  0  0  0
   47.7679   35.1355   35.8835 H   0  0  0  0  0  0  0  0  0  0  0  0
  1  8  1  0
  1  2  1  0
  2  7  1  0
  3  2  2  0
  3  4  1  0
  4  5  2  0
  5  6  1  0
  7  6  2  0
  9  1  1  0
 10  1  1  0
 11 10  1  0
 12 11  1  0
 13 12  1  0
 13 11  1  0
 14 13  1  0
 15 14  2  0
 16 14  1  0
  3 17  1  0
  4 18  1  0
  6 19  1  0
  8 20  1  0
  8 21  1  0
  8 22  1  0
  9 23  1  0
  9 24  1  0
  9 25  1  0
 10 26  1  0
 10 27  1  0
 11 28  1  6
 12 29  1  0
 12 30  1  0
 13 31  1  6
 16 32  1  0
M  ISO  8  17  14  18  14  19  14  20   8  21   8  22   8  23   8  24   8
M  ISO  8  25   8  26   8  27   8  28  13  29  13  30  13  31  13  32   3
M  END
>  <minimizedAffinity>  (1) 
-4.90856123

>  <minimizedRMSD>  (1) 
1.20884562

$$$$
