
     RDKit          3D

 36 38  0  0  1  0  0  0  0  0999 V2000
   48.8320   34.5190   41.8770 C   0  0  0  0  0  0  0  0  0  0  0  0
   47.7320   34.3210   42.8370 C   0  0  0  0  0  0  0  0  0  0  0  0
   46.6740   35.2110   42.6730 C   0  0  0  0  0  0  0  0  0  0  0  0
   45.5630   35.1230   43.5450 C   0  0  0  0  0  0  0  0  0  0  0  0
   45.6010   34.1580   44.5060 N   0  0  0  0  0  0  0  0  0  0  0  0
   46.6380   33.3180   44.6320 C   0  0  0  0  0  0  0  0  0  0  0  0
   47.6670   33.4120   43.8130 N   0  0  0  0  0  0  0  0  0  0  0  0
   50.1740   34.3030   42.5510 C   0  0  0  0  0  0  0  0  0  0  0  0
   48.8780   35.8670   41.2650 C   0  0  0  0  0  0  0  0  0  0  0  0
   48.6570   33.4900   40.7820 C   0  0  0  0  0  0  0  0  0  0  0  0
   47.8360   33.9900   39.6290 C   0  0  2  0  0  0  0  0  0  0  0  0
   46.4800   33.4920   39.3680 C   0  0  0  0  0  0  0  0  0  0  0  0
   47.6410   33.0250   38.4880 C   0  0  1  0  0  0  0  0  0  0  0  0
   47.4740   33.4480   37.0740 C   0  0  0  0  0  0  0  0  0  0  0  0
   47.2170   32.4540   35.9770 C   0  0  0  0  0  0  0  0  0  0  0  0
   48.5710   33.1380   36.1010 C   0  0  0  0  0  0  0  0  0  0  0  0
   46.7013   35.9707   41.8780 H   0  0  0  0  0  0  0  0  0  0  0  0
   44.7050   35.8049   43.4509 H   0  0  0  0  0  0  0  0  0  0  0  0
   46.6305   32.5497   45.4192 H   0  0  0  0  0  0  0  0  0  0  0  0
   50.0435   34.3240   43.6430 H   0  0  0  0  0  0  0  0  0  0  0  0
   50.5830   33.3275   42.2493 H   0  0  0  0  0  0  0  0  0  0  0  0
   50.8685   35.1009   42.2493 H   0  0  0  0  0  0  0  0  0  0  0  0
   48.9040   36.6290   42.0579 H   0  0  0  0  0  0  0  0  0  0  0  0
   49.7797   35.9559   40.6413 H   0  0  0  0  0  0  0  0  0  0  0  0
   47.9845   36.0172   40.6413 H   0  0  0  0  0  0  0  0  0  0  0  0
   49.6512   33.2059   40.4066 H   0  0  0  0  0  0  0  0  0  0  0  0
   48.1214   32.6343   41.2190 H   0  0  0  0  0  0  0  0  0  0  0  0
   48.2290   35.0092   39.7585 H   0  0  0  0  0  0  0  0  0  0  0  0
   46.0077   32.7907   40.0716 H   0  0  0  0  0  0  0  0  0  0  0  0
   45.5036   33.9622   39.1793 H   0  0  0  0  0  0  0  0  0  0  0  0
   48.1901   32.1144   38.2065 H   0  0  0  0  0  0  0  0  0  0  0  0
   46.9457   34.3527   37.4093 H   0  0  0  0  0  0  0  0  0  0  0  0
   46.5431   32.7110   35.1464 H   0  0  0  0  0  0  0  0  0  0  0  0
   46.8695   31.4112   35.9332 H   0  0  0  0  0  0  0  0  0  0  0  0
   49.4506   32.5636   36.4271 H   0  0  0  0  0  0  0  0  0  0  0  0
   49.2091   33.7318   35.4300 H   0  0  0  0  0  0  0  0  0  0  0  0
  1  8  1  0
  1  2  1  0
  2  7  1  0
  3  2  2  0
  3  4  1  0
  4  5  2  0
  5  6  1  0
  7  6  2  0
  9  1  1  0
 10  1  1  0
 11 10  1  0
 12 11  1  0
 13 12  1  0
 13 11  1  0
 14 13  1  0
 15 16  1  0
 15 14  1  0
 16 14  1  0
  3 17  1  0
  4 18  1  0
  6 19  1  0
  8 20  1  0
  8 21  1  0
  8 22  1  0
  9 23  1  0
  9 24  1  0
  9 25  1  0
 10 26  1  0
 10 27  1  0
 11 28  1  6
 12 29  1  0
 12 30  1  0
 13 31  1  6
 14 32  1  0
 15 33  1  0
 15 34  1  0
 16 35  1  0
 16 36  1  0
M  ISO  8  17  14  18  14  19  14  20   8  21   8  22   8  23   8  24   8
M  ISO  8  25   8  26   8  27   8  28  13  29  13  30  13  31  13  32  13
M  ISO  4  33  13  34  13  35  13  36  13
M  END
>  <minimizedAffinity>  (1) 
-4.50442266

>  <minimizedRMSD>  (1) 
1.20066178

$$$$
