
     RDKit          3D

 41 43  0  0  1  0  0  0  0  0999 V2000
   48.9000   34.5480   41.8710 C   0  0  0  0  0  0  0  0  0  0  0  0
   47.7910   34.3150   42.8200 C   0  0  0  0  0  0  0  0  0  0  0  0
   46.7140   35.1850   42.6400 C   0  0  0  0  0  0  0  0  0  0  0  0
   45.5820   35.0690   43.4590 C   0  0  0  0  0  0  0  0  0  0  0  0
   45.6100   34.0840   44.4070 N   0  0  0  0  0  0  0  0  0  0  0  0
   46.6590   33.2520   44.5700 C   0  0  0  0  0  0  0  0  0  0  0  0
   47.7150   33.3830   43.7820 N   0  0  0  0  0  0  0  0  0  0  0  0
   50.2200   34.2130   42.5210 C   0  0  0  0  0  0  0  0  0  0  0  0
   48.9960   35.9220   41.3600 C   0  0  0  0  0  0  0  0  0  0  0  0
   48.6890   33.6190   40.6910 C   0  0  0  0  0  0  0  0  0  0  0  0
   48.0160   34.2320   39.5250 C   0  0  2  0  0  0  0  0  0  0  0  0
   46.8440   33.6610   38.8790 C   0  0  0  0  0  0  0  0  0  0  0  0
   48.2010   33.6080   38.1610 C   0  0  2  0  0  0  0  0  0  0  0  0
   48.7250   32.2990   38.1130 N   0  0  0  0  0  0  0  0  0  0  0  0
   47.9190   31.3640   37.4320 C   0  0  0  0  0  0  0  0  0  0  0  0
   48.7910   30.1370   37.1890 C   0  0  0  0  0  0  0  0  0  0  0  0
   50.1710   30.7070   37.1960 C   0  0  0  0  0  0  0  0  0  0  0  0
   50.0820   32.1030   37.7850 C   0  0  0  0  0  0  0  0  0  0  0  0
   46.7534   35.9584   41.8587 H   0  0  0  0  0  0  0  0  0  0  0  0
   44.7152   35.7366   43.3447 H   0  0  0  0  0  0  0  0  0  0  0  0
   46.6375   32.4744   45.3478 H   0  0  0  0  0  0  0  0  0  0  0  0
   50.1077   34.2415   43.6149 H   0  0  0  0  0  0  0  0  0  0  0  0
   50.5363   33.2061   42.2110 H   0  0  0  0  0  0  0  0  0  0  0  0
   50.9782   34.9472   42.2110 H   0  0  0  0  0  0  0  0  0  0  0  0
   49.0451   36.6248   42.2048 H   0  0  0  0  0  0  0  0  0  0  0  0
   49.9033   36.0224   40.7463 H   0  0  0  0  0  0  0  0  0  0  0  0
   48.1114   36.1476   40.7463 H   0  0  0  0  0  0  0  0  0  0  0  0
   49.6737   33.2541   40.3637 H   0  0  0  0  0  0  0  0  0  0  0  0
   48.0223   32.8189   41.0451 H   0  0  0  0  0  0  0  0  0  0  0  0
   48.2004   35.2180   39.9763 H   0  0  0  0  0  0  0  0  0  0  0  0
   46.3960   32.7371   39.2736 H   0  0  0  0  0  0  0  0  0  0  0  0
   45.8439   34.0371   38.6174 H   0  0  0  0  0  0  0  0  0  0  0  0
   48.6498   33.9479   37.2160 H   0  0  0  0  0  0  0  0  0  0  0  0
   47.0471   31.0950   38.0464 H   0  0  0  0  0  0  0  0  0  0  0  0
   47.5423   31.7783   36.4852 H   0  0  0  0  0  0  0  0  0  0  0  0
   48.5592   29.6716   36.2196 H   0  0  0  0  0  0  0  0  0  0  0  0
   48.6436   29.3425   37.9354 H   0  0  0  0  0  0  0  0  0  0  0  0
   50.8335   30.0807   37.8115 H   0  0  0  0  0  0  0  0  0  0  0  0
   50.5826   30.7409   36.1765 H   0  0  0  0  0  0  0  0  0  0  0  0
   50.7081   32.1785   38.6863 H   0  0  0  0  0  0  0  0  0  0  0  0
   50.4397   32.8638   37.0756 H   0  0  0  0  0  0  0  0  0  0  0  0
  1  8  1  0
  1  2  1  0
  2  7  1  0
  3  2  2  0
  3  4  1  0
  4  5  2  0
  5  6  1  0
  7  6  2  0
  9  1  1  0
 10  1  1  0
 11 10  1  0
 12 11  1  0
 13 12  1  0
 13 11  1  0
 14 15  1  0
 14 13  1  0
 16 17  1  0
 16 15  1  0
 17 18  1  0
 18 14  1  0
  3 19  1  0
  4 20  1  0
  6 21  1  0
  8 22  1  0
  8 23  1  0
  8 24  1  0
  9 25  1  0
  9 26  1  0
  9 27  1  0
 10 28  1  0
 10 29  1  0
 11 30  1  6
 12 31  1  0
 12 32  1  0
 13 33  1  6
 15 34  1  0
 15 35  1  0
 16 36  1  0
 16 37  1  0
 17 38  1  0
 17 39  1  0
 18 40  1  0
 18 41  1  0
M  ISO  8  19  14  20  14  21  14  22   8  23   8  24   8  25   8  26   8
M  ISO  8  27   8  28   8  29   8  30  13  31  13  32  13  33  13  34  13
M  ISO  7  35  13  36  13  37  13  38  13  39  13  40  13  41  13
M  END
>  <minimizedAffinity>  (1) 
-4.46707726

>  <minimizedRMSD>  (1) 
1.10469782

$$$$
