
     RDKit          3D

 32 33  0  0  1  0  0  0  0  0999 V2000
   48.8580   34.5140   41.8210 C   0  0  0  0  0  0  0  0  0  0  0  0
   47.7600   34.3120   42.7760 C   0  0  0  0  0  0  0  0  0  0  0  0
   46.6930   35.1870   42.6060 C   0  0  0  0  0  0  0  0  0  0  0  0
   45.5800   35.0920   43.4790 C   0  0  0  0  0  0  0  0  0  0  0  0
   45.6300   34.1290   44.4460 N   0  0  0  0  0  0  0  0  0  0  0  0
   46.6790   33.3020   44.5790 C   0  0  0  0  0  0  0  0  0  0  0  0
   47.7040   33.4060   43.7570 N   0  0  0  0  0  0  0  0  0  0  0  0
   50.1910   34.1840   42.4640 C   0  0  0  0  0  0  0  0  0  0  0  0
   48.9690   35.9030   41.3030 C   0  0  0  0  0  0  0  0  0  0  0  0
   48.6240   33.5700   40.6600 C   0  0  0  0  0  0  0  0  0  0  0  0
   47.9220   34.2240   39.5130 C   0  0  2  0  0  0  0  0  0  0  0  0
   46.9800   33.5340   38.6220 C   0  0  0  0  0  0  0  0  0  0  0  0
   48.3820   33.8430   38.1320 C   0  0  2  0  0  0  0  0  0  0  0  0
   49.1910   32.6050   37.8640 C   0  0  0  0  0  0  0  0  0  0  0  0
   46.7121   35.9418   41.8060 H   0  0  0  0  0  0  0  0  0  0  0  0
   44.7146   35.7641   43.3818 H   0  0  0  0  0  0  0  0  0  0  0  0
   46.6831   32.5396   45.3719 H   0  0  0  0  0  0  0  0  0  0  0  0
   50.0864   34.2099   43.5587 H   0  0  0  0  0  0  0  0  0  0  0  0
   50.5110   33.1795   42.1499 H   0  0  0  0  0  0  0  0  0  0  0  0
   50.9426   34.9232   42.1499 H   0  0  0  0  0  0  0  0  0  0  0  0
   49.0252   36.6058   42.1473 H   0  0  0  0  0  0  0  0  0  0  0  0
   49.8773   35.9939   40.6892 H   0  0  0  0  0  0  0  0  0  0  0  0
   48.0867   36.1370   40.6892 H   0  0  0  0  0  0  0  0  0  0  0  0
   49.5973   33.1964   40.3093 H   0  0  0  0  0  0  0  0  0  0  0  0
   47.9796   32.7548   41.0210 H   0  0  0  0  0  0  0  0  0  0  0  0
   47.8163   35.1409   40.1115 H   0  0  0  0  0  0  0  0  0  0  0  0
   46.6886   32.4941   38.8310 H   0  0  0  0  0  0  0  0  0  0  0  0
   45.9658   33.7460   38.2527 H   0  0  0  0  0  0  0  0  0  0  0  0
   48.8942   34.4163   37.3452 H   0  0  0  0  0  0  0  0  0  0  0  0
   49.4895   32.1482   38.8191 H   0  0  0  0  0  0  0  0  0  0  0  0
   48.5859   31.8891   37.2884 H   0  0  0  0  0  0  0  0  0  0  0  0
   50.0896   32.8717   37.2884 H   0  0  0  0  0  0  0  0  0  0  0  0
  1  8  1  0
  1  2  1  0
  2  7  1  0
  3  2  2  0
  3  4  1  0
  4  5  2  0
  5  6  1  0
  7  6  2  0
  9  1  1  0
 10  1  1  0
 11 10  1  0
 12 11  1  0
 13 12  1  0
 13 11  1  0
 14 13  1  0
  3 15  1  0
  4 16  1  0
  6 17  1  0
  8 18  1  0
  8 19  1  0
  8 20  1  0
  9 21  1  0
  9 22  1  0
  9 23  1  0
 10 24  1  0
 10 25  1  0
 11 26  1  1
 12 27  1  0
 12 28  1  0
 13 29  1  6
 14 30  1  0
 14 31  1  0
 14 32  1  0
M  ISO  8  15  14  16  14  17  14  18   8  19   8  20   8  21   8  22   8
M  ISO  8  23   8  24   8  25   8  26  13  27  13  28  13  29  13  30   8
M  ISO  2  31   8  32   8
M  END
>  <minimizedAffinity>  (1) 
-4.39737272

>  <minimizedRMSD>  (1) 
0.231916323

$$$$
