
     RDKit          3D

 31 32  0  0  1  0  0  0  0  0999 V2000
   48.8700   34.5530   41.8800 C   0  0  0  0  0  0  0  0  0  0  0  0
   47.7560   34.3370   42.8190 C   0  0  0  0  0  0  0  0  0  0  0  0
   46.6860   35.2030   42.6270 C   0  0  0  0  0  0  0  0  0  0  0  0
   45.5600   35.0890   43.4850 C   0  0  0  0  0  0  0  0  0  0  0  0
   45.6050   34.1250   44.4490 N   0  0  0  0  0  0  0  0  0  0  0  0
   46.6570   33.3080   44.6010 C   0  0  0  0  0  0  0  0  0  0  0  0
   47.7010   33.4250   43.7970 N   0  0  0  0  0  0  0  0  0  0  0  0
   50.1990   34.2410   42.5380 C   0  0  0  0  0  0  0  0  0  0  0  0
   48.9710   35.9350   41.3480 C   0  0  0  0  0  0  0  0  0  0  0  0
   48.6660   33.5960   40.7250 C   0  0  0  0  0  0  0  0  0  0  0  0
   48.0340   34.2370   39.5320 C   0  0  2  0  0  0  0  0  0  0  0  0
   46.9480   33.5910   38.7840 C   0  0  0  0  0  0  0  0  0  0  0  0
   48.3420   33.6430   38.1820 C   0  0  2  0  0  0  0  0  0  0  0  0
   49.1680   32.4360   38.1350 C   0  0  0  0  0  0  0  0  0  0  0  0
   50.2130   32.2550   37.5620 O   0  0  0  0  0  0  0  0  0  0  0  0
   46.7107   35.9594   41.8287 H   0  0  0  0  0  0  0  0  0  0  0  0
   44.6879   35.7506   43.3767 H   0  0  0  0  0  0  0  0  0  0  0  0
   46.6521   32.5431   45.3915 H   0  0  0  0  0  0  0  0  0  0  0  0
   50.0822   34.2684   43.6314 H   0  0  0  0  0  0  0  0  0  0  0  0
   50.5345   33.2397   42.2301 H   0  0  0  0  0  0  0  0  0  0  0  0
   50.9450   34.9884   42.2301 H   0  0  0  0  0  0  0  0  0  0  0  0
   49.0230   36.6471   42.1848 H   0  0  0  0  0  0  0  0  0  0  0  0
   49.8782   36.0256   40.7325 H   0  0  0  0  0  0  0  0  0  0  0  0
   48.0866   36.1565   40.7325 H   0  0  0  0  0  0  0  0  0  0  0  0
   49.6456   33.1937   40.4275 H   0  0  0  0  0  0  0  0  0  0  0  0
   47.9825   32.8070   41.0719 H   0  0  0  0  0  0  0  0  0  0  0  0
   48.1218   35.2252   40.0070 H   0  0  0  0  0  0  0  0  0  0  0  0
   46.5365   32.6323   39.1326 H   0  0  0  0  0  0  0  0  0  0  0  0
   45.9473   33.9010   38.4485 H   0  0  0  0  0  0  0  0  0  0  0  0
   48.7637   33.9946   37.2288 H   0  0  0  0  0  0  0  0  0  0  0  0
   48.7821   31.5751   38.7006 H   0  0  0  0  0  0  0  0  0  0  0  0
  1  8  1  0
  1  2  1  0
  2  7  1  0
  3  2  2  0
  3  4  1  0
  4  5  2  0
  5  6  1  0
  7  6  2  0
  9  1  1  0
 10  1  1  0
 11 10  1  0
 12 11  1  0
 13 12  1  0
 13 11  1  0
 14 13  1  0
 15 14  2  0
  3 16  1  0
  4 17  1  0
  6 18  1  0
  8 19  1  0
  8 20  1  0
  8 21  1  0
  9 22  1  0
  9 23  1  0
  9 24  1  0
 10 25  1  0
 10 26  1  0
 11 27  1  6
 12 28  1  0
 12 29  1  0
 13 30  1  6
 14 31  1  0
M  ISO  8  16  14  17  14  18  14  19   8  20   8  21   8  22   8  23   8
M  ISO  8  24   8  25   8  26   8  27  13  28  13  29  13  30  13  31   6
M  END
>  <minimizedAffinity>  (1) 
-4.35696316

>  <minimizedRMSD>  (1) 
0.423087627

$$$$
