
     RDKit          3D

 45 48  0  0  1  0  0  0  0  0999 V2000
   47.1490   34.4490   43.3580 C   0  0  0  0  0  0  0  0  0  0  0  0
   46.6630   33.2200   44.1180 C   0  0  2  0  0  0  0  0  0  0  0  0
   45.2440   32.8660   44.1670 C   0  0  0  0  0  0  0  0  0  0  0  0
   45.9320   33.5150   45.3500 C   0  0  1  0  0  0  0  0  0  0  0  0
   45.8920   32.7740   46.5550 N   0  0  0  0  0  0  0  0  0  0  0  0
   45.1630   33.0240   47.6640 N   0  0  0  0  0  0  0  0  0  0  0  0
   45.4040   32.0340   48.5670 C   0  0  0  0  0  0  0  0  0  0  0  0
   46.2840   31.2040   47.9630 C   0  0  0  0  0  0  0  0  0  0  0  0
   46.5960   31.6970   46.6680 C   0  0  0  0  0  0  0  0  0  0  0  0
   47.5830   30.7730   46.1390 C   0  0  0  0  0  0  0  0  0  0  0  0
   48.4470   29.9770   46.8480 C   0  0  0  0  0  0  0  0  0  0  0  0
   49.3040   28.9700   46.5080 C   0  0  0  0  0  0  0  0  0  0  0  0
   49.3000   28.6930   45.1630 C   0  0  0  0  0  0  0  0  0  0  0  0
   48.4790   29.4190   44.3650 C   0  0  0  0  0  0  0  0  0  0  0  0
   47.7190   30.3590   44.8870 N   0  0  0  0  0  0  0  0  0  0  0  0
   47.3390   34.1280   41.8880 C   0  0  0  0  0  0  0  0  0  0  0  0
   46.0220   34.2300   41.2560 C   0  0  0  0  0  0  0  0  0  0  0  0
   45.8510   33.3250   40.2070 C   0  0  0  0  0  0  0  0  0  0  0  0
   44.6100   33.3350   39.5150 C   0  0  0  0  0  0  0  0  0  0  0  0
   43.6630   34.2440   39.9350 N   0  0  0  0  0  0  0  0  0  0  0  0
   43.8770   35.0940   40.9510 C   0  0  0  0  0  0  0  0  0  0  0  0
   45.0330   35.0810   41.5920 N   0  0  0  0  0  0  0  0  0  0  0  0
   48.2940   35.1430   41.2850 C   0  0  0  0  0  0  0  0  0  0  0  0
   48.0000   32.8030   41.7590 C   0  0  0  0  0  0  0  0  0  0  0  0
   46.4058   35.2536   43.4590 H   0  0  0  0  0  0  0  0  0  0  0  0
   48.1143   34.7670   43.7788 H   0  0  0  0  0  0  0  0  0  0  0  0
   47.5464   32.6320   43.8283 H   0  0  0  0  0  0  0  0  0  0  0  0
   44.5115   33.4329   43.5736 H   0  0  0  0  0  0  0  0  0  0  0  0
   44.6579   31.9492   44.0061 H   0  0  0  0  0  0  0  0  0  0  0  0
   45.9183   34.4292   45.9616 H   0  0  0  0  0  0  0  0  0  0  0  0
   44.9740   31.9312   49.5742 H   0  0  0  0  0  0  0  0  0  0  0  0
   46.6960   30.2859   48.4073 H   0  0  0  0  0  0  0  0  0  0  0  0
   48.4498   30.1985   47.9255 H   0  0  0  0  0  0  0  0  0  0  0  0
   49.9325   28.4360   47.2359 H   0  0  0  0  0  0  0  0  0  0  0  0
   49.9441   27.9051   44.7453 H   0  0  0  0  0  0  0  0  0  0  0  0
   48.4478   29.2231   43.2830 H   0  0  0  0  0  0  0  0  0  0  0  0
   46.6520   32.6259   39.9249 H   0  0  0  0  0  0  0  0  0  0  0  0
   44.4135   32.6467   38.6798 H   0  0  0  0  0  0  0  0  0  0  0  0
   43.0902   35.8019   41.2506 H   0  0  0  0  0  0  0  0  0  0  0  0
   48.8068   35.6880   42.0912 H   0  0  0  0  0  0  0  0  0  0  0  0
   49.0376   34.6227   40.6635 H   0  0  0  0  0  0  0  0  0  0  0  0
   47.7294   35.8536   40.6635 H   0  0  0  0  0  0  0  0  0  0  0  0
   48.2032   32.3956   42.7604 H   0  0  0  0  0  0  0  0  0  0  0  0
   47.3393   32.1155   41.2106 H   0  0  0  0  0  0  0  0  0  0  0  0
   48.9467   32.9173   41.2106 H   0  0  0  0  0  0  0  0  0  0  0  0
  1  2  1  0
  2  3  1  0
  2  4  1  0
  3  4  1  0
  4  5  1  0
  5  9  1  0
  5  6  1  0
  6  7  2  0
  8  7  1  0
  9  8  2  0
 10  9  1  0
 10 11  2  0
 12 11  1  0
 13 12  2  0
 14 15  2  0
 14 13  1  0
 15 10  1  0
 16  1  1  0
 17 22  1  0
 17 16  1  0
 18 17  2  0
 19 20  2  0
 19 18  1  0
 20 21  1  0
 21 22  2  0
 23 16  1  0
 24 16  1  0
  1 25  1  0
  1 26  1  0
  2 27  1  1
  3 28  1  0
  3 29  1  0
  4 30  1  1
  7 31  1  0
  8 32  1  0
 11 33  1  0
 12 34  1  0
 13 35  1  0
 14 36  1  0
 18 37  1  0
 19 38  1  0
 21 39  1  0
 23 40  1  0
 23 41  1  0
 23 42  1  0
 24 43  1  0
 24 44  1  0
 24 45  1  0
M  ISO  8  25   8  26   8  27  13  28  13  29  13  30  13  31  14  32  14
M  ISO  8  33  14  34  14  35  14  36  14  37  14  38  14  39  14  40   8
M  ISO  5  41   8  42   8  43   8  44   8  45   8
M  END
>  <minimizedAffinity>  (1) 
-4.82806444

>  <minimizedRMSD>  (1) 
1.3717469

$$$$
