
     RDKit          3D

 39 41  0  0  1  0  0  0  0  0999 V2000
   46.0300   30.9930   46.9630 C   0  0  2  0  0  0  0  0  0  0  0  0
   44.7280   34.9180   45.8940 C   0  0  0  0  0  0  0  0  0  0  0  0
   44.5490   35.6370   44.7190 C   0  0  0  0  0  0  0  0  0  0  0  0
   45.1450   35.1410   43.5430 C   0  0  0  0  0  0  0  0  0  0  0  0
   45.8560   33.9990   43.6110 N   0  0  0  0  0  0  0  0  0  0  0  0
   46.0220   33.3030   44.7760 C   0  0  0  0  0  0  0  0  0  0  0  0
   45.4530   33.7790   45.8930 N   0  0  0  0  0  0  0  0  0  0  0  0
   46.7650   32.1120   44.8730 N   0  0  0  0  0  0  0  0  0  0  0  0
   47.6430   31.8870   43.8550 C   0  0  0  0  0  0  0  0  0  0  0  0
   48.2660   30.6630   44.1780 C   0  0  0  0  0  0  0  0  0  0  0  0
   47.7460   30.2090   45.3560 N   0  0  0  0  0  0  0  0  0  0  0  0
   46.8350   31.1100   45.7570 C   0  0  0  0  0  0  0  0  0  0  0  0
   46.8020   31.7690   48.0710 C   0  0  0  0  0  0  0  0  0  0  0  0
   45.9120   29.5770   47.4220 C   0  0  0  0  0  0  0  0  0  0  0  0
   44.8770   28.8470   46.7810 N   0  0  0  0  0  0  0  0  0  0  0  0
   44.1170   29.2980   45.7830 N   0  0  0  0  0  0  0  0  0  0  0  0
   43.2460   28.3210   45.4390 C   0  0  0  0  0  0  0  0  0  0  0  0
   43.4580   27.2090   46.2450 C   0  0  0  0  0  0  0  0  0  0  0  0
   44.4990   27.5740   47.0860 C   0  0  0  0  0  0  0  0  0  0  0  0
   45.1230   26.7620   48.1430 C   0  0  0  0  0  0  0  0  0  0  0  0
   44.1420   26.1940   49.1360 C   0  0  0  0  0  0  0  0  0  0  0  0
   45.0189   31.3783   46.7652 H   0  0  0  0  0  0  0  0  0  0  0  0
   44.2767   35.2785   46.8302 H   0  0  0  0  0  0  0  0  0  0  0  0
   43.9596   36.5657   44.7072 H   0  0  0  0  0  0  0  0  0  0  0  0
   45.0320   35.6756   42.5883 H   0  0  0  0  0  0  0  0  0  0  0  0
   47.8258   32.5207   42.9747 H   0  0  0  0  0  0  0  0  0  0  0  0
   49.0405   30.1592   43.5811 H   0  0  0  0  0  0  0  0  0  0  0  0
   46.4634   31.4286   49.0607 H   0  0  0  0  0  0  0  0  0  0  0  0
   47.8806   31.5798   47.9674 H   0  0  0  0  0  0  0  0  0  0  0  0
   46.6072   32.8466   47.9674 H   0  0  0  0  0  0  0  0  0  0  0  0
   46.8673   29.0686   47.2247 H   0  0  0  0  0  0  0  0  0  0  0  0
   45.6628   29.6091   48.4929 H   0  0  0  0  0  0  0  0  0  0  0  0
   42.4883   28.3955   44.6451 H   0  0  0  0  0  0  0  0  0  0  0  0
   42.9190   26.2504   46.2213 H   0  0  0  0  0  0  0  0  0  0  0  0
   45.6577   25.9264   47.6677 H   0  0  0  0  0  0  0  0  0  0  0  0
   45.7946   27.4290   48.7034 H   0  0  0  0  0  0  0  0  0  0  0  0
   44.4947   26.3982   50.1577 H   0  0  0  0  0  0  0  0  0  0  0  0
   43.1576   26.6619   48.9876 H   0  0  0  0  0  0  0  0  0  0  0  0
   44.0577   25.1073   48.9876 H   0  0  0  0  0  0  0  0  0  0  0  0
  1 14  1  0
  1 13  1  0
  3  2  2  0
  4  5  2  0
  4  3  1  0
  5  6  1  0
  6  8  1  0
  6  7  2  0
  7  2  1  0
  8 12  1  0
  9 10  2  0
  9  8  1  0
 10 11  1  0
 11 12  2  0
 12  1  1  0
 15 19  1  0
 15 14  1  0
 16 15  1  0
 17 16  2  0
 17 18  1  0
 18 19  2  0
 19 20  1  0
 20 21  1  0
  1 22  1  6
  2 23  1  0
  3 24  1  0
  4 25  1  0
  9 26  1  0
 10 27  1  0
 13 28  1  0
 13 29  1  0
 13 30  1  0
 14 31  1  0
 14 32  1  0
 17 33  1  0
 18 34  1  0
 20 35  1  0
 20 36  1  0
 21 37  1  0
 21 38  1  0
 21 39  1  0
M  ISO  8  22   8  23  14  24  14  25  14  26  14  27  14  28   8  29   8
M  ISO  8  30   8  31   8  32   8  33  14  34  14  35   8  36   8  37   8
M  ISO  2  38   8  39   8
M  END
>  <minimizedAffinity>  (1) 
-4.43938303

>  <minimizedRMSD>  (1) 
0.785523832

$$$$
