
     RDKit          3D

 37 39  0  0  1  0  0  0  0  0999 V2000
   47.1550   34.4750   43.3140 C   0  0  0  0  0  0  0  0  0  0  0  0
   46.7030   33.3000   44.1230 C   0  0  2  0  0  0  0  0  0  0  0  0
   45.2820   32.8920   44.1950 C   0  0  0  0  0  0  0  0  0  0  0  0
   45.9330   33.6230   45.3720 C   0  0  1  0  0  0  0  0  0  0  0  0
   45.9760   32.8090   46.5590 N   0  0  0  0  0  0  0  0  0  0  0  0
   45.2550   32.9370   47.6600 N   0  0  0  0  0  0  0  0  0  0  0  0
   45.5890   31.9780   48.5500 C   0  0  0  0  0  0  0  0  0  0  0  0
   46.5680   31.2320   47.9440 C   0  0  0  0  0  0  0  0  0  0  0  0
   46.7950   31.7710   46.6950 C   0  0  0  0  0  0  0  0  0  0  0  0
   47.7440   31.1920   45.8830 O   0  0  0  0  0  0  0  0  0  0  0  0
   47.3240   34.1360   41.8430 C   0  0  0  0  0  0  0  0  0  0  0  0
   46.0040   34.2360   41.2190 C   0  0  0  0  0  0  0  0  0  0  0  0
   45.8090   33.3470   40.1820 C   0  0  0  0  0  0  0  0  0  0  0  0
   44.5570   33.3570   39.5030 C   0  0  0  0  0  0  0  0  0  0  0  0
   43.6220   34.2490   39.9210 N   0  0  0  0  0  0  0  0  0  0  0  0
   43.8460   35.1000   40.9360 C   0  0  0  0  0  0  0  0  0  0  0  0
   45.0140   35.0690   41.5470 N   0  0  0  0  0  0  0  0  0  0  0  0
   48.2730   35.1540   41.2260 C   0  0  0  0  0  0  0  0  0  0  0  0
   47.9840   32.8190   41.7280 C   0  0  0  0  0  0  0  0  0  0  0  0
   46.4078   35.2768   43.4080 H   0  0  0  0  0  0  0  0  0  0  0  0
   48.1357   34.7900   43.6999 H   0  0  0  0  0  0  0  0  0  0  0  0
   47.6111   32.7379   43.8597 H   0  0  0  0  0  0  0  0  0  0  0  0
   44.5302   33.4043   43.5767 H   0  0  0  0  0  0  0  0  0  0  0  0
   44.7366   31.9447   44.0721 H   0  0  0  0  0  0  0  0  0  0  0  0
   45.8461   34.5563   45.9477 H   0  0  0  0  0  0  0  0  0  0  0  0
   45.1641   31.8263   49.5532 H   0  0  0  0  0  0  0  0  0  0  0  0
   47.0802   30.3600   48.3768 H   0  0  0  0  0  0  0  0  0  0  0  0
   48.2500   30.4018   46.1986 H   0  0  0  0  0  0  0  0  0  0  0  0
   46.6032   32.6458   39.8861 H   0  0  0  0  0  0  0  0  0  0  0  0
   44.3547   32.6673   38.6703 H   0  0  0  0  0  0  0  0  0  0  0  0
   43.0682   35.8107   41.2520 H   0  0  0  0  0  0  0  0  0  0  0  0
   48.7882   35.7066   42.0255 H   0  0  0  0  0  0  0  0  0  0  0  0
   49.0152   34.6330   40.6033 H   0  0  0  0  0  0  0  0  0  0  0  0
   47.7013   35.8579   40.6033 H   0  0  0  0  0  0  0  0  0  0  0  0
   48.1839   32.4200   42.7334 H   0  0  0  0  0  0  0  0  0  0  0  0
   47.3267   32.1259   41.1825 H   0  0  0  0  0  0  0  0  0  0  0  0
   48.9327   32.9307   41.1825 H   0  0  0  0  0  0  0  0  0  0  0  0
  1  2  1  0
  2  3  1  0
  2  4  1  0
  3  4  1  0
  4  5  1  0
  5  9  1  0
  5  6  1  0
  6  7  2  0
  8  7  1  0
  9  8  2  0
 10  9  1  0
 11  1  1  0
 12 17  1  0
 12 11  1  0
 13 12  2  0
 14 15  2  0
 14 13  1  0
 15 16  1  0
 16 17  2  0
 18 11  1  0
 19 11  1  0
  1 20  1  0
  1 21  1  0
  2 22  1  1
  3 23  1  0
  3 24  1  0
  4 25  1  1
  7 26  1  0
  8 27  1  0
 10 28  1  0
 13 29  1  0
 14 30  1  0
 16 31  1  0
 18 32  1  0
 18 33  1  0
 18 34  1  0
 19 35  1  0
 19 36  1  0
 19 37  1  0
M  ISO  8  20   8  21   8  22  13  23  13  24  13  25  13  26  14  27  14
M  ISO  8  28   3  29  14  30  14  31  14  32   8  33   8  34   8  35   8
M  ISO  2  36   8  37   8
M  END
>  <minimizedAffinity>  (1) 
-4.50055361

>  <minimizedRMSD>  (1) 
0.431194723

$$$$
