
     RDKit          3D

 52 56  0  0  1  0  0  0  0  0999 V2000
   46.6900   34.0870   41.9640 C   0  0  1  0  0  0  0  0  0  0  0  0
   45.3820   34.3940   41.4210 C   0  0  0  0  0  0  0  0  0  0  0  0
   44.9610   33.5670   40.4200 C   0  0  0  0  0  0  0  0  0  0  0  0
   43.6810   33.8050   39.8340 C   0  0  0  0  0  0  0  0  0  0  0  0
   42.9520   34.8470   40.3090 N   0  0  0  0  0  0  0  0  0  0  0  0
   43.3970   35.6390   41.2930 C   0  0  0  0  0  0  0  0  0  0  0  0
   44.5880   35.3890   41.8130 N   0  0  0  0  0  0  0  0  0  0  0  0
   47.7950   34.7730   41.1660 C   0  0  0  0  0  0  0  0  0  0  0  0
   46.7580   34.6040   43.3850 C   0  0  0  0  0  0  0  0  0  0  0  0
   45.7790   33.9000   44.3000 C   0  0  2  0  0  0  0  0  0  0  0  0
   44.9940   34.6050   45.3250 C   0  0  0  0  0  0  0  0  0  0  0  0
   46.1870   33.7460   45.7090 C   0  0  1  0  0  0  0  0  0  0  0  0
   45.8450   32.6460   46.5620 N   0  0  0  0  0  0  0  0  0  0  0  0
   45.2040   32.6760   47.7200 N   0  0  0  0  0  0  0  0  0  0  0  0
   45.0820   31.4210   48.2050 C   0  0  0  0  0  0  0  0  0  0  0  0
   45.6830   30.6000   47.2840 C   0  0  0  0  0  0  0  0  0  0  0  0
   46.1590   31.3970   46.2530 C   0  0  0  0  0  0  0  0  0  0  0  0
   46.8260   30.7830   45.1790 N   0  0  0  0  0  0  0  0  0  0  0  0
   47.0560   32.6420   41.9920 C   0  0  0  0  0  0  0  0  0  0  0  0
   48.5060   32.4420   41.7360 C   0  0  0  0  0  0  0  0  0  0  0  0
   49.5340   32.7260   42.5230 N   0  0  0  0  0  0  0  0  0  0  0  0
   50.8240   32.6040   42.2820 C   0  0  0  0  0  0  0  0  0  0  0  0
   51.2370   32.1300   41.0880 N   0  0  0  0  0  0  0  0  0  0  0  0
   50.2880   31.8030   40.1960 C   0  0  0  0  0  0  0  0  0  0  0  0
   50.7530   31.3040   38.9990 C   0  0  0  0  0  0  0  0  0  0  0  0
   49.8290   30.9210   38.0320 C   0  0  0  0  0  0  0  0  0  0  0  0
   48.4770   31.0450   38.2860 C   0  0  0  0  0  0  0  0  0  0  0  0
   48.0950   31.5530   39.5070 C   0  0  0  0  0  0  0  0  0  0  0  0
   48.9560   31.9490   40.5010 C   0  0  0  0  0  0  0  0  0  0  0  0
   45.5932   32.7365   40.0729 H   0  0  0  0  0  0  0  0  0  0  0  0
   43.2984   33.1655   39.0248 H   0  0  0  0  0  0  0  0  0  0  0  0
   42.7870   36.4775   41.6603 H   0  0  0  0  0  0  0  0  0  0  0  0
   48.5213   35.2239   41.8582 H   0  0  0  0  0  0  0  0  0  0  0  0
   48.3038   34.0318   40.5323 H   0  0  0  0  0  0  0  0  0  0  0  0
   47.3564   35.5579   40.5323 H   0  0  0  0  0  0  0  0  0  0  0  0
   47.7766   34.4481   43.7698 H   0  0  0  0  0  0  0  0  0  0  0  0
   46.4941   35.6717   43.3676 H   0  0  0  0  0  0  0  0  0  0  0  0
   45.4724   33.2392   43.4758 H   0  0  0  0  0  0  0  0  0  0  0  0
   45.0519   35.7003   45.4090 H   0  0  0  0  0  0  0  0  0  0  0  0
   43.9322   34.6429   45.6097 H   0  0  0  0  0  0  0  0  0  0  0  0
   47.1797   33.8205   46.1769 H   0  0  0  0  0  0  0  0  0  0  0  0
   44.5994   31.1188   49.1462 H   0  0  0  0  0  0  0  0  0  0  0  0
   45.7715   29.5056   47.3512 H   0  0  0  0  0  0  0  0  0  0  0  0
   46.9495   29.7605   45.1663 H   0  0  0  0  0  0  0  0  0  0  0  0
   47.1913   31.3555   44.4046 H   0  0  0  0  0  0  0  0  0  0  0  0
   46.8075   32.2295   42.9810 H   0  0  0  0  0  0  0  0  0  0  0  0
   46.4918   32.1278   41.2000 H   0  0  0  0  0  0  0  0  0  0  0  0
   51.5595   32.8868   43.0495 H   0  0  0  0  0  0  0  0  0  0  0  0
   51.8329   31.2103   38.8117 H   0  0  0  0  0  0  0  0  0  0  0  0
   50.1743   30.5204   37.0675 H   0  0  0  0  0  0  0  0  0  0  0  0
   47.7292   30.7472   37.5363 H   0  0  0  0  0  0  0  0  0  0  0  0
   47.0166   31.6492   39.7016 H   0  0  0  0  0  0  0  0  0  0  0  0
  1  8  1  6
  1 19  1  0
  1  9  1  0
  2  7  1  0
  2  1  1  0
  3  2  2  0
  4  5  2  0
  4  3  1  0
  5  6  1  0
  6  7  2  0
  9 10  1  0
 10 11  1  0
 10 12  1  0
 11 12  1  0
 12 13  1  0
 13 14  1  0
 14 15  2  0
 16 15  1  0
 17 13  1  0
 17 16  2  0
 18 17  1  0
 20 19  1  0
 20 21  2  0
 22 21  1  0
 23 22  2  0
 24 29  2  0
 24 23  1  0
 25 24  1  0
 26 27  1  0
 26 25  2  0
 27 28  2  0
 28 29  1  0
 29 20  1  0
  3 30  1  0
  4 31  1  0
  6 32  1  0
  8 33  1  0
  8 34  1  0
  8 35  1  0
  9 36  1  0
  9 37  1  0
 10 38  1  6
 11 39  1  0
 11 40  1  0
 12 41  1  6
 15 42  1  0
 16 43  1  0
 18 44  1  0
 18 45  1  0
 19 46  1  0
 19 47  1  0
 22 48  1  0
 25 49  1  0
 26 50  1  0
 27 51  1  0
 28 52  1  0
M  ISO  8  30  14  31  14  32  14  33   8  34   8  35   8  36   8  37   8
M  ISO  8  38  13  39  13  40  13  41  13  42  14  43  14  46   8  47   8
M  ISO  5  48  14  49  14  50  14  51  14  52  14
M  END
>  <minimizedAffinity>  (1) 
-5.69507456

>  <minimizedRMSD>  (1) 
1.35717845

$$$$
