
     RDKit          3D

 54 58  0  0  1  0  0  0  0  0999 V2000
   47.1750   34.0970   41.7370 C   0  0  1  0  0  0  0  0  0  0  0  0
   45.7870   34.4300   41.3450 C   0  0  0  0  0  0  0  0  0  0  0  0
   45.2290   33.6530   40.3590 C   0  0  0  0  0  0  0  0  0  0  0  0
   43.8990   33.9430   39.9770 C   0  0  0  0  0  0  0  0  0  0  0  0
   43.2360   34.9470   40.5780 N   0  0  0  0  0  0  0  0  0  0  0  0
   43.8040   35.6880   41.5370 C   0  0  0  0  0  0  0  0  0  0  0  0
   45.0410   35.4090   41.8840 N   0  0  0  0  0  0  0  0  0  0  0  0
   48.1380   35.0360   41.0410 C   0  0  0  0  0  0  0  0  0  0  0  0
   47.2620   34.2910   43.2290 C   0  0  0  0  0  0  0  0  0  0  0  0
   46.6700   33.1180   43.9890 C   0  0  2  0  0  0  0  0  0  0  0  0
   45.2290   32.9860   44.2170 C   0  0  0  0  0  0  0  0  0  0  0  0
   46.1620   33.4270   45.3440 C   0  0  1  0  0  0  0  0  0  0  0  0
   46.1610   32.5290   46.4570 N   0  0  0  0  0  0  0  0  0  0  0  0
   45.5000   32.6320   47.5980 N   0  0  0  0  0  0  0  0  0  0  0  0
   45.7630   31.5770   48.3850 C   0  0  0  0  0  0  0  0  0  0  0  0
   46.6300   30.7980   47.6750 C   0  0  0  0  0  0  0  0  0  0  0  0
   46.8790   31.4140   46.4420 C   0  0  0  0  0  0  0  0  0  0  0  0
   47.7470   30.7970   45.5310 N   0  0  0  0  0  0  0  0  0  0  0  0
   47.5670   32.7250   41.3570 C   0  0  0  0  0  0  0  0  0  0  0  0
   48.9830   32.3730   41.3120 C   0  0  0  0  0  0  0  0  0  0  0  0
   49.9500   32.2740   42.2790 C   0  0  0  0  0  0  0  0  0  0  0  0
   51.2670   31.9250   42.1170 C   0  0  0  0  0  0  0  0  0  0  0  0
   51.6470   31.6450   40.8260 C   0  0  0  0  0  0  0  0  0  0  0  0
   50.7440   31.7170   39.7860 C   0  0  0  0  0  0  0  0  0  0  0  0
   51.2790   31.4160   38.5460 C   0  0  0  0  0  0  0  0  0  0  0  0
   50.4460   31.4770   37.4530 C   0  0  0  0  0  0  0  0  0  0  0  0
   49.1140   31.8310   37.6010 C   0  0  0  0  0  0  0  0  0  0  0  0
   48.6810   32.1100   38.8770 C   0  0  0  0  0  0  0  0  0  0  0  0
   49.4340   32.0760   40.0340 C   0  0  0  0  0  0  0  0  0  0  0  0
   45.7948   32.8372   39.8853 H   0  0  0  0  0  0  0  0  0  0  0  0
   43.4084   33.3498   39.1913 H   0  0  0  0  0  0  0  0  0  0  0  0
   43.2517   36.5070   42.0210 H   0  0  0  0  0  0  0  0  0  0  0  0
   48.7124   35.5961   41.7936 H   0  0  0  0  0  0  0  0  0  0  0  0
   48.8276   34.4539   40.4119 H   0  0  0  0  0  0  0  0  0  0  0  0
   47.5735   35.7400   40.4119 H   0  0  0  0  0  0  0  0  0  0  0  0
   48.3193   34.4007   43.5121 H   0  0  0  0  0  0  0  0  0  0  0  0
   46.6857   35.1910   43.4894 H   0  0  0  0  0  0  0  0  0  0  0  0
   47.3991   32.4243   43.5449 H   0  0  0  0  0  0  0  0  0  0  0  0
   44.5303   33.7055   43.7652 H   0  0  0  0  0  0  0  0  0  0  0  0
   44.4859   32.1858   44.0844 H   0  0  0  0  0  0  0  0  0  0  0  0
   46.3652   34.2805   46.0076 H   0  0  0  0  0  0  0  0  0  0  0  0
   45.3636   31.3813   49.3911 H   0  0  0  0  0  0  0  0  0  0  0  0
   47.0615   29.8449   48.0146 H   0  0  0  0  0  0  0  0  0  0  0  0
   48.1930   29.9002   45.7711 H   0  0  0  0  0  0  0  0  0  0  0  0
   47.9389   31.2404   44.6213 H   0  0  0  0  0  0  0  0  0  0  0  0
   47.0898   32.0439   42.0770 H   0  0  0  0  0  0  0  0  0  0  0  0
   47.2448   32.6431   40.3084 H   0  0  0  0  0  0  0  0  0  0  0  0
   49.6320   32.5015   43.3072 H   0  0  0  0  0  0  0  0  0  0  0  0
   51.9699   31.8729   42.9615 H   0  0  0  0  0  0  0  0  0  0  0  0
   52.6887   31.3587   40.6189 H   0  0  0  0  0  0  0  0  0  0  0  0
   52.3374   31.1366   38.4376 H   0  0  0  0  0  0  0  0  0  0  0  0
   50.8402   31.2429   36.4531 H   0  0  0  0  0  0  0  0  0  0  0  0
   48.4342   31.8864   36.7379 H   0  0  0  0  0  0  0  0  0  0  0  0
   47.6229   32.3898   38.9870 H   0  0  0  0  0  0  0  0  0  0  0  0
  1  8  1  6
  1  9  1  0
  2  1  1  0
  2  7  1  0
  3  2  2  0
  4  3  1  0
  4  5  2  0
  5  6  1  0
  6  7  2  0
  9 10  1  0
 10 11  1  0
 10 12  1  0
 11 12  1  0
 12 13  1  0
 13 14  1  0
 14 15  2  0
 16 15  1  0
 17 13  1  0
 17 16  2  0
 18 17  1  0
 19  1  1  0
 20 19  1  0
 20 21  2  0
 22 21  1  0
 23 22  2  0
 24 29  2  0
 24 23  1  0
 25 24  1  0
 26 27  1  0
 26 25  2  0
 27 28  2  0
 28 29  1  0
 29 20  1  0
  3 30  1  0
  4 31  1  0
  6 32  1  0
  8 33  1  0
  8 34  1  0
  8 35  1  0
  9 36  1  0
  9 37  1  0
 10 38  1  1
 11 39  1  0
 11 40  1  0
 12 41  1  1
 15 42  1  0
 16 43  1  0
 18 44  1  0
 18 45  1  0
 19 46  1  0
 19 47  1  0
 21 48  1  0
 22 49  1  0
 23 50  1  0
 25 51  1  0
 26 52  1  0
 27 53  1  0
 28 54  1  0
M  ISO  8  30  14  31  14  32  14  33   8  34   8  35   8  36   8  37   8
M  ISO  8  38  13  39  13  40  13  41  13  42  14  43  14  46   8  47   8
M  ISO  7  48  14  49  14  50  14  51  14  52  14  53  14  54  14
M  END
>  <minimizedAffinity>  (1) 
-5.56783056

>  <minimizedRMSD>  (1) 
0.752131462

$$$$
