
     RDKit          3D

 46 49  0  0  1  0  0  0  0  0999 V2000
   46.6850   34.0530   41.9690 C   0  0  1  0  0  0  0  0  0  0  0  0
   45.3830   34.3740   41.4250 C   0  0  0  0  0  0  0  0  0  0  0  0
   44.9610   33.5260   40.4210 C   0  0  0  0  0  0  0  0  0  0  0  0
   43.6830   33.7720   39.8440 C   0  0  0  0  0  0  0  0  0  0  0  0
   42.9470   34.8250   40.3100 N   0  0  0  0  0  0  0  0  0  0  0  0
   43.4010   35.6250   41.2910 C   0  0  0  0  0  0  0  0  0  0  0  0
   44.5890   35.3750   41.8100 N   0  0  0  0  0  0  0  0  0  0  0  0
   47.7720   34.7880   41.1570 C   0  0  0  0  0  0  0  0  0  0  0  0
   46.7760   34.5930   43.3810 C   0  0  0  0  0  0  0  0  0  0  0  0
   45.7840   33.9040   44.3040 C   0  0  2  0  0  0  0  0  0  0  0  0
   45.0010   34.5970   45.3180 C   0  0  0  0  0  0  0  0  0  0  0  0
   46.2070   33.7370   45.7150 C   0  0  1  0  0  0  0  0  0  0  0  0
   45.8450   32.6200   46.5420 N   0  0  0  0  0  0  0  0  0  0  0  0
   45.2480   32.6680   47.7290 N   0  0  0  0  0  0  0  0  0  0  0  0
   45.0790   31.3990   48.1850 C   0  0  0  0  0  0  0  0  0  0  0  0
   45.6030   30.5750   47.2210 C   0  0  0  0  0  0  0  0  0  0  0  0
   46.0820   31.3670   46.1890 C   0  0  0  0  0  0  0  0  0  0  0  0
   46.6630   30.7540   45.0860 N   0  0  0  0  0  0  0  0  0  0  0  0
   47.0580   32.6470   41.9680 C   0  0  0  0  0  0  0  0  0  0  0  0
   48.4100   32.3470   41.4790 C   0  0  0  0  0  0  0  0  0  0  0  0
   49.4570   32.3810   42.4220 C   0  0  0  0  0  0  0  0  0  0  0  0
   50.7900   32.1240   42.1730 C   0  0  0  0  0  0  0  0  0  0  0  0
   51.1460   31.8110   40.9140 N   0  0  0  0  0  0  0  0  0  0  0  0
   50.1820   31.7720   40.0060 C   0  0  0  0  0  0  0  0  0  0  0  0
   48.9250   32.0220   40.2870 N   0  0  0  0  0  0  0  0  0  0  0  0
   45.5894   32.6904   40.0791 H   0  0  0  0  0  0  0  0  0  0  0  0
   43.2962   33.1283   39.0403 H   0  0  0  0  0  0  0  0  0  0  0  0
   42.7958   36.4692   41.6531 H   0  0  0  0  0  0  0  0  0  0  0  0
   48.4824   35.2683   41.8459 H   0  0  0  0  0  0  0  0  0  0  0  0
   48.3073   34.0658   40.5231 H   0  0  0  0  0  0  0  0  0  0  0  0
   47.3012   35.5538   40.5231 H   0  0  0  0  0  0  0  0  0  0  0  0
   47.7943   34.4272   43.7625 H   0  0  0  0  0  0  0  0  0  0  0  0
   46.5378   35.6666   43.3568 H   0  0  0  0  0  0  0  0  0  0  0  0
   45.4653   33.2542   43.4756 H   0  0  0  0  0  0  0  0  0  0  0  0
   45.0531   35.6926   45.4020 H   0  0  0  0  0  0  0  0  0  0  0  0
   43.9377   34.6285   45.5979 H   0  0  0  0  0  0  0  0  0  0  0  0
   47.1964   33.8149   46.1894 H   0  0  0  0  0  0  0  0  0  0  0  0
   44.6157   31.0940   49.1349 H   0  0  0  0  0  0  0  0  0  0  0  0
   45.6371   29.4762   47.2603 H   0  0  0  0  0  0  0  0  0  0  0  0
   46.7331   29.7272   45.0449 H   0  0  0  0  0  0  0  0  0  0  0  0
   47.0236   31.3263   44.3093 H   0  0  0  0  0  0  0  0  0  0  0  0
   46.9823   32.2766   43.0010 H   0  0  0  0  0  0  0  0  0  0  0  0
   46.3691   32.1546   41.2659 H   0  0  0  0  0  0  0  0  0  0  0  0
   49.1854   32.6372   43.4567 H   0  0  0  0  0  0  0  0  0  0  0  0
   51.5376   32.1735   42.9784 H   0  0  0  0  0  0  0  0  0  0  0  0
   50.4476   31.5184   38.9691 H   0  0  0  0  0  0  0  0  0  0  0  0
  1  8  1  6
  1  9  1  0
  2  7  1  0
  2  1  1  0
  3  2  2  0
  4  5  2  0
  4  3  1  0
  5  6  1  0
  6  7  2  0
  9 10  1  0
 10 11  1  0
 10 12  1  0
 11 12  1  0
 12 13  1  0
 13 14  1  0
 14 15  2  0
 16 15  1  0
 17 13  1  0
 17 16  2  0
 18 17  1  0
 19  1  1  0
 20 19  1  0
 20 21  2  0
 22 21  1  0
 23 22  2  0
 24 25  2  0
 24 23  1  0
 25 20  1  0
  3 26  1  0
  4 27  1  0
  6 28  1  0
  8 29  1  0
  8 30  1  0
  8 31  1  0
  9 32  1  0
  9 33  1  0
 10 34  1  6
 11 35  1  0
 11 36  1  0
 12 37  1  6
 15 38  1  0
 16 39  1  0
 18 40  1  0
 18 41  1  0
 19 42  1  0
 19 43  1  0
 21 44  1  0
 22 45  1  0
 24 46  1  0
M  ISO  8  26  14  27  14  28  14  29   8  30   8  31   8  32   8  33   8
M  ISO  8  34  13  35  13  36  13  37  13  38  14  39  14  42   8  43   8
M  ISO  3  44  14  45  14  46  14
M  END
>  <minimizedAffinity>  (1) 
-5.25099564

>  <minimizedRMSD>  (1) 
1.02409077

$$$$
