
     RDKit          3D

 45 48  0  0  1  0  0  0  0  0999 V2000
   46.6630   34.0900   41.9130 C   0  0  1  0  0  0  0  0  0  0  0  0
   45.3410   34.4060   41.4000 C   0  0  0  0  0  0  0  0  0  0  0  0
   44.9330   33.5320   40.4070 C   0  0  0  0  0  0  0  0  0  0  0  0
   43.6350   33.7460   39.8480 C   0  0  0  0  0  0  0  0  0  0  0  0
   42.8870   34.7900   40.3230 N   0  0  0  0  0  0  0  0  0  0  0  0
   43.3390   35.6060   41.2900 C   0  0  0  0  0  0  0  0  0  0  0  0
   44.5450   35.3860   41.7910 N   0  0  0  0  0  0  0  0  0  0  0  0
   47.7340   34.8400   41.0930 C   0  0  0  0  0  0  0  0  0  0  0  0
   46.7760   34.6110   43.3340 C   0  0  0  0  0  0  0  0  0  0  0  0
   45.7840   33.9140   44.2540 C   0  0  2  0  0  0  0  0  0  0  0  0
   44.9990   34.6120   45.2700 C   0  0  0  0  0  0  0  0  0  0  0  0
   46.2120   33.7540   45.6610 C   0  0  1  0  0  0  0  0  0  0  0  0
   45.8540   32.6570   46.5100 N   0  0  0  0  0  0  0  0  0  0  0  0
   45.2580   32.6870   47.6900 N   0  0  0  0  0  0  0  0  0  0  0  0
   45.1010   31.4290   48.1570 C   0  0  0  0  0  0  0  0  0  0  0  0
   45.6340   30.6000   47.1990 C   0  0  0  0  0  0  0  0  0  0  0  0
   46.1040   31.4090   46.1690 C   0  0  0  0  0  0  0  0  0  0  0  0
   46.7020   30.7740   45.0650 N   0  0  0  0  0  0  0  0  0  0  0  0
   47.0800   32.6870   41.8940 C   0  0  0  0  0  0  0  0  0  0  0  0
   48.5570   32.6330   41.8780 C   0  0  0  0  0  0  0  0  0  0  0  0
   49.6990   33.0520   42.6070 C   0  0  0  0  0  0  0  0  0  0  0  0
   50.8930   32.6800   42.0720 C   0  0  0  0  0  0  0  0  0  0  0  0
   51.1270   31.9640   40.9330 C   0  0  0  0  0  0  0  0  0  0  0  0
   49.3190   31.7000   40.4170 S   0  0  0  0  0  0  0  0  0  0  0  0
   45.5785   32.7101   40.0637 H   0  0  0  0  0  0  0  0  0  0  0  0
   43.2467   33.0886   39.0561 H   0  0  0  0  0  0  0  0  0  0  0  0
   42.7209   36.4385   41.6575 H   0  0  0  0  0  0  0  0  0  0  0  0
   48.4398   35.3343   41.7768 H   0  0  0  0  0  0  0  0  0  0  0  0
   48.2780   34.1245   40.4589 H   0  0  0  0  0  0  0  0  0  0  0  0
   47.2476   35.5958   40.4589 H   0  0  0  0  0  0  0  0  0  0  0  0
   47.7964   34.4300   43.7029 H   0  0  0  0  0  0  0  0  0  0  0  0
   46.5515   35.6878   43.3300 H   0  0  0  0  0  0  0  0  0  0  0  0
   45.4644   33.2594   43.4298 H   0  0  0  0  0  0  0  0  0  0  0  0
   45.0485   35.7080   45.3501 H   0  0  0  0  0  0  0  0  0  0  0  0
   43.9370   34.6428   45.5548 H   0  0  0  0  0  0  0  0  0  0  0  0
   47.2086   33.8283   46.1207 H   0  0  0  0  0  0  0  0  0  0  0  0
   44.6404   31.1293   49.1099 H   0  0  0  0  0  0  0  0  0  0  0  0
   45.6804   29.5017   47.2391 H   0  0  0  0  0  0  0  0  0  0  0  0
   46.7781   29.7471   45.0405 H   0  0  0  0  0  0  0  0  0  0  0  0
   47.0636   31.3360   44.2813 H   0  0  0  0  0  0  0  0  0  0  0  0
   46.7004   32.1756   42.7909 H   0  0  0  0  0  0  0  0  0  0  0  0
   46.6765   32.1876   41.0008 H   0  0  0  0  0  0  0  0  0  0  0  0
   49.6247   33.6350   43.5368 H   0  0  0  0  0  0  0  0  0  0  0  0
   51.7866   32.9973   42.6295 H   0  0  0  0  0  0  0  0  0  0  0  0
   52.0675   31.6415   40.4623 H   0  0  0  0  0  0  0  0  0  0  0  0
  1  8  1  6
  1  9  1  0
  2  7  1  0
  2  1  1  0
  3  2  2  0
  4  5  2  0
  4  3  1  0
  5  6  1  0
  6  7  2  0
  9 10  1  0
 10 11  1  0
 10 12  1  0
 11 12  1  0
 12 13  1  0
 13 14  1  0
 14 15  2  0
 16 15  1  0
 17 13  1  0
 17 16  2  0
 18 17  1  0
 19  1  1  0
 20 19  1  0
 20 21  2  0
 22 21  1  0
 23 22  2  0
 24 23  1  0
 24 20  1  0
  3 25  1  0
  4 26  1  0
  6 27  1  0
  8 28  1  0
  8 29  1  0
  8 30  1  0
  9 31  1  0
  9 32  1  0
 10 33  1  6
 11 34  1  0
 11 35  1  0
 12 36  1  6
 15 37  1  0
 16 38  1  0
 18 39  1  0
 18 40  1  0
 19 41  1  0
 19 42  1  0
 21 43  1  0
 22 44  1  0
 23 45  1  0
M  ISO  8  25  14  26  14  27  14  28   8  29   8  30   8  31   8  32   8
M  ISO  8  33  13  34  13  35  13  36  13  37  14  38  14  41   8  42   8
M  ISO  3  43  14  44  14  45  14
M  END
>  <minimizedAffinity>  (1) 
-5.24368525

>  <minimizedRMSD>  (1) 
0.801162064

$$$$
