
     RDKit          3D

 45 48  0  0  1  0  0  0  0  0999 V2000
   47.1660   34.4780   43.3020 C   0  0  0  0  0  0  0  0  0  0  0  0
   46.6760   33.2690   44.0760 C   0  0  2  0  0  0  0  0  0  0  0  0
   45.2750   32.9020   44.1720 C   0  0  0  0  0  0  0  0  0  0  0  0
   45.9950   33.5680   45.3450 C   0  0  1  0  0  0  0  0  0  0  0  0
   46.0200   32.7400   46.5240 N   0  0  0  0  0  0  0  0  0  0  0  0
   45.3030   32.8770   47.6330 N   0  0  0  0  0  0  0  0  0  0  0  0
   45.6290   31.8850   48.4970 C   0  0  0  0  0  0  0  0  0  0  0  0
   46.5790   31.1410   47.8570 C   0  0  0  0  0  0  0  0  0  0  0  0
   46.8170   31.6910   46.6110 C   0  0  0  0  0  0  0  0  0  0  0  0
   47.7580   31.0960   45.7760 N   0  0  0  0  0  0  0  0  0  0  0  0
   47.3490   34.1580   41.8200 C   0  0  1  0  0  0  0  0  0  0  0  0
   46.0340   34.2320   41.2000 C   0  0  0  0  0  0  0  0  0  0  0  0
   45.8540   33.3430   40.1740 C   0  0  0  0  0  0  0  0  0  0  0  0
   44.5960   33.3310   39.4910 C   0  0  0  0  0  0  0  0  0  0  0  0
   43.6480   34.2180   39.9140 N   0  0  0  0  0  0  0  0  0  0  0  0
   43.8650   35.0720   40.9240 C   0  0  0  0  0  0  0  0  0  0  0  0
   45.0340   35.0560   41.5290 N   0  0  0  0  0  0  0  0  0  0  0  0
   48.2670   35.2390   41.2360 C   0  0  0  0  0  0  0  0  0  0  0  0
   48.0730   32.8880   41.6910 C   0  0  0  0  0  0  0  0  0  0  0  0
   49.5390   33.1620   41.4230 C   0  0  0  0  0  0  0  0  0  0  0  0
   50.5730   32.6220   42.3420 C   0  0  0  0  0  0  0  0  0  0  0  0
   50.4500   31.9940   41.0260 C   0  0  0  0  0  0  0  0  0  0  0  0
   46.4307   35.2897   43.4041 H   0  0  0  0  0  0  0  0  0  0  0  0
   48.1411   34.7785   43.7129 H   0  0  0  0  0  0  0  0  0  0  0  0
   47.5454   32.6810   43.7467 H   0  0  0  0  0  0  0  0  0  0  0  0
   44.5176   33.4586   43.6006 H   0  0  0  0  0  0  0  0  0  0  0  0
   44.6962   31.9772   44.0314 H   0  0  0  0  0  0  0  0  0  0  0  0
   45.9879   34.4823   45.9566 H   0  0  0  0  0  0  0  0  0  0  0  0
   45.2156   31.7149   49.5021 H   0  0  0  0  0  0  0  0  0  0  0  0
   47.0746   30.2485   48.2667 H   0  0  0  0  0  0  0  0  0  0  0  0
   48.2638   30.2545   46.0873 H   0  0  0  0  0  0  0  0  0  0  0  0
   47.9486   31.4971   44.8467 H   0  0  0  0  0  0  0  0  0  0  0  0
   46.6589   32.6529   39.8810 H   0  0  0  0  0  0  0  0  0  0  0  0
   44.4013   32.6365   38.6605 H   0  0  0  0  0  0  0  0  0  0  0  0
   43.0800   35.7740   41.2418 H   0  0  0  0  0  0  0  0  0  0  0  0
   48.7421   35.7984   42.0554 H   0  0  0  0  0  0  0  0  0  0  0  0
   49.0433   34.7656   40.6169 H   0  0  0  0  0  0  0  0  0  0  0  0
   47.6741   35.9283   40.6169 H   0  0  0  0  0  0  0  0  0  0  0  0
   47.9728   32.3134   42.6236 H   0  0  0  0  0  0  0  0  0  0  0  0
   47.6510   32.3109   40.8550 H   0  0  0  0  0  0  0  0  0  0  0  0
   49.2938   34.1538   41.0153 H   0  0  0  0  0  0  0  0  0  0  0  0
   51.4622   33.2268   42.5734 H   0  0  0  0  0  0  0  0  0  0  0  0
   50.5509   32.2401   43.3733 H   0  0  0  0  0  0  0  0  0  0  0  0
   50.0373   30.9784   40.9357 H   0  0  0  0  0  0  0  0  0  0  0  0
   51.1363   31.7866   40.1917 H   0  0  0  0  0  0  0  0  0  0  0  0
  1  2  1  0
  2  3  1  0
  2  4  1  0
  3  4  1  0
  4  5  1  0
  5  9  1  0
  5  6  1  0
  6  7  2  0
  8  7  1  0
  9  8  2  0
 10  9  1  0
 11 18  1  6
 11  1  1  0
 12 17  1  0
 12 11  1  0
 13 12  2  0
 14 15  2  0
 14 13  1  0
 15 16  1  0
 16 17  2  0
 19 11  1  0
 20 19  1  0
 20 21  1  0
 22 20  1  0
 22 21  1  0
  1 23  1  0
  1 24  1  0
  2 25  1  1
  3 26  1  0
  3 27  1  0
  4 28  1  1
  7 29  1  0
  8 30  1  0
 10 31  1  0
 10 32  1  0
 13 33  1  0
 14 34  1  0
 16 35  1  0
 18 36  1  0
 18 37  1  0
 18 38  1  0
 19 39  1  0
 19 40  1  0
 20 41  1  0
 21 42  1  0
 21 43  1  0
 22 44  1  0
 22 45  1  0
M  ISO  8  23   8  24   8  25  13  26  13  27  13  28  13  29  14  30  14
M  ISO  8  33  14  34  14  35  14  36   8  37   8  38   8  39   8  40   8
M  ISO  5  41  13  42  13  43  13  44  13  45  13
M  END
>  <minimizedAffinity>  (1) 
-4.69923973

>  <minimizedRMSD>  (1) 
0.640315771

$$$$
