
     RDKit          3D

 36 39  0  0  1  0  0  0  0  0999 V2000
   44.6520   35.6770   44.8850 C   0  0  0  0  0  0  0  0  0  0  0  0
   45.1030   35.4980   43.5400 C   0  0  0  0  0  0  0  0  0  0  0  0
   45.7840   34.3350   43.2460 C   0  0  0  0  0  0  0  0  0  0  0  0
   45.9920   33.4250   44.2370 N   0  0  0  0  0  0  0  0  0  0  0  0
   45.5520   33.6290   45.4920 C   0  0  0  0  0  0  0  0  0  0  0  0
   44.8910   34.7410   45.8090 N   0  0  0  0  0  0  0  0  0  0  0  0
   45.8020   32.6280   46.5250 N   0  0  0  0  0  0  0  0  0  0  0  0
   45.3260   32.8350   47.8790 C   0  0  0  0  0  0  0  0  0  0  0  0
   46.2620   32.2800   48.9080 C   0  0  0  0  0  0  0  0  0  0  0  0
   47.6090   32.0320   48.2880 C   0  0  0  0  0  0  0  0  0  0  0  0
   47.3990   30.9160   47.2620 C   0  0  0  0  0  0  0  0  0  0  0  0
   46.5370   31.4270   46.1650 C   0  0  1  0  0  0  0  0  0  0  0  0
   45.6310   30.3840   45.5960 C   0  0  0  0  0  0  0  0  0  0  0  0
   45.4160   30.0500   44.3230 N   0  0  0  0  0  0  0  0  0  0  0  0
   44.5680   29.0880   44.2040 O   0  0  0  0  0  0  0  0  0  0  0  0
   44.1890   28.7500   45.4260 C   0  0  0  0  0  0  0  0  0  0  0  0
   44.8310   29.5360   46.3050 N   0  0  0  0  0  0  0  0  0  0  0  0
   43.2550   27.7240   45.7700 N   0  0  0  0  0  0  0  0  0  0  0  0
   43.4930   26.6970   46.6070 C   0  0  0  0  0  0  0  0  0  0  0  0
   42.4150   25.9000   46.7250 N   0  0  0  0  0  0  0  0  0  0  0  0
   41.4780   26.4530   45.9360 C   0  0  0  0  0  0  0  0  0  0  0  0
   42.0050   27.5710   45.3560 N   0  0  0  0  0  0  0  0  0  0  0  0
   44.1050   36.5905   45.1611 H   0  0  0  0  0  0  0  0  0  0  0  0
   44.9140   36.2591   42.7687 H   0  0  0  0  0  0  0  0  0  0  0  0
   46.1531   34.1459   42.2272 H   0  0  0  0  0  0  0  0  0  0  0  0
   45.2127   33.9154   48.0516 H   0  0  0  0  0  0  0  0  0  0  0  0
   44.3669   32.3060   47.9802 H   0  0  0  0  0  0  0  0  0  0  0  0
   46.3664   32.9999   49.7332 H   0  0  0  0  0  0  0  0  0  0  0  0
   45.8586   31.3319   49.2931 H   0  0  0  0  0  0  0  0  0  0  0  0
   47.9759   32.9431   47.7927 H   0  0  0  0  0  0  0  0  0  0  0  0
   48.3562   31.7500   49.0444 H   0  0  0  0  0  0  0  0  0  0  0  0
   48.3709   30.6030   46.8527 H   0  0  0  0  0  0  0  0  0  0  0  0
   46.9167   30.0527   47.7437 H   0  0  0  0  0  0  0  0  0  0  0  0
   47.2385   31.7114   45.3669 H   0  0  0  0  0  0  0  0  0  0  0  0
   44.4472   26.5304   47.1282 H   0  0  0  0  0  0  0  0  0  0  0  0
   40.4584   26.0695   45.7833 H   0  0  0  0  0  0  0  0  0  0  0  0
  1  6  2  0
  2  1  1  0
  3  2  2  0
  3  4  1  0
  4  5  2  0
  5  6  1  0
  5  7  1  0
  7  8  1  0
  8  9  1  0
 10  9  1  0
 11 10  1  0
 12  7  1  0
 12 11  1  0
 13 12  1  0
 13 17  1  0
 14 13  2  0
 15 14  1  0
 15 16  1  0
 16 18  1  0
 16 17  2  0
 18 19  1  0
 19 20  2  0
 21 20  1  0
 22 18  1  0
 22 21  2  0
  1 23  1  0
  2 24  1  0
  3 25  1  0
  8 26  1  0
  8 27  1  0
  9 28  1  0
  9 29  1  0
 10 30  1  0
 10 31  1  0
 11 32  1  0
 11 33  1  0
 12 34  1  6
 19 35  1  0
 21 36  1  0
M  ISO  8  23  14  24  14  25  14  26  13  27  13  28  13  29  13  30  13
M  ISO  6  31  13  32  13  33  13  34  13  35  14  36  14
M  END
>  <minimizedAffinity>  (1) 
-5.72552872

>  <minimizedRMSD>  (1) 
0.577558577

$$$$
