
     RDKit          3D

 47 50  0  0  1  0  0  0  0  0999 V2000
   43.9260   34.0260   41.1860 C   0  0  1  0  0  0  0  0  0  0  0  0
   42.7010   34.7150   40.7580 C   0  0  0  0  0  0  0  0  0  0  0  0
   42.4320   34.6040   39.3930 C   0  0  0  0  0  0  0  0  0  0  0  0
   41.2840   35.2300   38.8830 C   0  0  0  0  0  0  0  0  0  0  0  0
   40.4880   35.9120   39.7280 N   0  0  0  0  0  0  0  0  0  0  0  0
   40.7610   36.0120   41.0460 C   0  0  0  0  0  0  0  0  0  0  0  0
   41.8470   35.4130   41.4910 N   0  0  0  0  0  0  0  0  0  0  0  0
   44.8020   33.7660   39.9650 C   0  0  0  0  0  0  0  0  0  0  0  0
   44.6740   34.9880   42.0720 C   0  0  0  0  0  0  0  0  0  0  0  0
   44.4220   34.7240   43.5200 C   0  0  2  0  0  0  0  0  0  0  0  0
   44.6330   35.7370   44.5470 C   0  0  0  0  0  0  0  0  0  0  0  0
   45.6340   34.6040   44.3780 C   0  0  1  0  0  0  0  0  0  0  0  0
   45.7130   33.7610   45.5480 N   0  0  0  0  0  0  0  0  0  0  0  0
   45.0640   33.9100   46.7090 N   0  0  0  0  0  0  0  0  0  0  0  0
   45.4120   32.9090   47.5400 C   0  0  0  0  0  0  0  0  0  0  0  0
   46.3010   32.1380   46.8460 C   0  0  0  0  0  0  0  0  0  0  0  0
   46.4780   32.6940   45.5870 C   0  0  0  0  0  0  0  0  0  0  0  0
   47.3490   32.0670   44.7040 N   0  0  0  0  0  0  0  0  0  0  0  0
   43.7140   32.7420   41.8480 C   0  0  0  0  0  0  0  0  0  0  0  0
   42.5100   32.3170   42.3770 N   0  0  0  0  0  0  0  0  0  0  0  0
   39.9770   30.8250   40.2940 N   0  0  0  0  0  0  0  0  0  0  0  0
   41.2260   30.9870   40.7100 N   0  0  0  0  0  0  0  0  0  0  0  0
   41.3040   31.9080   41.7040 C   0  0  0  0  0  0  0  0  0  0  0  0
   39.9890   32.3320   41.8990 C   0  0  0  0  0  0  0  0  0  0  0  0
   39.1600   31.6430   41.0060 C   0  0  0  0  0  0  0  0  0  0  0  0
   43.1048   34.0384   38.7316 H   0  0  0  0  0  0  0  0  0  0  0  0
   41.0391   35.1646   37.8126 H   0  0  0  0  0  0  0  0  0  0  0  0
   40.1010   36.5731   41.7239 H   0  0  0  0  0  0  0  0  0  0  0  0
   45.8086   33.4672   40.2928 H   0  0  0  0  0  0  0  0  0  0  0  0
   44.3591   32.9606   39.3607 H   0  0  0  0  0  0  0  0  0  0  0  0
   44.8702   34.6826   39.3607 H   0  0  0  0  0  0  0  0  0  0  0  0
   45.7516   34.8884   41.8748 H   0  0  0  0  0  0  0  0  0  0  0  0
   44.3211   36.0048   41.8449 H   0  0  0  0  0  0  0  0  0  0  0  0
   43.5437   34.1075   43.2779 H   0  0  0  0  0  0  0  0  0  0  0  0
   44.9091   36.7623   44.2598 H   0  0  0  0  0  0  0  0  0  0  0  0
   44.0387   36.1317   45.3843 H   0  0  0  0  0  0  0  0  0  0  0  0
   46.6883   34.4242   44.1210 H   0  0  0  0  0  0  0  0  0  0  0  0
   45.0538   32.7456   48.5671 H   0  0  0  0  0  0  0  0  0  0  0  0
   46.7937   31.2292   47.2220 H   0  0  0  0  0  0  0  0  0  0  0  0
   47.8444   31.2106   44.9903 H   0  0  0  0  0  0  0  0  0  0  0  0
   47.4991   32.4588   43.7633 H   0  0  0  0  0  0  0  0  0  0  0  0
   43.9958   31.9790   41.1075 H   0  0  0  0  0  0  0  0  0  0  0  0
   44.2958   32.8928   42.7693 H   0  0  0  0  0  0  0  0  0  0  0  0
   42.4690   32.2885   43.4058 H   0  0  0  0  0  0  0  0  0  0  0  0
   39.6749   30.1810   39.5491 H   0  0  0  0  0  0  0  0  0  0  0  0
   39.6588   33.0826   42.6322 H   0  0  0  0  0  0  0  0  0  0  0  0
   38.0695   31.7437   40.9023 H   0  0  0  0  0  0  0  0  0  0  0  0
  1  8  1  6
  1 19  1  0
  1  9  1  0
  2  1  1  0
  2  7  1  0
  3  2  2  0
  4  3  1  0
  4  5  2  0
  5  6  1  0
  6  7  2  0
  9 10  1  0
 10 12  1  0
 10 11  1  0
 12 11  1  0
 12 13  1  0
 13 17  1  0
 13 14  1  0
 14 15  2  0
 16 15  1  0
 17 16  2  0
 18 17  1  0
 19 20  1  0
 21 22  1  0
 21 25  1  0
 22 23  2  0
 23 24  1  0
 23 20  1  0
 25 24  2  0
  3 26  1  0
  4 27  1  0
  6 28  1  0
  8 29  1  0
  8 30  1  0
  8 31  1  0
  9 32  1  0
  9 33  1  0
 10 34  1  6
 11 35  1  0
 11 36  1  0
 12 37  1  6
 15 38  1  0
 16 39  1  0
 18 40  1  0
 18 41  1  0
 19 42  1  0
 19 43  1  0
 20 44  1  0
 21 45  1  0
 24 46  1  0
 25 47  1  0
M  ISO  8  26  14  27  14  28  14  29   8  30   8  31   8  32   8  33   8
M  ISO  8  34  13  35  13  36  13  37  13  38  14  39  14  42   8  43   8
M  ISO  3  45   9  46  14  47  14
M  END
>  <minimizedAffinity>  (1) 
-5.51816177

>  <minimizedRMSD>  (1) 
1.90767527

$$$$
