
     RDKit          3D

 46 49  0  0  1  0  0  0  0  0999 V2000
   43.8500   34.0890   41.2860 C   0  0  1  0  0  0  0  0  0  0  0  0
   42.6540   34.7590   40.7820 C   0  0  0  0  0  0  0  0  0  0  0  0
   42.5680   34.7590   39.4040 C   0  0  0  0  0  0  0  0  0  0  0  0
   41.4460   35.3820   38.7980 C   0  0  0  0  0  0  0  0  0  0  0  0
   40.5160   35.9450   39.6010 N   0  0  0  0  0  0  0  0  0  0  0  0
   40.6280   35.9280   40.9230 C   0  0  0  0  0  0  0  0  0  0  0  0
   41.6710   35.3490   41.4740 N   0  0  0  0  0  0  0  0  0  0  0  0
   44.8070   33.7930   40.1370 C   0  0  0  0  0  0  0  0  0  0  0  0
   44.5720   35.1200   42.1550 C   0  0  0  0  0  0  0  0  0  0  0  0
   44.3540   34.8490   43.6250 C   0  0  2  0  0  0  0  0  0  0  0  0
   44.6720   35.8330   44.6430 C   0  0  0  0  0  0  0  0  0  0  0  0
   45.6030   34.6590   44.4280 C   0  0  1  0  0  0  0  0  0  0  0  0
   45.6910   33.7870   45.5760 N   0  0  0  0  0  0  0  0  0  0  0  0
   45.0400   33.9290   46.7270 N   0  0  0  0  0  0  0  0  0  0  0  0
   45.3810   32.9050   47.5570 C   0  0  0  0  0  0  0  0  0  0  0  0
   46.2630   32.1470   46.8520 C   0  0  0  0  0  0  0  0  0  0  0  0
   46.4450   32.7270   45.5930 C   0  0  0  0  0  0  0  0  0  0  0  0
   47.3180   32.1120   44.7190 N   0  0  0  0  0  0  0  0  0  0  0  0
   43.6580   32.8690   42.0180 C   0  0  0  0  0  0  0  0  0  0  0  0
   42.4350   32.3130   42.3310 N   0  0  0  0  0  0  0  0  0  0  0  0
   41.4180   31.7540   41.4680 C   0  0  0  0  0  0  0  0  0  0  0  0
   41.0760   30.8100   42.7440 C   0  0  0  0  0  0  0  0  0  0  0  0
   39.6300   29.8140   41.9760 S   0  0  0  0  0  0  0  0  0  0  0  0
   39.7490   30.7490   40.2910 C   0  0  0  0  0  0  0  0  0  0  0  0
   40.7340   31.6430   40.3680 N   0  0  0  0  0  0  0  0  0  0  0  0
   43.3501   34.2876   38.7907 H   0  0  0  0  0  0  0  0  0  0  0  0
   41.3362   35.4060   37.7038 H   0  0  0  0  0  0  0  0  0  0  0  0
   39.8551   36.3942   41.5517 H   0  0  0  0  0  0  0  0  0  0  0  0
   45.7840   33.4908   40.5421 H   0  0  0  0  0  0  0  0  0  0  0  0
   44.3984   32.9793   39.5199 H   0  0  0  0  0  0  0  0  0  0  0  0
   44.9292   34.6953   39.5199 H   0  0  0  0  0  0  0  0  0  0  0  0
   45.6498   35.0785   41.9391 H   0  0  0  0  0  0  0  0  0  0  0  0
   44.1660   36.1154   41.9219 H   0  0  0  0  0  0  0  0  0  0  0  0
   43.4312   34.2862   43.4210 H   0  0  0  0  0  0  0  0  0  0  0  0
   44.9880   36.8445   44.3481 H   0  0  0  0  0  0  0  0  0  0  0  0
   44.1390   36.2497   45.5103 H   0  0  0  0  0  0  0  0  0  0  0  0
   46.6380   34.4363   44.1295 H   0  0  0  0  0  0  0  0  0  0  0  0
   45.0197   32.7283   48.5808 H   0  0  0  0  0  0  0  0  0  0  0  0
   46.7520   31.2299   47.2124 H   0  0  0  0  0  0  0  0  0  0  0  0
   47.8024   31.2470   44.9984 H   0  0  0  0  0  0  0  0  0  0  0  0
   47.4852   32.5179   43.7872 H   0  0  0  0  0  0  0  0  0  0  0  0
   44.1917   32.0970   41.4442 H   0  0  0  0  0  0  0  0  0  0  0  0
   43.9906   33.1859   43.0175 H   0  0  0  0  0  0  0  0  0  0  0  0
   42.2112   32.2928   43.3362 H   0  0  0  0  0  0  0  0  0  0  0  0
   41.5338   30.7581   43.7429 H   0  0  0  0  0  0  0  0  0  0  0  0
   39.1098   30.5729   39.4132 H   0  0  0  0  0  0  0  0  0  0  0  0
  1  8  1  6
  1 19  1  0
  1  9  1  0
  2  1  1  0
  2  7  1  0
  3  2  2  0
  4  3  1  0
  4  5  2  0
  5  6  1  0
  6  7  2  0
  9 10  1  0
 10 12  1  0
 10 11  1  0
 12 11  1  0
 12 13  1  0
 13 17  1  0
 13 14  1  0
 14 15  2  0
 16 15  1  0
 17 16  2  0
 18 17  1  0
 19 20  1  0
 21 20  1  0
 21 22  2  0
 23 22  1  0
 24 25  2  0
 24 23  1  0
 25 21  1  0
  3 26  1  0
  4 27  1  0
  6 28  1  0
  8 29  1  0
  8 30  1  0
  8 31  1  0
  9 32  1  0
  9 33  1  0
 10 34  1  6
 11 35  1  0
 11 36  1  0
 12 37  1  6
 15 38  1  0
 16 39  1  0
 18 40  1  0
 18 41  1  0
 19 42  1  0
 19 43  1  0
 20 44  1  0
 22 45  1  0
 24 46  1  0
M  ISO  8  26  14  27  14  28  14  29   8  30   8  31   8  32   8  33   8
M  ISO  8  34  13  35  13  36  13  37  13  38  14  39  14  42   8  43   8
M  ISO  2  45  14  46  14
M  END
>  <minimizedAffinity>  (1) 
-5.21945763

>  <minimizedRMSD>  (1) 
2.07864976

$$$$
