
     RDKit          3D

 55 58  0  0  1  0  0  0  0  0999 V2000
   44.7900   34.1080   41.8180 C   0  0  1  0  0  0  0  0  0  0  0  0
   43.5340   34.6260   41.2400 C   0  0  0  0  0  0  0  0  0  0  0  0
   43.4090   34.4400   39.8660 C   0  0  0  0  0  0  0  0  0  0  0  0
   42.2360   34.9110   39.2390 C   0  0  0  0  0  0  0  0  0  0  0  0
   41.2960   35.5160   39.9860 N   0  0  0  0  0  0  0  0  0  0  0  0
   41.4440   35.6790   41.3020 C   0  0  0  0  0  0  0  0  0  0  0  0
   42.5400   35.2350   41.8730 N   0  0  0  0  0  0  0  0  0  0  0  0
   45.8940   34.2310   40.7730 C   0  0  0  0  0  0  0  0  0  0  0  0
   45.1600   35.0140   42.9520 C   0  0  0  0  0  0  0  0  0  0  0  0
   44.6690   34.4890   44.2710 C   0  0  2  0  0  0  0  0  0  0  0  0
   44.6870   35.3030   45.4770 C   0  0  0  0  0  0  0  0  0  0  0  0
   45.7200   34.2040   45.2800 C   0  0  1  0  0  0  0  0  0  0  0  0
   45.6270   33.1630   46.2660 N   0  0  0  0  0  0  0  0  0  0  0  0
   45.2490   33.3030   47.5420 N   0  0  0  0  0  0  0  0  0  0  0  0
   45.2890   32.0970   48.1390 C   0  0  0  0  0  0  0  0  0  0  0  0
   45.7030   31.2240   47.1900 C   0  0  0  0  0  0  0  0  0  0  0  0
   45.9160   31.9150   45.9940 C   0  0  0  0  0  0  0  0  0  0  0  0
   46.3480   31.2200   44.8740 N   0  0  0  0  0  0  0  0  0  0  0  0
   44.7350   32.7020   42.2230 C   0  0  0  0  0  0  0  0  0  0  0  0
   43.6590   32.1010   42.8320 N   0  0  0  0  0  0  0  0  0  0  0  0
   40.7570   29.4170   41.3080 N   0  0  0  0  0  0  0  0  0  0  0  0
   41.9980   28.9670   41.8780 C   0  0  0  0  0  0  0  0  0  0  0  0
   42.4930   29.9560   42.9070 C   0  0  0  0  0  0  0  0  0  0  0  0
   42.8120   31.2290   42.0830 C   0  0  0  0  0  0  0  0  0  0  0  0
   41.4310   31.7470   41.7740 C   0  0  0  0  0  0  0  0  0  0  0  0
   40.8250   30.7630   40.7870 C   0  0  0  0  0  0  0  0  0  0  0  0
   44.2002   33.9413   39.2870 H   0  0  0  0  0  0  0  0  0  0  0  0
   42.0928   34.7851   38.1556 H   0  0  0  0  0  0  0  0  0  0  0  0
   40.6633   36.1755   41.8969 H   0  0  0  0  0  0  0  0  0  0  0  0
   46.8657   34.3393   41.2771 H   0  0  0  0  0  0  0  0  0  0  0  0
   45.9058   33.3286   40.1441 H   0  0  0  0  0  0  0  0  0  0  0  0
   45.7069   35.1139   40.1441 H   0  0  0  0  0  0  0  0  0  0  0  0
   46.2555   35.1057   42.9912 H   0  0  0  0  0  0  0  0  0  0  0  0
   44.6865   35.9912   42.7763 H   0  0  0  0  0  0  0  0  0  0  0  0
   43.8561   33.9325   43.7816 H   0  0  0  0  0  0  0  0  0  0  0  0
   44.9898   36.3592   45.4239 H   0  0  0  0  0  0  0  0  0  0  0  0
   43.9550   35.5530   46.2591 H   0  0  0  0  0  0  0  0  0  0  0  0
   46.8060   34.0619   45.1782 H   0  0  0  0  0  0  0  0  0  0  0  0
   45.0368   31.8674   49.1848 H   0  0  0  0  0  0  0  0  0  0  0  0
   45.8484   30.1436   47.3370 H   0  0  0  0  0  0  0  0  0  0  0  0
   46.5063   30.2037   44.9279 H   0  0  0  0  0  0  0  0  0  0  0  0
   46.5105   31.7203   43.9884 H   0  0  0  0  0  0  0  0  0  0  0  0
   44.9130   32.1243   41.3040 H   0  0  0  0  0  0  0  0  0  0  0  0
   45.4579   32.7046   43.0521 H   0  0  0  0  0  0  0  0  0  0  0  0
   44.0315   31.5507   43.6189 H   0  0  0  0  0  0  0  0  0  0  0  0
   40.5001   28.7811   40.5396 H   0  0  0  0  0  0  0  0  0  0  0  0
   41.8429   27.9901   42.3592 H   0  0  0  0  0  0  0  0  0  0  0  0
   42.7475   28.8789   41.0777 H   0  0  0  0  0  0  0  0  0  0  0  0
   41.7154   30.1611   43.6575 H   0  0  0  0  0  0  0  0  0  0  0  0
   43.3649   29.5844   43.4653 H   0  0  0  0  0  0  0  0  0  0  0  0
   43.3876   31.0844   41.1569 H   0  0  0  0  0  0  0  0  0  0  0  0
   40.8251   31.7904   42.6911 H   0  0  0  0  0  0  0  0  0  0  0  0
   41.4664   32.7646   41.3578 H   0  0  0  0  0  0  0  0  0  0  0  0
   41.4401   30.7562   39.8751 H   0  0  0  0  0  0  0  0  0  0  0  0
   39.7952   31.0912   40.5824 H   0  0  0  0  0  0  0  0  0  0  0  0
  1  8  1  6
  1 19  1  0
  1  9  1  0
  2  1  1  0
  2  7  1  0
  3  2  2  0
  4  3  1  0
  4  5  2  0
  5  6  1  0
  6  7  2  0
  9 10  1  0
 10 12  1  0
 10 11  1  0
 12 11  1  0
 12 13  1  0
 13 14  1  0
 14 15  2  0
 16 15  1  0
 17 13  1  0
 17 16  2  0
 18 17  1  0
 19 20  1  0
 21 22  1  0
 22 23  1  0
 24 20  1  0
 24 23  1  0
 25 24  1  0
 26 21  1  0
 26 25  1  0
  3 27  1  0
  4 28  1  0
  6 29  1  0
  8 30  1  0
  8 31  1  0
  8 32  1  0
  9 33  1  0
  9 34  1  0
 10 35  1  6
 11 36  1  0
 11 37  1  0
 12 38  1  6
 15 39  1  0
 16 40  1  0
 18 41  1  0
 18 42  1  0
 19 43  1  0
 19 44  1  0
 20 45  1  0
 21 46  1  0
 22 47  1  0
 22 48  1  0
 23 49  1  0
 23 50  1  0
 24 51  1  0
 25 52  1  0
 25 53  1  0
 26 54  1  0
 26 55  1  0
M  ISO  8  27  14  28  14  29  14  30   8  31   8  32   8  33   8  34   8
M  ISO  8  35  13  36  13  37  13  38  13  39  14  40  14  43   8  44   8
M  ISO  8  45   5  46   5  47  13  48  13  49  13  50  13  51  13  52  13
M  ISO  3  53  13  54  13  55  13
M  END
>  <minimizedAffinity>  (1) 
-4.99846554

>  <minimizedRMSD>  (1) 
1.8059926

$$$$
