
     RDKit          3D

 47 50  0  0  1  0  0  0  0  0999 V2000
   43.6370   34.0790   40.8900 C   0  0  1  0  0  0  0  0  0  0  0  0
   42.4510   34.8620   40.5280 C   0  0  0  0  0  0  0  0  0  0  0  0
   42.1480   34.8420   39.1720 C   0  0  0  0  0  0  0  0  0  0  0  0
   41.0180   35.5530   38.7180 C   0  0  0  0  0  0  0  0  0  0  0  0
   40.2830   36.2210   39.6210 N   0  0  0  0  0  0  0  0  0  0  0  0
   40.5810   36.2390   40.9250 C   0  0  0  0  0  0  0  0  0  0  0  0
   41.6450   35.5660   41.3350 N   0  0  0  0  0  0  0  0  0  0  0  0
   44.3630   33.6630   39.6160 C   0  0  0  0  0  0  0  0  0  0  0  0
   44.5530   35.0160   41.6330 C   0  0  0  0  0  0  0  0  0  0  0  0
   44.4910   34.7850   43.1150 C   0  0  2  0  0  0  0  0  0  0  0  0
   44.9580   35.8020   44.0610 C   0  0  0  0  0  0  0  0  0  0  0  0
   45.8050   34.5780   43.7930 C   0  0  1  0  0  0  0  0  0  0  0  0
   45.9910   33.7680   44.9490 N   0  0  0  0  0  0  0  0  0  0  0  0
   45.4070   33.8640   46.1490 N   0  0  0  0  0  0  0  0  0  0  0  0
   45.8710   32.9040   46.9620 C   0  0  0  0  0  0  0  0  0  0  0  0
   46.7820   32.1900   46.2210 C   0  0  0  0  0  0  0  0  0  0  0  0
   46.8420   32.7580   44.9460 C   0  0  0  0  0  0  0  0  0  0  0  0
   47.7220   32.1910   44.0190 N   0  0  0  0  0  0  0  0  0  0  0  0
   43.3660   32.8610   41.6530 C   0  0  0  0  0  0  0  0  0  0  0  0
   42.1200   32.4170   42.0330 N   0  0  0  0  0  0  0  0  0  0  0  0
   40.8760   32.2400   41.3030 C   0  0  0  0  0  0  0  0  0  0  0  0
   39.6130   32.6360   41.7160 C   0  0  0  0  0  0  0  0  0  0  0  0
   38.6670   32.2940   40.7410 C   0  0  0  0  0  0  0  0  0  0  0  0
   39.4330   31.6930   39.7650 C   0  0  0  0  0  0  0  0  0  0  0  0
   40.6940   31.6730   40.1080 O   0  0  0  0  0  0  0  0  0  0  0  0
   42.7781   34.2817   38.4656 H   0  0  0  0  0  0  0  0  0  0  0  0
   40.7461   35.5600   37.6522 H   0  0  0  0  0  0  0  0  0  0  0  0
   39.9581   36.7986   41.6383 H   0  0  0  0  0  0  0  0  0  0  0  0
   45.2898   33.1320   39.8789 H   0  0  0  0  0  0  0  0  0  0  0  0
   43.7151   32.9991   39.0249 H   0  0  0  0  0  0  0  0  0  0  0  0
   44.6081   34.5577   39.0249 H   0  0  0  0  0  0  0  0  0  0  0  0
   45.5852   34.8546   41.2889 H   0  0  0  0  0  0  0  0  0  0  0  0
   44.2298   36.0478   41.4305 H   0  0  0  0  0  0  0  0  0  0  0  0
   43.5391   34.2406   43.0287 H   0  0  0  0  0  0  0  0  0  0  0  0
   45.2831   36.7865   43.6934 H   0  0  0  0  0  0  0  0  0  0  0  0
   44.5401   36.2756   44.9616 H   0  0  0  0  0  0  0  0  0  0  0  0
   46.7886   34.2933   43.3911 H   0  0  0  0  0  0  0  0  0  0  0  0
   45.5817   32.7246   48.0080 H   0  0  0  0  0  0  0  0  0  0  0  0
   47.3622   31.3233   46.5705 H   0  0  0  0  0  0  0  0  0  0  0  0
   48.2932   31.3756   44.2831 H   0  0  0  0  0  0  0  0  0  0  0  0
   47.7991   32.5888   43.0720 H   0  0  0  0  0  0  0  0  0  0  0  0
   43.7973   32.0428   41.0576 H   0  0  0  0  0  0  0  0  0  0  0  0
   43.7742   33.1518   42.6322 H   0  0  0  0  0  0  0  0  0  0  0  0
   42.0569   32.1602   43.0285 H   0  0  0  0  0  0  0  0  0  0  0  0
   39.3878   33.1424   42.6661 H   0  0  0  0  0  0  0  0  0  0  0  0
   37.5802   32.4634   40.7516 H   0  0  0  0  0  0  0  0  0  0  0  0
   39.0361   31.2850   38.8237 H   0  0  0  0  0  0  0  0  0  0  0  0
  1  8  1  6
  1  9  1  0
  1 19  1  0
  2  1  1  0
  2  7  1  0
  3  2  2  0
  4  3  1  0
  4  5  2  0
  5  6  1  0
  6  7  2  0
  9 10  1  0
 10 12  1  0
 10 11  1  0
 12 11  1  0
 12 13  1  0
 13 14  1  0
 14 15  2  0
 16 15  1  0
 17 13  1  0
 17 16  2  0
 18 17  1  0
 19 20  1  0
 21 22  2  0
 21 20  1  0
 23 22  1  0
 24 25  1  0
 24 23  2  0
 25 21  1  0
  3 26  1  0
  4 27  1  0
  6 28  1  0
  8 29  1  0
  8 30  1  0
  8 31  1  0
  9 32  1  0
  9 33  1  0
 10 34  1  1
 11 35  1  0
 11 36  1  0
 12 37  1  6
 15 38  1  0
 16 39  1  0
 18 40  1  0
 18 41  1  0
 19 42  1  0
 19 43  1  0
 20 44  1  0
 22 45  1  0
 23 46  1  0
 24 47  1  0
M  ISO  8  26  14  27  14  28  14  29   8  30   8  31   8  32   8  33   8
M  ISO  8  34  13  35  13  36  13  37  13  38  14  39  14  42   8  43   8
M  ISO  3  45  14  46  14  47  14
M  END
>  <minimizedAffinity>  (1) 
-5.48371887

>  <minimizedRMSD>  (1) 
2.35757089

$$$$
