
     RDKit          3D

 47 50  0  0  1  0  0  0  0  0999 V2000
   43.8740   34.0990   41.2340 C   0  0  1  0  0  0  0  0  0  0  0  0
   42.6620   34.7980   40.7560 C   0  0  0  0  0  0  0  0  0  0  0  0
   42.5010   34.7560   39.3720 C   0  0  0  0  0  0  0  0  0  0  0  0
   41.3580   35.3990   38.8400 C   0  0  0  0  0  0  0  0  0  0  0  0
   40.4990   36.0070   39.6720 N   0  0  0  0  0  0  0  0  0  0  0  0
   40.6850   36.0270   41.0000 C   0  0  0  0  0  0  0  0  0  0  0  0
   41.7440   35.4320   41.4990 N   0  0  0  0  0  0  0  0  0  0  0  0
   44.7690   33.8170   40.0360 C   0  0  0  0  0  0  0  0  0  0  0  0
   44.6090   35.0780   42.1120 C   0  0  0  0  0  0  0  0  0  0  0  0
   44.3830   34.8000   43.5670 C   0  0  2  0  0  0  0  0  0  0  0  0
   44.6640   35.8020   44.5880 C   0  0  0  0  0  0  0  0  0  0  0  0
   45.6020   34.6350   44.4020 C   0  0  1  0  0  0  0  0  0  0  0  0
   45.6820   33.7850   45.5540 N   0  0  0  0  0  0  0  0  0  0  0  0
   45.0360   33.9220   46.7180 N   0  0  0  0  0  0  0  0  0  0  0  0
   45.3850   32.9080   47.5430 C   0  0  0  0  0  0  0  0  0  0  0  0
   46.2770   32.1430   46.8270 C   0  0  0  0  0  0  0  0  0  0  0  0
   46.4490   32.7210   45.5710 C   0  0  0  0  0  0  0  0  0  0  0  0
   47.3270   32.1030   44.6750 N   0  0  0  0  0  0  0  0  0  0  0  0
   43.6310   32.8340   41.9110 C   0  0  0  0  0  0  0  0  0  0  0  0
   42.3920   32.3640   42.3100 N   0  0  0  0  0  0  0  0  0  0  0  0
   41.3150   31.9510   41.4530 C   0  0  0  0  0  0  0  0  0  0  0  0
   40.0460   32.2200   41.7500 C   0  0  0  0  0  0  0  0  0  0  0  0
   38.8670   31.9720   41.1560 C   0  0  0  0  0  0  0  0  0  0  0  0
   39.2640   31.2340   39.9170 C   0  0  0  0  0  0  0  0  0  0  0  0
   41.1870   31.0540   39.8640 S   0  0  0  0  0  0  0  0  0  0  0  0
   43.2288   34.2466   38.7233 H   0  0  0  0  0  0  0  0  0  0  0  0
   41.1758   35.4002   37.7552 H   0  0  0  0  0  0  0  0  0  0  0  0
   39.9638   36.5325   41.6591 H   0  0  0  0  0  0  0  0  0  0  0  0
   45.7634   33.5037   40.3869 H   0  0  0  0  0  0  0  0  0  0  0  0
   44.3254   33.0151   39.4276 H   0  0  0  0  0  0  0  0  0  0  0  0
   44.8652   34.7284   39.4276 H   0  0  0  0  0  0  0  0  0  0  0  0
   45.6860   35.0079   41.8993 H   0  0  0  0  0  0  0  0  0  0  0  0
   44.2273   36.0863   41.8935 H   0  0  0  0  0  0  0  0  0  0  0  0
   43.4822   34.2102   43.3417 H   0  0  0  0  0  0  0  0  0  0  0  0
   44.9799   36.8136   44.2932 H   0  0  0  0  0  0  0  0  0  0  0  0
   44.1066   36.2232   45.4376 H   0  0  0  0  0  0  0  0  0  0  0  0
   46.6443   34.4156   44.1274 H   0  0  0  0  0  0  0  0  0  0  0  0
   45.0305   32.7322   48.5694 H   0  0  0  0  0  0  0  0  0  0  0  0
   46.7714   31.2284   47.1861 H   0  0  0  0  0  0  0  0  0  0  0  0
   47.8224   31.2428   44.9499 H   0  0  0  0  0  0  0  0  0  0  0  0
   47.4783   32.5080   43.7401 H   0  0  0  0  0  0  0  0  0  0  0  0
   44.0330   32.0617   41.2387 H   0  0  0  0  0  0  0  0  0  0  0  0
   44.0822   33.0484   42.8910 H   0  0  0  0  0  0  0  0  0  0  0  0
   42.2248   32.3041   43.3246 H   0  0  0  0  0  0  0  0  0  0  0  0
   39.9381   32.7701   42.6964 H   0  0  0  0  0  0  0  0  0  0  0  0
   37.8574   32.2447   41.4970 H   0  0  0  0  0  0  0  0  0  0  0  0
   38.5690   30.8529   39.1543 H   0  0  0  0  0  0  0  0  0  0  0  0
  1  8  1  6
  1 19  1  0
  1  9  1  0
  2  1  1  0
  2  7  1  0
  3  2  2  0
  4  3  1  0
  4  5  2  0
  5  6  1  0
  6  7  2  0
  9 10  1  0
 10 12  1  0
 10 11  1  0
 12 11  1  0
 12 13  1  0
 13 17  1  0
 13 14  1  0
 14 15  2  0
 16 15  1  0
 17 16  2  0
 18 17  1  0
 19 20  1  0
 21 22  2  0
 21 20  1  0
 23 22  1  0
 24 23  2  0
 25 24  1  0
 25 21  1  0
  3 26  1  0
  4 27  1  0
  6 28  1  0
  8 29  1  0
  8 30  1  0
  8 31  1  0
  9 32  1  0
  9 33  1  0
 10 34  1  6
 11 35  1  0
 11 36  1  0
 12 37  1  6
 15 38  1  0
 16 39  1  0
 18 40  1  0
 18 41  1  0
 19 42  1  0
 19 43  1  0
 20 44  1  0
 22 45  1  0
 23 46  1  0
 24 47  1  0
M  ISO  8  26  14  27  14  28  14  29   8  30   8  31   8  32   8  33   8
M  ISO  8  34  13  35  13  36  13  37  13  38  14  39  14  42   8  43   8
M  ISO  3  45  14  46  14  47  14
M  END
>  <minimizedAffinity>  (1) 
-5.35858536

>  <minimizedRMSD>  (1) 
2.06279898

$$$$
