
     RDKit          3D

 52 55  0  0  1  0  0  0  0  0999 V2000
   44.8470   34.1270   41.8130 C   0  0  1  0  0  0  0  0  0  0  0  0
   43.5690   34.6360   41.2790 C   0  0  0  0  0  0  0  0  0  0  0  0
   43.4480   34.5900   39.9030 C   0  0  0  0  0  0  0  0  0  0  0  0
   42.2560   35.0610   39.3150 C   0  0  0  0  0  0  0  0  0  0  0  0
   41.2810   35.5390   40.1260 N   0  0  0  0  0  0  0  0  0  0  0  0
   41.4270   35.5720   41.4450 C   0  0  0  0  0  0  0  0  0  0  0  0
   42.5480   35.1270   41.9860 N   0  0  0  0  0  0  0  0  0  0  0  0
   45.9170   34.2890   40.7420 C   0  0  0  0  0  0  0  0  0  0  0  0
   45.2320   35.0070   42.9620 C   0  0  0  0  0  0  0  0  0  0  0  0
   44.7000   34.4800   44.2710 C   0  0  2  0  0  0  0  0  0  0  0  0
   44.6840   35.2980   45.4740 C   0  0  0  0  0  0  0  0  0  0  0  0
   45.7390   34.2120   45.3100 C   0  0  1  0  0  0  0  0  0  0  0  0
   45.6320   33.1810   46.2990 N   0  0  0  0  0  0  0  0  0  0  0  0
   45.1760   33.3010   47.5460 N   0  0  0  0  0  0  0  0  0  0  0  0
   45.2390   32.1110   48.1580 C   0  0  0  0  0  0  0  0  0  0  0  0
   45.7560   31.2460   47.2330 C   0  0  0  0  0  0  0  0  0  0  0  0
   46.0040   31.9350   46.0510 C   0  0  0  0  0  0  0  0  0  0  0  0
   46.5380   31.2440   44.9650 N   0  0  0  0  0  0  0  0  0  0  0  0
   44.8190   32.7080   42.1830 C   0  0  0  0  0  0  0  0  0  0  0  0
   43.8810   32.1200   42.9980 N   0  0  0  0  0  0  0  0  0  0  0  0
   41.6490   31.9460   42.0590 N   0  0  0  0  0  0  0  0  0  0  0  0
   40.9980   30.8830   41.2740 C   0  0  0  0  0  0  0  0  0  0  0  0
   42.0870   30.4040   40.3240 C   0  0  0  0  0  0  0  0  0  0  0  0
   43.3700   30.9800   40.8850 C   0  0  0  0  0  0  0  0  0  0  0  0
   42.9050   31.3320   42.3100 C   0  0  1  0  0  0  0  0  0  0  0  0
   44.2638   34.1946   39.2801 H   0  0  0  0  0  0  0  0  0  0  0  0
   42.1206   35.0409   38.2235 H   0  0  0  0  0  0  0  0  0  0  0  0
   40.6219   35.9663   42.0824 H   0  0  0  0  0  0  0  0  0  0  0  0
   46.8960   34.4372   41.2212 H   0  0  0  0  0  0  0  0  0  0  0  0
   45.9485   33.3854   40.1155 H   0  0  0  0  0  0  0  0  0  0  0  0
   45.6796   35.1614   40.1155 H   0  0  0  0  0  0  0  0  0  0  0  0
   46.3293   35.0598   43.0185 H   0  0  0  0  0  0  0  0  0  0  0  0
   44.7976   36.0031   42.7915 H   0  0  0  0  0  0  0  0  0  0  0  0
   43.9012   33.9161   43.7670 H   0  0  0  0  0  0  0  0  0  0  0  0
   44.9736   36.3579   45.4218 H   0  0  0  0  0  0  0  0  0  0  0  0
   43.9312   35.5407   46.2385 H   0  0  0  0  0  0  0  0  0  0  0  0
   46.8288   34.0832   45.2337 H   0  0  0  0  0  0  0  0  0  0  0  0
   44.9376   31.8779   49.1899 H   0  0  0  0  0  0  0  0  0  0  0  0
   45.9455   30.1751   47.3981 H   0  0  0  0  0  0  0  0  0  0  0  0
   46.7417   30.2375   45.0447 H   0  0  0  0  0  0  0  0  0  0  0  0
   46.7290   31.7398   44.0826 H   0  0  0  0  0  0  0  0  0  0  0  0
   44.7648   32.1588   41.2314 H   0  0  0  0  0  0  0  0  0  0  0  0
   45.7039   32.6577   42.8344 H   0  0  0  0  0  0  0  0  0  0  0  0
   44.3731   31.5102   43.6665 H   0  0  0  0  0  0  0  0  0  0  0  0
   41.1389   32.1439   42.9317 H   0  0  0  0  0  0  0  0  0  0  0  0
   40.6622   30.0645   41.9278 H   0  0  0  0  0  0  0  0  0  0  0  0
   40.1015   31.2377   40.7445 H   0  0  0  0  0  0  0  0  0  0  0  0
   41.9061   30.7797   39.3061 H   0  0  0  0  0  0  0  0  0  0  0  0
   42.1213   29.3070   40.2508 H   0  0  0  0  0  0  0  0  0  0  0  0
   44.1818   30.2377   40.8922 H   0  0  0  0  0  0  0  0  0  0  0  0
   43.7887   31.8214   40.3134 H   0  0  0  0  0  0  0  0  0  0  0  0
   42.7931   30.4873   43.0057 H   0  0  0  0  0  0  0  0  0  0  0  0
  1  8  1  6
  1 19  1  0
  1  9  1  0
  2  1  1  0
  2  7  1  0
  3  2  2  0
  4  3  1  0
  4  5  2  0
  5  6  1  0
  6  7  2  0
  9 10  1  0
 10 12  1  0
 10 11  1  0
 12 11  1  0
 12 13  1  0
 13 14  1  0
 14 15  2  0
 16 15  1  0
 17 13  1  0
 17 16  2  0
 18 17  1  0
 19 20  1  0
 21 25  1  0
 22 21  1  0
 23 24  1  0
 23 22  1  0
 24 25  1  0
 25 20  1  0
  3 26  1  0
  4 27  1  0
  6 28  1  0
  8 29  1  0
  8 30  1  0
  8 31  1  0
  9 32  1  0
  9 33  1  0
 10 34  1  6
 11 35  1  0
 11 36  1  0
 12 37  1  6
 15 38  1  0
 16 39  1  0
 18 40  1  0
 18 41  1  0
 19 42  1  0
 19 43  1  0
 20 44  1  0
 21 45  1  0
 22 46  1  0
 22 47  1  0
 23 48  1  0
 23 49  1  0
 24 50  1  0
 24 51  1  0
 25 52  1  1
M  ISO  8  26  14  27  14  28  14  29   8  30   8  31   8  32   8  33   8
M  ISO  8  34  13  35  13  36  13  37  13  38  14  39  14  42   8  43   8
M  ISO  8  44   5  45   5  46  13  47  13  48  13  49  13  50  13  51  13
M  ISO  1  52  13
M  END
>  <minimizedAffinity>  (1) 
-5.01705122

>  <minimizedRMSD>  (1) 
1.71592259

$$$$
