
     RDKit          3D

 56 59  0  0  1  0  0  0  0  0999 V2000
   43.7300   34.2090   41.1580 C   0  0  1  0  0  0  0  0  0  0  0  0
   42.5290   34.9020   40.6430 C   0  0  0  0  0  0  0  0  0  0  0  0
   42.3950   34.9060   39.2730 C   0  0  0  0  0  0  0  0  0  0  0  0
   41.2830   35.5470   38.6980 C   0  0  0  0  0  0  0  0  0  0  0  0
   40.3910   36.1300   39.5150 N   0  0  0  0  0  0  0  0  0  0  0  0
   40.5340   36.1170   40.8440 C   0  0  0  0  0  0  0  0  0  0  0  0
   41.5830   35.5120   41.3620 N   0  0  0  0  0  0  0  0  0  0  0  0
   44.6320   33.8810   39.9760 C   0  0  0  0  0  0  0  0  0  0  0  0
   44.4780   35.1880   42.0130 C   0  0  0  0  0  0  0  0  0  0  0  0
   44.3250   34.8680   43.4770 C   0  0  2  0  0  0  0  0  0  0  0  0
   44.6420   35.8500   44.5070 C   0  0  0  0  0  0  0  0  0  0  0  0
   45.6130   34.7080   44.2200 C   0  0  1  0  0  0  0  0  0  0  0  0
   45.7740   33.8190   45.3450 N   0  0  0  0  0  0  0  0  0  0  0  0
   45.1380   33.8900   46.5200 N   0  0  0  0  0  0  0  0  0  0  0  0
   45.5560   32.8880   47.3090 C   0  0  0  0  0  0  0  0  0  0  0  0
   46.4680   32.2050   46.5730 C   0  0  0  0  0  0  0  0  0  0  0  0
   46.6040   32.8060   45.3140 C   0  0  0  0  0  0  0  0  0  0  0  0
   47.4920   32.2810   44.3880 N   0  0  0  0  0  0  0  0  0  0  0  0
   43.4510   32.9560   41.8570 C   0  0  0  0  0  0  0  0  0  0  0  0
   42.1970   32.4760   42.1520 N   0  0  0  0  0  0  0  0  0  0  0  0
   41.6370   31.5210   41.2360 C   0  0  0  0  0  0  0  0  0  0  0  0
   42.4850   30.9700   40.1690 C   0  0  0  0  0  0  0  0  0  0  0  0
   41.8470   31.1070   38.7770 C   0  0  0  0  0  0  0  0  0  0  0  0
   40.5060   30.4560   38.7580 C   0  0  0  0  0  0  0  0  0  0  0  0
   39.6920   30.8370   39.9720 C   0  0  0  0  0  0  0  0  0  0  0  0
   40.3530   32.0640   40.5910 C   0  0  0  0  0  0  0  0  0  0  0  0
   43.1466   34.4151   38.6373 H   0  0  0  0  0  0  0  0  0  0  0  0
   41.1474   35.5702   37.6066 H   0  0  0  0  0  0  0  0  0  0  0  0
   39.7898   36.6023   41.4926 H   0  0  0  0  0  0  0  0  0  0  0  0
   45.6058   33.5269   40.3451 H   0  0  0  0  0  0  0  0  0  0  0  0
   44.1640   33.0955   39.3645 H   0  0  0  0  0  0  0  0  0  0  0  0
   44.7778   34.7837   39.3645 H   0  0  0  0  0  0  0  0  0  0  0  0
   45.5451   35.1521   41.7484 H   0  0  0  0  0  0  0  0  0  0  0  0
   44.0648   36.1914   41.8329 H   0  0  0  0  0  0  0  0  0  0  0  0
   43.4190   34.2700   43.2994 H   0  0  0  0  0  0  0  0  0  0  0  0
   44.9048   36.8796   44.2226 H   0  0  0  0  0  0  0  0  0  0  0  0
   44.1302   36.2280   45.4043 H   0  0  0  0  0  0  0  0  0  0  0  0
   46.6409   34.5307   43.8707 H   0  0  0  0  0  0  0  0  0  0  0  0
   45.2283   32.6673   48.3356 H   0  0  0  0  0  0  0  0  0  0  0  0
   47.0175   31.3146   46.9126 H   0  0  0  0  0  0  0  0  0  0  0  0
   48.0461   31.4450   44.6224 H   0  0  0  0  0  0  0  0  0  0  0  0
   47.5977   32.7269   43.4656 H   0  0  0  0  0  0  0  0  0  0  0  0
   43.9298   32.1713   41.2529 H   0  0  0  0  0  0  0  0  0  0  0  0
   43.8062   33.2109   42.8664 H   0  0  0  0  0  0  0  0  0  0  0  0
   42.2446   32.0284   43.0784 H   0  0  0  0  0  0  0  0  0  0  0  0
   41.4639   30.6686   41.9094 H   0  0  0  0  0  0  0  0  0  0  0  0
   43.4458   31.5056   40.1705 H   0  0  0  0  0  0  0  0  0  0  0  0
   42.6186   29.8968   40.3702 H   0  0  0  0  0  0  0  0  0  0  0  0
   41.7365   32.1735   38.5315 H   0  0  0  0  0  0  0  0  0  0  0  0
   42.4946   30.6157   38.0359 H   0  0  0  0  0  0  0  0  0  0  0  0
   39.9675   30.7718   37.8523 H   0  0  0  0  0  0  0  0  0  0  0  0
   40.6501   29.3655   38.7657 H   0  0  0  0  0  0  0  0  0  0  0  0
   38.6600   31.0746   39.6744 H   0  0  0  0  0  0  0  0  0  0  0  0
   39.6551   30.0075   40.6935 H   0  0  0  0  0  0  0  0  0  0  0  0
   40.5908   32.8097   39.8181 H   0  0  0  0  0  0  0  0  0  0  0  0
   39.7004   32.5705   41.3174 H   0  0  0  0  0  0  0  0  0  0  0  0
  1  8  1  6
  1 19  1  0
  1  9  1  0
  2  1  1  0
  2  7  1  0
  3  2  2  0
  4  3  1  0
  4  5  2  0
  5  6  1  0
  6  7  2  0
  9 10  1  0
 10 12  1  0
 10 11  1  0
 12 11  1  0
 12 13  1  0
 13 14  1  0
 14 15  2  0
 16 15  1  0
 17 13  1  0
 17 16  2  0
 18 17  1  0
 19 20  1  0
 21 20  1  0
 22 21  1  0
 23 22  1  0
 24 23  1  0
 24 25  1  0
 25 26  1  0
 26 21  1  0
  3 27  1  0
  4 28  1  0
  6 29  1  0
  8 30  1  0
  8 31  1  0
  8 32  1  0
  9 33  1  0
  9 34  1  0
 10 35  1  6
 11 36  1  0
 11 37  1  0
 12 38  1  6
 15 39  1  0
 16 40  1  0
 18 41  1  0
 18 42  1  0
 19 43  1  0
 19 44  1  0
 20 45  1  0
 21 46  1  0
 22 47  1  0
 22 48  1  0
 23 49  1  0
 23 50  1  0
 24 51  1  0
 24 52  1  0
 25 53  1  0
 25 54  1  0
 26 55  1  0
 26 56  1  0
M  ISO  8  27  14  28  14  29  14  30   8  31   8  32   8  33   8  34   8
M  ISO  8  35  13  36  13  37  13  38  13  39  14  40  14  43   8  44   8
M  ISO  8  45   5  46  13  47  13  48  13  49  13  50  13  51  13  52  13
M  ISO  4  53  13  54  13  55  13  56  13
M  END
>  <minimizedAffinity>  (1) 
-5.05995369

>  <minimizedRMSD>  (1) 
2.74836087

$$$$
