
     RDKit          3D

 43 45  0  0  1  0  0  0  0  0999 V2000
   45.7190   34.0000   41.9990 C   0  0  1  0  0  0  0  0  0  0  0  0
   44.4300   34.4050   41.4010 C   0  0  0  0  0  0  0  0  0  0  0  0
   44.2100   33.9340   40.1230 C   0  0  0  0  0  0  0  0  0  0  0  0
   43.0100   34.2750   39.4720 C   0  0  0  0  0  0  0  0  0  0  0  0
   42.1240   35.0520   40.1290 N   0  0  0  0  0  0  0  0  0  0  0  0
   42.3640   35.4970   41.3730 C   0  0  0  0  0  0  0  0  0  0  0  0
   43.4890   35.1670   41.9630 N   0  0  0  0  0  0  0  0  0  0  0  0
   46.8410   34.4080   41.0420 C   0  0  0  0  0  0  0  0  0  0  0  0
   45.8980   34.7980   43.2580 C   0  0  0  0  0  0  0  0  0  0  0  0
   45.1530   34.1930   44.4110 C   0  0  2  0  0  0  0  0  0  0  0  0
   44.8160   34.9570   45.6020 C   0  0  0  0  0  0  0  0  0  0  0  0
   45.9400   33.9410   45.6440 C   0  0  1  0  0  0  0  0  0  0  0  0
   45.6890   32.8740   46.5580 N   0  0  0  0  0  0  0  0  0  0  0  0
   45.1220   32.9470   47.7650 N   0  0  0  0  0  0  0  0  0  0  0  0
   45.0670   31.7250   48.3170 C   0  0  0  0  0  0  0  0  0  0  0  0
   45.6210   30.8880   47.4040 C   0  0  0  0  0  0  0  0  0  0  0  0
   46.0170   31.6320   46.2810 C   0  0  0  0  0  0  0  0  0  0  0  0
   46.6260   30.9670   45.2100 N   0  0  0  0  0  0  0  0  0  0  0  0
   45.8580   32.5640   42.2310 C   0  0  0  0  0  0  0  0  0  0  0  0
   44.8330   31.7470   42.6470 N   0  0  0  0  0  0  0  0  0  0  0  0
   44.6250   30.5740   41.8220 C   0  0  0  0  0  0  0  0  0  0  0  0
   44.9591   33.3033   39.6220 H   0  0  0  0  0  0  0  0  0  0  0  0
   42.7996   33.9172   38.4533 H   0  0  0  0  0  0  0  0  0  0  0  0
   41.6277   36.1295   41.8905 H   0  0  0  0  0  0  0  0  0  0  0  0
   47.7195   34.7274   41.6219 H   0  0  0  0  0  0  0  0  0  0  0  0
   47.1120   33.5509   40.4081 H   0  0  0  0  0  0  0  0  0  0  0  0
   46.4981   35.2390   40.4081 H   0  0  0  0  0  0  0  0  0  0  0  0
   46.9689   34.8359   43.5064 H   0  0  0  0  0  0  0  0  0  0  0  0
   45.4970   35.8073   43.0833 H   0  0  0  0  0  0  0  0  0  0  0  0
   44.5320   33.6004   43.7231 H   0  0  0  0  0  0  0  0  0  0  0  0
   45.0441   36.0321   45.6489 H   0  0  0  0  0  0  0  0  0  0  0  0
   43.8981   35.1267   46.1840 H   0  0  0  0  0  0  0  0  0  0  0  0
   47.0256   33.8717   45.8075 H   0  0  0  0  0  0  0  0  0  0  0  0
   44.6585   31.4580   49.3028 H   0  0  0  0  0  0  0  0  0  0  0  0
   45.7407   29.8012   47.5243 H   0  0  0  0  0  0  0  0  0  0  0  0
   46.7691   29.9478   45.2510 H   0  0  0  0  0  0  0  0  0  0  0  0
   46.9309   31.4969   44.3811 H   0  0  0  0  0  0  0  0  0  0  0  0
   46.2074   32.1410   41.2776 H   0  0  0  0  0  0  0  0  0  0  0  0
   46.5026   32.5590   43.1224 H   0  0  0  0  0  0  0  0  0  0  0  0
   45.0411   31.4330   43.6056 H   0  0  0  0  0  0  0  0  0  0  0  0
   44.4693   29.6958   42.4659 H   0  0  0  0  0  0  0  0  0  0  0  0
   43.7396   30.7247   41.1869 H   0  0  0  0  0  0  0  0  0  0  0  0
   45.5083   30.4111   41.1869 H   0  0  0  0  0  0  0  0  0  0  0  0
  1  8  1  6
  1 19  1  0
  1  9  1  0
  2  7  1  0
  2  1  1  0
  3  2  2  0
  4  3  1  0
  4  5  2  0
  5  6  1  0
  6  7  2  0
  9 10  1  0
 10 11  1  0
 10 12  1  0
 11 12  1  0
 12 13  1  0
 13 14  1  0
 14 15  2  0
 16 15  1  0
 17 13  1  0
 17 16  2  0
 18 17  1  0
 19 20  1  0
 21 20  1  0
  3 22  1  0
  4 23  1  0
  6 24  1  0
  8 25  1  0
  8 26  1  0
  8 27  1  0
  9 28  1  0
  9 29  1  0
 10 30  1  6
 11 31  1  0
 11 32  1  0
 12 33  1  6
 15 34  1  0
 16 35  1  0
 18 36  1  0
 18 37  1  0
 19 38  1  0
 19 39  1  0
 20 40  1  0
 21 41  1  0
 21 42  1  0
 21 43  1  0
M  ISO  8  22  14  23  14  24  14  25   8  26   8  27   8  28   8  29   8
M  ISO  8  30  13  31  13  32  13  33  13  34  14  35  14  38   8  39   8
M  ISO  4  40   5  41   8  42   8  43   8
M  END
>  <minimizedAffinity>  (1) 
-4.46606541

>  <minimizedRMSD>  (1) 
0.172599956

$$$$
