
     RDKit          3D

 37 40  0  0  1  0  0  0  0  0999 V2000
   44.6700   35.6740   44.8810 C   0  0  0  0  0  0  0  0  0  0  0  0
   45.1940   35.5420   43.5710 C   0  0  0  0  0  0  0  0  0  0  0  0
   45.9360   34.3910   43.2940 C   0  0  0  0  0  0  0  0  0  0  0  0
   46.1110   33.4710   44.2860 N   0  0  0  0  0  0  0  0  0  0  0  0
   45.5910   33.6490   45.5110 C   0  0  0  0  0  0  0  0  0  0  0  0
   44.8790   34.7380   45.8030 N   0  0  0  0  0  0  0  0  0  0  0  0
   45.8090   32.6420   46.5470 N   0  0  0  0  0  0  0  0  0  0  0  0
   45.2550   32.8240   47.8760 C   0  0  0  0  0  0  0  0  0  0  0  0
   46.1610   32.2850   48.9490 C   0  0  0  0  0  0  0  0  0  0  0  0
   47.5350   32.0740   48.4120 C   0  0  0  0  0  0  0  0  0  0  0  0
   47.4140   30.9690   47.3570 C   0  0  0  0  0  0  0  0  0  0  0  0
   46.5920   31.4630   46.2190 C   0  0  1  0  0  0  0  0  0  0  0  0
   45.7480   30.4040   45.5950 C   0  0  0  0  0  0  0  0  0  0  0  0
   45.7250   29.9900   44.3250 N   0  0  0  0  0  0  0  0  0  0  0  0
   44.8690   29.0330   44.1460 O   0  0  0  0  0  0  0  0  0  0  0  0
   44.3030   28.7970   45.3140 C   0  0  0  0  0  0  0  0  0  0  0  0
   44.8190   29.6280   46.2460 N   0  0  0  0  0  0  0  0  0  0  0  0
   43.3000   27.8050   45.5170 N   0  0  0  0  0  0  0  0  0  0  0  0
   42.0290   28.2070   45.2470 C   0  0  0  0  0  0  0  0  0  0  0  0
   41.1720   27.1410   45.4900 C   0  0  0  0  0  0  0  0  0  0  0  0
   41.9640   26.1220   45.9030 N   0  0  0  0  0  0  0  0  0  0  0  0
   43.2490   26.5210   45.9190 C   0  0  0  0  0  0  0  0  0  0  0  0
   44.0803   36.5657   45.1400 H   0  0  0  0  0  0  0  0  0  0  0  0
   45.0238   36.3128   42.8049 H   0  0  0  0  0  0  0  0  0  0  0  0
   46.3703   34.2299   42.2963 H   0  0  0  0  0  0  0  0  0  0  0  0
   45.0997   33.8989   48.0507 H   0  0  0  0  0  0  0  0  0  0  0  0
   44.3067   32.2688   47.9250 H   0  0  0  0  0  0  0  0  0  0  0  0
   46.2036   33.0027   49.7815 H   0  0  0  0  0  0  0  0  0  0  0  0
   45.7636   31.3213   49.3003 H   0  0  0  0  0  0  0  0  0  0  0  0
   47.9120   33.0000   47.9534 H   0  0  0  0  0  0  0  0  0  0  0  0
   48.2392   31.7932   49.2090 H   0  0  0  0  0  0  0  0  0  0  0  0
   48.4160   30.6954   46.9949 H   0  0  0  0  0  0  0  0  0  0  0  0
   46.9333   30.0855   47.8024 H   0  0  0  0  0  0  0  0  0  0  0  0
   47.3261   31.7694   45.4593 H   0  0  0  0  0  0  0  0  0  0  0  0
   41.7306   29.2059   44.8961 H   0  0  0  0  0  0  0  0  0  0  0  0
   40.0785   27.1270   45.3718 H   0  0  0  0  0  0  0  0  0  0  0  0
   44.1111   25.9033   46.2109 H   0  0  0  0  0  0  0  0  0  0  0  0
  1  6  2  0
  2  1  1  0
  3  2  2  0
  3  4  1  0
  4  5  2  0
  5  6  1  0
  5  7  1  0
  7  8  1  0
  8  9  1  0
 10  9  1  0
 11 10  1  0
 12  7  1  0
 12 11  1  0
 13 12  1  0
 13 17  1  0
 14 13  2  0
 15 14  1  0
 15 16  1  0
 16 18  1  0
 16 17  2  0
 18 22  1  0
 19 20  2  0
 19 18  1  0
 20 21  1  0
 21 22  2  0
  1 23  1  0
  2 24  1  0
  3 25  1  0
  8 26  1  0
  8 27  1  0
  9 28  1  0
  9 29  1  0
 10 30  1  0
 10 31  1  0
 11 32  1  0
 11 33  1  0
 12 34  1  6
 19 35  1  0
 20 36  1  0
 22 37  1  0
M  ISO  8  23  14  24  14  25  14  26  13  27  13  28  13  29  13  30  13
M  ISO  7  31  13  32  13  33  13  34  13  35  14  36  14  37  14
M  END
>  <minimizedAffinity>  (1) 
-5.69784117

>  <minimizedRMSD>  (1) 
0.464104682

$$$$
