
     RDKit          3D

 43 45  0  0  1  0  0  0  0  0999 V2000
   43.9380   34.3800   41.3930 C   0  0  1  0  0  0  0  0  0  0  0  0
   42.6880   34.9120   40.8120 C   0  0  0  0  0  0  0  0  0  0  0  0
   42.6380   34.8990   39.4340 C   0  0  0  0  0  0  0  0  0  0  0  0
   41.4850   35.3870   38.7900 C   0  0  0  0  0  0  0  0  0  0  0  0
   40.4760   35.8470   39.5500 N   0  0  0  0  0  0  0  0  0  0  0  0
   40.5480   35.8490   40.8910 C   0  0  0  0  0  0  0  0  0  0  0  0
   41.6310   35.3910   41.4640 N   0  0  0  0  0  0  0  0  0  0  0  0
   44.9810   34.2650   40.2790 C   0  0  0  0  0  0  0  0  0  0  0  0
   44.4520   35.4080   42.3550 C   0  0  0  0  0  0  0  0  0  0  0  0
   44.2710   34.9750   43.7790 C   0  0  2  0  0  0  0  0  0  0  0  0
   44.6560   35.8390   44.8920 C   0  0  0  0  0  0  0  0  0  0  0  0
   45.5050   34.6500   44.5310 C   0  0  1  0  0  0  0  0  0  0  0  0
   45.5830   33.6730   45.5700 N   0  0  0  0  0  0  0  0  0  0  0  0
   45.2600   33.8040   46.8630 N   0  0  0  0  0  0  0  0  0  0  0  0
   45.4810   32.6510   47.5080 C   0  0  0  0  0  0  0  0  0  0  0  0
   45.9540   31.7940   46.5730 C   0  0  0  0  0  0  0  0  0  0  0  0
   46.0210   32.4430   45.3300 C   0  0  0  0  0  0  0  0  0  0  0  0
   46.4940   31.7630   44.2110 N   0  0  0  0  0  0  0  0  0  0  0  0
   43.8130   33.0580   42.0030 C   0  0  0  0  0  0  0  0  0  0  0  0
   42.6470   32.3210   42.0480 N   0  0  0  0  0  0  0  0  0  0  0  0
   42.7710   30.9880   42.5330 C   0  0  0  0  0  0  0  0  0  0  0  0
   41.9870   30.0860   42.1250 O   0  0  0  0  0  0  0  0  0  0  0  0
   43.6740   30.4770   43.4470 O   0  0  0  0  0  0  0  0  0  0  0  0
   43.4851   34.5137   38.8475 H   0  0  0  0  0  0  0  0  0  0  0  0
   41.4116   35.3918   37.6925 H   0  0  0  0  0  0  0  0  0  0  0  0
   39.7117   36.2288   41.4963 H   0  0  0  0  0  0  0  0  0  0  0  0
   45.9813   34.1547   40.7232 H   0  0  0  0  0  0  0  0  0  0  0  0
   44.7573   33.3861   39.6565 H   0  0  0  0  0  0  0  0  0  0  0  0
   44.9541   35.1715   39.6565 H   0  0  0  0  0  0  0  0  0  0  0  0
   45.5233   35.5697   42.1651 H   0  0  0  0  0  0  0  0  0  0  0  0
   43.8802   36.3354   42.2035 H   0  0  0  0  0  0  0  0  0  0  0  0
   43.3291   34.4637   43.5315 H   0  0  0  0  0  0  0  0  0  0  0  0
   45.0235   36.8572   44.6966 H   0  0  0  0  0  0  0  0  0  0  0  0
   44.1626   36.1935   45.8090 H   0  0  0  0  0  0  0  0  0  0  0  0
   46.5194   34.4041   44.1838 H   0  0  0  0  0  0  0  0  0  0  0  0
   45.3131   32.4437   48.5752 H   0  0  0  0  0  0  0  0  0  0  0  0
   46.2419   30.7487   46.7588 H   0  0  0  0  0  0  0  0  0  0  0  0
   46.7814   30.7771   44.2908 H   0  0  0  0  0  0  0  0  0  0  0  0
   46.5566   32.2458   43.3033 H   0  0  0  0  0  0  0  0  0  0  0  0
   44.5436   32.4223   41.4814 H   0  0  0  0  0  0  0  0  0  0  0  0
   43.9307   33.3145   43.0662 H   0  0  0  0  0  0  0  0  0  0  0  0
   41.7420   32.7115   41.7489 H   0  0  0  0  0  0  0  0  0  0  0  0
   43.6414   29.5184   43.6921 H   0  0  0  0  0  0  0  0  0  0  0  0
  1  8  1  6
  1 19  1  0
  1  9  1  0
  2  1  1  0
  2  7  1  0
  3  2  2  0
  4  3  1  0
  4  5  2  0
  5  6  1  0
  6  7  2  0
  9 10  1  0
 10 12  1  0
 10 11  1  0
 12 11  1  0
 12 13  1  0
 13 14  1  0
 14 15  2  0
 16 15  1  0
 17 13  1  0
 17 16  2  0
 18 17  1  0
 19 20  1  0
 20 21  1  0
 21 23  1  0
 22 21  2  0
  3 24  1  0
  4 25  1  0
  6 26  1  0
  8 27  1  0
  8 28  1  0
  8 29  1  0
  9 30  1  0
  9 31  1  0
 10 32  1  1
 11 33  1  0
 11 34  1  0
 12 35  1  6
 15 36  1  0
 16 37  1  0
 18 38  1  0
 18 39  1  0
 19 40  1  0
 19 41  1  0
 20 42  1  0
 23 43  1  0
M  ISO  8  24  14  25  14  26  14  27   8  28   8  29   8  30   8  31   8
M  ISO  8  32  13  33  13  34  13  35  13  36  14  37  14  40   8  41   8
M  ISO  1  43   3
M  END
>  <minimizedAffinity>  (1) 
-4.93706036

>  <minimizedRMSD>  (1) 
1.86183238

$$$$
