
     RDKit          3D

 53 56  0  0  1  0  0  0  0  0999 V2000
   43.4740   34.1110   40.8320 C   0  0  1  0  0  0  0  0  0  0  0  0
   42.3640   34.8450   40.1710 C   0  0  0  0  0  0  0  0  0  0  0  0
   42.4570   34.9200   38.8090 C   0  0  0  0  0  0  0  0  0  0  0  0
   41.4690   35.5940   38.0750 C   0  0  0  0  0  0  0  0  0  0  0  0
   40.4620   36.1430   38.7530 N   0  0  0  0  0  0  0  0  0  0  0  0
   40.3820   36.0620   40.0960 C   0  0  0  0  0  0  0  0  0  0  0  0
   41.3250   35.4240   40.7430 N   0  0  0  0  0  0  0  0  0  0  0  0
   44.3540   33.5020   39.7600 C   0  0  0  0  0  0  0  0  0  0  0  0
   44.3220   35.1480   41.5260 C   0  0  0  0  0  0  0  0  0  0  0  0
   44.3880   34.9110   43.0020 C   0  0  2  0  0  0  0  0  0  0  0  0
   44.9360   35.9390   43.8880 C   0  0  0  0  0  0  0  0  0  0  0  0
   45.7310   34.7030   43.5890 C   0  0  1  0  0  0  0  0  0  0  0  0
   45.9860   33.8940   44.7400 N   0  0  0  0  0  0  0  0  0  0  0  0
   45.3960   33.9290   45.9310 N   0  0  0  0  0  0  0  0  0  0  0  0
   45.9310   32.9980   46.7330 C   0  0  0  0  0  0  0  0  0  0  0  0
   46.8750   32.3770   46.0080 C   0  0  0  0  0  0  0  0  0  0  0  0
   46.9200   32.9450   44.7250 C   0  0  0  0  0  0  0  0  0  0  0  0
   47.8170   32.4710   43.7720 N   0  0  0  0  0  0  0  0  0  0  0  0
   43.0600   33.0220   41.7060 C   0  0  0  0  0  0  0  0  0  0  0  0
   41.6990   32.7820   42.0350 N   0  0  0  0  0  0  0  0  0  0  0  0
   41.1990   31.5520   41.4770 C   0  0  0  0  0  0  0  0  0  0  0  0
   40.1750   31.4230   40.7590 O   0  0  0  0  0  0  0  0  0  0  0  0
   41.8000   30.3420   41.6720 O   0  0  0  0  0  0  0  0  0  0  0  0
   41.6340   29.7650   42.9310 C   0  0  0  0  0  0  0  0  0  0  0  0
   42.7380   29.0580   43.4270 C   0  0  0  0  0  0  0  0  0  0  0  0
   42.5970   28.4770   44.6750 C   0  0  0  0  0  0  0  0  0  0  0  0
   41.4170   28.5930   45.3890 C   0  0  0  0  0  0  0  0  0  0  0  0
   40.3320   29.2900   44.8970 C   0  0  0  0  0  0  0  0  0  0  0  0
   40.4910   29.8640   43.6520 C   0  0  0  0  0  0  0  0  0  0  0  0
   43.3059   34.4522   38.2888 H   0  0  0  0  0  0  0  0  0  0  0  0
   41.5240   35.6665   36.9788 H   0  0  0  0  0  0  0  0  0  0  0  0
   39.5422   36.5222   40.6373 H   0  0  0  0  0  0  0  0  0  0  0  0
   45.1705   32.9369   40.2332 H   0  0  0  0  0  0  0  0  0  0  0  0
   43.7542   32.8249   39.1342 H   0  0  0  0  0  0  0  0  0  0  0  0
   44.7764   34.3020   39.1342 H   0  0  0  0  0  0  0  0  0  0  0  0
   45.3408   35.1101   41.1129 H   0  0  0  0  0  0  0  0  0  0  0  0
   43.8647   36.1341   41.3570 H   0  0  0  0  0  0  0  0  0  0  0  0
   43.4374   34.3577   42.9901 H   0  0  0  0  0  0  0  0  0  0  0  0
   45.2514   36.9091   43.4763 H   0  0  0  0  0  0  0  0  0  0  0  0
   44.5920   36.4403   44.8047 H   0  0  0  0  0  0  0  0  0  0  0  0
   46.6836   34.4012   43.1291 H   0  0  0  0  0  0  0  0  0  0  0  0
   45.6526   32.7854   47.7757 H   0  0  0  0  0  0  0  0  0  0  0  0
   47.5122   31.5536   46.3630 H   0  0  0  0  0  0  0  0  0  0  0  0
   48.4606   31.7023   44.0080 H   0  0  0  0  0  0  0  0  0  0  0  0
   47.8371   32.8890   42.8308 H   0  0  0  0  0  0  0  0  0  0  0  0
   43.4285   32.0975   41.2375 H   0  0  0  0  0  0  0  0  0  0  0  0
   43.4729   33.3410   42.6744 H   0  0  0  0  0  0  0  0  0  0  0  0
   41.1307   33.4194   42.6109 H   0  0  0  0  0  0  0  0  0  0  0  0
   43.6715   28.9693   42.8519 H   0  0  0  0  0  0  0  0  0  0  0  0
   43.4371   27.9134   45.1070 H   0  0  0  0  0  0  0  0  0  0  0  0
   41.3417   28.1159   46.3773 H   0  0  0  0  0  0  0  0  0  0  0  0
   39.3943   29.3827   45.4646 H   0  0  0  0  0  0  0  0  0  0  0  0
   39.6495   30.4289   43.2245 H   0  0  0  0  0  0  0  0  0  0  0  0
  1  8  1  6
  1  9  1  0
  1 19  1  0
  2  7  1  0
  2  1  1  0
  3  2  2  0
  4  5  2  0
  4  3  1  0
  5  6  1  0
  6  7  2  0
  9 10  1  0
 10 12  1  0
 10 11  1  0
 12 11  1  0
 12 13  1  0
 13 14  1  0
 14 15  2  0
 16 15  1  0
 17 13  1  0
 17 16  2  0
 18 17  1  0
 19 20  1  0
 21 23  1  0
 21 20  1  0
 22 21  2  0
 23 24  1  0
 24 25  2  0
 24 29  1  0
 25 26  1  0
 26 27  2  0
 28 27  1  0
 29 28  2  0
  3 30  1  0
  4 31  1  0
  6 32  1  0
  8 33  1  0
  8 34  1  0
  8 35  1  0
  9 36  1  0
  9 37  1  0
 10 38  1  1
 11 39  1  0
 11 40  1  0
 12 41  1  6
 15 42  1  0
 16 43  1  0
 18 44  1  0
 18 45  1  0
 19 46  1  0
 19 47  1  0
 20 48  1  0
 25 49  1  0
 26 50  1  0
 27 51  1  0
 28 52  1  0
 29 53  1  0
M  ISO  8  30  14  31  14  32  14  33   8  34   8  35   8  36   8  37   8
M  ISO  8  38  13  39  13  40  13  41  13  42  14  43  14  46   8  47   8
M  ISO  5  49  14  50  14  51  14  52  14  53  14
M  END
>  <minimizedAffinity>  (1) 
-5.68381786

>  <minimizedRMSD>  (1) 
1.66652226

$$$$
