
     RDKit          3D

 50 53  0  0  1  0  0  0  0  0999 V2000
   43.4990   33.6170   41.0940 C   0  0  1  0  0  0  0  0  0  0  0  0
   42.4110   34.5480   40.6950 C   0  0  0  0  0  0  0  0  0  0  0  0
   42.2400   34.6720   39.3440 C   0  0  0  0  0  0  0  0  0  0  0  0
   41.2450   35.5310   38.8520 C   0  0  0  0  0  0  0  0  0  0  0  0
   40.4950   36.2010   39.7270 N   0  0  0  0  0  0  0  0  0  0  0  0
   40.6810   36.0620   41.0530 C   0  0  0  0  0  0  0  0  0  0  0  0
   41.6170   35.2530   41.4790 N   0  0  0  0  0  0  0  0  0  0  0  0
   44.1830   33.1080   39.8420 C   0  0  0  0  0  0  0  0  0  0  0  0
   44.5380   34.4440   41.8100 C   0  0  0  0  0  0  0  0  0  0  0  0
   44.5510   34.1540   43.2800 C   0  0  2  0  0  0  0  0  0  0  0  0
   45.1100   35.1310   44.2170 C   0  0  0  0  0  0  0  0  0  0  0  0
   45.8680   33.8880   43.8940 C   0  0  1  0  0  0  0  0  0  0  0  0
   46.0690   33.0240   45.0240 N   0  0  0  0  0  0  0  0  0  0  0  0
   46.6260   33.3000   46.1970 N   0  0  0  0  0  0  0  0  0  0  0  0
   46.6220   32.2080   46.9710 C   0  0  0  0  0  0  0  0  0  0  0  0
   46.0450   31.2370   46.2420 C   0  0  0  0  0  0  0  0  0  0  0  0
   45.6750   31.7460   44.9690 C   0  0  0  0  0  0  0  0  0  0  0  0
   45.0760   30.9180   44.0440 N   0  0  0  0  0  0  0  0  0  0  0  0
   43.0640   32.4520   41.8500 C   0  0  0  0  0  0  0  0  0  0  0  0
   41.6960   32.1220   42.0430 N   0  0  0  0  0  0  0  0  0  0  0  0
   41.4740   30.7060   42.1590 C   0  0  0  0  0  0  0  0  0  0  0  0
   40.6850   30.0180   41.4520 O   0  0  0  0  0  0  0  0  0  0  0  0
   42.1220   29.9440   43.0870 O   0  0  0  0  0  0  0  0  0  0  0  0
   41.3780   29.3170   44.0760 C   0  0  0  0  0  0  0  0  0  0  0  0
   41.6460   28.0920   44.6850 C   0  0  0  0  0  0  0  0  0  0  0  0
   40.6590   27.8090   45.6320 C   0  0  0  0  0  0  0  0  0  0  0  0
   39.8170   28.8710   45.5740 N   0  0  0  0  0  0  0  0  0  0  0  0
   40.2440   29.7340   44.6700 N   0  0  0  0  0  0  0  0  0  0  0  0
   42.8762   34.1039   38.6494 H   0  0  0  0  0  0  0  0  0  0  0  0
   41.0878   35.6486   37.7697 H   0  0  0  0  0  0  0  0  0  0  0  0
   40.0564   36.6193   41.7666 H   0  0  0  0  0  0  0  0  0  0  0  0
   45.0363   32.4730   40.1227 H   0  0  0  0  0  0  0  0  0  0  0  0
   43.4685   32.5201   39.2471 H   0  0  0  0  0  0  0  0  0  0  0  0
   44.5409   33.9612   39.2471 H   0  0  0  0  0  0  0  0  0  0  0  0
   45.5289   34.2142   41.3913 H   0  0  0  0  0  0  0  0  0  0  0  0
   44.2912   35.5067   41.6694 H   0  0  0  0  0  0  0  0  0  0  0  0
   43.5837   33.6334   43.2231 H   0  0  0  0  0  0  0  0  0  0  0  0
   45.4669   36.1043   43.8491 H   0  0  0  0  0  0  0  0  0  0  0  0
   44.7592   35.6099   45.1431 H   0  0  0  0  0  0  0  0  0  0  0  0
   46.8238   33.5753   43.4483 H   0  0  0  0  0  0  0  0  0  0  0  0
   47.0119   32.1224   47.9960 H   0  0  0  0  0  0  0  0  0  0  0  0
   45.8836   30.2030   46.5809 H   0  0  0  0  0  0  0  0  0  0  0  0
   44.8815   29.9350   44.2824 H   0  0  0  0  0  0  0  0  0  0  0  0
   44.8229   31.2822   43.1144 H   0  0  0  0  0  0  0  0  0  0  0  0
   43.5187   31.5818   41.3541 H   0  0  0  0  0  0  0  0  0  0  0  0
   43.3708   32.7247   42.8705 H   0  0  0  0  0  0  0  0  0  0  0  0
   40.9428   32.8227   42.0944 H   0  0  0  0  0  0  0  0  0  0  0  0
   42.5055   27.4454   44.4544 H   0  0  0  0  0  0  0  0  0  0  0  0
   40.5818   26.9233   46.2798 H   0  0  0  0  0  0  0  0  0  0  0  0
   38.9706   28.9871   46.1494 H   0  0  0  0  0  0  0  0  0  0  0  0
  1  8  1  6
  1  9  1  0
  1 19  1  0
  2  1  1  0
  2  7  1  0
  3  2  2  0
  4  3  1  0
  4  5  2  0
  5  6  1  0
  6  7  2  0
  9 10  1  0
 10 12  1  0
 10 11  1  0
 12 11  1  0
 12 13  1  0
 13 14  1  0
 14 15  2  0
 16 15  1  0
 17 13  1  0
 17 16  2  0
 18 17  1  0
 19 20  1  0
 20 21  1  0
 21 23  1  0
 22 21  2  0
 23 24  1  0
 24 28  2  0
 24 25  1  0
 25 26  2  0
 27 26  1  0
 28 27  1  0
  3 29  1  0
  4 30  1  0
  6 31  1  0
  8 32  1  0
  8 33  1  0
  8 34  1  0
  9 35  1  0
  9 36  1  0
 10 37  1  1
 11 38  1  0
 11 39  1  0
 12 40  1  6
 15 41  1  0
 16 42  1  0
 18 43  1  0
 18 44  1  0
 19 45  1  0
 19 46  1  0
 20 47  1  0
 25 48  1  0
 26 49  1  0
 27 50  1  0
M  ISO  8  29  14  30  14  31  14  32   8  33   8  34   8  35   8  36   8
M  ISO  8  37  13  38  13  39  13  40  13  41  14  42  14  45   8  46   8
M  ISO  3  48  14  49  14  50   9
M  END
>  <minimizedAffinity>  (1) 
-5.25443172

>  <minimizedRMSD>  (1) 
1.7073698

$$$$
