
     RDKit          3D

 50 53  0  0  1  0  0  0  0  0999 V2000
   43.4780   34.0200   40.7440 C   0  0  1  0  0  0  0  0  0  0  0  0
   42.3650   34.7960   40.1330 C   0  0  0  0  0  0  0  0  0  0  0  0
   42.4290   34.8940   38.7700 C   0  0  0  0  0  0  0  0  0  0  0  0
   41.4300   35.6160   38.0920 C   0  0  0  0  0  0  0  0  0  0  0  0
   40.4480   36.1830   38.8090 N   0  0  0  0  0  0  0  0  0  0  0  0
   40.4160   36.0670   40.1440 C   0  0  0  0  0  0  0  0  0  0  0  0
   41.3580   35.3900   40.7470 N   0  0  0  0  0  0  0  0  0  0  0  0
   44.2870   33.3900   39.6280 C   0  0  0  0  0  0  0  0  0  0  0  0
   44.4050   35.0210   41.3880 C   0  0  0  0  0  0  0  0  0  0  0  0
   44.4360   34.8560   42.8760 C   0  0  2  0  0  0  0  0  0  0  0  0
   44.9850   35.9180   43.7230 C   0  0  0  0  0  0  0  0  0  0  0  0
   45.7660   34.6610   43.4970 C   0  0  1  0  0  0  0  0  0  0  0  0
   45.9810   33.8980   44.6940 N   0  0  0  0  0  0  0  0  0  0  0  0
   45.3570   33.9980   45.8750 N   0  0  0  0  0  0  0  0  0  0  0  0
   45.8550   33.0980   46.7340 C   0  0  0  0  0  0  0  0  0  0  0  0
   46.8090   32.4350   46.0490 C   0  0  0  0  0  0  0  0  0  0  0  0
   46.9000   32.9390   44.7390 C   0  0  0  0  0  0  0  0  0  0  0  0
   47.8120   32.4230   43.8450 N   0  0  0  0  0  0  0  0  0  0  0  0
   43.0670   32.9490   41.6350 C   0  0  0  0  0  0  0  0  0  0  0  0
   41.7200   32.7490   42.0310 N   0  0  0  0  0  0  0  0  0  0  0  0
   41.1680   31.5120   41.5670 C   0  0  0  0  0  0  0  0  0  0  0  0
   40.0820   31.3640   40.9440 O   0  0  0  0  0  0  0  0  0  0  0  0
   41.7730   30.3060   41.7550 O   0  0  0  0  0  0  0  0  0  0  0  0
   41.8040   29.7990   43.0820 C   0  0  0  0  0  0  0  0  0  0  0  0
   41.1850   28.4000   43.2770 C   0  0  0  0  0  0  0  0  0  0  0  0
   40.6370   29.6340   43.8980 C   0  0  0  0  0  0  0  0  0  0  0  0
   43.2484   34.4160   38.2132 H   0  0  0  0  0  0  0  0  0  0  0  0
   41.4535   35.7137   36.9966 H   0  0  0  0  0  0  0  0  0  0  0  0
   39.6076   36.5353   40.7247 H   0  0  0  0  0  0  0  0  0  0  0  0
   45.0853   32.7684   40.0597 H   0  0  0  0  0  0  0  0  0  0  0  0
   43.6296   32.7636   39.0072 H   0  0  0  0  0  0  0  0  0  0  0  0
   44.7333   34.1808   39.0072 H   0  0  0  0  0  0  0  0  0  0  0  0
   45.4204   34.8764   40.9903 H   0  0  0  0  0  0  0  0  0  0  0  0
   44.0372   36.0320   41.1587 H   0  0  0  0  0  0  0  0  0  0  0  0
   43.4769   34.3173   42.8731 H   0  0  0  0  0  0  0  0  0  0  0  0
   45.3211   36.8631   43.2716 H   0  0  0  0  0  0  0  0  0  0  0  0
   44.6330   36.4665   44.6091 H   0  0  0  0  0  0  0  0  0  0  0  0
   46.7241   34.3292   43.0705 H   0  0  0  0  0  0  0  0  0  0  0  0
   45.5499   32.9344   47.7781 H   0  0  0  0  0  0  0  0  0  0  0  0
   47.4255   31.6196   46.4552 H   0  0  0  0  0  0  0  0  0  0  0  0
   48.4351   31.6543   44.1309 H   0  0  0  0  0  0  0  0  0  0  0  0
   47.8709   32.8059   42.8906 H   0  0  0  0  0  0  0  0  0  0  0  0
   43.3827   32.0134   41.1503 H   0  0  0  0  0  0  0  0  0  0  0  0
   43.5315   33.2599   42.5824 H   0  0  0  0  0  0  0  0  0  0  0  0
   41.1905   33.4273   42.5971 H   0  0  0  0  0  0  0  0  0  0  0  0
   42.7591   30.3127   43.2659 H   0  0  0  0  0  0  0  0  0  0  0  0
   40.6517   27.9042   42.4525 H   0  0  0  0  0  0  0  0  0  0  0  0
   41.5307   27.4162   43.6273 H   0  0  0  0  0  0  0  0  0  0  0  0
   40.7163   29.7710   44.9866 H   0  0  0  0  0  0  0  0  0  0  0  0
   39.6418   30.1025   43.8960 H   0  0  0  0  0  0  0  0  0  0  0  0
  1  8  1  6
  1  9  1  0
  1 19  1  0
  2  1  1  0
  2  7  1  0
  3  2  2  0
  4  3  1  0
  4  5  2  0
  5  6  1  0
  6  7  2  0
  9 10  1  0
 10 12  1  0
 10 11  1  0
 12 11  1  0
 12 13  1  0
 13 17  1  0
 13 14  1  0
 14 15  2  0
 16 15  1  0
 17 16  2  0
 18 17  1  0
 19 20  1  0
 21 23  1  0
 21 20  1  0
 22 21  2  0
 23 24  1  0
 24 25  1  0
 24 26  1  0
 25 26  1  0
  3 27  1  0
  4 28  1  0
  6 29  1  0
  8 30  1  0
  8 31  1  0
  8 32  1  0
  9 33  1  0
  9 34  1  0
 10 35  1  1
 11 36  1  0
 11 37  1  0
 12 38  1  6
 15 39  1  0
 16 40  1  0
 18 41  1  0
 18 42  1  0
 19 43  1  0
 19 44  1  0
 20 45  1  0
 24 46  1  0
 25 47  1  0
 25 48  1  0
 26 49  1  0
 26 50  1  0
M  ISO  8  27  14  28  14  29  14  30   8  31   8  32   8  33   8  34   8
M  ISO  8  35  13  36  13  37  13  38  13  39  14  40  14  43   8  44   8
M  ISO  5  46  13  47  13  48  13  49  13  50  13
M  END
>  <minimizedAffinity>  (1) 
-4.94993114

>  <minimizedRMSD>  (1) 
1.3846308

$$$$
