
     RDKit          3D

 46 48  0  0  1  0  0  0  0  0999 V2000
   43.9140   34.3490   41.3740 C   0  0  1  0  0  0  0  0  0  0  0  0
   42.6560   34.9000   40.8050 C   0  0  0  0  0  0  0  0  0  0  0  0
   42.5990   34.8740   39.4400 C   0  0  0  0  0  0  0  0  0  0  0  0
   41.4570   35.3800   38.7940 C   0  0  0  0  0  0  0  0  0  0  0  0
   40.4670   35.8680   39.5440 N   0  0  0  0  0  0  0  0  0  0  0  0
   40.5490   35.8800   40.8870 C   0  0  0  0  0  0  0  0  0  0  0  0
   41.6240   35.4020   41.4570 N   0  0  0  0  0  0  0  0  0  0  0  0
   44.9550   34.2960   40.2720 C   0  0  0  0  0  0  0  0  0  0  0  0
   44.4300   35.3660   42.3620 C   0  0  0  0  0  0  0  0  0  0  0  0
   44.2960   34.8800   43.7720 C   0  0  2  0  0  0  0  0  0  0  0  0
   44.7230   35.7260   44.8870 C   0  0  0  0  0  0  0  0  0  0  0  0
   45.5490   34.5460   44.4820 C   0  0  1  0  0  0  0  0  0  0  0  0
   45.6510   33.5390   45.5020 N   0  0  0  0  0  0  0  0  0  0  0  0
   45.4450   33.6520   46.8130 N   0  0  0  0  0  0  0  0  0  0  0  0
   45.6490   32.4690   47.4130 C   0  0  0  0  0  0  0  0  0  0  0  0
   45.9900   31.6140   46.4190 C   0  0  0  0  0  0  0  0  0  0  0  0
   45.9970   32.2890   45.1710 C   0  0  0  0  0  0  0  0  0  0  0  0
   46.3330   31.6100   44.0220 N   0  0  0  0  0  0  0  0  0  0  0  0
   43.8070   33.0070   41.9270 C   0  0  0  0  0  0  0  0  0  0  0  0
   42.5600   32.3590   42.1370 N   0  0  0  0  0  0  0  0  0  0  0  0
   42.6880   30.9310   42.2550 C   0  0  0  0  0  0  0  0  0  0  0  0
   42.0670   30.0730   41.5660 O   0  0  0  0  0  0  0  0  0  0  0  0
   43.5240   30.3410   43.1590 O   0  0  0  0  0  0  0  0  0  0  0  0
   43.5440   28.9270   43.2210 C   0  0  0  0  0  0  0  0  0  0  0  0
   43.4347   34.4630   38.8547 H   0  0  0  0  0  0  0  0  0  0  0  0
   41.3816   35.3737   37.6966 H   0  0  0  0  0  0  0  0  0  0  0  0
   39.7261   36.2848   41.4945 H   0  0  0  0  0  0  0  0  0  0  0  0
   45.9591   34.2449   40.7183 H   0  0  0  0  0  0  0  0  0  0  0  0
   44.7847   33.4054   39.6493 H   0  0  0  0  0  0  0  0  0  0  0  0
   44.8761   35.1993   39.6493 H   0  0  0  0  0  0  0  0  0  0  0  0
   45.4916   35.5622   42.1511 H   0  0  0  0  0  0  0  0  0  0  0  0
   43.8329   36.2837   42.2556 H   0  0  0  0  0  0  0  0  0  0  0  0
   43.3539   34.3611   43.5415 H   0  0  0  0  0  0  0  0  0  0  0  0
   45.0889   36.7455   44.6954 H   0  0  0  0  0  0  0  0  0  0  0  0
   44.2620   36.0681   45.8253 H   0  0  0  0  0  0  0  0  0  0  0  0
   46.5542   34.3086   44.1035 H   0  0  0  0  0  0  0  0  0  0  0  0
   45.5584   32.2416   48.4854 H   0  0  0  0  0  0  0  0  0  0  0  0
   46.2274   30.5491   46.5593 H   0  0  0  0  0  0  0  0  0  0  0  0
   46.5634   30.6070   44.0652 H   0  0  0  0  0  0  0  0  0  0  0  0
   46.3540   32.1048   43.1189 H   0  0  0  0  0  0  0  0  0  0  0  0
   44.3796   32.3535   41.2524 H   0  0  0  0  0  0  0  0  0  0  0  0
   44.1532   33.1634   42.9593 H   0  0  0  0  0  0  0  0  0  0  0  0
   41.6611   32.8581   42.1982 H   0  0  0  0  0  0  0  0  0  0  0  0
   43.5485   28.6061   44.2732 H   0  0  0  0  0  0  0  0  0  0  0  0
   42.6514   28.5253   42.7190 H   0  0  0  0  0  0  0  0  0  0  0  0
   44.4476   28.5507   42.7190 H   0  0  0  0  0  0  0  0  0  0  0  0
  1  8  1  6
  1 19  1  0
  1  9  1  0
  2  1  1  0
  2  7  1  0
  3  2  2  0
  4  3  1  0
  4  5  2  0
  5  6  1  0
  6  7  2  0
  9 10  1  0
 10 12  1  0
 10 11  1  0
 12 11  1  0
 12 13  1  0
 13 14  1  0
 14 15  2  0
 16 15  1  0
 17 13  1  0
 17 16  2  0
 18 17  1  0
 19 20  1  0
 20 21  1  0
 21 23  1  0
 22 21  2  0
 23 24  1  0
  3 25  1  0
  4 26  1  0
  6 27  1  0
  8 28  1  0
  8 29  1  0
  8 30  1  0
  9 31  1  0
  9 32  1  0
 10 33  1  1
 11 34  1  0
 11 35  1  0
 12 36  1  6
 15 37  1  0
 16 38  1  0
 18 39  1  0
 18 40  1  0
 19 41  1  0
 19 42  1  0
 20 43  1  0
 24 44  1  0
 24 45  1  0
 24 46  1  0
M  ISO  8  25  14  26  14  27  14  28   8  29   8  30   8  31   8  32   8
M  ISO  8  33  13  34  13  35  13  36  13  37  14  38  14  41   8  42   8
M  ISO  3  44   8  45   8  46   8
M  END
>  <minimizedAffinity>  (1) 
-4.54900932

>  <minimizedRMSD>  (1) 
0.22770606

$$$$
