
     RDKit          3D

 52 54  0  0  1  0  0  0  0  0999 V2000
   43.6540   34.1500   41.2080 C   0  0  1  0  0  0  0  0  0  0  0  0
   42.4590   34.8580   40.6820 C   0  0  0  0  0  0  0  0  0  0  0  0
   42.3680   34.8860   39.3190 C   0  0  0  0  0  0  0  0  0  0  0  0
   41.2860   35.5320   38.7080 C   0  0  0  0  0  0  0  0  0  0  0  0
   40.3710   36.1050   39.4900 N   0  0  0  0  0  0  0  0  0  0  0  0
   40.4770   36.0670   40.8310 C   0  0  0  0  0  0  0  0  0  0  0  0
   41.5010   35.4540   41.3670 N   0  0  0  0  0  0  0  0  0  0  0  0
   44.5490   33.7900   40.0380 C   0  0  0  0  0  0  0  0  0  0  0  0
   44.4360   35.1590   42.0140 C   0  0  0  0  0  0  0  0  0  0  0  0
   44.2870   34.9180   43.4830 C   0  0  2  0  0  0  0  0  0  0  0  0
   44.6770   35.9520   44.4430 C   0  0  0  0  0  0  0  0  0  0  0  0
   45.5350   34.7370   44.2600 C   0  0  1  0  0  0  0  0  0  0  0  0
   45.6420   33.9190   45.4320 N   0  0  0  0  0  0  0  0  0  0  0  0
   44.9820   34.0400   46.5860 N   0  0  0  0  0  0  0  0  0  0  0  0
   45.3680   33.0690   47.4320 C   0  0  0  0  0  0  0  0  0  0  0  0
   46.2880   32.3440   46.7640 C   0  0  0  0  0  0  0  0  0  0  0  0
   46.4710   32.8780   45.4840 C   0  0  0  0  0  0  0  0  0  0  0  0
   47.3660   32.3120   44.5960 N   0  0  0  0  0  0  0  0  0  0  0  0
   43.3750   32.9190   41.9290 C   0  0  0  0  0  0  0  0  0  0  0  0
   42.0580   32.4340   42.1470 N   0  0  0  0  0  0  0  0  0  0  0  0
   41.9820   31.0000   42.1530 C   0  0  0  0  0  0  0  0  0  0  0  0
   41.2260   30.2900   41.4390 O   0  0  0  0  0  0  0  0  0  0  0  0
   42.7540   30.2320   42.9710 O   0  0  0  0  0  0  0  0  0  0  0  0
   42.4720   28.8930   43.3020 C   0  0  0  0  0  0  0  0  0  0  0  0
   41.8170   28.7000   44.6150 C   0  0  0  0  0  0  0  0  0  0  0  0
   43.7070   28.0870   43.0800 C   0  0  0  0  0  0  0  0  0  0  0  0
   43.1416   34.4030   38.7040 H   0  0  0  0  0  0  0  0  0  0  0  0
   41.1937   35.5657   37.6124 H   0  0  0  0  0  0  0  0  0  0  0  0
   39.7154   36.5434   41.4659 H   0  0  0  0  0  0  0  0  0  0  0  0
   45.5078   33.4043   40.4149 H   0  0  0  0  0  0  0  0  0  0  0  0
   44.0591   33.0190   39.4252 H   0  0  0  0  0  0  0  0  0  0  0  0
   44.7294   34.6855   39.4252 H   0  0  0  0  0  0  0  0  0  0  0  0
   45.5001   35.0845   41.7452 H   0  0  0  0  0  0  0  0  0  0  0  0
   44.0451   36.1617   41.7863 H   0  0  0  0  0  0  0  0  0  0  0  0
   43.3597   34.3462   43.3307 H   0  0  0  0  0  0  0  0  0  0  0  0
   45.0268   36.9314   44.0847 H   0  0  0  0  0  0  0  0  0  0  0  0
   44.1916   36.4394   45.3014 H   0  0  0  0  0  0  0  0  0  0  0  0
   46.5524   34.4621   43.9448 H   0  0  0  0  0  0  0  0  0  0  0  0
   45.0076   32.9007   48.4576 H   0  0  0  0  0  0  0  0  0  0  0  0
   46.8149   31.4656   47.1649 H   0  0  0  0  0  0  0  0  0  0  0  0
   47.9117   31.4834   44.8727 H   0  0  0  0  0  0  0  0  0  0  0  0
   47.4873   32.7187   43.6575 H   0  0  0  0  0  0  0  0  0  0  0  0
   43.9058   32.1227   41.3867 H   0  0  0  0  0  0  0  0  0  0  0  0
   43.6840   33.1862   42.9503 H   0  0  0  0  0  0  0  0  0  0  0  0
   41.2422   33.0471   42.2863 H   0  0  0  0  0  0  0  0  0  0  0  0
   41.6876   28.5178   42.6282 H   0  0  0  0  0  0  0  0  0  0  0  0
   42.5373   28.9122   45.4188 H   0  0  0  0  0  0  0  0  0  0  0  0
   40.9596   29.3837   44.7011 H   0  0  0  0  0  0  0  0  0  0  0  0
   41.4673   27.6606   44.7011 H   0  0  0  0  0  0  0  0  0  0  0  0
   44.1399   27.8045   44.0510 H   0  0  0  0  0  0  0  0  0  0  0  0
   43.4551   27.1789   42.5127 H   0  0  0  0  0  0  0  0  0  0  0  0
   44.4369   28.6832   42.5127 H   0  0  0  0  0  0  0  0  0  0  0  0
  1  8  1  6
  1 19  1  0
  1  9  1  0
  2  1  1  0
  2  7  1  0
  3  2  2  0
  4  3  1  0
  4  5  2  0
  5  6  1  0
  6  7  2  0
  9 10  1  0
 10 12  1  0
 10 11  1  0
 12 11  1  0
 12 13  1  0
 13 17  1  0
 13 14  1  0
 14 15  2  0
 16 15  1  0
 17 16  2  0
 18 17  1  0
 19 20  1  0
 20 21  1  0
 21 23  1  0
 22 21  2  0
 23 24  1  0
 24 25  1  0
 26 24  1  0
  3 27  1  0
  4 28  1  0
  6 29  1  0
  8 30  1  0
  8 31  1  0
  8 32  1  0
  9 33  1  0
  9 34  1  0
 10 35  1  6
 11 36  1  0
 11 37  1  0
 12 38  1  6
 15 39  1  0
 16 40  1  0
 18 41  1  0
 18 42  1  0
 19 43  1  0
 19 44  1  0
 20 45  1  0
 24 46  1  0
 25 47  1  0
 25 48  1  0
 25 49  1  0
 26 50  1  0
 26 51  1  0
 26 52  1  0
M  ISO  8  27  14  28  14  29  14  30   8  31   8  32   8  33   8  34   8
M  ISO  8  35  13  36  13  37  13  38  13  39  14  40  14  43   8  44   8
M  ISO  7  46   8  47   8  48   8  49   8  50   8  51   8  52   8
M  END
>  <minimizedAffinity>  (1) 
-4.86045742

>  <minimizedRMSD>  (1) 
0.784257472

$$$$
