
     RDKit          3D

 49 51  0  0  1  0  0  0  0  0999 V2000
   43.6670   34.2000   41.2180 C   0  0  1  0  0  0  0  0  0  0  0  0
   42.4640   34.8850   40.6780 C   0  0  0  0  0  0  0  0  0  0  0  0
   42.3950   34.9130   39.3140 C   0  0  0  0  0  0  0  0  0  0  0  0
   41.3020   35.5420   38.6950 C   0  0  0  0  0  0  0  0  0  0  0  0
   40.3660   36.0950   39.4670 N   0  0  0  0  0  0  0  0  0  0  0  0
   40.4570   36.0540   40.8100 C   0  0  0  0  0  0  0  0  0  0  0  0
   41.4860   35.4600   41.3540 N   0  0  0  0  0  0  0  0  0  0  0  0
   44.5860   33.8660   40.0610 C   0  0  0  0  0  0  0  0  0  0  0  0
   44.4140   35.2190   42.0420 C   0  0  0  0  0  0  0  0  0  0  0  0
   44.2790   34.9470   43.5070 C   0  0  2  0  0  0  0  0  0  0  0  0
   44.6760   35.9660   44.4800 C   0  0  0  0  0  0  0  0  0  0  0  0
   45.5360   34.7590   44.2680 C   0  0  1  0  0  0  0  0  0  0  0  0
   45.6440   33.9200   45.4280 N   0  0  0  0  0  0  0  0  0  0  0  0
   44.9980   34.0180   46.5930 N   0  0  0  0  0  0  0  0  0  0  0  0
   45.3880   33.0340   47.4150 C   0  0  0  0  0  0  0  0  0  0  0  0
   46.2950   32.3190   46.7290 C   0  0  0  0  0  0  0  0  0  0  0  0
   46.4730   32.8780   45.4430 C   0  0  0  0  0  0  0  0  0  0  0  0
   47.3640   32.3190   44.5470 N   0  0  0  0  0  0  0  0  0  0  0  0
   43.4060   32.9590   41.9290 C   0  0  0  0  0  0  0  0  0  0  0  0
   42.1090   32.3920   42.0390 N   0  0  0  0  0  0  0  0  0  0  0  0
   42.1240   30.9560   42.0940 C   0  0  0  0  0  0  0  0  0  0  0  0
   41.4730   30.1780   41.3420 O   0  0  0  0  0  0  0  0  0  0  0  0
   42.8700   30.2640   43.0010 O   0  0  0  0  0  0  0  0  0  0  0  0
   43.8310   29.3400   42.4580 C   0  0  0  0  0  0  0  0  0  0  0  0
   45.1940   29.8270   42.8610 C   0  0  0  0  0  0  0  0  0  0  0  0
   43.1862   34.4484   38.7073 H   0  0  0  0  0  0  0  0  0  0  0  0
   41.2202   35.5775   37.5986 H   0  0  0  0  0  0  0  0  0  0  0  0
   39.6789   36.5124   41.4380 H   0  0  0  0  0  0  0  0  0  0  0  0
   45.5529   33.5146   40.4504 H   0  0  0  0  0  0  0  0  0  0  0  0
   44.1294   33.0763   39.4462 H   0  0  0  0  0  0  0  0  0  0  0  0
   44.7430   34.7646   39.4462 H   0  0  0  0  0  0  0  0  0  0  0  0
   45.4792   35.1872   41.7695 H   0  0  0  0  0  0  0  0  0  0  0  0
   43.9855   36.2107   41.8348 H   0  0  0  0  0  0  0  0  0  0  0  0
   43.3534   34.3725   43.3546 H   0  0  0  0  0  0  0  0  0  0  0  0
   45.0182   36.9526   44.1344 H   0  0  0  0  0  0  0  0  0  0  0  0
   44.1981   36.4370   45.3517 H   0  0  0  0  0  0  0  0  0  0  0  0
   46.5523   34.4960   43.9393 H   0  0  0  0  0  0  0  0  0  0  0  0
   45.0373   32.8496   48.4412 H   0  0  0  0  0  0  0  0  0  0  0  0
   46.8205   31.4313   47.1109 H   0  0  0  0  0  0  0  0  0  0  0  0
   47.9044   31.4830   44.8117 H   0  0  0  0  0  0  0  0  0  0  0  0
   47.4878   32.7383   43.6144 H   0  0  0  0  0  0  0  0  0  0  0  0
   44.0316   32.1945   41.4451 H   0  0  0  0  0  0  0  0  0  0  0  0
   43.6080   33.2533   42.9695 H   0  0  0  0  0  0  0  0  0  0  0  0
   41.2456   32.9525   42.0756 H   0  0  0  0  0  0  0  0  0  0  0  0
   43.7497   29.3130   41.3613 H   0  0  0  0  0  0  0  0  0  0  0  0
   43.6521   28.3232   42.8376 H   0  0  0  0  0  0  0  0  0  0  0  0
   45.2647   29.8523   43.9584 H   0  0  0  0  0  0  0  0  0  0  0  0
   45.9598   29.1469   42.4598 H   0  0  0  0  0  0  0  0  0  0  0  0
   45.3554   30.8384   42.4598 H   0  0  0  0  0  0  0  0  0  0  0  0
  1  8  1  6
  1 19  1  0
  1  9  1  0
  2  1  1  0
  2  7  1  0
  3  2  2  0
  4  3  1  0
  4  5  2  0
  5  6  1  0
  6  7  2  0
  9 10  1  0
 10 12  1  0
 10 11  1  0
 12 11  1  0
 12 13  1  0
 13 17  1  0
 13 14  1  0
 14 15  2  0
 16 15  1  0
 17 16  2  0
 18 17  1  0
 19 20  1  0
 20 21  1  0
 21 23  1  0
 22 21  2  0
 24 25  1  0
 24 23  1  0
  3 26  1  0
  4 27  1  0
  6 28  1  0
  8 29  1  0
  8 30  1  0
  8 31  1  0
  9 32  1  0
  9 33  1  0
 10 34  1  6
 11 35  1  0
 11 36  1  0
 12 37  1  6
 15 38  1  0
 16 39  1  0
 18 40  1  0
 18 41  1  0
 19 42  1  0
 19 43  1  0
 20 44  1  0
 24 45  1  0
 24 46  1  0
 25 47  1  0
 25 48  1  0
 25 49  1  0
M  ISO  8  26  14  27  14  28  14  29   8  30   8  31   8  32   8  33   8
M  ISO  8  34  13  35  13  36  13  37  13  38  14  39  14  42   8  43   8
M  ISO  5  45   8  46   8  47   8  48   8  49   8
M  END
>  <minimizedAffinity>  (1) 
-4.61689091

>  <minimizedRMSD>  (1) 
0.738564849

$$$$
