
     RDKit          3D

 55 57  0  0  1  0  0  0  0  0999 V2000
   43.5530   34.1170   40.8750 C   0  0  1  0  0  0  0  0  0  0  0  0
   42.4200   34.8230   40.2210 C   0  0  0  0  0  0  0  0  0  0  0  0
   42.4770   34.8500   38.8580 C   0  0  0  0  0  0  0  0  0  0  0  0
   41.4620   35.4980   38.1380 C   0  0  0  0  0  0  0  0  0  0  0  0
   40.4690   36.0710   38.8180 N   0  0  0  0  0  0  0  0  0  0  0  0
   40.4320   36.0310   40.1620 C   0  0  0  0  0  0  0  0  0  0  0  0
   41.3950   35.4180   40.8000 N   0  0  0  0  0  0  0  0  0  0  0  0
   44.4710   33.5780   39.7950 C   0  0  0  0  0  0  0  0  0  0  0  0
   44.3580   35.1680   41.5990 C   0  0  0  0  0  0  0  0  0  0  0  0
   44.3230   34.9630   43.0800 C   0  0  2  0  0  0  0  0  0  0  0  0
   44.7640   36.0290   43.9790 C   0  0  0  0  0  0  0  0  0  0  0  0
   45.6290   34.8200   43.7680 C   0  0  1  0  0  0  0  0  0  0  0  0
   45.8240   34.0400   44.9520 N   0  0  0  0  0  0  0  0  0  0  0  0
   45.1260   34.0640   46.0900 N   0  0  0  0  0  0  0  0  0  0  0  0
   45.6320   33.1820   46.9500 C   0  0  0  0  0  0  0  0  0  0  0  0
   46.6670   32.6020   46.3280 C   0  0  0  0  0  0  0  0  0  0  0  0
   46.8060   33.1460   45.0300 C   0  0  0  0  0  0  0  0  0  0  0  0
   47.8010   32.7160   44.1710 N   0  0  0  0  0  0  0  0  0  0  0  0
   43.1780   32.9910   41.7160 C   0  0  0  0  0  0  0  0  0  0  0  0
   41.8320   32.6990   42.0590 N   0  0  0  0  0  0  0  0  0  0  0  0
   41.3050   31.5600   41.3580 C   0  0  0  0  0  0  0  0  0  0  0  0
   40.2420   31.5450   40.6810 O   0  0  0  0  0  0  0  0  0  0  0  0
   41.9130   30.3370   41.3490 O   0  0  0  0  0  0  0  0  0  0  0  0
   41.8360   29.5050   42.5220 C   0  0  0  0  0  0  0  0  0  0  0  0
   43.1280   29.4960   43.3090 C   0  0  0  0  0  0  0  0  0  0  0  0
   41.5720   28.0790   42.0270 C   0  0  0  0  0  0  0  0  0  0  0  0
   40.7610   29.9210   43.4360 C   0  0  0  0  0  0  0  0  0  0  0  0
   43.3117   34.3678   38.3281 H   0  0  0  0  0  0  0  0  0  0  0  0
   41.4851   35.5324   37.0388 H   0  0  0  0  0  0  0  0  0  0  0  0
   39.6071   36.5051   40.7141 H   0  0  0  0  0  0  0  0  0  0  0  0
   45.3299   33.0737   40.2619 H   0  0  0  0  0  0  0  0  0  0  0  0
   43.9198   32.8601   39.1698 H   0  0  0  0  0  0  0  0  0  0  0  0
   44.8293   34.4092   39.1698 H   0  0  0  0  0  0  0  0  0  0  0  0
   45.4019   35.1176   41.2560 H   0  0  0  0  0  0  0  0  0  0  0  0
   43.9193   36.1519   41.3768 H   0  0  0  0  0  0  0  0  0  0  0  0
   43.3976   34.3723   43.0122 H   0  0  0  0  0  0  0  0  0  0  0  0
   45.0703   37.0027   43.5689 H   0  0  0  0  0  0  0  0  0  0  0  0
   44.3338   36.5338   44.8565 H   0  0  0  0  0  0  0  0  0  0  0  0
   46.6255   34.5509   43.3877 H   0  0  0  0  0  0  0  0  0  0  0  0
   45.2719   32.9717   47.9679 H   0  0  0  0  0  0  0  0  0  0  0  0
   47.3105   31.8218   46.7607 H   0  0  0  0  0  0  0  0  0  0  0  0
   48.4627   31.9869   44.4733 H   0  0  0  0  0  0  0  0  0  0  0  0
   47.8803   33.1249   43.2290 H   0  0  0  0  0  0  0  0  0  0  0  0
   43.5640   32.0933   41.2110 H   0  0  0  0  0  0  0  0  0  0  0  0
   43.5931   33.2938   42.6886 H   0  0  0  0  0  0  0  0  0  0  0  0
   41.2883   33.2473   42.7407 H   0  0  0  0  0  0  0  0  0  0  0  0
   42.9016   29.4976   44.3855 H   0  0  0  0  0  0  0  0  0  0  0  0
   43.7046   28.5938   43.0569 H   0  0  0  0  0  0  0  0  0  0  0  0
   43.7171   30.3901   43.0569 H   0  0  0  0  0  0  0  0  0  0  0  0
   41.4478   27.4084   42.8901 H   0  0  0  0  0  0  0  0  0  0  0  0
   40.6562   28.0660   41.4178 H   0  0  0  0  0  0  0  0  0  0  0  0
   42.4225   27.7390   41.4178 H   0  0  0  0  0  0  0  0  0  0  0  0
   41.0940   29.7921   44.4764 H   0  0  0  0  0  0  0  0  0  0  0  0
   40.5167   30.9786   43.2575 H   0  0  0  0  0  0  0  0  0  0  0  0
   39.8685   29.3033   43.2575 H   0  0  0  0  0  0  0  0  0  0  0  0
  1  8  1  6
  1  9  1  0
  1 19  1  0
  2  7  1  0
  2  1  1  0
  3  2  2  0
  4  5  2  0
  4  3  1  0
  5  6  1  0
  6  7  2  0
  9 10  1  0
 10 12  1  0
 10 11  1  0
 12 11  1  0
 12 13  1  0
 13 17  1  0
 13 14  1  0
 14 15  2  0
 16 15  1  0
 17 16  2  0
 18 17  1  0
 19 20  1  0
 21 20  1  0
 22 21  2  0
 23 21  1  0
 23 24  1  0
 24 25  1  0
 24 27  1  0
 26 24  1  0
  3 28  1  0
  4 29  1  0
  6 30  1  0
  8 31  1  0
  8 32  1  0
  8 33  1  0
  9 34  1  0
  9 35  1  0
 10 36  1  1
 11 37  1  0
 11 38  1  0
 12 39  1  6
 15 40  1  0
 16 41  1  0
 18 42  1  0
 18 43  1  0
 19 44  1  0
 19 45  1  0
 20 46  1  0
 25 47  1  0
 25 48  1  0
 25 49  1  0
 26 50  1  0
 26 51  1  0
 26 52  1  0
 27 53  1  0
 27 54  1  0
 27 55  1  0
M  ISO  8  28  14  29  14  30  14  31   8  32   8  33   8  34   8  35   8
M  ISO  8  36  13  37  13  38  13  39  13  40  14  41  14  44   8  45   8
M  ISO  8  47   8  48   8  49   8  50   8  51   8  52   8  53   8  54   8
M  ISO  1  55   8
M  END
>  <minimizedAffinity>  (1) 
-4.97280645

>  <minimizedRMSD>  (1) 
1.52575886

$$$$
