
     RDKit          3D

 14 14  0  0  0  0  0  0  0  0999 V2000
   45.4030   34.8670   44.3930 C   0  0  0  0  0  0  0  0  0  0  0  0
   46.3810   34.4840   43.4620 C   0  0  0  0  0  0  0  0  0  0  0  0
   47.2170   33.4310   43.8080 C   0  0  0  0  0  0  0  0  0  0  0  0
   47.0570   32.8110   45.0370 N   0  0  0  0  0  0  0  0  0  0  0  0
   46.0980   33.2220   45.8920 C   0  0  0  0  0  0  0  0  0  0  0  0
   45.2760   34.2420   45.5760 N   0  0  0  0  0  0  0  0  0  0  0  0
   48.4980   32.8510   42.7140 S   0  0  0  0  0  0  0  0  0  0  0  0
   44.4840   35.9810   44.0790 C   0  0  0  0  0  0  0  0  0  0  0  0
   46.4813   34.9986   42.4950 H   0  0  0  0  0  0  0  0  0  0  0  0
   45.9852   32.7166   46.8625 H   0  0  0  0  0  0  0  0  0  0  0  0
   49.5489   32.3752   43.4531 H   0  0  0  0  0  0  0  0  0  0  0  0
   44.1158   36.4274   45.0145 H   0  0  0  0  0  0  0  0  0  0  0  0
   45.0189   36.7439   43.4944 H   0  0  0  0  0  0  0  0  0  0  0  0
   43.6333   35.6009   43.4944 H   0  0  0  0  0  0  0  0  0  0  0  0
  1  6  2  0
  2  3  2  0
  2  1  1  0
  3  4  1  0
  4  5  2  0
  6  5  1  0
  7  3  1  0
  8  1  1  0
  2  9  1  0
  5 10  1  0
  7 11  1  0
  8 12  1  0
  8 13  1  0
  8 14  1  0
M  ISO  6   9  14  10  14  11  11  12   8  13   8  14   8
M  END
>  <minimizedAffinity>  (1) 
-2.84118819

>  <minimizedRMSD>  (1) 
1.55739176

$$$$
