
     RDKit          3D

 12 12  0  0  0  0  0  0  0  0999 V2000
   44.8410   35.0920   44.3400 C   0  0  0  0  0  0  0  0  0  0  0  0
   45.6010   35.3170   43.1790 C   0  0  0  0  0  0  0  0  0  0  0  0
   46.7810   34.6000   43.0190 C   0  0  0  0  0  0  0  0  0  0  0  0
   47.1390   33.7080   44.0100 N   0  0  0  0  0  0  0  0  0  0  0  0
   46.3840   33.5270   45.1000 C   0  0  0  0  0  0  0  0  0  0  0  0
   45.2430   34.2090   45.2720 N   0  0  0  0  0  0  0  0  0  0  0  0
   47.8140   34.8150   41.5770 S   0  0  0  0  0  0  0  0  0  0  0  0
   43.6940   35.8630   44.3820 O   0  0  0  0  0  0  0  0  0  0  0  0
   45.2712   36.0401   42.4185 H   0  0  0  0  0  0  0  0  0  0  0  0
   46.7050   32.8069   45.8671 H   0  0  0  0  0  0  0  0  0  0  0  0
   49.0985   35.0824   41.9712 H   0  0  0  0  0  0  0  0  0  0  0  0
   43.4888   36.4858   43.6403 H   0  0  0  0  0  0  0  0  0  0  0  0
  1  8  1  0
  1  6  2  0
  2  1  1  0
  3  2  2  0
  3  4  1  0
  4  5  2  0
  5  6  1  0
  7  3  1  0
  2  9  1  0
  5 10  1  0
  7 11  1  0
  8 12  1  0
M  ISO  4   9  14  10  14  11  11  12   3
M  END
>  <minimizedAffinity>  (1) 
-3.48002148

>  <minimizedRMSD>  (1) 
0.925881565

$$$$
