
     RDKit          3D

 17 17  0  0  0  0  0  0  0  0999 V2000
   45.3910   34.5690   44.8490 C   0  0  0  0  0  0  0  0  0  0  0  0
   46.2850   34.1300   43.8570 C   0  0  0  0  0  0  0  0  0  0  0  0
   47.1240   33.0570   44.1390 C   0  0  0  0  0  0  0  0  0  0  0  0
   47.0420   32.4720   45.3800 N   0  0  0  0  0  0  0  0  0  0  0  0
   46.1680   32.9210   46.3140 C   0  0  0  0  0  0  0  0  0  0  0  0
   45.3560   33.9520   46.0540 N   0  0  0  0  0  0  0  0  0  0  0  0
   48.2870   32.4370   42.9380 S   0  0  0  0  0  0  0  0  0  0  0  0
   44.5520   35.7040   44.4530 C   0  0  0  0  0  0  0  0  0  0  0  0
   45.0550   36.3390   43.1610 C   0  0  0  0  0  0  0  0  0  0  0  0
   46.3204   34.6259   42.8758 H   0  0  0  0  0  0  0  0  0  0  0  0
   46.1259   32.4314   47.2981 H   0  0  0  0  0  0  0  0  0  0  0  0
   49.3526   31.8689   43.5851 H   0  0  0  0  0  0  0  0  0  0  0  0
   43.5208   35.3521   44.3018 H   0  0  0  0  0  0  0  0  0  0  0  0
   44.5913   36.4605   45.2506 H   0  0  0  0  0  0  0  0  0  0  0  0
   45.7215   37.1804   43.4013 H   0  0  0  0  0  0  0  0  0  0  0  0
   45.6072   35.5896   42.5749 H   0  0  0  0  0  0  0  0  0  0  0  0
   44.1991   36.7050   42.5749 H   0  0  0  0  0  0  0  0  0  0  0  0
  1  6  2  0
  2  3  2  0
  2  1  1  0
  3  4  1  0
  4  5  2  0
  6  5  1  0
  7  3  1  0
  8  1  1  0
  9  8  1  0
  2 10  1  0
  5 11  1  0
  7 12  1  0
  8 13  1  0
  8 14  1  0
  9 15  1  0
  9 16  1  0
  9 17  1  0
M  ISO  8  10  14  11  14  12  11  13   8  14   8  15   8  16   8  17   8
M  END
>  <minimizedAffinity>  (1) 
-3.13848519

>  <minimizedRMSD>  (1) 
1.94970191

$$$$
