
     RDKit          3D

 37 40  0  0  1  0  0  0  0  0999 V2000
   44.6680   35.6600   44.8840 C   0  0  0  0  0  0  0  0  0  0  0  0
   45.1320   35.5010   43.5540 C   0  0  0  0  0  0  0  0  0  0  0  0
   45.8330   34.3340   43.2590 C   0  0  0  0  0  0  0  0  0  0  0  0
   46.0370   33.4140   44.2470 N   0  0  0  0  0  0  0  0  0  0  0  0
   45.5710   33.6210   45.4980 C   0  0  0  0  0  0  0  0  0  0  0  0
   44.8960   34.7300   45.8060 N   0  0  0  0  0  0  0  0  0  0  0  0
   45.8090   32.6210   46.5370 N   0  0  0  0  0  0  0  0  0  0  0  0
   45.3120   32.8290   47.8760 C   0  0  0  0  0  0  0  0  0  0  0  0
   46.2430   32.2870   48.9260 C   0  0  0  0  0  0  0  0  0  0  0  0
   47.5910   32.0290   48.3290 C   0  0  0  0  0  0  0  0  0  0  0  0
   47.4110   30.9260   47.3000 C   0  0  0  0  0  0  0  0  0  0  0  0
   46.5550   31.4240   46.1910 C   0  0  1  0  0  0  0  0  0  0  0  0
   45.6630   30.3710   45.6060 C   0  0  0  0  0  0  0  0  0  0  0  0
   45.5790   29.9610   44.3410 N   0  0  0  0  0  0  0  0  0  0  0  0
   44.6980   29.0130   44.2010 O   0  0  0  0  0  0  0  0  0  0  0  0
   44.1880   28.7910   45.3960 C   0  0  0  0  0  0  0  0  0  0  0  0
   44.7590   29.6140   46.3070 N   0  0  0  0  0  0  0  0  0  0  0  0
   43.1450   27.7820   45.6760 C   0  0  0  0  0  0  0  0  0  0  0  0
   41.8470   27.8390   45.2090 C   0  0  0  0  0  0  0  0  0  0  0  0
   41.1800   26.7410   45.6670 N   0  0  0  0  0  0  0  0  0  0  0  0
   42.0890   26.0580   46.3940 C   0  0  0  0  0  0  0  0  0  0  0  0
   43.2830   26.6660   46.4140 N   0  0  0  0  0  0  0  0  0  0  0  0
   44.1102   36.5678   45.1575 H   0  0  0  0  0  0  0  0  0  0  0  0
   44.9462   36.2672   42.7869 H   0  0  0  0  0  0  0  0  0  0  0  0
   46.2171   34.1560   42.2437 H   0  0  0  0  0  0  0  0  0  0  0  0
   45.1842   33.9090   48.0412 H   0  0  0  0  0  0  0  0  0  0  0  0
   44.3569   32.2907   47.9657 H   0  0  0  0  0  0  0  0  0  0  0  0
   46.3394   33.0195   49.7409 H   0  0  0  0  0  0  0  0  0  0  0  0
   45.8351   31.3441   49.3191 H   0  0  0  0  0  0  0  0  0  0  0  0
   47.9715   32.9404   47.8447 H   0  0  0  0  0  0  0  0  0  0  0  0
   48.3153   31.7333   49.1023 H   0  0  0  0  0  0  0  0  0  0  0  0
   48.3931   30.6308   46.9021 H   0  0  0  0  0  0  0  0  0  0  0  0
   46.9326   30.0555   47.7726 H   0  0  0  0  0  0  0  0  0  0  0  0
   47.2649   31.7080   45.4002 H   0  0  0  0  0  0  0  0  0  0  0  0
   41.4237   28.6332   44.5765 H   0  0  0  0  0  0  0  0  0  0  0  0
   41.8744   25.1110   46.9108 H   0  0  0  0  0  0  0  0  0  0  0  0
   44.1340   26.3440   46.8967 H   0  0  0  0  0  0  0  0  0  0  0  0
  1  6  2  0
  2  1  1  0
  3  2  2  0
  3  4  1  0
  4  5  2  0
  5  6  1  0
  5  7  1  0
  7  8  1  0
  8  9  1  0
 10  9  1  0
 11 10  1  0
 12  7  1  0
 12 11  1  0
 13 12  1  0
 13 17  1  0
 14 13  2  0
 15 14  1  0
 15 16  1  0
 16 18  1  0
 16 17  2  0
 18 22  1  0
 19 20  1  0
 19 18  2  0
 20 21  2  0
 21 22  1  0
  1 23  1  0
  2 24  1  0
  3 25  1  0
  8 26  1  0
  8 27  1  0
  9 28  1  0
  9 29  1  0
 10 30  1  0
 10 31  1  0
 11 32  1  0
 11 33  1  0
 12 34  1  6
 19 35  1  0
 21 36  1  0
 22 37  1  0
M  ISO  8  23  14  24  14  25  14  26  13  27  13  28  13  29  13  30  13
M  ISO  7  31  13  32  13  33  13  34  13  35  14  36  14  37   9
M  END
>  <minimizedAffinity>  (1) 
-5.37044811

>  <minimizedRMSD>  (1) 
0.594119489

$$$$
