
     RDKit          3D

 28 30  0  0  0  0  0  0  0  0999 V2000
   45.1610   35.0160   44.3420 C   0  0  0  0  0  0  0  0  0  0  0  0
   45.5620   33.9070   45.2030 C   0  0  0  0  0  0  0  0  0  0  0  0
   46.3420   32.9180   44.5880 C   0  0  0  0  0  0  0  0  0  0  0  0
   46.7770   31.8260   45.3140 C   0  0  0  0  0  0  0  0  0  0  0  0
   46.4150   31.7680   46.6280 N   0  0  0  0  0  0  0  0  0  0  0  0
   45.6580   32.7410   47.2030 C   0  0  0  0  0  0  0  0  0  0  0  0
   45.2390   33.7890   46.5030 N   0  0  0  0  0  0  0  0  0  0  0  0
   47.7660   30.5310   44.6160 S   0  0  0  0  0  0  0  0  0  0  0  0
   45.4650   34.7110   42.8920 C   0  0  0  0  0  0  0  0  0  0  0  0
   44.2380   34.6980   42.1060 N   0  0  0  0  0  0  0  0  0  0  0  0
   43.6260   35.7010   41.4550 C   0  0  0  0  0  0  0  0  0  0  0  0
   42.5050   35.2760   40.8430 N   0  0  0  0  0  0  0  0  0  0  0  0
   42.3910   33.9600   41.1060 C   0  0  0  0  0  0  0  0  0  0  0  0
   41.4090   33.0920   40.6960 C   0  0  0  0  0  0  0  0  0  0  0  0
   41.5440   31.8030   41.1130 N   0  0  0  0  0  0  0  0  0  0  0  0
   42.6070   31.4480   41.8870 C   0  0  0  0  0  0  0  0  0  0  0  0
   43.5740   32.3090   42.2890 N   0  0  0  0  0  0  0  0  0  0  0  0
   43.4700   33.6060   41.8910 C   0  0  0  0  0  0  0  0  0  0  0  0
   44.0803   35.1872   44.4551 H   0  0  0  0  0  0  0  0  0  0  0  0
   45.7252   35.9126   44.6382 H   0  0  0  0  0  0  0  0  0  0  0  0
   46.6084   33.0115   43.5249 H   0  0  0  0  0  0  0  0  0  0  0  0
   45.3882   32.6584   48.2662 H   0  0  0  0  0  0  0  0  0  0  0  0
   48.3295   29.7932   45.6235 H   0  0  0  0  0  0  0  0  0  0  0  0
   46.1419   35.4814   42.4941 H   0  0  0  0  0  0  0  0  0  0  0  0
   45.9393   33.7206   42.8283 H   0  0  0  0  0  0  0  0  0  0  0  0
   43.9939   36.7372   41.4258 H   0  0  0  0  0  0  0  0  0  0  0  0
   40.5656   33.4179   40.0695 H   0  0  0  0  0  0  0  0  0  0  0  0
   42.6858   30.3981   42.2055 H   0  0  0  0  0  0  0  0  0  0  0  0
  1  2  1  0
  2  7  1  0
  3  2  2  0
  3  4  1  0
  4  5  2  0
  5  6  1  0
  7  6  2  0
  8  4  1  0
  9  1  1  0
 10  9  1  0
 11 10  1  0
 12 13  1  0
 12 11  2  0
 13 18  2  0
 14 13  1  0
 14 15  2  0
 15 16  1  0
 16 17  2  0
 18 10  1  0
 18 17  1  0
  1 19  1  0
  1 20  1  0
  3 21  1  0
  6 22  1  0
  8 23  1  0
  9 24  1  0
  9 25  1  0
 11 26  1  0
 14 27  1  0
 16 28  1  0
M  ISO  8  19   8  20   8  21  14  22  14  23  11  24   8  25   8  26  14
M  ISO  2  27  14  28  14
M  END
>  <minimizedAffinity>  (1) 
-4.01789951

>  <minimizedRMSD>  (1) 
3.5518043

$$$$
