
     RDKit          3D

 35 38  0  0  1  0  0  0  0  0999 V2000
   44.6420   35.6380   44.8800 C   0  0  0  0  0  0  0  0  0  0  0  0
   45.0590   35.4520   43.5380 C   0  0  0  0  0  0  0  0  0  0  0  0
   45.7290   34.2840   43.2400 C   0  0  0  0  0  0  0  0  0  0  0  0
   45.9560   33.3740   44.2390 N   0  0  0  0  0  0  0  0  0  0  0  0
   45.5410   33.5970   45.4950 C   0  0  0  0  0  0  0  0  0  0  0  0
   44.8900   34.7170   45.8140 N   0  0  0  0  0  0  0  0  0  0  0  0
   45.8060   32.6030   46.5320 N   0  0  0  0  0  0  0  0  0  0  0  0
   45.3590   32.8240   47.8920 C   0  0  0  0  0  0  0  0  0  0  0  0
   46.3150   32.2850   48.9100 C   0  0  0  0  0  0  0  0  0  0  0  0
   47.6440   32.0030   48.2690 C   0  0  0  0  0  0  0  0  0  0  0  0
   47.4100   30.8890   47.2580 C   0  0  0  0  0  0  0  0  0  0  0  0
   46.5260   31.3920   46.1740 C   0  0  1  0  0  0  0  0  0  0  0  0
   45.6000   30.3470   45.6320 C   0  0  0  0  0  0  0  0  0  0  0  0
   45.4120   29.9710   44.3670 N   0  0  0  0  0  0  0  0  0  0  0  0
   44.5370   29.0240   44.2660 O   0  0  0  0  0  0  0  0  0  0  0  0
   44.1220   28.7520   45.4910 C   0  0  0  0  0  0  0  0  0  0  0  0
   44.7580   29.5550   46.3750 N   0  0  0  0  0  0  0  0  0  0  0  0
   43.1200   27.7220   45.7660 C   0  0  0  0  0  0  0  0  0  0  0  0
   41.8460   27.7710   45.3190 N   0  0  0  0  0  0  0  0  0  0  0  0
   41.1860   26.7240   45.7150 O   0  0  0  0  0  0  0  0  0  0  0  0
   41.9750   25.9500   46.4250 C   0  0  0  0  0  0  0  0  0  0  0  0
   43.1910   26.5560   46.4700 N   0  0  0  0  0  0  0  0  0  0  0  0
   44.1047   36.5572   45.1566 H   0  0  0  0  0  0  0  0  0  0  0  0
   44.8564   36.2086   42.7657 H   0  0  0  0  0  0  0  0  0  0  0  0
   46.0761   34.0858   42.2152 H   0  0  0  0  0  0  0  0  0  0  0  0
   45.2462   33.9062   48.0537 H   0  0  0  0  0  0  0  0  0  0  0  0
   44.4047   32.2917   48.0183 H   0  0  0  0  0  0  0  0  0  0  0  0
   46.4477   33.0252   49.7128 H   0  0  0  0  0  0  0  0  0  0  0  0
   45.9099   31.3510   49.3265 H   0  0  0  0  0  0  0  0  0  0  0  0
   48.0196   32.9037   47.7615 H   0  0  0  0  0  0  0  0  0  0  0  0
   48.3923   31.7079   49.0193 H   0  0  0  0  0  0  0  0  0  0  0  0
   48.3726   30.5717   46.8305 H   0  0  0  0  0  0  0  0  0  0  0  0
   46.9338   30.0315   47.7559 H   0  0  0  0  0  0  0  0  0  0  0  0
   47.2146   31.6614   45.3596 H   0  0  0  0  0  0  0  0  0  0  0  0
   41.7032   24.9929   46.8942 H   0  0  0  0  0  0  0  0  0  0  0  0
  1  6  2  0
  2  1  1  0
  3  2  2  0
  3  4  1  0
  4  5  2  0
  5  6  1  0
  5  7  1  0
  7  8  1  0
  8  9  1  0
 10  9  1  0
 11 10  1  0
 12  7  1  0
 12 11  1  0
 13 12  1  0
 13 17  1  0
 14 13  2  0
 15 14  1  0
 15 16  1  0
 16 18  1  0
 16 17  2  0
 18 22  1  0
 19 20  1  0
 19 18  2  0
 20 21  1  0
 21 22  2  0
  1 23  1  0
  2 24  1  0
  3 25  1  0
  8 26  1  0
  8 27  1  0
  9 28  1  0
  9 29  1  0
 10 30  1  0
 10 31  1  0
 11 32  1  0
 11 33  1  0
 12 34  1  6
 21 35  1  0
M  ISO  8  23  14  24  14  25  14  26  13  27  13  28  13  29  13  30  13
M  ISO  5  31  13  32  13  33  13  34  13  35  14
M  END
>  <minimizedAffinity>  (1) 
-5.34251642

>  <minimizedRMSD>  (1) 
0.681500912

$$$$
