
     RDKit          3D

 32 33  0  0  1  0  0  0  0  0999 V2000
   46.0970   33.5030   43.9490 C   0  0  0  0  0  0  0  0  0  0  0  0
   46.8850   34.5510   43.3340 N   0  0  0  0  0  0  0  0  0  0  0  0
   48.2470   34.0720   43.0680 C   0  0  0  0  0  0  0  0  0  0  0  0
   48.2750   33.5780   41.6560 C   0  0  0  0  0  0  0  0  0  0  0  0
   47.2690   34.4770   40.9700 C   0  0  0  0  0  0  0  0  0  0  0  0
   46.3550   34.9100   42.0600 C   0  0  1  0  0  0  0  0  0  0  0  0
   45.0190   34.3680   41.7560 C   0  0  0  0  0  0  0  0  0  0  0  0
   44.2510   35.3360   41.4150 O   0  0  0  0  0  0  0  0  0  0  0  0
   43.7500   33.8850   41.4640 O   0  0  0  0  0  0  0  0  0  0  0  0
   45.6450   34.0190   45.3010 C   0  0  0  0  0  0  0  0  0  0  0  0
   45.8720   33.0160   46.3400 C   0  0  0  0  0  0  0  0  0  0  0  0
   46.8000   32.0260   46.0610 C   0  0  0  0  0  0  0  0  0  0  0  0
   47.0890   31.0320   46.9730 C   0  0  0  0  0  0  0  0  0  0  0  0
   46.4120   31.0670   48.1780 N   0  0  0  0  0  0  0  0  0  0  0  0
   45.5160   32.0320   48.4360 C   0  0  0  0  0  0  0  0  0  0  0  0
   45.2410   32.9940   47.5460 N   0  0  0  0  0  0  0  0  0  0  0  0
   48.2800   29.7490   46.6460 S   0  0  0  0  0  0  0  0  0  0  0  0
   46.7078   32.5970   44.0760 H   0  0  0  0  0  0  0  0  0  0  0  0
   45.2324   33.2436   43.3203 H   0  0  0  0  0  0  0  0  0  0  0  0
   48.9668   34.8942   43.1939 H   0  0  0  0  0  0  0  0  0  0  0  0
   48.5219   33.2691   43.7678 H   0  0  0  0  0  0  0  0  0  0  0  0
   49.2761   33.6936   41.2149 H   0  0  0  0  0  0  0  0  0  0  0  0
   48.0393   32.5076   41.5629 H   0  0  0  0  0  0  0  0  0  0  0  0
   47.7693   35.3442   40.5143 H   0  0  0  0  0  0  0  0  0  0  0  0
   46.7363   33.9646   40.1554 H   0  0  0  0  0  0  0  0  0  0  0  0
   46.2592   36.0044   42.1151 H   0  0  0  0  0  0  0  0  0  0  0  0
   43.5666   32.9134   41.5138 H   0  0  0  0  0  0  0  0  0  0  0  0
   46.2116   34.9290   45.5478 H   0  0  0  0  0  0  0  0  0  0  0  0
   44.5686   34.2404   45.2528 H   0  0  0  0  0  0  0  0  0  0  0  0
   47.3180   32.0326   45.0906 H   0  0  0  0  0  0  0  0  0  0  0  0
   44.9937   32.0328   49.4041 H   0  0  0  0  0  0  0  0  0  0  0  0
   48.7468   29.2462   47.8318 H   0  0  0  0  0  0  0  0  0  0  0  0
  1 10  1  0
  2  1  1  0
  3  2  1  0
  4  3  1  0
  5  4  1  0
  5  6  1  0
  6  2  1  0
  7  6  1  0
  8  7  2  0
  9  7  1  0
 10 11  1  0
 11 16  1  0
 12 11  2  0
 12 13  1  0
 13 14  2  0
 14 15  1  0
 16 15  2  0
 17 13  1  0
  1 18  1  0
  1 19  1  0
  3 20  1  0
  3 21  1  0
  4 22  1  0
  4 23  1  0
  5 24  1  0
  5 25  1  0
  6 26  1  1
  9 27  1  0
 10 28  1  0
 10 29  1  0
 12 30  1  0
 15 31  1  0
 17 32  1  0
M  ISO  8  18   8  19   8  20  13  21  13  22  13  23  13  24  13  25  13
M  ISO  7  26  13  27   3  28   8  29   8  30  14  31  14  32  11
M  END
>  <minimizedAffinity>  (1) 
-4.1193614

>  <minimizedRMSD>  (1) 
0.913959265

$$$$
