
     RDKit          3D

 32 33  0  0  1  0  0  0  0  0999 V2000
   46.5440   33.7350   44.1270 C   0  0  0  0  0  0  0  0  0  0  0  0
   46.3730   34.8290   43.1800 N   0  0  0  0  0  0  0  0  0  0  0  0
   47.5420   34.9360   42.3140 C   0  0  0  0  0  0  0  0  0  0  0  0
   47.2750   34.1370   41.0790 C   0  0  0  0  0  0  0  0  0  0  0  0
   45.7790   34.2520   40.9190 C   0  0  0  0  0  0  0  0  0  0  0  0
   45.2610   34.4830   42.3010 C   0  0  2  0  0  0  0  0  0  0  0  0
   44.2640   35.6240   42.3750 C   0  0  0  0  0  0  0  0  0  0  0  0
   45.6420   33.9940   45.3230 C   0  0  0  0  0  0  0  0  0  0  0  0
   45.8630   33.0080   46.3880 C   0  0  0  0  0  0  0  0  0  0  0  0
   46.8000   32.0260   46.1110 C   0  0  0  0  0  0  0  0  0  0  0  0
   47.1030   31.0430   47.0200 C   0  0  0  0  0  0  0  0  0  0  0  0
   46.4260   31.0780   48.2300 N   0  0  0  0  0  0  0  0  0  0  0  0
   45.5190   32.0330   48.4940 C   0  0  0  0  0  0  0  0  0  0  0  0
   45.2260   33.0000   47.5900 N   0  0  0  0  0  0  0  0  0  0  0  0
   48.2960   29.7620   46.7140 S   0  0  0  0  0  0  0  0  0  0  0  0
   47.5928   33.6877   44.4554 H   0  0  0  0  0  0  0  0  0  0  0  0
   46.2796   32.7783   43.6529 H   0  0  0  0  0  0  0  0  0  0  0  0
   47.7143   35.9892   42.0475 H   0  0  0  0  0  0  0  0  0  0  0  0
   48.4363   34.5562   42.8297 H   0  0  0  0  0  0  0  0  0  0  0  0
   47.7996   34.5630   40.2111 H   0  0  0  0  0  0  0  0  0  0  0  0
   47.6252   33.0967   41.1509 H   0  0  0  0  0  0  0  0  0  0  0  0
   45.5238   35.0978   40.2637 H   0  0  0  0  0  0  0  0  0  0  0  0
   45.3418   33.3542   40.4577 H   0  0  0  0  0  0  0  0  0  0  0  0
   44.7580   33.5535   42.6060 H   0  0  0  0  0  0  0  0  0  0  0  0
   44.0563   35.8617   43.4287 H   0  0  0  0  0  0  0  0  0  0  0  0
   44.6827   36.5098   41.8750 H   0  0  0  0  0  0  0  0  0  0  0  0
   43.3301   35.3279   41.8750 H   0  0  0  0  0  0  0  0  0  0  0  0
   45.8516   34.9992   45.7176 H   0  0  0  0  0  0  0  0  0  0  0  0
   44.5966   33.9137   44.9903 H   0  0  0  0  0  0  0  0  0  0  0  0
   47.3140   32.0341   45.1385 H   0  0  0  0  0  0  0  0  0  0  0  0
   45.0025   32.0304   49.4652 H   0  0  0  0  0  0  0  0  0  0  0  0
   48.7542   29.2700   47.9077 H   0  0  0  0  0  0  0  0  0  0  0  0
  1  8  1  0
  2  1  1  0
  3  2  1  0
  4  3  1  0
  5  4  1  0
  5  6  1  0
  6  7  1  0
  6  2  1  0
  8  9  1  0
  9 14  1  0
 10  9  2  0
 10 11  1  0
 11 12  2  0
 12 13  1  0
 14 13  2  0
 15 11  1  0
  1 16  1  0
  1 17  1  0
  3 18  1  0
  3 19  1  0
  4 20  1  0
  4 21  1  0
  5 22  1  0
  5 23  1  0
  6 24  1  1
  7 25  1  0
  7 26  1  0
  7 27  1  0
  8 28  1  0
  8 29  1  0
 10 30  1  0
 13 31  1  0
 15 32  1  0
M  ISO  8  16   8  17   8  18  13  19  13  20  13  21  13  22  13  23  13
M  ISO  8  24  13  25   8  26   8  27   8  28   8  29   8  30  14  31  14
M  ISO  1  32  11
M  END
>  <minimizedAffinity>  (1) 
-4.12632751

>  <minimizedRMSD>  (1) 
0.830055118

$$$$
