
     RDKit          3D

 31 32  0  0  1  0  0  0  0  0999 V2000
   46.3170   33.2440   44.5660 C   0  0  0  0  0  0  0  0  0  0  0  0
   46.5740   34.4550   43.7970 N   0  0  0  0  0  0  0  0  0  0  0  0
   47.7800   34.2980   43.0000 C   0  0  0  0  0  0  0  0  0  0  0  0
   47.3650   33.7870   41.6470 C   0  0  0  0  0  0  0  0  0  0  0  0
   46.0140   34.4200   41.4450 C   0  0  0  0  0  0  0  0  0  0  0  0
   45.4890   34.6030   42.8300 C   0  0  2  0  0  0  0  0  0  0  0  0
   44.9240   35.9950   42.9600 C   0  0  0  0  0  0  0  0  0  0  0  0
   44.9320   36.4890   44.0890 O   0  0  0  0  0  0  0  0  0  0  0  0
   45.6420   33.6610   45.8590 C   0  0  0  0  0  0  0  0  0  0  0  0
   45.9630   32.7200   46.9440 C   0  0  0  0  0  0  0  0  0  0  0  0
   47.0210   31.8320   46.6950 C   0  0  0  0  0  0  0  0  0  0  0  0
   47.3720   30.9190   47.6620 C   0  0  0  0  0  0  0  0  0  0  0  0
   46.6700   30.9070   48.8470 N   0  0  0  0  0  0  0  0  0  0  0  0
   45.6590   31.7660   49.0650 C   0  0  0  0  0  0  0  0  0  0  0  0
   45.2950   32.6730   48.1310 N   0  0  0  0  0  0  0  0  0  0  0  0
   48.6800   29.7630   47.4180 S   0  0  0  0  0  0  0  0  0  0  0  0
   47.2645   32.7301   44.7855 H   0  0  0  0  0  0  0  0  0  0  0  0
   45.6758   32.5531   43.9989 H   0  0  0  0  0  0  0  0  0  0  0  0
   48.2897   35.2671   42.8952 H   0  0  0  0  0  0  0  0  0  0  0  0
   48.4747   33.5951   43.4831 H   0  0  0  0  0  0  0  0  0  0  0  0
   48.0727   34.1089   40.8688 H   0  0  0  0  0  0  0  0  0  0  0  0
   47.3423   32.6889   41.5869 H   0  0  0  0  0  0  0  0  0  0  0  0
   46.1089   35.3884   40.9319 H   0  0  0  0  0  0  0  0  0  0  0  0
   45.3493   33.8072   40.8183 H   0  0  0  0  0  0  0  0  0  0  0  0
   44.7124   33.8486   43.0241 H   0  0  0  0  0  0  0  0  0  0  0  0
   44.5254   36.5411   42.0923 H   0  0  0  0  0  0  0  0  0  0  0  0
   45.9895   34.6664   46.1391 H   0  0  0  0  0  0  0  0  0  0  0  0
   44.5530   33.6614   45.7037 H   0  0  0  0  0  0  0  0  0  0  0  0
   47.5628   31.8658   45.7383 H   0  0  0  0  0  0  0  0  0  0  0  0
   45.1175   31.7301   50.0218 H   0  0  0  0  0  0  0  0  0  0  0  0
   49.1529   29.3451   48.6340 H   0  0  0  0  0  0  0  0  0  0  0  0
  1  9  1  0
  2  1  1  0
  3  2  1  0
  4  3  1  0
  5  4  1  0
  5  6  1  0
  6  7  1  0
  6  2  1  0
  7  8  2  0
  9 10  1  0
 10 15  1  0
 11 10  2  0
 11 12  1  0
 12 13  2  0
 13 14  1  0
 15 14  2  0
 16 12  1  0
  1 17  1  0
  1 18  1  0
  3 19  1  0
  3 20  1  0
  4 21  1  0
  4 22  1  0
  5 23  1  0
  5 24  1  0
  6 25  1  1
  7 26  1  0
  9 27  1  0
  9 28  1  0
 11 29  1  0
 14 30  1  0
 16 31  1  0
M  ISO  8  17   8  18   8  19  13  20  13  21  13  22  13  23  13  24  13
M  ISO  7  25  13  26   6  27   8  28   8  29  14  30  14  31  11
M  END
>  <minimizedAffinity>  (1) 
-4.28207827

>  <minimizedRMSD>  (1) 
1.31347954

$$$$
