
     RDKit          3D

 31 33  0  0  0  0  0  0  0  0999 V2000
   45.5900   34.8950   43.7960 C   0  0  0  0  0  0  0  0  0  0  0  0
   46.7220   34.2430   43.3280 C   0  0  0  0  0  0  0  0  0  0  0  0
   47.2740   33.2630   44.1780 C   0  0  0  0  0  0  0  0  0  0  0  0
   46.6780   33.0260   45.3740 N   0  0  0  0  0  0  0  0  0  0  0  0
   45.5860   33.6810   45.7800 C   0  0  0  0  0  0  0  0  0  0  0  0
   45.0300   34.6280   44.9890 N   0  0  0  0  0  0  0  0  0  0  0  0
   47.3660   34.4870   42.0590 C   0  0  0  0  0  0  0  0  0  0  0  0
   48.3520   35.4580   41.8990 C   0  0  0  0  0  0  0  0  0  0  0  0
   48.7770   35.4740   40.6340 N   0  0  0  0  0  0  0  0  0  0  0  0
   48.1080   34.5470   39.9480 C   0  0  0  0  0  0  0  0  0  0  0  0
   47.2700   33.9720   40.8310 N   0  0  0  0  0  0  0  0  0  0  0  0
   44.8060   36.1630   42.7870 S   0  0  0  0  0  0  0  0  0  0  0  0
   41.6410   34.1910   40.1950 C   0  0  0  0  0  0  0  0  0  0  0  0
   43.0050   34.1190   39.8920 C   0  0  0  0  0  0  0  0  0  0  0  0
   43.8920   34.7550   40.7460 C   0  0  0  0  0  0  0  0  0  0  0  0
   43.4380   35.4450   41.8750 C   0  0  0  0  0  0  0  0  0  0  0  0
   42.0890   35.5090   42.1630 C   0  0  0  0  0  0  0  0  0  0  0  0
   41.2070   34.8760   41.3120 C   0  0  0  0  0  0  0  0  0  0  0  0
   40.4590   33.4120   39.1620 S   0  0  0  0  0  0  0  0  0  0  0  0
   41.0940   32.8830   37.9110 O   0  0  0  0  0  0  0  0  0  0  0  0
   39.4090   34.4110   38.7730 O   0  0  0  0  0  0  0  0  0  0  0  0
   48.1707   32.7012   43.8775 H   0  0  0  0  0  0  0  0  0  0  0  0
   45.1387   33.4501   46.7581 H   0  0  0  0  0  0  0  0  0  0  0  0
   48.7255   36.1152   42.6981 H   0  0  0  0  0  0  0  0  0  0  0  0
   48.2180   34.3025   38.8812 H   0  0  0  0  0  0  0  0  0  0  0  0
   46.6205   33.2117   40.5841 H   0  0  0  0  0  0  0  0  0  0  0  0
   43.3617   33.5753   39.0048 H   0  0  0  0  0  0  0  0  0  0  0  0
   44.9704   34.7166   40.5326 H   0  0  0  0  0  0  0  0  0  0  0  0
   41.7268   36.0512   43.0489 H   0  0  0  0  0  0  0  0  0  0  0  0
   40.1295   34.9182   41.5293 H   0  0  0  0  0  0  0  0  0  0  0  0
   39.9096   32.3672   39.8574 H   0  0  0  0  0  0  0  0  0  0  0  0
  1  6  2  0
  2  1  1  0
  2  3  2  0
  3  4  1  0
  4  5  2  0
  6  5  1  0
  7  2  1  0
  8  7  2  0
  9  8  1  0
 10  9  2  0
 10 11  1  0
 11  7  1  0
 12  1  1  0
 13 18  2  0
 14 13  1  0
 14 15  2  0
 15 16  1  0
 16 17  2  0
 16 12  1  0
 18 17  1  0
 19 13  1  0
 20 19  2  0
 21 19  2  0
  3 22  1  0
  5 23  1  0
  8 24  1  0
 10 25  1  0
 11 26  1  0
 14 27  1  0
 15 28  1  0
 17 29  1  0
 18 30  1  0
 19 31  1  0
M  ISO  8  22  14  23  14  24  14  25  14  26   9  27  14  28  14  29  14
M  ISO  2  30  14  31  11
M  END
>  <minimizedAffinity>  (1) 
-5.14410877

>  <minimizedRMSD>  (1) 
0.33556506

$$$$
