
     RDKit          3D

 33 35  0  0  1  0  0  0  0  0999 V2000
   44.5880   35.7970   44.9060 C   0  0  0  0  0  0  0  0  0  0  0  0
   45.1700   35.7340   43.6150 C   0  0  0  0  0  0  0  0  0  0  0  0
   45.9590   34.6390   43.3320 C   0  0  0  0  0  0  0  0  0  0  0  0
   46.1410   33.6800   44.2880 N   0  0  0  0  0  0  0  0  0  0  0  0
   45.5660   33.7850   45.5010 C   0  0  0  0  0  0  0  0  0  0  0  0
   44.7980   34.8330   45.8060 N   0  0  0  0  0  0  0  0  0  0  0  0
   45.7860   32.7430   46.5020 N   0  0  0  0  0  0  0  0  0  0  0  0
   45.1650   32.8480   47.7980 C   0  0  0  0  0  0  0  0  0  0  0  0
   46.0340   32.2990   48.9010 C   0  0  0  0  0  0  0  0  0  0  0  0
   47.4360   32.1600   48.4180 C   0  0  0  0  0  0  0  0  0  0  0  0
   47.4280   31.1130   47.3140 C   0  0  0  0  0  0  0  0  0  0  0  0
   46.6360   31.6160   46.1610 C   0  0  1  0  0  0  0  0  0  0  0  0
   45.8680   30.5460   45.4520 C   0  0  0  0  0  0  0  0  0  0  0  0
   45.8610   30.2500   44.1510 N   0  0  0  0  0  0  0  0  0  0  0  0
   45.0820   29.2450   43.8900 O   0  0  0  0  0  0  0  0  0  0  0  0
   44.5580   28.8600   45.0410 C   0  0  0  0  0  0  0  0  0  0  0  0
   45.0190   29.6420   46.0430 N   0  0  0  0  0  0  0  0  0  0  0  0
   43.6180   27.7660   45.2660 C   0  0  0  0  0  0  0  0  0  0  0  0
   42.7850   27.3810   44.3920 O   0  0  0  0  0  0  0  0  0  0  0  0
   43.5810   27.0710   46.4690 O   0  0  0  0  0  0  0  0  0  0  0  0
   43.9524   36.6548   45.1711 H   0  0  0  0  0  0  0  0  0  0  0  0
   44.9994   36.5253   42.8702 H   0  0  0  0  0  0  0  0  0  0  0  0
   46.4371   34.5386   42.3464 H   0  0  0  0  0  0  0  0  0  0  0  0
   44.9593   33.9085   48.0057 H   0  0  0  0  0  0  0  0  0  0  0  0
   44.2397   32.2536   47.7743 H   0  0  0  0  0  0  0  0  0  0  0  0
   46.0103   32.9854   49.7603 H   0  0  0  0  0  0  0  0  0  0  0  0
   45.6551   31.3118   49.2041 H   0  0  0  0  0  0  0  0  0  0  0  0
   47.7960   33.1216   48.0233 H   0  0  0  0  0  0  0  0  0  0  0  0
   48.1042   31.8586   49.2381 H   0  0  0  0  0  0  0  0  0  0  0  0
   48.4602   30.9130   46.9906 H   0  0  0  0  0  0  0  0  0  0  0  0
   46.9762   30.1841   47.6923 H   0  0  0  0  0  0  0  0  0  0  0  0
   47.3881   31.9850   45.4481 H   0  0  0  0  0  0  0  0  0  0  0  0
   42.9331   26.3331   46.5946 H   0  0  0  0  0  0  0  0  0  0  0  0
  1  6  2  0
  2  1  1  0
  3  2  2  0
  3  4  1  0
  4  5  2  0
  5  6  1  0
  5  7  1  0
  7  8  1  0
  8  9  1  0
 10  9  1  0
 11 10  1  0
 12  7  1  0
 12 11  1  0
 13 17  1  0
 13 12  1  0
 14 13  2  0
 15 14  1  0
 15 16  1  0
 16 18  1  0
 16 17  2  0
 18 20  1  0
 19 18  2  0
  1 21  1  0
  2 22  1  0
  3 23  1  0
  8 24  1  0
  8 25  1  0
  9 26  1  0
  9 27  1  0
 10 28  1  0
 10 29  1  0
 11 30  1  0
 11 31  1  0
 12 32  1  6
 20 33  1  0
M  ISO  8  21  14  22  14  23  14  24  13  25  13  26  13  27  13  28  13
M  ISO  5  29  13  30  13  31  13  32  13  33   3
M  END
>  <minimizedAffinity>  (1) 
-5.07914734

>  <minimizedRMSD>  (1) 
0.115914188

$$$$
