
     RDKit          3D

 30 32  0  0  1  0  0  0  0  0999 V2000
   46.0920   33.9430   44.8240 C   0  0  0  0  0  0  0  0  0  0  0  0
   46.6510   34.3640   43.6190 C   0  0  0  0  0  0  0  0  0  0  0  0
   46.0570   35.4810   42.9860 C   0  0  0  0  0  0  0  0  0  0  0  0
   44.9950   36.0710   43.5680 N   0  0  0  0  0  0  0  0  0  0  0  0
   44.4820   35.6380   44.7290 C   0  0  0  0  0  0  0  0  0  0  0  0
   45.0150   34.5790   45.3690 N   0  0  0  0  0  0  0  0  0  0  0  0
   47.7860   33.7360   42.9810 C   0  0  0  0  0  0  0  0  0  0  0  0
   47.6340   32.7470   42.0090 C   0  0  0  0  0  0  0  0  0  0  0  0
   48.8260   32.3360   41.5820 N   0  0  0  0  0  0  0  0  0  0  0  0
   49.7720   33.0170   42.2340 C   0  0  0  0  0  0  0  0  0  0  0  0
   49.1140   33.8480   43.0650 N   0  0  0  0  0  0  0  0  0  0  0  0
   46.7550   32.5400   45.7010 S   0  0  0  0  0  0  0  0  0  0  0  0
   45.3120   32.9220   47.9630 N   0  0  0  0  0  0  0  0  0  0  0  0
   44.8450   31.6730   48.5150 C   0  0  0  0  0  0  0  0  0  0  0  0
   45.8010   30.5990   47.9800 C   0  0  0  0  0  0  0  0  0  0  0  0
   47.1000   31.3790   48.0930 C   0  0  0  0  0  0  0  0  0  0  0  0
   46.6590   32.7000   47.4900 C   0  0  1  0  0  0  0  0  0  0  0  0
   46.4558   35.8616   42.0341 H   0  0  0  0  0  0  0  0  0  0  0  0
   43.6141   36.1546   45.1647 H   0  0  0  0  0  0  0  0  0  0  0  0
   46.6688   32.3624   41.6477 H   0  0  0  0  0  0  0  0  0  0  0  0
   50.8614   32.9195   42.1168 H   0  0  0  0  0  0  0  0  0  0  0  0
   49.5879   34.5044   43.7018 H   0  0  0  0  0  0  0  0  0  0  0  0
   44.7064   33.2114   47.1818 H   0  0  0  0  0  0  0  0  0  0  0  0
   44.8785   31.7031   49.6141 H   0  0  0  0  0  0  0  0  0  0  0  0
   43.8028   31.4674   48.2292 H   0  0  0  0  0  0  0  0  0  0  0  0
   45.5730   30.3217   46.9402 H   0  0  0  0  0  0  0  0  0  0  0  0
   45.7764   29.6326   48.5049 H   0  0  0  0  0  0  0  0  0  0  0  0
   47.4194   31.4930   49.1394 H   0  0  0  0  0  0  0  0  0  0  0  0
   47.9683   30.9112   47.6060 H   0  0  0  0  0  0  0  0  0  0  0  0
   47.2852   33.5576   47.7772 H   0  0  0  0  0  0  0  0  0  0  0  0
  1  6  1  0
  1 12  1  0
  2  1  2  0
  3  4  2  0
  3  2  1  0
  4  5  1  0
  5  6  2  0
  7 11  1  0
  7  2  1  0
  8  7  2  0
  9  8  1  0
  9 10  2  0
 10 11  1  0
 13 14  1  0
 15 16  1  0
 15 14  1  0
 17 12  1  0
 17 13  1  0
 17 16  1  0
  3 18  1  0
  5 19  1  0
  8 20  1  0
 10 21  1  0
 11 22  1  0
 13 23  1  0
 14 24  1  0
 14 25  1  0
 15 26  1  0
 15 27  1  0
 16 28  1  0
 16 29  1  0
 17 30  1  1
M  ISO  8  18  14  19  14  20  14  21  14  22   9  23   5  24  13  25  13
M  ISO  5  26  13  27  13  28  13  29  13  30  13
M  END
>  <minimizedAffinity>  (1) 
-5.01362848

>  <minimizedRMSD>  (1) 
5.3390255

$$$$
