
     RDKit          3D

 27 28  0  0  0  0  0  0  0  0999 V2000
   45.8710   32.8690   43.2920 C   0  0  0  0  0  0  0  0  0  0  0  0
   47.2090   32.9050   42.8900 C   0  0  0  0  0  0  0  0  0  0  0  0
   48.1020   31.9690   43.4520 C   0  0  0  0  0  0  0  0  0  0  0  0
   47.6070   31.0830   44.3520 N   0  0  0  0  0  0  0  0  0  0  0  0
   46.3090   31.0750   44.7190 C   0  0  0  0  0  0  0  0  0  0  0  0
   45.4350   31.9560   44.1990 N   0  0  0  0  0  0  0  0  0  0  0  0
   47.7460   33.8450   41.9180 C   0  0  0  0  0  0  0  0  0  0  0  0
   48.4830   34.9510   42.2950 C   0  0  0  0  0  0  0  0  0  0  0  0
   48.8540   35.6550   41.2300 N   0  0  0  0  0  0  0  0  0  0  0  0
   48.3770   35.0420   40.1440 C   0  0  0  0  0  0  0  0  0  0  0  0
   47.7200   33.9600   40.5910 N   0  0  0  0  0  0  0  0  0  0  0  0
   44.6780   34.0070   42.6280 S   0  0  0  0  0  0  0  0  0  0  0  0
   44.4140   35.4750   43.6170 C   0  0  0  0  0  0  0  0  0  0  0  0
   44.8390   35.1490   45.0400 C   0  0  0  0  0  0  0  0  0  0  0  0
   45.2770   36.6410   43.1490 C   0  0  0  0  0  0  0  0  0  0  0  0
   49.1651   31.9579   43.1697 H   0  0  0  0  0  0  0  0  0  0  0  0
   45.9594   30.3363   45.4553 H   0  0  0  0  0  0  0  0  0  0  0  0
   48.7293   35.2133   43.3345 H   0  0  0  0  0  0  0  0  0  0  0  0
   48.4976   35.3587   39.0975 H   0  0  0  0  0  0  0  0  0  0  0  0
   47.2448   33.2880   39.9718 H   0  0  0  0  0  0  0  0  0  0  0  0
   43.3553   35.7625   43.5357 H   0  0  0  0  0  0  0  0  0  0  0  0
   44.1714   35.6611   45.7485 H   0  0  0  0  0  0  0  0  0  0  0  0
   44.7799   34.0624   45.2005 H   0  0  0  0  0  0  0  0  0  0  0  0
   45.8732   35.4877   45.2005 H   0  0  0  0  0  0  0  0  0  0  0  0
   45.6740   37.1774   44.0234 H   0  0  0  0  0  0  0  0  0  0  0  0
   46.1118   36.2592   42.5429 H   0  0  0  0  0  0  0  0  0  0  0  0
   44.6680   37.3278   42.5429 H   0  0  0  0  0  0  0  0  0  0  0  0
  1  6  2  0
  2  1  1  0
  2  3  2  0
  3  4  1  0
  4  5  2  0
  6  5  1  0
  7  8  2  0
  7  2  1  0
  9  8  1  0
 10 11  1  0
 10  9  2  0
 11  7  1  0
 12  1  1  0
 12 13  1  0
 13 14  1  0
 15 13  1  0
  3 16  1  0
  5 17  1  0
  8 18  1  0
 10 19  1  0
 11 20  1  0
 13 21  1  0
 14 22  1  0
 14 23  1  0
 14 24  1  0
 15 25  1  0
 15 26  1  0
 15 27  1  0
M  ISO  8  16  14  17  14  18  14  19  14  20   9  21   8  22   8  23   8
M  ISO  4  24   8  25   8  26   8  27   8
M  END
>  <minimizedAffinity>  (1) 
-3.41930962

>  <minimizedRMSD>  (1) 
1.9139359

$$$$
