
     RDKit          3D

 33 35  0  0  0  0  0  0  0  0999 V2000
   45.5870   34.7490   43.8110 C   0  0  0  0  0  0  0  0  0  0  0  0
   46.7830   34.1680   43.3690 C   0  0  0  0  0  0  0  0  0  0  0  0
   47.4220   33.2730   44.2310 C   0  0  0  0  0  0  0  0  0  0  0  0
   46.8830   33.0040   45.4310 N   0  0  0  0  0  0  0  0  0  0  0  0
   45.7250   33.5780   45.8400 C   0  0  0  0  0  0  0  0  0  0  0  0
   45.0740   34.4500   45.0350 N   0  0  0  0  0  0  0  0  0  0  0  0
   47.3900   34.4470   42.0820 C   0  0  0  0  0  0  0  0  0  0  0  0
   48.3580   35.4360   41.9130 C   0  0  0  0  0  0  0  0  0  0  0  0
   48.7350   35.4710   40.6330 N   0  0  0  0  0  0  0  0  0  0  0  0
   48.0630   34.5540   39.9560 C   0  0  0  0  0  0  0  0  0  0  0  0
   47.2750   33.9680   40.8520 N   0  0  0  0  0  0  0  0  0  0  0  0
   44.6750   35.9000   42.8090 S   0  0  0  0  0  0  0  0  0  0  0  0
   42.2620   34.0190   39.5080 N   0  0  0  0  0  0  0  0  0  0  0  0
   43.1170   33.1390   40.2040 C   0  0  0  0  0  0  0  0  0  0  0  0
   43.7330   33.6830   41.4610 C   0  0  0  0  0  0  0  0  0  0  0  0
   43.7720   35.1960   41.4620 C   0  0  0  0  0  0  0  0  0  0  0  0
   42.3080   35.5930   41.4340 C   0  0  0  0  0  0  0  0  0  0  0  0
   41.7450   35.1520   40.1370 C   0  0  0  0  0  0  0  0  0  0  0  0
   48.3629   32.7907   43.9277 H   0  0  0  0  0  0  0  0  0  0  0  0
   45.3127   33.3341   46.8302 H   0  0  0  0  0  0  0  0  0  0  0  0
   48.7497   36.0856   42.7096 H   0  0  0  0  0  0  0  0  0  0  0  0
   48.1399   34.3257   38.8827 H   0  0  0  0  0  0  0  0  0  0  0  0
   46.6280   33.2041   40.6099 H   0  0  0  0  0  0  0  0  0  0  0  0
   41.4545   33.4605   39.1965 H   0  0  0  0  0  0  0  0  0  0  0  0
   42.5348   32.2453   40.4730 H   0  0  0  0  0  0  0  0  0  0  0  0
   43.9570   32.9379   39.5228 H   0  0  0  0  0  0  0  0  0  0  0  0
   43.1413   33.3420   42.3233 H   0  0  0  0  0  0  0  0  0  0  0  0
   44.7681   33.3155   41.5198 H   0  0  0  0  0  0  0  0  0  0  0  0
   44.3293   35.5905   40.5996 H   0  0  0  0  0  0  0  0  0  0  0  0
   41.7716   35.1040   42.2606 H   0  0  0  0  0  0  0  0  0  0  0  0
   42.2025   36.6819   41.5488 H   0  0  0  0  0  0  0  0  0  0  0  0
   41.8669   35.9900   39.4350 H   0  0  0  0  0  0  0  0  0  0  0  0
   40.7165   34.8565   40.3917 H   0  0  0  0  0  0  0  0  0  0  0  0
  1  6  2  0
  2  1  1  0
  2  3  2  0
  3  4  1  0
  4  5  2  0
  6  5  1  0
  7  2  1  0
  8  7  2  0
  9  8  1  0
 10  9  2  0
 10 11  1  0
 11  7  1  0
 12  1  1  0
 13 18  1  0
 13 14  1  0
 14 15  1  0
 15 16  1  0
 16 12  1  0
 17 16  1  0
 18 17  1  0
  3 19  1  0
  5 20  1  0
  8 21  1  0
 10 22  1  0
 11 23  1  0
 13 24  1  0
 14 25  1  0
 14 26  1  0
 15 27  1  0
 15 28  1  0
 16 29  1  0
 17 30  1  0
 17 31  1  0
 18 32  1  0
 18 33  1  0
M  ISO  8  19  14  20  14  21  14  22  14  23   9  24   5  25  13  26  13
M  ISO  7  27  13  28  13  29  13  30  13  31  13  32  13  33  13
M  END
>  <minimizedAffinity>  (1) 
-4.75498962

>  <minimizedRMSD>  (1) 
0.664588749

$$$$
