
     RDKit          3D

 32 34  0  0  1  0  0  0  0  0999 V2000
   44.5850   35.7970   44.9080 C   0  0  0  0  0  0  0  0  0  0  0  0
   45.1720   35.7420   43.6200 C   0  0  0  0  0  0  0  0  0  0  0  0
   45.9660   34.6450   43.3370 C   0  0  0  0  0  0  0  0  0  0  0  0
   46.1430   33.6870   44.2930 N   0  0  0  0  0  0  0  0  0  0  0  0
   45.5630   33.7890   45.5010 C   0  0  0  0  0  0  0  0  0  0  0  0
   44.7920   34.8360   45.8000 N   0  0  0  0  0  0  0  0  0  0  0  0
   45.7780   32.7480   46.5040 N   0  0  0  0  0  0  0  0  0  0  0  0
   45.1610   32.8440   47.8040 C   0  0  0  0  0  0  0  0  0  0  0  0
   46.0300   32.3010   48.9010 C   0  0  0  0  0  0  0  0  0  0  0  0
   47.4430   32.1740   48.4110 C   0  0  0  0  0  0  0  0  0  0  0  0
   47.4280   31.1150   47.3120 C   0  0  0  0  0  0  0  0  0  0  0  0
   46.6250   31.6180   46.1670 C   0  0  1  0  0  0  0  0  0  0  0  0
   45.8610   30.5490   45.4520 C   0  0  0  0  0  0  0  0  0  0  0  0
   45.8340   30.2820   44.1440 N   0  0  0  0  0  0  0  0  0  0  0  0
   45.0650   29.2620   43.8820 O   0  0  0  0  0  0  0  0  0  0  0  0
   44.5770   28.8520   45.0370 C   0  0  0  0  0  0  0  0  0  0  0  0
   45.0460   29.6250   46.0440 N   0  0  0  0  0  0  0  0  0  0  0  0
   43.6620   27.7380   45.2700 C   0  0  0  0  0  0  0  0  0  0  0  0
   43.5520   27.1510   46.3780 O   0  0  0  0  0  0  0  0  0  0  0  0
   43.9458   36.6518   45.1739 H   0  0  0  0  0  0  0  0  0  0  0  0
   45.0040   36.5363   42.8778 H   0  0  0  0  0  0  0  0  0  0  0  0
   46.4488   34.5460   42.3536 H   0  0  0  0  0  0  0  0  0  0  0  0
   44.9486   33.9025   48.0151 H   0  0  0  0  0  0  0  0  0  0  0  0
   44.2416   32.2406   47.7800 H   0  0  0  0  0  0  0  0  0  0  0  0
   46.0017   32.9847   49.7622 H   0  0  0  0  0  0  0  0  0  0  0  0
   45.6588   31.3106   49.2033 H   0  0  0  0  0  0  0  0  0  0  0  0
   47.7929   33.1355   48.0072 H   0  0  0  0  0  0  0  0  0  0  0  0
   48.1228   31.8896   49.2277 H   0  0  0  0  0  0  0  0  0  0  0  0
   48.4572   30.9130   46.9803 H   0  0  0  0  0  0  0  0  0  0  0  0
   46.9842   30.1853   47.6975 H   0  0  0  0  0  0  0  0  0  0  0  0
   47.3764   31.9908   45.4553 H   0  0  0  0  0  0  0  0  0  0  0  0
   43.0361   27.3938   44.4334 H   0  0  0  0  0  0  0  0  0  0  0  0
  1  6  2  0
  2  1  1  0
  3  2  2  0
  3  4  1  0
  4  5  2  0
  5  6  1  0
  5  7  1  0
  7  8  1  0
  8  9  1  0
 10  9  1  0
 11 10  1  0
 12  7  1  0
 12 11  1  0
 13 17  1  0
 13 12  1  0
 14 13  2  0
 15 14  1  0
 15 16  1  0
 16 18  1  0
 16 17  2  0
 18 19  2  0
  1 20  1  0
  2 21  1  0
  3 22  1  0
  8 23  1  0
  8 24  1  0
  9 25  1  0
  9 26  1  0
 10 27  1  0
 10 28  1  0
 11 29  1  0
 11 30  1  0
 12 31  1  6
 18 32  1  0
M  ISO  8  20  14  21  14  22  14  23  13  24  13  25  13  26  13  27  13
M  ISO  5  28  13  29  13  30  13  31  13  32   6
M  END
>  <minimizedAffinity>  (1) 
-4.9888916

>  <minimizedRMSD>  (1) 
0.112020507

$$$$
