
     RDKit          3D

 40 43  0  0  1  0  0  0  0  0999 V2000
   42.5220   33.7310   39.1340 N   0  0  0  0  0  0  0  0  0  0  0  0
   43.5060   32.9800   39.7910 C   0  0  0  0  0  0  0  0  0  0  0  0
   44.0160   33.5680   41.0850 C   0  0  0  0  0  0  0  0  0  0  0  0
   43.8220   35.0580   41.1220 C   0  0  1  0  0  0  0  0  0  0  0  0
   42.3030   35.2230   41.1130 C   0  0  0  0  0  0  0  0  0  0  0  0
   41.8060   34.7210   39.8140 C   0  0  2  0  0  0  0  0  0  0  0  0
   40.3810   34.2760   39.9110 C   0  0  0  0  0  0  0  0  0  0  0  0
   39.3020   34.6340   39.1610 C   0  0  0  0  0  0  0  0  0  0  0  0
   38.2390   33.9070   39.7010 C   0  0  0  0  0  0  0  0  0  0  0  0
   38.7350   33.1590   40.7360 C   0  0  0  0  0  0  0  0  0  0  0  0
   40.0160   33.4030   40.8330 O   0  0  0  0  0  0  0  0  0  0  0  0
   44.6020   35.8610   42.4860 S   0  0  0  0  0  0  0  0  0  0  0  0
   45.5220   34.8010   43.5780 C   0  0  0  0  0  0  0  0  0  0  0  0
   46.7810   34.2870   43.2050 C   0  0  0  0  0  0  0  0  0  0  0  0
   47.4170   33.4610   44.1480 C   0  0  0  0  0  0  0  0  0  0  0  0
   46.8200   33.2030   45.3270 N   0  0  0  0  0  0  0  0  0  0  0  0
   45.6080   33.7170   45.6490 C   0  0  0  0  0  0  0  0  0  0  0  0
   44.9580   34.5140   44.7790 N   0  0  0  0  0  0  0  0  0  0  0  0
   47.4380   34.5530   41.9520 C   0  0  0  0  0  0  0  0  0  0  0  0
   48.4180   35.5490   41.8320 C   0  0  0  0  0  0  0  0  0  0  0  0
   48.8500   35.5710   40.5630 N   0  0  0  0  0  0  0  0  0  0  0  0
   48.1990   34.6400   39.8650 C   0  0  0  0  0  0  0  0  0  0  0  0
   47.3680   34.0580   40.7350 N   0  0  0  0  0  0  0  0  0  0  0  0
   42.9874   34.1964   38.3418 H   0  0  0  0  0  0  0  0  0  0  0  0
   43.0843   31.9884   40.0122 H   0  0  0  0  0  0  0  0  0  0  0  0
   44.3698   32.9525   39.1104 H   0  0  0  0  0  0  0  0  0  0  0  0
   43.4690   33.1145   41.9247 H   0  0  0  0  0  0  0  0  0  0  0  0
   45.0927   33.3562   41.1620 H   0  0  0  0  0  0  0  0  0  0  0  0
   44.3088   35.5509   40.2675 H   0  0  0  0  0  0  0  0  0  0  0  0
   41.8579   34.6425   41.9345 H   0  0  0  0  0  0  0  0  0  0  0  0
   42.0285   36.2795   41.2493 H   0  0  0  0  0  0  0  0  0  0  0  0
   41.9469   35.6205   39.1967 H   0  0  0  0  0  0  0  0  0  0  0  0
   39.2741   35.3392   38.3173 H   0  0  0  0  0  0  0  0  0  0  0  0
   37.1941   33.9306   39.3579 H   0  0  0  0  0  0  0  0  0  0  0  0
   38.1572   32.4736   41.3734 H   0  0  0  0  0  0  0  0  0  0  0  0
   48.4018   33.0257   43.9229 H   0  0  0  0  0  0  0  0  0  0  0  0
   45.1540   33.4828   46.6232 H   0  0  0  0  0  0  0  0  0  0  0  0
   48.7726   36.2024   42.6428 H   0  0  0  0  0  0  0  0  0  0  0  0
   48.3203   34.4013   38.7981 H   0  0  0  0  0  0  0  0  0  0  0  0
   46.7306   33.2914   40.4762 H   0  0  0  0  0  0  0  0  0  0  0  0
  1  2  1  0
  1  6  1  0
  2  3  1  0
  3  4  1  0
  4 12  1  0
  5  4  1  0
  6  7  1  0
  6  5  1  0
  7 11  1  0
  8  9  1  0
  8  7  2  0
  9 10  2  0
 10 11  1  0
 12 13  1  0
 13 18  2  0
 14 13  1  0
 14 15  2  0
 15 16  1  0
 16 17  2  0
 18 17  1  0
 19 14  1  0
 20 19  2  0
 21 20  1  0
 22 21  2  0
 22 23  1  0
 23 19  1  0
  1 24  1  0
  2 25  1  0
  2 26  1  0
  3 27  1  0
  3 28  1  0
  4 29  1  6
  5 30  1  0
  5 31  1  0
  6 32  1  6
  8 33  1  0
  9 34  1  0
 10 35  1  0
 15 36  1  0
 17 37  1  0
 20 38  1  0
 22 39  1  0
 23 40  1  0
M  ISO  8  24   5  25  13  26  13  27  13  28  13  29  13  30  13  31  13
M  ISO  8  32  13  33  14  34  14  35  14  36  14  37  14  38  14  39  14
M  ISO  1  40   9
M  END
>  <minimizedAffinity>  (1) 
-5.9837389

>  <minimizedRMSD>  (1) 
0.565562308

$$$$
