
     RDKit          3D

 46 49  0  0  1  0  0  0  0  0999 V2000
   42.6660   33.7490   39.1520 N   0  0  0  0  0  0  0  0  0  0  0  0
   43.3940   32.9190   40.0030 C   0  0  0  0  0  0  0  0  0  0  0  0
   43.7930   33.5250   41.3260 C   0  0  0  0  0  0  0  0  0  0  0  0
   43.8920   35.0220   41.2320 C   0  0  1  0  0  0  0  0  0  0  0  0
   42.4560   35.4500   40.9480 C   0  0  0  0  0  0  0  0  0  0  0  0
   42.1220   34.9680   39.5920 C   0  0  2  0  0  0  0  0  0  0  0  0
   40.6820   35.0900   39.4380 N   0  0  0  0  0  0  0  0  0  0  0  0
   39.8990   34.5140   40.4610 C   0  0  0  0  0  0  0  0  0  0  0  0
   38.5250   34.1710   39.9180 C   0  0  0  0  0  0  0  0  0  0  0  0
   38.5840   33.3270   38.8300 O   0  0  0  0  0  0  0  0  0  0  0  0
   39.3820   33.7640   37.8070 C   0  0  0  0  0  0  0  0  0  0  0  0
   40.2120   34.9670   38.1010 C   0  0  0  0  0  0  0  0  0  0  0  0
   44.5820   35.7940   42.6630 S   0  0  0  0  0  0  0  0  0  0  0  0
   45.5260   34.7270   43.7330 C   0  0  0  0  0  0  0  0  0  0  0  0
   46.7710   34.2010   43.3290 C   0  0  0  0  0  0  0  0  0  0  0  0
   47.4220   33.3740   44.2550 C   0  0  0  0  0  0  0  0  0  0  0  0
   46.8620   33.1200   45.4500 N   0  0  0  0  0  0  0  0  0  0  0  0
   45.6610   33.6470   45.8010 C   0  0  0  0  0  0  0  0  0  0  0  0
   44.9900   34.4480   44.9520 N   0  0  0  0  0  0  0  0  0  0  0  0
   47.3940   34.4590   42.0600 C   0  0  0  0  0  0  0  0  0  0  0  0
   48.3440   35.4790   41.8920 C   0  0  0  0  0  0  0  0  0  0  0  0
   48.7440   35.4850   40.6130 N   0  0  0  0  0  0  0  0  0  0  0  0
   48.1010   34.5230   39.9500 C   0  0  0  0  0  0  0  0  0  0  0  0
   47.3080   33.9390   40.8530 N   0  0  0  0  0  0  0  0  0  0  0  0
   41.8747   33.1870   38.8073 H   0  0  0  0  0  0  0  0  0  0  0  0
   42.7829   32.0281   40.2101 H   0  0  0  0  0  0  0  0  0  0  0  0
   44.3354   32.7024   39.4768 H   0  0  0  0  0  0  0  0  0  0  0  0
   43.0390   33.2623   42.0826 H   0  0  0  0  0  0  0  0  0  0  0  0
   44.7798   33.1282   41.6067 H   0  0  0  0  0  0  0  0  0  0  0  0
   44.5959   35.3394   40.4486 H   0  0  0  0  0  0  0  0  0  0  0  0
   41.7751   35.0019   41.6866 H   0  0  0  0  0  0  0  0  0  0  0  0
   42.3520   36.5432   41.0128 H   0  0  0  0  0  0  0  0  0  0  0  0
   42.6582   35.6169   38.8839 H   0  0  0  0  0  0  0  0  0  0  0  0
   40.3880   33.5982   40.8247 H   0  0  0  0  0  0  0  0  0  0  0  0
   39.7960   35.2303   41.2894 H   0  0  0  0  0  0  0  0  0  0  0  0
   37.9433   33.6817   40.7131 H   0  0  0  0  0  0  0  0  0  0  0  0
   38.0516   35.1080   39.5894 H   0  0  0  0  0  0  0  0  0  0  0  0
   38.7335   34.0022   36.9510 H   0  0  0  0  0  0  0  0  0  0  0  0
   40.0948   32.9486   37.6145 H   0  0  0  0  0  0  0  0  0  0  0  0
   41.0888   34.9410   37.4373 H   0  0  0  0  0  0  0  0  0  0  0  0
   39.5498   35.8303   37.9394 H   0  0  0  0  0  0  0  0  0  0  0  0
   48.3964   32.9306   44.0021 H   0  0  0  0  0  0  0  0  0  0  0  0
   45.2324   33.4175   46.7877 H   0  0  0  0  0  0  0  0  0  0  0  0
   48.7006   36.1598   42.6790 H   0  0  0  0  0  0  0  0  0  0  0  0
   48.2020   34.2650   38.8855 H   0  0  0  0  0  0  0  0  0  0  0  0
   46.6844   33.1515   40.6252 H   0  0  0  0  0  0  0  0  0  0  0  0
  1  6  1  0
  1  2  1  0
  2  3  1  0
  4  3  1  0
  4 13  1  0
  5  4  1  0
  6  5  1  0
  7  6  1  0
  7  8  1  0
  9  8  1  0
 10  9  1  0
 11 12  1  0
 11 10  1  0
 12  7  1  0
 13 14  1  0
 14 19  2  0
 15 14  1  0
 15 16  2  0
 16 17  1  0
 17 18  2  0
 19 18  1  0
 20 15  1  0
 21 20  2  0
 22 21  1  0
 23 22  2  0
 23 24  1  0
 24 20  1  0
  1 25  1  0
  2 26  1  0
  2 27  1  0
  3 28  1  0
  3 29  1  0
  4 30  1  6
  5 31  1  0
  5 32  1  0
  6 33  1  6
  8 34  1  0
  8 35  1  0
  9 36  1  0
  9 37  1  0
 11 38  1  0
 11 39  1  0
 12 40  1  0
 12 41  1  0
 16 42  1  0
 18 43  1  0
 21 44  1  0
 23 45  1  0
 24 46  1  0
M  ISO  8  25   5  26  13  27  13  28  13  29  13  30  13  31  13  32  13
M  ISO  8  33  13  34  13  35  13  36  13  37  13  38  13  39  13  40  13
M  ISO  6  41  13  42  14  43  14  44  14  45  14  46   9
M  END
>  <minimizedAffinity>  (1) 
-5.95887375

>  <minimizedRMSD>  (1) 
1.03693569

$$$$
