
     RDKit          3D

 46 49  0  0  1  0  0  0  0  0999 V2000
   41.2350   31.6900   41.5290 N   0  0  0  0  0  0  0  0  0  0  0  0
   42.4660   31.3720   42.1030 C   0  0  0  0  0  0  0  0  0  0  0  0
   43.4850   32.4880   42.1190 C   0  0  0  0  0  0  0  0  0  0  0  0
   43.2320   33.4730   41.0110 C   0  0  1  0  0  0  0  0  0  0  0  0
   41.8800   34.0870   41.3630 C   0  0  0  0  0  0  0  0  0  0  0  0
   40.8600   33.0210   41.2980 C   0  0  1  0  0  0  0  0  0  0  0  0
   40.0550   33.0430   40.0840 N   0  0  0  0  0  0  0  0  0  0  0  0
   39.8830   31.9480   39.2860 C   0  0  0  0  0  0  0  0  0  0  0  0
   39.1320   31.9640   38.1530 C   0  0  0  0  0  0  0  0  0  0  0  0
   38.9620   30.7500   37.3000 C   0  0  0  0  0  0  0  0  0  0  0  0
   38.5290   33.1370   37.8110 C   0  0  0  0  0  0  0  0  0  0  0  0
   37.8180   33.2000   36.7610 O   0  0  0  0  0  0  0  0  0  0  0  0
   38.6650   34.2520   38.5640 N   0  0  0  0  0  0  0  0  0  0  0  0
   39.4230   34.1600   39.6720 C   0  0  0  0  0  0  0  0  0  0  0  0
   39.5170   35.2300   40.3390 O   0  0  0  0  0  0  0  0  0  0  0  0
   44.5040   34.6780   40.8100 S   0  0  0  0  0  0  0  0  0  0  0  0
   46.0630   34.2850   41.5700 C   0  0  0  0  0  0  0  0  0  0  0  0
   47.1790   33.9090   40.7970 C   0  0  0  0  0  0  0  0  0  0  0  0
   48.3570   33.6240   41.5040 C   0  0  0  0  0  0  0  0  0  0  0  0
   48.3700   33.7160   42.8510 N   0  0  0  0  0  0  0  0  0  0  0  0
   47.2830   34.0780   43.5570 C   0  0  0  0  0  0  0  0  0  0  0  0
   46.1250   34.3640   42.9210 N   0  0  0  0  0  0  0  0  0  0  0  0
   47.1850   33.8080   39.3570 C   0  0  0  0  0  0  0  0  0  0  0  0
   48.2270   34.3490   38.5860 C   0  0  0  0  0  0  0  0  0  0  0  0
   47.9600   34.1050   37.2940 N   0  0  0  0  0  0  0  0  0  0  0  0
   46.8120   33.4420   37.1990 C   0  0  0  0  0  0  0  0  0  0  0  0
   46.3830   33.2860   38.4540 N   0  0  0  0  0  0  0  0  0  0  0  0
   41.2094   31.2172   40.6143 H   0  0  0  0  0  0  0  0  0  0  0  0
   42.2851   31.0635   43.1432 H   0  0  0  0  0  0  0  0  0  0  0  0
   42.8966   30.5794   41.4735 H   0  0  0  0  0  0  0  0  0  0  0  0
   43.4279   33.0119   43.0845 H   0  0  0  0  0  0  0  0  0  0  0  0
   44.4833   32.0496   41.9734 H   0  0  0  0  0  0  0  0  0  0  0  0
   43.2280   32.9774   40.0290 H   0  0  0  0  0  0  0  0  0  0  0  0
   41.9149   34.5079   42.3787 H   0  0  0  0  0  0  0  0  0  0  0  0
   41.6330   34.8938   40.6572 H   0  0  0  0  0  0  0  0  0  0  0  0
   40.2839   33.3228   42.1851 H   0  0  0  0  0  0  0  0  0  0  0  0
   40.3760   31.0078   39.5740 H   0  0  0  0  0  0  0  0  0  0  0  0
   38.8381   29.8653   37.9418 H   0  0  0  0  0  0  0  0  0  0  0  0
   38.0719   30.8698   36.6649 H   0  0  0  0  0  0  0  0  0  0  0  0
   39.8508   30.6207   36.6649 H   0  0  0  0  0  0  0  0  0  0  0  0
   38.2069   35.1360   38.3001 H   0  0  0  0  0  0  0  0  0  0  0  0
   49.2671   33.3265   40.9625 H   0  0  0  0  0  0  0  0  0  0  0  0
   47.3369   34.1413   44.6539 H   0  0  0  0  0  0  0  0  0  0  0  0
   49.1086   34.8803   38.9740 H   0  0  0  0  0  0  0  0  0  0  0  0
   46.3186   33.0946   36.2793 H   0  0  0  0  0  0  0  0  0  0  0  0
   45.5057   32.8020   38.6929 H   0  0  0  0  0  0  0  0  0  0  0  0
  1  2  1  0
  2  3  1  0
  4  5  1  0
  4  3  1  0
  6  5  1  0
  6  1  1  0
  7  6  1  0
  8  7  1  0
  9  8  2  0
 10  9  1  0
 11  9  1  0
 11 13  1  0
 12 11  2  0
 13 14  1  0
 14  7  1  0
 14 15  2  0
 16  4  1  0
 16 17  1  0
 17 22  2  0
 18 19  2  0
 18 17  1  0
 19 20  1  0
 20 21  2  0
 22 21  1  0
 23 18  1  0
 24 23  2  0
 25 24  1  0
 26 25  2  0
 26 27  1  0
 27 23  1  0
  1 28  1  0
  2 29  1  0
  2 30  1  0
  3 31  1  0
  3 32  1  0
  4 33  1  6
  5 34  1  0
  5 35  1  0
  6 36  1  1
  8 37  1  0
 10 38  1  0
 10 39  1  0
 10 40  1  0
 13 41  1  0
 19 42  1  0
 21 43  1  0
 24 44  1  0
 26 45  1  0
 27 46  1  0
M  ISO  8  28   5  29  13  30  13  31  13  32  13  33  13  34  13  35  13
M  ISO  8  36  13  37  14  38   8  39   8  40   8  41   9  42  14  43  14
M  ISO  3  44  14  45  14  46   9
M  END
>  <minimizedAffinity>  (1) 
-5.80888176

>  <minimizedRMSD>  (1) 
3.76543379

$$$$
