
     RDKit          3D

 39 42  0  0  1  0  0  0  0  0999 V2000
   41.5990   32.5310   39.9610 N   0  0  0  0  0  0  0  0  0  0  0  0
   42.6150   31.9140   40.7140 C   0  0  0  0  0  0  0  0  0  0  0  0
   43.3400   32.8240   41.6820 C   0  0  0  0  0  0  0  0  0  0  0  0
   43.2920   34.2590   41.2390 C   0  0  1  0  0  0  0  0  0  0  0  0
   41.8060   34.5900   41.3340 C   0  0  0  0  0  0  0  0  0  0  0  0
   41.0970   33.7860   40.3030 C   0  0  1  0  0  0  0  0  0  0  0  0
   41.0580   34.6420   39.1050 N   0  0  0  0  0  0  0  0  0  0  0  0
   40.1450   34.7520   38.1270 C   0  0  0  0  0  0  0  0  0  0  0  0
   40.5550   35.6800   37.2380 N   0  0  0  0  0  0  0  0  0  0  0  0
   41.7440   36.1650   37.6590 C   0  0  0  0  0  0  0  0  0  0  0  0
   42.0090   35.5130   38.7850 N   0  0  0  0  0  0  0  0  0  0  0  0
   44.3180   35.3460   42.1780 S   0  0  0  0  0  0  0  0  0  0  0  0
   45.3860   34.5500   43.3670 C   0  0  0  0  0  0  0  0  0  0  0  0
   46.6880   34.1410   43.0210 C   0  0  0  0  0  0  0  0  0  0  0  0
   47.4400   33.5250   44.0380 C   0  0  0  0  0  0  0  0  0  0  0  0
   46.9070   33.3540   45.2590 N   0  0  0  0  0  0  0  0  0  0  0  0
   45.6440   33.7620   45.5590 C   0  0  0  0  0  0  0  0  0  0  0  0
   44.8780   34.3600   44.6160 N   0  0  0  0  0  0  0  0  0  0  0  0
   47.2810   34.3180   41.7240 C   0  0  0  0  0  0  0  0  0  0  0  0
   48.2710   35.2850   41.4890 C   0  0  0  0  0  0  0  0  0  0  0  0
   48.6320   35.2190   40.2000 N   0  0  0  0  0  0  0  0  0  0  0  0
   47.9260   34.2610   39.5970 C   0  0  0  0  0  0  0  0  0  0  0  0
   47.1330   33.7500   40.5460 N   0  0  0  0  0  0  0  0  0  0  0  0
   40.7969   31.8849   39.9713 H   0  0  0  0  0  0  0  0  0  0  0  0
   42.1615   31.0947   41.2912 H   0  0  0  0  0  0  0  0  0  0  0  0
   43.3697   31.5743   39.9894 H   0  0  0  0  0  0  0  0  0  0  0  0
   42.8672   32.7406   42.6717 H   0  0  0  0  0  0  0  0  0  0  0  0
   44.3943   32.5125   41.7208 H   0  0  0  0  0  0  0  0  0  0  0  0
   43.7025   34.3980   40.2280 H   0  0  0  0  0  0  0  0  0  0  0  0
   41.4282   34.3331   42.3346 H   0  0  0  0  0  0  0  0  0  0  0  0
   41.6391   35.6643   41.1669 H   0  0  0  0  0  0  0  0  0  0  0  0
   40.1241   33.5199   40.7418 H   0  0  0  0  0  0  0  0  0  0  0  0
   39.2101   34.1762   38.0610 H   0  0  0  0  0  0  0  0  0  0  0  0
   42.3606   36.9353   37.1728 H   0  0  0  0  0  0  0  0  0  0  0  0
   48.4653   33.1831   43.8331 H   0  0  0  0  0  0  0  0  0  0  0  0
   45.2437   33.6054   46.5715 H   0  0  0  0  0  0  0  0  0  0  0  0
   48.6813   35.9797   42.2367 H   0  0  0  0  0  0  0  0  0  0  0  0
   47.9836   33.9555   38.5418 H   0  0  0  0  0  0  0  0  0  0  0  0
   46.4682   32.9830   40.3708 H   0  0  0  0  0  0  0  0  0  0  0  0
  1  6  1  0
  1  2  1  0
  2  3  1  0
  4  5  1  0
  4  3  1  0
  4 12  1  0
  6  5  1  0
  7  6  1  0
  8  7  1  0
  9 10  1  0
  9  8  2  0
 10 11  2  0
 11  7  1  0
 12 13  1  0
 13 18  2  0
 14 13  1  0
 14 15  2  0
 15 16  1  0
 16 17  2  0
 18 17  1  0
 19 14  1  0
 20 19  2  0
 21 20  1  0
 22 21  2  0
 22 23  1  0
 23 19  1  0
  1 24  1  0
  2 25  1  0
  2 26  1  0
  3 27  1  0
  3 28  1  0
  4 29  1  6
  5 30  1  0
  5 31  1  0
  6 32  1  1
  8 33  1  0
 10 34  1  0
 15 35  1  0
 17 36  1  0
 20 37  1  0
 22 38  1  0
 23 39  1  0
M  ISO  8  24   5  25  13  26  13  27  13  28  13  29  13  30  13  31  13
M  ISO  8  32  13  33  14  34  14  35  14  36  14  37  14  38  14  39   9
M  END
>  <minimizedAffinity>  (1) 
-5.22374678

>  <minimizedRMSD>  (1) 
1.28358364

$$$$
