
     RDKit          3D

 42 45  0  0  1  0  0  0  0  0999 V2000
   41.9130   32.4870   39.9310 N   0  0  0  0  0  0  0  0  0  0  0  0
   42.8990   31.8710   40.7090 C   0  0  0  0  0  0  0  0  0  0  0  0
   43.5130   32.7340   41.7870 C   0  0  0  0  0  0  0  0  0  0  0  0
   43.4090   34.1940   41.4280 C   0  0  1  0  0  0  0  0  0  0  0  0
   41.9050   34.4430   41.4490 C   0  0  0  0  0  0  0  0  0  0  0  0
   41.3000   33.6810   40.3530 C   0  0  1  0  0  0  0  0  0  0  0  0
   41.0170   34.5180   39.1640 C   0  0  0  0  0  0  0  0  0  0  0  0
   39.9300   34.6530   38.3290 C   0  0  0  0  0  0  0  0  0  0  0  0
   39.9570   35.5270   37.2730 C   0  0  0  0  0  0  0  0  0  0  0  0
   41.0430   36.3180   36.9720 C   0  0  0  0  0  0  0  0  0  0  0  0
   42.1110   36.1570   37.8260 C   0  0  0  0  0  0  0  0  0  0  0  0
   42.0960   35.3040   38.8620 N   0  0  0  0  0  0  0  0  0  0  0  0
   44.3120   35.2660   42.5140 S   0  0  0  0  0  0  0  0  0  0  0  0
   45.4100   34.4510   43.6560 C   0  0  0  0  0  0  0  0  0  0  0  0
   46.7000   34.0340   43.2610 C   0  0  0  0  0  0  0  0  0  0  0  0
   47.4830   33.4010   44.2430 C   0  0  0  0  0  0  0  0  0  0  0  0
   46.9970   33.2180   45.4820 N   0  0  0  0  0  0  0  0  0  0  0  0
   45.7560   33.6300   45.8280 C   0  0  0  0  0  0  0  0  0  0  0  0
   44.9580   34.2460   44.9240 N   0  0  0  0  0  0  0  0  0  0  0  0
   47.2490   34.2190   41.9450 C   0  0  0  0  0  0  0  0  0  0  0  0
   48.1780   35.2340   41.6680 C   0  0  0  0  0  0  0  0  0  0  0  0
   48.5110   35.1660   40.3710 N   0  0  0  0  0  0  0  0  0  0  0  0
   47.8430   34.1620   39.8020 C   0  0  0  0  0  0  0  0  0  0  0  0
   47.1060   33.6290   40.7770 N   0  0  0  0  0  0  0  0  0  0  0  0
   41.1585   31.7959   39.8130 H   0  0  0  0  0  0  0  0  0  0  0  0
   42.4479   30.9929   41.1943 H   0  0  0  0  0  0  0  0  0  0  0  0
   43.7181   31.6246   40.0174 H   0  0  0  0  0  0  0  0  0  0  0  0
   42.9842   32.5573   42.7352 H   0  0  0  0  0  0  0  0  0  0  0  0
   44.5763   32.4704   41.8866 H   0  0  0  0  0  0  0  0  0  0  0  0
   43.8687   34.4202   40.4546 H   0  0  0  0  0  0  0  0  0  0  0  0
   41.4857   34.1102   42.4099 H   0  0  0  0  0  0  0  0  0  0  0  0
   41.6955   35.5160   41.3271 H   0  0  0  0  0  0  0  0  0  0  0  0
   40.3770   33.3492   40.8510 H   0  0  0  0  0  0  0  0  0  0  0  0
   39.0276   34.0512   38.5119 H   0  0  0  0  0  0  0  0  0  0  0  0
   39.0651   35.6000   36.6333 H   0  0  0  0  0  0  0  0  0  0  0  0
   41.0563   37.0176   36.1232 H   0  0  0  0  0  0  0  0  0  0  0  0
   43.0177   36.7547   37.6512 H   0  0  0  0  0  0  0  0  0  0  0  0
   48.4972   33.0544   43.9956 H   0  0  0  0  0  0  0  0  0  0  0  0
   45.3919   33.4632   46.8525 H   0  0  0  0  0  0  0  0  0  0  0  0
   48.5677   35.9632   42.3935 H   0  0  0  0  0  0  0  0  0  0  0  0
   47.8900   33.8414   38.7508 H   0  0  0  0  0  0  0  0  0  0  0  0
   46.4791   32.8252   40.6291 H   0  0  0  0  0  0  0  0  0  0  0  0
  1  6  1  0
  1  2  1  0
  2  3  1  0
  4  5  1  0
  4  3  1  0
  4 13  1  0
  6  5  1  0
  7  6  1  0
  8  7  2  0
  9  8  1  0
 10  9  2  0
 10 11  1  0
 11 12  2  0
 12  7  1  0
 13 14  1  0
 14 19  2  0
 15 14  1  0
 15 16  2  0
 16 17  1  0
 17 18  2  0
 19 18  1  0
 20 15  1  0
 21 20  2  0
 22 21  1  0
 23 22  2  0
 23 24  1  0
 24 20  1  0
  1 25  1  0
  2 26  1  0
  2 27  1  0
  3 28  1  0
  3 29  1  0
  4 30  1  6
  5 31  1  0
  5 32  1  0
  6 33  1  1
  8 34  1  0
  9 35  1  0
 10 36  1  0
 11 37  1  0
 16 38  1  0
 18 39  1  0
 21 40  1  0
 23 41  1  0
 24 42  1  0
M  ISO  8  25   5  26  13  27  13  28  13  29  13  30  13  31  13  32  13
M  ISO  8  33  13  34  14  35  14  36  14  37  14  38  14  39  14  40  14
M  ISO  2  41  14  42   9
M  END
>  <minimizedAffinity>  (1) 
-5.28394222

>  <minimizedRMSD>  (1) 
1.27268589

$$$$
