
     RDKit          3D

 34 37  0  0  0  0  0  0  0  0999 V2000
   46.5840   34.6440   42.0740 C   0  0  0  0  0  0  0  0  0  0  0  0
   47.8700   35.1800   41.9400 C   0  0  0  0  0  0  0  0  0  0  0  0
   48.5210   35.0020   40.7220 C   0  0  0  0  0  0  0  0  0  0  0  0
   47.9440   34.3240   39.6570 C   0  0  0  0  0  0  0  0  0  0  0  0
   46.6890   33.8170   39.8290 C   0  0  0  0  0  0  0  0  0  0  0  0
   46.0070   33.9690   41.0180 C   0  0  0  0  0  0  0  0  0  0  0  0
   44.6650   33.4480   41.2820 C   0  0  0  0  0  0  0  0  0  0  0  0
   44.3420   32.2650   41.9600 C   0  0  0  0  0  0  0  0  0  0  0  0
   43.0180   32.0900   42.0350 N   0  0  0  0  0  0  0  0  0  0  0  0
   42.4160   33.1210   41.4250 C   0  0  0  0  0  0  0  0  0  0  0  0
   41.0940   33.4410   41.2110 C   0  0  0  0  0  0  0  0  0  0  0  0
   40.7720   34.6110   40.5270 C   0  0  0  0  0  0  0  0  0  0  0  0
   41.7810   35.4350   40.0710 C   0  0  0  0  0  0  0  0  0  0  0  0
   43.1260   35.1460   40.2670 C   0  0  0  0  0  0  0  0  0  0  0  0
   43.4050   33.9630   40.9590 C   0  0  0  0  0  0  0  0  0  0  0  0
   45.5210   34.0630   45.5080 C   0  0  0  0  0  0  0  0  0  0  0  0
   44.6470   35.1370   45.7860 C   0  0  0  0  0  0  0  0  0  0  0  0
   44.4340   36.0690   44.7590 C   0  0  0  0  0  0  0  0  0  0  0  0
   45.0730   35.8850   43.5700 N   0  0  0  0  0  0  0  0  0  0  0  0
   45.9040   34.8390   43.3440 C   0  0  0  0  0  0  0  0  0  0  0  0
   46.1170   33.9450   44.3090 N   0  0  0  0  0  0  0  0  0  0  0  0
   48.3496   35.7228   42.7678 H   0  0  0  0  0  0  0  0  0  0  0  0
   49.5330   35.4152   40.5989 H   0  0  0  0  0  0  0  0  0  0  0  0
   48.4812   34.1995   38.7052 H   0  0  0  0  0  0  0  0  0  0  0  0
   46.2103   33.2746   39.0004 H   0  0  0  0  0  0  0  0  0  0  0  0
   45.0836   31.5682   42.3778 H   0  0  0  0  0  0  0  0  0  0  0  0
   42.5409   31.2962   42.4858 H   0  0  0  0  0  0  0  0  0  0  0  0
   40.2973   32.7771   41.5778 H   0  0  0  0  0  0  0  0  0  0  0  0
   39.7192   34.8768   40.3512 H   0  0  0  0  0  0  0  0  0  0  0  0
   41.5103   36.3550   39.5322 H   0  0  0  0  0  0  0  0  0  0  0  0
   43.9238   35.8083   39.8997 H   0  0  0  0  0  0  0  0  0  0  0  0
   45.7173   33.3104   46.2858 H   0  0  0  0  0  0  0  0  0  0  0  0
   44.1549   35.2384   46.7646 H   0  0  0  0  0  0  0  0  0  0  0  0
   43.7657   36.9294   44.9106 H   0  0  0  0  0  0  0  0  0  0  0  0
  1 20  1  0
  2  1  2  0
  3  2  1  0
  4  5  1  0
  4  3  2  0
  5  6  2  0
  6  7  1  0
  6  1  1  0
  7  8  2  0
  8  9  1  0
 10  9  1  0
 11 10  2  0
 12 11  1  0
 13 14  1  0
 13 12  2  0
 14 15  2  0
 15  7  1  0
 15 10  1  0
 16 17  2  0
 18 17  1  0
 19 18  2  0
 20 19  1  0
 20 21  2  0
 21 16  1  0
  2 22  1  0
  3 23  1  0
  4 24  1  0
  5 25  1  0
  8 26  1  0
  9 27  1  0
 11 28  1  0
 12 29  1  0
 13 30  1  0
 14 31  1  0
 16 32  1  0
 17 33  1  0
 18 34  1  0
M  ISO  8  22  14  23  14  24  14  25  14  26  14  27   9  28  14  29  14
M  ISO  5  30  14  31  14  32  14  33  14  34  14
M  END
>  <minimizedAffinity>  (1) 
-6.56073523

>  <minimizedRMSD>  (1) 
0.831051469

$$$$
