
     RDKit          3D

 34 37  0  0  0  0  0  0  0  0999 V2000
   46.6570   34.6150   42.0270 C   0  0  0  0  0  0  0  0  0  0  0  0
   47.8650   35.2510   41.8420 C   0  0  0  0  0  0  0  0  0  0  0  0
   48.5350   35.0880   40.6370 C   0  0  0  0  0  0  0  0  0  0  0  0
   48.0300   34.3120   39.6210 C   0  0  0  0  0  0  0  0  0  0  0  0
   46.8290   33.6850   39.8150 C   0  0  0  0  0  0  0  0  0  0  0  0
   46.1560   33.8410   41.0090 C   0  0  0  0  0  0  0  0  0  0  0  0
   44.9200   33.1720   41.1550 N   0  0  0  0  0  0  0  0  0  0  0  0
   44.4650   32.1510   41.9280 C   0  0  0  0  0  0  0  0  0  0  0  0
   43.1700   31.9070   41.6550 N   0  0  0  0  0  0  0  0  0  0  0  0
   42.7490   32.7700   40.6870 C   0  0  0  0  0  0  0  0  0  0  0  0
   41.5420   32.9550   40.0490 C   0  0  0  0  0  0  0  0  0  0  0  0
   40.5560   32.2090   40.3610 O   0  0  0  0  0  0  0  0  0  0  0  0
   41.3890   33.8930   39.1160 N   0  0  0  0  0  0  0  0  0  0  0  0
   42.4640   34.6480   38.8290 C   0  0  0  0  0  0  0  0  0  0  0  0
   42.4170   35.6770   37.8520 N   0  0  0  0  0  0  0  0  0  0  0  0
   43.6530   34.4890   39.4380 N   0  0  0  0  0  0  0  0  0  0  0  0
   43.8650   33.5430   40.4000 C   0  0  0  0  0  0  0  0  0  0  0  0
   45.6170   34.0460   45.4770 C   0  0  0  0  0  0  0  0  0  0  0  0
   44.6910   35.0670   45.7320 C   0  0  0  0  0  0  0  0  0  0  0  0
   44.4280   35.9680   44.6780 C   0  0  0  0  0  0  0  0  0  0  0  0
   45.0760   35.7980   43.4950 N   0  0  0  0  0  0  0  0  0  0  0  0
   45.9660   34.7940   43.2910 C   0  0  0  0  0  0  0  0  0  0  0  0
   46.2240   33.9350   44.2780 N   0  0  0  0  0  0  0  0  0  0  0  0
   48.2925   35.8789   42.6376 H   0  0  0  0  0  0  0  0  0  0  0  0
   49.4999   35.5956   40.4908 H   0  0  0  0  0  0  0  0  0  0  0  0
   48.5783   34.1976   38.6743 H   0  0  0  0  0  0  0  0  0  0  0  0
   46.4008   33.0573   39.0196 H   0  0  0  0  0  0  0  0  0  0  0  0
   45.0671   31.6041   42.6685 H   0  0  0  0  0  0  0  0  0  0  0  0
   40.4885   34.0336   38.6363 H   0  0  0  0  0  0  0  0  0  0  0  0
   43.2576   36.2385   37.6545 H   0  0  0  0  0  0  0  0  0  0  0  0
   41.5423   35.8621   37.3406 H   0  0  0  0  0  0  0  0  0  0  0  0
   45.8530   33.3214   46.2702 H   0  0  0  0  0  0  0  0  0  0  0  0
   44.1926   35.1616   46.7080 H   0  0  0  0  0  0  0  0  0  0  0  0
   43.7121   36.7924   44.8112 H   0  0  0  0  0  0  0  0  0  0  0  0
  1 22  1  0
  2  1  2  0
  3  2  1  0
  4  5  1  0
  4  3  2  0
  5  6  2  0
  6  7  1  0
  6  1  1  0
  7  8  1  0
  9  8  2  0
 10  9  1  0
 11 12  2  0
 11 10  1  0
 13 11  1  0
 14 13  1  0
 14 16  2  0
 15 14  1  0
 16 17  1  0
 17 10  2  0
 17  7  1  0
 18 19  2  0
 20 19  1  0
 21 20  2  0
 22 21  1  0
 22 23  2  0
 23 18  1  0
  2 24  1  0
  3 25  1  0
  4 26  1  0
  5 27  1  0
  8 28  1  0
 13 29  1  0
 15 30  1  0
 15 31  1  0
 18 32  1  0
 19 33  1  0
 20 34  1  0
M  ISO  8  24  14  25  14  26  14  27  14  28  14  29   9  32  14  33  14
M  ISO  1  34  14
M  END
>  <minimizedAffinity>  (1) 
-6.5823102

>  <minimizedRMSD>  (1) 
0.556219697

$$$$
