
     RDKit          3D

 27 28  0  0  0  0  0  0  0  0999 V2000
   46.7790   34.7280   42.0480 C   0  0  0  0  0  0  0  0  0  0  0  0
   48.0170   35.3210   41.9520 C   0  0  0  0  0  0  0  0  0  0  0  0
   48.7120   35.2320   40.7630 C   0  0  0  0  0  0  0  0  0  0  0  0
   48.2000   34.5650   39.6700 C   0  0  0  0  0  0  0  0  0  0  0  0
   46.9620   33.9800   39.7900 C   0  0  0  0  0  0  0  0  0  0  0  0
   46.2360   34.0470   40.9600 C   0  0  0  0  0  0  0  0  0  0  0  0
   44.5310   36.0330   44.6230 C   0  0  0  0  0  0  0  0  0  0  0  0
   44.6500   35.1260   45.6770 C   0  0  0  0  0  0  0  0  0  0  0  0
   45.5240   34.0450   45.4890 C   0  0  0  0  0  0  0  0  0  0  0  0
   46.1900   33.9490   44.3180 N   0  0  0  0  0  0  0  0  0  0  0  0
   46.0600   34.8320   43.3200 C   0  0  0  0  0  0  0  0  0  0  0  0
   45.2240   35.8860   43.4680 N   0  0  0  0  0  0  0  0  0  0  0  0
   44.9520   33.4560   41.1030 N   0  0  0  0  0  0  0  0  0  0  0  0
   43.7280   34.1740   41.0350 C   0  0  0  0  0  0  0  0  0  0  0  0
   43.6580   35.0320   40.0450 N   0  0  0  0  0  0  0  0  0  0  0  0
   42.7120   33.9050   42.0220 N   0  0  0  0  0  0  0  0  0  0  0  0
   42.7640   35.5480   40.0040 H   0  0  0  0  0  0  0  0  0  0  0  0
   48.4465   35.8582   42.8105 H   0  0  0  0  0  0  0  0  0  0  0  0
   49.7015   35.7061   40.6850 H   0  0  0  0  0  0  0  0  0  0  0  0
   48.7662   34.5029   38.7290 H   0  0  0  0  0  0  0  0  0  0  0  0
   46.5386   33.4433   38.9282 H   0  0  0  0  0  0  0  0  0  0  0  0
   43.8542   36.8931   44.7332 H   0  0  0  0  0  0  0  0  0  0  0  0
   44.0846   35.2529   46.6120 H   0  0  0  0  0  0  0  0  0  0  0  0
   45.6639   33.2917   46.2783 H   0  0  0  0  0  0  0  0  0  0  0  0
   44.9055   32.4402   41.2667 H   0  0  0  0  0  0  0  0  0  0  0  0
   41.8170   34.4139   41.9917 H   0  0  0  0  0  0  0  0  0  0  0  0
   42.8812   33.2039   42.7574 H   0  0  0  0  0  0  0  0  0  0  0  0
  1 11  1  0
  2  1  2  0
  3  2  1  0
  4  5  1  0
  4  3  2  0
  5  6  2  0
  6 13  1  0
  6  1  1  0
  7  8  2  0
  9  8  1  0
 10  9  2  0
 11 12  2  0
 11 10  1  0
 12  7  1  0
 14 13  1  0
 14 16  1  0
 15 14  2  0
 17 15  1  0
  2 18  1  0
  3 19  1  0
  4 20  1  0
  5 21  1  0
  7 22  1  0
  8 23  1  0
  9 24  1  0
 13 25  1  0
 16 26  1  0
 16 27  1  0
M  ISO  7  18  14  19  14  20  14  21  14  22  14  23  14  24  14
M  END
>  <minimizedAffinity>  (1) 
-5.77415991

>  <minimizedRMSD>  (1) 
1.70160508

$$$$
