
     RDKit          3D

 27 29  0  0  0  0  0  0  0  0999 V2000
   46.6210   34.7010   42.1600 C   0  0  0  0  0  0  0  0  0  0  0  0
   47.9660   35.0020   42.1230 C   0  0  0  0  0  0  0  0  0  0  0  0
   48.6590   34.8220   40.9350 C   0  0  0  0  0  0  0  0  0  0  0  0
   48.0390   34.3500   39.7910 C   0  0  0  0  0  0  0  0  0  0  0  0
   46.6920   34.0530   39.8470 C   0  0  0  0  0  0  0  0  0  0  0  0
   45.9980   34.2270   41.0140 C   0  0  0  0  0  0  0  0  0  0  0  0
   45.4400   34.0660   45.5540 C   0  0  0  0  0  0  0  0  0  0  0  0
   44.6100   35.1620   45.8440 C   0  0  0  0  0  0  0  0  0  0  0  0
   44.4680   36.1360   44.8280 C   0  0  0  0  0  0  0  0  0  0  0  0
   45.1240   35.9560   43.6640 N   0  0  0  0  0  0  0  0  0  0  0  0
   45.9070   34.8970   43.4230 C   0  0  0  0  0  0  0  0  0  0  0  0
   46.0700   33.9440   44.3680 N   0  0  0  0  0  0  0  0  0  0  0  0
   44.5690   33.9390   41.1690 C   0  0  0  0  0  0  0  0  0  0  0  0
   43.4270   34.6490   40.8050 C   0  0  0  0  0  0  0  0  0  0  0  0
   42.3110   33.9310   41.1850 C   0  0  0  0  0  0  0  0  0  0  0  0
   42.7910   32.8090   41.7670 N   0  0  0  0  0  0  0  0  0  0  0  0
   44.1070   32.8200   41.7550 N   0  0  0  0  0  0  0  0  0  0  0  0
   48.4803   35.3782   43.0196 H   0  0  0  0  0  0  0  0  0  0  0  0
   49.7321   35.0612   40.9010 H   0  0  0  0  0  0  0  0  0  0  0  0
   48.6066   34.2146   38.8585 H   0  0  0  0  0  0  0  0  0  0  0  0
   46.1754   33.6758   38.9521 H   0  0  0  0  0  0  0  0  0  0  0  0
   45.5799   33.2852   46.3161 H   0  0  0  0  0  0  0  0  0  0  0  0
   44.0966   35.2578   46.8121 H   0  0  0  0  0  0  0  0  0  0  0  0
   43.8353   37.0221   44.9845 H   0  0  0  0  0  0  0  0  0  0  0  0
   43.4163   35.6245   40.2967 H   0  0  0  0  0  0  0  0  0  0  0  0
   41.2567   34.2116   41.0444 H   0  0  0  0  0  0  0  0  0  0  0  0
   42.2110   32.0552   42.1623 H   0  0  0  0  0  0  0  0  0  0  0  0
  1 11  1  0
  2  1  2  0
  3  2  1  0
  4  5  1  0
  4  3  2  0
  5  6  2  0
  6 13  1  0
  6  1  1  0
  7  8  2  0
  9  8  1  0
 10  9  2  0
 11 10  1  0
 11 12  2  0
 12  7  1  0
 13 17  2  0
 14 13  1  0
 14 15  2  0
 15 16  1  0
 17 16  1  0
  2 18  1  0
  3 19  1  0
  4 20  1  0
  5 21  1  0
  7 22  1  0
  8 23  1  0
  9 24  1  0
 14 25  1  0
 15 26  1  0
 16 27  1  0
M  ISO  8  18  14  19  14  20  14  21  14  22  14  23  14  24  14  25  14
M  ISO  2  26  14  27   9
M  END
>  <minimizedAffinity>  (1) 
-5.47026539

>  <minimizedRMSD>  (1) 
0.768574238

$$$$
