
     RDKit          3D

 33 35  0  0  0  0  0  0  0  0999 V2000
   46.7430   34.7740   42.0090 C   0  0  0  0  0  0  0  0  0  0  0  0
   48.0190   35.3150   41.9400 C   0  0  0  0  0  0  0  0  0  0  0  0
   48.6930   35.1710   40.7320 C   0  0  0  0  0  0  0  0  0  0  0  0
   48.1670   34.5340   39.6350 C   0  0  0  0  0  0  0  0  0  0  0  0
   46.9090   34.0180   39.7510 C   0  0  0  0  0  0  0  0  0  0  0  0
   46.1720   34.1200   40.9200 C   0  0  0  0  0  0  0  0  0  0  0  0
   45.5030   34.0300   45.3680 C   0  0  0  0  0  0  0  0  0  0  0  0
   44.6630   35.1120   45.6730 C   0  0  0  0  0  0  0  0  0  0  0  0
   44.5270   36.1150   44.6930 C   0  0  0  0  0  0  0  0  0  0  0  0
   45.2080   35.9820   43.5240 N   0  0  0  0  0  0  0  0  0  0  0  0
   46.0110   34.9130   43.2740 C   0  0  0  0  0  0  0  0  0  0  0  0
   46.1490   33.9550   44.1900 N   0  0  0  0  0  0  0  0  0  0  0  0
   44.8020   33.5890   41.1320 C   0  0  0  0  0  0  0  0  0  0  0  0
   44.6040   32.2470   40.4810 C   0  0  0  0  0  0  0  0  0  0  0  0
   43.9180   32.5620   39.1730 C   0  0  0  0  0  0  0  0  0  0  0  0
   43.3030   33.9140   39.3070 C   0  0  0  0  0  0  0  0  0  0  0  0
   43.8220   34.5540   40.5470 C   0  0  0  0  0  0  0  0  0  0  0  0
   48.4745   35.8318   42.7976 H   0  0  0  0  0  0  0  0  0  0  0  0
   49.7061   35.5917   40.6506 H   0  0  0  0  0  0  0  0  0  0  0  0
   48.7376   34.4432   38.6990 H   0  0  0  0  0  0  0  0  0  0  0  0
   46.4646   33.5032   38.8864 H   0  0  0  0  0  0  0  0  0  0  0  0
   45.6361   33.2265   46.1073 H   0  0  0  0  0  0  0  0  0  0  0  0
   44.1338   35.1743   46.6353 H   0  0  0  0  0  0  0  0  0  0  0  0
   43.8824   36.9886   44.8703 H   0  0  0  0  0  0  0  0  0  0  0  0
   44.6502   33.4643   42.2143 H   0  0  0  0  0  0  0  0  0  0  0  0
   45.5711   31.7535   40.3044 H   0  0  0  0  0  0  0  0  0  0  0  0
   44.0169   31.5594   41.1076 H   0  0  0  0  0  0  0  0  0  0  0  0
   43.1390   31.8132   38.9670 H   0  0  0  0  0  0  0  0  0  0  0  0
   44.6384   32.5433   38.3419 H   0  0  0  0  0  0  0  0  0  0  0  0
   43.5677   34.5291   38.4343 H   0  0  0  0  0  0  0  0  0  0  0  0
   42.2081   33.8238   39.3620 H   0  0  0  0  0  0  0  0  0  0  0  0
   44.3197   35.5050   40.3063 H   0  0  0  0  0  0  0  0  0  0  0  0
   43.0095   34.7797   41.2533 H   0  0  0  0  0  0  0  0  0  0  0  0
  1 11  1  0
  2  1  2  0
  3  2  1  0
  4  5  1  0
  4  3  2  0
  5  6  2  0
  6 13  1  0
  6  1  1  0
  7  8  2  0
  9  8  1  0
 10  9  2  0
 11 10  1  0
 11 12  2  0
 12  7  1  0
 14 13  1  0
 15 16  1  0
 15 14  1  0
 16 17  1  0
 17 13  1  0
  2 18  1  0
  3 19  1  0
  4 20  1  0
  5 21  1  0
  7 22  1  0
  8 23  1  0
  9 24  1  0
 13 25  1  0
 14 26  1  0
 14 27  1  0
 15 28  1  0
 15 29  1  0
 16 30  1  0
 16 31  1  0
 17 32  1  0
 17 33  1  0
M  ISO  8  18  14  19  14  20  14  21  14  22  14  23  14  24  14  25  13
M  ISO  8  26  13  27  13  28  13  29  13  30  13  31  13  32  13  33  13
M  END
>  <minimizedAffinity>  (1) 
-5.39515352

>  <minimizedRMSD>  (1) 
0.201046854

$$$$
