
     RDKit          3D

 28 30  0  0  0  0  0  0  0  0999 V2000
   46.7250   34.7890   42.0340 C   0  0  0  0  0  0  0  0  0  0  0  0
   48.0220   35.2640   41.9580 C   0  0  0  0  0  0  0  0  0  0  0  0
   48.7060   35.1050   40.7590 C   0  0  0  0  0  0  0  0  0  0  0  0
   48.1550   34.5030   39.6550 C   0  0  0  0  0  0  0  0  0  0  0  0
   46.8710   34.0350   39.7410 C   0  0  0  0  0  0  0  0  0  0  0  0
   46.1840   34.1840   40.9140 C   0  0  0  0  0  0  0  0  0  0  0  0
   45.4850   34.0900   45.3850 C   0  0  0  0  0  0  0  0  0  0  0  0
   44.6380   35.1820   45.6700 C   0  0  0  0  0  0  0  0  0  0  0  0
   44.5030   36.1650   44.6770 C   0  0  0  0  0  0  0  0  0  0  0  0
   45.1870   36.0130   43.5170 N   0  0  0  0  0  0  0  0  0  0  0  0
   45.9940   34.9470   43.2800 C   0  0  0  0  0  0  0  0  0  0  0  0
   46.1400   33.9940   44.2090 N   0  0  0  0  0  0  0  0  0  0  0  0
   44.7960   33.6830   41.0130 C   0  0  0  0  0  0  0  0  0  0  0  0
   43.7180   34.4440   40.6100 C   0  0  0  0  0  0  0  0  0  0  0  0
   42.4160   33.9660   40.7060 C   0  0  0  0  0  0  0  0  0  0  0  0
   42.2120   32.7290   41.2060 N   0  0  0  0  0  0  0  0  0  0  0  0
   43.2840   32.0200   41.5860 C   0  0  0  0  0  0  0  0  0  0  0  0
   44.5610   32.4380   41.5140 N   0  0  0  0  0  0  0  0  0  0  0  0
   48.4976   35.7530   42.8209 H   0  0  0  0  0  0  0  0  0  0  0  0
   49.7381   35.4793   40.6911 H   0  0  0  0  0  0  0  0  0  0  0  0
   48.7311   34.3991   38.7237 H   0  0  0  0  0  0  0  0  0  0  0  0
   46.3979   33.5452   38.8771 H   0  0  0  0  0  0  0  0  0  0  0  0
   45.6143   33.2991   46.1385 H   0  0  0  0  0  0  0  0  0  0  0  0
   44.1060   35.2597   46.6297 H   0  0  0  0  0  0  0  0  0  0  0  0
   43.8558   37.0400   44.8370 H   0  0  0  0  0  0  0  0  0  0  0  0
   43.8926   35.4512   40.2037 H   0  0  0  0  0  0  0  0  0  0  0  0
   41.5671   34.5850   40.3802 H   0  0  0  0  0  0  0  0  0  0  0  0
   43.1051   31.0128   41.9903 H   0  0  0  0  0  0  0  0  0  0  0  0
  1 11  1  0
  2  1  2  0
  3  2  1  0
  4  5  1  0
  4  3  2  0
  5  6  2  0
  6 13  1  0
  6  1  1  0
  7  8  2  0
  9  8  1  0
 10  9  2  0
 11 10  1  0
 11 12  2  0
 12  7  1  0
 13 18  2  0
 14 15  2  0
 14 13  1  0
 15 16  1  0
 16 17  2  0
 18 17  1  0
  2 19  1  0
  3 20  1  0
  4 21  1  0
  5 22  1  0
  7 23  1  0
  8 24  1  0
  9 25  1  0
 14 26  1  0
 15 27  1  0
 17 28  1  0
M  ISO  8  19  14  20  14  21  14  22  14  23  14  24  14  25  14  26  14
M  ISO  2  27  14  28  14
M  END
>  <minimizedAffinity>  (1) 
-5.59474516

>  <minimizedRMSD>  (1) 
0.801457286

$$$$
