
     RDKit          3D

 25 27  0  0  0  0  0  0  0  0999 V2000
   46.6810   34.7370   42.0770 C   0  0  0  0  0  0  0  0  0  0  0  0
   47.9490   35.2680   41.9660 C   0  0  0  0  0  0  0  0  0  0  0  0
   48.6430   35.1330   40.7810 C   0  0  0  0  0  0  0  0  0  0  0  0
   48.0930   34.4750   39.6930 C   0  0  0  0  0  0  0  0  0  0  0  0
   46.8270   33.9510   39.8170 C   0  0  0  0  0  0  0  0  0  0  0  0
   46.1360   34.0840   40.9940 C   0  0  0  0  0  0  0  0  0  0  0  0
   45.5340   34.0190   45.4720 C   0  0  0  0  0  0  0  0  0  0  0  0
   44.6630   35.0910   45.7720 C   0  0  0  0  0  0  0  0  0  0  0  0
   44.4830   36.0670   44.7710 C   0  0  0  0  0  0  0  0  0  0  0  0
   45.1450   35.9240   43.5950 N   0  0  0  0  0  0  0  0  0  0  0  0
   45.9650   34.8930   43.3460 C   0  0  0  0  0  0  0  0  0  0  0  0
   46.1540   33.9520   44.2790 N   0  0  0  0  0  0  0  0  0  0  0  0
   44.7930   33.5240   41.1150 C   0  0  0  0  0  0  0  0  0  0  0  0
   43.6050   34.1140   40.7960 N   0  0  0  0  0  0  0  0  0  0  0  0
   42.6460   33.3040   41.0450 O   0  0  0  0  0  0  0  0  0  0  0  0
   43.1180   32.1770   41.5220 C   0  0  0  0  0  0  0  0  0  0  0  0
   44.4460   32.3050   41.5690 N   0  0  0  0  0  0  0  0  0  0  0  0
   48.4043   35.7959   42.8169 H   0  0  0  0  0  0  0  0  0  0  0  0
   49.6547   35.5569   40.6985 H   0  0  0  0  0  0  0  0  0  0  0  0
   48.6549   34.3740   38.7528 H   0  0  0  0  0  0  0  0  0  0  0  0
   46.3671   33.4232   38.9685 H   0  0  0  0  0  0  0  0  0  0  0  0
   45.7069   33.2318   46.2206 H   0  0  0  0  0  0  0  0  0  0  0  0
   44.1492   35.1605   46.7421 H   0  0  0  0  0  0  0  0  0  0  0  0
   43.8190   36.9276   44.9398 H   0  0  0  0  0  0  0  0  0  0  0  0
   42.5326   31.2963   41.8249 H   0  0  0  0  0  0  0  0  0  0  0  0
  1 11  1  0
  2  1  2  0
  3  2  1  0
  4  5  1  0
  4  3  2  0
  5  6  2  0
  6 13  1  0
  6  1  1  0
  7  8  2  0
  9  8  1  0
 10  9  2  0
 11 10  1  0
 11 12  2  0
 12  7  1  0
 13 17  1  0
 14 15  1  0
 14 13  2  0
 15 16  1  0
 16 17  2  0
  2 18  1  0
  3 19  1  0
  4 20  1  0
  5 21  1  0
  7 22  1  0
  8 23  1  0
  9 24  1  0
 16 25  1  0
M  ISO  8  18  14  19  14  20  14  21  14  22  14  23  14  24  14  25  14
M  END
>  <minimizedAffinity>  (1) 
-5.29004335

>  <minimizedRMSD>  (1) 
0.595535934

$$$$
