
     RDKit          3D

 26 28  0  0  0  0  0  0  0  0999 V2000
   46.7250   34.8000   42.0150 C   0  0  0  0  0  0  0  0  0  0  0  0
   48.0210   35.2900   41.9490 C   0  0  0  0  0  0  0  0  0  0  0  0
   48.7290   35.1380   40.7640 C   0  0  0  0  0  0  0  0  0  0  0  0
   48.1810   34.5200   39.6560 C   0  0  0  0  0  0  0  0  0  0  0  0
   46.8860   34.0380   39.7410 C   0  0  0  0  0  0  0  0  0  0  0  0
   46.1900   34.1860   40.9080 C   0  0  0  0  0  0  0  0  0  0  0  0
   45.4930   34.0850   45.3690 C   0  0  0  0  0  0  0  0  0  0  0  0
   44.6420   35.1560   45.6700 C   0  0  0  0  0  0  0  0  0  0  0  0
   44.5040   36.1380   44.6760 C   0  0  0  0  0  0  0  0  0  0  0  0
   45.1880   36.0000   43.5060 N   0  0  0  0  0  0  0  0  0  0  0  0
   45.9920   34.9590   43.2570 C   0  0  0  0  0  0  0  0  0  0  0  0
   46.1490   33.9930   44.1930 N   0  0  0  0  0  0  0  0  0  0  0  0
   44.8140   33.6580   40.9540 C   0  0  0  0  0  0  0  0  0  0  0  0
   44.5290   32.3460   41.3410 C   0  0  0  0  0  0  0  0  0  0  0  0
   42.6780   32.3290   41.1870 S   0  0  0  0  0  0  0  0  0  0  0  0
   42.6660   34.1420   40.6170 C   0  0  0  0  0  0  0  0  0  0  0  0
   43.7870   34.4220   40.6250 N   0  0  0  0  0  0  0  0  0  0  0  0
   48.4781   35.7883   42.8166 H   0  0  0  0  0  0  0  0  0  0  0  0
   49.7583   35.5215   40.7055 H   0  0  0  0  0  0  0  0  0  0  0  0
   48.7608   34.4135   38.7273 H   0  0  0  0  0  0  0  0  0  0  0  0
   46.4213   33.5403   38.8771 H   0  0  0  0  0  0  0  0  0  0  0  0
   45.6316   33.2909   46.1174 H   0  0  0  0  0  0  0  0  0  0  0  0
   44.1115   35.2240   46.6312 H   0  0  0  0  0  0  0  0  0  0  0  0
   43.8515   37.0082   44.8400 H   0  0  0  0  0  0  0  0  0  0  0  0
   45.2135   31.5430   41.6518 H   0  0  0  0  0  0  0  0  0  0  0  0
   41.8044   34.7699   40.3462 H   0  0  0  0  0  0  0  0  0  0  0  0
  1 11  1  0
  2  1  2  0
  3  2  1  0
  4  5  1  0
  4  3  2  0
  5  6  2  0
  6 13  1  0
  6  1  1  0
  7  8  2  0
  9  8  1  0
 10  9  2  0
 11 10  1  0
 11 12  2  0
 12  7  1  0
 13 14  2  0
 15 14  1  0
 16 17  2  0
 16 15  1  0
 17 13  1  0
  2 18  1  0
  3 19  1  0
  4 20  1  0
  5 21  1  0
  7 22  1  0
  8 23  1  0
  9 24  1  0
 14 25  1  0
 16 26  1  0
M  ISO  8  18  14  19  14  20  14  21  14  22  14  23  14  24  14  25  14
M  ISO  1  26  14
M  END
>  <minimizedAffinity>  (1) 
-5.34675741

>  <minimizedRMSD>  (1) 
0.407805085

$$$$
