
     RDKit          3D

 27 29  0  0  0  0  0  0  0  0999 V2000
   46.7140   34.7620   41.9890 C   0  0  0  0  0  0  0  0  0  0  0  0
   47.9720   35.3190   41.8810 C   0  0  0  0  0  0  0  0  0  0  0  0
   48.6770   35.1650   40.6960 C   0  0  0  0  0  0  0  0  0  0  0  0
   48.1440   34.4630   39.6180 C   0  0  0  0  0  0  0  0  0  0  0  0
   46.8910   33.9140   39.7380 C   0  0  0  0  0  0  0  0  0  0  0  0
   46.1820   34.0610   40.9100 C   0  0  0  0  0  0  0  0  0  0  0  0
   45.4890   34.0410   45.3460 C   0  0  0  0  0  0  0  0  0  0  0  0
   44.6590   35.1380   45.6530 C   0  0  0  0  0  0  0  0  0  0  0  0
   44.5350   36.1360   44.6670 C   0  0  0  0  0  0  0  0  0  0  0  0
   45.2070   35.9880   43.4980 N   0  0  0  0  0  0  0  0  0  0  0  0
   45.9870   34.9300   43.2450 C   0  0  0  0  0  0  0  0  0  0  0  0
   46.1330   33.9510   44.1640 N   0  0  0  0  0  0  0  0  0  0  0  0
   44.8470   33.5120   41.1170 C   0  0  0  0  0  0  0  0  0  0  0  0
   43.7500   34.1360   40.5110 C   0  0  0  0  0  0  0  0  0  0  0  0
   42.6440   33.4440   40.8590 N   0  0  0  0  0  0  0  0  0  0  0  0
   43.0160   32.4160   41.6560 C   0  0  0  0  0  0  0  0  0  0  0  0
   44.3560   32.4510   41.8190 N   0  0  0  0  0  0  0  0  0  0  0  0
   48.4094   35.8769   42.7221 H   0  0  0  0  0  0  0  0  0  0  0  0
   49.6800   35.6076   40.6060 H   0  0  0  0  0  0  0  0  0  0  0  0
   48.7171   34.3501   38.6859 H   0  0  0  0  0  0  0  0  0  0  0  0
   46.4529   33.3562   38.8972 H   0  0  0  0  0  0  0  0  0  0  0  0
   45.6147   33.2388   46.0881 H   0  0  0  0  0  0  0  0  0  0  0  0
   44.1333   35.2112   46.6165 H   0  0  0  0  0  0  0  0  0  0  0  0
   43.9042   37.0201   44.8418 H   0  0  0  0  0  0  0  0  0  0  0  0
   43.7831   35.0280   39.8681 H   0  0  0  0  0  0  0  0  0  0  0  0
   42.3372   31.6725   42.0992 H   0  0  0  0  0  0  0  0  0  0  0  0
   44.9125   31.7890   42.3784 H   0  0  0  0  0  0  0  0  0  0  0  0
  1 11  1  0
  2  1  2  0
  3  2  1  0
  4  5  1  0
  4  3  2  0
  5  6  2  0
  6 13  1  0
  6  1  1  0
  7  8  2  0
  9  8  1  0
 10  9  2  0
 11 10  1  0
 11 12  2  0
 12  7  1  0
 13 17  1  0
 14 15  1  0
 14 13  2  0
 15 16  2  0
 16 17  1  0
  2 18  1  0
  3 19  1  0
  4 20  1  0
  5 21  1  0
  7 22  1  0
  8 23  1  0
  9 24  1  0
 14 25  1  0
 16 26  1  0
 17 27  1  0
M  ISO  8  18  14  19  14  20  14  21  14  22  14  23  14  24  14  25  14
M  ISO  2  26  14  27   9
M  END
>  <minimizedAffinity>  (1) 
-5.37975454

>  <minimizedRMSD>  (1) 
0.269636869

$$$$
