
     RDKit          3D

 26 27  0  0  0  0  0  0  0  0999 V2000
   46.7910   34.7610   41.9570 C   0  0  0  0  0  0  0  0  0  0  0  0
   48.0280   35.3660   41.8330 C   0  0  0  0  0  0  0  0  0  0  0  0
   48.7360   35.2450   40.6480 C   0  0  0  0  0  0  0  0  0  0  0  0
   48.2340   34.5310   39.5800 C   0  0  0  0  0  0  0  0  0  0  0  0
   47.0110   33.9340   39.7060 C   0  0  0  0  0  0  0  0  0  0  0  0
   46.3080   34.0540   40.8830 C   0  0  0  0  0  0  0  0  0  0  0  0
   45.6060   34.0310   45.3140 C   0  0  0  0  0  0  0  0  0  0  0  0
   44.7150   35.0620   45.6050 C   0  0  0  0  0  0  0  0  0  0  0  0
   44.5180   36.0450   44.6050 C   0  0  0  0  0  0  0  0  0  0  0  0
   45.2080   35.9110   43.4440 N   0  0  0  0  0  0  0  0  0  0  0  0
   46.0630   34.8940   43.2050 C   0  0  0  0  0  0  0  0  0  0  0  0
   46.2600   33.9600   44.1370 N   0  0  0  0  0  0  0  0  0  0  0  0
   44.9910   33.3680   40.9300 C   0  0  0  0  0  0  0  0  0  0  0  0
   43.8830   34.1680   40.2920 C   0  0  0  0  0  0  0  0  0  0  0  0
   48.4483   35.9409   42.6714 H   0  0  0  0  0  0  0  0  0  0  0  0
   49.7197   35.7288   40.5571 H   0  0  0  0  0  0  0  0  0  0  0  0
   48.8068   34.4437   38.6450 H   0  0  0  0  0  0  0  0  0  0  0  0
   46.5895   33.3588   38.8684 H   0  0  0  0  0  0  0  0  0  0  0  0
   45.7815   33.2501   46.0686 H   0  0  0  0  0  0  0  0  0  0  0  0
   44.1878   35.1102   46.5692 H   0  0  0  0  0  0  0  0  0  0  0  0
   43.8295   36.8881   44.7637 H   0  0  0  0  0  0  0  0  0  0  0  0
   45.0779   32.4072   40.4015 H   0  0  0  0  0  0  0  0  0  0  0  0
   44.7294   33.2334   41.9899 H   0  0  0  0  0  0  0  0  0  0  0  0
   43.2579   34.6193   41.0766 H   0  0  0  0  0  0  0  0  0  0  0  0
   44.3172   34.9623   39.6670 H   0  0  0  0  0  0  0  0  0  0  0  0
   43.2657   33.5059   39.6670 H   0  0  0  0  0  0  0  0  0  0  0  0
  1 11  1  0
  2  1  2  0
  3  2  1  0
  4  5  1  0
  4  3  2  0
  5  6  2  0
  6 13  1  0
  6  1  1  0
  7  8  2  0
  9  8  1  0
 10  9  2  0
 11 10  1  0
 11 12  2  0
 12  7  1  0
 14 13  1  0
  2 15  1  0
  3 16  1  0
  4 17  1  0
  5 18  1  0
  7 19  1  0
  8 20  1  0
  9 21  1  0
 13 22  1  0
 13 23  1  0
 14 24  1  0
 14 25  1  0
 14 26  1  0
M  ISO  8  15  14  16  14  17  14  18  14  19  14  20  14  21  14  22   8
M  ISO  4  23   8  24   8  25   8  26   8
M  END
>  <minimizedAffinity>  (1) 
-4.99595594

>  <minimizedRMSD>  (1) 
0.364166766

$$$$
