
     RDKit          3D

 23 24  0  0  0  0  0  0  0  0999 V2000
   47.1670   34.5440   41.8680 C   0  0  0  0  0  0  0  0  0  0  0  0
   48.2320   35.4080   41.7360 C   0  0  0  0  0  0  0  0  0  0  0  0
   48.8780   35.5140   40.5020 C   0  0  0  0  0  0  0  0  0  0  0  0
   48.4870   34.7860   39.4160 C   0  0  0  0  0  0  0  0  0  0  0  0
   47.4280   33.9270   39.5450 C   0  0  0  0  0  0  0  0  0  0  0  0
   46.7800   33.8150   40.7650 C   0  0  0  0  0  0  0  0  0  0  0  0
   46.4470   33.4400   45.2550 C   0  0  0  0  0  0  0  0  0  0  0  0
   45.3230   34.1730   45.6330 C   0  0  0  0  0  0  0  0  0  0  0  0
   44.8140   35.0630   44.6870 C   0  0  0  0  0  0  0  0  0  0  0  0
   45.4180   35.1800   43.4630 N   0  0  0  0  0  0  0  0  0  0  0  0
   46.5060   34.4450   43.1500 C   0  0  0  0  0  0  0  0  0  0  0  0
   47.0060   33.5850   44.0480 N   0  0  0  0  0  0  0  0  0  0  0  0
   43.7080   35.9110   44.8050 O   0  0  0  0  0  0  0  0  0  0  0  0
   45.6690   32.9130   40.8980 N   0  0  0  0  0  0  0  0  0  0  0  0
   48.5701   36.0082   42.5936 H   0  0  0  0  0  0  0  0  0  0  0  0
   49.7278   36.2054   40.4026 H   0  0  0  0  0  0  0  0  0  0  0  0
   49.0125   34.8872   38.4550 H   0  0  0  0  0  0  0  0  0  0  0  0
   47.0934   33.3290   38.6845 H   0  0  0  0  0  0  0  0  0  0  0  0
   46.8852   32.7247   45.9666 H   0  0  0  0  0  0  0  0  0  0  0  0
   44.8619   34.0558   46.6248 H   0  0  0  0  0  0  0  0  0  0  0  0
   43.4517   36.4982   44.0503 H   0  0  0  0  0  0  0  0  0  0  0  0
   45.1827   32.8246   41.8017 H   0  0  0  0  0  0  0  0  0  0  0  0
   45.3591   32.3549   40.0897 H   0  0  0  0  0  0  0  0  0  0  0  0
  1 11  1  0
  2  1  2  0
  3  2  1  0
  4  5  1  0
  4  3  2  0
  5  6  2  0
  6 14  1  0
  6  1  1  0
  7  8  2  0
  9 13  1  0
  9  8  1  0
 10  9  2  0
 11 10  1  0
 11 12  2  0
 12  7  1  0
  2 15  1  0
  3 16  1  0
  4 17  1  0
  5 18  1  0
  7 19  1  0
  8 20  1  0
 13 21  1  0
 14 22  1  0
 14 23  1  0
M  ISO  7  15  14  16  14  17  14  18  14  19  14  20  14  21   3
M  END
>  <minimizedAffinity>  (1) 
-5.05553818

>  <minimizedRMSD>  (1) 
0.729116201

$$$$
