
     RDKit          3D

 39 40  0  0  1  0  0  0  0  0999 V2000
   49.3730   30.2830   43.4750 C   0  0  0  0  0  0  0  0  0  0  0  0
   48.3120   30.0910   44.3620 C   0  0  0  0  0  0  0  0  0  0  0  0
   47.3350   31.1010   44.4600 C   0  0  0  0  0  0  0  0  0  0  0  0
   47.4610   32.2160   43.6950 N   0  0  0  0  0  0  0  0  0  0  0  0
   48.5090   32.3620   42.8450 C   0  0  0  0  0  0  0  0  0  0  0  0
   49.4610   31.4080   42.7300 N   0  0  0  0  0  0  0  0  0  0  0  0
   48.6480   33.5480   42.0240 C   0  0  0  0  0  0  0  0  0  0  0  0
   49.2310   34.6580   42.5660 C   0  0  0  0  0  0  0  0  0  0  0  0
   49.3690   35.7940   41.7720 C   0  0  0  0  0  0  0  0  0  0  0  0
   48.9570   35.8640   40.4870 C   0  0  0  0  0  0  0  0  0  0  0  0
   48.3740   34.7530   39.9460 C   0  0  0  0  0  0  0  0  0  0  0  0
   48.2250   33.6150   40.7120 C   0  0  0  0  0  0  0  0  0  0  0  0
   47.6040   32.4400   40.1330 N   0  0  0  0  0  0  0  0  0  0  0  0
   46.2820   31.0170   45.2650 O   0  0  0  0  0  0  0  0  0  0  0  0
   45.9330   31.9730   46.2110 C   0  0  2  0  0  0  0  0  0  0  0  0
   45.6840   33.2880   45.3910 C   0  0  0  0  0  0  0  0  0  0  0  0
   47.1090   32.3160   47.0780 C   0  0  0  0  0  0  0  0  0  0  0  0
   46.5810   32.6780   48.4040 N   0  0  0  0  0  0  0  0  0  0  0  0
   46.1610   31.5800   49.2310 C   0  0  0  0  0  0  0  0  0  0  0  0
   46.8130   30.4510   49.0980 N   0  0  0  0  0  0  0  0  0  0  0  0
   45.0770   31.6740   50.1770 N   0  0  0  0  0  0  0  0  0  0  0  0
   46.5460   29.6140   49.6800 H   0  0  0  0  0  0  0  0  0  0  0  0
   50.1482   29.5082   43.3809 H   0  0  0  0  0  0  0  0  0  0  0  0
   48.2409   29.1757   44.9680 H   0  0  0  0  0  0  0  0  0  0  0  0
   49.5841   34.6548   43.6078 H   0  0  0  0  0  0  0  0  0  0  0  0
   49.8396   36.6837   42.2157 H   0  0  0  0  0  0  0  0  0  0  0  0
   49.0864   36.7833   39.8970 H   0  0  0  0  0  0  0  0  0  0  0  0
   48.0245   34.7657   38.9031 H   0  0  0  0  0  0  0  0  0  0  0  0
   47.4892   31.5867   40.6983 H   0  0  0  0  0  0  0  0  0  0  0  0
   47.2776   32.4584   39.1563 H   0  0  0  0  0  0  0  0  0  0  0  0
   45.0884   31.6083   46.8140 H   0  0  0  0  0  0  0  0  0  0  0  0
   45.5250   34.1275   46.0838 H   0  0  0  0  0  0  0  0  0  0  0  0
   46.5587   33.4961   44.7573 H   0  0  0  0  0  0  0  0  0  0  0  0
   44.7938   33.1619   44.7573 H   0  0  0  0  0  0  0  0  0  0  0  0
   47.7800   31.4486   47.1634 H   0  0  0  0  0  0  0  0  0  0  0  0
   47.6834   33.1485   46.6457 H   0  0  0  0  0  0  0  0  0  0  0  0
   46.5167   33.6565   48.7191 H   0  0  0  0  0  0  0  0  0  0  0  0
   44.8170   30.8553   50.7454 H   0  0  0  0  0  0  0  0  0  0  0  0
   44.5626   32.5599   50.2844 H   0  0  0  0  0  0  0  0  0  0  0  0
  1  2  2  0
  2  3  1  0
  3 14  1  0
  4  3  2  0
  5  4  1  0
  6  5  2  0
  6  1  1  0
  7  8  2  0
  7  5  1  0
  9  8  1  0
 10  9  2  0
 11 10  1  0
 11 12  2  0
 12  7  1  0
 13 12  1  0
 14 15  1  0
 15 17  1  0
 16 15  1  0
 17 18  1  0
 18 19  1  0
 19 21  1  0
 20 19  2  0
 20 22  1  0
  1 23  1  0
  2 24  1  0
  8 25  1  0
  9 26  1  0
 10 27  1  0
 11 28  1  0
 13 29  1  0
 13 30  1  0
 15 31  1  1
 16 32  1  0
 16 33  1  0
 16 34  1  0
 17 35  1  0
 17 36  1  0
 18 37  1  0
 21 38  1  0
 21 39  1  0
M  ISO  8  23  14  24  14  25  14  26  14  27  14  28  14  31   8  32   8
M  ISO  4  33   8  34   8  35   8  36   8
M  END
>  <minimizedAffinity>  (1) 
-5.14876604

>  <minimizedRMSD>  (1) 
2.25996399

$$$$
