
     RDKit          3D

 33 34  0  0  1  0  0  0  0  0999 V2000
   47.8970   30.3690   44.4500 C   0  0  0  0  0  0  0  0  0  0  0  0
   47.0040   30.6000   45.4960 C   0  0  0  0  0  0  0  0  0  0  0  0
   46.4600   31.8930   45.6280 C   0  0  0  0  0  0  0  0  0  0  0  0
   46.8290   32.8490   44.7380 N   0  0  0  0  0  0  0  0  0  0  0  0
   47.7010   32.5850   43.7330 C   0  0  0  0  0  0  0  0  0  0  0  0
   48.2350   31.3540   43.5860 N   0  0  0  0  0  0  0  0  0  0  0  0
   48.0850   33.6030   42.7830 C   0  0  0  0  0  0  0  0  0  0  0  0
   49.1690   34.3850   43.0610 C   0  0  0  0  0  0  0  0  0  0  0  0
   49.5420   35.3700   42.1420 C   0  0  0  0  0  0  0  0  0  0  0  0
   48.8730   35.5900   40.9810 C   0  0  0  0  0  0  0  0  0  0  0  0
   47.7940   34.8060   40.7120 C   0  0  0  0  0  0  0  0  0  0  0  0
   47.4120   33.8320   41.6020 C   0  0  0  0  0  0  0  0  0  0  0  0
   46.2610   33.0060   41.2990 N   0  0  0  0  0  0  0  0  0  0  0  0
   45.5980   32.2200   46.5830 O   0  0  0  0  0  0  0  0  0  0  0  0
   45.9390   32.4980   47.9070 C   0  0  2  0  0  0  0  0  0  0  0  0
   47.5010   32.3360   47.9570 C   0  0  0  0  0  0  0  0  0  0  0  0
   45.4460   31.3960   48.8030 C   0  0  0  0  0  0  0  0  0  0  0  0
   45.2800   31.8410   50.1150 O   0  0  0  0  0  0  0  0  0  0  0  0
   48.3347   29.3676   44.3250 H   0  0  0  0  0  0  0  0  0  0  0  0
   46.7325   29.7969   46.1969 H   0  0  0  0  0  0  0  0  0  0  0  0
   49.7385   34.2425   43.9912 H   0  0  0  0  0  0  0  0  0  0  0  0
   50.4176   35.9956   42.3698 H   0  0  0  0  0  0  0  0  0  0  0  0
   49.1928   36.3761   40.2811 H   0  0  0  0  0  0  0  0  0  0  0  0
   47.2270   34.9523   39.7808 H   0  0  0  0  0  0  0  0  0  0  0  0
   45.9654   32.2726   41.9590 H   0  0  0  0  0  0  0  0  0  0  0  0
   45.7383   33.1522   40.4236 H   0  0  0  0  0  0  0  0  0  0  0  0
   45.5401   33.4771   48.2107 H   0  0  0  0  0  0  0  0  0  0  0  0
   47.8327   32.3016   49.0052 H   0  0  0  0  0  0  0  0  0  0  0  0
   47.7893   31.4031   47.4504 H   0  0  0  0  0  0  0  0  0  0  0  0
   47.9746   33.1898   47.4504 H   0  0  0  0  0  0  0  0  0  0  0  0
   44.4797   31.0320   48.4238 H   0  0  0  0  0  0  0  0  0  0  0  0
   46.1945   30.5899   48.8035 H   0  0  0  0  0  0  0  0  0  0  0  0
   45.5475   31.1239   50.7430 H   0  0  0  0  0  0  0  0  0  0  0  0
  1  2  2  0
  2  3  1  0
  3 14  1  0
  4  3  2  0
  5  4  1  0
  6  5  2  0
  6  1  1  0
  7  8  2  0
  7  5  1  0
  9  8  1  0
 10  9  2  0
 11 10  1  0
 11 12  2  0
 12  7  1  0
 13 12  1  0
 14 15  1  0
 15 16  1  0
 15 17  1  0
 17 18  1  0
  1 19  1  0
  2 20  1  0
  8 21  1  0
  9 22  1  0
 10 23  1  0
 11 24  1  0
 13 25  1  0
 13 26  1  0
 15 27  1  1
 16 28  1  0
 16 29  1  0
 16 30  1  0
 17 31  1  0
 17 32  1  0
 18 33  1  0
M  ISO  8  19  14  20  14  21  14  22  14  23  14  24  14  27   8  28   8
M  ISO  5  29   8  30   8  31   8  32   8  33   3
M  END
>  <minimizedAffinity>  (1) 
-4.99983406

>  <minimizedRMSD>  (1) 
0.471291244

$$$$
