
     RDKit          3D

 36 37  0  0  1  0  0  0  0  0999 V2000
   44.5510   35.5640   45.1380 C   0  0  0  0  0  0  0  0  0  0  0  0
   45.0730   35.7740   43.8540 C   0  0  0  0  0  0  0  0  0  0  0  0
   46.0590   34.8630   43.3590 C   0  0  0  0  0  0  0  0  0  0  0  0
   46.4390   33.8450   44.1470 N   0  0  0  0  0  0  0  0  0  0  0  0
   45.9080   33.6660   45.3940 C   0  0  0  0  0  0  0  0  0  0  0  0
   44.9730   34.5160   45.8910 N   0  0  0  0  0  0  0  0  0  0  0  0
   46.3170   32.5540   46.2150 C   0  0  0  0  0  0  0  0  0  0  0  0
   47.0240   32.7950   47.3410 C   0  0  0  0  0  0  0  0  0  0  0  0
   47.4090   31.6940   48.1220 C   0  0  0  0  0  0  0  0  0  0  0  0
   47.1120   30.4050   47.8120 C   0  0  0  0  0  0  0  0  0  0  0  0
   46.4040   30.1830   46.6820 C   0  0  0  0  0  0  0  0  0  0  0  0
   46.0160   31.2320   45.9030 C   0  0  0  0  0  0  0  0  0  0  0  0
   45.2520   30.9630   44.6890 N   0  0  0  0  0  0  0  0  0  0  0  0
   46.5190   35.0810   42.1810 O   0  0  0  0  0  0  0  0  0  0  0  0
   47.6290   34.4760   41.6020 C   0  0  2  0  0  0  0  0  0  0  0  0
   48.7110   35.6380   41.5070 C   0  0  0  0  0  0  0  0  0  0  0  0
   47.3620   34.1500   40.2000 C   0  0  0  0  0  0  0  0  0  0  0  0
   48.2540   34.5690   39.2670 O   0  0  0  0  0  0  0  0  0  0  0  0
   48.0950   34.1120   38.0020 C   0  0  0  0  0  0  0  0  0  0  0  0
   46.7940   33.6160   37.7890 F   0  0  0  0  0  0  0  0  0  0  0  0
   48.2680   35.0320   36.9970 F   0  0  0  0  0  0  0  0  0  0  0  0
   49.0150   33.0820   37.7510 F   0  0  0  0  0  0  0  0  0  0  0  0
   43.7935   36.2537   45.5386 H   0  0  0  0  0  0  0  0  0  0  0  0
   44.7319   36.6208   43.2403 H   0  0  0  0  0  0  0  0  0  0  0  0
   47.2893   33.8209   47.6361 H   0  0  0  0  0  0  0  0  0  0  0  0
   47.9852   31.8862   49.0391 H   0  0  0  0  0  0  0  0  0  0  0  0
   47.4353   29.5738   48.4559 H   0  0  0  0  0  0  0  0  0  0  0  0
   46.1409   29.1553   46.3911 H   0  0  0  0  0  0  0  0  0  0  0  0
   45.0151   29.9936   44.4338 H   0  0  0  0  0  0  0  0  0  0  0  0
   44.9497   31.7425   44.0874 H   0  0  0  0  0  0  0  0  0  0  0  0
   47.9144   33.5802   42.1730 H   0  0  0  0  0  0  0  0  0  0  0  0
   49.0026   35.9512   42.5203 H   0  0  0  0  0  0  0  0  0  0  0  0
   49.5966   35.2711   40.9675 H   0  0  0  0  0  0  0  0  0  0  0  0
   48.2820   36.4953   40.9675 H   0  0  0  0  0  0  0  0  0  0  0  0
   47.3007   33.0543   40.1250 H   0  0  0  0  0  0  0  0  0  0  0  0
   46.4382   34.6976   39.9620 H   0  0  0  0  0  0  0  0  0  0  0  0
  1  6  2  0
  2  1  1  0
  3  2  2  0
  3  4  1  0
  4  5  2  0
  5  6  1  0
  5  7  1  0
  7  8  2  0
  8  9  1  0
 10  9  2  0
 11 10  1  0
 12  7  1  0
 12 11  2  0
 13 12  1  0
 14  3  1  0
 15 14  1  0
 16 15  1  0
 17 15  1  0
 18 17  1  0
 19 18  1  0
 20 19  1  0
 21 19  1  0
 22 19  1  0
  1 23  1  0
  2 24  1  0
  8 25  1  0
  9 26  1  0
 10 27  1  0
 11 28  1  0
 13 29  1  0
 13 30  1  0
 15 31  1  1
 16 32  1  0
 16 33  1  0
 16 34  1  0
 17 35  1  0
 17 36  1  0
M  ISO  8  23  14  24  14  25  14  26  14  27  14  28  14  31   8  32   8
M  ISO  4  33   8  34   8  35   8  36   8
M  END
>  <minimizedAffinity>  (1) 
-5.88449717

>  <minimizedRMSD>  (1) 
8.20032692

$$$$
