
     RDKit          3D

 39 40  0  0  1  0  0  0  0  0999 V2000
   49.2050   29.6790   42.3430 C   0  0  0  0  0  0  0  0  0  0  0  0
   48.6230   29.4250   43.6110 C   0  0  0  0  0  0  0  0  0  0  0  0
   48.1030   30.5170   44.3430 C   0  0  0  0  0  0  0  0  0  0  0  0
   48.1870   31.7520   43.7940 N   0  0  0  0  0  0  0  0  0  0  0  0
   48.7500   31.9540   42.5790 C   0  0  0  0  0  0  0  0  0  0  0  0
   49.2590   30.9460   41.8440 N   0  0  0  0  0  0  0  0  0  0  0  0
   48.8230   33.2850   42.0240 C   0  0  0  0  0  0  0  0  0  0  0  0
   49.4900   34.2560   42.7100 C   0  0  0  0  0  0  0  0  0  0  0  0
   49.5500   35.5460   42.1570 C   0  0  0  0  0  0  0  0  0  0  0  0
   48.9860   35.8760   40.9880 C   0  0  0  0  0  0  0  0  0  0  0  0
   48.3130   34.8970   40.2950 C   0  0  0  0  0  0  0  0  0  0  0  0
   48.2420   33.6310   40.8170 C   0  0  0  0  0  0  0  0  0  0  0  0
   47.5320   32.6080   40.0700 N   0  0  0  0  0  0  0  0  0  0  0  0
   47.5830   30.2460   45.4890 O   0  0  0  0  0  0  0  0  0  0  0  0
   46.5430   30.9640   46.1220 C   0  0  2  0  0  0  0  0  0  0  0  0
   45.6890   31.4890   44.9200 C   0  0  0  0  0  0  0  0  0  0  0  0
   47.1290   32.2670   46.7500 C   0  0  1  0  0  0  0  0  0  0  0  0
   46.5000   33.4160   46.2100 N   0  0  0  0  0  0  0  0  0  0  0  0
   46.4950   32.3010   47.9850 O   0  0  0  0  0  0  0  0  0  0  0  0
   46.5640   31.5120   49.0210 C   0  0  0  0  0  0  0  0  0  0  0  0
   47.5000   30.6980   49.6150 N   0  0  0  0  0  0  0  0  0  0  0  0
   45.4380   31.5290   49.6060 O   0  0  0  0  0  0  0  0  0  0  0  0
   49.6171   28.8448   41.7562 H   0  0  0  0  0  0  0  0  0  0  0  0
   48.5773   28.4030   44.0152 H   0  0  0  0  0  0  0  0  0  0  0  0
   49.9703   34.0345   43.6745 H   0  0  0  0  0  0  0  0  0  0  0  0
   50.0890   36.3267   42.7138 H   0  0  0  0  0  0  0  0  0  0  0  0
   49.0589   36.9003   40.5936 H   0  0  0  0  0  0  0  0  0  0  0  0
   47.8361   35.1275   39.3309 H   0  0  0  0  0  0  0  0  0  0  0  0
   47.4661   31.6502   40.4431 H   0  0  0  0  0  0  0  0  0  0  0  0
   47.0943   32.8401   39.1670 H   0  0  0  0  0  0  0  0  0  0  0  0
   46.0209   30.3526   46.8728 H   0  0  0  0  0  0  0  0  0  0  0  0
   44.8104   32.0291   45.3027 H   0  0  0  0  0  0  0  0  0  0  0  0
   46.2985   32.1686   44.3063 H   0  0  0  0  0  0  0  0  0  0  0  0
   45.3578   30.6383   44.3063 H   0  0  0  0  0  0  0  0  0  0  0  0
   48.2252   32.2665   46.6591 H   0  0  0  0  0  0  0  0  0  0  0  0
   46.1699   34.0191   46.9769 H   0  0  0  0  0  0  0  0  0  0  0  0
   47.1741   33.9359   45.6302 H   0  0  0  0  0  0  0  0  0  0  0  0
   47.2580   30.1705   50.4659 H   0  0  0  0  0  0  0  0  0  0  0  0
   48.4430   30.6159   49.2090 H   0  0  0  0  0  0  0  0  0  0  0  0
  1  2  2  0
  2  3  1  0
  3 14  1  0
  4  3  2  0
  5  4  1  0
  6  1  1  0
  6  5  2  0
  7  5  1  0
  7  8  2  0
  9  8  1  0
 10  9  2  0
 11 12  2  0
 11 10  1  0
 12  7  1  0
 13 12  1  0
 14 15  1  0
 15 17  1  0
 16 15  1  0
 17 19  1  0
 18 17  1  0
 19 20  1  0
 20 22  2  0
 20 21  1  0
  1 23  1  0
  2 24  1  0
  8 25  1  0
  9 26  1  0
 10 27  1  0
 11 28  1  0
 13 29  1  0
 13 30  1  0
 15 31  1  1
 16 32  1  0
 16 33  1  0
 16 34  1  0
 17 35  1  1
 18 36  1  0
 18 37  1  0
 21 38  1  0
 21 39  1  0
M  ISO  8  23  14  24  14  25  14  26  14  27  14  28  14  31   8  32   8
M  ISO  5  33   8  34   8  35   8  36   5  37   5
M  END
>  <minimizedAffinity>  (1) 
-5.11070824

>  <minimizedRMSD>  (1) 
1.22490048

$$$$
