
     RDKit          3D

 31 34  0  0  0  0  0  0  0  0999 V2000
   44.4950   35.9680   44.6640 C   0  0  0  0  0  0  0  0  0  0  0  0
   45.2110   35.9270   43.4500 C   0  0  0  0  0  0  0  0  0  0  0  0
   46.1110   34.8820   43.2820 C   0  0  0  0  0  0  0  0  0  0  0  0
   46.2460   33.9730   44.2840 N   0  0  0  0  0  0  0  0  0  0  0  0
   45.5490   34.0390   45.4300 C   0  0  0  0  0  0  0  0  0  0  0  0
   44.6760   35.0370   45.6150 N   0  0  0  0  0  0  0  0  0  0  0  0
   45.7620   33.0160   46.4500 C   0  0  0  0  0  0  0  0  0  0  0  0
   45.2360   33.0480   47.7230 C   0  0  0  0  0  0  0  0  0  0  0  0
   45.6830   31.9250   48.3080 N   0  0  0  0  0  0  0  0  0  0  0  0
   46.4520   31.1980   47.4780 C   0  0  0  0  0  0  0  0  0  0  0  0
   47.0870   29.9940   47.7130 C   0  0  0  0  0  0  0  0  0  0  0  0
   47.8380   29.4390   46.6690 C   0  0  0  0  0  0  0  0  0  0  0  0
   47.9010   30.1230   45.4720 C   0  0  0  0  0  0  0  0  0  0  0  0
   47.2720   31.3230   45.2300 C   0  0  0  0  0  0  0  0  0  0  0  0
   46.5340   31.8640   46.2610 C   0  0  0  0  0  0  0  0  0  0  0  0
   46.8920   34.7810   42.0340 C   0  0  0  0  0  0  0  0  0  0  0  0
   46.4260   34.1050   40.9210 C   0  0  0  0  0  0  0  0  0  0  0  0
   47.4380   34.2530   40.0080 N   0  0  0  0  0  0  0  0  0  0  0  0
   48.4190   34.9720   40.5740 C   0  0  0  0  0  0  0  0  0  0  0  0
   48.1060   35.3090   41.8260 N   0  0  0  0  0  0  0  0  0  0  0  0
   43.7728   36.7797   44.8359 H   0  0  0  0  0  0  0  0  0  0  0  0
   45.0635   36.6888   42.6703 H   0  0  0  0  0  0  0  0  0  0  0  0
   44.5915   33.8231   48.1633 H   0  0  0  0  0  0  0  0  0  0  0  0
   45.4632   31.6529   49.2768 H   0  0  0  0  0  0  0  0  0  0  0  0
   47.0057   29.4884   48.6866 H   0  0  0  0  0  0  0  0  0  0  0  0
   48.3643   28.4820   46.7999 H   0  0  0  0  0  0  0  0  0  0  0  0
   48.4930   29.6799   44.6576 H   0  0  0  0  0  0  0  0  0  0  0  0
   47.3546   31.8283   44.2564 H   0  0  0  0  0  0  0  0  0  0  0  0
   45.4703   33.5745   40.7976 H   0  0  0  0  0  0  0  0  0  0  0  0
   49.3580   35.2474   40.0716 H   0  0  0  0  0  0  0  0  0  0  0  0
   48.6738   35.8560   42.4887 H   0  0  0  0  0  0  0  0  0  0  0  0
  1  6  2  0
  2  1  1  0
  3  2  2  0
  3  4  1  0
  4  5  2  0
  5  6  1  0
  5  7  1  0
  7  8  2  0
  8  9  1  0
 10 11  2  0
 10  9  1  0
 12 11  1  0
 13 12  2  0
 14 13  1  0
 14 15  2  0
 15  7  1  0
 15 10  1  0
 16  3  1  0
 17 16  2  0
 18 19  2  0
 18 17  1  0
 19 20  1  0
 20 16  1  0
  1 21  1  0
  2 22  1  0
  8 23  1  0
  9 24  1  0
 11 25  1  0
 12 26  1  0
 13 27  1  0
 14 28  1  0
 17 29  1  0
 19 30  1  0
 20 31  1  0
M  ISO  8  21  14  22  14  23  14  24   9  25  14  26  14  27  14  28  14
M  ISO  3  29  14  30  14  31   9
M  END
>  <minimizedAffinity>  (1) 
-5.93113136

>  <minimizedRMSD>  (1) 
0.486469626

$$$$
