
     RDKit          3D

 30 32  0  0  0  0  0  0  0  0999 V2000
   44.5250   35.9100   44.8010 C   0  0  0  0  0  0  0  0  0  0  0  0
   45.2320   35.8850   43.5840 C   0  0  0  0  0  0  0  0  0  0  0  0
   46.1190   34.8470   43.3670 C   0  0  0  0  0  0  0  0  0  0  0  0
   46.2680   33.8920   44.3470 N   0  0  0  0  0  0  0  0  0  0  0  0
   45.5700   33.9510   45.5040 C   0  0  0  0  0  0  0  0  0  0  0  0
   44.7110   34.9490   45.7250 N   0  0  0  0  0  0  0  0  0  0  0  0
   45.7460   32.9520   46.4980 N   0  0  0  0  0  0  0  0  0  0  0  0
   46.6760   31.8460   46.2920 C   0  0  0  0  0  0  0  0  0  0  0  0
   47.6220   31.8150   47.4730 C   0  0  0  0  0  0  0  0  0  0  0  0
   47.1040   32.3690   48.6200 O   0  0  0  0  0  0  0  0  0  0  0  0
   45.7380   32.2280   48.7740 C   0  0  0  0  0  0  0  0  0  0  0  0
   44.9970   33.0220   47.7290 C   0  0  0  0  0  0  0  0  0  0  0  0
   46.8820   34.7670   42.1200 C   0  0  0  0  0  0  0  0  0  0  0  0
   46.4010   34.1220   40.9890 C   0  0  0  0  0  0  0  0  0  0  0  0
   47.3920   34.2690   40.0600 N   0  0  0  0  0  0  0  0  0  0  0  0
   48.3910   34.9680   40.6410 C   0  0  0  0  0  0  0  0  0  0  0  0
   48.0970   35.2820   41.9020 N   0  0  0  0  0  0  0  0  0  0  0  0
   43.8124   36.7242   44.9992 H   0  0  0  0  0  0  0  0  0  0  0  0
   45.0829   36.6691   42.8271 H   0  0  0  0  0  0  0  0  0  0  0  0
   46.1224   30.8974   46.2303 H   0  0  0  0  0  0  0  0  0  0  0  0
   47.2345   31.9816   45.3541 H   0  0  0  0  0  0  0  0  0  0  0  0
   47.8803   30.7663   47.6817 H   0  0  0  0  0  0  0  0  0  0  0  0
   48.4976   32.4201   47.1950 H   0  0  0  0  0  0  0  0  0  0  0  0
   45.4717   31.1653   48.6755 H   0  0  0  0  0  0  0  0  0  0  0  0
   45.4546   32.6030   49.7685 H   0  0  0  0  0  0  0  0  0  0  0  0
   44.9068   34.0698   48.0514 H   0  0  0  0  0  0  0  0  0  0  0  0
   43.9867   32.6117   47.5841 H   0  0  0  0  0  0  0  0  0  0  0  0
   45.4366   33.6071   40.8676 H   0  0  0  0  0  0  0  0  0  0  0  0
   49.3290   35.2433   40.1367 H   0  0  0  0  0  0  0  0  0  0  0  0
   48.6808   35.8089   42.5671 H   0  0  0  0  0  0  0  0  0  0  0  0
  1  6  2  0
  2  1  1  0
  3  2  2  0
  3  4  1  0
  4  5  2  0
  5  6  1  0
  5  7  1  0
  7 12  1  0
  8  7  1  0
  8  9  1  0
  9 10  1  0
 10 11  1  0
 12 11  1  0
 13  3  1  0
 14 13  2  0
 15 16  2  0
 15 14  1  0
 16 17  1  0
 17 13  1  0
  1 18  1  0
  2 19  1  0
  8 20  1  0
  8 21  1  0
  9 22  1  0
  9 23  1  0
 11 24  1  0
 11 25  1  0
 12 26  1  0
 12 27  1  0
 14 28  1  0
 16 29  1  0
 17 30  1  0
M  ISO  8  18  14  19  14  20  13  21  13  22  13  23  13  24  13  25  13
M  ISO  5  26  13  27  13  28  14  29  14  30   9
M  END
>  <minimizedAffinity>  (1) 
-5.66482162

>  <minimizedRMSD>  (1) 
0.195130333

$$$$
