
     RDKit          3D

 25 27  0  0  0  0  0  0  0  0999 V2000
   44.4990   35.8430   44.6920 C   0  0  0  0  0  0  0  0  0  0  0  0
   45.2010   35.8140   43.4760 C   0  0  0  0  0  0  0  0  0  0  0  0
   46.1700   34.8120   43.3120 C   0  0  0  0  0  0  0  0  0  0  0  0
   46.3770   33.9330   44.3240 N   0  0  0  0  0  0  0  0  0  0  0  0
   45.6830   33.9920   45.4790 C   0  0  0  0  0  0  0  0  0  0  0  0
   44.7570   34.9320   45.6620 N   0  0  0  0  0  0  0  0  0  0  0  0
   46.9220   34.7530   42.0570 C   0  0  0  0  0  0  0  0  0  0  0  0
   46.4660   34.1260   40.9260 C   0  0  0  0  0  0  0  0  0  0  0  0
   47.4600   34.3030   39.9960 N   0  0  0  0  0  0  0  0  0  0  0  0
   48.4400   35.0030   40.5750 C   0  0  0  0  0  0  0  0  0  0  0  0
   48.1460   35.3010   41.8480 N   0  0  0  0  0  0  0  0  0  0  0  0
   45.9620   33.0090   46.5240 C   0  0  0  0  0  0  0  0  0  0  0  0
   47.0250   32.1400   46.3810 C   0  0  0  0  0  0  0  0  0  0  0  0
   47.2720   31.2190   47.3800 C   0  0  0  0  0  0  0  0  0  0  0  0
   46.4730   31.1960   48.4560 N   0  0  0  0  0  0  0  0  0  0  0  0
   45.4290   32.0480   48.6000 C   0  0  0  0  0  0  0  0  0  0  0  0
   45.1890   32.9460   47.6230 N   0  0  0  0  0  0  0  0  0  0  0  0
   43.7316   36.6132   44.8591 H   0  0  0  0  0  0  0  0  0  0  0  0
   44.9991   36.5485   42.6824 H   0  0  0  0  0  0  0  0  0  0  0  0
   45.5112   33.5963   40.7929 H   0  0  0  0  0  0  0  0  0  0  0  0
   49.3716   35.2978   40.0698 H   0  0  0  0  0  0  0  0  0  0  0  0
   48.7216   35.8291   42.5194 H   0  0  0  0  0  0  0  0  0  0  0  0
   47.6643   32.1804   45.4868 H   0  0  0  0  0  0  0  0  0  0  0  0
   48.1123   30.5144   47.2939 H   0  0  0  0  0  0  0  0  0  0  0  0
   44.7908   32.0079   49.4950 H   0  0  0  0  0  0  0  0  0  0  0  0
  1  6  2  0
  2  1  1  0
  3  2  2  0
  3  4  1  0
  4  5  2  0
  5  6  1  0
  5 12  1  0
  7  3  1  0
  8  7  2  0
  9 10  2  0
  9  8  1  0
 10 11  1  0
 11  7  1  0
 12 17  1  0
 13 12  2  0
 13 14  1  0
 14 15  2  0
 15 16  1  0
 17 16  2  0
  1 18  1  0
  2 19  1  0
  8 20  1  0
 10 21  1  0
 11 22  1  0
 13 23  1  0
 14 24  1  0
 16 25  1  0
M  ISO  8  18  14  19  14  20  14  21  14  22   9  23  14  24  14  25  14
M  END
>  <minimizedAffinity>  (1) 
-5.57470608

>  <minimizedRMSD>  (1) 
0.457590014

$$$$
