
     RDKit          3D

 46 49  0  0  1  0  0  0  0  0999 V2000
   44.5710   35.7470   44.8180 C   0  0  0  0  0  0  0  0  0  0  0  0
   45.2790   35.7750   43.5710 C   0  0  0  0  0  0  0  0  0  0  0  0
   46.1890   34.7650   43.3310 C   0  0  0  0  0  0  0  0  0  0  0  0
   46.3610   33.8040   44.2910 N   0  0  0  0  0  0  0  0  0  0  0  0
   45.6770   33.8090   45.4340 C   0  0  0  0  0  0  0  0  0  0  0  0
   44.7910   34.7700   45.7010 N   0  0  0  0  0  0  0  0  0  0  0  0
   45.9040   32.7580   46.4250 N   0  0  0  0  0  0  0  0  0  0  0  0
   45.1720   32.7490   47.6730 C   0  0  0  0  0  0  0  0  0  0  0  0
   45.9920   32.2490   48.8210 C   0  0  0  0  0  0  0  0  0  0  0  0
   47.4490   32.2640   48.4560 C   0  0  0  0  0  0  0  0  0  0  0  0
   47.6140   31.2450   47.3350 C   0  0  0  0  0  0  0  0  0  0  0  0
   46.8800   31.7210   46.1330 C   0  0  1  0  0  0  0  0  0  0  0  0
   46.2760   30.6140   45.3240 C   0  0  0  0  0  0  0  0  0  0  0  0
   46.5360   30.2660   44.0640 N   0  0  0  0  0  0  0  0  0  0  0  0
   45.8300   29.2400   43.6950 O   0  0  0  0  0  0  0  0  0  0  0  0
   45.0830   28.9000   44.7270 C   0  0  0  0  0  0  0  0  0  0  0  0
   45.3300   29.7300   45.7580 N   0  0  0  0  0  0  0  0  0  0  0  0
   43.9270   27.5390   44.6500 S   0  0  0  0  0  0  0  0  0  0  0  0
   40.4550   30.3210   44.1400 N   0  0  0  0  0  0  0  0  0  0  0  0
   40.2700   29.2370   45.0490 C   0  0  0  0  0  0  0  0  0  0  0  0
   41.4970   28.4250   45.3280 C   0  0  0  0  0  0  0  0  0  0  0  0
   42.3050   28.0990   44.1040 C   0  0  0  0  0  0  0  0  0  0  0  0
   42.5030   29.3030   43.2270 C   0  0  0  0  0  0  0  0  0  0  0  0
   41.2130   30.0260   42.9680 C   0  0  0  0  0  0  0  0  0  0  0  0
   43.8409   36.5368   45.0487 H   0  0  0  0  0  0  0  0  0  0  0  0
   45.1034   36.5717   42.8332 H   0  0  0  0  0  0  0  0  0  0  0  0
   46.7614   34.7331   42.3922 H   0  0  0  0  0  0  0  0  0  0  0  0
   44.8438   33.7750   47.8957 H   0  0  0  0  0  0  0  0  0  0  0  0
   44.3186   32.0656   47.5523 H   0  0  0  0  0  0  0  0  0  0  0  0
   45.8286   32.8968   49.6949 H   0  0  0  0  0  0  0  0  0  0  0  0
   45.6898   31.2185   49.0591 H   0  0  0  0  0  0  0  0  0  0  0  0
   47.7454   33.2648   48.1089 H   0  0  0  0  0  0  0  0  0  0  0  0
   48.0826   32.0167   49.3205 H   0  0  0  0  0  0  0  0  0  0  0  0
   48.6813   31.1320   47.0941 H   0  0  0  0  0  0  0  0  0  0  0  0
   47.2101   30.2732   47.6551 H   0  0  0  0  0  0  0  0  0  0  0  0
   47.6564   32.1831   45.5055 H   0  0  0  0  0  0  0  0  0  0  0  0
   39.5241   30.6451   43.8410 H   0  0  0  0  0  0  0  0  0  0  0  0
   39.9105   29.6500   46.0031 H   0  0  0  0  0  0  0  0  0  0  0  0
   39.5534   28.5541   44.5693 H   0  0  0  0  0  0  0  0  0  0  0  0
   42.1351   28.9901   46.0234 H   0  0  0  0  0  0  0  0  0  0  0  0
   41.1563   27.4675   45.7489 H   0  0  0  0  0  0  0  0  0  0  0  0
   41.7689   27.3326   43.5251 H   0  0  0  0  0  0  0  0  0  0  0  0
   43.2035   29.9919   43.7218 H   0  0  0  0  0  0  0  0  0  0  0  0
   42.9006   28.9589   42.2608 H   0  0  0  0  0  0  0  0  0  0  0  0
   41.4462   30.9744   42.4618 H   0  0  0  0  0  0  0  0  0  0  0  0
   40.5943   29.3530   42.3562 H   0  0  0  0  0  0  0  0  0  0  0  0
  1  6  2  0
  2  1  1  0
  3  2  2  0
  3  4  1  0
  4  5  2  0
  5  6  1  0
  5  7  1  0
  7  8  1  0
  8  9  1  0
 10  9  1  0
 11 10  1  0
 12  7  1  0
 12 11  1  0
 13 17  1  0
 13 12  1  0
 14 13  2  0
 15 14  1  0
 15 16  1  0
 16 17  2  0
 18 16  1  0
 19 20  1  0
 20 21  1  0
 22 18  1  0
 22 21  1  0
 23 22  1  0
 24 23  1  0
 24 19  1  0
  1 25  1  0
  2 26  1  0
  3 27  1  0
  8 28  1  0
  8 29  1  0
  9 30  1  0
  9 31  1  0
 10 32  1  0
 10 33  1  0
 11 34  1  0
 11 35  1  0
 12 36  1  6
 19 37  1  0
 20 38  1  0
 20 39  1  0
 21 40  1  0
 21 41  1  0
 22 42  1  0
 23 43  1  0
 23 44  1  0
 24 45  1  0
 24 46  1  0
M  ISO  8  25  14  26  14  27  14  28  13  29  13  30  13  31  13  32  13
M  ISO  8  33  13  34  13  35  13  36  13  37   5  38  13  39  13  40  13
M  ISO  6  41  13  42  13  43  13  44  13  45  13  46  13
M  END
>  <minimizedAffinity>  (1) 
-5.81193209

>  <minimizedRMSD>  (1) 
2.09813237

$$$$
