
     RDKit          3D

 24 26  0  0  0  0  0  0  0  0999 V2000
   44.4740   35.8830   44.6710 C   0  0  0  0  0  0  0  0  0  0  0  0
   45.1780   35.8550   43.4460 C   0  0  0  0  0  0  0  0  0  0  0  0
   46.1430   34.8590   43.3040 C   0  0  0  0  0  0  0  0  0  0  0  0
   46.3750   33.9640   44.3230 N   0  0  0  0  0  0  0  0  0  0  0  0
   45.6620   34.0490   45.4740 C   0  0  0  0  0  0  0  0  0  0  0  0
   44.7280   34.9910   45.6450 N   0  0  0  0  0  0  0  0  0  0  0  0
   46.9150   34.7720   42.0450 C   0  0  0  0  0  0  0  0  0  0  0  0
   46.4400   34.1030   40.9280 C   0  0  0  0  0  0  0  0  0  0  0  0
   47.4300   34.2520   39.9970 N   0  0  0  0  0  0  0  0  0  0  0  0
   48.4190   34.9690   40.5570 C   0  0  0  0  0  0  0  0  0  0  0  0
   48.1240   35.3030   41.8250 N   0  0  0  0  0  0  0  0  0  0  0  0
   46.0430   33.0200   46.4400 C   0  0  0  0  0  0  0  0  0  0  0  0
   45.2560   32.8990   47.5850 C   0  0  0  0  0  0  0  0  0  0  0  0
   45.8200   31.8620   48.3350 C   0  0  0  0  0  0  0  0  0  0  0  0
   46.8970   31.4060   47.6370 N   0  0  0  0  0  0  0  0  0  0  0  0
   47.0300   32.0950   46.5090 N   0  0  0  0  0  0  0  0  0  0  0  0
   43.7022   36.6503   44.8312 H   0  0  0  0  0  0  0  0  0  0  0  0
   44.9750   36.5818   42.6456 H   0  0  0  0  0  0  0  0  0  0  0  0
   45.4830   33.5723   40.8159 H   0  0  0  0  0  0  0  0  0  0  0  0
   49.3510   35.2471   40.0432 H   0  0  0  0  0  0  0  0  0  0  0  0
   48.7007   35.8473   42.4823 H   0  0  0  0  0  0  0  0  0  0  0  0
   44.3709   33.4979   47.8455 H   0  0  0  0  0  0  0  0  0  0  0  0
   45.4617   31.4860   49.3047 H   0  0  0  0  0  0  0  0  0  0  0  0
   47.5165   30.6405   47.9389 H   0  0  0  0  0  0  0  0  0  0  0  0
  1  6  2  0
  2  1  1  0
  3  2  2  0
  3  4  1  0
  4  5  2  0
  5  6  1  0
  5 12  1  0
  7  3  1  0
  8  7  2  0
  9 10  2  0
  9  8  1  0
 10 11  1  0
 11  7  1  0
 12 16  2  0
 12 13  1  0
 13 14  2  0
 15 14  1  0
 16 15  1  0
  1 17  1  0
  2 18  1  0
  8 19  1  0
 10 20  1  0
 11 21  1  0
 13 22  1  0
 14 23  1  0
 15 24  1  0
M  ISO  8  17  14  18  14  19  14  20  14  21   9  22  14  23  14  24   9
M  END
>  <minimizedAffinity>  (1) 
-5.25844336

>  <minimizedRMSD>  (1) 
0.280006528

$$$$
