
     RDKit          3D

 24 26  0  0  0  0  0  0  0  0999 V2000
   44.4680   36.0460   44.6170 C   0  0  0  0  0  0  0  0  0  0  0  0
   45.1950   35.9520   43.4280 C   0  0  0  0  0  0  0  0  0  0  0  0
   46.1010   34.9120   43.2640 C   0  0  0  0  0  0  0  0  0  0  0  0
   46.2250   34.0350   44.2920 N   0  0  0  0  0  0  0  0  0  0  0  0
   45.5200   34.1370   45.4290 C   0  0  0  0  0  0  0  0  0  0  0  0
   44.6510   35.1300   45.5930 N   0  0  0  0  0  0  0  0  0  0  0  0
   46.8790   34.7840   42.0320 C   0  0  0  0  0  0  0  0  0  0  0  0
   46.4170   34.0970   40.9220 C   0  0  0  0  0  0  0  0  0  0  0  0
   47.4220   34.2110   40.0050 N   0  0  0  0  0  0  0  0  0  0  0  0
   48.4120   34.9290   40.5580 C   0  0  0  0  0  0  0  0  0  0  0  0
   48.1040   35.2980   41.8150 N   0  0  0  0  0  0  0  0  0  0  0  0
   45.7400   33.1520   46.4340 C   0  0  0  0  0  0  0  0  0  0  0  0
   45.2510   32.8950   47.6540 C   0  0  0  0  0  0  0  0  0  0  0  0
   45.6570   31.8460   48.4230 C   0  0  0  0  0  0  0  0  0  0  0  0
   46.6940   31.0250   47.7610 C   0  0  0  0  0  0  0  0  0  0  0  0
   46.9250   31.9020   46.1170 S   0  0  0  0  0  0  0  0  0  0  0  0
   43.7473   36.8649   44.7585 H   0  0  0  0  0  0  0  0  0  0  0  0
   45.0514   36.6945   42.6292 H   0  0  0  0  0  0  0  0  0  0  0  0
   45.4553   33.5759   40.8052 H   0  0  0  0  0  0  0  0  0  0  0  0
   49.3537   35.1831   40.0494 H   0  0  0  0  0  0  0  0  0  0  0  0
   48.6785   35.8513   42.4668 H   0  0  0  0  0  0  0  0  0  0  0  0
   44.4795   33.5674   48.0572 H   0  0  0  0  0  0  0  0  0  0  0  0
   45.2576   31.6332   49.4256 H   0  0  0  0  0  0  0  0  0  0  0  0
   47.2028   30.1254   48.1377 H   0  0  0  0  0  0  0  0  0  0  0  0
  1  6  2  0
  2  1  1  0
  3  2  2  0
  3  4  1  0
  4  5  2  0
  5  6  1  0
  5 12  1  0
  7  3  1  0
  8  7  2  0
  9 10  2  0
  9  8  1  0
 10 11  1  0
 11  7  1  0
 12 13  2  0
 13 14  1  0
 15 14  2  0
 16 12  1  0
 16 15  1  0
  1 17  1  0
  2 18  1  0
  8 19  1  0
 10 20  1  0
 11 21  1  0
 13 22  1  0
 14 23  1  0
 15 24  1  0
M  ISO  8  17  14  18  14  19  14  20  14  21   9  22  14  23  14  24  14
M  END
>  <minimizedAffinity>  (1) 
-5.31562901

>  <minimizedRMSD>  (1) 
0.160327047

$$$$
