
     RDKit          3D

 30 32  0  0  0  0  0  0  0  0999 V2000
   44.8310   35.0360   44.5500 C   0  0  0  0  0  0  0  0  0  0  0  0
   45.4920   35.2760   43.3270 C   0  0  0  0  0  0  0  0  0  0  0  0
   46.6640   34.5600   43.0920 C   0  0  0  0  0  0  0  0  0  0  0  0
   47.1000   33.6860   44.0350 N   0  0  0  0  0  0  0  0  0  0  0  0
   46.4450   33.4810   45.1890 C   0  0  0  0  0  0  0  0  0  0  0  0
   45.3220   34.1440   45.4540 N   0  0  0  0  0  0  0  0  0  0  0  0
   47.3910   34.7710   41.8360 C   0  0  0  0  0  0  0  0  0  0  0  0
   47.0550   34.1510   40.6510 C   0  0  0  0  0  0  0  0  0  0  0  0
   47.9640   34.6080   39.7390 N   0  0  0  0  0  0  0  0  0  0  0  0
   48.7910   35.4600   40.3800 C   0  0  0  0  0  0  0  0  0  0  0  0
   48.4620   35.5790   41.6720 N   0  0  0  0  0  0  0  0  0  0  0  0
   48.0350   30.5840   47.9140 C   0  0  0  0  0  0  0  0  0  0  0  0
   47.8750   30.2960   46.5770 C   0  0  0  0  0  0  0  0  0  0  0  0
   47.3630   31.2590   45.7510 C   0  0  0  0  0  0  0  0  0  0  0  0
   46.9820   32.5240   46.1480 C   0  0  0  0  0  0  0  0  0  0  0  0
   47.1440   32.8040   47.4880 C   0  0  0  0  0  0  0  0  0  0  0  0
   47.6660   31.8310   48.3410 C   0  0  0  0  0  0  0  0  0  0  0  0
   48.6830   29.4030   49.0240 S   0  0  0  0  0  0  0  0  0  0  0  0
   49.6020   28.4840   48.2340 O   0  0  0  0  0  0  0  0  0  0  0  0
   49.4170   30.0270   50.1700 O   0  0  0  0  0  0  0  0  0  0  0  0
   43.9020   35.5794   44.7774 H   0  0  0  0  0  0  0  0  0  0  0  0
   45.1002   35.9953   42.5927 H   0  0  0  0  0  0  0  0  0  0  0  0
   46.2325   33.4415   40.4774 H   0  0  0  0  0  0  0  0  0  0  0  0
   49.6285   35.9891   39.9019 H   0  0  0  0  0  0  0  0  0  0  0  0
   48.9244   36.1599   42.3859 H   0  0  0  0  0  0  0  0  0  0  0  0
   48.1540   29.3088   46.1800 H   0  0  0  0  0  0  0  0  0  0  0  0
   47.2460   31.0047   44.6872 H   0  0  0  0  0  0  0  0  0  0  0  0
   46.8627   33.7912   47.8835 H   0  0  0  0  0  0  0  0  0  0  0  0
   47.7866   32.0775   49.4062 H   0  0  0  0  0  0  0  0  0  0  0  0
   47.6468   28.7022   49.5826 H   0  0  0  0  0  0  0  0  0  0  0  0
  1  6  2  0
  2  1  1  0
  3  2  2  0
  3  4  1  0
  4  5  2  0
  5  6  1  0
  5 15  1  0
  7  3  1  0
  8  7  2  0
  9 10  2  0
  9  8  1  0
 10 11  1  0
 11  7  1  0
 12 17  2  0
 12 18  1  0
 13 12  1  0
 14 15  1  0
 14 13  2  0
 15 16  2  0
 16 17  1  0
 18 20  2  0
 19 18  2  0
  1 21  1  0
  2 22  1  0
  8 23  1  0
 10 24  1  0
 11 25  1  0
 13 26  1  0
 14 27  1  0
 16 28  1  0
 17 29  1  0
 18 30  1  0
M  ISO  8  21  14  22  14  23  14  24  14  25   9  26  14  27  14  28  14
M  ISO  2  29  14  30  11
M  END
>  <minimizedAffinity>  (1) 
-4.78848791

>  <minimizedRMSD>  (1) 
1.61706209

$$$$
