
     RDKit          3D

 29 30  0  0  0  0  0  0  0  0999 V2000
   44.5800   35.4570   45.2780 C   0  0  0  0  0  0  0  0  0  0  0  0
   45.2370   35.5280   44.0310 C   0  0  0  0  0  0  0  0  0  0  0  0
   46.1610   34.5190   43.7410 C   0  0  0  0  0  0  0  0  0  0  0  0
   46.3890   33.5350   44.6450 N   0  0  0  0  0  0  0  0  0  0  0  0
   45.7400   33.5020   45.8290 C   0  0  0  0  0  0  0  0  0  0  0  0
   44.8400   34.4600   46.1390 N   0  0  0  0  0  0  0  0  0  0  0  0
   46.8650   34.5610   42.4530 C   0  0  0  0  0  0  0  0  0  0  0  0
   46.2680   34.1900   41.2560 C   0  0  0  0  0  0  0  0  0  0  0  0
   47.2350   34.3670   40.3030 N   0  0  0  0  0  0  0  0  0  0  0  0
   48.3340   34.8170   40.9280 C   0  0  0  0  0  0  0  0  0  0  0  0
   48.1290   34.9410   42.2400 N   0  0  0  0  0  0  0  0  0  0  0  0
   46.0040   32.4090   46.8090 C   0  0  0  0  0  0  0  0  0  0  0  0
   44.9790   32.5810   47.9340 C   0  0  0  0  0  0  0  0  0  0  0  0
   45.9300   31.0460   46.1720 C   0  0  0  0  0  0  0  0  0  0  0  0
   47.3680   32.6250   47.4570 C   0  0  0  0  0  0  0  0  0  0  0  0
   43.8447   36.2292   45.5484 H   0  0  0  0  0  0  0  0  0  0  0  0
   45.0315   36.3408   43.3188 H   0  0  0  0  0  0  0  0  0  0  0  0
   45.2392   33.8310   41.1055 H   0  0  0  0  0  0  0  0  0  0  0  0
   49.2822   35.0533   40.4230 H   0  0  0  0  0  0  0  0  0  0  0  0
   48.8065   35.2638   42.9455 H   0  0  0  0  0  0  0  0  0  0  0  0
   45.4849   32.4961   48.9071 H   0  0  0  0  0  0  0  0  0  0  0  0
   44.5066   33.5710   47.8514 H   0  0  0  0  0  0  0  0  0  0  0  0
   44.2093   31.7994   47.8514 H   0  0  0  0  0  0  0  0  0  0  0  0
   45.8882   30.2763   46.9567 H   0  0  0  0  0  0  0  0  0  0  0  0
   45.0271   30.9819   45.5470 H   0  0  0  0  0  0  0  0  0  0  0  0
   46.8207   30.8845   45.5470 H   0  0  0  0  0  0  0  0  0  0  0  0
   47.2607   32.6080   48.5516 H   0  0  0  0  0  0  0  0  0  0  0  0
   48.0539   31.8243   47.1433 H   0  0  0  0  0  0  0  0  0  0  0  0
   47.7729   33.5985   47.1433 H   0  0  0  0  0  0  0  0  0  0  0  0
  1  6  2  0
  2  1  1  0
  3  2  2  0
  3  4  1  0
  4  5  2  0
  5  6  1  0
  5 12  1  0
  7  3  1  0
  8  7  2  0
  9 10  2  0
  9  8  1  0
 10 11  1  0
 11  7  1  0
 12 15  1  0
 12 13  1  0
 14 12  1  0
  1 16  1  0
  2 17  1  0
  8 18  1  0
 10 19  1  0
 11 20  1  0
 13 21  1  0
 13 22  1  0
 13 23  1  0
 14 24  1  0
 14 25  1  0
 14 26  1  0
 15 27  1  0
 15 28  1  0
 15 29  1  0
M  ISO  8  16  14  17  14  18  14  19  14  20   9  21   8  22   8  23   8
M  ISO  6  24   8  25   8  26   8  27   8  28   8  29   8
M  END
>  <minimizedAffinity>  (1) 
-4.56478834

>  <minimizedRMSD>  (1) 
0.91469264

$$$$
