
     RDKit          3D

 30 31  0  0  0  0  0  0  0  0999 V2000
   44.5530   35.7290   44.6420 C   0  0  0  0  0  0  0  0  0  0  0  0
   45.2500   35.7620   43.4100 C   0  0  0  0  0  0  0  0  0  0  0  0
   46.2610   34.8070   43.2460 C   0  0  0  0  0  0  0  0  0  0  0  0
   46.5190   33.9220   44.2420 N   0  0  0  0  0  0  0  0  0  0  0  0
   45.8360   33.9200   45.4000 C   0  0  0  0  0  0  0  0  0  0  0  0
   44.8590   34.8190   45.5950 N   0  0  0  0  0  0  0  0  0  0  0  0
   47.0170   34.7960   41.9850 C   0  0  0  0  0  0  0  0  0  0  0  0
   46.5820   34.1240   40.8560 C   0  0  0  0  0  0  0  0  0  0  0  0
   47.5500   34.3570   39.9220 N   0  0  0  0  0  0  0  0  0  0  0  0
   48.5040   35.1290   40.4860 C   0  0  0  0  0  0  0  0  0  0  0  0
   48.1770   35.3970   41.7480 N   0  0  0  0  0  0  0  0  0  0  0  0
   46.1270   32.9490   46.4780 C   0  0  0  0  0  0  0  0  0  0  0  0
   45.1750   33.0770   47.6260 C   0  0  0  0  0  0  0  0  0  0  0  0
   44.5910   31.8400   48.0470 N   0  0  0  0  0  0  0  0  0  0  0  0
   45.4430   31.1280   48.9720 C   0  0  0  0  0  0  0  0  0  0  0  0
   46.5920   31.5790   49.3860 N   0  0  0  0  0  0  0  0  0  0  0  0
   45.0300   29.8470   49.4780 N   0  0  0  0  0  0  0  0  0  0  0  0
   47.1650   31.0360   50.0430 H   0  0  0  0  0  0  0  0  0  0  0  0
   43.7486   36.4560   44.8274 H   0  0  0  0  0  0  0  0  0  0  0  0
   45.0110   36.4960   42.6263 H   0  0  0  0  0  0  0  0  0  0  0  0
   45.6614   33.5337   40.7376 H   0  0  0  0  0  0  0  0  0  0  0  0
   49.4138   35.4828   39.9789 H   0  0  0  0  0  0  0  0  0  0  0  0
   48.7208   35.9634   42.4146 H   0  0  0  0  0  0  0  0  0  0  0  0
   46.0524   31.9311   46.0676 H   0  0  0  0  0  0  0  0  0  0  0  0
   47.1398   33.1555   46.8543 H   0  0  0  0  0  0  0  0  0  0  0  0
   45.7195   33.5088   48.4787 H   0  0  0  0  0  0  0  0  0  0  0  0
   44.3480   33.7144   47.2801 H   0  0  0  0  0  0  0  0  0  0  0  0
   43.6730   31.4981   47.7287 H   0  0  0  0  0  0  0  0  0  0  0  0
   45.6331   29.3350   50.1375 H   0  0  0  0  0  0  0  0  0  0  0  0
   44.1310   29.4414   49.1809 H   0  0  0  0  0  0  0  0  0  0  0  0
  1  6  2  0
  2  1  1  0
  3  2  2  0
  3  4  1  0
  4  5  2  0
  5  6  1  0
  5 12  1  0
  7  3  1  0
  8  7  2  0
  9 10  2  0
  9  8  1  0
 10 11  1  0
 11  7  1  0
 12 13  1  0
 13 14  1  0
 14 15  1  0
 15 16  2  0
 15 17  1  0
 16 18  1  0
  1 19  1  0
  2 20  1  0
  8 21  1  0
 10 22  1  0
 11 23  1  0
 12 24  1  0
 12 25  1  0
 13 26  1  0
 13 27  1  0
 14 28  1  0
 17 29  1  0
 17 30  1  0
M  ISO  8  19  14  20  14  21  14  22  14  23   9  24   8  25   8  26   8
M  ISO  1  27   8
M  END
>  <minimizedAffinity>  (1) 
-5.68506527

>  <minimizedRMSD>  (1) 
0.866943657

$$$$
