
     RDKit          3D

 36 38  0  0  0  0  0  0  0  0999 V2000
   44.6340   35.4320   44.6500 C   0  0  0  0  0  0  0  0  0  0  0  0
   45.2800   35.5190   43.4020 C   0  0  0  0  0  0  0  0  0  0  0  0
   46.4030   34.6870   43.2310 C   0  0  0  0  0  0  0  0  0  0  0  0
   46.7930   33.8770   44.2360 N   0  0  0  0  0  0  0  0  0  0  0  0
   46.1530   33.8200   45.4150 C   0  0  0  0  0  0  0  0  0  0  0  0
   45.0800   34.5920   45.6190 N   0  0  0  0  0  0  0  0  0  0  0  0
   47.1220   34.7360   41.9420 C   0  0  0  0  0  0  0  0  0  0  0  0
   46.6900   34.0740   40.8100 C   0  0  0  0  0  0  0  0  0  0  0  0
   47.6420   34.3910   39.8650 N   0  0  0  0  0  0  0  0  0  0  0  0
   48.5530   35.1810   40.4270 C   0  0  0  0  0  0  0  0  0  0  0  0
   48.2590   35.4130   41.7100 N   0  0  0  0  0  0  0  0  0  0  0  0
   46.5910   32.9290   46.5020 C   0  0  0  0  0  0  0  0  0  0  0  0
   45.4580   32.5950   47.4580 C   0  0  0  0  0  0  0  0  0  0  0  0
   45.3390   31.1670   47.6520 N   0  0  0  0  0  0  0  0  0  0  0  0
   45.3810   30.3620   46.5650 C   0  0  0  0  0  0  0  0  0  0  0  0
   45.2680   28.9970   46.7350 C   0  0  0  0  0  0  0  0  0  0  0  0
   45.3150   28.1120   45.5370 C   0  0  0  0  0  0  0  0  0  0  0  0
   45.1130   28.4690   47.9890 C   0  0  0  0  0  0  0  0  0  0  0  0
   45.0090   27.2320   48.1600 O   0  0  0  0  0  0  0  0  0  0  0  0
   45.0800   29.3260   49.0050 N   0  0  0  0  0  0  0  0  0  0  0  0
   45.1870   30.6680   48.9050 C   0  0  0  0  0  0  0  0  0  0  0  0
   45.1510   31.4490   49.8860 O   0  0  0  0  0  0  0  0  0  0  0  0
   43.7500   36.0573   44.8439 H   0  0  0  0  0  0  0  0  0  0  0  0
   44.9288   36.1956   42.6090 H   0  0  0  0  0  0  0  0  0  0  0  0
   45.7971   33.4428   40.6905 H   0  0  0  0  0  0  0  0  0  0  0  0
   49.4313   35.5889   39.9052 H   0  0  0  0  0  0  0  0  0  0  0  0
   48.7909   35.9883   42.3785 H   0  0  0  0  0  0  0  0  0  0  0  0
   46.9721   31.9950   46.0634 H   0  0  0  0  0  0  0  0  0  0  0  0
   47.3738   33.4500   47.0728 H   0  0  0  0  0  0  0  0  0  0  0  0
   45.6552   33.0734   48.4287 H   0  0  0  0  0  0  0  0  0  0  0  0
   44.5173   32.9665   47.0254 H   0  0  0  0  0  0  0  0  0  0  0  0
   45.5036   30.7900   45.5591 H   0  0  0  0  0  0  0  0  0  0  0  0
   45.3708   27.0617   45.8590 H   0  0  0  0  0  0  0  0  0  0  0  0
   44.4076   28.2629   44.9338 H   0  0  0  0  0  0  0  0  0  0  0  0
   46.2013   28.3582   44.9338 H   0  0  0  0  0  0  0  0  0  0  0  0
   44.9627   28.9322   49.9495 H   0  0  0  0  0  0  0  0  0  0  0  0
  1  6  2  0
  2  1  1  0
  3  2  2  0
  3  4  1  0
  4  5  2  0
  5  6  1  0
  5 12  1  0
  7  3  1  0
  8  7  2  0
  9 10  2  0
  9  8  1  0
 10 11  1  0
 11  7  1  0
 12 13  1  0
 13 14  1  0
 14 21  1  0
 15 16  2  0
 15 14  1  0
 16 18  1  0
 17 16  1  0
 18 19  2  0
 18 20  1  0
 21 20  1  0
 21 22  2  0
  1 23  1  0
  2 24  1  0
  8 25  1  0
 10 26  1  0
 11 27  1  0
 12 28  1  0
 12 29  1  0
 13 30  1  0
 13 31  1  0
 15 32  1  0
 17 33  1  0
 17 34  1  0
 17 35  1  0
 20 36  1  0
M  ISO  8  23  14  24  14  25  14  26  14  27   9  28   8  29   8  30   8
M  ISO  6  31   8  32  14  33   8  34   8  35   8  36   9
M  END
>  <minimizedAffinity>  (1) 
-5.99613285

>  <minimizedRMSD>  (1) 
2.07412887

$$$$
