
     RDKit          3D

 37 40  0  0  0  0  0  0  0  0999 V2000
   44.5740   35.6190   44.5670 C   0  0  0  0  0  0  0  0  0  0  0  0
   45.2540   35.6510   43.3330 C   0  0  0  0  0  0  0  0  0  0  0  0
   46.3360   34.7740   43.1910 C   0  0  0  0  0  0  0  0  0  0  0  0
   46.6860   33.9470   44.2160 N   0  0  0  0  0  0  0  0  0  0  0  0
   45.9970   33.9550   45.3900 C   0  0  0  0  0  0  0  0  0  0  0  0
   44.9570   34.7830   45.5530 N   0  0  0  0  0  0  0  0  0  0  0  0
   47.0790   34.7690   41.9180 C   0  0  0  0  0  0  0  0  0  0  0  0
   46.6520   34.0930   40.8030 C   0  0  0  0  0  0  0  0  0  0  0  0
   47.6110   34.3460   39.8590 N   0  0  0  0  0  0  0  0  0  0  0  0
   48.5540   35.1380   40.4150 C   0  0  0  0  0  0  0  0  0  0  0  0
   48.2430   35.4100   41.6900 N   0  0  0  0  0  0  0  0  0  0  0  0
   46.3830   33.0560   46.4980 C   0  0  0  0  0  0  0  0  0  0  0  0
   45.2540   32.8560   47.4690 C   0  0  0  0  0  0  0  0  0  0  0  0
   45.2160   31.4890   48.0260 C   0  0  0  0  0  0  0  0  0  0  0  0
   45.2510   31.1820   49.3730 C   0  0  0  0  0  0  0  0  0  0  0  0
   45.2040   29.8440   49.5100 N   0  0  0  0  0  0  0  0  0  0  0  0
   45.1390   29.2680   48.3060 C   0  0  0  0  0  0  0  0  0  0  0  0
   45.0720   27.9680   47.8520 C   0  0  0  0  0  0  0  0  0  0  0  0
   45.0100   27.6400   46.5050 C   0  0  0  0  0  0  0  0  0  0  0  0
   45.0180   28.6760   45.5910 C   0  0  0  0  0  0  0  0  0  0  0  0
   45.0850   29.9820   46.0020 C   0  0  0  0  0  0  0  0  0  0  0  0
   45.1460   30.2840   47.3660 C   0  0  0  0  0  0  0  0  0  0  0  0
   43.7157   36.2878   44.7285 H   0  0  0  0  0  0  0  0  0  0  0  0
   44.9502   36.3303   42.5229 H   0  0  0  0  0  0  0  0  0  0  0  0
   45.7427   33.4840   40.6922 H   0  0  0  0  0  0  0  0  0  0  0  0
   49.4501   35.5073   39.8948 H   0  0  0  0  0  0  0  0  0  0  0  0
   48.7792   35.9862   42.3544 H   0  0  0  0  0  0  0  0  0  0  0  0
   46.6721   32.0799   46.0812 H   0  0  0  0  0  0  0  0  0  0  0  0
   47.2227   33.5177   47.0381 H   0  0  0  0  0  0  0  0  0  0  0  0
   45.3717   33.5702   48.2973 H   0  0  0  0  0  0  0  0  0  0  0  0
   44.3133   33.0180   46.9223 H   0  0  0  0  0  0  0  0  0  0  0  0
   45.3078   31.9098   50.1959 H   0  0  0  0  0  0  0  0  0  0  0  0
   45.2163   29.3397   50.4080 H   0  0  0  0  0  0  0  0  0  0  0  0
   45.0675   27.1535   48.5913 H   0  0  0  0  0  0  0  0  0  0  0  0
   44.9564   26.5916   46.1764 H   0  0  0  0  0  0  0  0  0  0  0  0
   44.9698   28.4491   44.5157 H   0  0  0  0  0  0  0  0  0  0  0  0
   45.0908   30.7927   45.2586 H   0  0  0  0  0  0  0  0  0  0  0  0
  1  6  2  0
  2  1  1  0
  3  2  2  0
  3  4  1  0
  4  5  2  0
  5  6  1  0
  5 12  1  0
  7  3  1  0
  8  7  2  0
  9 10  2  0
  9  8  1  0
 10 11  1  0
 11  7  1  0
 12 13  1  0
 13 14  1  0
 14 15  2  0
 15 16  1  0
 17 16  1  0
 18 17  2  0
 19 18  1  0
 20 21  1  0
 20 19  2  0
 21 22  2  0
 22 14  1  0
 22 17  1  0
  1 23  1  0
  2 24  1  0
  8 25  1  0
 10 26  1  0
 11 27  1  0
 12 28  1  0
 12 29  1  0
 13 30  1  0
 13 31  1  0
 15 32  1  0
 16 33  1  0
 18 34  1  0
 19 35  1  0
 20 36  1  0
 21 37  1  0
M  ISO  8  23  14  24  14  25  14  26  14  27   9  28   8  29   8  30   8
M  ISO  7  31   8  32  14  33   9  34  14  35  14  36  14  37  14
M  END
>  <minimizedAffinity>  (1) 
-6.10357952

>  <minimizedRMSD>  (1) 
1.4276408

$$$$
