
     RDKit          3D

 36 38  0  0  0  0  0  0  0  0999 V2000
   44.6270   35.6250   44.5090 C   0  0  0  0  0  0  0  0  0  0  0  0
   45.3590   35.7330   43.2930 C   0  0  0  0  0  0  0  0  0  0  0  0
   46.4220   34.8290   43.1550 C   0  0  0  0  0  0  0  0  0  0  0  0
   46.6980   33.9300   44.1350 N   0  0  0  0  0  0  0  0  0  0  0  0
   45.9710   33.8680   45.2720 C   0  0  0  0  0  0  0  0  0  0  0  0
   44.9490   34.7060   45.4520 N   0  0  0  0  0  0  0  0  0  0  0  0
   47.2300   34.8840   41.9150 C   0  0  0  0  0  0  0  0  0  0  0  0
   46.8690   34.2010   40.7620 C   0  0  0  0  0  0  0  0  0  0  0  0
   47.8530   34.5070   39.8720 N   0  0  0  0  0  0  0  0  0  0  0  0
   48.7370   35.3250   40.4810 C   0  0  0  0  0  0  0  0  0  0  0  0
   48.3640   35.5670   41.7440 N   0  0  0  0  0  0  0  0  0  0  0  0
   46.2640   32.8920   46.3220 C   0  0  0  0  0  0  0  0  0  0  0  0
   45.2810   32.9790   47.4760 C   0  0  0  0  0  0  0  0  0  0  0  0
   45.8110   32.4240   48.7500 C   0  0  0  0  0  0  0  0  0  0  0  0
   45.0230   31.3270   49.3700 C   0  0  0  0  0  0  0  0  0  0  0  0
   45.4940   30.1090   48.6080 C   0  0  0  0  0  0  0  0  0  0  0  0
   46.9720   30.3220   48.4740 C   0  0  0  0  0  0  0  0  0  0  0  0
   47.1730   31.8230   48.4450 C   0  0  0  0  0  0  0  0  0  0  0  0
   43.7798   36.3035   44.6877 H   0  0  0  0  0  0  0  0  0  0  0  0
   45.1089   36.4721   42.5177 H   0  0  0  0  0  0  0  0  0  0  0  0
   45.9896   33.5595   40.6035 H   0  0  0  0  0  0  0  0  0  0  0  0
   49.6396   35.7362   40.0053 H   0  0  0  0  0  0  0  0  0  0  0  0
   48.8491   36.1552   42.4365 H   0  0  0  0  0  0  0  0  0  0  0  0
   46.2149   31.8815   45.8902 H   0  0  0  0  0  0  0  0  0  0  0  0
   47.2676   33.1105   46.7159 H   0  0  0  0  0  0  0  0  0  0  0  0
   45.0254   34.0368   47.6367 H   0  0  0  0  0  0  0  0  0  0  0  0
   44.4039   32.3751   47.2001 H   0  0  0  0  0  0  0  0  0  0  0  0
   45.8003   33.2655   49.4584 H   0  0  0  0  0  0  0  0  0  0  0  0
   45.2470   31.2349   50.4430 H   0  0  0  0  0  0  0  0  0  0  0  0
   43.9358   31.4842   49.3135 H   0  0  0  0  0  0  0  0  0  0  0  0
   45.2800   29.1879   49.1700 H   0  0  0  0  0  0  0  0  0  0  0  0
   44.9906   29.9932   47.6368 H   0  0  0  0  0  0  0  0  0  0  0  0
   47.5016   29.8813   49.3315 H   0  0  0  0  0  0  0  0  0  0  0  0
   47.3689   29.8433   47.5666 H   0  0  0  0  0  0  0  0  0  0  0  0
   47.9061   32.1270   49.2067 H   0  0  0  0  0  0  0  0  0  0  0  0
   47.5593   32.1631   47.4728 H   0  0  0  0  0  0  0  0  0  0  0  0
  1  6  2  0
  2  1  1  0
  3  2  2  0
  3  4  1  0
  4  5  2  0
  5  6  1  0
  5 12  1  0
  7  3  1  0
  8  7  2  0
  9 10  2  0
  9  8  1  0
 10 11  1  0
 11  7  1  0
 12 13  1  0
 13 14  1  0
 14 15  1  0
 16 15  1  0
 17 16  1  0
 18 17  1  0
 18 14  1  0
  1 19  1  0
  2 20  1  0
  8 21  1  0
 10 22  1  0
 11 23  1  0
 12 24  1  0
 12 25  1  0
 13 26  1  0
 13 27  1  0
 14 28  1  0
 15 29  1  0
 15 30  1  0
 16 31  1  0
 16 32  1  0
 17 33  1  0
 17 34  1  0
 18 35  1  0
 18 36  1  0
M  ISO  8  19  14  20  14  21  14  22  14  23   9  24   8  25   8  26   8
M  ISO  8  27   8  28  13  29  13  30  13  31  13  32  13  33  13  34  13
M  ISO  2  35  13  36  13
M  END
>  <minimizedAffinity>  (1) 
-5.66547823

>  <minimizedRMSD>  (1) 
1.51584053

$$$$
