
     RDKit          3D

 33 35  0  0  0  0  0  0  0  0999 V2000
   44.6070   35.5190   44.6320 C   0  0  0  0  0  0  0  0  0  0  0  0
   45.2690   35.5780   43.3920 C   0  0  0  0  0  0  0  0  0  0  0  0
   46.3790   34.7220   43.2240 C   0  0  0  0  0  0  0  0  0  0  0  0
   46.7410   33.9100   44.2340 N   0  0  0  0  0  0  0  0  0  0  0  0
   46.0730   33.8870   45.4150 C   0  0  0  0  0  0  0  0  0  0  0  0
   45.0210   34.6810   45.6080 N   0  0  0  0  0  0  0  0  0  0  0  0
   47.1070   34.7510   41.9330 C   0  0  0  0  0  0  0  0  0  0  0  0
   46.6620   34.0840   40.8220 C   0  0  0  0  0  0  0  0  0  0  0  0
   47.6010   34.3640   39.8620 N   0  0  0  0  0  0  0  0  0  0  0  0
   48.5340   35.1610   40.4270 C   0  0  0  0  0  0  0  0  0  0  0  0
   48.2570   35.4250   41.7250 N   0  0  0  0  0  0  0  0  0  0  0  0
   46.5000   32.9820   46.5060 C   0  0  0  0  0  0  0  0  0  0  0  0
   45.3990   32.7330   47.5070 C   0  0  0  0  0  0  0  0  0  0  0  0
   45.3130   31.2570   47.7060 C   0  0  0  0  0  0  0  0  0  0  0  0
   45.5520   30.4790   46.5700 C   0  0  0  0  0  0  0  0  0  0  0  0
   45.5190   29.1040   46.5460 C   0  0  0  0  0  0  0  0  0  0  0  0
   45.2260   28.4860   47.7480 C   0  0  0  0  0  0  0  0  0  0  0  0
   44.9800   29.2140   48.9070 C   0  0  0  0  0  0  0  0  0  0  0  0
   45.0230   30.6020   48.8860 C   0  0  0  0  0  0  0  0  0  0  0  0
   43.7362   36.1670   44.8104 H   0  0  0  0  0  0  0  0  0  0  0  0
   44.9381   36.2576   42.5928 H   0  0  0  0  0  0  0  0  0  0  0  0
   45.7580   33.4652   40.7225 H   0  0  0  0  0  0  0  0  0  0  0  0
   49.4148   35.5495   39.8948 H   0  0  0  0  0  0  0  0  0  0  0  0
   48.7928   35.9997   42.3910 H   0  0  0  0  0  0  0  0  0  0  0  0
   46.8048   32.0198   46.0686 H   0  0  0  0  0  0  0  0  0  0  0  0
   47.3343   33.4643   47.0363 H   0  0  0  0  0  0  0  0  0  0  0  0
   45.6359   33.2291   48.4598 H   0  0  0  0  0  0  0  0  0  0  0  0
   44.4417   33.1357   47.1445 H   0  0  0  0  0  0  0  0  0  0  0  0
   45.7824   31.0022   45.6302 H   0  0  0  0  0  0  0  0  0  0  0  0
   45.7137   28.5313   45.6273 H   0  0  0  0  0  0  0  0  0  0  0  0
   45.1864   27.3875   47.7884 H   0  0  0  0  0  0  0  0  0  0  0  0
   44.7502   28.6878   49.8452 H   0  0  0  0  0  0  0  0  0  0  0  0
   44.8272   31.1758   49.8039 H   0  0  0  0  0  0  0  0  0  0  0  0
  1  6  2  0
  2  1  1  0
  3  2  2  0
  3  4  1  0
  4  5  2  0
  5  6  1  0
  5 12  1  0
  7  3  1  0
  8  7  2  0
  9 10  2  0
  9  8  1  0
 10 11  1  0
 11  7  1  0
 12 13  1  0
 13 14  1  0
 14 19  1  0
 15 14  2  0
 16 15  1  0
 16 17  2  0
 17 18  1  0
 19 18  2  0
  1 20  1  0
  2 21  1  0
  8 22  1  0
 10 23  1  0
 11 24  1  0
 12 25  1  0
 12 26  1  0
 13 27  1  0
 13 28  1  0
 15 29  1  0
 16 30  1  0
 17 31  1  0
 18 32  1  0
 19 33  1  0
M  ISO  8  20  14  21  14  22  14  23  14  24   9  25   8  26   8  27   8
M  ISO  6  28   8  29  14  30  14  31  14  32  14  33  14
M  END
>  <minimizedAffinity>  (1) 
-5.26369143

>  <minimizedRMSD>  (1) 
1.44736278

$$$$
