
     RDKit          3D

 33 35  0  0  0  0  0  0  0  0999 V2000
   44.6010   35.5350   44.7670 C   0  0  0  0  0  0  0  0  0  0  0  0
   45.2620   35.6020   43.5090 C   0  0  0  0  0  0  0  0  0  0  0  0
   46.3120   34.7120   43.3140 C   0  0  0  0  0  0  0  0  0  0  0  0
   46.6590   33.8330   44.3010 N   0  0  0  0  0  0  0  0  0  0  0  0
   46.0110   33.7990   45.4780 C   0  0  0  0  0  0  0  0  0  0  0  0
   45.0150   34.6220   45.7060 N   0  0  0  0  0  0  0  0  0  0  0  0
   47.0500   34.7430   42.0330 C   0  0  0  0  0  0  0  0  0  0  0  0
   46.6310   34.0960   40.9100 C   0  0  0  0  0  0  0  0  0  0  0  0
   47.6050   34.3930   39.9780 N   0  0  0  0  0  0  0  0  0  0  0  0
   48.5240   35.1670   40.5480 C   0  0  0  0  0  0  0  0  0  0  0  0
   48.2080   35.4020   41.8230 N   0  0  0  0  0  0  0  0  0  0  0  0
   46.3480   32.9000   46.5600 C   0  0  0  0  0  0  0  0  0  0  0  0
   45.6080   31.6010   46.6060 C   0  0  0  0  0  0  0  0  0  0  0  0
   46.3240   30.4650   47.0870 N   0  0  0  0  0  0  0  0  0  0  0  0
   47.6690   30.6900   46.9160 C   0  0  0  0  0  0  0  0  0  0  0  0
   48.6850   29.7820   47.2200 C   0  0  0  0  0  0  0  0  0  0  0  0
   48.3450   28.5520   47.7360 C   0  0  0  0  0  0  0  0  0  0  0  0
   49.1120   27.6150   48.0660 O   0  0  0  0  0  0  0  0  0  0  0  0
   47.0320   28.3450   47.9000 N   0  0  0  0  0  0  0  0  0  0  0  0
   46.1040   29.2480   47.5940 C   0  0  0  0  0  0  0  0  0  0  0  0
   44.8990   28.9860   47.7820 O   0  0  0  0  0  0  0  0  0  0  0  0
   43.7619   36.2115   44.9868 H   0  0  0  0  0  0  0  0  0  0  0  0
   44.9586   36.3195   42.7324 H   0  0  0  0  0  0  0  0  0  0  0  0
   45.7285   33.4813   40.7770 H   0  0  0  0  0  0  0  0  0  0  0  0
   49.4180   35.5581   40.0403 H   0  0  0  0  0  0  0  0  0  0  0  0
   48.7365   35.9671   42.5029 H   0  0  0  0  0  0  0  0  0  0  0  0
   47.4209   32.6704   46.4813 H   0  0  0  0  0  0  0  0  0  0  0  0
   46.0595   33.4311   47.4791 H   0  0  0  0  0  0  0  0  0  0  0  0
   44.7319   31.7409   47.2563 H   0  0  0  0  0  0  0  0  0  0  0  0
   45.3739   31.3681   45.5567 H   0  0  0  0  0  0  0  0  0  0  0  0
   47.9696   31.6655   46.5060 H   0  0  0  0  0  0  0  0  0  0  0  0
   49.7395   30.0451   47.0500 H   0  0  0  0  0  0  0  0  0  0  0  0
   46.7246   27.4396   48.2830 H   0  0  0  0  0  0  0  0  0  0  0  0
  1  6  2  0
  2  1  1  0
  3  2  2  0
  3  4  1  0
  4  5  2  0
  5  6  1  0
  5 12  1  0
  7  3  1  0
  8  7  2  0
  9 10  2  0
  9  8  1  0
 10 11  1  0
 11  7  1  0
 12 13  1  0
 13 14  1  0
 14 20  1  0
 15 14  1  0
 15 16  2  0
 16 17  1  0
 17 19  1  0
 17 18  2  0
 20 21  2  0
 20 19  1  0
  1 22  1  0
  2 23  1  0
  8 24  1  0
 10 25  1  0
 11 26  1  0
 12 27  1  0
 12 28  1  0
 13 29  1  0
 13 30  1  0
 15 31  1  0
 16 32  1  0
 19 33  1  0
M  ISO  8  22  14  23  14  24  14  25  14  26   9  27   8  28   8  29   8
M  ISO  4  30   8  31  14  32  14  33   9
M  END
>  <minimizedAffinity>  (1) 
-5.21061563

>  <minimizedRMSD>  (1) 
3.71074462

$$$$
