
     RDKit          3D

 28 30  0  0  0  0  0  0  0  0999 V2000
   44.5700   35.5690   44.6420 C   0  0  0  0  0  0  0  0  0  0  0  0
   45.2330   35.6160   43.3920 C   0  0  0  0  0  0  0  0  0  0  0  0
   46.3230   34.7490   43.2460 C   0  0  0  0  0  0  0  0  0  0  0  0
   46.6980   33.9210   44.2640 N   0  0  0  0  0  0  0  0  0  0  0  0
   46.0290   33.9150   45.4420 C   0  0  0  0  0  0  0  0  0  0  0  0
   44.9830   34.7260   45.6250 N   0  0  0  0  0  0  0  0  0  0  0  0
   47.0560   34.7540   41.9600 C   0  0  0  0  0  0  0  0  0  0  0  0
   46.6020   34.0880   40.8400 C   0  0  0  0  0  0  0  0  0  0  0  0
   47.5590   34.3480   39.8950 N   0  0  0  0  0  0  0  0  0  0  0  0
   48.5100   35.1220   40.4450 C   0  0  0  0  0  0  0  0  0  0  0  0
   48.2110   35.3800   41.7190 N   0  0  0  0  0  0  0  0  0  0  0  0
   46.4180   33.0340   46.5420 C   0  0  0  0  0  0  0  0  0  0  0  0
   45.3050   32.8460   47.5610 C   0  0  0  0  0  0  0  0  0  0  0  0
   45.2010   31.4010   47.9380 C   0  0  0  0  0  0  0  0  0  0  0  0
   44.9730   30.9550   49.1740 N   0  0  0  0  0  0  0  0  0  0  0  0
   44.9410   29.6580   49.1640 O   0  0  0  0  0  0  0  0  0  0  0  0
   45.1430   29.2030   47.9310 C   0  0  0  0  0  0  0  0  0  0  0  0
   45.3090   30.2990   47.1450 N   0  0  0  0  0  0  0  0  0  0  0  0
   43.7059   36.2259   44.8207 H   0  0  0  0  0  0  0  0  0  0  0  0
   44.9119   36.2916   42.5855 H   0  0  0  0  0  0  0  0  0  0  0  0
   45.6860   33.4886   40.7314 H   0  0  0  0  0  0  0  0  0  0  0  0
   49.4047   35.4893   39.9209 H   0  0  0  0  0  0  0  0  0  0  0  0
   48.7591   35.9466   42.3819 H   0  0  0  0  0  0  0  0  0  0  0  0
   46.6867   32.0509   46.1281 H   0  0  0  0  0  0  0  0  0  0  0  0
   47.2684   33.5020   47.0594 H   0  0  0  0  0  0  0  0  0  0  0  0
   45.5269   33.4424   48.4583 H   0  0  0  0  0  0  0  0  0  0  0  0
   44.3518   33.1763   47.1226 H   0  0  0  0  0  0  0  0  0  0  0  0
   45.1703   28.1508   47.6115 H   0  0  0  0  0  0  0  0  0  0  0  0
  1  6  2  0
  2  1  1  0
  3  2  2  0
  3  4  1  0
  4  5  2  0
  5  6  1  0
  5 12  1  0
  7  3  1  0
  8  7  2  0
  9 10  2  0
  9  8  1  0
 10 11  1  0
 11  7  1  0
 12 13  1  0
 13 14  1  0
 14 15  2  0
 16 15  1  0
 17 16  1  0
 18 17  2  0
 18 14  1  0
  1 19  1  0
  2 20  1  0
  8 21  1  0
 10 22  1  0
 11 23  1  0
 12 24  1  0
 12 25  1  0
 13 26  1  0
 13 27  1  0
 17 28  1  0
M  ISO  8  19  14  20  14  21  14  22  14  23   9  24   8  25   8  26   8
M  ISO  2  27   8  28  14
M  END
>  <minimizedAffinity>  (1) 
-5.18892241

>  <minimizedRMSD>  (1) 
1.04787648

$$$$
