
     RDKit          3D

 43 46  0  0  1  0  0  0  0  0999 V2000
   44.5290   35.9260   44.8740 C   0  0  0  0  0  0  0  0  0  0  0  0
   45.1220   35.9390   43.5770 C   0  0  0  0  0  0  0  0  0  0  0  0
   45.9310   34.8720   43.2500 C   0  0  0  0  0  0  0  0  0  0  0  0
   46.1210   33.8780   44.1690 N   0  0  0  0  0  0  0  0  0  0  0  0
   45.5380   33.9170   45.3790 C   0  0  0  0  0  0  0  0  0  0  0  0
   44.7530   34.9270   45.7270 N   0  0  0  0  0  0  0  0  0  0  0  0
   45.7790   32.8290   46.3320 N   0  0  0  0  0  0  0  0  0  0  0  0
   45.1660   32.8480   47.6370 C   0  0  0  0  0  0  0  0  0  0  0  0
   46.0630   32.2810   48.6950 C   0  0  0  0  0  0  0  0  0  0  0  0
   47.4680   32.1980   48.1970 C   0  0  0  0  0  0  0  0  0  0  0  0
   47.4710   31.1910   47.0450 C   0  0  0  0  0  0  0  0  0  0  0  0
   46.6560   31.7250   45.9360 C   0  0  1  0  0  0  0  0  0  0  0  0
   45.9140   30.6870   45.1570 C   0  0  0  0  0  0  0  0  0  0  0  0
   45.8150   30.5250   43.8490 N   0  0  0  0  0  0  0  0  0  0  0  0
   45.0850   29.4860   43.5490 O   0  0  0  0  0  0  0  0  0  0  0  0
   44.6910   28.9500   44.6910 C   0  0  0  0  0  0  0  0  0  0  0  0
   45.1850   29.6680   45.7190 N   0  0  0  0  0  0  0  0  0  0  0  0
   43.6610   27.4910   44.7190 S   0  0  0  0  0  0  0  0  0  0  0  0
   41.7320   29.2450   45.4170 N   0  0  0  0  0  0  0  0  0  0  0  0
   40.3770   29.4570   44.9340 C   0  0  0  0  0  0  0  0  0  0  0  0
   40.4190   28.6640   43.6350 C   0  0  0  0  0  0  0  0  0  0  0  0
   41.0660   27.3800   44.1150 C   0  0  0  0  0  0  0  0  0  0  0  0
   41.9800   27.8270   45.2530 C   0  0  1  0  0  0  0  0  0  0  0  0
   43.8741   36.7566   45.1761 H   0  0  0  0  0  0  0  0  0  0  0  0
   44.9421   36.7625   42.8703 H   0  0  0  0  0  0  0  0  0  0  0  0
   46.4165   34.8211   42.2642 H   0  0  0  0  0  0  0  0  0  0  0  0
   44.9238   33.8885   47.8989 H   0  0  0  0  0  0  0  0  0  0  0  0
   44.2613   32.2238   47.5929 H   0  0  0  0  0  0  0  0  0  0  0  0
   46.0310   32.9295   49.5829 H   0  0  0  0  0  0  0  0  0  0  0  0
   45.7156   31.2696   48.9526 H   0  0  0  0  0  0  0  0  0  0  0  0
   47.8016   33.1833   47.8393 H   0  0  0  0  0  0  0  0  0  0  0  0
   48.1524   31.8825   48.9983 H   0  0  0  0  0  0  0  0  0  0  0  0
   48.5027   31.0293   46.6995 H   0  0  0  0  0  0  0  0  0  0  0  0
   47.0502   30.2341   47.3875 H   0  0  0  0  0  0  0  0  0  0  0  0
   47.4046   32.1416   45.2460 H   0  0  0  0  0  0  0  0  0  0  0  0
   42.4029   29.7950   44.8618 H   0  0  0  0  0  0  0  0  0  0  0  0
   39.6290   29.0534   45.6323 H   0  0  0  0  0  0  0  0  0  0  0  0
   40.0915   30.5129   44.8177 H   0  0  0  0  0  0  0  0  0  0  0  0
   41.0316   29.1667   42.8721 H   0  0  0  0  0  0  0  0  0  0  0  0
   39.4417   28.5303   43.1481 H   0  0  0  0  0  0  0  0  0  0  0  0
   40.3066   26.6723   44.4790 H   0  0  0  0  0  0  0  0  0  0  0  0
   41.6116   26.8574   43.3155 H   0  0  0  0  0  0  0  0  0  0  0  0
   41.8087   27.3133   46.2105 H   0  0  0  0  0  0  0  0  0  0  0  0
  1  6  2  0
  2  1  1  0
  3  2  2  0
  3  4  1  0
  4  5  2  0
  5  6  1  0
  5  7  1  0
  7  8  1  0
  8  9  1  0
 10  9  1  0
 11 10  1  0
 12  7  1  0
 12 11  1  0
 13 17  1  0
 13 12  1  0
 14 13  2  0
 15 14  1  0
 15 16  1  0
 16 18  1  0
 16 17  2  0
 20 19  1  0
 21 22  1  0
 21 20  1  0
 22 23  1  0
 23 18  1  0
 23 19  1  0
  1 24  1  0
  2 25  1  0
  3 26  1  0
  8 27  1  0
  8 28  1  0
  9 29  1  0
  9 30  1  0
 10 31  1  0
 10 32  1  0
 11 33  1  0
 11 34  1  0
 12 35  1  6
 19 36  1  0
 20 37  1  0
 20 38  1  0
 21 39  1  0
 21 40  1  0
 22 41  1  0
 22 42  1  0
 23 43  1  1
M  ISO  8  24  14  25  14  26  14  27  13  28  13  29  13  30  13  31  13
M  ISO  8  32  13  33  13  34  13  35  13  36   5  37  13  38  13  39  13
M  ISO  4  40  13  41  13  42  13  43  13
M  END
>  <minimizedAffinity>  (1) 
-5.7159338

>  <minimizedRMSD>  (1) 
0.40769133

$$$$
