
     RDKit          3D

 24 25  0  0  0  0  0  0  0  0999 V2000
   44.4940   36.0870   44.5620 C   0  0  0  0  0  0  0  0  0  0  0  0
   45.2120   35.9890   43.3440 C   0  0  0  0  0  0  0  0  0  0  0  0
   46.0890   34.8970   43.2200 C   0  0  0  0  0  0  0  0  0  0  0  0
   46.1940   34.0280   44.2450 N   0  0  0  0  0  0  0  0  0  0  0  0
   45.4870   34.1550   45.3980 C   0  0  0  0  0  0  0  0  0  0  0  0
   44.6480   35.1780   45.5470 N   0  0  0  0  0  0  0  0  0  0  0  0
   46.8610   34.7450   41.9770 C   0  0  0  0  0  0  0  0  0  0  0  0
   48.1140   35.2910   41.8040 C   0  0  0  0  0  0  0  0  0  0  0  0
   48.4640   34.9170   40.5350 N   0  0  0  0  0  0  0  0  0  0  0  0
   47.4690   34.2000   40.0180 C   0  0  0  0  0  0  0  0  0  0  0  0
   46.4460   34.0680   40.8860 N   0  0  0  0  0  0  0  0  0  0  0  0
   45.6270   33.1860   46.4930 C   0  0  0  0  0  0  0  0  0  0  0  0
   46.9330   32.4350   46.4380 C   0  0  0  0  0  0  0  0  0  0  0  0
   47.4990   32.0750   48.1200 S   0  0  0  0  0  0  0  0  0  0  0  0
   43.7949   36.9237   44.7076 H   0  0  0  0  0  0  0  0  0  0  0  0
   45.0897   36.7280   42.5385 H   0  0  0  0  0  0  0  0  0  0  0  0
   48.6976   35.8887   42.5197 H   0  0  0  0  0  0  0  0  0  0  0  0
   47.4800   33.7681   39.0064 H   0  0  0  0  0  0  0  0  0  0  0  0
   45.5562   33.5677   40.7486 H   0  0  0  0  0  0  0  0  0  0  0  0
   45.5705   33.7252   47.4501 H   0  0  0  0  0  0  0  0  0  0  0  0
   44.8150   32.4507   46.3935 H   0  0  0  0  0  0  0  0  0  0  0  0
   46.7900   31.4918   45.8903 H   0  0  0  0  0  0  0  0  0  0  0  0
   47.6861   33.0497   45.9232 H   0  0  0  0  0  0  0  0  0  0  0  0
   46.6294   32.6281   49.0226 H   0  0  0  0  0  0  0  0  0  0  0  0
  1  6  2  0
  2  1  1  0
  3  2  2  0
  3  4  1  0
  4  5  2  0
  5  6  1  0
  5 12  1  0
  7  3  1  0
  8  7  2  0
  9  8  1  0
 10  9  2  0
 10 11  1  0
 11  7  1  0
 13 12  1  0
 13 14  1  0
  1 15  1  0
  2 16  1  0
  8 17  1  0
 10 18  1  0
 11 19  1  0
 12 20  1  0
 12 21  1  0
 13 22  1  0
 13 23  1  0
 14 24  1  0
M  ISO  8  15  14  16  14  17  14  18  14  19   9  20   8  21   8  22   8
M  ISO  2  23   8  24  11
M  END
>  <minimizedAffinity>  (1) 
-4.51676512

>  <minimizedRMSD>  (1) 
1.50410318

$$$$
