
     RDKit          3D

 40 43  0  0  1  0  0  0  0  0999 V2000
   44.5010   35.9300   44.8440 C   0  0  0  0  0  0  0  0  0  0  0  0
   45.1360   35.9750   43.5700 C   0  0  0  0  0  0  0  0  0  0  0  0
   46.0080   34.9540   43.2590 C   0  0  0  0  0  0  0  0  0  0  0  0
   46.2040   33.9680   44.1870 N   0  0  0  0  0  0  0  0  0  0  0  0
   45.5870   33.9630   45.3730 C   0  0  0  0  0  0  0  0  0  0  0  0
   44.7450   34.9270   45.7070 N   0  0  0  0  0  0  0  0  0  0  0  0
   45.8490   32.8750   46.3270 N   0  0  0  0  0  0  0  0  0  0  0  0
   45.1840   32.8520   47.6030 C   0  0  0  0  0  0  0  0  0  0  0  0
   46.0590   32.3070   48.6940 C   0  0  0  0  0  0  0  0  0  0  0  0
   47.4950   32.3040   48.2570 C   0  0  0  0  0  0  0  0  0  0  0  0
   47.5870   31.3140   47.0870 C   0  0  0  0  0  0  0  0  0  0  0  0
   46.7970   31.8240   45.9520 C   0  0  1  0  0  0  0  0  0  0  0  0
   46.1330   30.7540   45.1410 C   0  0  0  0  0  0  0  0  0  0  0  0
   46.3100   30.4450   43.8630 N   0  0  0  0  0  0  0  0  0  0  0  0
   45.5660   29.4400   43.5040 O   0  0  0  0  0  0  0  0  0  0  0  0
   44.8860   29.0800   44.5710 C   0  0  0  0  0  0  0  0  0  0  0  0
   45.2010   29.8690   45.6260 N   0  0  0  0  0  0  0  0  0  0  0  0
   43.7220   27.7080   44.5270 S   0  0  0  0  0  0  0  0  0  0  0  0
   43.8880   26.8480   46.0880 C   0  0  0  0  0  0  0  0  0  0  0  0
   42.8110   26.2960   46.7540 C   0  0  0  0  0  0  0  0  0  0  0  0
   43.0130   25.6460   47.9560 C   0  0  0  0  0  0  0  0  0  0  0  0
   44.3210   25.6100   48.3930 C   0  0  0  0  0  0  0  0  0  0  0  0
   45.4200   26.1480   47.7560 C   0  0  0  0  0  0  0  0  0  0  0  0
   45.1550   26.7710   46.5860 N   0  0  0  0  0  0  0  0  0  0  0  0
   43.7994   36.7285   45.1271 H   0  0  0  0  0  0  0  0  0  0  0  0
   44.9382   36.7930   42.8616 H   0  0  0  0  0  0  0  0  0  0  0  0
   46.5316   34.9325   42.2919 H   0  0  0  0  0  0  0  0  0  0  0  0
   44.8890   33.8785   47.8663 H   0  0  0  0  0  0  0  0  0  0  0  0
   44.3088   32.1917   47.5134 H   0  0  0  0  0  0  0  0  0  0  0  0
   45.9540   32.9347   49.5912 H   0  0  0  0  0  0  0  0  0  0  0  0
   45.7509   31.2751   48.9181 H   0  0  0  0  0  0  0  0  0  0  0  0
   47.7955   33.3101   47.9292 H   0  0  0  0  0  0  0  0  0  0  0  0
   48.1631   32.0127   49.0809 H   0  0  0  0  0  0  0  0  0  0  0  0
   48.6380   31.2025   46.7821 H   0  0  0  0  0  0  0  0  0  0  0  0
   47.1918   30.3365   47.4004 H   0  0  0  0  0  0  0  0  0  0  0  0
   47.5481   32.2878   45.2957 H   0  0  0  0  0  0  0  0  0  0  0  0
   41.7990   26.3736   46.3299 H   0  0  0  0  0  0  0  0  0  0  0  0
   42.1893   25.1895   48.5244 H   0  0  0  0  0  0  0  0  0  0  0  0
   44.5070   25.0990   49.3492 H   0  0  0  0  0  0  0  0  0  0  0  0
   46.4367   26.0754   48.1695 H   0  0  0  0  0  0  0  0  0  0  0  0
  1  6  2  0
  2  1  1  0
  3  2  2  0
  3  4  1  0
  4  5  2  0
  5  6  1  0
  5  7  1  0
  7  8  1  0
  8  9  1  0
 10  9  1  0
 11 10  1  0
 12  7  1  0
 12 11  1  0
 13 17  1  0
 13 12  1  0
 14 13  2  0
 15 14  1  0
 15 16  1  0
 16 17  2  0
 18 16  1  0
 18 19  1  0
 19 24  1  0
 19 20  2  0
 20 21  1  0
 21 22  2  0
 23 22  1  0
 24 23  2  0
  1 25  1  0
  2 26  1  0
  3 27  1  0
  8 28  1  0
  8 29  1  0
  9 30  1  0
  9 31  1  0
 10 32  1  0
 10 33  1  0
 11 34  1  0
 11 35  1  0
 12 36  1  6
 20 37  1  0
 21 38  1  0
 22 39  1  0
 23 40  1  0
M  ISO  8  25  14  26  14  27  14  28  13  29  13  30  13  31  13  32  13
M  ISO  8  33  13  34  13  35  13  36  13  37  14  38  14  39  14  40  14
M  END
>  <minimizedAffinity>  (1) 
-5.70506763

>  <minimizedRMSD>  (1) 
1.46423125

$$$$
