
     RDKit          3D

 36 38  0  0  1  0  0  0  0  0999 V2000
   44.5310   36.0780   44.7020 C   0  0  0  0  0  0  0  0  0  0  0  0
   45.2530   35.9950   43.4890 C   0  0  0  0  0  0  0  0  0  0  0  0
   46.0830   34.8770   43.3270 C   0  0  0  0  0  0  0  0  0  0  0  0
   46.1390   33.9680   44.3260 N   0  0  0  0  0  0  0  0  0  0  0  0
   45.4360   34.0720   45.4780 C   0  0  0  0  0  0  0  0  0  0  0  0
   44.6380   35.1290   45.6550 N   0  0  0  0  0  0  0  0  0  0  0  0
   46.8630   34.7250   42.0880 C   0  0  0  0  0  0  0  0  0  0  0  0
   48.1350   35.2020   41.9410 C   0  0  0  0  0  0  0  0  0  0  0  0
   48.4750   34.8460   40.6560 N   0  0  0  0  0  0  0  0  0  0  0  0
   47.4330   34.1990   40.1130 C   0  0  0  0  0  0  0  0  0  0  0  0
   46.4060   34.1000   40.9720 N   0  0  0  0  0  0  0  0  0  0  0  0
   45.5190   33.0660   46.5310 C   0  0  0  0  0  0  0  0  0  0  0  0
   46.9520   32.6990   46.8630 C   0  0  0  0  0  0  0  0  0  0  0  0
   46.9980   31.8600   48.4550 S   0  0  0  0  0  0  0  0  0  0  0  0
   48.8000   30.6680   50.0700 N   0  0  0  0  0  0  0  0  0  0  0  0
   49.8260   29.6490   50.0270 C   0  0  0  0  0  0  0  0  0  0  0  0
   49.9880   29.2300   48.5930 C   0  0  0  0  0  0  0  0  0  0  0  0
   48.8800   29.9390   47.8370 C   0  0  0  0  0  0  0  0  0  0  0  0
   48.6200   31.1340   48.7020 C   0  0  1  0  0  0  0  0  0  0  0  0
   43.8659   36.9373   44.8728 H   0  0  0  0  0  0  0  0  0  0  0  0
   45.1677   36.7687   42.7117 H   0  0  0  0  0  0  0  0  0  0  0  0
   48.7452   35.7443   42.6783 H   0  0  0  0  0  0  0  0  0  0  0  0
   47.4214   33.7983   39.0886 H   0  0  0  0  0  0  0  0  0  0  0  0
   45.4892   33.6556   40.8207 H   0  0  0  0  0  0  0  0  0  0  0  0
   45.0359   33.4611   47.4368 H   0  0  0  0  0  0  0  0  0  0  0  0
   45.0136   32.1581   46.1702 H   0  0  0  0  0  0  0  0  0  0  0  0
   47.3502   32.0317   46.0844 H   0  0  0  0  0  0  0  0  0  0  0  0
   47.5646   33.6114   46.9096 H   0  0  0  0  0  0  0  0  0  0  0  0
   47.9199   30.2714   50.4292 H   0  0  0  0  0  0  0  0  0  0  0  0
   50.7744   30.0548   50.4089 H   0  0  0  0  0  0  0  0  0  0  0  0
   49.5437   28.7889   50.6520 H   0  0  0  0  0  0  0  0  0  0  0  0
   50.9725   29.5382   48.2111 H   0  0  0  0  0  0  0  0  0  0  0  0
   49.9275   28.1378   48.4772 H   0  0  0  0  0  0  0  0  0  0  0  0
   49.2117   30.2389   46.8320 H   0  0  0  0  0  0  0  0  0  0  0  0
   47.9905   29.3140   47.6690 H   0  0  0  0  0  0  0  0  0  0  0  0
   49.3133   31.9487   48.4459 H   0  0  0  0  0  0  0  0  0  0  0  0
  1  6  2  0
  2  1  1  0
  3  2  2  0
  3  4  1  0
  4  5  2  0
  5  6  1  0
  5 12  1  0
  7  3  1  0
  8  7  2  0
  9  8  1  0
 10  9  2  0
 10 11  1  0
 11  7  1  0
 12 13  1  0
 13 14  1  0
 16 15  1  0
 17 16  1  0
 18 17  1  0
 18 19  1  0
 19 14  1  0
 19 15  1  0
  1 20  1  0
  2 21  1  0
  8 22  1  0
 10 23  1  0
 11 24  1  0
 12 25  1  0
 12 26  1  0
 13 27  1  0
 13 28  1  0
 15 29  1  0
 16 30  1  0
 16 31  1  0
 17 32  1  0
 17 33  1  0
 18 34  1  0
 18 35  1  0
 19 36  1  6
M  ISO  8  20  14  21  14  22  14  23  14  24   9  25   8  26   8  27   8
M  ISO  8  28   8  29   5  30  13  31  13  32  13  33  13  34  13  35  13
M  ISO  1  36  13
M  END
>  <minimizedAffinity>  (1) 
-5.28467131

>  <minimizedRMSD>  (1) 
0.689985693

$$$$
