
     RDKit          3D

 40 43  0  0  0  0  0  0  0  0999 V2000
   45.6440   33.2110   46.4660 C   0  0  0  0  0  0  0  0  0  0  0  0
   44.4950   36.0870   44.5240 C   0  0  0  0  0  0  0  0  0  0  0  0
   45.2160   35.9910   43.3060 C   0  0  0  0  0  0  0  0  0  0  0  0
   46.1030   34.9020   43.1900 C   0  0  0  0  0  0  0  0  0  0  0  0
   46.2020   34.0510   44.2190 N   0  0  0  0  0  0  0  0  0  0  0  0
   45.4990   34.1740   45.3660 C   0  0  0  0  0  0  0  0  0  0  0  0
   44.6550   35.1810   45.5150 N   0  0  0  0  0  0  0  0  0  0  0  0
   46.8710   34.7550   41.9560 C   0  0  0  0  0  0  0  0  0  0  0  0
   48.1240   35.3010   41.7730 C   0  0  0  0  0  0  0  0  0  0  0  0
   48.4710   34.9320   40.5110 N   0  0  0  0  0  0  0  0  0  0  0  0
   47.4880   34.2150   39.9870 C   0  0  0  0  0  0  0  0  0  0  0  0
   46.4730   34.0870   40.8640 N   0  0  0  0  0  0  0  0  0  0  0  0
   46.9100   32.4120   46.3890 C   0  0  0  0  0  0  0  0  0  0  0  0
   47.5020   32.1030   48.0780 S   0  0  0  0  0  0  0  0  0  0  0  0
   48.2610   30.4970   48.2220 C   0  0  0  0  0  0  0  0  0  0  0  0
   47.9420   29.3510   47.5170 C   0  0  0  0  0  0  0  0  0  0  0  0
   48.6120   28.1760   47.7300 C   0  0  0  0  0  0  0  0  0  0  0  0
   49.6330   28.0780   48.6520 C   0  0  0  0  0  0  0  0  0  0  0  0
   49.9620   29.2210   49.3660 C   0  0  0  0  0  0  0  0  0  0  0  0
   50.9930   29.0980   50.2880 C   0  0  0  0  0  0  0  0  0  0  0  0
   51.3750   30.1930   51.0340 C   0  0  0  0  0  0  0  0  0  0  0  0
   50.7160   31.3900   50.8400 C   0  0  0  0  0  0  0  0  0  0  0  0
   49.6920   31.5000   49.9180 C   0  0  0  0  0  0  0  0  0  0  0  0
   49.2950   30.4080   49.1590 C   0  0  0  0  0  0  0  0  0  0  0  0
   45.6366   33.7633   47.4173 H   0  0  0  0  0  0  0  0  0  0  0  0
   44.8057   32.5026   46.3926 H   0  0  0  0  0  0  0  0  0  0  0  0
   43.7888   36.9184   44.6657 H   0  0  0  0  0  0  0  0  0  0  0  0
   45.0897   36.7257   42.4971 H   0  0  0  0  0  0  0  0  0  0  0  0
   48.7100   35.8994   42.4862 H   0  0  0  0  0  0  0  0  0  0  0  0
   47.4989   33.7835   38.9752 H   0  0  0  0  0  0  0  0  0  0  0  0
   45.5844   33.5850   40.7254 H   0  0  0  0  0  0  0  0  0  0  0  0
   46.7142   31.4547   45.8838 H   0  0  0  0  0  0  0  0  0  0  0  0
   47.6705   32.9659   45.8191 H   0  0  0  0  0  0  0  0  0  0  0  0
   47.1345   29.3839   46.7708 H   0  0  0  0  0  0  0  0  0  0  0  0
   48.3281   27.2857   47.1497 H   0  0  0  0  0  0  0  0  0  0  0  0
   50.1661   27.1297   48.8150 H   0  0  0  0  0  0  0  0  0  0  0  0
   51.5022   28.1323   50.4226 H   0  0  0  0  0  0  0  0  0  0  0  0
   52.1892   30.1140   51.7694 H   0  0  0  0  0  0  0  0  0  0  0  0
   51.0105   32.2712   51.4289 H   0  0  0  0  0  0  0  0  0  0  0  0
   49.1846   32.4667   49.7840 H   0  0  0  0  0  0  0  0  0  0  0  0
  2  7  2  0
  3  2  1  0
  4  3  2  0
  4  5  1  0
  5  6  2  0
  6  7  1  0
  6  1  1  0
  8  4  1  0
  9  8  2  0
 10  9  1  0
 11 10  2  0
 11 12  1  0
 12  8  1  0
 13  1  1  0
 13 14  1  0
 14 15  1  0
 15 24  2  0
 16 17  2  0
 16 15  1  0
 17 18  1  0
 18 19  2  0
 19 20  1  0
 20 21  2  0
 22 21  1  0
 23 22  2  0
 24 19  1  0
 24 23  1  0
  1 25  1  0
  1 26  1  0
  2 27  1  0
  3 28  1  0
  9 29  1  0
 11 30  1  0
 12 31  1  0
 13 32  1  0
 13 33  1  0
 16 34  1  0
 17 35  1  0
 18 36  1  0
 20 37  1  0
 21 38  1  0
 22 39  1  0
 23 40  1  0
M  ISO  8  25   8  26   8  27  14  28  14  29  14  30  14  31   9  32   8
M  ISO  8  33   8  34  14  35  14  36  14  37  14  38  14  39  14  40  14
M  END
>  <minimizedAffinity>  (1) 
-6.03109074

>  <minimizedRMSD>  (1) 
1.12947845

$$$$
