
     RDKit          3D

 34 36  0  0  0  0  0  0  0  0999 V2000
   44.5120   35.6920   44.6870 C   0  0  0  0  0  0  0  0  0  0  0  0
   45.1710   35.6820   43.4340 C   0  0  0  0  0  0  0  0  0  0  0  0
   46.2110   34.7370   43.2770 C   0  0  0  0  0  0  0  0  0  0  0  0
   46.5030   33.9230   44.3090 N   0  0  0  0  0  0  0  0  0  0  0  0
   45.8440   33.9680   45.4990 C   0  0  0  0  0  0  0  0  0  0  0  0
   44.8580   34.8500   45.6740 N   0  0  0  0  0  0  0  0  0  0  0  0
   46.9340   34.6740   41.9970 C   0  0  0  0  0  0  0  0  0  0  0  0
   48.1360   35.2930   41.7920 C   0  0  0  0  0  0  0  0  0  0  0  0
   48.4380   34.9720   40.4850 N   0  0  0  0  0  0  0  0  0  0  0  0
   47.4560   34.2170   40.0010 C   0  0  0  0  0  0  0  0  0  0  0  0
   46.4990   34.0080   40.9120 N   0  0  0  0  0  0  0  0  0  0  0  0
   46.1940   33.0660   46.5970 C   0  0  0  0  0  0  0  0  0  0  0  0
   45.8430   31.6370   46.3120 C   0  0  0  0  0  0  0  0  0  0  0  0
   47.3620   30.6630   46.1200 S   0  0  0  0  0  0  0  0  0  0  0  0
   48.2530   30.4920   47.6450 C   0  0  0  0  0  0  0  0  0  0  0  0
   48.8870   29.2450   47.6920 C   0  0  0  0  0  0  0  0  0  0  0  0
   49.6600   28.8360   48.7810 C   0  0  0  0  0  0  0  0  0  0  0  0
   49.7900   29.7210   49.8510 C   0  0  0  0  0  0  0  0  0  0  0  0
   49.1640   30.9450   49.7940 C   0  0  0  0  0  0  0  0  0  0  0  0
   48.4010   31.3450   48.7160 C   0  0  0  0  0  0  0  0  0  0  0  0
   43.6948   36.4086   44.8564 H   0  0  0  0  0  0  0  0  0  0  0  0
   44.8890   36.3726   42.6256 H   0  0  0  0  0  0  0  0  0  0  0  0
   48.7207   35.9002   42.4987 H   0  0  0  0  0  0  0  0  0  0  0  0
   47.4335   33.8141   38.9777 H   0  0  0  0  0  0  0  0  0  0  0  0
   45.6309   33.4637   40.8072 H   0  0  0  0  0  0  0  0  0  0  0  0
   47.2776   33.1327   46.7743 H   0  0  0  0  0  0  0  0  0  0  0  0
   45.6151   33.3787   47.4785 H   0  0  0  0  0  0  0  0  0  0  0  0
   45.2516   31.2320   47.1464 H   0  0  0  0  0  0  0  0  0  0  0  0
   45.2553   31.5836   45.3837 H   0  0  0  0  0  0  0  0  0  0  0  0
   48.7720   28.5608   46.8384 H   0  0  0  0  0  0  0  0  0  0  0  0
   50.1490   27.8507   48.7943 H   0  0  0  0  0  0  0  0  0  0  0  0
   50.3872   29.4432   50.7320 H   0  0  0  0  0  0  0  0  0  0  0  0
   49.2766   31.6341   50.6440 H   0  0  0  0  0  0  0  0  0  0  0  0
   47.9171   32.3328   48.7122 H   0  0  0  0  0  0  0  0  0  0  0  0
  1  6  2  0
  2  1  1  0
  3  2  2  0
  3  4  1  0
  4  5  2  0
  5  6  1  0
  5 12  1  0
  7  3  1  0
  8  7  2  0
  9  8  1  0
 10  9  2  0
 10 11  1  0
 11  7  1  0
 13 12  1  0
 14 13  1  0
 14 15  1  0
 15 16  2  0
 15 20  1  0
 16 17  1  0
 17 18  2  0
 19 18  1  0
 20 19  2  0
  1 21  1  0
  2 22  1  0
  8 23  1  0
 10 24  1  0
 11 25  1  0
 12 26  1  0
 12 27  1  0
 13 28  1  0
 13 29  1  0
 16 30  1  0
 17 31  1  0
 18 32  1  0
 19 33  1  0
 20 34  1  0
M  ISO  8  21  14  22  14  23  14  24  14  25   9  26   8  27   8  28   8
M  ISO  6  29   8  30  14  31  14  32  14  33  14  34  14
M  END
>  <minimizedAffinity>  (1) 
-5.12269211

>  <minimizedRMSD>  (1) 
2.82561827

$$$$
