
     RDKit          3D

 38 41  0  0  1  0  0  0  0  0999 V2000
   44.5620   35.8120   44.9040 C   0  0  0  0  0  0  0  0  0  0  0  0
   45.1880   35.7910   43.6260 C   0  0  0  0  0  0  0  0  0  0  0  0
   46.0210   34.7260   43.3430 C   0  0  0  0  0  0  0  0  0  0  0  0
   46.1980   33.7620   44.2950 N   0  0  0  0  0  0  0  0  0  0  0  0
   45.5860   33.8260   45.4860 C   0  0  0  0  0  0  0  0  0  0  0  0
   44.7830   34.8330   45.7860 N   0  0  0  0  0  0  0  0  0  0  0  0
   45.8180   32.7630   46.4780 N   0  0  0  0  0  0  0  0  0  0  0  0
   45.1620   32.8170   47.7620 C   0  0  0  0  0  0  0  0  0  0  0  0
   46.0320   32.2670   48.8590 C   0  0  0  0  0  0  0  0  0  0  0  0
   47.4560   32.2040   48.4110 C   0  0  0  0  0  0  0  0  0  0  0  0
   47.5020   31.1720   47.2820 C   0  0  0  0  0  0  0  0  0  0  0  0
   46.7210   31.6640   46.1320 C   0  0  1  0  0  0  0  0  0  0  0  0
   46.0120   30.5940   45.3720 C   0  0  0  0  0  0  0  0  0  0  0  0
   46.1450   30.2440   44.0970 N   0  0  0  0  0  0  0  0  0  0  0  0
   45.3670   29.2500   43.7850 O   0  0  0  0  0  0  0  0  0  0  0  0
   44.6980   28.9330   44.8880 C   0  0  0  0  0  0  0  0  0  0  0  0
   45.0700   29.7480   45.9020 N   0  0  0  0  0  0  0  0  0  0  0  0
   43.5030   27.5990   44.9020 S   0  0  0  0  0  0  0  0  0  0  0  0
   43.6410   26.8470   46.5310 C   0  0  0  0  0  0  0  0  0  0  0  0
   42.9030   25.8910   47.2240 C   0  0  0  0  0  0  0  0  0  0  0  0
   43.5050   25.7340   48.4320 N   0  0  0  0  0  0  0  0  0  0  0  0
   44.5760   26.5640   48.4770 C   0  0  0  0  0  0  0  0  0  0  0  0
   44.6570   27.2440   47.3160 N   0  0  0  0  0  0  0  0  0  0  0  0
   43.8900   36.6419   45.1681 H   0  0  0  0  0  0  0  0  0  0  0  0
   45.0152   36.5919   42.8920 H   0  0  0  0  0  0  0  0  0  0  0  0
   46.5314   34.6555   42.3711 H   0  0  0  0  0  0  0  0  0  0  0  0
   44.9177   33.8644   47.9930 H   0  0  0  0  0  0  0  0  0  0  0  0
   44.2523   32.2010   47.7066 H   0  0  0  0  0  0  0  0  0  0  0  0
   45.9581   32.9191   49.7418 H   0  0  0  0  0  0  0  0  0  0  0  0
   45.6912   31.2517   49.1101 H   0  0  0  0  0  0  0  0  0  0  0  0
   47.7839   33.1873   48.0427 H   0  0  0  0  0  0  0  0  0  0  0  0
   48.1249   31.9239   49.2382 H   0  0  0  0  0  0  0  0  0  0  0  0
   48.5459   31.0119   46.9743 H   0  0  0  0  0  0  0  0  0  0  0  0
   47.0735   30.2228   47.6362 H   0  0  0  0  0  0  0  0  0  0  0  0
   47.4807   32.0694   45.4476 H   0  0  0  0  0  0  0  0  0  0  0  0
   42.0067   25.3650   46.8635 H   0  0  0  0  0  0  0  0  0  0  0  0
   45.2684   26.6662   49.3256 H   0  0  0  0  0  0  0  0  0  0  0  0
   45.3719   27.9447   47.0732 H   0  0  0  0  0  0  0  0  0  0  0  0
  1  6  2  0
  2  1  1  0
  3  2  2  0
  3  4  1  0
  4  5  2  0
  5  6  1  0
  5  7  1  0
  7  8  1  0
  8  9  1  0
 10  9  1  0
 11 10  1  0
 12  7  1  0
 12 11  1  0
 13 17  1  0
 13 12  1  0
 14 13  2  0
 15 14  1  0
 15 16  1  0
 16 18  1  0
 16 17  2  0
 18 19  1  0
 19 20  2  0
 19 23  1  0
 20 21  1  0
 21 22  2  0
 23 22  1  0
  1 24  1  0
  2 25  1  0
  3 26  1  0
  8 27  1  0
  8 28  1  0
  9 29  1  0
  9 30  1  0
 10 31  1  0
 10 32  1  0
 11 33  1  0
 11 34  1  0
 12 35  1  6
 20 36  1  0
 22 37  1  0
 23 38  1  0
M  ISO  8  24  14  25  14  26  14  27  13  28  13  29  13  30  13  31  13
M  ISO  7  32  13  33  13  34  13  35  13  36  14  37  14  38   9
M  END
>  <minimizedAffinity>  (1) 
-5.55788851

>  <minimizedRMSD>  (1) 
1.40867901

$$$$
