
     RDKit          3D

 50 53  0  0  0  0  0  0  0  0999 V2000
   46.9350   32.7970   46.6540 C   0  0  0  0  0  0  0  0  0  0  0  0
   45.5460   33.2330   46.3380 C   0  0  0  0  0  0  0  0  0  0  0  0
   44.5310   36.2060   44.4520 C   0  0  0  0  0  0  0  0  0  0  0  0
   45.2550   36.0790   43.2520 C   0  0  0  0  0  0  0  0  0  0  0  0
   46.0920   34.9610   43.1270 C   0  0  0  0  0  0  0  0  0  0  0  0
   46.1490   34.0900   44.1560 N   0  0  0  0  0  0  0  0  0  0  0  0
   45.4440   34.2500   45.2810 C   0  0  0  0  0  0  0  0  0  0  0  0
   44.6410   35.2910   45.4390 N   0  0  0  0  0  0  0  0  0  0  0  0
   46.8800   34.7810   41.8960 C   0  0  0  0  0  0  0  0  0  0  0  0
   48.1370   35.3130   41.7520 C   0  0  0  0  0  0  0  0  0  0  0  0
   48.5070   34.9150   40.4850 N   0  0  0  0  0  0  0  0  0  0  0  0
   47.5060   34.2030   39.9680 C   0  0  0  0  0  0  0  0  0  0  0  0
   46.4800   34.0980   40.8100 N   0  0  0  0  0  0  0  0  0  0  0  0
   47.0070   32.3000   48.3850 S   0  0  0  0  0  0  0  0  0  0  0  0
   48.2510   31.1850   48.8000 C   0  0  0  0  0  0  0  0  0  0  0  0
   49.4740   31.2860   49.4920 C   0  0  0  0  0  0  0  0  0  0  0  0
   50.1810   30.1250   49.3650 N   0  0  0  0  0  0  0  0  0  0  0  0
   49.4010   29.2940   48.5920 C   0  0  0  0  0  0  0  0  0  0  0  0
   49.8250   28.0110   48.1580 C   0  0  0  0  0  0  0  0  0  0  0  0
   48.8630   27.4010   47.3000 C   0  0  0  0  0  0  0  0  0  0  0  0
   47.6730   27.9760   46.9770 C   0  0  0  0  0  0  0  0  0  0  0  0
   47.3700   29.2070   47.4660 C   0  0  0  0  0  0  0  0  0  0  0  0
   48.1760   29.9600   48.2480 C   0  0  0  0  0  0  0  0  0  0  0  0
   45.8960   29.3700   47.5950 C   0  0  0  0  0  0  0  0  0  0  0  0
   45.3150   29.5400   46.2140 C   0  0  0  0  0  0  0  0  0  0  0  0
   44.9420   29.5890   48.5850 C   0  0  0  0  0  0  0  0  0  0  0  0
   45.5760   27.7080   47.6460 C   0  0  0  0  0  0  0  0  0  0  0  0
   47.6327   33.6291   46.4788 H   0  0  0  0  0  0  0  0  0  0  0  0
   47.2173   31.9512   46.0099 H   0  0  0  0  0  0  0  0  0  0  0  0
   44.9743   32.3492   46.0187 H   0  0  0  0  0  0  0  0  0  0  0  0
   45.1516   33.6977   47.2537 H   0  0  0  0  0  0  0  0  0  0  0  0
   43.8618   37.0682   44.5888 H   0  0  0  0  0  0  0  0  0  0  0  0
   45.1681   36.8240   42.4474 H   0  0  0  0  0  0  0  0  0  0  0  0
   48.7110   35.9126   42.4738 H   0  0  0  0  0  0  0  0  0  0  0  0
   47.5252   33.7548   38.9637 H   0  0  0  0  0  0  0  0  0  0  0  0
   45.5866   33.6070   40.6630 H   0  0  0  0  0  0  0  0  0  0  0  0
   49.8101   32.1708   50.0526 H   0  0  0  0  0  0  0  0  0  0  0  0
   51.1066   29.9142   49.7647 H   0  0  0  0  0  0  0  0  0  0  0  0
   50.7782   27.5446   48.4477 H   0  0  0  0  0  0  0  0  0  0  0  0
   49.0955   26.4127   46.8767 H   0  0  0  0  0  0  0  0  0  0  0  0
   46.9615   27.4483   46.3249 H   0  0  0  0  0  0  0  0  0  0  0  0
   44.2621   29.8481   46.2945 H   0  0  0  0  0  0  0  0  0  0  0  0
   45.8817   30.3100   45.6700 H   0  0  0  0  0  0  0  0  0  0  0  0
   45.3773   28.5860   45.6700 H   0  0  0  0  0  0  0  0  0  0  0  0
   45.4095   29.4817   49.5749 H   0  0  0  0  0  0  0  0  0  0  0  0
   44.5323   30.6046   48.4812 H   0  0  0  0  0  0  0  0  0  0  0  0
   44.1304   28.8538   48.4812 H   0  0  0  0  0  0  0  0  0  0  0  0
   45.5126   27.3788   48.6937 H   0  0  0  0  0  0  0  0  0  0  0  0
   44.6218   27.5026   47.1387 H   0  0  0  0  0  0  0  0  0  0  0  0
   46.3857   27.1630   47.1387 H   0  0  0  0  0  0  0  0  0  0  0  0
  1 14  1  0
  2  1  1  0
  3  8  2  0
  4  3  1  0
  5  4  2  0
  5  6  1  0
  6  7  2  0
  7  8  1  0
  7  2  1  0
  9  5  1  0
 10  9  2  0
 11 10  1  0
 12 11  2  0
 12 13  1  0
 13  9  1  0
 14 15  1  0
 15 16  2  0
 17 16  1  0
 18 17  1  0
 19 18  2  0
 20 19  1  0
 21 20  2  0
 21 22  1  0
 22 24  1  0
 22 23  2  0
 23 18  1  0
 23 15  1  0
 24 27  1  0
 24 26  1  0
 25 24  1  0
  1 28  1  0
  1 29  1  0
  2 30  1  0
  2 31  1  0
  3 32  1  0
  4 33  1  0
 10 34  1  0
 12 35  1  0
 13 36  1  0
 16 37  1  0
 17 38  1  0
 19 39  1  0
 20 40  1  0
 21 41  1  0
 25 42  1  0
 25 43  1  0
 25 44  1  0
 26 45  1  0
 26 46  1  0
 26 47  1  0
 27 48  1  0
 27 49  1  0
 27 50  1  0
M  ISO  8  28   8  29   8  30   8  31   8  32  14  33  14  34  14  35  14
M  ISO  8  36   9  37  14  38   9  39  14  40  14  41  14  42   8  43   8
M  ISO  7  44   8  45   8  46   8  47   8  48   8  49   8  50   8
M  END
>  <minimizedAffinity>  (1) 
-5.93388987

>  <minimizedRMSD>  (1) 
2.09085488

$$$$
