
     RDKit          3D

 37 40  0  0  0  0  0  0  0  0999 V2000
   47.1800   34.8850   41.9280 C   0  0  0  0  0  0  0  0  0  0  0  0
   48.4770   35.3990   41.8160 C   0  0  0  0  0  0  0  0  0  0  0  0
   48.9510   35.1250   40.5850 N   0  0  0  0  0  0  0  0  0  0  0  0
   47.9820   34.4490   39.9190 C   0  0  0  0  0  0  0  0  0  0  0  0
   47.9650   33.9460   38.6330 C   0  0  0  0  0  0  0  0  0  0  0  0
   46.8490   33.2970   38.1920 C   0  0  0  0  0  0  0  0  0  0  0  0
   45.6920   33.0980   38.9590 C   0  0  0  0  0  0  0  0  0  0  0  0
   45.7950   33.6330   40.2310 C   0  0  0  0  0  0  0  0  0  0  0  0
   46.8680   34.2880   40.7390 C   0  0  0  0  0  0  0  0  0  0  0  0
   44.6030   36.1480   44.3200 C   0  0  0  0  0  0  0  0  0  0  0  0
   45.4310   36.0610   43.1880 C   0  0  0  0  0  0  0  0  0  0  0  0
   46.3210   34.9710   43.0960 C   0  0  0  0  0  0  0  0  0  0  0  0
   46.3390   34.0540   44.1030 N   0  0  0  0  0  0  0  0  0  0  0  0
   45.5180   34.1770   45.1840 C   0  0  0  0  0  0  0  0  0  0  0  0
   44.6540   35.2240   45.2870 N   0  0  0  0  0  0  0  0  0  0  0  0
   44.6170   33.4090   40.9880 N   0  0  0  0  0  0  0  0  0  0  0  0
   44.1060   32.4940   41.9820 C   0  0  0  0  0  0  0  0  0  0  0  0
   42.8790   31.7540   41.4940 C   0  0  0  0  0  0  0  0  0  0  0  0
   42.0150   32.5860   40.7920 O   0  0  0  0  0  0  0  0  0  0  0  0
   42.2130   33.9270   41.1100 C   0  0  0  0  0  0  0  0  0  0  0  0
   43.5820   34.4100   40.6830 C   0  0  0  0  0  0  0  0  0  0  0  0
   49.0210   35.9390   42.6050 H   0  0  0  0  0  0  0  0  0  0  0  0
   49.8783   35.3816   40.2174 H   0  0  0  0  0  0  0  0  0  0  0  0
   48.8378   34.0668   37.9744 H   0  0  0  0  0  0  0  0  0  0  0  0
   46.8573   32.9030   37.1650 H   0  0  0  0  0  0  0  0  0  0  0  0
   44.7988   32.5731   38.5893 H   0  0  0  0  0  0  0  0  0  0  0  0
   43.9010   36.9898   44.4130 H   0  0  0  0  0  0  0  0  0  0  0  0
   45.3862   36.8223   42.3953 H   0  0  0  0  0  0  0  0  0  0  0  0
   45.5540   33.4214   45.9826 H   0  0  0  0  0  0  0  0  0  0  0  0
   44.8891   31.7611   42.2260 H   0  0  0  0  0  0  0  0  0  0  0  0
   43.8195   33.0799   42.8678 H   0  0  0  0  0  0  0  0  0  0  0  0
   43.1978   30.9343   40.8334 H   0  0  0  0  0  0  0  0  0  0  0  0
   42.3415   31.3697   42.3734 H   0  0  0  0  0  0  0  0  0  0  0  0
   41.4476   34.5305   40.6002 H   0  0  0  0  0  0  0  0  0  0  0  0
   42.1382   34.0338   42.2022 H   0  0  0  0  0  0  0  0  0  0  0  0
   43.8163   35.3428   41.2168 H   0  0  0  0  0  0  0  0  0  0  0  0
   43.5692   34.5787   39.5961 H   0  0  0  0  0  0  0  0  0  0  0  0
  1 12  1  0
  2  1  2  0
  3  2  1  0
  4  3  1  0
  4  9  2  0
  5  4  1  0
  6  5  2  0
  6  7  1  0
  7  8  2  0
  8  9  1  0
  8 16  1  0
  9  1  1  0
 10 15  2  0
 11 10  1  0
 12 11  2  0
 12 13  1  0
 13 14  2  0
 14 15  1  0
 16 17  1  0
 18 17  1  0
 19 20  1  0
 19 18  1  0
 21 16  1  0
 21 20  1  0
  2 22  1  0
  3 23  1  0
  5 24  1  0
  6 25  1  0
  7 26  1  0
 10 27  1  0
 11 28  1  0
 14 29  1  0
 17 30  1  0
 17 31  1  0
 18 32  1  0
 18 33  1  0
 20 34  1  0
 20 35  1  0
 21 36  1  0
 21 37  1  0
M  ISO  8  22  14  23   9  24  14  25  14  26  14  27  14  28  14  29  14
M  ISO  8  30  13  31  13  32  13  33  13  34  13  35  13  36  13  37  13
M  END
>  <minimizedAffinity>  (1) 
-6.25337553

>  <minimizedRMSD>  (1) 
0.755587637

$$$$
