
     RDKit          3D

 37 41  0  0  0  0  0  0  0  0999 V2000
   47.2240   34.9220   41.7420 C   0  0  0  0  0  0  0  0  0  0  0  0
   48.4760   35.5370   41.6760 C   0  0  0  0  0  0  0  0  0  0  0  0
   49.0140   35.3040   40.4700 N   0  0  0  0  0  0  0  0  0  0  0  0
   48.1340   34.5580   39.7680 C   0  0  0  0  0  0  0  0  0  0  0  0
   48.2290   34.0650   38.4820 C   0  0  0  0  0  0  0  0  0  0  0  0
   47.1810   33.3270   38.0040 C   0  0  0  0  0  0  0  0  0  0  0  0
   46.0110   33.0270   38.7170 C   0  0  0  0  0  0  0  0  0  0  0  0
   46.0030   33.5610   39.9960 C   0  0  0  0  0  0  0  0  0  0  0  0
   47.0030   34.3020   40.5370 C   0  0  0  0  0  0  0  0  0  0  0  0
   44.4440   35.9380   44.0190 C   0  0  0  0  0  0  0  0  0  0  0  0
   45.3190   35.9210   42.9300 C   0  0  0  0  0  0  0  0  0  0  0  0
   46.3190   34.9360   42.8750 C   0  0  0  0  0  0  0  0  0  0  0  0
   46.3870   34.0340   43.9030 N   0  0  0  0  0  0  0  0  0  0  0  0
   45.5200   34.0880   44.9370 C   0  0  0  0  0  0  0  0  0  0  0  0
   44.5550   35.0280   45.0020 N   0  0  0  0  0  0  0  0  0  0  0  0
   44.8350   33.2900   40.7730 N   0  0  0  0  0  0  0  0  0  0  0  0
   44.5600   32.4790   41.8100 C   0  0  0  0  0  0  0  0  0  0  0  0
   43.2760   32.6090   42.1730 N   0  0  0  0  0  0  0  0  0  0  0  0
   42.6800   33.5100   41.3800 C   0  0  0  0  0  0  0  0  0  0  0  0
   41.3850   33.9890   41.3490 C   0  0  0  0  0  0  0  0  0  0  0  0
   41.1040   34.9170   40.4000 N   0  0  0  0  0  0  0  0  0  0  0  0
   42.0410   35.3480   39.5340 C   0  0  0  0  0  0  0  0  0  0  0  0
   43.2990   34.8570   39.5950 N   0  0  0  0  0  0  0  0  0  0  0  0
   43.6600   33.9330   40.5060 C   0  0  0  0  0  0  0  0  0  0  0  0
   40.4040   33.5250   42.2720 N   0  0  0  0  0  0  0  0  0  0  0  0
   48.9452   36.1187   42.4831 H   0  0  0  0  0  0  0  0  0  0  0  0
   49.9319   35.6341   40.1391 H   0  0  0  0  0  0  0  0  0  0  0  0
   49.1172   34.2590   37.8627 H   0  0  0  0  0  0  0  0  0  0  0  0
   47.2624   32.9377   36.9784 H   0  0  0  0  0  0  0  0  0  0  0  0
   45.1850   32.4296   38.3038 H   0  0  0  0  0  0  0  0  0  0  0  0
   43.6562   36.7039   44.0725 H   0  0  0  0  0  0  0  0  0  0  0  0
   45.2263   36.6678   42.1277 H   0  0  0  0  0  0  0  0  0  0  0  0
   45.6029   33.3472   45.7460 H   0  0  0  0  0  0  0  0  0  0  0  0
   45.2846   31.8057   42.2913 H   0  0  0  0  0  0  0  0  0  0  0  0
   41.7821   36.1013   38.7753 H   0  0  0  0  0  0  0  0  0  0  0  0
   39.4436   33.8950   42.2321 H   0  0  0  0  0  0  0  0  0  0  0  0
   40.6552   32.8195   42.9792 H   0  0  0  0  0  0  0  0  0  0  0  0
  1 12  1  0
  2  1  2  0
  3  2  1  0
  4  3  1  0
  4  9  2  0
  5  4  1  0
  6  5  2  0
  6  7  1  0
  7  8  2  0
  8  9  1  0
  8 16  1  0
  9  1  1  0
 10 15  2  0
 11 10  1  0
 12 11  2  0
 12 13  1  0
 13 14  2  0
 14 15  1  0
 16 17  1  0
 17 18  2  0
 19 18  1  0
 20 19  2  0
 20 25  1  0
 21 20  1  0
 22 23  1  0
 22 21  2  0
 23 24  2  0
 24 16  1  0
 24 19  1  0
  2 26  1  0
  3 27  1  0
  5 28  1  0
  6 29  1  0
  7 30  1  0
 10 31  1  0
 11 32  1  0
 14 33  1  0
 17 34  1  0
 22 35  1  0
 25 36  1  0
 25 37  1  0
M  ISO  8  26  14  27   9  28  14  29  14  30  14  31  14  32  14  33  14
M  ISO  2  34  14  35  14
M  END
>  <minimizedAffinity>  (1) 
-7.07117081

>  <minimizedRMSD>  (1) 
0.310308874

$$$$
