
     RDKit          3D

 23 25  0  0  0  0  0  0  0  0999 V2000
   47.1250   34.8620   41.9310 N   0  0  0  0  0  0  0  0  0  0  0  0
   48.3090   35.5210   41.8460 C   0  0  0  0  0  0  0  0  0  0  0  0
   48.8090   35.3320   40.6000 N   0  0  0  0  0  0  0  0  0  0  0  0
   47.9590   34.5650   39.9080 C   0  0  0  0  0  0  0  0  0  0  0  0
   48.0070   34.0910   38.6100 C   0  0  0  0  0  0  0  0  0  0  0  0
   46.9610   33.3230   38.2100 N   0  0  0  0  0  0  0  0  0  0  0  0
   45.9260   33.0360   39.0280 C   0  0  0  0  0  0  0  0  0  0  0  0
   45.8950   33.5130   40.3060 N   0  0  0  0  0  0  0  0  0  0  0  0
   46.9010   34.2710   40.7430 C   0  0  0  0  0  0  0  0  0  0  0  0
   44.5830   35.8890   44.3920 C   0  0  0  0  0  0  0  0  0  0  0  0
   45.3820   35.8680   43.2160 C   0  0  0  0  0  0  0  0  0  0  0  0
   46.3430   34.8610   43.1110 C   0  0  0  0  0  0  0  0  0  0  0  0
   46.4670   33.9600   44.1280 N   0  0  0  0  0  0  0  0  0  0  0  0
   45.6920   34.0130   45.2260 C   0  0  0  0  0  0  0  0  0  0  0  0
   44.7490   34.9690   45.3700 N   0  0  0  0  0  0  0  0  0  0  0  0
   49.1040   34.3990   37.7500 N   0  0  0  0  0  0  0  0  0  0  0  0
   48.7808   36.1067   42.6488 H   0  0  0  0  0  0  0  0  0  0  0  0
   45.0989   32.4110   38.6603 H   0  0  0  0  0  0  0  0  0  0  0  0
   43.8153   36.6681   44.5088 H   0  0  0  0  0  0  0  0  0  0  0  0
   45.2481   36.6157   42.4204 H   0  0  0  0  0  0  0  0  0  0  0  0
   45.8286   33.2646   46.0205 H   0  0  0  0  0  0  0  0  0  0  0  0
   49.1206   34.0359   36.7863 H   0  0  0  0  0  0  0  0  0  0  0  0
   49.8789   34.9843   38.0932 H   0  0  0  0  0  0  0  0  0  0  0  0
  1 12  1  0
  2  1  1  0
  3  2  2  0
  4  3  1  0
  4  9  2  0
  5  4  1  0
  6  5  2  0
  6  7  1  0
  7  8  2  0
  8  9  1  0
  9  1  1  0
 10 15  2  0
 11 10  1  0
 12 11  2  0
 12 13  1  0
 13 14  2  0
 14 15  1  0
 16  5  1  0
  2 17  1  0
  7 18  1  0
 10 19  1  0
 11 20  1  0
 14 21  1  0
 16 22  1  0
 16 23  1  0
M  ISO  5  17  14  18  14  19  14  20  14  21  14
M  END
>  <minimizedAffinity>  (1) 
-5.39807081

>  <minimizedRMSD>  (1) 
0.819325686

$$$$
