
     RDKit          3D

 34 37  0  0  0  0  0  0  0  0999 V2000
   47.3160   34.9560   41.7960 C   0  0  0  0  0  0  0  0  0  0  0  0
   48.5460   35.6140   41.7210 C   0  0  0  0  0  0  0  0  0  0  0  0
   49.0670   35.4410   40.4950 N   0  0  0  0  0  0  0  0  0  0  0  0
   48.2050   34.6940   39.7980 C   0  0  0  0  0  0  0  0  0  0  0  0
   48.2770   34.2480   38.4920 C   0  0  0  0  0  0  0  0  0  0  0  0
   47.2450   33.4950   38.0050 C   0  0  0  0  0  0  0  0  0  0  0  0
   46.0980   33.1310   38.7400 C   0  0  0  0  0  0  0  0  0  0  0  0
   46.0970   33.6150   40.0380 C   0  0  0  0  0  0  0  0  0  0  0  0
   47.0900   34.3670   40.5780 C   0  0  0  0  0  0  0  0  0  0  0  0
   44.5740   35.8430   44.1730 C   0  0  0  0  0  0  0  0  0  0  0  0
   45.4220   35.8820   43.0640 C   0  0  0  0  0  0  0  0  0  0  0  0
   46.4390   34.9120   42.9470 C   0  0  0  0  0  0  0  0  0  0  0  0
   46.5340   33.9840   43.9310 N   0  0  0  0  0  0  0  0  0  0  0  0
   45.6940   33.9800   44.9880 C   0  0  0  0  0  0  0  0  0  0  0  0
   44.7200   34.8910   45.1220 N   0  0  0  0  0  0  0  0  0  0  0  0
   44.9110   33.1830   40.7640 C   0  0  0  0  0  0  0  0  0  0  0  0
   43.7970   33.9820   40.4670 C   0  0  0  0  0  0  0  0  0  0  0  0
   42.5300   33.7650   41.0050 C   0  0  0  0  0  0  0  0  0  0  0  0
   42.3300   32.7180   41.8750 C   0  0  0  0  0  0  0  0  0  0  0  0
   43.4110   31.9360   42.1670 C   0  0  0  0  0  0  0  0  0  0  0  0
   44.6470   32.1570   41.6360 C   0  0  0  0  0  0  0  0  0  0  0  0
   49.0141   36.1839   42.5372 H   0  0  0  0  0  0  0  0  0  0  0  0
   49.9645   35.8148   40.1550 H   0  0  0  0  0  0  0  0  0  0  0  0
   49.1433   34.4928   37.8598 H   0  0  0  0  0  0  0  0  0  0  0  0
   47.3145   33.1477   36.9636 H   0  0  0  0  0  0  0  0  0  0  0  0
   45.2827   32.5216   38.3230 H   0  0  0  0  0  0  0  0  0  0  0  0
   43.7782   36.5954   44.2756 H   0  0  0  0  0  0  0  0  0  0  0  0
   45.2986   36.6574   42.2936 H   0  0  0  0  0  0  0  0  0  0  0  0
   45.8124   33.2069   45.7615 H   0  0  0  0  0  0  0  0  0  0  0  0
   43.9306   34.8246   39.7726 H   0  0  0  0  0  0  0  0  0  0  0  0
   41.6941   34.4273   40.7355 H   0  0  0  0  0  0  0  0  0  0  0  0
   41.3422   32.5194   42.3163 H   0  0  0  0  0  0  0  0  0  0  0  0
   43.2787   31.0921   42.8600 H   0  0  0  0  0  0  0  0  0  0  0  0
   45.4690   31.4830   41.9191 H   0  0  0  0  0  0  0  0  0  0  0  0
  1 12  1  0
  2  1  2  0
  3  2  1  0
  4  3  1  0
  4  9  2  0
  5  4  1  0
  6  5  2  0
  6  7  1  0
  7  8  2  0
  8  9  1  0
  8 16  1  0
  9  1  1  0
 10 15  2  0
 11 10  1  0
 12 11  2  0
 12 13  1  0
 13 14  2  0
 14 15  1  0
 16 21  1  0
 17 16  2  0
 17 18  1  0
 18 19  2  0
 19 20  1  0
 21 20  2  0
  2 22  1  0
  3 23  1  0
  5 24  1  0
  6 25  1  0
  7 26  1  0
 10 27  1  0
 11 28  1  0
 14 29  1  0
 17 30  1  0
 18 31  1  0
 19 32  1  0
 20 33  1  0
 21 34  1  0
M  ISO  8  22  14  23   9  24  14  25  14  26  14  27  14  28  14  29  14
M  ISO  5  30  14  31  14  32  14  33  14  34  14
M  END
>  <minimizedAffinity>  (1) 
-6.07968235

>  <minimizedRMSD>  (1) 
0.584878445

$$$$
