
     RDKit          3D

 31 34  0  0  0  0  0  0  0  0999 V2000
   47.2660   34.9280   41.8740 C   0  0  0  0  0  0  0  0  0  0  0  0
   48.5150   35.5630   41.7770 C   0  0  0  0  0  0  0  0  0  0  0  0
   49.0320   35.3530   40.5570 N   0  0  0  0  0  0  0  0  0  0  0  0
   48.1410   34.5990   39.8700 C   0  0  0  0  0  0  0  0  0  0  0  0
   48.1790   34.1330   38.5790 C   0  0  0  0  0  0  0  0  0  0  0  0
   47.1390   33.4130   38.1070 C   0  0  0  0  0  0  0  0  0  0  0  0
   46.0120   33.1030   38.8400 C   0  0  0  0  0  0  0  0  0  0  0  0
   46.0210   33.5960   40.1440 C   0  0  0  0  0  0  0  0  0  0  0  0
   47.0310   34.3200   40.6730 C   0  0  0  0  0  0  0  0  0  0  0  0
   44.5850   35.9230   44.2630 C   0  0  0  0  0  0  0  0  0  0  0  0
   45.4280   35.9200   43.1520 C   0  0  0  0  0  0  0  0  0  0  0  0
   46.3970   34.9360   43.0300 C   0  0  0  0  0  0  0  0  0  0  0  0
   46.5030   33.9810   44.0200 N   0  0  0  0  0  0  0  0  0  0  0  0
   45.6510   34.0320   45.0830 C   0  0  0  0  0  0  0  0  0  0  0  0
   44.7080   34.9700   45.2240 N   0  0  0  0  0  0  0  0  0  0  0  0
   44.7280   33.2440   40.7910 C   0  0  0  0  0  0  0  0  0  0  0  0
   44.1830   32.2620   41.6130 C   0  0  0  0  0  0  0  0  0  0  0  0
   42.8810   32.3010   41.8730 C   0  0  0  0  0  0  0  0  0  0  0  0
   42.1010   33.2480   41.3660 C   0  0  0  0  0  0  0  0  0  0  0  0
   43.2060   34.2920   40.3720 S   0  0  0  0  0  0  0  0  0  0  0  0
   48.9955   36.1434   42.5784 H   0  0  0  0  0  0  0  0  0  0  0  0
   49.9369   35.7001   40.2082 H   0  0  0  0  0  0  0  0  0  0  0  0
   49.0468   34.3439   37.9367 H   0  0  0  0  0  0  0  0  0  0  0  0
   47.1938   33.0498   37.0702 H   0  0  0  0  0  0  0  0  0  0  0  0
   45.1767   32.5163   38.4300 H   0  0  0  0  0  0  0  0  0  0  0  0
   43.8150   36.7023   44.3621 H   0  0  0  0  0  0  0  0  0  0  0  0
   45.3247   36.6938   42.3771 H   0  0  0  0  0  0  0  0  0  0  0  0
   45.7437   33.2630   45.8641 H   0  0  0  0  0  0  0  0  0  0  0  0
   44.8171   31.4702   42.0384 H   0  0  0  0  0  0  0  0  0  0  0  0
   42.4392   31.5314   42.5230 H   0  0  0  0  0  0  0  0  0  0  0  0
   41.0185   33.3734   41.5157 H   0  0  0  0  0  0  0  0  0  0  0  0
  1 12  1  0
  2  1  2  0
  3  2  1  0
  4  3  1  0
  4  9  2  0
  5  4  1  0
  6  5  2  0
  6  7  1  0
  7  8  2  0
  8  9  1  0
  8 16  1  0
  9  1  1  0
 10 15  2  0
 11 10  1  0
 12 11  2  0
 12 13  1  0
 13 14  2  0
 14 15  1  0
 16 17  2  0
 17 18  1  0
 19 18  2  0
 20 16  1  0
 20 19  1  0
  2 21  1  0
  3 22  1  0
  5 23  1  0
  6 24  1  0
  7 25  1  0
 10 26  1  0
 11 27  1  0
 14 28  1  0
 17 29  1  0
 18 30  1  0
 19 31  1  0
M  ISO  8  21  14  22   9  23  14  24  14  25  14  26  14  27  14  28  14
M  ISO  3  29  14  30  14  31  14
M  END
>  <minimizedAffinity>  (1) 
-6.09177971

>  <minimizedRMSD>  (1) 
0.47336781

$$$$
