
     RDKit          3D

 31 34  0  0  0  0  0  0  0  0999 V2000
   47.2710   34.9190   41.8950 C   0  0  0  0  0  0  0  0  0  0  0  0
   48.5220   35.5460   41.7890 C   0  0  0  0  0  0  0  0  0  0  0  0
   49.0170   35.3520   40.5580 N   0  0  0  0  0  0  0  0  0  0  0  0
   48.1060   34.6130   39.8770 C   0  0  0  0  0  0  0  0  0  0  0  0
   48.1600   34.1410   38.5860 C   0  0  0  0  0  0  0  0  0  0  0  0
   47.1250   33.3970   38.1270 C   0  0  0  0  0  0  0  0  0  0  0  0
   45.9980   33.0720   38.8820 C   0  0  0  0  0  0  0  0  0  0  0  0
   45.9920   33.5710   40.1740 C   0  0  0  0  0  0  0  0  0  0  0  0
   46.9890   34.3210   40.6910 C   0  0  0  0  0  0  0  0  0  0  0  0
   44.5780   35.8560   44.2860 C   0  0  0  0  0  0  0  0  0  0  0  0
   45.4050   35.8930   43.1370 C   0  0  0  0  0  0  0  0  0  0  0  0
   46.4130   34.9030   43.0610 C   0  0  0  0  0  0  0  0  0  0  0  0
   46.5460   33.9800   44.0760 N   0  0  0  0  0  0  0  0  0  0  0  0
   45.7090   34.0180   45.1420 C   0  0  0  0  0  0  0  0  0  0  0  0
   44.7360   34.9410   45.2510 N   0  0  0  0  0  0  0  0  0  0  0  0
   44.8500   33.0520   40.8770 C   0  0  0  0  0  0  0  0  0  0  0  0
   44.4320   32.1420   41.7850 C   0  0  0  0  0  0  0  0  0  0  0  0
   43.1500   32.1690   42.1480 N   0  0  0  0  0  0  0  0  0  0  0  0
   42.5950   33.1720   41.4580 C   0  0  0  0  0  0  0  0  0  0  0  0
   43.6100   33.6640   40.7320 N   0  0  0  0  0  0  0  0  0  0  0  0
   49.0197   36.1096   42.5919 H   0  0  0  0  0  0  0  0  0  0  0  0
   49.9178   35.6983   40.1980 H   0  0  0  0  0  0  0  0  0  0  0  0
   49.0234   34.3625   37.9414 H   0  0  0  0  0  0  0  0  0  0  0  0
   47.1767   33.0255   37.0929 H   0  0  0  0  0  0  0  0  0  0  0  0
   45.1741   32.4637   38.4805 H   0  0  0  0  0  0  0  0  0  0  0  0
   43.7785   36.6044   44.3894 H   0  0  0  0  0  0  0  0  0  0  0  0
   45.2713   36.6483   42.3486 H   0  0  0  0  0  0  0  0  0  0  0  0
   45.8289   33.2721   45.9415 H   0  0  0  0  0  0  0  0  0  0  0  0
   45.1273   31.4033   42.2104 H   0  0  0  0  0  0  0  0  0  0  0  0
   41.5496   33.5136   41.4808 H   0  0  0  0  0  0  0  0  0  0  0  0
   43.4764   34.4615   40.0940 H   0  0  0  0  0  0  0  0  0  0  0  0
  1 12  1  0
  2  1  2  0
  3  2  1  0
  4  3  1  0
  4  9  2  0
  5  4  1  0
  6  5  2  0
  6  7  1  0
  7  8  2  0
  8  9  1  0
  8 16  1  0
  9  1  1  0
 10 15  2  0
 11 10  1  0
 12 11  2  0
 12 13  1  0
 13 14  2  0
 14 15  1  0
 16 17  2  0
 17 18  1  0
 19 18  2  0
 20 16  1  0
 20 19  1  0
  2 21  1  0
  3 22  1  0
  5 23  1  0
  6 24  1  0
  7 25  1  0
 10 26  1  0
 11 27  1  0
 14 28  1  0
 17 29  1  0
 19 30  1  0
 20 31  1  0
M  ISO  8  21  14  22   9  23  14  24  14  25  14  26  14  27  14  28  14
M  ISO  3  29  14  30  14  31   9
M  END
>  <minimizedAffinity>  (1) 
-6.05385733

>  <minimizedRMSD>  (1) 
0.406227887

$$$$
