
     RDKit          3D

 34 37  0  0  0  0  0  0  0  0999 V2000
   47.4850   34.8650   41.7200 C   0  0  0  0  0  0  0  0  0  0  0  0
   48.6040   35.6620   41.6320 C   0  0  0  0  0  0  0  0  0  0  0  0
   49.0850   35.6370   40.3800 N   0  0  0  0  0  0  0  0  0  0  0  0
   48.2840   34.8310   39.6610 C   0  0  0  0  0  0  0  0  0  0  0  0
   48.3520   34.4770   38.3240 C   0  0  0  0  0  0  0  0  0  0  0  0
   47.4010   33.6280   37.8320 C   0  0  0  0  0  0  0  0  0  0  0  0
   46.3490   33.0800   38.5810 C   0  0  0  0  0  0  0  0  0  0  0  0
   46.3460   33.4770   39.9020 C   0  0  0  0  0  0  0  0  0  0  0  0
   47.2660   34.3250   40.4670 C   0  0  0  0  0  0  0  0  0  0  0  0
   44.8450   35.3130   44.3380 C   0  0  0  0  0  0  0  0  0  0  0  0
   45.6470   35.5320   43.2150 C   0  0  0  0  0  0  0  0  0  0  0  0
   46.6680   34.6170   42.8900 C   0  0  0  0  0  0  0  0  0  0  0  0
   46.8290   33.5420   43.7050 N   0  0  0  0  0  0  0  0  0  0  0  0
   46.0350   33.3510   44.7960 C   0  0  0  0  0  0  0  0  0  0  0  0
   45.0520   34.2330   45.1040 N   0  0  0  0  0  0  0  0  0  0  0  0
   45.2970   32.9480   40.7070 N   0  0  0  0  0  0  0  0  0  0  0  0
   45.6320   31.7120   41.1850 C   0  0  0  0  0  0  0  0  0  0  0  0
   44.7620   31.0060   41.9950 C   0  0  0  0  0  0  0  0  0  0  0  0
   43.5520   31.5910   42.3020 C   0  0  0  0  0  0  0  0  0  0  0  0
   42.7040   31.0050   43.0370 O   0  0  0  0  0  0  0  0  0  0  0  0
   43.2550   32.8080   41.8150 N   0  0  0  0  0  0  0  0  0  0  0  0
   44.1070   33.4880   41.0280 C   0  0  0  0  0  0  0  0  0  0  0  0
   43.9270   34.6270   40.5220 O   0  0  0  0  0  0  0  0  0  0  0  0
   49.0391   36.2343   42.4646 H   0  0  0  0  0  0  0  0  0  0  0  0
   49.9137   36.1413   40.0338 H   0  0  0  0  0  0  0  0  0  0  0  0
   49.1498   34.8685   37.6757 H   0  0  0  0  0  0  0  0  0  0  0  0
   47.4652   33.3536   36.7687 H   0  0  0  0  0  0  0  0  0  0  0  0
   45.5978   32.3984   38.1553 H   0  0  0  0  0  0  0  0  0  0  0  0
   44.0461   36.0250   44.5926 H   0  0  0  0  0  0  0  0  0  0  0  0
   45.4814   36.4183   42.5849 H   0  0  0  0  0  0  0  0  0  0  0  0
   46.1935   32.4699   45.4351 H   0  0  0  0  0  0  0  0  0  0  0  0
   46.6059   31.2736   40.9219 H   0  0  0  0  0  0  0  0  0  0  0  0
   45.0264   30.0107   42.3816 H   0  0  0  0  0  0  0  0  0  0  0  0
   42.3470   33.2326   42.0519 H   0  0  0  0  0  0  0  0  0  0  0  0
  1 12  1  0
  2  1  2  0
  3  2  1  0
  4  3  1  0
  4  9  2  0
  5  4  1  0
  6  5  2  0
  6  7  1  0
  7  8  2  0
  8  9  1  0
  8 16  1  0
  9  1  1  0
 10 15  2  0
 11 10  1  0
 12 11  2  0
 12 13  1  0
 13 14  2  0
 14 15  1  0
 16 22  1  0
 16 17  1  0
 17 18  2  0
 18 19  1  0
 19 20  2  0
 21 19  1  0
 22 21  1  0
 23 22  2  0
  2 24  1  0
  3 25  1  0
  5 26  1  0
  6 27  1  0
  7 28  1  0
 10 29  1  0
 11 30  1  0
 14 31  1  0
 17 32  1  0
 18 33  1  0
 21 34  1  0
M  ISO  8  24  14  25   9  26  14  27  14  28  14  29  14  30  14  31  14
M  ISO  3  32  14  33  14  34   9
M  END
>  <minimizedAffinity>  (1) 
-5.9208827

>  <minimizedRMSD>  (1) 
0.78360039

$$$$
