
     RDKit          3D

 31 34  0  0  0  0  0  0  0  0999 V2000
   47.3730   34.9270   41.7770 C   0  0  0  0  0  0  0  0  0  0  0  0
   48.5610   35.6540   41.6700 C   0  0  0  0  0  0  0  0  0  0  0  0
   49.0490   35.5090   40.4230 N   0  0  0  0  0  0  0  0  0  0  0  0
   48.1950   34.7090   39.7430 C   0  0  0  0  0  0  0  0  0  0  0  0
   48.2440   34.2590   38.4350 C   0  0  0  0  0  0  0  0  0  0  0  0
   47.2360   33.4480   37.9940 C   0  0  0  0  0  0  0  0  0  0  0  0
   46.1410   33.0270   38.7650 C   0  0  0  0  0  0  0  0  0  0  0  0
   46.1770   33.5230   40.0530 C   0  0  0  0  0  0  0  0  0  0  0  0
   47.1400   34.3330   40.5660 C   0  0  0  0  0  0  0  0  0  0  0  0
   44.6860   35.6580   44.2760 C   0  0  0  0  0  0  0  0  0  0  0  0
   45.4960   35.7580   43.1270 C   0  0  0  0  0  0  0  0  0  0  0  0
   46.5390   34.8240   42.9570 C   0  0  0  0  0  0  0  0  0  0  0  0
   46.7120   33.8600   43.9230 N   0  0  0  0  0  0  0  0  0  0  0  0
   45.9040   33.8120   45.0070 C   0  0  0  0  0  0  0  0  0  0  0  0
   44.8990   34.6980   45.1870 N   0  0  0  0  0  0  0  0  0  0  0  0
   45.0670   33.1130   40.8830 N   0  0  0  0  0  0  0  0  0  0  0  0
   44.8180   32.1310   41.7990 C   0  0  0  0  0  0  0  0  0  0  0  0
   43.5210   32.3050   42.2340 C   0  0  0  0  0  0  0  0  0  0  0  0
   42.9960   33.3820   41.5840 N   0  0  0  0  0  0  0  0  0  0  0  0
   43.9290   33.8610   40.7760 C   0  0  0  0  0  0  0  0  0  0  0  0
   49.0225   36.2478   42.4728 H   0  0  0  0  0  0  0  0  0  0  0  0
   49.9138   35.9299   40.0544 H   0  0  0  0  0  0  0  0  0  0  0  0
   49.0711   34.5460   37.7690 H   0  0  0  0  0  0  0  0  0  0  0  0
   47.2868   33.0975   36.9526 H   0  0  0  0  0  0  0  0  0  0  0  0
   45.3420   32.3736   38.3847 H   0  0  0  0  0  0  0  0  0  0  0  0
   43.8678   36.3775   44.4273 H   0  0  0  0  0  0  0  0  0  0  0  0
   45.3189   36.5461   42.3803 H   0  0  0  0  0  0  0  0  0  0  0  0
   46.0694   33.0302   45.7630 H   0  0  0  0  0  0  0  0  0  0  0  0
   45.5190   31.3496   42.1275 H   0  0  0  0  0  0  0  0  0  0  0  0
   43.0004   31.6826   42.9767 H   0  0  0  0  0  0  0  0  0  0  0  0
   43.8060   34.7324   40.1161 H   0  0  0  0  0  0  0  0  0  0  0  0
  1 12  1  0
  2  1  2  0
  3  2  1  0
  4  3  1  0
  4  9  2  0
  5  4  1  0
  6  5  2  0
  6  7  1  0
  7  8  2  0
  8  9  1  0
  8 16  1  0
  9  1  1  0
 10 15  2  0
 11 10  1  0
 12 11  2  0
 12 13  1  0
 13 14  2  0
 14 15  1  0
 16 17  1  0
 17 18  2  0
 19 18  1  0
 20 16  1  0
 20 19  2  0
  2 21  1  0
  3 22  1  0
  5 23  1  0
  6 24  1  0
  7 25  1  0
 10 26  1  0
 11 27  1  0
 14 28  1  0
 17 29  1  0
 18 30  1  0
 20 31  1  0
M  ISO  8  21  14  22   9  23  14  24  14  25  14  26  14  27  14  28  14
M  ISO  3  29  14  30  14  31  14
M  END
>  <minimizedAffinity>  (1) 
-5.94545889

>  <minimizedRMSD>  (1) 
0.313444227

$$$$
