
     RDKit          3D

 52 56  0  0  1  0  0  0  0  0999 V2000
   47.3800   34.8550   41.7280 C   0  0  0  0  0  0  0  0  0  0  0  0
   48.4930   35.6890   41.5650 C   0  0  0  0  0  0  0  0  0  0  0  0
   48.9630   35.5460   40.3150 N   0  0  0  0  0  0  0  0  0  0  0  0
   48.1770   34.6470   39.6890 C   0  0  0  0  0  0  0  0  0  0  0  0
   48.2370   34.1600   38.3950 C   0  0  0  0  0  0  0  0  0  0  0  0
   47.3030   33.2470   38.0060 C   0  0  0  0  0  0  0  0  0  0  0  0
   46.2750   32.7510   38.8150 C   0  0  0  0  0  0  0  0  0  0  0  0
   46.2970   33.2970   40.0970 C   0  0  0  0  0  0  0  0  0  0  0  0
   47.1820   34.2010   40.5540 C   0  0  0  0  0  0  0  0  0  0  0  0
   45.2550   32.7140   40.8790 N   0  0  0  0  0  0  0  0  0  0  0  0
   45.0780   31.6130   41.8350 C   0  0  0  0  0  0  0  0  0  0  0  0
   43.7970   31.9150   42.5500 C   0  0  0  0  0  0  0  0  0  0  0  0
   42.9680   32.4030   41.3350 C   0  0  0  0  0  0  0  0  0  0  0  0
   43.9820   33.3670   40.7730 C   0  0  2  0  0  0  0  0  0  0  0  0
   43.6000   34.2190   39.6710 C   0  0  0  0  0  0  0  0  0  0  0  0
   42.5760   35.2870   40.0000 C   0  0  0  0  0  0  0  0  0  0  0  0
   41.8330   35.6020   38.6860 C   0  0  0  0  0  0  0  0  0  0  0  0
   40.8270   34.4920   38.5020 C   0  0  0  0  0  0  0  0  0  0  0  0
   41.5190   33.1820   38.8090 C   0  0  0  0  0  0  0  0  0  0  0  0
   43.0040   33.3770   38.5560 C   0  0  0  0  0  0  0  0  0  0  0  0
   44.7250   35.4640   44.2710 C   0  0  0  0  0  0  0  0  0  0  0  0
   45.4810   35.5970   43.1110 C   0  0  0  0  0  0  0  0  0  0  0  0
   46.5850   34.7340   42.9250 C   0  0  0  0  0  0  0  0  0  0  0  0
   46.8130   33.8370   43.9100 N   0  0  0  0  0  0  0  0  0  0  0  0
   46.0790   33.7200   45.0200 C   0  0  0  0  0  0  0  0  0  0  0  0
   45.0240   34.5400   45.2020 N   0  0  0  0  0  0  0  0  0  0  0  0
   48.9136   36.3527   42.3348 H   0  0  0  0  0  0  0  0  0  0  0  0
   49.7746   36.0334   39.9092 H   0  0  0  0  0  0  0  0  0  0  0  0
   49.0177   34.5007   37.6990 H   0  0  0  0  0  0  0  0  0  0  0  0
   47.3621   32.8702   36.9742 H   0  0  0  0  0  0  0  0  0  0  0  0
   45.5327   32.0129   38.4771 H   0  0  0  0  0  0  0  0  0  0  0  0
   45.0070   30.6510   41.3064 H   0  0  0  0  0  0  0  0  0  0  0  0
   45.9270   31.5316   42.5297 H   0  0  0  0  0  0  0  0  0  0  0  0
   43.3613   31.0192   43.0166 H   0  0  0  0  0  0  0  0  0  0  0  0
   43.8732   32.6195   43.3913 H   0  0  0  0  0  0  0  0  0  0  0  0
   42.7333   31.5879   40.6347 H   0  0  0  0  0  0  0  0  0  0  0  0
   41.9750   32.8191   41.5602 H   0  0  0  0  0  0  0  0  0  0  0  0
   44.0734   34.2958   41.3552 H   0  0  0  0  0  0  0  0  0  0  0  0
   44.5320   34.7289   39.3857 H   0  0  0  0  0  0  0  0  0  0  0  0
   41.8691   34.9153   40.7564 H   0  0  0  0  0  0  0  0  0  0  0  0
   43.0579   36.1870   40.4096 H   0  0  0  0  0  0  0  0  0  0  0  0
   41.3217   36.5732   38.7591 H   0  0  0  0  0  0  0  0  0  0  0  0
   42.5270   35.6627   37.8347 H   0  0  0  0  0  0  0  0  0  0  0  0
   39.9802   34.6374   39.1889 H   0  0  0  0  0  0  0  0  0  0  0  0
   40.4426   34.4901   37.4714 H   0  0  0  0  0  0  0  0  0  0  0  0
   41.3506   32.9062   39.8605 H   0  0  0  0  0  0  0  0  0  0  0  0
   41.1213   32.3768   38.1739 H   0  0  0  0  0  0  0  0  0  0  0  0
   43.5034   32.3972   38.5291 H   0  0  0  0  0  0  0  0  0  0  0  0
   43.1484   33.8880   37.5927 H   0  0  0  0  0  0  0  0  0  0  0  0
   43.8635   36.1291   44.4307 H   0  0  0  0  0  0  0  0  0  0  0  0
   45.2258   36.3556   42.3564 H   0  0  0  0  0  0  0  0  0  0  0  0
   46.3323   32.9633   45.7771 H   0  0  0  0  0  0  0  0  0  0  0  0
  1 23  1  0
  2  1  2  0
  3  2  1  0
  4  3  1  0
  4  9  2  0
  5  4  1  0
  6  5  2  0
  6  7  1  0
  7  8  2  0
  8  9  1  0
  8 10  1  0
  9  1  1  0
 10 11  1  0
 11 12  1  0
 13 12  1  0
 14 10  1  0
 14 13  1  0
 15 16  1  0
 15 14  1  0
 17 16  1  0
 18 17  1  0
 18 19  1  0
 20 19  1  0
 20 15  1  0
 21 26  2  0
 22 21  1  0
 23 22  2  0
 23 24  1  0
 24 25  2  0
 25 26  1  0
  2 27  1  0
  3 28  1  0
  5 29  1  0
  6 30  1  0
  7 31  1  0
 11 32  1  0
 11 33  1  0
 12 34  1  0
 12 35  1  0
 13 36  1  0
 13 37  1  0
 14 38  1  1
 15 39  1  0
 16 40  1  0
 16 41  1  0
 17 42  1  0
 17 43  1  0
 18 44  1  0
 18 45  1  0
 19 46  1  0
 19 47  1  0
 20 48  1  0
 20 49  1  0
 21 50  1  0
 22 51  1  0
 25 52  1  0
M  ISO  8  27  14  28   9  29  14  30  14  31  14  32  13  33  13  34  13
M  ISO  8  35  13  36  13  37  13  38  13  39  13  40  13  41  13  42  13
M  ISO  8  43  13  44  13  45  13  46  13  47  13  48  13  49  13  50  14
M  ISO  2  51  14  52  14
M  END
>  <minimizedAffinity>  (1) 
-6.95287943

>  <minimizedRMSD>  (1) 
3.398422

$$$$
