
     RDKit          3D

 43 47  0  0  1  0  0  0  0  0999 V2000
   47.2660   34.9540   41.8940 C   0  0  0  0  0  0  0  0  0  0  0  0
   48.4920   35.6210   41.7810 C   0  0  0  0  0  0  0  0  0  0  0  0
   48.9880   35.4120   40.5500 N   0  0  0  0  0  0  0  0  0  0  0  0
   48.1120   34.6360   39.8920 C   0  0  0  0  0  0  0  0  0  0  0  0
   48.1580   34.1440   38.6010 C   0  0  0  0  0  0  0  0  0  0  0  0
   47.1290   33.3720   38.1650 C   0  0  0  0  0  0  0  0  0  0  0  0
   46.0020   33.0250   38.9310 C   0  0  0  0  0  0  0  0  0  0  0  0
   46.0400   33.5620   40.2180 C   0  0  0  0  0  0  0  0  0  0  0  0
   47.0240   34.3330   40.7110 C   0  0  0  0  0  0  0  0  0  0  0  0
   44.8870   33.1400   40.9470 N   0  0  0  0  0  0  0  0  0  0  0  0
   43.5840   33.6410   41.3560 C   0  0  0  0  0  0  0  0  0  0  0  0
   42.7960   32.4130   41.7430 C   0  0  0  0  0  0  0  0  0  0  0  0
   43.8980   31.6490   42.4690 C   0  0  0  0  0  0  0  0  0  0  0  0
   44.9750   31.7850   41.4360 C   0  0  2  0  0  0  0  0  0  0  0  0
   46.2390   31.2020   41.7400 C   0  0  0  0  0  0  0  0  0  0  0  0
   47.2500   30.5070   41.1260 C   0  0  0  0  0  0  0  0  0  0  0  0
   48.2560   30.2190   41.9940 N   0  0  0  0  0  0  0  0  0  0  0  0
   47.9010   30.7310   43.1920 C   0  0  0  0  0  0  0  0  0  0  0  0
   46.7080   31.3090   43.0240 N   0  0  0  0  0  0  0  0  0  0  0  0
   44.6200   35.9310   44.3330 C   0  0  0  0  0  0  0  0  0  0  0  0
   45.4350   35.9550   43.2050 C   0  0  0  0  0  0  0  0  0  0  0  0
   46.4140   34.9450   43.0620 C   0  0  0  0  0  0  0  0  0  0  0  0
   46.4820   34.0210   44.0510 N   0  0  0  0  0  0  0  0  0  0  0  0
   45.6880   34.0160   45.1300 C   0  0  0  0  0  0  0  0  0  0  0  0
   44.7500   34.9760   45.2740 N   0  0  0  0  0  0  0  0  0  0  0  0
   48.9707   36.2184   42.5709 H   0  0  0  0  0  0  0  0  0  0  0  0
   49.8761   35.7792   40.1795 H   0  0  0  0  0  0  0  0  0  0  0  0
   49.0085   34.3725   37.9419 H   0  0  0  0  0  0  0  0  0  0  0  0
   47.1812   32.9894   37.1350 H   0  0  0  0  0  0  0  0  0  0  0  0
   45.1796   32.3981   38.5561 H   0  0  0  0  0  0  0  0  0  0  0  0
   43.6838   34.3223   42.2138 H   0  0  0  0  0  0  0  0  0  0  0  0
   43.0914   34.2121   40.5552 H   0  0  0  0  0  0  0  0  0  0  0  0
   41.9536   32.6548   42.4078 H   0  0  0  0  0  0  0  0  0  0  0  0
   42.3135   31.8766   40.9127 H   0  0  0  0  0  0  0  0  0  0  0  0
   44.1743   32.1244   43.4217 H   0  0  0  0  0  0  0  0  0  0  0  0
   43.6497   30.6204   42.7697 H   0  0  0  0  0  0  0  0  0  0  0  0
   44.8114   31.1168   40.5776 H   0  0  0  0  0  0  0  0  0  0  0  0
   47.2471   30.2189   40.0644 H   0  0  0  0  0  0  0  0  0  0  0  0
   48.4813   30.6818   44.1252 H   0  0  0  0  0  0  0  0  0  0  0  0
   46.1947   31.7849   43.7796 H   0  0  0  0  0  0  0  0  0  0  0  0
   43.8527   36.7091   44.4588 H   0  0  0  0  0  0  0  0  0  0  0  0
   45.3203   36.7405   42.4435 H   0  0  0  0  0  0  0  0  0  0  0  0
   45.7999   33.2334   45.8949 H   0  0  0  0  0  0  0  0  0  0  0  0
  1 22  1  0
  2  1  2  0
  3  2  1  0
  4  3  1  0
  4  9  2  0
  5  4  1  0
  6  5  2  0
  6  7  1  0
  7  8  2  0
  8  9  1  0
  8 10  1  0
  9  1  1  0
 10 11  1  0
 10 14  1  0
 11 12  1  0
 12 13  1  0
 14 15  1  0
 14 13  1  0
 15 19  1  0
 16 15  2  0
 16 17  1  0
 17 18  2  0
 19 18  1  0
 20 25  2  0
 21 20  1  0
 22 21  2  0
 22 23  1  0
 23 24  2  0
 24 25  1  0
  2 26  1  0
  3 27  1  0
  5 28  1  0
  6 29  1  0
  7 30  1  0
 11 31  1  0
 11 32  1  0
 12 33  1  0
 12 34  1  0
 13 35  1  0
 13 36  1  0
 14 37  1  6
 16 38  1  0
 18 39  1  0
 19 40  1  0
 20 41  1  0
 21 42  1  0
 24 43  1  0
M  ISO  8  26  14  27   9  28  14  29  14  30  14  31  13  32  13  33  13
M  ISO  8  34  13  35  13  36  13  37  13  38  14  39  14  40   9  41  14
M  ISO  2  42  14  43  14
M  END
>  <minimizedAffinity>  (1) 
-6.09944057

>  <minimizedRMSD>  (1) 
0.405124933

$$$$
