
     RDKit          3D

 45 48  0  0  1  0  0  0  0  0999 V2000
   47.4880   34.7910   41.8570 C   0  0  0  0  0  0  0  0  0  0  0  0
   48.5810   35.6480   41.7040 C   0  0  0  0  0  0  0  0  0  0  0  0
   49.0000   35.5930   40.4250 N   0  0  0  0  0  0  0  0  0  0  0  0
   48.1930   34.7210   39.7750 C   0  0  0  0  0  0  0  0  0  0  0  0
   48.2040   34.3270   38.4540 C   0  0  0  0  0  0  0  0  0  0  0  0
   47.2590   33.4290   38.0420 C   0  0  0  0  0  0  0  0  0  0  0  0
   46.2730   32.8690   38.8580 C   0  0  0  0  0  0  0  0  0  0  0  0
   46.3500   33.3290   40.1730 C   0  0  0  0  0  0  0  0  0  0  0  0
   47.2430   34.2090   40.6530 C   0  0  0  0  0  0  0  0  0  0  0  0
   45.3490   32.6800   40.9600 N   0  0  0  0  0  0  0  0  0  0  0  0
   45.1830   31.4500   41.7480 C   0  0  0  0  0  0  0  0  0  0  0  0
   43.9860   31.7070   42.6170 C   0  0  0  0  0  0  0  0  0  0  0  0
   43.1040   32.4280   41.6010 C   0  0  0  0  0  0  0  0  0  0  0  0
   44.1260   33.4140   41.0870 C   0  0  2  0  0  0  0  0  0  0  0  0
   43.6700   34.4250   40.1730 C   0  0  0  0  0  0  0  0  0  0  0  0
   42.6850   33.8040   39.1400 C   0  0  0  0  0  0  0  0  0  0  0  0
   42.8080   35.5160   40.8200 C   0  0  0  0  0  0  0  0  0  0  0  0
   44.9380   35.1530   44.5510 C   0  0  0  0  0  0  0  0  0  0  0  0
   45.6290   35.3840   43.3680 C   0  0  0  0  0  0  0  0  0  0  0  0
   46.7500   34.5740   43.0760 C   0  0  0  0  0  0  0  0  0  0  0  0
   47.0610   33.6260   43.9890 N   0  0  0  0  0  0  0  0  0  0  0  0
   46.3840   33.4180   45.1250 C   0  0  0  0  0  0  0  0  0  0  0  0
   45.3130   34.1860   45.4100 N   0  0  0  0  0  0  0  0  0  0  0  0
   49.0261   36.2660   42.4976 H   0  0  0  0  0  0  0  0  0  0  0  0
   49.7876   36.1167   40.0172 H   0  0  0  0  0  0  0  0  0  0  0  0
   48.9517   34.7238   37.7515 H   0  0  0  0  0  0  0  0  0  0  0  0
   47.2764   33.1236   36.9854 H   0  0  0  0  0  0  0  0  0  0  0  0
   45.5217   32.1477   38.5042 H   0  0  0  0  0  0  0  0  0  0  0  0
   45.0042   30.5885   41.0878 H   0  0  0  0  0  0  0  0  0  0  0  0
   46.0801   31.2120   42.3384 H   0  0  0  0  0  0  0  0  0  0  0  0
   43.5265   30.7731   42.9729 H   0  0  0  0  0  0  0  0  0  0  0  0
   44.1861   32.2600   43.5466 H   0  0  0  0  0  0  0  0  0  0  0  0
   42.7436   31.7531   40.8107 H   0  0  0  0  0  0  0  0  0  0  0  0
   42.1737   32.8626   41.9957 H   0  0  0  0  0  0  0  0  0  0  0  0
   44.3755   34.2376   41.7722 H   0  0  0  0  0  0  0  0  0  0  0  0
   44.5996   34.8392   39.7554 H   0  0  0  0  0  0  0  0  0  0  0  0
   41.8708   33.2907   39.6725 H   0  0  0  0  0  0  0  0  0  0  0  0
   42.2651   34.6010   38.5088 H   0  0  0  0  0  0  0  0  0  0  0  0
   43.2231   33.0815   38.5088 H   0  0  0  0  0  0  0  0  0  0  0  0
   42.8732   35.4335   41.9150 H   0  0  0  0  0  0  0  0  0  0  0  0
   43.1710   36.5053   40.5046 H   0  0  0  0  0  0  0  0  0  0  0  0
   41.7616   35.3917   40.5046 H   0  0  0  0  0  0  0  0  0  0  0  0
   44.0634   35.7751   44.7918 H   0  0  0  0  0  0  0  0  0  0  0  0
   45.3115   36.1777   42.6757 H   0  0  0  0  0  0  0  0  0  0  0  0
   46.6991   32.6264   45.8208 H   0  0  0  0  0  0  0  0  0  0  0  0
  1 20  1  0
  2  1  2  0
  3  2  1  0
  4  3  1  0
  4  9  2  0
  5  4  1  0
  6  5  2  0
  6  7  1  0
  7  8  2  0
  8  9  1  0
  8 10  1  0
  9  1  1  0
 10 14  1  0
 10 11  1  0
 11 12  1  0
 13 12  1  0
 14 13  1  0
 15 17  1  0
 15 14  1  0
 16 15  1  0
 18 23  2  0
 19 18  1  0
 20 19  2  0
 20 21  1  0
 21 22  2  0
 22 23  1  0
  2 24  1  0
  3 25  1  0
  5 26  1  0
  6 27  1  0
  7 28  1  0
 11 29  1  0
 11 30  1  0
 12 31  1  0
 12 32  1  0
 13 33  1  0
 13 34  1  0
 14 35  1  1
 15 36  1  0
 16 37  1  0
 16 38  1  0
 16 39  1  0
 17 40  1  0
 17 41  1  0
 17 42  1  0
 18 43  1  0
 19 44  1  0
 22 45  1  0
M  ISO  8  24  14  25   9  26  14  27  14  28  14  29  13  30  13  31  13
M  ISO  8  32  13  33  13  34  13  35  13  36   8  37   8  38   8  39   8
M  ISO  6  40   8  41   8  42   8  43  14  44  14  45  14
M  END
>  <minimizedAffinity>  (1) 
-6.15564013

>  <minimizedRMSD>  (1) 
2.31317306

$$$$
