
     RDKit          3D

 43 47  0  0  1  0  0  0  0  0999 V2000
   47.2660   34.9620   41.8930 C   0  0  0  0  0  0  0  0  0  0  0  0
   48.5030   35.6110   41.7840 C   0  0  0  0  0  0  0  0  0  0  0  0
   49.0030   35.3900   40.5510 N   0  0  0  0  0  0  0  0  0  0  0  0
   48.1160   34.6240   39.8900 C   0  0  0  0  0  0  0  0  0  0  0  0
   48.1630   34.1290   38.5990 C   0  0  0  0  0  0  0  0  0  0  0  0
   47.1140   33.3670   38.1640 C   0  0  0  0  0  0  0  0  0  0  0  0
   45.9880   33.0430   38.9230 C   0  0  0  0  0  0  0  0  0  0  0  0
   46.0300   33.5850   40.2070 C   0  0  0  0  0  0  0  0  0  0  0  0
   47.0270   34.3450   40.7080 C   0  0  0  0  0  0  0  0  0  0  0  0
   44.8670   33.1840   40.9350 N   0  0  0  0  0  0  0  0  0  0  0  0
   43.5510   33.6730   41.2930 C   0  0  0  0  0  0  0  0  0  0  0  0
   42.7750   32.4390   41.7150 C   0  0  0  0  0  0  0  0  0  0  0  0
   43.8710   31.7510   42.5190 C   0  0  0  0  0  0  0  0  0  0  0  0
   44.9780   31.8510   41.4950 C   0  0  2  0  0  0  0  0  0  0  0  0
   46.2000   31.2880   41.8510 C   0  0  0  0  0  0  0  0  0  0  0  0
   47.4090   31.0680   41.3720 C   0  0  0  0  0  0  0  0  0  0  0  0
   48.4220   30.4620   42.0040 C   0  0  0  0  0  0  0  0  0  0  0  0
   48.1040   30.0320   43.3270 C   0  0  0  0  0  0  0  0  0  0  0  0
   46.3000   30.5400   43.6040 S   0  0  0  0  0  0  0  0  0  0  0  0
   44.6210   35.9740   44.3120 C   0  0  0  0  0  0  0  0  0  0  0  0
   45.4400   35.9860   43.1870 C   0  0  0  0  0  0  0  0  0  0  0  0
   46.4100   34.9660   43.0550 C   0  0  0  0  0  0  0  0  0  0  0  0
   46.4760   34.0410   44.0400 N   0  0  0  0  0  0  0  0  0  0  0  0
   45.6750   34.0480   45.1180 C   0  0  0  0  0  0  0  0  0  0  0  0
   44.7410   35.0210   45.2570 N   0  0  0  0  0  0  0  0  0  0  0  0
   48.9869   36.2035   42.5744 H   0  0  0  0  0  0  0  0  0  0  0  0
   49.8983   35.7424   40.1834 H   0  0  0  0  0  0  0  0  0  0  0  0
   49.0189   34.3421   37.9417 H   0  0  0  0  0  0  0  0  0  0  0  0
   47.1612   32.9791   37.1357 H   0  0  0  0  0  0  0  0  0  0  0  0
   45.1574   32.4267   38.5485 H   0  0  0  0  0  0  0  0  0  0  0  0
   43.6180   34.3905   42.1241 H   0  0  0  0  0  0  0  0  0  0  0  0
   43.0656   34.2013   40.4592 H   0  0  0  0  0  0  0  0  0  0  0  0
   41.9013   32.6899   42.3344 H   0  0  0  0  0  0  0  0  0  0  0  0
   42.3365   31.8466   40.8984 H   0  0  0  0  0  0  0  0  0  0  0  0
   44.1105   32.2931   43.4457 H   0  0  0  0  0  0  0  0  0  0  0  0
   43.6398   30.7388   42.8824 H   0  0  0  0  0  0  0  0  0  0  0  0
   44.8712   31.1569   40.6483 H   0  0  0  0  0  0  0  0  0  0  0  0
   47.6053   31.4184   40.3480 H   0  0  0  0  0  0  0  0  0  0  0  0
   49.4099   30.3094   41.5449 H   0  0  0  0  0  0  0  0  0  0  0  0
   48.7666   29.5147   44.0364 H   0  0  0  0  0  0  0  0  0  0  0  0
   43.8598   36.7589   44.4323 H   0  0  0  0  0  0  0  0  0  0  0  0
   45.3354   36.7683   42.4208 H   0  0  0  0  0  0  0  0  0  0  0  0
   45.7764   33.2668   45.8858 H   0  0  0  0  0  0  0  0  0  0  0  0
  1 22  1  0
  2  1  2  0
  3  2  1  0
  4  3  1  0
  4  9  2  0
  5  4  1  0
  6  5  2  0
  6  7  1  0
  7  8  2  0
  8  9  1  0
  8 10  1  0
  9  1  1  0
 10 11  1  0
 10 14  1  0
 11 12  1  0
 12 13  1  0
 14 15  1  0
 14 13  1  0
 15 19  1  0
 16 15  2  0
 16 17  1  0
 17 18  2  0
 18 19  1  0
 20 25  2  0
 21 20  1  0
 22 21  2  0
 22 23  1  0
 23 24  2  0
 24 25  1  0
  2 26  1  0
  3 27  1  0
  5 28  1  0
  6 29  1  0
  7 30  1  0
 11 31  1  0
 11 32  1  0
 12 33  1  0
 12 34  1  0
 13 35  1  0
 13 36  1  0
 14 37  1  6
 16 38  1  0
 17 39  1  0
 18 40  1  0
 20 41  1  0
 21 42  1  0
 24 43  1  0
M  ISO  8  26  14  27   9  28  14  29  14  30  14  31  13  32  13  33  13
M  ISO  8  34  13  35  13  36  13  37  13  38  14  39  14  40  14  41  14
M  ISO  2  42  14  43  14
M  END
>  <minimizedAffinity>  (1) 
-6.10205698

>  <minimizedRMSD>  (1) 
0.806763947

$$$$
