
     RDKit          3D

 47 52  0  0  1  0  0  0  0  0999 V2000
   47.3370   34.9540   41.8670 C   0  0  0  0  0  0  0  0  0  0  0  0
   48.5500   35.6420   41.7670 C   0  0  0  0  0  0  0  0  0  0  0  0
   49.0440   35.4790   40.5310 N   0  0  0  0  0  0  0  0  0  0  0  0
   48.1800   34.7100   39.8510 C   0  0  0  0  0  0  0  0  0  0  0  0
   48.2370   34.2660   38.5480 C   0  0  0  0  0  0  0  0  0  0  0  0
   47.2050   33.4820   38.0870 C   0  0  0  0  0  0  0  0  0  0  0  0
   46.0950   33.1010   38.8500 C   0  0  0  0  0  0  0  0  0  0  0  0
   46.1170   33.5860   40.1370 C   0  0  0  0  0  0  0  0  0  0  0  0
   47.0980   34.3610   40.6530 C   0  0  0  0  0  0  0  0  0  0  0  0
   44.9620   33.1380   40.8610 N   0  0  0  0  0  0  0  0  0  0  0  0
   43.5580   33.4240   40.9930 C   0  0  0  0  0  0  0  0  0  0  0  0
   42.9600   32.2260   41.6840 C   0  0  0  0  0  0  0  0  0  0  0  0
   44.0780   31.9230   42.6640 C   0  0  0  0  0  0  0  0  0  0  0  0
   45.2820   32.0400   41.7680 C   0  0  1  0  0  0  0  0  0  0  0  0
   45.7240   30.8390   41.1880 N   0  0  0  0  0  0  0  0  0  0  0  0
   45.1260   29.8440   40.5190 C   0  0  0  0  0  0  0  0  0  0  0  0
   45.9480   28.8520   40.1310 N   0  0  0  0  0  0  0  0  0  0  0  0
   47.1920   29.1660   40.5500 C   0  0  0  0  0  0  0  0  0  0  0  0
   48.4310   28.5760   40.4660 C   0  0  0  0  0  0  0  0  0  0  0  0
   49.5130   29.1670   41.0060 N   0  0  0  0  0  0  0  0  0  0  0  0
   49.3600   30.3490   41.6310 C   0  0  0  0  0  0  0  0  0  0  0  0
   48.1480   30.9250   41.7120 N   0  0  0  0  0  0  0  0  0  0  0  0
   47.0200   30.3760   41.1860 C   0  0  0  0  0  0  0  0  0  0  0  0
   44.6050   35.6910   44.2840 C   0  0  0  0  0  0  0  0  0  0  0  0
   45.4000   35.7770   43.1440 C   0  0  0  0  0  0  0  0  0  0  0  0
   46.4940   34.8910   43.0380 C   0  0  0  0  0  0  0  0  0  0  0  0
   46.6790   34.0250   44.0660 N   0  0  0  0  0  0  0  0  0  0  0  0
   45.9030   33.9610   45.1540 C   0  0  0  0  0  0  0  0  0  0  0  0
   44.8570   34.8000   45.2630 N   0  0  0  0  0  0  0  0  0  0  0  0
   49.0229   36.2233   42.5723 H   0  0  0  0  0  0  0  0  0  0  0  0
   49.9250   35.8720   40.1699 H   0  0  0  0  0  0  0  0  0  0  0  0
   49.0824   34.5305   37.8959 H   0  0  0  0  0  0  0  0  0  0  0  0
   47.2555   33.1299   37.0461 H   0  0  0  0  0  0  0  0  0  0  0  0
   45.2818   32.4729   38.4574 H   0  0  0  0  0  0  0  0  0  0  0  0
   43.4066   34.3304   41.5975 H   0  0  0  0  0  0  0  0  0  0  0  0
   43.0873   33.6052   40.0154 H   0  0  0  0  0  0  0  0  0  0  0  0
   42.0196   32.4748   42.1975 H   0  0  0  0  0  0  0  0  0  0  0  0
   42.6778   31.3943   41.0218 H   0  0  0  0  0  0  0  0  0  0  0  0
   44.1094   32.6583   43.4815 H   0  0  0  0  0  0  0  0  0  0  0  0
   43.9842   30.9532   43.1745 H   0  0  0  0  0  0  0  0  0  0  0  0
   46.1943   32.2735   42.3365 H   0  0  0  0  0  0  0  0  0  0  0  0
   44.0473   29.8386   40.3038 H   0  0  0  0  0  0  0  0  0  0  0  0
   48.5393   27.6098   39.9515 H   0  0  0  0  0  0  0  0  0  0  0  0
   50.2326   30.8472   42.0786 H   0  0  0  0  0  0  0  0  0  0  0  0
   43.7461   36.3703   44.3884 H   0  0  0  0  0  0  0  0  0  0  0  0
   45.1830   36.5101   42.3532 H   0  0  0  0  0  0  0  0  0  0  0  0
   46.1175   33.2318   45.9491 H   0  0  0  0  0  0  0  0  0  0  0  0
  1 26  1  0
  2  1  2  0
  3  2  1  0
  4  3  1  0
  4  9  2  0
  5  4  1  0
  6  5  2  0
  6  7  1  0
  7  8  2  0
  8  9  1  0
  8 10  1  0
  9  1  1  0
 10 11  1  0
 10 14  1  0
 11 12  1  0
 12 13  1  0
 14 13  1  0
 15 14  1  0
 16 15  1  0
 17 16  2  0
 17 18  1  0
 18 23  2  0
 19 18  1  0
 19 20  2  0
 20 21  1  0
 21 22  2  0
 23 15  1  0
 23 22  1  0
 24 29  2  0
 25 24  1  0
 26 25  2  0
 26 27  1  0
 27 28  2  0
 28 29  1  0
  2 30  1  0
  3 31  1  0
  5 32  1  0
  6 33  1  0
  7 34  1  0
 11 35  1  0
 11 36  1  0
 12 37  1  0
 12 38  1  0
 13 39  1  0
 13 40  1  0
 14 41  1  1
 16 42  1  0
 19 43  1  0
 21 44  1  0
 24 45  1  0
 25 46  1  0
 28 47  1  0
M  ISO  8  30  14  31   9  32  14  33  14  34  14  35  13  36  13  37  13
M  ISO  8  38  13  39  13  40  13  41  13  42  14  43  14  44  14  45  14
M  ISO  2  46  14  47  14
M  END
>  <minimizedAffinity>  (1) 
-6.03878641

>  <minimizedRMSD>  (1) 
1.27763343

$$$$
