
     RDKit          3D

 50 54  0  0  1  0  0  0  0  0999 V2000
   47.2790   34.9150   41.8810 C   0  0  0  0  0  0  0  0  0  0  0  0
   48.5210   35.5580   41.7810 C   0  0  0  0  0  0  0  0  0  0  0  0
   49.0130   35.3620   40.5470 N   0  0  0  0  0  0  0  0  0  0  0  0
   48.1180   34.6140   39.8650 C   0  0  0  0  0  0  0  0  0  0  0  0
   48.1620   34.1530   38.5680 C   0  0  0  0  0  0  0  0  0  0  0  0
   47.1160   33.4120   38.1160 C   0  0  0  0  0  0  0  0  0  0  0  0
   45.9860   33.0790   38.8770 C   0  0  0  0  0  0  0  0  0  0  0  0
   46.0230   33.5800   40.1650 C   0  0  0  0  0  0  0  0  0  0  0  0
   47.0250   34.3180   40.6700 C   0  0  0  0  0  0  0  0  0  0  0  0
   44.8480   33.1800   40.8830 N   0  0  0  0  0  0  0  0  0  0  0  0
   43.4890   33.5950   41.1030 C   0  0  0  0  0  0  0  0  0  0  0  0
   42.7890   32.3900   41.6860 C   0  0  0  0  0  0  0  0  0  0  0  0
   43.8920   31.8830   42.5820 C   0  0  0  0  0  0  0  0  0  0  0  0
   45.0650   31.9520   41.6470 C   0  0  1  0  0  0  0  0  0  0  0  0
   45.4280   30.8170   40.9570 N   0  0  0  0  0  0  0  0  0  0  0  0
   44.6050   29.9700   40.2560 C   0  0  0  0  0  0  0  0  0  0  0  0
   45.3680   29.1250   39.2210 C   0  0  0  0  0  0  0  0  0  0  0  0
   46.2720   28.2340   39.8780 N   0  0  0  0  0  0  0  0  0  0  0  0
   46.4690   28.6770   41.2310 C   0  0  0  0  0  0  0  0  0  0  0  0
   46.6510   30.1650   41.3730 C   0  0  0  0  0  0  0  0  0  0  0  0
   44.6010   35.8330   44.3040 C   0  0  0  0  0  0  0  0  0  0  0  0
   45.4120   35.8700   43.1690 C   0  0  0  0  0  0  0  0  0  0  0  0
   46.4310   34.9000   43.0410 C   0  0  0  0  0  0  0  0  0  0  0  0
   46.5380   34.0020   44.0500 N   0  0  0  0  0  0  0  0  0  0  0  0
   45.7530   33.9800   45.1330 C   0  0  0  0  0  0  0  0  0  0  0  0
   44.7770   34.9020   45.2620 N   0  0  0  0  0  0  0  0  0  0  0  0
   49.0121   36.1296   42.5824 H   0  0  0  0  0  0  0  0  0  0  0  0
   49.9098   35.7173   40.1859 H   0  0  0  0  0  0  0  0  0  0  0  0
   49.0192   34.3780   37.9164 H   0  0  0  0  0  0  0  0  0  0  0  0
   47.1589   33.0474   37.0791 H   0  0  0  0  0  0  0  0  0  0  0  0
   45.1515   32.4777   38.4870 H   0  0  0  0  0  0  0  0  0  0  0  0
   43.4539   34.4386   41.8081 H   0  0  0  0  0  0  0  0  0  0  0  0
   43.0102   33.9350   40.1728 H   0  0  0  0  0  0  0  0  0  0  0  0
   41.8913   32.6710   42.2563 H   0  0  0  0  0  0  0  0  0  0  0  0
   42.4067   31.6654   40.9520 H   0  0  0  0  0  0  0  0  0  0  0  0
   44.0334   32.5330   43.4581 H   0  0  0  0  0  0  0  0  0  0  0  0
   43.7092   30.8872   43.0120 H   0  0  0  0  0  0  0  0  0  0  0  0
   46.0067   31.9952   42.2139 H   0  0  0  0  0  0  0  0  0  0  0  0
   44.1089   29.2928   40.9668 H   0  0  0  0  0  0  0  0  0  0  0  0
   43.8779   30.5888   39.7097 H   0  0  0  0  0  0  0  0  0  0  0  0
   45.9354   29.7919   38.5552 H   0  0  0  0  0  0  0  0  0  0  0  0
   44.6455   28.5357   38.6373 H   0  0  0  0  0  0  0  0  0  0  0  0
   45.8776   27.2825   39.8806 H   0  0  0  0  0  0  0  0  0  0  0  0
   45.5911   28.3788   41.8229 H   0  0  0  0  0  0  0  0  0  0  0  0
   47.4000   28.2096   41.5843 H   0  0  0  0  0  0  0  0  0  0  0  0
   47.4847   30.4995   40.7381 H   0  0  0  0  0  0  0  0  0  0  0  0
   46.8780   30.4197   42.4188 H   0  0  0  0  0  0  0  0  0  0  0  0
   43.8013   36.5795   44.4190 H   0  0  0  0  0  0  0  0  0  0  0  0
   45.2616   36.6354   42.3934 H   0  0  0  0  0  0  0  0  0  0  0  0
   45.9021   33.2170   45.9112 H   0  0  0  0  0  0  0  0  0  0  0  0
  1 23  1  0
  2  1  2  0
  3  2  1  0
  4  3  1  0
  4  9  2  0
  5  4  1  0
  6  5  2  0
  6  7  1  0
  7  8  2  0
  8  9  1  0
  8 10  1  0
  9  1  1  0
 10 11  1  0
 10 14  1  0
 11 12  1  0
 12 13  1  0
 14 13  1  0
 15 20  1  0
 15 14  1  0
 16 15  1  0
 17 18  1  0
 17 16  1  0
 18 19  1  0
 19 20  1  0
 21 26  2  0
 22 21  1  0
 23 22  2  0
 23 24  1  0
 24 25  2  0
 25 26  1  0
  2 27  1  0
  3 28  1  0
  5 29  1  0
  6 30  1  0
  7 31  1  0
 11 32  1  0
 11 33  1  0
 12 34  1  0
 12 35  1  0
 13 36  1  0
 13 37  1  0
 14 38  1  1
 16 39  1  0
 16 40  1  0
 17 41  1  0
 17 42  1  0
 18 43  1  0
 19 44  1  0
 19 45  1  0
 20 46  1  0
 20 47  1  0
 21 48  1  0
 22 49  1  0
 25 50  1  0
M  ISO  8  27  14  28   9  29  14  30  14  31  14  32  13  33  13  34  13
M  ISO  8  35  13  36  13  37  13  38  13  39  13  40  13  41  13  42  13
M  ISO  8  43   5  44  13  45  13  46  13  47  13  48  14  49  14  50  14
M  END
>  <minimizedAffinity>  (1) 
-5.86263609

>  <minimizedRMSD>  (1) 
0.732209921

$$$$
