
     RDKit          3D

 44 48  0  0  1  0  0  0  0  0999 V2000
   47.2780   34.9090   41.8780 C   0  0  0  0  0  0  0  0  0  0  0  0
   48.5210   35.5430   41.7810 C   0  0  0  0  0  0  0  0  0  0  0  0
   49.0130   35.3470   40.5480 N   0  0  0  0  0  0  0  0  0  0  0  0
   48.1140   34.6080   39.8700 C   0  0  0  0  0  0  0  0  0  0  0  0
   48.1530   34.1480   38.5680 C   0  0  0  0  0  0  0  0  0  0  0  0
   47.1010   33.4170   38.1150 C   0  0  0  0  0  0  0  0  0  0  0  0
   45.9700   33.0890   38.8690 C   0  0  0  0  0  0  0  0  0  0  0  0
   46.0030   33.5810   40.1570 C   0  0  0  0  0  0  0  0  0  0  0  0
   47.0180   34.3170   40.6740 C   0  0  0  0  0  0  0  0  0  0  0  0
   44.8290   33.1870   40.8820 N   0  0  0  0  0  0  0  0  0  0  0  0
   43.4820   33.6320   41.1360 C   0  0  0  0  0  0  0  0  0  0  0  0
   42.7670   32.4000   41.6630 C   0  0  0  0  0  0  0  0  0  0  0  0
   43.8640   31.8570   42.5600 C   0  0  0  0  0  0  0  0  0  0  0  0
   45.0440   31.9320   41.6040 C   0  0  1  0  0  0  0  0  0  0  0  0
   45.0370   30.7240   40.8170 C   0  0  0  0  0  0  0  0  0  0  0  0
   43.8540   30.3440   40.1680 C   0  0  0  0  0  0  0  0  0  0  0  0
   43.7060   29.2200   39.3780 C   0  0  0  0  0  0  0  0  0  0  0  0
   44.7730   28.4170   39.2100 N   0  0  0  0  0  0  0  0  0  0  0  0
   45.9180   28.8010   39.8470 C   0  0  0  0  0  0  0  0  0  0  0  0
   46.0450   29.8980   40.6130 N   0  0  0  0  0  0  0  0  0  0  0  0
   44.6060   35.8510   44.3060 C   0  0  0  0  0  0  0  0  0  0  0  0
   45.4190   35.8820   43.1740 C   0  0  0  0  0  0  0  0  0  0  0  0
   46.4200   34.8940   43.0520 C   0  0  0  0  0  0  0  0  0  0  0  0
   46.5340   33.9730   44.0450 N   0  0  0  0  0  0  0  0  0  0  0  0
   45.7290   33.9770   45.1250 C   0  0  0  0  0  0  0  0  0  0  0  0
   44.7670   34.9120   45.2580 N   0  0  0  0  0  0  0  0  0  0  0  0
   49.0146   36.1097   42.5842 H   0  0  0  0  0  0  0  0  0  0  0  0
   49.9119   35.6970   40.1869 H   0  0  0  0  0  0  0  0  0  0  0  0
   49.0116   34.3673   37.9163 H   0  0  0  0  0  0  0  0  0  0  0  0
   47.1422   33.0560   37.0767 H   0  0  0  0  0  0  0  0  0  0  0  0
   45.1334   32.4950   38.4725 H   0  0  0  0  0  0  0  0  0  0  0  0
   43.4734   34.4369   41.8857 H   0  0  0  0  0  0  0  0  0  0  0  0
   43.0004   34.0419   40.2360 H   0  0  0  0  0  0  0  0  0  0  0  0
   41.8608   32.6595   42.2300 H   0  0  0  0  0  0  0  0  0  0  0  0
   42.3939   31.7046   40.8967 H   0  0  0  0  0  0  0  0  0  0  0  0
   44.0163   32.4887   43.4476 H   0  0  0  0  0  0  0  0  0  0  0  0
   43.6692   30.8591   42.9799 H   0  0  0  0  0  0  0  0  0  0  0  0
   46.0496   31.9643   42.0488 H   0  0  0  0  0  0  0  0  0  0  0  0
   42.9743   30.9915   40.2978 H   0  0  0  0  0  0  0  0  0  0  0  0
   42.7430   28.9880   38.8997 H   0  0  0  0  0  0  0  0  0  0  0  0
   46.8055   28.1629   39.7237 H   0  0  0  0  0  0  0  0  0  0  0  0
   43.8172   36.6086   44.4241 H   0  0  0  0  0  0  0  0  0  0  0  0
   45.2848   36.6521   42.4001 H   0  0  0  0  0  0  0  0  0  0  0  0
   45.8576   33.2115   45.9044 H   0  0  0  0  0  0  0  0  0  0  0  0
  1 23  1  0
  2  1  2  0
  3  2  1  0
  4  3  1  0
  4  9  2  0
  5  4  1  0
  6  5  2  0
  6  7  1  0
  7  8  2  0
  8  9  1  0
  8 10  1  0
  9  1  1  0
 10 11  1  0
 10 14  1  0
 11 12  1  0
 12 13  1  0
 14 13  1  0
 15 14  1  0
 16 15  2  0
 17 16  1  0
 18 17  2  0
 18 19  1  0
 19 20  2  0
 20 15  1  0
 21 26  2  0
 22 21  1  0
 23 22  2  0
 23 24  1  0
 24 25  2  0
 25 26  1  0
  2 27  1  0
  3 28  1  0
  5 29  1  0
  6 30  1  0
  7 31  1  0
 11 32  1  0
 11 33  1  0
 12 34  1  0
 12 35  1  0
 13 36  1  0
 13 37  1  0
 14 38  1  1
 16 39  1  0
 17 40  1  0
 19 41  1  0
 21 42  1  0
 22 43  1  0
 25 44  1  0
M  ISO  8  27  14  28   9  29  14  30  14  31  14  32  13  33  13  34  13
M  ISO  8  35  13  36  13  37  13  38  13  39  14  40  14  41  14  42  14
M  ISO  2  43  14  44  14
M  END
>  <minimizedAffinity>  (1) 
-5.88512564

>  <minimizedRMSD>  (1) 
0.659321845

$$$$
