
     RDKit          3D

 48 52  0  0  1  0  0  0  0  0999 V2000
   47.2870   34.9250   41.8880 C   0  0  0  0  0  0  0  0  0  0  0  0
   48.5200   35.5810   41.7840 C   0  0  0  0  0  0  0  0  0  0  0  0
   49.0170   35.3890   40.5460 N   0  0  0  0  0  0  0  0  0  0  0  0
   48.1290   34.6330   39.8720 C   0  0  0  0  0  0  0  0  0  0  0  0
   48.1730   34.1690   38.5750 C   0  0  0  0  0  0  0  0  0  0  0  0
   47.1300   33.4150   38.1280 C   0  0  0  0  0  0  0  0  0  0  0  0
   46.0080   33.0710   38.8870 C   0  0  0  0  0  0  0  0  0  0  0  0
   46.0420   33.5720   40.1690 C   0  0  0  0  0  0  0  0  0  0  0  0
   47.0370   34.3220   40.6730 C   0  0  0  0  0  0  0  0  0  0  0  0
   44.8720   33.1660   40.8910 N   0  0  0  0  0  0  0  0  0  0  0  0
   43.5130   33.5690   41.1340 C   0  0  0  0  0  0  0  0  0  0  0  0
   42.8230   32.3600   41.7120 C   0  0  0  0  0  0  0  0  0  0  0  0
   43.9370   31.8350   42.6070 C   0  0  0  0  0  0  0  0  0  0  0  0
   45.0900   31.9390   41.6390 C   0  0  1  0  0  0  0  0  0  0  0  0
   45.3860   30.8160   40.8950 N   0  0  0  0  0  0  0  0  0  0  0  0
   44.4310   29.9090   40.4340 C   0  0  0  0  0  0  0  0  0  0  0  0
   45.2600   29.1900   39.3540 C   0  0  0  0  0  0  0  0  0  0  0  0
   46.5430   28.9660   40.1590 C   0  0  0  0  0  0  0  0  0  0  0  0
   46.5320   30.0610   41.2310 C   0  0  0  0  0  0  0  0  0  0  0  0
   44.6070   35.8360   44.3060 C   0  0  0  0  0  0  0  0  0  0  0  0
   45.4220   35.8660   43.1810 C   0  0  0  0  0  0  0  0  0  0  0  0
   46.4440   34.8990   43.0510 C   0  0  0  0  0  0  0  0  0  0  0  0
   46.5530   33.9970   44.0570 N   0  0  0  0  0  0  0  0  0  0  0  0
   45.7570   33.9840   45.1350 C   0  0  0  0  0  0  0  0  0  0  0  0
   44.7780   34.9030   45.2670 N   0  0  0  0  0  0  0  0  0  0  0  0
   49.0048   36.1598   42.5840 H   0  0  0  0  0  0  0  0  0  0  0  0
   49.9096   35.7527   40.1829 H   0  0  0  0  0  0  0  0  0  0  0  0
   49.0256   34.4007   37.9197 H   0  0  0  0  0  0  0  0  0  0  0  0
   47.1743   33.0494   37.0915 H   0  0  0  0  0  0  0  0  0  0  0  0
   45.1796   32.4603   38.4985 H   0  0  0  0  0  0  0  0  0  0  0  0
   43.4833   34.4050   41.8484 H   0  0  0  0  0  0  0  0  0  0  0  0
   43.0218   33.9131   40.2119 H   0  0  0  0  0  0  0  0  0  0  0  0
   41.9286   32.6358   42.2899 H   0  0  0  0  0  0  0  0  0  0  0  0
   42.4411   31.6417   40.9716 H   0  0  0  0  0  0  0  0  0  0  0  0
   44.0855   32.4680   43.4943 H   0  0  0  0  0  0  0  0  0  0  0  0
   43.7679   30.8355   43.0341 H   0  0  0  0  0  0  0  0  0  0  0  0
   46.0363   31.9917   42.1973 H   0  0  0  0  0  0  0  0  0  0  0  0
   44.1042   29.2197   41.2265 H   0  0  0  0  0  0  0  0  0  0  0  0
   43.4919   30.3591   40.0796 H   0  0  0  0  0  0  0  0  0  0  0  0
   45.4303   29.8249   38.4720 H   0  0  0  0  0  0  0  0  0  0  0  0
   44.8025   28.2860   38.9257 H   0  0  0  0  0  0  0  0  0  0  0  0
   46.5391   27.9691   40.6240 H   0  0  0  0  0  0  0  0  0  0  0  0
   47.4421   29.0141   39.5271 H   0  0  0  0  0  0  0  0  0  0  0  0
   47.4419   30.6768   41.1778 H   0  0  0  0  0  0  0  0  0  0  0  0
   46.5078   29.6657   42.2572 H   0  0  0  0  0  0  0  0  0  0  0  0
   43.8089   36.5851   44.4156 H   0  0  0  0  0  0  0  0  0  0  0  0
   45.2739   36.6304   42.4040 H   0  0  0  0  0  0  0  0  0  0  0  0
   45.9022   33.2217   45.9147 H   0  0  0  0  0  0  0  0  0  0  0  0
  1 22  1  0
  2  1  2  0
  3  2  1  0
  4  3  1  0
  4  9  2  0
  5  4  1  0
  6  5  2  0
  6  7  1  0
  7  8  2  0
  8  9  1  0
  8 10  1  0
  9  1  1  0
 10 11  1  0
 10 14  1  0
 11 12  1  0
 12 13  1  0
 14 13  1  0
 15 16  1  0
 15 19  1  0
 15 14  1  0
 17 18  1  0
 17 16  1  0
 18 19  1  0
 20 25  2  0
 21 20  1  0
 22 21  2  0
 22 23  1  0
 23 24  2  0
 24 25  1  0
  2 26  1  0
  3 27  1  0
  5 28  1  0
  6 29  1  0
  7 30  1  0
 11 31  1  0
 11 32  1  0
 12 33  1  0
 12 34  1  0
 13 35  1  0
 13 36  1  0
 14 37  1  1
 16 38  1  0
 16 39  1  0
 17 40  1  0
 17 41  1  0
 18 42  1  0
 18 43  1  0
 19 44  1  0
 19 45  1  0
 20 46  1  0
 21 47  1  0
 24 48  1  0
M  ISO  8  26  14  27   9  28  14  29  14  30  14  31  13  32  13  33  13
M  ISO  8  34  13  35  13  36  13  37  13  38  13  39  13  40  13  41  13
M  ISO  7  42  13  43  13  44  13  45  13  46  14  47  14  48  14
M  END
>  <minimizedAffinity>  (1) 
-5.8475771

>  <minimizedRMSD>  (1) 
0.643460155

$$$$
