
     RDKit          3D

 44 48  0  0  1  0  0  0  0  0999 V2000
   47.3100   34.9100   41.8830 C   0  0  0  0  0  0  0  0  0  0  0  0
   48.5400   35.5670   41.7780 C   0  0  0  0  0  0  0  0  0  0  0  0
   49.0270   35.3850   40.5360 N   0  0  0  0  0  0  0  0  0  0  0  0
   48.1350   34.6340   39.8620 C   0  0  0  0  0  0  0  0  0  0  0  0
   48.1660   34.1780   38.5560 C   0  0  0  0  0  0  0  0  0  0  0  0
   47.1260   33.4310   38.1080 C   0  0  0  0  0  0  0  0  0  0  0  0
   46.0110   33.0820   38.8740 C   0  0  0  0  0  0  0  0  0  0  0  0
   46.0480   33.5720   40.1710 C   0  0  0  0  0  0  0  0  0  0  0  0
   47.0490   34.3170   40.6710 C   0  0  0  0  0  0  0  0  0  0  0  0
   44.8860   33.1520   40.8990 N   0  0  0  0  0  0  0  0  0  0  0  0
   43.5160   33.5320   41.1230 C   0  0  0  0  0  0  0  0  0  0  0  0
   42.8550   32.3100   41.7030 C   0  0  0  0  0  0  0  0  0  0  0  0
   43.9650   31.8630   42.6350 C   0  0  0  0  0  0  0  0  0  0  0  0
   45.1470   31.9420   41.6790 C   0  0  1  0  0  0  0  0  0  0  0  0
   45.2370   30.7120   40.8630 C   0  0  0  0  0  0  0  0  0  0  0  0
   46.4080   29.9440   40.9030 C   0  0  0  0  0  0  0  0  0  0  0  0
   46.6330   28.7700   40.2140 C   0  0  0  0  0  0  0  0  0  0  0  0
   45.6200   28.3180   39.4230 N   0  0  0  0  0  0  0  0  0  0  0  0
   44.4730   29.0480   39.3700 C   0  0  0  0  0  0  0  0  0  0  0  0
   44.3190   30.1870   40.0670 N   0  0  0  0  0  0  0  0  0  0  0  0
   44.6210   35.7890   44.3150 C   0  0  0  0  0  0  0  0  0  0  0  0
   45.4310   35.8280   43.1790 C   0  0  0  0  0  0  0  0  0  0  0  0
   46.4680   34.8770   43.0530 C   0  0  0  0  0  0  0  0  0  0  0  0
   46.6240   33.9630   44.0620 N   0  0  0  0  0  0  0  0  0  0  0  0
   45.8120   33.9630   45.1470 C   0  0  0  0  0  0  0  0  0  0  0  0
   44.8180   34.8630   45.2830 N   0  0  0  0  0  0  0  0  0  0  0  0
   49.0299   36.1393   42.5796 H   0  0  0  0  0  0  0  0  0  0  0  0
   49.9168   35.7521   40.1693 H   0  0  0  0  0  0  0  0  0  0  0  0
   49.0138   34.4156   37.8966 H   0  0  0  0  0  0  0  0  0  0  0  0
   47.1633   33.0748   37.0679 H   0  0  0  0  0  0  0  0  0  0  0  0
   45.1806   32.4748   38.4845 H   0  0  0  0  0  0  0  0  0  0  0  0
   43.4600   34.3727   41.8301 H   0  0  0  0  0  0  0  0  0  0  0  0
   43.0252   33.8629   40.1959 H   0  0  0  0  0  0  0  0  0  0  0  0
   41.9329   32.5591   42.2487 H   0  0  0  0  0  0  0  0  0  0  0  0
   42.5195   31.5602   40.9714 H   0  0  0  0  0  0  0  0  0  0  0  0
   44.0826   32.5457   43.4894 H   0  0  0  0  0  0  0  0  0  0  0  0
   43.8113   30.8816   43.1075 H   0  0  0  0  0  0  0  0  0  0  0  0
   46.1249   32.0039   42.1788 H   0  0  0  0  0  0  0  0  0  0  0  0
   47.2238   30.3110   41.5431 H   0  0  0  0  0  0  0  0  0  0  0  0
   47.5847   28.2250   40.2993 H   0  0  0  0  0  0  0  0  0  0  0  0
   43.6457   28.6950   38.7368 H   0  0  0  0  0  0  0  0  0  0  0  0
   43.8090   36.5228   44.4257 H   0  0  0  0  0  0  0  0  0  0  0  0
   45.2652   36.5841   42.3975 H   0  0  0  0  0  0  0  0  0  0  0  0
   45.9677   33.2112   45.9348 H   0  0  0  0  0  0  0  0  0  0  0  0
  1 23  1  0
  2  1  2  0
  3  2  1  0
  4  3  1  0
  4  9  2  0
  5  4  1  0
  6  5  2  0
  6  7  1  0
  7  8  2  0
  8  9  1  0
  8 10  1  0
  9  1  1  0
 10 11  1  0
 10 14  1  0
 11 12  1  0
 12 13  1  0
 14 13  1  0
 15 16  2  0
 15 14  1  0
 17 16  1  0
 18 17  2  0
 19 18  1  0
 19 20  2  0
 20 15  1  0
 21 26  2  0
 22 21  1  0
 23 22  2  0
 23 24  1  0
 24 25  2  0
 25 26  1  0
  2 27  1  0
  3 28  1  0
  5 29  1  0
  6 30  1  0
  7 31  1  0
 11 32  1  0
 11 33  1  0
 12 34  1  0
 12 35  1  0
 13 36  1  0
 13 37  1  0
 14 38  1  1
 16 39  1  0
 17 40  1  0
 19 41  1  0
 21 42  1  0
 22 43  1  0
 25 44  1  0
M  ISO  8  27  14  28   9  29  14  30  14  31  14  32  13  33  13  34  13
M  ISO  8  35  13  36  13  37  13  38  13  39  14  40  14  41  14  42  14
M  ISO  2  43  14  44  14
M  END
>  <minimizedAffinity>  (1) 
-5.85866785

>  <minimizedRMSD>  (1) 
0.583313167

$$$$
