
     RDKit          3D

 48 51  0  0  1  0  0  0  0  0999 V2000
   47.3240   34.8800   41.8380 C   0  0  0  0  0  0  0  0  0  0  0  0
   48.5480   35.5500   41.7320 C   0  0  0  0  0  0  0  0  0  0  0  0
   49.0190   35.3750   40.4810 N   0  0  0  0  0  0  0  0  0  0  0  0
   48.1350   34.6260   39.8200 C   0  0  0  0  0  0  0  0  0  0  0  0
   48.1530   34.1800   38.5050 C   0  0  0  0  0  0  0  0  0  0  0  0
   47.1090   33.4310   38.0590 C   0  0  0  0  0  0  0  0  0  0  0  0
   46.0050   33.0680   38.8380 C   0  0  0  0  0  0  0  0  0  0  0  0
   46.0620   33.5430   40.1250 C   0  0  0  0  0  0  0  0  0  0  0  0
   47.0530   34.2910   40.6390 C   0  0  0  0  0  0  0  0  0  0  0  0
   44.9390   33.0720   40.8680 N   0  0  0  0  0  0  0  0  0  0  0  0
   43.5190   33.4050   41.0270 C   0  0  0  0  0  0  0  0  0  0  0  0
   42.8930   32.2210   41.6760 C   0  0  0  0  0  0  0  0  0  0  0  0
   43.9970   31.8700   42.6500 C   0  0  0  0  0  0  0  0  0  0  0  0
   45.1890   31.9560   41.7230 C   0  0  1  0  0  0  0  0  0  0  0  0
   45.6350   30.6520   41.2400 C   0  0  0  0  0  0  0  0  0  0  0  0
   45.2570   29.6760   42.3940 C   0  0  0  0  0  0  0  0  0  0  0  0
   45.0300   30.0480   40.0430 C   0  0  0  0  0  0  0  0  0  0  0  0
   47.1730   30.5920   41.2590 C   0  0  0  0  0  0  0  0  0  0  0  0
   44.6160   35.7170   44.2680 C   0  0  0  0  0  0  0  0  0  0  0  0
   45.4140   35.7660   43.1300 C   0  0  0  0  0  0  0  0  0  0  0  0
   46.4830   34.8460   43.0190 C   0  0  0  0  0  0  0  0  0  0  0  0
   46.6570   33.9720   44.0400 N   0  0  0  0  0  0  0  0  0  0  0  0
   45.8740   33.9420   45.1300 C   0  0  0  0  0  0  0  0  0  0  0  0
   44.8450   34.8200   45.2460 N   0  0  0  0  0  0  0  0  0  0  0  0
   49.0412   36.1214   42.5321 H   0  0  0  0  0  0  0  0  0  0  0  0
   49.9008   35.7511   40.1043 H   0  0  0  0  0  0  0  0  0  0  0  0
   48.9929   34.4270   37.8389 H   0  0  0  0  0  0  0  0  0  0  0  0
   47.1344   33.0871   37.0144 H   0  0  0  0  0  0  0  0  0  0  0  0
   45.1714   32.4604   38.4561 H   0  0  0  0  0  0  0  0  0  0  0  0
   43.4036   34.2954   41.6625 H   0  0  0  0  0  0  0  0  0  0  0  0
   43.0466   33.6326   40.0600 H   0  0  0  0  0  0  0  0  0  0  0  0
   41.9564   32.4807   42.1910 H   0  0  0  0  0  0  0  0  0  0  0  0
   42.5913   31.4130   40.9933 H   0  0  0  0  0  0  0  0  0  0  0  0
   44.0643   32.5972   43.4726 H   0  0  0  0  0  0  0  0  0  0  0  0
   43.8754   30.9062   43.1661 H   0  0  0  0  0  0  0  0  0  0  0  0
   46.1548   32.2030   42.1879 H   0  0  0  0  0  0  0  0  0  0  0  0
   45.4455   30.1626   43.3623 H   0  0  0  0  0  0  0  0  0  0  0  0
   44.1918   29.4125   42.3172 H   0  0  0  0  0  0  0  0  0  0  0  0
   45.8668   28.7638   42.3172 H   0  0  0  0  0  0  0  0  0  0  0  0
   44.2819   29.3012   40.3474 H   0  0  0  0  0  0  0  0  0  0  0  0
   44.5433   30.8312   39.4432 H   0  0  0  0  0  0  0  0  0  0  0  0
   45.8124   29.5600   39.4432 H   0  0  0  0  0  0  0  0  0  0  0  0
   47.5266   30.5782   42.3005 H   0  0  0  0  0  0  0  0  0  0  0  0
   47.5107   29.6800   40.7450 H   0  0  0  0  0  0  0  0  0  0  0  0
   47.5808   31.4749   40.7450 H   0  0  0  0  0  0  0  0  0  0  0  0
   43.7808   36.4253   44.3713 H   0  0  0  0  0  0  0  0  0  0  0  0
   45.2188   36.5018   42.3360 H   0  0  0  0  0  0  0  0  0  0  0  0
   46.0656   33.2082   45.9268 H   0  0  0  0  0  0  0  0  0  0  0  0
  1 21  1  0
  2  1  2  0
  3  2  1  0
  4  3  1  0
  4  9  2  0
  5  4  1  0
  6  5  2  0
  6  7  1  0
  7  8  2  0
  8  9  1  0
  8 10  1  0
  9  1  1  0
 10 11  1  0
 10 14  1  0
 11 12  1  0
 12 13  1  0
 14 13  1  0
 15 18  1  0
 15 14  1  0
 15 16  1  0
 17 15  1  0
 19 24  2  0
 20 19  1  0
 21 20  2  0
 21 22  1  0
 22 23  2  0
 23 24  1  0
  2 25  1  0
  3 26  1  0
  5 27  1  0
  6 28  1  0
  7 29  1  0
 11 30  1  0
 11 31  1  0
 12 32  1  0
 12 33  1  0
 13 34  1  0
 13 35  1  0
 14 36  1  1
 16 37  1  0
 16 38  1  0
 16 39  1  0
 17 40  1  0
 17 41  1  0
 17 42  1  0
 18 43  1  0
 18 44  1  0
 18 45  1  0
 19 46  1  0
 20 47  1  0
 23 48  1  0
M  ISO  8  25  14  26   9  27  14  28  14  29  14  30  13  31  13  32  13
M  ISO  8  33  13  34  13  35  13  36  13  37   8  38   8  39   8  40   8
M  ISO  8  41   8  42   8  43   8  44   8  45   8  46  14  47  14  48  14
M  END
>  <minimizedAffinity>  (1) 
-5.85389996

>  <minimizedRMSD>  (1) 
0.307795495

$$$$
