
     RDKit          3D

 49 53  0  0  1  0  0  0  0  0999 V2000
   47.2930   34.9220   41.8730 C   0  0  0  0  0  0  0  0  0  0  0  0
   48.5270   35.5640   41.7750 C   0  0  0  0  0  0  0  0  0  0  0  0
   49.0210   35.3700   40.5380 N   0  0  0  0  0  0  0  0  0  0  0  0
   48.1360   34.6300   39.8680 C   0  0  0  0  0  0  0  0  0  0  0  0
   48.1670   34.1650   38.5670 C   0  0  0  0  0  0  0  0  0  0  0  0
   47.1230   33.4270   38.1120 C   0  0  0  0  0  0  0  0  0  0  0  0
   45.9740   33.0770   38.8620 C   0  0  0  0  0  0  0  0  0  0  0  0
   46.0330   33.5870   40.1560 C   0  0  0  0  0  0  0  0  0  0  0  0
   47.0310   34.3240   40.6730 C   0  0  0  0  0  0  0  0  0  0  0  0
   44.8780   33.1760   40.8800 N   0  0  0  0  0  0  0  0  0  0  0  0
   43.4790   33.5560   41.0630 C   0  0  0  0  0  0  0  0  0  0  0  0
   42.8140   32.3530   41.6720 C   0  0  0  0  0  0  0  0  0  0  0  0
   43.9140   31.9200   42.6170 C   0  0  0  0  0  0  0  0  0  0  0  0
   45.1060   32.0100   41.7210 C   0  0  1  0  0  0  0  0  0  0  0  0
   46.6020   28.4250   39.9320 C   0  0  0  0  0  0  0  0  0  0  0  0
   45.3070   28.8100   39.6590 C   0  0  0  0  0  0  0  0  0  0  0  0
   44.8600   29.9770   40.2430 C   0  0  0  0  0  0  0  0  0  0  0  0
   45.5750   30.8090   41.0790 C   0  0  0  0  0  0  0  0  0  0  0  0
   46.8710   30.3760   41.3210 C   0  0  0  0  0  0  0  0  0  0  0  0
   47.3790   29.2250   40.7730 C   0  0  0  0  0  0  0  0  0  0  0  0
   47.1900   26.9480   39.2020 S   0  0  0  0  0  0  0  0  0  0  0  0
   48.7040   27.0780   39.1180 O   0  0  0  0  0  0  0  0  0  0  0  0
   46.5740   26.6980   37.8690 O   0  0  0  0  0  0  0  0  0  0  0  0
   44.5890   35.8100   44.2880 C   0  0  0  0  0  0  0  0  0  0  0  0
   45.3980   35.8510   43.1580 C   0  0  0  0  0  0  0  0  0  0  0  0
   46.4390   34.9050   43.0400 C   0  0  0  0  0  0  0  0  0  0  0  0
   46.5570   34.0270   44.0620 N   0  0  0  0  0  0  0  0  0  0  0  0
   45.7770   33.9940   45.1430 C   0  0  0  0  0  0  0  0  0  0  0  0
   44.7810   34.8960   45.2590 N   0  0  0  0  0  0  0  0  0  0  0  0
   49.0166   36.1355   42.5773 H   0  0  0  0  0  0  0  0  0  0  0  0
   49.9167   35.7269   40.1757 H   0  0  0  0  0  0  0  0  0  0  0  0
   49.0221   34.3889   37.9123 H   0  0  0  0  0  0  0  0  0  0  0  0
   47.1736   33.0705   37.0726 H   0  0  0  0  0  0  0  0  0  0  0  0
   45.1391   32.4770   38.4710 H   0  0  0  0  0  0  0  0  0  0  0  0
   43.4005   34.4215   41.7373 H   0  0  0  0  0  0  0  0  0  0  0  0
   43.0069   33.8469   40.1130 H   0  0  0  0  0  0  0  0  0  0  0  0
   41.8918   32.6203   42.2088 H   0  0  0  0  0  0  0  0  0  0  0  0
   42.4794   31.5874   40.9566 H   0  0  0  0  0  0  0  0  0  0  0  0
   44.0011   32.6016   43.4760 H   0  0  0  0  0  0  0  0  0  0  0  0
   43.7600   30.9301   43.0713 H   0  0  0  0  0  0  0  0  0  0  0  0
   46.0115   32.1440   42.3311 H   0  0  0  0  0  0  0  0  0  0  0  0
   44.6574   28.2119   39.0031 H   0  0  0  0  0  0  0  0  0  0  0  0
   43.8253   30.2752   40.0185 H   0  0  0  0  0  0  0  0  0  0  0  0
   47.5160   30.9786   41.9774 H   0  0  0  0  0  0  0  0  0  0  0  0
   48.4136   28.9279   40.9994 H   0  0  0  0  0  0  0  0  0  0  0  0
   46.8407   25.8624   39.9611 H   0  0  0  0  0  0  0  0  0  0  0  0
   43.7733   36.5407   44.3916 H   0  0  0  0  0  0  0  0  0  0  0  0
   45.2306   36.6037   42.3735 H   0  0  0  0  0  0  0  0  0  0  0  0
   45.9434   33.2422   45.9286 H   0  0  0  0  0  0  0  0  0  0  0  0
  1 26  1  0
  2  1  2  0
  3  2  1  0
  4  3  1  0
  4  9  2  0
  5  4  1  0
  6  5  2  0
  6  7  1  0
  7  8  2  0
  8  9  1  0
  8 10  1  0
  9  1  1  0
 10 11  1  0
 10 14  1  0
 11 12  1  0
 12 13  1  0
 14 13  1  0
 15 20  2  0
 16 15  1  0
 16 17  2  0
 17 18  1  0
 18 19  2  0
 18 14  1  0
 20 19  1  0
 21 15  1  0
 22 21  2  0
 23 21  2  0
 24 29  2  0
 25 24  1  0
 26 25  2  0
 26 27  1  0
 27 28  2  0
 28 29  1  0
  2 30  1  0
  3 31  1  0
  5 32  1  0
  6 33  1  0
  7 34  1  0
 11 35  1  0
 11 36  1  0
 12 37  1  0
 12 38  1  0
 13 39  1  0
 13 40  1  0
 14 41  1  1
 16 42  1  0
 17 43  1  0
 19 44  1  0
 20 45  1  0
 21 46  1  0
 24 47  1  0
 25 48  1  0
 28 49  1  0
M  ISO  8  30  14  31   9  32  14  33  14  34  14  35  13  36  13  37  13
M  ISO  8  38  13  39  13  40  13  41  13  42  14  43  14  44  14  45  14
M  ISO  4  46  11  47  14  48  14  49  14
M  END
>  <minimizedAffinity>  (1) 
-5.58377361

>  <minimizedRMSD>  (1) 
0.436077595

$$$$
