
     RDKit          3D

 46 50  0  0  1  0  0  0  0  0999 V2000
   47.2840   34.9380   41.8860 C   0  0  0  0  0  0  0  0  0  0  0  0
   48.5140   35.5910   41.7870 C   0  0  0  0  0  0  0  0  0  0  0  0
   49.0070   35.3890   40.5640 N   0  0  0  0  0  0  0  0  0  0  0  0
   48.1310   34.6340   39.8920 C   0  0  0  0  0  0  0  0  0  0  0  0
   48.1680   34.1480   38.5940 C   0  0  0  0  0  0  0  0  0  0  0  0
   47.1370   33.3920   38.1400 C   0  0  0  0  0  0  0  0  0  0  0  0
   46.0220   33.0630   38.9060 C   0  0  0  0  0  0  0  0  0  0  0  0
   46.0460   33.5770   40.1910 C   0  0  0  0  0  0  0  0  0  0  0  0
   47.0270   34.3290   40.6990 C   0  0  0  0  0  0  0  0  0  0  0  0
   44.8570   33.1770   40.9110 N   0  0  0  0  0  0  0  0  0  0  0  0
   43.4910   33.5650   41.1080 C   0  0  0  0  0  0  0  0  0  0  0  0
   42.8140   32.3510   41.6920 C   0  0  0  0  0  0  0  0  0  0  0  0
   43.9210   31.8900   42.6400 C   0  0  0  0  0  0  0  0  0  0  0  0
   45.1070   31.9680   41.7150 C   0  0  1  0  0  0  0  0  0  0  0  0
   45.2600   30.7540   40.9200 C   0  0  0  0  0  0  0  0  0  0  0  0
   44.4330   30.2110   40.1800 O   0  0  0  0  0  0  0  0  0  0  0  0
   44.5710   35.8330   44.2940 C   0  0  0  0  0  0  0  0  0  0  0  0
   45.3810   35.8690   43.1620 C   0  0  0  0  0  0  0  0  0  0  0  0
   46.4320   34.9210   43.0550 C   0  0  0  0  0  0  0  0  0  0  0  0
   46.5490   34.0540   44.0870 N   0  0  0  0  0  0  0  0  0  0  0  0
   45.7660   34.0340   45.1630 C   0  0  0  0  0  0  0  0  0  0  0  0
   44.7740   34.9210   45.2720 N   0  0  0  0  0  0  0  0  0  0  0  0
   45.9900   33.0480   46.2160 C   0  0  0  0  0  0  0  0  0  0  0  0
   46.9530   32.0700   46.0680 C   0  0  0  0  0  0  0  0  0  0  0  0
   47.2330   31.0880   47.0240 C   0  0  0  0  0  0  0  0  0  0  0  0
   46.4760   31.1500   48.1570 N   0  0  0  0  0  0  0  0  0  0  0  0
   45.5410   32.1040   48.2940 C   0  0  0  0  0  0  0  0  0  0  0  0
   45.2810   33.0530   47.3500 N   0  0  0  0  0  0  0  0  0  0  0  0
   48.9964   36.1749   42.5847 H   0  0  0  0  0  0  0  0  0  0  0  0
   49.9014   35.7496   40.2022 H   0  0  0  0  0  0  0  0  0  0  0  0
   49.0234   34.3728   37.9399 H   0  0  0  0  0  0  0  0  0  0  0  0
   47.1848   33.0173   37.1069 H   0  0  0  0  0  0  0  0  0  0  0  0
   45.1940   32.4481   38.5234 H   0  0  0  0  0  0  0  0  0  0  0  0
   43.4280   34.4140   41.8046 H   0  0  0  0  0  0  0  0  0  0  0  0
   43.0166   33.8880   40.1696 H   0  0  0  0  0  0  0  0  0  0  0  0
   41.8919   32.6130   42.2316 H   0  0  0  0  0  0  0  0  0  0  0  0
   42.4756   31.6017   40.9613 H   0  0  0  0  0  0  0  0  0  0  0  0
   44.0294   32.5665   43.5006 H   0  0  0  0  0  0  0  0  0  0  0  0
   43.7563   30.9045   43.1000 H   0  0  0  0  0  0  0  0  0  0  0  0
   46.0652   32.0390   42.2506 H   0  0  0  0  0  0  0  0  0  0  0  0
   46.2392   30.2576   40.9885 H   0  0  0  0  0  0  0  0  0  0  0  0
   43.7511   36.5594   44.3947 H   0  0  0  0  0  0  0  0  0  0  0  0
   45.2107   36.6135   42.3704 H   0  0  0  0  0  0  0  0  0  0  0  0
   47.5387   32.0624   45.1369 H   0  0  0  0  0  0  0  0  0  0  0  0
   48.0074   30.3215   46.8731 H   0  0  0  0  0  0  0  0  0  0  0  0
   44.9504   32.1209   49.2218 H   0  0  0  0  0  0  0  0  0  0  0  0
  1 19  1  0
  2  1  2  0
  3  2  1  0
  4  3  1  0
  4  9  2  0
  5  4  1  0
  6  5  2  0
  6  7  1  0
  7  8  2  0
  8  9  1  0
  8 10  1  0
  9  1  1  0
 10 11  1  0
 10 14  1  0
 11 12  1  0
 12 13  1  0
 14 13  1  0
 15 14  1  0
 16 15  2  0
 17 22  2  0
 18 17  1  0
 19 18  2  0
 19 20  1  0
 20 21  2  0
 21 22  1  0
 21 23  1  0
 23 28  1  0
 24 23  2  0
 24 25  1  0
 25 26  2  0
 26 27  1  0
 28 27  2  0
  2 29  1  0
  3 30  1  0
  5 31  1  0
  6 32  1  0
  7 33  1  0
 11 34  1  0
 11 35  1  0
 12 36  1  0
 12 37  1  0
 13 38  1  0
 13 39  1  0
 14 40  1  1
 15 41  1  0
 17 42  1  0
 18 43  1  0
 24 44  1  0
 25 45  1  0
 27 46  1  0
M  ISO  8  29  14  30   9  31  14  32  14  33  14  34  13  35  13  36  13
M  ISO  8  37  13  38  13  39  13  40  13  41   6  42  14  43  14  44  14
M  ISO  2  45  14  46  14
M  END
>  <minimizedAffinity>  (1) 
-7.00396347

>  <minimizedRMSD>  (1) 
0.215371192

$$$$
