
     RDKit          3D

 45 49  0  0  1  0  0  0  0  0999 V2000
   47.2860   34.9390   41.8910 C   0  0  0  0  0  0  0  0  0  0  0  0
   48.5180   35.5960   41.7740 C   0  0  0  0  0  0  0  0  0  0  0  0
   49.0080   35.3950   40.5480 N   0  0  0  0  0  0  0  0  0  0  0  0
   48.1330   34.6330   39.8790 C   0  0  0  0  0  0  0  0  0  0  0  0
   48.1730   34.1520   38.5910 C   0  0  0  0  0  0  0  0  0  0  0  0
   47.1400   33.3900   38.1450 C   0  0  0  0  0  0  0  0  0  0  0  0
   46.0280   33.0540   38.9090 C   0  0  0  0  0  0  0  0  0  0  0  0
   46.0530   33.5710   40.1950 C   0  0  0  0  0  0  0  0  0  0  0  0
   47.0370   34.3270   40.6940 C   0  0  0  0  0  0  0  0  0  0  0  0
   44.8710   33.1670   40.9190 N   0  0  0  0  0  0  0  0  0  0  0  0
   43.4990   33.5480   41.1090 C   0  0  0  0  0  0  0  0  0  0  0  0
   42.8330   32.3350   41.7050 C   0  0  0  0  0  0  0  0  0  0  0  0
   43.9410   31.8890   42.6570 C   0  0  0  0  0  0  0  0  0  0  0  0
   45.1270   31.9730   41.7380 C   0  0  1  0  0  0  0  0  0  0  0  0
   45.2920   30.7490   40.9470 C   0  0  0  0  0  0  0  0  0  0  0  0
   44.4760   30.2060   40.1940 O   0  0  0  0  0  0  0  0  0  0  0  0
   44.5620   35.8040   44.2770 C   0  0  0  0  0  0  0  0  0  0  0  0
   45.3680   35.8400   43.1410 C   0  0  0  0  0  0  0  0  0  0  0  0
   46.4460   34.9190   43.0500 C   0  0  0  0  0  0  0  0  0  0  0  0
   46.5840   34.0780   44.1010 N   0  0  0  0  0  0  0  0  0  0  0  0
   45.8070   34.0530   45.1790 C   0  0  0  0  0  0  0  0  0  0  0  0
   44.7920   34.9160   45.2710 N   0  0  0  0  0  0  0  0  0  0  0  0
   46.1540   33.0600   46.1720 C   0  0  0  0  0  0  0  0  0  0  0  0
   45.3220   32.9870   47.2910 C   0  0  0  0  0  0  0  0  0  0  0  0
   45.7990   31.9960   48.1210 C   0  0  0  0  0  0  0  0  0  0  0  0
   46.9230   31.5070   47.4510 C   0  0  0  0  0  0  0  0  0  0  0  0
   47.0850   32.1650   46.3150 O   0  0  0  0  0  0  0  0  0  0  0  0
   49.0044   36.1840   42.5662 H   0  0  0  0  0  0  0  0  0  0  0  0
   49.8990   35.7604   40.1825 H   0  0  0  0  0  0  0  0  0  0  0  0
   49.0254   34.3799   37.9341 H   0  0  0  0  0  0  0  0  0  0  0  0
   47.1866   33.0145   37.1121 H   0  0  0  0  0  0  0  0  0  0  0  0
   45.2032   32.4341   38.5276 H   0  0  0  0  0  0  0  0  0  0  0  0
   43.4277   34.4042   41.7959 H   0  0  0  0  0  0  0  0  0  0  0  0
   43.0233   33.8578   40.1668 H   0  0  0  0  0  0  0  0  0  0  0  0
   41.9091   32.5953   42.2423 H   0  0  0  0  0  0  0  0  0  0  0  0
   42.5016   31.5765   40.9805 H   0  0  0  0  0  0  0  0  0  0  0  0
   44.0406   32.5704   43.5148 H   0  0  0  0  0  0  0  0  0  0  0  0
   43.7838   30.9038   43.1204 H   0  0  0  0  0  0  0  0  0  0  0  0
   46.0797   32.0608   42.2808 H   0  0  0  0  0  0  0  0  0  0  0  0
   46.2682   30.2497   41.0353 H   0  0  0  0  0  0  0  0  0  0  0  0
   43.7236   36.5104   44.3671 H   0  0  0  0  0  0  0  0  0  0  0  0
   45.1746   36.5632   42.3350 H   0  0  0  0  0  0  0  0  0  0  0  0
   44.4373   33.6134   47.4779 H   0  0  0  0  0  0  0  0  0  0  0  0
   45.3896   31.6663   49.0873 H   0  0  0  0  0  0  0  0  0  0  0  0
   47.5743   30.6978   47.8130 H   0  0  0  0  0  0  0  0  0  0  0  0
  1 19  1  0
  2  1  2  0
  3  2  1  0
  4  3  1  0
  4  9  2  0
  5  4  1  0
  6  5  2  0
  6  7  1  0
  7  8  2  0
  8  9  1  0
  8 10  1  0
  9  1  1  0
 10 11  1  0
 10 14  1  0
 11 12  1  0
 12 13  1  0
 14 13  1  0
 15 14  1  0
 16 15  2  0
 17 22  2  0
 18 17  1  0
 19 18  2  0
 19 20  1  0
 20 21  2  0
 21 22  1  0
 21 23  1  0
 23 27  1  0
 23 24  2  0
 24 25  1  0
 26 25  2  0
 27 26  1  0
  2 28  1  0
  3 29  1  0
  5 30  1  0
  6 31  1  0
  7 32  1  0
 11 33  1  0
 11 34  1  0
 12 35  1  0
 12 36  1  0
 13 37  1  0
 13 38  1  0
 14 39  1  1
 15 40  1  0
 17 41  1  0
 18 42  1  0
 24 43  1  0
 25 44  1  0
 26 45  1  0
M  ISO  8  28  14  29   9  30  14  31  14  32  14  33  13  34  13  35  13
M  ISO  8  36  13  37  13  38  13  39  13  40   6  41  14  42  14  43  14
M  ISO  2  44  14  45  14
M  END
>  <minimizedAffinity>  (1) 
-6.79345798

>  <minimizedRMSD>  (1) 
0.120855004

$$$$
