
     RDKit          3D

 44 48  0  0  1  0  0  0  0  0999 V2000
   47.2660   34.9490   41.8740 C   0  0  0  0  0  0  0  0  0  0  0  0
   48.5060   35.5870   41.7760 C   0  0  0  0  0  0  0  0  0  0  0  0
   49.0100   35.3690   40.5490 N   0  0  0  0  0  0  0  0  0  0  0  0
   48.1300   34.6160   39.8710 C   0  0  0  0  0  0  0  0  0  0  0  0
   48.1850   34.1320   38.5860 C   0  0  0  0  0  0  0  0  0  0  0  0
   47.1390   33.3800   38.1360 C   0  0  0  0  0  0  0  0  0  0  0  0
   46.0120   33.0660   38.8850 C   0  0  0  0  0  0  0  0  0  0  0  0
   46.0310   33.5890   40.1660 C   0  0  0  0  0  0  0  0  0  0  0  0
   47.0250   34.3360   40.6760 C   0  0  0  0  0  0  0  0  0  0  0  0
   44.8320   33.2080   40.8790 N   0  0  0  0  0  0  0  0  0  0  0  0
   43.4710   33.6260   41.0650 C   0  0  0  0  0  0  0  0  0  0  0  0
   42.7660   32.4210   41.6440 C   0  0  0  0  0  0  0  0  0  0  0  0
   43.8560   31.9390   42.5990 C   0  0  0  0  0  0  0  0  0  0  0  0
   45.0520   31.9980   41.6860 C   0  0  1  0  0  0  0  0  0  0  0  0
   45.1830   30.7760   40.8880 C   0  0  0  0  0  0  0  0  0  0  0  0
   44.3570   30.2510   40.1380 O   0  0  0  0  0  0  0  0  0  0  0  0
   44.5570   35.8970   44.2470 C   0  0  0  0  0  0  0  0  0  0  0  0
   45.3780   35.9160   43.1210 C   0  0  0  0  0  0  0  0  0  0  0  0
   46.4120   34.9470   43.0220 C   0  0  0  0  0  0  0  0  0  0  0  0
   46.4960   34.0820   44.0590 N   0  0  0  0  0  0  0  0  0  0  0  0
   45.7040   34.0760   45.1270 C   0  0  0  0  0  0  0  0  0  0  0  0
   44.7310   34.9850   45.2240 N   0  0  0  0  0  0  0  0  0  0  0  0
   46.0030   33.0230   46.1250 C   0  0  0  0  0  0  0  0  0  0  0  0
   46.9390   32.1710   45.6290 C   0  0  0  0  0  0  0  0  0  0  0  0
   47.2040   30.9280   46.9720 S   0  0  0  0  0  0  0  0  0  0  0  0
   45.9100   31.8540   48.0290 C   0  0  0  0  0  0  0  0  0  0  0  0
   45.6230   32.6870   47.3350 N   0  0  0  0  0  0  0  0  0  0  0  0
   48.9899   36.1715   42.5723 H   0  0  0  0  0  0  0  0  0  0  0  0
   49.9112   35.7178   40.1926 H   0  0  0  0  0  0  0  0  0  0  0  0
   49.0482   34.3448   37.9382 H   0  0  0  0  0  0  0  0  0  0  0  0
   47.1920   32.9951   37.1069 H   0  0  0  0  0  0  0  0  0  0  0  0
   45.1818   32.4582   38.4960 H   0  0  0  0  0  0  0  0  0  0  0  0
   43.4195   34.4756   41.7618 H   0  0  0  0  0  0  0  0  0  0  0  0
   43.0100   33.9612   40.1242 H   0  0  0  0  0  0  0  0  0  0  0  0
   41.8448   32.6992   42.1769 H   0  0  0  0  0  0  0  0  0  0  0  0
   42.4197   31.6787   40.9097 H   0  0  0  0  0  0  0  0  0  0  0  0
   43.9684   32.6114   43.4623 H   0  0  0  0  0  0  0  0  0  0  0  0
   43.6699   30.9550   43.0541 H   0  0  0  0  0  0  0  0  0  0  0  0
   46.0065   32.0544   42.2299 H   0  0  0  0  0  0  0  0  0  0  0  0
   46.1493   30.2566   40.9690 H   0  0  0  0  0  0  0  0  0  0  0  0
   43.7517   36.6405   44.3401 H   0  0  0  0  0  0  0  0  0  0  0  0
   45.2289   36.6635   42.3279 H   0  0  0  0  0  0  0  0  0  0  0  0
   47.4303   32.2120   44.6457 H   0  0  0  0  0  0  0  0  0  0  0  0
   45.5455   31.6309   49.0426 H   0  0  0  0  0  0  0  0  0  0  0  0
  1 19  1  0
  2  1  2  0
  3  2  1  0
  4  3  1  0
  4  9  2  0
  5  4  1  0
  6  5  2  0
  6  7  1  0
  7  8  2  0
  8  9  1  0
  8 10  1  0
  9  1  1  0
 10 11  1  0
 10 14  1  0
 11 12  1  0
 12 13  1  0
 14 13  1  0
 15 14  1  0
 16 15  2  0
 17 22  2  0
 18 17  1  0
 19 18  2  0
 19 20  1  0
 20 21  2  0
 21 22  1  0
 21 23  1  0
 23 27  1  0
 24 23  2  0
 24 25  1  0
 25 26  1  0
 27 26  2  0
  2 28  1  0
  3 29  1  0
  5 30  1  0
  6 31  1  0
  7 32  1  0
 11 33  1  0
 11 34  1  0
 12 35  1  0
 12 36  1  0
 13 37  1  0
 13 38  1  0
 14 39  1  1
 15 40  1  0
 17 41  1  0
 18 42  1  0
 24 43  1  0
 26 44  1  0
M  ISO  8  28  14  29   9  30  14  31  14  32  14  33  13  34  13  35  13
M  ISO  8  36  13  37  13  38  13  39  13  40   6  41  14  42  14  43  14
M  ISO  1  44  14
M  END
>  <minimizedAffinity>  (1) 
-6.70382309

>  <minimizedRMSD>  (1) 
0.147141665

$$$$
