
     RDKit          3D

 40 43  0  0  1  0  0  0  0  0999 V2000
   47.2880   34.9310   41.8840 C   0  0  0  0  0  0  0  0  0  0  0  0
   48.5150   35.5870   41.7790 C   0  0  0  0  0  0  0  0  0  0  0  0
   49.0040   35.3900   40.5440 N   0  0  0  0  0  0  0  0  0  0  0  0
   48.1270   34.6330   39.8730 C   0  0  0  0  0  0  0  0  0  0  0  0
   48.1720   34.1630   38.5800 C   0  0  0  0  0  0  0  0  0  0  0  0
   47.1260   33.3980   38.1350 C   0  0  0  0  0  0  0  0  0  0  0  0
   46.0150   33.0610   38.8990 C   0  0  0  0  0  0  0  0  0  0  0  0
   46.0470   33.5700   40.1800 C   0  0  0  0  0  0  0  0  0  0  0  0
   47.0300   34.3230   40.6850 C   0  0  0  0  0  0  0  0  0  0  0  0
   44.8690   33.1660   40.9060 N   0  0  0  0  0  0  0  0  0  0  0  0
   43.5000   33.5530   41.1220 C   0  0  0  0  0  0  0  0  0  0  0  0
   42.8240   32.3390   41.6890 C   0  0  0  0  0  0  0  0  0  0  0  0
   43.9320   31.8680   42.6270 C   0  0  0  0  0  0  0  0  0  0  0  0
   45.1180   31.9510   41.7010 C   0  0  1  0  0  0  0  0  0  0  0  0
   45.2570   30.7410   40.8920 C   0  0  0  0  0  0  0  0  0  0  0  0
   44.4210   30.2090   40.1570 O   0  0  0  0  0  0  0  0  0  0  0  0
   44.5920   35.8230   44.3000 C   0  0  0  0  0  0  0  0  0  0  0  0
   45.3990   35.8580   43.1730 C   0  0  0  0  0  0  0  0  0  0  0  0
   46.4460   34.9060   43.0480 C   0  0  0  0  0  0  0  0  0  0  0  0
   46.5590   34.0290   44.0740 N   0  0  0  0  0  0  0  0  0  0  0  0
   45.7770   34.0080   45.1490 C   0  0  0  0  0  0  0  0  0  0  0  0
   44.7930   34.9030   45.2670 N   0  0  0  0  0  0  0  0  0  0  0  0
   46.0460   32.9940   46.1520 C   0  0  0  0  0  0  0  0  0  0  0  0
   45.3700   32.9920   47.2130 O   0  0  0  0  0  0  0  0  0  0  0  0
   49.0011   36.1690   42.5758 H   0  0  0  0  0  0  0  0  0  0  0  0
   49.8947   35.7559   40.1783 H   0  0  0  0  0  0  0  0  0  0  0  0
   49.0232   34.3949   37.9229 H   0  0  0  0  0  0  0  0  0  0  0  0
   47.1685   33.0246   37.1012 H   0  0  0  0  0  0  0  0  0  0  0  0
   45.1871   32.4454   38.5172 H   0  0  0  0  0  0  0  0  0  0  0  0
   43.4450   34.3907   41.8328 H   0  0  0  0  0  0  0  0  0  0  0  0
   43.0198   33.8899   40.1914 H   0  0  0  0  0  0  0  0  0  0  0  0
   41.9034   32.5956   42.2336 H   0  0  0  0  0  0  0  0  0  0  0  0
   42.4815   31.5990   40.9507 H   0  0  0  0  0  0  0  0  0  0  0  0
   44.0439   32.5364   43.4934 H   0  0  0  0  0  0  0  0  0  0  0  0
   43.7661   30.8780   43.0769 H   0  0  0  0  0  0  0  0  0  0  0  0
   46.0778   32.0155   42.2344 H   0  0  0  0  0  0  0  0  0  0  0  0
   46.2346   30.2396   40.9457 H   0  0  0  0  0  0  0  0  0  0  0  0
   43.7775   36.5544   44.4074 H   0  0  0  0  0  0  0  0  0  0  0  0
   45.2312   36.6106   42.3885 H   0  0  0  0  0  0  0  0  0  0  0  0
   46.8288   32.2390   45.9870 H   0  0  0  0  0  0  0  0  0  0  0  0
  1 19  1  0
  2  1  2  0
  3  2  1  0
  4  3  1  0
  4  9  2  0
  5  4  1  0
  6  5  2  0
  6  7  1  0
  7  8  2  0
  8  9  1  0
  8 10  1  0
  9  1  1  0
 10 11  1  0
 10 14  1  0
 11 12  1  0
 12 13  1  0
 14 13  1  0
 15 14  1  0
 16 15  2  0
 17 22  2  0
 18 17  1  0
 19 18  2  0
 19 20  1  0
 20 21  2  0
 21 22  1  0
 21 23  1  0
 23 24  2  0
  2 25  1  0
  3 26  1  0
  5 27  1  0
  6 28  1  0
  7 29  1  0
 11 30  1  0
 11 31  1  0
 12 32  1  0
 12 33  1  0
 13 34  1  0
 13 35  1  0
 14 36  1  1
 15 37  1  0
 17 38  1  0
 18 39  1  0
 23 40  1  0
M  ISO  8  25  14  26   9  27  14  28  14  29  14  30  13  31  13  32  13
M  ISO  8  33  13  34  13  35  13  36  13  37   6  38  14  39  14  40   6
M  END
>  <minimizedAffinity>  (1) 
-6.09593964

>  <minimizedRMSD>  (1) 
0.197262108

$$$$
