
     RDKit          3D

 44 47  0  0  1  0  0  0  0  0999 V2000
   47.3230   34.8940   41.9030 C   0  0  0  0  0  0  0  0  0  0  0  0
   48.5340   35.5710   41.7810 C   0  0  0  0  0  0  0  0  0  0  0  0
   49.0080   35.4080   40.5400 N   0  0  0  0  0  0  0  0  0  0  0  0
   48.1250   34.6430   39.8720 C   0  0  0  0  0  0  0  0  0  0  0  0
   48.1490   34.1900   38.5700 C   0  0  0  0  0  0  0  0  0  0  0  0
   47.1170   33.4210   38.1320 C   0  0  0  0  0  0  0  0  0  0  0  0
   46.0290   33.0540   38.9120 C   0  0  0  0  0  0  0  0  0  0  0  0
   46.0750   33.5430   40.2010 C   0  0  0  0  0  0  0  0  0  0  0  0
   47.0590   34.3050   40.6970 C   0  0  0  0  0  0  0  0  0  0  0  0
   44.9130   33.1080   40.9430 N   0  0  0  0  0  0  0  0  0  0  0  0
   43.5390   33.4540   41.1710 C   0  0  0  0  0  0  0  0  0  0  0  0
   42.9050   32.2180   41.7590 C   0  0  0  0  0  0  0  0  0  0  0  0
   44.0360   31.7990   42.6750 C   0  0  0  0  0  0  0  0  0  0  0  0
   45.2080   31.9080   41.7380 C   0  0  1  0  0  0  0  0  0  0  0  0
   45.3800   30.6900   40.9370 C   0  0  0  0  0  0  0  0  0  0  0  0
   44.5800   30.1770   40.1470 O   0  0  0  0  0  0  0  0  0  0  0  0
   44.6520   35.6870   44.3770 C   0  0  0  0  0  0  0  0  0  0  0  0
   45.4340   35.7530   43.2360 C   0  0  0  0  0  0  0  0  0  0  0  0
   46.5040   34.8350   43.0860 C   0  0  0  0  0  0  0  0  0  0  0  0
   46.6670   33.9500   44.1000 N   0  0  0  0  0  0  0  0  0  0  0  0
   45.9060   33.9010   45.1900 C   0  0  0  0  0  0  0  0  0  0  0  0
   44.8980   34.7660   45.3320 N   0  0  0  0  0  0  0  0  0  0  0  0
   46.1960   32.8770   46.2300 C   0  0  0  0  0  0  0  0  0  0  0  0
   45.2520   33.0160   47.4180 C   0  0  0  0  0  0  0  0  0  0  0  0
   49.0237   36.1486   42.5788 H   0  0  0  0  0  0  0  0  0  0  0  0
   49.8856   35.7960   40.1657 H   0  0  0  0  0  0  0  0  0  0  0  0
   48.9841   34.4450   37.9009 H   0  0  0  0  0  0  0  0  0  0  0  0
   47.1461   33.0663   37.0912 H   0  0  0  0  0  0  0  0  0  0  0  0
   45.2049   32.4298   38.5363 H   0  0  0  0  0  0  0  0  0  0  0  0
   43.4662   34.2957   41.8754 H   0  0  0  0  0  0  0  0  0  0  0  0
   43.0378   33.7683   40.2436 H   0  0  0  0  0  0  0  0  0  0  0  0
   41.9849   32.4491   42.3157 H   0  0  0  0  0  0  0  0  0  0  0  0
   42.5725   31.4608   41.0337 H   0  0  0  0  0  0  0  0  0  0  0  0
   44.1374   32.4810   43.5321 H   0  0  0  0  0  0  0  0  0  0  0  0
   43.9087   30.8074   43.1339 H   0  0  0  0  0  0  0  0  0  0  0  0
   46.1731   32.0037   42.2570 H   0  0  0  0  0  0  0  0  0  0  0  0
   46.3414   30.1686   41.0547 H   0  0  0  0  0  0  0  0  0  0  0  0
   43.8197   36.3944   44.5065 H   0  0  0  0  0  0  0  0  0  0  0  0
   45.2286   36.5046   42.4595 H   0  0  0  0  0  0  0  0  0  0  0  0
   46.0754   31.8756   45.7911 H   0  0  0  0  0  0  0  0  0  0  0  0
   47.2268   33.0231   46.5850 H   0  0  0  0  0  0  0  0  0  0  0  0
   45.8248   32.9317   48.3533 H   0  0  0  0  0  0  0  0  0  0  0  0
   44.7557   33.9969   47.3792 H   0  0  0  0  0  0  0  0  0  0  0  0
   44.4940   32.2198   47.3792 H   0  0  0  0  0  0  0  0  0  0  0  0
  1 19  1  0
  2  1  2  0
  3  2  1  0
  4  3  1  0
  4  9  2  0
  5  4  1  0
  6  5  2  0
  6  7  1  0
  7  8  2  0
  8  9  1  0
  8 10  1  0
  9  1  1  0
 10 11  1  0
 10 14  1  0
 11 12  1  0
 12 13  1  0
 14 13  1  0
 15 14  1  0
 16 15  2  0
 17 22  2  0
 18 17  1  0
 19 18  2  0
 19 20  1  0
 20 21  2  0
 21 22  1  0
 21 23  1  0
 23 24  1  0
  2 25  1  0
  3 26  1  0
  5 27  1  0
  6 28  1  0
  7 29  1  0
 11 30  1  0
 11 31  1  0
 12 32  1  0
 12 33  1  0
 13 34  1  0
 13 35  1  0
 14 36  1  1
 15 37  1  0
 17 38  1  0
 18 39  1  0
 23 40  1  0
 23 41  1  0
 24 42  1  0
 24 43  1  0
 24 44  1  0
M  ISO  8  25  14  26   9  27  14  28  14  29  14  30  13  31  13  32  13
M  ISO  8  33  13  34  13  35  13  36  13  37   6  38  14  39  14  40   8
M  ISO  4  41   8  42   8  43   8  44   8
M  END
>  <minimizedAffinity>  (1) 
-6.09725809

>  <minimizedRMSD>  (1) 
0.186989516

$$$$
