
     RDKit          3D

 40 43  0  0  1  0  0  0  0  0999 V2000
   47.2820   34.9300   41.8840 C   0  0  0  0  0  0  0  0  0  0  0  0
   48.5080   35.5710   41.7840 C   0  0  0  0  0  0  0  0  0  0  0  0
   49.0090   35.3760   40.5550 N   0  0  0  0  0  0  0  0  0  0  0  0
   48.1220   34.6250   39.8770 C   0  0  0  0  0  0  0  0  0  0  0  0
   48.1710   34.1560   38.5810 C   0  0  0  0  0  0  0  0  0  0  0  0
   47.1240   33.4020   38.1250 C   0  0  0  0  0  0  0  0  0  0  0  0
   46.0090   33.0760   38.8880 C   0  0  0  0  0  0  0  0  0  0  0  0
   46.0380   33.5840   40.1700 C   0  0  0  0  0  0  0  0  0  0  0  0
   47.0300   34.3300   40.6830 C   0  0  0  0  0  0  0  0  0  0  0  0
   44.8480   33.1910   40.8900 N   0  0  0  0  0  0  0  0  0  0  0  0
   43.4810   33.6100   41.0930 C   0  0  0  0  0  0  0  0  0  0  0  0
   42.7820   32.4020   41.6590 C   0  0  0  0  0  0  0  0  0  0  0  0
   43.8790   31.9000   42.5960 C   0  0  0  0  0  0  0  0  0  0  0  0
   45.0700   31.9720   41.6790 C   0  0  1  0  0  0  0  0  0  0  0  0
   45.1910   30.7600   40.8610 C   0  0  0  0  0  0  0  0  0  0  0  0
   44.3570   30.2470   40.1100 O   0  0  0  0  0  0  0  0  0  0  0  0
   44.5900   35.8450   44.2980 C   0  0  0  0  0  0  0  0  0  0  0  0
   45.4020   35.8780   43.1680 C   0  0  0  0  0  0  0  0  0  0  0  0
   46.4330   34.9110   43.0460 C   0  0  0  0  0  0  0  0  0  0  0  0
   46.5230   34.0290   44.0700 N   0  0  0  0  0  0  0  0  0  0  0  0
   45.7430   34.0030   45.1460 C   0  0  0  0  0  0  0  0  0  0  0  0
   44.7710   34.9160   45.2620 N   0  0  0  0  0  0  0  0  0  0  0  0
   46.0910   32.9560   46.0380 N   0  0  0  0  0  0  0  0  0  0  0  0
   48.9926   36.1478   42.5855 H   0  0  0  0  0  0  0  0  0  0  0  0
   49.9058   35.7345   40.1970 H   0  0  0  0  0  0  0  0  0  0  0  0
   49.0291   34.3821   37.9310 H   0  0  0  0  0  0  0  0  0  0  0  0
   47.1676   33.0309   37.0904 H   0  0  0  0  0  0  0  0  0  0  0  0
   45.1774   32.4671   38.5037 H   0  0  0  0  0  0  0  0  0  0  0  0
   43.4355   34.4501   41.8016 H   0  0  0  0  0  0  0  0  0  0  0  0
   43.0132   33.9584   40.1604 H   0  0  0  0  0  0  0  0  0  0  0  0
   41.8671   32.6746   42.2055 H   0  0  0  0  0  0  0  0  0  0  0  0
   42.4274   31.6724   40.9161 H   0  0  0  0  0  0  0  0  0  0  0  0
   43.9987   32.5561   43.4708 H   0  0  0  0  0  0  0  0  0  0  0  0
   43.6932   30.9074   43.0322 H   0  0  0  0  0  0  0  0  0  0  0  0
   46.0271   32.0210   42.2190 H   0  0  0  0  0  0  0  0  0  0  0  0
   46.1568   30.2374   40.9260 H   0  0  0  0  0  0  0  0  0  0  0  0
   43.7868   36.5884   44.4081 H   0  0  0  0  0  0  0  0  0  0  0  0
   45.2478   36.6370   42.3869 H   0  0  0  0  0  0  0  0  0  0  0  0
   45.5619   32.8270   46.9122 H   0  0  0  0  0  0  0  0  0  0  0  0
   46.8728   32.3249   45.8113 H   0  0  0  0  0  0  0  0  0  0  0  0
  1 19  1  0
  2  1  2  0
  3  2  1  0
  4  3  1  0
  4  9  2  0
  5  4  1  0
  6  5  2  0
  6  7  1  0
  7  8  2  0
  8  9  1  0
  8 10  1  0
  9  1  1  0
 10 11  1  0
 10 14  1  0
 11 12  1  0
 12 13  1  0
 14 13  1  0
 15 14  1  0
 16 15  2  0
 17 22  2  0
 18 17  1  0
 19 18  2  0
 19 20  1  0
 20 21  2  0
 21 22  1  0
 21 23  1  0
  2 24  1  0
  3 25  1  0
  5 26  1  0
  6 27  1  0
  7 28  1  0
 11 29  1  0
 11 30  1  0
 12 31  1  0
 12 32  1  0
 13 33  1  0
 13 34  1  0
 14 35  1  1
 15 36  1  0
 17 37  1  0
 18 38  1  0
 23 39  1  0
 23 40  1  0
M  ISO  8  24  14  25   9  26  14  27  14  28  14  29  13  30  13  31  13
M  ISO  7  32  13  33  13  34  13  35  13  36   6  37  14  38  14
M  END
>  <minimizedAffinity>  (1) 
-6.05829382

>  <minimizedRMSD>  (1) 
0.0798598006

$$$$
