
     RDKit          3D

 39 42  0  0  1  0  0  0  0  0999 V2000
   47.2840   34.9290   41.8870 C   0  0  0  0  0  0  0  0  0  0  0  0
   48.5140   35.5720   41.7830 C   0  0  0  0  0  0  0  0  0  0  0  0
   49.0060   35.3720   40.5530 N   0  0  0  0  0  0  0  0  0  0  0  0
   48.1200   34.6220   39.8790 C   0  0  0  0  0  0  0  0  0  0  0  0
   48.1640   34.1540   38.5880 C   0  0  0  0  0  0  0  0  0  0  0  0
   47.1280   33.4040   38.1290 C   0  0  0  0  0  0  0  0  0  0  0  0
   46.0040   33.0730   38.8940 C   0  0  0  0  0  0  0  0  0  0  0  0
   46.0320   33.5820   40.1860 C   0  0  0  0  0  0  0  0  0  0  0  0
   47.0240   34.3240   40.6860 C   0  0  0  0  0  0  0  0  0  0  0  0
   44.8500   33.1830   40.9000 N   0  0  0  0  0  0  0  0  0  0  0  0
   43.4840   33.5710   41.1130 C   0  0  0  0  0  0  0  0  0  0  0  0
   42.8060   32.3550   41.6890 C   0  0  0  0  0  0  0  0  0  0  0  0
   43.9150   31.8720   42.6160 C   0  0  0  0  0  0  0  0  0  0  0  0
   45.0930   31.9610   41.6860 C   0  0  1  0  0  0  0  0  0  0  0  0
   45.2500   30.7470   40.8750 C   0  0  0  0  0  0  0  0  0  0  0  0
   44.4110   30.2130   40.1470 O   0  0  0  0  0  0  0  0  0  0  0  0
   44.5900   35.8290   44.3090 C   0  0  0  0  0  0  0  0  0  0  0  0
   45.3970   35.8700   43.1750 C   0  0  0  0  0  0  0  0  0  0  0  0
   46.4350   34.9120   43.0480 C   0  0  0  0  0  0  0  0  0  0  0  0
   46.5450   34.0270   44.0670 N   0  0  0  0  0  0  0  0  0  0  0  0
   45.7650   34.0020   45.1440 C   0  0  0  0  0  0  0  0  0  0  0  0
   44.7860   34.9020   45.2700 N   0  0  0  0  0  0  0  0  0  0  0  0
   46.0900   33.0020   46.0270 O   0  0  0  0  0  0  0  0  0  0  0  0
   49.0027   36.1503   42.5809 H   0  0  0  0  0  0  0  0  0  0  0  0
   49.9015   35.7290   40.1904 H   0  0  0  0  0  0  0  0  0  0  0  0
   49.0217   34.3821   37.9382 H   0  0  0  0  0  0  0  0  0  0  0  0
   47.1758   33.0349   37.0939 H   0  0  0  0  0  0  0  0  0  0  0  0
   45.1733   32.4646   38.5071 H   0  0  0  0  0  0  0  0  0  0  0  0
   43.4289   34.4127   41.8191 H   0  0  0  0  0  0  0  0  0  0  0  0
   43.0037   33.9032   40.1808 H   0  0  0  0  0  0  0  0  0  0  0  0
   41.8922   32.6170   42.2424 H   0  0  0  0  0  0  0  0  0  0  0  0
   42.4550   31.6183   40.9514 H   0  0  0  0  0  0  0  0  0  0  0  0
   44.0334   32.5314   43.4884 H   0  0  0  0  0  0  0  0  0  0  0  0
   43.7485   30.8784   43.0577 H   0  0  0  0  0  0  0  0  0  0  0  0
   46.0530   32.0254   42.2191 H   0  0  0  0  0  0  0  0  0  0  0  0
   46.2331   30.2559   40.9229 H   0  0  0  0  0  0  0  0  0  0  0  0
   43.7797   36.5640   44.4234 H   0  0  0  0  0  0  0  0  0  0  0  0
   45.2331   36.6284   42.3952 H   0  0  0  0  0  0  0  0  0  0  0  0
   45.5723   32.8929   46.8638 H   0  0  0  0  0  0  0  0  0  0  0  0
  1 19  1  0
  2  1  2  0
  3  2  1  0
  4  3  1  0
  4  9  2  0
  5  4  1  0
  6  5  2  0
  6  7  1  0
  7  8  2  0
  8  9  1  0
  8 10  1  0
  9  1  1  0
 10 11  1  0
 10 14  1  0
 11 12  1  0
 12 13  1  0
 14 13  1  0
 15 14  1  0
 16 15  2  0
 17 22  2  0
 18 17  1  0
 19 18  2  0
 19 20  1  0
 20 21  2  0
 21 22  1  0
 21 23  1  0
  2 24  1  0
  3 25  1  0
  5 26  1  0
  6 27  1  0
  7 28  1  0
 11 29  1  0
 11 30  1  0
 12 31  1  0
 12 32  1  0
 13 33  1  0
 13 34  1  0
 14 35  1  1
 15 36  1  0
 17 37  1  0
 18 38  1  0
 23 39  1  0
M  ISO  8  24  14  25   9  26  14  27  14  28  14  29  13  30  13  31  13
M  ISO  8  32  13  33  13  34  13  35  13  36   6  37  14  38  14  39   3
M  END
>  <minimizedAffinity>  (1) 
-6.03752327

>  <minimizedRMSD>  (1) 
0.056910526

$$$$
