
     RDKit          3D

 24 25  0  0  1  0  0  0  0  0999 V2000
   46.4140   35.2590   42.1810 C   0  0  2  0  0  0  0  0  0  0  0  0
   45.2190   35.1430   44.3100 C   0  0  0  0  0  0  0  0  0  0  0  0
   46.2240   34.6400   43.4810 C   0  0  0  0  0  0  0  0  0  0  0  0
   46.9650   33.5720   43.9750 C   0  0  0  0  0  0  0  0  0  0  0  0
   46.6560   33.1020   45.2180 N   0  0  0  0  0  0  0  0  0  0  0  0
   45.6830   33.6140   45.9780 C   0  0  0  0  0  0  0  0  0  0  0  0
   44.9680   34.6340   45.5190 N   0  0  0  0  0  0  0  0  0  0  0  0
   45.6500   34.4990   41.1620 C   0  0  0  0  0  0  0  0  0  0  0  0
   44.2850   34.6560   40.9770 C   0  0  0  0  0  0  0  0  0  0  0  0
   43.7000   33.8980   40.0070 C   0  0  0  0  0  0  0  0  0  0  0  0
   44.3780   33.0250   39.2390 N   0  0  0  0  0  0  0  0  0  0  0  0
   45.6890   32.8800   39.4240 C   0  0  0  0  0  0  0  0  0  0  0  0
   46.3000   33.6140   40.3760 N   0  0  0  0  0  0  0  0  0  0  0  0
   47.8790   35.1480   41.8250 C   0  0  0  0  0  0  0  0  0  0  0  0
   46.0795   36.3065   42.2094 H   0  0  0  0  0  0  0  0  0  0  0  0
   44.6123   35.9889   43.9544 H   0  0  0  0  0  0  0  0  0  0  0  0
   47.7744   33.1205   43.3825 H   0  0  0  0  0  0  0  0  0  0  0  0
   45.4768   33.1944   46.9737 H   0  0  0  0  0  0  0  0  0  0  0  0
   43.7001   35.3610   41.5860 H   0  0  0  0  0  0  0  0  0  0  0  0
   42.6176   34.0053   39.8433 H   0  0  0  0  0  0  0  0  0  0  0  0
   46.2646   32.1722   38.8095 H   0  0  0  0  0  0  0  0  0  0  0  0
   48.4779   35.1026   42.7466 H   0  0  0  0  0  0  0  0  0  0  0  0
   48.0447   34.2347   41.2347 H   0  0  0  0  0  0  0  0  0  0  0  0
   48.1804   36.0259   41.2347 H   0  0  0  0  0  0  0  0  0  0  0  0
  1  3  1  0
  2  7  2  0
  3  4  2  0
  3  2  1  0
  4  5  1  0
  5  6  2  0
  7  6  1  0
  8  1  1  0
  9  8  2  0
 10  9  1  0
 11 12  1  0
 11 10  2  0
 12 13  2  0
 13  8  1  0
 14  1  1  0
  1 15  1  1
  2 16  1  0
  4 17  1  0
  6 18  1  0
  9 19  1  0
 10 20  1  0
 12 21  1  0
 14 22  1  0
 14 23  1  0
 14 24  1  0
M  ISO  8  15   8  16  14  17  14  18  14  19  14  20  14  21  14  22   8
M  ISO  2  23   8  24   8
M  END
>  <minimizedAffinity>  (1) 
-4.05978584

>  <minimizedRMSD>  (1) 
0.784459591

$$$$
