
     RDKit          3D

 29 30  0  0  1  0  0  0  0  0999 V2000
   47.9590   35.0010   41.6730 C   0  0  2  0  0  0  0  0  0  0  0  0
   45.8620   35.5190   42.8600 C   0  0  0  0  0  0  0  0  0  0  0  0
   47.0460   34.7650   42.7630 C   0  0  0  0  0  0  0  0  0  0  0  0
   47.2630   33.8180   43.7570 C   0  0  0  0  0  0  0  0  0  0  0  0
   46.3500   33.6680   44.7480 N   0  0  0  0  0  0  0  0  0  0  0  0
   45.2190   34.4190   44.8000 C   0  0  0  0  0  0  0  0  0  0  0  0
   44.9790   35.3480   43.8490 N   0  0  0  0  0  0  0  0  0  0  0  0
   47.9180   33.9350   40.6050 C   0  0  0  0  0  0  0  0  0  0  0  0
   48.1190   34.4290   39.2120 C   0  0  0  0  0  0  0  0  0  0  0  0
   48.1150   33.0800   38.4750 C   0  0  0  0  0  0  0  0  0  0  0  0
   49.1040   32.3240   39.3370 C   0  0  0  0  0  0  0  0  0  0  0  0
   48.9810   32.9080   40.7500 C   0  0  0  0  0  0  0  0  0  0  0  0
   49.3500   35.1830   42.2090 C   0  0  0  0  0  0  0  0  0  0  0  0
   47.6314   35.9243   41.1728 H   0  0  0  0  0  0  0  0  0  0  0  0
   45.6549   36.2788   42.0920 H   0  0  0  0  0  0  0  0  0  0  0  0
   48.1691   33.1946   43.7397 H   0  0  0  0  0  0  0  0  0  0  0  0
   44.4979   34.2704   45.6173 H   0  0  0  0  0  0  0  0  0  0  0  0
   46.9040   33.5354   40.7538 H   0  0  0  0  0  0  0  0  0  0  0  0
   47.2965   35.0811   38.8830 H   0  0  0  0  0  0  0  0  0  0  0  0
   49.0127   35.0509   39.0551 H   0  0  0  0  0  0  0  0  0  0  0  0
   47.1203   32.6105   38.4831 H   0  0  0  0  0  0  0  0  0  0  0  0
   48.3667   33.1291   37.4053 H   0  0  0  0  0  0  0  0  0  0  0  0
   48.8592   31.2516   39.3458 H   0  0  0  0  0  0  0  0  0  0  0  0
   50.1290   32.4257   38.9510 H   0  0  0  0  0  0  0  0  0  0  0  0
   49.9287   33.3647   41.0713 H   0  0  0  0  0  0  0  0  0  0  0  0
   48.7446   32.1488   41.5101 H   0  0  0  0  0  0  0  0  0  0  0  0
   49.3226   35.1794   43.3087 H   0  0  0  0  0  0  0  0  0  0  0  0
   49.9897   34.3609   41.8555 H   0  0  0  0  0  0  0  0  0  0  0  0
   49.7566   36.1420   41.8555 H   0  0  0  0  0  0  0  0  0  0  0  0
  1 13  1  0
  1  3  1  0
  2  7  2  0
  3  2  1  0
  3  4  2  0
  4  5  1  0
  5  6  2  0
  7  6  1  0
  8 12  1  0
  8  1  1  0
  9  8  1  0
 10  9  1  0
 10 11  1  0
 11 12  1  0
  1 14  1  6
  2 15  1  0
  4 16  1  0
  6 17  1  0
  8 18  1  0
  9 19  1  0
  9 20  1  0
 10 21  1  0
 10 22  1  0
 11 23  1  0
 11 24  1  0
 12 25  1  0
 12 26  1  0
 13 27  1  0
 13 28  1  0
 13 29  1  0
M  ISO  8  14   8  15  14  16  14  17  14  18  13  19  13  20  13  21  13
M  ISO  8  22  13  23  13  24  13  25  13  26  13  27   8  28   8  29   8
M  END
>  <minimizedAffinity>  (1) 
-4.1858573

>  <minimizedRMSD>  (1) 
1.73387337

$$$$
