
     RDKit          3D

 24 25  0  0  1  0  0  0  0  0999 V2000
   46.7350   33.0270   42.9430 C   0  0  1  0  0  0  0  0  0  0  0  0
   45.2950   34.8860   43.4590 C   0  0  0  0  0  0  0  0  0  0  0  0
   46.0110   33.7670   43.9480 C   0  0  0  0  0  0  0  0  0  0  0  0
   45.9200   33.5220   45.3110 C   0  0  0  0  0  0  0  0  0  0  0  0
   45.1660   34.3610   46.0450 N   0  0  0  0  0  0  0  0  0  0  0  0
   44.4990   35.4120   45.5690 C   0  0  0  0  0  0  0  0  0  0  0  0
   44.5550   35.6870   44.2720 N   0  0  0  0  0  0  0  0  0  0  0  0
   47.5090   33.9370   42.0660 C   0  0  0  0  0  0  0  0  0  0  0  0
   47.3960   33.9230   40.6750 C   0  0  0  0  0  0  0  0  0  0  0  0
   48.1280   34.7840   39.8720 C   0  0  0  0  0  0  0  0  0  0  0  0
   48.9910   35.6810   40.4250 N   0  0  0  0  0  0  0  0  0  0  0  0
   49.0900   35.6830   41.7650 C   0  0  0  0  0  0  0  0  0  0  0  0
   48.3880   34.8560   42.5620 N   0  0  0  0  0  0  0  0  0  0  0  0
   47.6690   32.0770   43.6900 C   0  0  0  0  0  0  0  0  0  0  0  0
   46.0422   32.4735   42.2921 H   0  0  0  0  0  0  0  0  0  0  0  0
   45.3386   35.1157   42.3841 H   0  0  0  0  0  0  0  0  0  0  0  0
   46.4447   32.6734   45.7742 H   0  0  0  0  0  0  0  0  0  0  0  0
   43.9071   36.0461   46.2454 H   0  0  0  0  0  0  0  0  0  0  0  0
   46.7063   33.2083   40.2022 H   0  0  0  0  0  0  0  0  0  0  0  0
   48.0109   34.7424   38.7790 H   0  0  0  0  0  0  0  0  0  0  0  0
   49.7810   36.3980   42.2354 H   0  0  0  0  0  0  0  0  0  0  0  0
   47.5376   32.2106   44.7739 H   0  0  0  0  0  0  0  0  0  0  0  0
   47.4306   31.0384   43.4170 H   0  0  0  0  0  0  0  0  0  0  0  0
   48.7115   32.2978   43.4170 H   0  0  0  0  0  0  0  0  0  0  0  0
  1 14  1  0
  1  3  1  0
  2  3  2  0
  2  7  1  0
  3  4  1  0
  4  5  2  0
  6  5  1  0
  7  6  2  0
  8 13  1  0
  8  1  1  0
  9  8  2  0
 10 11  2  0
 10  9  1  0
 11 12  1  0
 12 13  2  0
  1 15  1  6
  2 16  1  0
  4 17  1  0
  6 18  1  0
  9 19  1  0
 10 20  1  0
 12 21  1  0
 14 22  1  0
 14 23  1  0
 14 24  1  0
M  ISO  8  15   8  16  14  17  14  18  14  19  14  20  14  21  14  22   8
M  ISO  2  23   8  24   8
M  END
>  <minimizedAffinity>  (1) 
-4.01634359

>  <minimizedRMSD>  (1) 
3.15898371

$$$$
