
     RDKit          3D

 23 24  0  0  1  0  0  0  0  0999 V2000
   48.0000   35.1930   41.6090 C   0  0  2  0  0  0  0  0  0  0  0  0
   45.9310   35.4040   42.8290 C   0  0  0  0  0  0  0  0  0  0  0  0
   47.1720   34.7780   42.7100 C   0  0  0  0  0  0  0  0  0  0  0  0
   47.4900   33.8100   43.6530 C   0  0  0  0  0  0  0  0  0  0  0  0
   46.5650   33.5490   44.6210 N   0  0  0  0  0  0  0  0  0  0  0  0
   45.3860   34.1670   44.7030 C   0  0  0  0  0  0  0  0  0  0  0  0
   45.0470   35.1000   43.8170 N   0  0  0  0  0  0  0  0  0  0  0  0
   47.9730   34.0790   40.6000 C   0  0  0  0  0  0  0  0  0  0  0  0
   47.0510   33.7630   39.6240 C   0  0  0  0  0  0  0  0  0  0  0  0
   47.4650   32.6470   38.9460 C   0  0  0  0  0  0  0  0  0  0  0  0
   48.6410   32.2920   39.5180 N   0  0  0  0  0  0  0  0  0  0  0  0
   48.9480   33.1320   40.4940 N   0  0  0  0  0  0  0  0  0  0  0  0
   49.4200   35.3390   42.1050 C   0  0  0  0  0  0  0  0  0  0  0  0
   47.6477   36.1423   41.1793 H   0  0  0  0  0  0  0  0  0  0  0  0
   45.6562   36.1748   42.0939 H   0  0  0  0  0  0  0  0  0  0  0  0
   48.4503   33.2745   43.6208 H   0  0  0  0  0  0  0  0  0  0  0  0
   44.6874   33.9029   45.5106 H   0  0  0  0  0  0  0  0  0  0  0  0
   46.1253   34.3215   39.4212 H   0  0  0  0  0  0  0  0  0  0  0  0
   46.9512   32.1449   38.1130 H   0  0  0  0  0  0  0  0  0  0  0  0
   49.2138   31.4844   39.2341 H   0  0  0  0  0  0  0  0  0  0  0  0
   49.4259   35.3396   43.2050 H   0  0  0  0  0  0  0  0  0  0  0  0
   50.0257   34.4984   41.7355 H   0  0  0  0  0  0  0  0  0  0  0  0
   49.8420   36.2853   41.7355 H   0  0  0  0  0  0  0  0  0  0  0  0
  1 13  1  0
  1  3  1  0
  2  7  2  0
  3  2  1  0
  3  4  2  0
  4  5  1  0
  5  6  2  0
  7  6  1  0
  8  1  1  0
  9  8  1  0
 10 11  1  0
 10  9  2  0
 11 12  1  0
 12  8  2  0
  1 14  1  6
  2 15  1  0
  4 16  1  0
  6 17  1  0
  9 18  1  0
 10 19  1  0
 11 20  1  0
 13 21  1  0
 13 22  1  0
 13 23  1  0
M  ISO  8  14   8  15  14  16  14  17  14  18  14  19  14  20   9  21   8
M  ISO  2  22   8  23   8
M  END
>  <minimizedAffinity>  (1) 
-3.9520371

>  <minimizedRMSD>  (1) 
1.81530488

$$$$
