
     RDKit          3D

 17 17  0  0  1  0  0  0  0  0999 V2000
   45.1870   35.2550   44.0730 C   0  0  0  0  0  0  0  0  0  0  0  0
   46.2440   34.6590   43.3700 C   0  0  0  0  0  0  0  0  0  0  0  0
   46.9300   33.6360   44.0100 C   0  0  0  0  0  0  0  0  0  0  0  0
   46.5570   33.2540   45.2800 N   0  0  0  0  0  0  0  0  0  0  0  0
   45.5220   33.8730   45.9060 C   0  0  0  0  0  0  0  0  0  0  0  0
   44.8460   34.8650   45.3040 N   0  0  0  0  0  0  0  0  0  0  0  0
   46.5960   35.0810   42.0410 C   0  0  1  0  0  0  0  0  0  0  0  0
   48.0920   35.1660   41.8900 C   0  0  0  0  0  0  0  0  0  0  0  0
   45.9130   33.8910   40.8470 S   0  0  0  0  0  0  0  0  0  0  0  0
   44.6213   36.0688   43.5958 H   0  0  0  0  0  0  0  0  0  0  0  0
   47.7678   33.1325   43.5054 H   0  0  0  0  0  0  0  0  0  0  0  0
   45.2339   33.5573   46.9196 H   0  0  0  0  0  0  0  0  0  0  0  0
   46.1775   36.0808   41.8532 H   0  0  0  0  0  0  0  0  0  0  0  0
   48.5600   35.1926   42.8851 H   0  0  0  0  0  0  0  0  0  0  0  0
   48.4553   34.2870   41.3373 H   0  0  0  0  0  0  0  0  0  0  0  0
   48.3534   36.0804   41.3373 H   0  0  0  0  0  0  0  0  0  0  0  0
   45.3194   32.8568   41.5216 H   0  0  0  0  0  0  0  0  0  0  0  0
  1  6  2  0
  2  3  2  0
  2  1  1  0
  3  4  1  0
  4  5  2  0
  6  5  1  0
  7  2  1  0
  8  7  1  0
  9  7  1  0
  1 10  1  0
  3 11  1  0
  5 12  1  0
  7 13  1  6
  8 14  1  0
  8 15  1  0
  8 16  1  0
  9 17  1  0
M  ISO  8  10  14  11  14  12  14  13   8  14   8  15   8  16   8  17  11
M  END
>  <minimizedAffinity>  (1) 
-3.19291639

>  <minimizedRMSD>  (1) 
0.0973965228

$$$$
