
     RDKit          3D

 23 24  0  0  1  0  0  0  0  0999 V2000
   46.1000   32.1390   45.0130 C   0  0  1  0  0  0  0  0  0  0  0  0
   45.4650   30.8800   46.9670 C   0  0  0  0  0  0  0  0  0  0  0  0
   46.3020   31.8660   46.4400 C   0  0  0  0  0  0  0  0  0  0  0  0
   47.2120   32.4630   47.3070 C   0  0  0  0  0  0  0  0  0  0  0  0
   47.2170   32.0420   48.5860 N   0  0  0  0  0  0  0  0  0  0  0  0
   46.4140   31.1000   49.0800 C   0  0  0  0  0  0  0  0  0  0  0  0
   45.5360   30.5140   48.2760 N   0  0  0  0  0  0  0  0  0  0  0  0
   45.5900   33.5120   44.8250 C   0  0  0  0  0  0  0  0  0  0  0  0
   44.9970   34.3660   45.7600 C   0  0  0  0  0  0  0  0  0  0  0  0
   44.6060   35.5960   45.3440 C   0  0  0  0  0  0  0  0  0  0  0  0
   44.8210   35.9390   43.9920 C   0  0  0  0  0  0  0  0  0  0  0  0
   45.6140   34.4440   43.2890 S   0  0  0  0  0  0  0  0  0  0  0  0
   47.5100   32.1650   44.3970 C   0  0  0  0  0  0  0  0  0  0  0  0
   45.4107   31.3992   44.5799 H   0  0  0  0  0  0  0  0  0  0  0  0
   44.7325   30.3885   46.3099 H   0  0  0  0  0  0  0  0  0  0  0  0
   47.9004   33.2482   46.9611 H   0  0  0  0  0  0  0  0  0  0  0  0
   46.4782   30.8122   50.1397 H   0  0  0  0  0  0  0  0  0  0  0  0
   44.8518   34.0491   46.8033 H   0  0  0  0  0  0  0  0  0  0  0  0
   44.1350   36.3057   46.0400 H   0  0  0  0  0  0  0  0  0  0  0  0
   44.5716   36.8807   43.4812 H   0  0  0  0  0  0  0  0  0  0  0  0
   48.2610   32.1788   45.2006 H   0  0  0  0  0  0  0  0  0  0  0  0
   47.6550   31.2694   43.7750 H   0  0  0  0  0  0  0  0  0  0  0  0
   47.6219   33.0654   43.7750 H   0  0  0  0  0  0  0  0  0  0  0  0
  1  3  1  0
  2  7  2  0
  3  2  1  0
  3  4  2  0
  4  5  1  0
  5  6  2  0
  7  6  1  0
  8  1  1  0
  8  9  2  0
 10  9  1  0
 11 10  2  0
 12 11  1  0
 12  8  1  0
 13  1  1  0
  1 14  1  6
  2 15  1  0
  4 16  1  0
  6 17  1  0
  9 18  1  0
 10 19  1  0
 11 20  1  0
 13 21  1  0
 13 22  1  0
 13 23  1  0
M  ISO  8  14   8  15  14  16  14  17  14  18  14  19  14  20  14  21   8
M  ISO  2  22   8  23   8
M  END
>  <minimizedAffinity>  (1) 
-3.80838323

>  <minimizedRMSD>  (1) 
4.35318661

$$$$
