
     RDKit          3D

 30 31  0  0  1  0  0  0  0  0999 V2000
   46.7160   33.0240   43.9510 C   0  0  1  0  0  0  0  0  0  0  0  0
   48.6620   31.9770   42.9260 C   0  0  0  0  0  0  0  0  0  0  0  0
   48.0380   33.1730   43.3180 C   0  0  0  0  0  0  0  0  0  0  0  0
   48.6940   34.3660   43.0890 C   0  0  0  0  0  0  0  0  0  0  0  0
   49.9000   34.3020   42.5000 N   0  0  0  0  0  0  0  0  0  0  0  0
   50.4890   33.1610   42.1300 C   0  0  0  0  0  0  0  0  0  0  0  0
   49.8870   32.0070   42.3360 N   0  0  0  0  0  0  0  0  0  0  0  0
   46.8880   32.4730   45.3040 C   0  0  0  0  0  0  0  0  0  0  0  0
   46.9620   31.1590   45.7740 C   0  0  0  0  0  0  0  0  0  0  0  0
   47.1150   31.2060   47.1350 N   0  0  0  0  0  0  0  0  0  0  0  0
   47.1390   32.4910   47.5200 C   0  0  0  0  0  0  0  0  0  0  0  0
   47.0020   33.2450   46.4160 N   0  0  0  0  0  0  0  0  0  0  0  0
   46.0760   34.3790   44.0060 C   0  0  0  0  0  0  0  0  0  0  0  0
   44.6410   34.3260   43.7940 N   0  0  0  0  0  0  0  0  0  0  0  0
   44.1080   35.5800   43.3240 C   0  0  0  0  0  0  0  0  0  0  0  0
   44.7900   36.6850   43.2730 N   0  0  0  0  0  0  0  0  0  0  0  0
   42.7350   35.5990   42.8850 N   0  0  0  0  0  0  0  0  0  0  0  0
   44.3680   37.5530   42.9300 H   0  0  0  0  0  0  0  0  0  0  0  0
   46.0761   32.3376   43.3771 H   0  0  0  0  0  0  0  0  0  0  0  0
   48.1586   31.0139   43.0967 H   0  0  0  0  0  0  0  0  0  0  0  0
   48.2477   35.3293   43.3769 H   0  0  0  0  0  0  0  0  0  0  0  0
   51.4794   33.1851   41.6520 H   0  0  0  0  0  0  0  0  0  0  0  0
   46.9071   30.2480   45.1600 H   0  0  0  0  0  0  0  0  0  0  0  0
   47.2504   32.8598   48.5503 H   0  0  0  0  0  0  0  0  0  0  0  0
   46.9856   34.2749   46.4133 H   0  0  0  0  0  0  0  0  0  0  0  0
   46.2703   34.8208   44.9944 H   0  0  0  0  0  0  0  0  0  0  0  0
   46.5105   34.9864   43.1984 H   0  0  0  0  0  0  0  0  0  0  0  0
   44.0680   33.4865   43.9607 H   0  0  0  0  0  0  0  0  0  0  0  0
   42.3161   36.4752   42.5419 H   0  0  0  0  0  0  0  0  0  0  0  0
   42.1729   34.7364   42.9144 H   0  0  0  0  0  0  0  0  0  0  0  0
  1 13  1  0
  1  8  1  0
  2  3  2  0
  3  1  1  0
  4  3  1  0
  5  4  2  0
  6  7  2  0
  6  5  1  0
  7  2  1  0
  8  9  2  0
  8 12  1  0
  9 10  1  0
 10 11  2  0
 12 11  1  0
 14 13  1  0
 15 14  1  0
 16 15  2  0
 17 15  1  0
 18 16  1  0
  1 19  1  6
  2 20  1  0
  4 21  1  0
  6 22  1  0
  9 23  1  0
 11 24  1  0
 12 25  1  0
 13 26  1  0
 13 27  1  0
 14 28  1  0
 17 29  1  0
 17 30  1  0
M  ISO  8  19   8  20  14  21  14  22  14  23  14  24  14  25   9  26   8
M  ISO  1  27   8
M  END
>  <minimizedAffinity>  (1) 
-5.02153206

>  <minimizedRMSD>  (1) 
2.3378644

$$$$
