
     RDKit          3D

 34 36  0  0  1  0  0  0  0  0999 V2000
   46.7010   33.0520   43.9440 C   0  0  1  0  0  0  0  0  0  0  0  0
   45.4220   33.7790   42.0050 C   0  0  0  0  0  0  0  0  0  0  0  0
   45.7240   33.9860   43.3520 C   0  0  0  0  0  0  0  0  0  0  0  0
   45.0900   35.0210   44.0070 C   0  0  0  0  0  0  0  0  0  0  0  0
   44.2210   35.7670   43.3060 N   0  0  0  0  0  0  0  0  0  0  0  0
   43.9360   35.5590   42.0070 C   0  0  0  0  0  0  0  0  0  0  0  0
   44.5320   34.5740   41.3620 N   0  0  0  0  0  0  0  0  0  0  0  0
   47.9970   33.2320   43.2890 C   0  0  0  0  0  0  0  0  0  0  0  0
   48.8240   32.3510   42.6030 C   0  0  0  0  0  0  0  0  0  0  0  0
   49.9390   33.0470   42.2040 N   0  0  0  0  0  0  0  0  0  0  0  0
   49.8320   34.3080   42.6140 C   0  0  0  0  0  0  0  0  0  0  0  0
   48.6600   34.3940   43.2610 N   0  0  0  0  0  0  0  0  0  0  0  0
   46.7820   33.3420   45.4160 C   0  0  0  0  0  0  0  0  0  0  0  0
   46.4640   32.2110   46.2630 N   0  0  0  0  0  0  0  0  0  0  0  0
   46.9600   30.9710   46.2830 C   0  0  0  0  0  0  0  0  0  0  0  0
   46.5270   30.0410   47.1860 C   0  0  0  0  0  0  0  0  0  0  0  0
   45.5590   30.3010   48.1330 C   0  0  0  0  0  0  0  0  0  0  0  0
   45.1210   29.3200   49.0640 N   0  0  0  0  0  0  0  0  0  0  0  0
   45.0440   31.5660   48.1230 N   0  0  0  0  0  0  0  0  0  0  0  0
   45.5060   32.4650   47.2030 C   0  0  0  0  0  0  0  0  0  0  0  0
   44.9370   33.6040   47.3100 O   0  0  0  0  0  0  0  0  0  0  0  0
   46.3949   32.0053   43.7997 H   0  0  0  0  0  0  0  0  0  0  0  0
   45.9125   32.9602   41.4582 H   0  0  0  0  0  0  0  0  0  0  0  0
   45.2896   35.2285   45.0686 H   0  0  0  0  0  0  0  0  0  0  0  0
   43.2125   36.2045   41.4876 H   0  0  0  0  0  0  0  0  0  0  0  0
   48.6219   31.2865   42.4133 H   0  0  0  0  0  0  0  0  0  0  0  0
   50.5590   35.1180   42.4544 H   0  0  0  0  0  0  0  0  0  0  0  0
   48.3081   35.2616   43.6903 H   0  0  0  0  0  0  0  0  0  0  0  0
   47.8066   33.6687   45.6472 H   0  0  0  0  0  0  0  0  0  0  0  0
   46.0296   34.1161   45.6272 H   0  0  0  0  0  0  0  0  0  0  0  0
   47.7358   30.6915   45.5550 H   0  0  0  0  0  0  0  0  0  0  0  0
   46.9726   29.0357   47.1559 H   0  0  0  0  0  0  0  0  0  0  0  0
   44.3951   29.5546   49.7560 H   0  0  0  0  0  0  0  0  0  0  0  0
   45.5296   28.3747   49.0465 H   0  0  0  0  0  0  0  0  0  0  0  0
  1 13  1  0
  2  3  2  0
  3  1  1  0
  3  4  1  0
  5  4  2  0
  6  5  1  0
  7  2  1  0
  7  6  2  0
  8  1  1  0
  9  8  2  0
 10  9  1  0
 10 11  2  0
 11 12  1  0
 12  8  1  0
 13 14  1  0
 14 15  1  0
 14 20  1  0
 15 16  2  0
 16 17  1  0
 17 18  1  0
 19 17  2  0
 20 21  2  0
 20 19  1  0
  1 22  1  1
  2 23  1  0
  4 24  1  0
  6 25  1  0
  9 26  1  0
 11 27  1  0
 12 28  1  0
 13 29  1  0
 13 30  1  0
 15 31  1  0
 16 32  1  0
 18 33  1  0
 18 34  1  0
M  ISO  8  22   8  23  14  24  14  25  14  26  14  27  14  28   9  29   8
M  ISO  3  30   8  31  14  32  14
M  END
>  <minimizedAffinity>  (1) 
-5.19737339

>  <minimizedRMSD>  (1) 
4.19861794

$$$$
