
     RDKit          3D

 30 32  0  0  1  0  0  0  0  0999 V2000
   45.7850   32.7220   45.1500 C   0  0  1  0  0  0  0  0  0  0  0  0
   45.9970   34.3950   43.3870 C   0  0  0  0  0  0  0  0  0  0  0  0
   45.4890   34.0810   44.6600 C   0  0  0  0  0  0  0  0  0  0  0  0
   44.7700   35.0410   45.3440 C   0  0  0  0  0  0  0  0  0  0  0  0
   44.6050   36.2310   44.7310 N   0  0  0  0  0  0  0  0  0  0  0  0
   45.0910   36.5240   43.5210 C   0  0  0  0  0  0  0  0  0  0  0  0
   45.7810   35.6240   42.8480 N   0  0  0  0  0  0  0  0  0  0  0  0
   46.5090   31.9830   44.1160 C   0  0  0  0  0  0  0  0  0  0  0  0
   46.0800   31.1940   43.0540 C   0  0  0  0  0  0  0  0  0  0  0  0
   47.1870   30.7210   42.3970 N   0  0  0  0  0  0  0  0  0  0  0  0
   48.2820   31.1850   43.0070 C   0  0  0  0  0  0  0  0  0  0  0  0
   47.8670   31.9420   44.0380 N   0  0  0  0  0  0  0  0  0  0  0  0
   46.6270   32.8610   46.3960 C   0  0  0  0  0  0  0  0  0  0  0  0
   46.0390   32.0700   47.5270 C   0  0  0  0  0  0  0  0  0  0  0  0
   45.8740   32.3370   48.8620 C   0  0  0  0  0  0  0  0  0  0  0  0
   45.2680   31.2690   49.4850 C   0  0  0  0  0  0  0  0  0  0  0  0
   45.0810   30.3650   48.4690 C   0  0  0  0  0  0  0  0  0  0  0  0
   45.5330   30.8530   47.3590 O   0  0  0  0  0  0  0  0  0  0  0  0
   44.8617   32.1709   45.3821 H   0  0  0  0  0  0  0  0  0  0  0  0
   46.5712   33.6434   42.8254 H   0  0  0  0  0  0  0  0  0  0  0  0
   44.3514   34.8445   46.3421 H   0  0  0  0  0  0  0  0  0  0  0  0
   44.9150   37.5186   43.0853 H   0  0  0  0  0  0  0  0  0  0  0  0
   45.0335   30.9854   42.7871 H   0  0  0  0  0  0  0  0  0  0  0  0
   49.3250   30.9854   42.7200 H   0  0  0  0  0  0  0  0  0  0  0  0
   48.4989   32.4305   44.6884 H   0  0  0  0  0  0  0  0  0  0  0  0
   47.6425   32.4928   46.1880 H   0  0  0  0  0  0  0  0  0  0  0  0
   46.6563   33.9219   46.6853 H   0  0  0  0  0  0  0  0  0  0  0  0
   46.1807   33.2677   49.3617 H   0  0  0  0  0  0  0  0  0  0  0  0
   44.9976   31.1648   50.5461 H   0  0  0  0  0  0  0  0  0  0  0  0
   44.6165   29.3742   48.5816 H   0  0  0  0  0  0  0  0  0  0  0  0
  1 13  1  0
  2  3  2  0
  3  1  1  0
  3  4  1  0
  5  4  2  0
  6  5  1  0
  7  2  1  0
  7  6  2  0
  8  1  1  0
  9  8  2  0
 10 11  2  0
 10  9  1  0
 11 12  1  0
 12  8  1  0
 13 14  1  0
 14 15  2  0
 15 16  1  0
 17 16  2  0
 18 14  1  0
 18 17  1  0
  1 19  1  1
  2 20  1  0
  4 21  1  0
  6 22  1  0
  9 23  1  0
 11 24  1  0
 12 25  1  0
 13 26  1  0
 13 27  1  0
 15 28  1  0
 16 29  1  0
 17 30  1  0
M  ISO  8  19   8  20  14  21  14  22  14  23  14  24  14  25   9  26   8
M  ISO  4  27   8  28  14  29  14  30  14
M  END
>  <minimizedAffinity>  (1) 
-4.72388649

>  <minimizedRMSD>  (1) 
3.56198549

$$$$
