
     RDKit          3D

 36 38  0  0  1  0  0  0  0  0999 V2000
   46.2530   32.6680   44.8640 C   0  0  1  0  0  0  0  0  0  0  0  0
   44.9200   33.7230   43.0990 C   0  0  0  0  0  0  0  0  0  0  0  0
   45.4210   33.7890   44.3960 C   0  0  0  0  0  0  0  0  0  0  0  0
   45.0960   34.9080   45.1580 C   0  0  0  0  0  0  0  0  0  0  0  0
   44.3210   35.8500   44.5970 N   0  0  0  0  0  0  0  0  0  0  0  0
   43.8440   35.7740   43.3500 C   0  0  0  0  0  0  0  0  0  0  0  0
   44.1480   34.7160   42.6200 N   0  0  0  0  0  0  0  0  0  0  0  0
   47.4460   32.5850   43.9880 C   0  0  0  0  0  0  0  0  0  0  0  0
   48.0930   31.5350   43.3720 C   0  0  0  0  0  0  0  0  0  0  0  0
   49.1650   32.0250   42.6790 N   0  0  0  0  0  0  0  0  0  0  0  0
   49.2110   33.3370   42.8380 C   0  0  0  0  0  0  0  0  0  0  0  0
   48.1740   33.6700   43.6280 N   0  0  0  0  0  0  0  0  0  0  0  0
   46.6770   32.9580   46.2820 C   0  0  0  0  0  0  0  0  0  0  0  0
   45.9220   32.0670   47.1380 N   0  0  0  0  0  0  0  0  0  0  0  0
   46.0420   32.3440   48.5090 C   0  0  0  0  0  0  0  0  0  0  0  0
   45.1990   31.3890   49.3080 C   0  0  0  0  0  0  0  0  0  0  0  0
   45.2590   30.0770   48.8820 O   0  0  0  0  0  0  0  0  0  0  0  0
   44.9140   29.9580   47.5340 C   0  0  0  0  0  0  0  0  0  0  0  0
   45.9690   30.7110   46.7510 C   0  0  0  0  0  0  0  0  0  0  0  0
   45.7012   31.7170   44.8307 H   0  0  0  0  0  0  0  0  0  0  0  0
   45.1558   32.8566   42.4636 H   0  0  0  0  0  0  0  0  0  0  0  0
   45.4633   35.0171   46.1891 H   0  0  0  0  0  0  0  0  0  0  0  0
   43.2117   36.5757   42.9408 H   0  0  0  0  0  0  0  0  0  0  0  0
   47.7958   30.4774   43.4287 H   0  0  0  0  0  0  0  0  0  0  0  0
   49.9542   34.0241   42.4072 H   0  0  0  0  0  0  0  0  0  0  0  0
   47.9594   34.6331   43.9235 H   0  0  0  0  0  0  0  0  0  0  0  0
   47.7548   32.7725   46.3999 H   0  0  0  0  0  0  0  0  0  0  0  0
   46.4861   34.0095   46.5425 H   0  0  0  0  0  0  0  0  0  0  0  0
   47.0947   32.2386   48.8101 H   0  0  0  0  0  0  0  0  0  0  0  0
   45.6979   33.3714   48.6988 H   0  0  0  0  0  0  0  0  0  0  0  0
   45.5362   31.4261   50.3544 H   0  0  0  0  0  0  0  0  0  0  0  0
   44.1551   31.7116   49.1803 H   0  0  0  0  0  0  0  0  0  0  0  0
   44.9039   28.8990   47.2366 H   0  0  0  0  0  0  0  0  0  0  0  0
   43.9106   30.3663   47.3431 H   0  0  0  0  0  0  0  0  0  0  0  0
   45.7656   30.6241   45.6735 H   0  0  0  0  0  0  0  0  0  0  0  0
   46.9652   30.2920   46.9559 H   0  0  0  0  0  0  0  0  0  0  0  0
  1 13  1  0
  2  3  2  0
  3  1  1  0
  3  4  1  0
  5  4  2  0
  6  5  1  0
  7  2  1  0
  7  6  2  0
  8  1  1  0
  9  8  2  0
 10 11  2  0
 10  9  1  0
 11 12  1  0
 12  8  1  0
 13 14  1  0
 14 15  1  0
 15 16  1  0
 17 16  1  0
 18 17  1  0
 19 14  1  0
 19 18  1  0
  1 20  1  1
  2 21  1  0
  4 22  1  0
  6 23  1  0
  9 24  1  0
 11 25  1  0
 12 26  1  0
 13 27  1  0
 13 28  1  0
 15 29  1  0
 15 30  1  0
 16 31  1  0
 16 32  1  0
 18 33  1  0
 18 34  1  0
 19 35  1  0
 19 36  1  0
M  ISO  8  20   8  21  14  22  14  23  14  24  14  25  14  26   9  27   8
M  ISO  8  28   8  29  13  30  13  31  13  32  13  33  13  34  13  35  13
M  ISO  1  36  13
M  END
>  <minimizedAffinity>  (1) 
-4.71984816

>  <minimizedRMSD>  (1) 
3.79325509

$$$$
