
     RDKit          3D

 36 39  0  0  1  0  0  0  0  0999 V2000
   46.0810   32.7880   43.2370 C   0  0  1  0  0  0  0  0  0  0  0  0
   44.0010   33.1500   42.0170 C   0  0  0  0  0  0  0  0  0  0  0  0
   45.0970   33.7240   42.6680 C   0  0  0  0  0  0  0  0  0  0  0  0
   45.1740   35.0990   42.7370 C   0  0  0  0  0  0  0  0  0  0  0  0
   44.1790   35.8040   42.1660 N   0  0  0  0  0  0  0  0  0  0  0  0
   43.1240   35.2530   41.5400 C   0  0  0  0  0  0  0  0  0  0  0  0
   43.0410   33.9310   41.4690 N   0  0  0  0  0  0  0  0  0  0  0  0
   46.9820   32.3370   42.1650 C   0  0  0  0  0  0  0  0  0  0  0  0
   47.1260   31.1490   41.4740 C   0  0  0  0  0  0  0  0  0  0  0  0
   48.1440   31.2750   40.5790 N   0  0  0  0  0  0  0  0  0  0  0  0
   48.6480   32.4940   40.6750 C   0  0  0  0  0  0  0  0  0  0  0  0
   47.9490   33.1280   41.6270 N   0  0  0  0  0  0  0  0  0  0  0  0
   46.8430   33.5070   44.3140 C   0  0  0  0  0  0  0  0  0  0  0  0
   46.3110   33.1690   45.6360 N   0  0  0  0  0  0  0  0  0  0  0  0
   45.4010   33.7150   46.4540 C   0  0  0  0  0  0  0  0  0  0  0  0
   45.2970   32.9720   47.5700 N   0  0  0  0  0  0  0  0  0  0  0  0
   46.1440   31.9580   47.4460 C   0  0  0  0  0  0  0  0  0  0  0  0
   46.3880   30.9350   48.3350 C   0  0  0  0  0  0  0  0  0  0  0  0
   47.3100   30.0140   47.9740 N   0  0  0  0  0  0  0  0  0  0  0  0
   47.9630   30.0840   46.8010 C   0  0  0  0  0  0  0  0  0  0  0  0
   47.6950   31.0960   45.9650 N   0  0  0  0  0  0  0  0  0  0  0  0
   46.8050   32.0460   46.2370 C   0  0  0  0  0  0  0  0  0  0  0  0
   45.7410   30.7860   49.6000 N   0  0  0  0  0  0  0  0  0  0  0  0
   45.5881   31.9060   43.6720 H   0  0  0  0  0  0  0  0  0  0  0  0
   43.9182   32.0552   41.9496 H   0  0  0  0  0  0  0  0  0  0  0  0
   46.0150   35.6001   43.2386 H   0  0  0  0  0  0  0  0  0  0  0  0
   42.3435   35.8875   41.0946 H   0  0  0  0  0  0  0  0  0  0  0  0
   46.5157   30.2461   41.6232 H   0  0  0  0  0  0  0  0  0  0  0  0
   49.4804   32.9079   40.0869 H   0  0  0  0  0  0  0  0  0  0  0  0
   48.1238   34.1007   41.9173 H   0  0  0  0  0  0  0  0  0  0  0  0
   47.9020   33.2136   44.2648 H   0  0  0  0  0  0  0  0  0  0  0  0
   46.7405   34.5909   44.1573 H   0  0  0  0  0  0  0  0  0  0  0  0
   44.8274   34.6300   46.2449 H   0  0  0  0  0  0  0  0  0  0  0  0
   48.7075   29.3205   46.5312 H   0  0  0  0  0  0  0  0  0  0  0  0
   45.9793   29.9909   50.2099 H   0  0  0  0  0  0  0  0  0  0  0  0
   45.0362   31.4736   49.9021 H   0  0  0  0  0  0  0  0  0  0  0  0
  1 13  1  0
  2  3  2  0
  3  4  1  0
  3  1  1  0
  5  4  2  0
  6  5  1  0
  7  6  2  0
  7  2  1  0
  8  1  1  0
  9  8  2  0
 10 11  2  0
 10  9  1  0
 11 12  1  0
 12  8  1  0
 13 14  1  0
 14 22  1  0
 14 15  1  0
 15 16  2  0
 17 16  1  0
 17 18  2  0
 18 23  1  0
 19 18  1  0
 20 19  2  0
 21 22  2  0
 21 20  1  0
 22 17  1  0
  1 24  1  1
  2 25  1  0
  4 26  1  0
  6 27  1  0
  9 28  1  0
 11 29  1  0
 12 30  1  0
 13 31  1  0
 13 32  1  0
 15 33  1  0
 20 34  1  0
 23 35  1  0
 23 36  1  0
M  ISO  8  24   8  25  14  26  14  27  14  28  14  29  14  30   9  31   8
M  ISO  3  32   8  33  14  34  14
M  END
>  <minimizedAffinity>  (1) 
-4.67280483

>  <minimizedRMSD>  (1) 
4.18485165

$$$$
