
     RDKit          3D

 24 25  0  0  1  0  0  0  0  0999 V2000
   45.3610   33.6950   45.0000 C   0  0  1  0  0  0  0  0  0  0  0  0
   47.4520   33.1080   43.8710 C   0  0  0  0  0  0  0  0  0  0  0  0
   46.3520   33.9860   43.9510 C   0  0  0  0  0  0  0  0  0  0  0  0
   46.2940   35.0330   43.0550 C   0  0  0  0  0  0  0  0  0  0  0  0
   47.3060   35.1400   42.1600 N   0  0  0  0  0  0  0  0  0  0  0  0
   48.3370   34.3070   42.0940 C   0  0  0  0  0  0  0  0  0  0  0  0
   48.4130   33.2960   42.9420 N   0  0  0  0  0  0  0  0  0  0  0  0
   46.0090   32.9030   46.0580 C   0  0  0  0  0  0  0  0  0  0  0  0
   45.9030   31.5630   46.4210 C   0  0  0  0  0  0  0  0  0  0  0  0
   46.7180   31.3410   47.4930 N   0  0  0  0  0  0  0  0  0  0  0  0
   47.3310   32.4860   47.8200 C   0  0  0  0  0  0  0  0  0  0  0  0
   46.8970   33.4130   46.9530 N   0  0  0  0  0  0  0  0  0  0  0  0
   44.8870   35.0130   45.5610 C   0  0  0  0  0  0  0  0  0  0  0  0
   44.3790   34.7190   46.8380 O   0  0  0  0  0  0  0  0  0  0  0  0
   44.5094   33.1270   44.5972 H   0  0  0  0  0  0  0  0  0  0  0  0
   47.5278   32.2630   44.5712 H   0  0  0  0  0  0  0  0  0  0  0  0
   45.4610   35.7513   43.0664 H   0  0  0  0  0  0  0  0  0  0  0  0
   49.1227   34.4569   41.3389 H   0  0  0  0  0  0  0  0  0  0  0  0
   45.2699   30.8109   45.9275 H   0  0  0  0  0  0  0  0  0  0  0  0
   48.0496   32.6367   48.6391 H   0  0  0  0  0  0  0  0  0  0  0  0
   47.2010   34.3970   46.9638 H   0  0  0  0  0  0  0  0  0  0  0  0
   45.7244   35.7224   45.6348 H   0  0  0  0  0  0  0  0  0  0  0  0
   44.1264   35.4794   44.9177 H   0  0  0  0  0  0  0  0  0  0  0  0
   44.9937   35.0748   47.5276 H   0  0  0  0  0  0  0  0  0  0  0  0
  1 13  1  0
  1  8  1  0
  2  3  2  0
  3  1  1  0
  4  3  1  0
  5  4  2  0
  6  5  1  0
  6  7  2  0
  7  2  1  0
  8  9  2  0
  8 12  1  0
  9 10  1  0
 10 11  2  0
 12 11  1  0
 13 14  1  0
  1 15  1  6
  2 16  1  0
  4 17  1  0
  6 18  1  0
  9 19  1  0
 11 20  1  0
 12 21  1  0
 13 22  1  0
 13 23  1  0
 14 24  1  0
M  ISO  8  15   8  16  14  17  14  18  14  19  14  20  14  21   9  22   8
M  ISO  2  23   8  24   3
M  END
>  <minimizedAffinity>  (1) 
-4.66058064

>  <minimizedRMSD>  (1) 
0.276405632

$$$$
