
     RDKit          3D

 30 32  0  0  1  0  0  0  0  0999 V2000
   46.1220   32.6330   45.0770 C   0  0  1  0  0  0  0  0  0  0  0  0
   44.9280   33.6750   43.2250 C   0  0  0  0  0  0  0  0  0  0  0  0
   45.3670   33.7790   44.5450 C   0  0  0  0  0  0  0  0  0  0  0  0
   45.0570   34.9300   45.2400 C   0  0  0  0  0  0  0  0  0  0  0  0
   44.3500   35.8720   44.5950 N   0  0  0  0  0  0  0  0  0  0  0  0
   43.9290   35.7780   43.3350 C   0  0  0  0  0  0  0  0  0  0  0  0
   44.2180   34.6780   42.6500 N   0  0  0  0  0  0  0  0  0  0  0  0
   47.2730   32.3770   44.1950 C   0  0  0  0  0  0  0  0  0  0  0  0
   47.8300   31.2250   43.6740 C   0  0  0  0  0  0  0  0  0  0  0  0
   48.9170   31.5660   42.9090 N   0  0  0  0  0  0  0  0  0  0  0  0
   49.0570   32.8850   42.9330 C   0  0  0  0  0  0  0  0  0  0  0  0
   48.0680   33.3670   43.7060 N   0  0  0  0  0  0  0  0  0  0  0  0
   46.5810   32.9800   46.4680 C   0  0  0  0  0  0  0  0  0  0  0  0
   46.0100   32.0080   47.3910 N   0  0  0  0  0  0  0  0  0  0  0  0
   45.5460   30.7660   47.3140 C   0  0  0  0  0  0  0  0  0  0  0  0
   45.1060   30.3190   48.5420 C   0  0  0  0  0  0  0  0  0  0  0  0
   45.3220   31.3510   49.3840 N   0  0  0  0  0  0  0  0  0  0  0  0
   45.8680   32.3760   48.6950 C   0  0  0  0  0  0  0  0  0  0  0  0
   45.4997   31.7268   45.1165 H   0  0  0  0  0  0  0  0  0  0  0  0
   45.1599   32.7701   42.6441 H   0  0  0  0  0  0  0  0  0  0  0  0
   45.3769   35.0706   46.2830 H   0  0  0  0  0  0  0  0  0  0  0  0
   43.3545   36.5938   42.8720 H   0  0  0  0  0  0  0  0  0  0  0  0
   47.4625   30.2023   43.8444 H   0  0  0  0  0  0  0  0  0  0  0  0
   49.8329   33.4716   42.4193 H   0  0  0  0  0  0  0  0  0  0  0  0
   47.9286   34.3680   43.9046 H   0  0  0  0  0  0  0  0  0  0  0  0
   47.6792   32.9411   46.5184 H   0  0  0  0  0  0  0  0  0  0  0  0
   46.2528   33.9956   46.7344 H   0  0  0  0  0  0  0  0  0  0  0  0
   45.5165   30.1705   46.3896 H   0  0  0  0  0  0  0  0  0  0  0  0
   44.6737   29.3365   48.7825 H   0  0  0  0  0  0  0  0  0  0  0  0
   46.1522   33.3507   49.1183 H   0  0  0  0  0  0  0  0  0  0  0  0
  1 13  1  0
  2  3  2  0
  3  1  1  0
  3  4  1  0
  5  4  2  0
  6  5  1  0
  7  2  1  0
  7  6  2  0
  8  1  1  0
  9  8  2  0
 10 11  2  0
 10  9  1  0
 11 12  1  0
 12  8  1  0
 13 14  1  0
 14 18  1  0
 15 14  1  0
 15 16  2  0
 16 17  1  0
 18 17  2  0
  1 19  1  1
  2 20  1  0
  4 21  1  0
  6 22  1  0
  9 23  1  0
 11 24  1  0
 12 25  1  0
 13 26  1  0
 13 27  1  0
 15 28  1  0
 16 29  1  0
 18 30  1  0
M  ISO  8  19   8  20  14  21  14  22  14  23  14  24  14  25   9  26   8
M  ISO  4  27   8  28  14  29  14  30  14
M  END
>  <minimizedAffinity>  (1) 
-4.49095249

>  <minimizedRMSD>  (1) 
3.74291253

$$$$
