
     RDKit          3D

 30 32  0  0  1  0  0  0  0  0999 V2000
   46.7150   34.2870   43.4700 C   0  0  1  0  0  0  0  0  0  0  0  0
   44.9250   35.5840   42.4350 C   0  0  0  0  0  0  0  0  0  0  0  0
   45.4860   34.3130   42.6570 C   0  0  0  0  0  0  0  0  0  0  0  0
   44.8580   33.2110   42.1190 C   0  0  0  0  0  0  0  0  0  0  0  0
   43.7270   33.4350   41.4050 N   0  0  0  0  0  0  0  0  0  0  0  0
   43.2060   34.6380   41.2020 C   0  0  0  0  0  0  0  0  0  0  0  0
   43.7860   35.7100   41.7040 N   0  0  0  0  0  0  0  0  0  0  0  0
   46.3970   33.7630   44.8050 C   0  0  0  0  0  0  0  0  0  0  0  0
   45.3660   34.0180   45.6980 C   0  0  0  0  0  0  0  0  0  0  0  0
   45.5620   33.2610   46.8180 N   0  0  0  0  0  0  0  0  0  0  0  0
   46.6790   32.5370   46.6650 C   0  0  0  0  0  0  0  0  0  0  0  0
   47.1680   32.8480   45.4530 N   0  0  0  0  0  0  0  0  0  0  0  0
   47.7060   33.3870   42.7720 C   0  0  0  0  0  0  0  0  0  0  0  0
   48.7150   34.1570   41.9670 C   0  0  0  0  0  0  0  0  0  0  0  0
   49.5940   35.1640   42.5950 C   0  0  0  0  0  0  0  0  0  0  0  0
   50.1810   33.8320   42.2980 C   0  0  0  0  0  0  0  0  0  0  0  0
   47.1398   35.2953   43.5834 H   0  0  0  0  0  0  0  0  0  0  0  0
   45.4095   36.4782   42.8542 H   0  0  0  0  0  0  0  0  0  0  0  0
   45.2559   32.1955   42.2621 H   0  0  0  0  0  0  0  0  0  0  0  0
   42.2841   34.7416   40.6110 H   0  0  0  0  0  0  0  0  0  0  0  0
   44.5303   34.7137   45.5317 H   0  0  0  0  0  0  0  0  0  0  0  0
   47.1099   31.8288   47.3880 H   0  0  0  0  0  0  0  0  0  0  0  0
   48.0281   32.4405   45.0593 H   0  0  0  0  0  0  0  0  0  0  0  0
   48.2382   32.7934   43.5299 H   0  0  0  0  0  0  0  0  0  0  0  0
   47.1436   32.7455   42.0776 H   0  0  0  0  0  0  0  0  0  0  0  0
   48.0576   34.1883   41.0856 H   0  0  0  0  0  0  0  0  0  0  0  0
   49.9163   36.0409   42.0144 H   0  0  0  0  0  0  0  0  0  0  0  0
   49.5208   35.7797   43.5036 H   0  0  0  0  0  0  0  0  0  0  0  0
   50.4237   33.1383   43.1165 H   0  0  0  0  0  0  0  0  0  0  0  0
   51.0516   33.4635   41.7355 H   0  0  0  0  0  0  0  0  0  0  0  0
  1  8  1  0
  2  3  2  0
  3  1  1  0
  4  3  1  0
  5  4  2  0
  6  5  1  0
  6  7  2  0
  7  2  1  0
  8 12  1  0
  8  9  2  0
  9 10  1  0
 11 10  2  0
 12 11  1  0
 13  1  1  0
 14 16  1  0
 14 15  1  0
 14 13  1  0
 16 15  1  0
  1 17  1  1
  2 18  1  0
  4 19  1  0
  6 20  1  0
  9 21  1  0
 11 22  1  0
 12 23  1  0
 13 24  1  0
 13 25  1  0
 14 26  1  0
 15 27  1  0
 15 28  1  0
 16 29  1  0
 16 30  1  0
M  ISO  8  17   8  18  14  19  14  20  14  21  14  22  14  23   9  24   8
M  ISO  6  25   8  26  13  27  13  28  13  29  13  30  13
M  END
>  <minimizedAffinity>  (1) 
-4.40233898

>  <minimizedRMSD>  (1) 
4.40102625

$$$$
