
     RDKit          3D

 29 31  0  0  1  0  0  0  0  0999 V2000
   46.2770   33.0090   44.2580 C   0  0  1  0  0  0  0  0  0  0  0  0
   46.9890   34.8480   42.8030 C   0  0  0  0  0  0  0  0  0  0  0  0
   47.2530   33.5790   43.3050 C   0  0  0  0  0  0  0  0  0  0  0  0
   48.4210   32.9380   42.8810 C   0  0  0  0  0  0  0  0  0  0  0  0
   49.2140   33.5920   42.0170 N   0  0  0  0  0  0  0  0  0  0  0  0
   48.9450   34.8190   41.5410 C   0  0  0  0  0  0  0  0  0  0  0  0
   47.8480   35.4320   41.9320 N   0  0  0  0  0  0  0  0  0  0  0  0
   45.1570   32.4580   43.4580 C   0  0  0  0  0  0  0  0  0  0  0  0
   44.2930   33.0110   42.5040 C   0  0  0  0  0  0  0  0  0  0  0  0
   43.4280   32.0530   42.0950 N   0  0  0  0  0  0  0  0  0  0  0  0
   43.6930   30.9290   42.7320 C   0  0  0  0  0  0  0  0  0  0  0  0
   44.7290   31.1870   43.5420 N   0  0  0  0  0  0  0  0  0  0  0  0
   46.9550   31.9190   45.0140 C   0  0  0  0  0  0  0  0  0  0  0  0
   46.4770   31.7570   46.4200 C   0  0  0  0  0  0  0  0  0  0  0  0
   46.9420   32.5490   47.4310 C   0  0  0  0  0  0  0  0  0  0  0  0
   46.0510   31.9160   48.9200 S   0  0  0  0  0  0  0  0  0  0  0  0
   45.1670   30.6260   47.8340 C   0  0  0  0  0  0  0  0  0  0  0  0
   45.5930   30.8070   46.6500 N   0  0  0  0  0  0  0  0  0  0  0  0
   45.9001   33.7609   44.9669 H   0  0  0  0  0  0  0  0  0  0  0  0
   46.0785   35.3810   43.1141 H   0  0  0  0  0  0  0  0  0  0  0  0
   48.6814   31.9324   43.2428 H   0  0  0  0  0  0  0  0  0  0  0  0
   49.6328   35.3052   40.8335 H   0  0  0  0  0  0  0  0  0  0  0  0
   44.3138   34.0511   42.1465 H   0  0  0  0  0  0  0  0  0  0  0  0
   43.1674   29.9692   42.6205 H   0  0  0  0  0  0  0  0  0  0  0  0
   45.1531   30.4842   44.1642 H   0  0  0  0  0  0  0  0  0  0  0  0
   46.7843   30.9721   44.4808 H   0  0  0  0  0  0  0  0  0  0  0  0
   48.0193   32.1908   45.0723 H   0  0  0  0  0  0  0  0  0  0  0  0
   47.6731   33.3688   47.3724 H   0  0  0  0  0  0  0  0  0  0  0  0
   44.4346   29.8748   48.1647 H   0  0  0  0  0  0  0  0  0  0  0  0
  1 13  1  0
  2  3  2  0
  3  1  1  0
  4  3  1  0
  5  4  2  0
  6  7  2  0
  6  5  1  0
  7  2  1  0
  8 12  1  0
  8  1  1  0
  9  8  2  0
 10  9  1  0
 10 11  2  0
 11 12  1  0
 13 14  1  0
 14 18  1  0
 14 15  2  0
 15 16  1  0
 17 16  1  0
 18 17  2  0
  1 19  1  1
  2 20  1  0
  4 21  1  0
  6 22  1  0
  9 23  1  0
 11 24  1  0
 12 25  1  0
 13 26  1  0
 13 27  1  0
 15 28  1  0
 17 29  1  0
M  ISO  8  19   8  20  14  21  14  22  14  23  14  24  14  25   9  26   8
M  ISO  3  27   8  28  14  29  14
M  END
>  <minimizedAffinity>  (1) 
-4.04378033

>  <minimizedRMSD>  (1) 
3.79689908

$$$$
