
     RDKit          3D

 28 30  0  0  1  0  0  0  0  0999 V2000
   45.8410   32.7600   45.4040 C   0  0  1  0  0  0  0  0  0  0  0  0
   44.8230   34.9480   45.3020 C   0  0  0  0  0  0  0  0  0  0  0  0
   45.6280   34.0130   44.6660 C   0  0  0  0  0  0  0  0  0  0  0  0
   46.1540   34.3260   43.4300 C   0  0  0  0  0  0  0  0  0  0  0  0
   45.8460   35.5290   42.9240 N   0  0  0  0  0  0  0  0  0  0  0  0
   45.0740   36.4400   43.5240 C   0  0  0  0  0  0  0  0  0  0  0  0
   44.5620   36.1410   44.7220 N   0  0  0  0  0  0  0  0  0  0  0  0
   46.3390   31.7300   44.4860 C   0  0  0  0  0  0  0  0  0  0  0  0
   45.6610   30.8580   43.6230 C   0  0  0  0  0  0  0  0  0  0  0  0
   46.6090   30.0860   42.9960 N   0  0  0  0  0  0  0  0  0  0  0  0
   47.8170   30.4440   43.4330 C   0  0  0  0  0  0  0  0  0  0  0  0
   47.6580   31.4340   44.3310 N   0  0  0  0  0  0  0  0  0  0  0  0
   46.8510   33.0260   46.4940 C   0  0  0  0  0  0  0  0  0  0  0  0
   46.4560   32.2230   47.7120 C   0  0  0  0  0  0  0  0  0  0  0  0
   47.2170   31.4470   48.5100 N   0  0  0  0  0  0  0  0  0  0  0  0
   46.4770   30.9350   49.4490 O   0  0  0  0  0  0  0  0  0  0  0  0
   45.2290   31.3420   49.3110 C   0  0  0  0  0  0  0  0  0  0  0  0
   45.1940   32.1570   48.2180 N   0  0  0  0  0  0  0  0  0  0  0  0
   44.8991   32.4038   45.8467 H   0  0  0  0  0  0  0  0  0  0  0  0
   44.3932   34.7160   46.2876 H   0  0  0  0  0  0  0  0  0  0  0  0
   46.7973   33.6204   42.8838 H   0  0  0  0  0  0  0  0  0  0  0  0
   44.8658   37.4084   43.0456 H   0  0  0  0  0  0  0  0  0  0  0  0
   44.5724   30.8021   43.4752 H   0  0  0  0  0  0  0  0  0  0  0  0
   48.7752   30.0070   43.1154 H   0  0  0  0  0  0  0  0  0  0  0  0
   48.4273   31.9021   44.8310 H   0  0  0  0  0  0  0  0  0  0  0  0
   47.8523   32.7210   46.1559 H   0  0  0  0  0  0  0  0  0  0  0  0
   46.8729   34.0985   46.7374 H   0  0  0  0  0  0  0  0  0  0  0  0
   44.3785   31.0746   49.9553 H   0  0  0  0  0  0  0  0  0  0  0  0
  1 13  1  0
  3  2  2  0
  3  1  1  0
  4  3  1  0
  5  4  2  0
  5  6  1  0
  6  7  2  0
  7  2  1  0
  8  1  1  0
  9  8  2  0
 10 11  2  0
 10  9  1  0
 11 12  1  0
 12  8  1  0
 13 14  1  0
 14 18  1  0
 14 15  2  0
 15 16  1  0
 17 16  1  0
 18 17  2  0
  1 19  1  1
  2 20  1  0
  4 21  1  0
  6 22  1  0
  9 23  1  0
 11 24  1  0
 12 25  1  0
 13 26  1  0
 13 27  1  0
 17 28  1  0
M  ISO  8  19   8  20  14  21  14  22  14  23  14  24  14  25   9  26   8
M  ISO  2  27   8  28  14
M  END
>  <minimizedAffinity>  (1) 
-4.37393236

>  <minimizedRMSD>  (1) 
3.65792727

$$$$
