
     RDKit          3D

 35 37  0  0  1  0  0  0  0  0999 V2000
   45.9660   32.7350   44.9510 C   0  0  1  0  0  0  0  0  0  0  0  0
   44.8970   34.8980   45.2660 C   0  0  0  0  0  0  0  0  0  0  0  0
   45.6390   34.0810   44.4060 C   0  0  0  0  0  0  0  0  0  0  0  0
   46.0010   34.5540   43.1640 C   0  0  0  0  0  0  0  0  0  0  0  0
   45.6040   35.8000   42.8620 N   0  0  0  0  0  0  0  0  0  0  0  0
   44.8900   36.6010   43.6850 C   0  0  0  0  0  0  0  0  0  0  0  0
   44.5430   36.1380   44.8800 N   0  0  0  0  0  0  0  0  0  0  0  0
   46.7200   31.9940   43.9640 C   0  0  0  0  0  0  0  0  0  0  0  0
   46.3800   30.9820   43.0820 C   0  0  0  0  0  0  0  0  0  0  0  0
   47.4970   30.6170   42.3780 N   0  0  0  0  0  0  0  0  0  0  0  0
   48.5250   31.3740   42.7980 C   0  0  0  0  0  0  0  0  0  0  0  0
   48.0590   32.1990   43.7480 N   0  0  0  0  0  0  0  0  0  0  0  0
   46.7260   32.9520   46.2240 C   0  0  0  0  0  0  0  0  0  0  0  0
   46.7210   31.6710   47.0130 C   0  0  0  0  0  0  0  0  0  0  0  0
   47.7360   31.0310   47.6260 N   0  0  0  0  0  0  0  0  0  0  0  0
   47.2720   29.9470   48.1980 O   0  0  0  0  0  0  0  0  0  0  0  0
   45.9860   29.8410   47.9880 C   0  0  0  0  0  0  0  0  0  0  0  0
   45.6230   30.9200   47.2430 N   0  0  0  0  0  0  0  0  0  0  0  0
   45.0660   28.8460   48.4070 N   0  0  0  0  0  0  0  0  0  0  0  0
   45.2810   27.5010   48.0000 C   0  0  0  0  0  0  0  0  0  0  0  0
   46.4650   27.0110   47.8950 N   0  0  0  0  0  0  0  0  0  0  0  0
   44.1820   26.6490   47.6950 N   0  0  0  0  0  0  0  0  0  0  0  0
   47.2770   27.6090   48.1120 H   0  0  0  0  0  0  0  0  0  0  0  0
   45.0681   32.1392   45.1719 H   0  0  0  0  0  0  0  0  0  0  0  0
   44.6026   34.5266   46.2587 H   0  0  0  0  0  0  0  0  0  0  0  0
   46.5837   33.9438   42.4582 H   0  0  0  0  0  0  0  0  0  0  0  0
   44.6026   37.6153   43.3709 H   0  0  0  0  0  0  0  0  0  0  0  0
   45.3779   30.5434   42.9658 H   0  0  0  0  0  0  0  0  0  0  0  0
   49.5604   31.3260   42.4298 H   0  0  0  0  0  0  0  0  0  0  0  0
   48.6309   32.8941   44.2487 H   0  0  0  0  0  0  0  0  0  0  0  0
   47.7620   33.2399   45.9921 H   0  0  0  0  0  0  0  0  0  0  0  0
   46.2546   33.7549   46.8098 H   0  0  0  0  0  0  0  0  0  0  0  0
   44.2574   29.0933   48.9951 H   0  0  0  0  0  0  0  0  0  0  0  0
   44.3505   25.6763   47.4012 H   0  0  0  0  0  0  0  0  0  0  0  0
   43.2184   27.0053   47.7682 H   0  0  0  0  0  0  0  0  0  0  0  0
  1 13  1  0
  3  1  1  0
  3  2  2  0
  4  3  1  0
  5  4  2  0
  5  6  1  0
  6  7  2  0
  7  2  1  0
  8  1  1  0
  9  8  2  0
 10 11  2  0
 10  9  1  0
 11 12  1  0
 12  8  1  0
 13 14  1  0
 14 18  1  0
 14 15  2  0
 15 16  1  0
 17 16  1  0
 17 19  1  0
 18 17  2  0
 20 19  1  0
 21 20  2  0
 21 23  1  0
 22 20  1  0
  1 24  1  1
  2 25  1  0
  4 26  1  0
  6 27  1  0
  9 28  1  0
 11 29  1  0
 12 30  1  0
 13 31  1  0
 13 32  1  0
 19 33  1  0
 22 34  1  0
 22 35  1  0
M  ISO  8  24   8  25  14  26  14  27  14  28  14  29  14  30   9  31   8
M  ISO  1  32   8
M  END
>  <minimizedAffinity>  (1) 
-4.85192537

>  <minimizedRMSD>  (1) 
1.77793109

$$$$
