
     RDKit          3D

 38 41  0  0  1  0  0  0  0  0999 V2000
   46.3280   32.5820   44.5030 C   0  0  1  0  0  0  0  0  0  0  0  0
   45.1080   34.5180   45.3300 C   0  0  0  0  0  0  0  0  0  0  0  0
   45.8000   33.9510   44.2540 C   0  0  0  0  0  0  0  0  0  0  0  0
   45.9290   34.6580   43.0840 C   0  0  0  0  0  0  0  0  0  0  0  0
   45.3590   35.8750   43.0720 N   0  0  0  0  0  0  0  0  0  0  0  0
   44.6950   36.4370   44.0830 C   0  0  0  0  0  0  0  0  0  0  0  0
   44.5680   35.7440   45.2340 N   0  0  0  0  0  0  0  0  0  0  0  0
   47.2470   32.2270   43.4420 C   0  0  0  0  0  0  0  0  0  0  0  0
   47.1810   31.3350   42.3820 C   0  0  0  0  0  0  0  0  0  0  0  0
   48.3540   31.3840   41.6900 N   0  0  0  0  0  0  0  0  0  0  0  0
   49.1590   32.2810   42.2840 C   0  0  0  0  0  0  0  0  0  0  0  0
   48.4950   32.7880   43.3360 N   0  0  0  0  0  0  0  0  0  0  0  0
   46.9620   32.5810   45.8530 C   0  0  0  0  0  0  0  0  0  0  0  0
   46.6270   31.2730   46.5430 C   0  0  0  0  0  0  0  0  0  0  0  0
   47.2140   30.6930   47.6090 N   0  0  0  0  0  0  0  0  0  0  0  0
   46.6110   29.5760   47.8710 O   0  0  0  0  0  0  0  0  0  0  0  0
   45.6270   29.3800   47.0090 C   0  0  0  0  0  0  0  0  0  0  0  0
   45.6250   30.4490   46.1600 N   0  0  0  0  0  0  0  0  0  0  0  0
   44.6560   28.2990   46.8620 C   0  0  0  0  0  0  0  0  0  0  0  0
   44.6420   27.1550   47.6620 C   0  0  0  0  0  0  0  0  0  0  0  0
   43.6740   26.1990   47.4270 C   0  0  0  0  0  0  0  0  0  0  0  0
   42.7520   26.3940   46.4190 C   0  0  0  0  0  0  0  0  0  0  0  0
   42.7280   27.5100   45.6040 C   0  0  0  0  0  0  0  0  0  0  0  0
   43.7150   28.4550   45.8640 C   0  0  0  0  0  0  0  0  0  0  0  0
   45.5329   31.8219   44.4973 H   0  0  0  0  0  0  0  0  0  0  0  0
   45.0049   33.9518   46.2674 H   0  0  0  0  0  0  0  0  0  0  0  0
   46.4646   34.2541   42.2123 H   0  0  0  0  0  0  0  0  0  0  0  0
   44.2608   37.4425   43.9810 H   0  0  0  0  0  0  0  0  0  0  0  0
   46.3217   30.6926   42.1394 H   0  0  0  0  0  0  0  0  0  0  0  0
   50.1769   32.5511   41.9665 H   0  0  0  0  0  0  0  0  0  0  0  0
   48.8716   33.5013   43.9765 H   0  0  0  0  0  0  0  0  0  0  0  0
   48.0530   32.6771   45.7503 H   0  0  0  0  0  0  0  0  0  0  0  0
   46.5844   33.4267   46.4464 H   0  0  0  0  0  0  0  0  0  0  0  0
   45.3852   27.0184   48.4613 H   0  0  0  0  0  0  0  0  0  0  0  0
   43.6379   25.2865   48.0402 H   0  0  0  0  0  0  0  0  0  0  0  0
   41.9919   25.6160   46.2546 H   0  0  0  0  0  0  0  0  0  0  0  0
   41.9817   27.6415   44.8067 H   0  0  0  0  0  0  0  0  0  0  0  0
   43.7471   29.3657   45.2479 H   0  0  0  0  0  0  0  0  0  0  0  0
  1 13  1  0
  3  1  1  0
  3  2  2  0
  4  3  1  0
  5  4  2  0
  5  6  1  0
  6  7  2  0
  7  2  1  0
  8  1  1  0
  9  8  2  0
 10 11  2  0
 10  9  1  0
 11 12  1  0
 12  8  1  0
 13 14  1  0
 14 15  2  0
 15 16  1  0
 17 16  1  0
 18 14  1  0
 18 17  2  0
 19 17  1  0
 19 20  2  0
 21 20  1  0
 22 21  2  0
 23 24  2  0
 23 22  1  0
 24 19  1  0
  1 25  1  1
  2 26  1  0
  4 27  1  0
  6 28  1  0
  9 29  1  0
 11 30  1  0
 12 31  1  0
 13 32  1  0
 13 33  1  0
 20 34  1  0
 21 35  1  0
 22 36  1  0
 23 37  1  0
 24 38  1  0
M  ISO  8  25   8  26  14  27  14  28  14  29  14  30  14  31   9  32   8
M  ISO  6  33   8  34  14  35  14  36  14  37  14  38  14
M  END
>  <minimizedAffinity>  (1) 
-5.0481143

>  <minimizedRMSD>  (1) 
3.24515748

$$$$
