
     RDKit          3D

 37 39  0  0  1  0  0  0  0  0999 V2000
   45.6900   34.1400   42.9190 C   0  0  1  0  0  0  0  0  0  0  0  0
   43.7200   35.2970   42.0860 C   0  0  0  0  0  0  0  0  0  0  0  0
   44.7070   34.3410   41.8200 C   0  0  0  0  0  0  0  0  0  0  0  0
   44.6920   33.6720   40.6260 C   0  0  0  0  0  0  0  0  0  0  0  0
   43.7000   34.0010   39.7800 N   0  0  0  0  0  0  0  0  0  0  0  0
   42.7480   34.9090   40.0120 C   0  0  0  0  0  0  0  0  0  0  0  0
   42.7620   35.5690   41.1860 N   0  0  0  0  0  0  0  0  0  0  0  0
   47.0310   34.2530   42.3830 C   0  0  0  0  0  0  0  0  0  0  0  0
   48.0540   33.3390   42.1840 C   0  0  0  0  0  0  0  0  0  0  0  0
   49.1290   33.9960   41.6580 N   0  0  0  0  0  0  0  0  0  0  0  0
   48.8140   35.2880   41.5220 C   0  0  0  0  0  0  0  0  0  0  0  0
   47.5530   35.4500   41.9560 N   0  0  0  0  0  0  0  0  0  0  0  0
   45.3940   35.1470   43.9780 C   0  0  0  0  0  0  0  0  0  0  0  0
   45.2690   34.4480   45.3060 C   0  0  0  0  0  0  0  0  0  0  0  0
   44.5270   34.7540   46.3870 N   0  0  0  0  0  0  0  0  0  0  0  0
   44.7250   33.8730   47.3160 O   0  0  0  0  0  0  0  0  0  0  0  0
   45.5870   32.9710   46.8960 C   0  0  0  0  0  0  0  0  0  0  0  0
   45.9380   33.3220   45.6250 N   0  0  0  0  0  0  0  0  0  0  0  0
   46.0790   31.7940   47.6630 C   0  0  0  0  0  0  0  0  0  0  0  0
   45.4970   30.5050   47.1510 C   0  0  0  0  0  0  0  0  0  0  0  0
   45.6720   31.9290   49.1310 C   0  0  0  0  0  0  0  0  0  0  0  0
   45.6149   33.1386   43.3679 H   0  0  0  0  0  0  0  0  0  0  0  0
   43.7295   35.8332   43.0464 H   0  0  0  0  0  0  0  0  0  0  0  0
   45.4456   32.9114   40.3738 H   0  0  0  0  0  0  0  0  0  0  0  0
   41.9703   35.1130   39.2613 H   0  0  0  0  0  0  0  0  0  0  0  0
   48.0074   32.2639   42.4118 H   0  0  0  0  0  0  0  0  0  0  0  0
   49.4699   36.0772   41.1257 H   0  0  0  0  0  0  0  0  0  0  0  0
   47.0475   36.3474   41.9671 H   0  0  0  0  0  0  0  0  0  0  0  0
   46.2108   35.8823   44.0249 H   0  0  0  0  0  0  0  0  0  0  0  0
   44.4521   35.6641   43.7428 H   0  0  0  0  0  0  0  0  0  0  0  0
   47.1726   31.7695   47.5471 H   0  0  0  0  0  0  0  0  0  0  0  0
   45.2099   29.8690   48.0013 H   0  0  0  0  0  0  0  0  0  0  0  0
   44.6092   30.7212   46.5386 H   0  0  0  0  0  0  0  0  0  0  0  0
   46.2463   29.9821   46.5386 H   0  0  0  0  0  0  0  0  0  0  0  0
   46.5193   31.6480   49.7737 H   0  0  0  0  0  0  0  0  0  0  0  0
   45.3847   32.9705   49.3376 H   0  0  0  0  0  0  0  0  0  0  0  0
   44.8192   31.2656   49.3376 H   0  0  0  0  0  0  0  0  0  0  0  0
  1 13  1  0
  3  2  2  0
  3  1  1  0
  4  3  1  0
  5  6  1  0
  5  4  2  0
  6  7  2  0
  7  2  1  0
  8  1  1  0
  9  8  2  0
 10  9  1  0
 11 10  2  0
 11 12  1  0
 12  8  1  0
 13 14  1  0
 14 18  1  0
 14 15  2  0
 15 16  1  0
 17 16  1  0
 17 19  1  0
 18 17  2  0
 19 21  1  0
 20 19  1  0
  1 22  1  1
  2 23  1  0
  4 24  1  0
  6 25  1  0
  9 26  1  0
 11 27  1  0
 12 28  1  0
 13 29  1  0
 13 30  1  0
 19 31  1  0
 20 32  1  0
 20 33  1  0
 20 34  1  0
 21 35  1  0
 21 36  1  0
 21 37  1  0
M  ISO  8  22   8  23  14  24  14  25  14  26  14  27  14  28   9  29   8
M  ISO  8  30   8  31   8  32   8  33   8  34   8  35   8  36   8  37   8
M  END
>  <minimizedAffinity>  (1) 
-5.076684

>  <minimizedRMSD>  (1) 
3.82318902

$$$$
