
     RDKit          3D

 39 42  0  0  1  0  0  0  0  0999 V2000
   45.1490   33.4820   41.4670 C   0  0  1  0  0  0  0  0  0  0  0  0
   46.9630   34.9500   42.1420 C   0  0  0  0  0  0  0  0  0  0  0  0
   46.4420   34.1370   41.1310 C   0  0  0  0  0  0  0  0  0  0  0  0
   47.1190   34.0090   39.9470 C   0  0  0  0  0  0  0  0  0  0  0  0
   48.2680   34.6960   39.8460 N   0  0  0  0  0  0  0  0  0  0  0  0
   48.7890   35.4850   40.8040 C   0  0  0  0  0  0  0  0  0  0  0  0
   48.1280   35.6050   41.9520 N   0  0  0  0  0  0  0  0  0  0  0  0
   44.1180   33.9820   40.5840 C   0  0  0  0  0  0  0  0  0  0  0  0
   43.3830   35.1570   40.5540 C   0  0  0  0  0  0  0  0  0  0  0  0
   42.5150   35.1060   39.5030 N   0  0  0  0  0  0  0  0  0  0  0  0
   42.6840   33.9320   38.8720 C   0  0  0  0  0  0  0  0  0  0  0  0
   43.6470   33.2540   39.5190 N   0  0  0  0  0  0  0  0  0  0  0  0
   45.3500   32.0080   41.3610 C   0  0  0  0  0  0  0  0  0  0  0  0
   45.9740   31.5040   42.6410 C   0  0  0  0  0  0  0  0  0  0  0  0
   47.0890   30.7780   42.8300 N   0  0  0  0  0  0  0  0  0  0  0  0
   47.2610   30.5660   44.1000 O   0  0  0  0  0  0  0  0  0  0  0  0
   46.2770   31.1380   44.7890 C   0  0  0  0  0  0  0  0  0  0  0  0
   45.4620   31.7310   43.8710 N   0  0  0  0  0  0  0  0  0  0  0  0
   45.9860   31.2100   46.1790 N   0  0  0  0  0  0  0  0  0  0  0  0
   46.6030   32.2530   46.8060 C   0  0  0  0  0  0  0  0  0  0  0  0
   46.4140   32.4510   48.1630 C   0  0  0  0  0  0  0  0  0  0  0  0
   45.5780   31.5410   48.8210 C   0  0  0  0  0  0  0  0  0  0  0  0
   45.3350   31.6830   50.2290 N   0  0  0  0  0  0  0  0  0  0  0  0
   44.9840   30.5220   48.1720 N   0  0  0  0  0  0  0  0  0  0  0  0
   45.1830   30.3430   46.8340 C   0  0  0  0  0  0  0  0  0  0  0  0
   44.6770   29.4270   46.1340 O   0  0  0  0  0  0  0  0  0  0  0  0
   44.8203   33.7106   42.4915 H   0  0  0  0  0  0  0  0  0  0  0  0
   46.4226   35.0562   43.0942 H   0  0  0  0  0  0  0  0  0  0  0  0
   46.7430   33.3799   39.1267 H   0  0  0  0  0  0  0  0  0  0  0  0
   49.7378   36.0173   40.6416 H   0  0  0  0  0  0  0  0  0  0  0  0
   43.4833   35.9932   41.2616 H   0  0  0  0  0  0  0  0  0  0  0  0
   42.1328   33.5875   37.9846 H   0  0  0  0  0  0  0  0  0  0  0  0
   43.9850   32.3181   39.2531 H   0  0  0  0  0  0  0  0  0  0  0  0
   44.3799   31.5138   41.2040 H   0  0  0  0  0  0  0  0  0  0  0  0
   46.0112   31.7830   40.5112 H   0  0  0  0  0  0  0  0  0  0  0  0
   47.2493   32.9352   46.2343 H   0  0  0  0  0  0  0  0  0  0  0  0
   46.8968   33.2822   48.6978 H   0  0  0  0  0  0  0  0  0  0  0  0
   44.7203   31.0148   50.7155 H   0  0  0  0  0  0  0  0  0  0  0  0
   45.7753   32.4530   50.7525 H   0  0  0  0  0  0  0  0  0  0  0  0
  3  1  1  0
  3  2  2  0
  4  3  1  0
  5  4  2  0
  5  6  1  0
  6  7  2  0
  7  2  1  0
  8  1  1  0
  9  8  2  0
 10  9  1  0
 11 10  2  0
 11 12  1  0
 12  8  1  0
 13  1  1  0
 13 14  1  0
 14 15  2  0
 14 18  1  0
 15 16  1  0
 16 17  1  0
 17 19  1  0
 18 17  2  0
 19 20  1  0
 19 25  1  0
 20 21  2  0
 21 22  1  0
 22 23  1  0
 24 22  2  0
 25 24  1  0
 26 25  2  0
  1 27  1  1
  2 28  1  0
  4 29  1  0
  6 30  1  0
  9 31  1  0
 11 32  1  0
 12 33  1  0
 13 34  1  0
 13 35  1  0
 20 36  1  0
 21 37  1  0
 23 38  1  0
 23 39  1  0
M  ISO  8  27   8  28  14  29  14  30  14  31  14  32  14  33   9  34   8
M  ISO  3  35   8  36  14  37  14
M  END
>  <minimizedAffinity>  (1) 
-5.42674971

>  <minimizedRMSD>  (1) 
4.99146795

$$$$
