
     RDKit          3D

 38 41  0  0  1  0  0  0  0  0999 V2000
   45.2880   33.5680   41.6000 C   0  0  1  0  0  0  0  0  0  0  0  0
   47.1090   35.0500   42.2410 C   0  0  0  0  0  0  0  0  0  0  0  0
   46.5700   34.2350   41.2410 C   0  0  0  0  0  0  0  0  0  0  0  0
   47.2220   34.1130   40.0420 C   0  0  0  0  0  0  0  0  0  0  0  0
   48.3620   34.8070   39.9150 N   0  0  0  0  0  0  0  0  0  0  0  0
   48.9000   35.5970   40.8640 C   0  0  0  0  0  0  0  0  0  0  0  0
   48.2620   35.7100   42.0240 N   0  0  0  0  0  0  0  0  0  0  0  0
   44.2550   33.9900   40.6800 C   0  0  0  0  0  0  0  0  0  0  0  0
   43.4680   35.1280   40.5970 C   0  0  0  0  0  0  0  0  0  0  0  0
   42.6240   34.9960   39.5240 N   0  0  0  0  0  0  0  0  0  0  0  0
   42.8640   33.8110   38.9400 C   0  0  0  0  0  0  0  0  0  0  0  0
   43.8420   33.2050   39.6320 N   0  0  0  0  0  0  0  0  0  0  0  0
   45.5260   32.0950   41.5840 C   0  0  0  0  0  0  0  0  0  0  0  0
   46.1610   31.6810   42.8860 C   0  0  0  0  0  0  0  0  0  0  0  0
   47.3750   31.1680   43.1340 N   0  0  0  0  0  0  0  0  0  0  0  0
   47.5150   30.9560   44.4000 O   0  0  0  0  0  0  0  0  0  0  0  0
   46.4120   31.3170   45.0360 C   0  0  0  0  0  0  0  0  0  0  0  0
   45.5480   31.7770   44.0860 N   0  0  0  0  0  0  0  0  0  0  0  0
   46.0470   31.2930   46.4010 N   0  0  0  0  0  0  0  0  0  0  0  0
   46.5540   32.2730   47.1730 C   0  0  0  0  0  0  0  0  0  0  0  0
   46.2470   32.3220   48.5160 C   0  0  0  0  0  0  0  0  0  0  0  0
   45.4120   31.3370   49.0190 C   0  0  0  0  0  0  0  0  0  0  0  0
   45.1280   31.3700   50.2280 O   0  0  0  0  0  0  0  0  0  0  0  0
   44.9340   30.3840   48.2140 N   0  0  0  0  0  0  0  0  0  0  0  0
   45.2380   30.3390   46.8890 C   0  0  0  0  0  0  0  0  0  0  0  0
   44.7900   29.4450   46.1340 O   0  0  0  0  0  0  0  0  0  0  0  0
   44.9413   33.8482   42.6056 H   0  0  0  0  0  0  0  0  0  0  0  0
   46.5905   35.1520   43.2058 H   0  0  0  0  0  0  0  0  0  0  0  0
   46.8322   33.4816   39.2299 H   0  0  0  0  0  0  0  0  0  0  0  0
   49.8426   36.1344   40.6835 H   0  0  0  0  0  0  0  0  0  0  0  0
   43.5128   35.9914   41.2771 H   0  0  0  0  0  0  0  0  0  0  0  0
   42.3514   33.4089   38.0537 H   0  0  0  0  0  0  0  0  0  0  0  0
   44.2296   32.2776   39.4073 H   0  0  0  0  0  0  0  0  0  0  0  0
   44.5681   31.5690   41.4583 H   0  0  0  0  0  0  0  0  0  0  0  0
   46.1943   31.8379   40.7490 H   0  0  0  0  0  0  0  0  0  0  0  0
   47.2135   33.0348   46.7317 H   0  0  0  0  0  0  0  0  0  0  0  0
   46.6500   33.1138   49.1645 H   0  0  0  0  0  0  0  0  0  0  0  0
   44.3160   29.6608   48.6090 H   0  0  0  0  0  0  0  0  0  0  0  0
  3  1  1  0
  3  2  2  0
  4  3  1  0
  5  4  2  0
  5  6  1  0
  6  7  2  0
  7  2  1  0
  8  1  1  0
  9  8  2  0
 10  9  1  0
 11 10  2  0
 11 12  1  0
 12  8  1  0
 13  1  1  0
 13 14  1  0
 14 15  2  0
 14 18  1  0
 15 16  1  0
 16 17  1  0
 17 19  1  0
 18 17  2  0
 19 25  1  0
 19 20  1  0
 20 21  2  0
 21 22  1  0
 22 23  2  0
 24 22  1  0
 25 24  1  0
 26 25  2  0
  1 27  1  1
  2 28  1  0
  4 29  1  0
  6 30  1  0
  9 31  1  0
 11 32  1  0
 12 33  1  0
 13 34  1  0
 13 35  1  0
 20 36  1  0
 21 37  1  0
 24 38  1  0
M  ISO  8  27   8  28  14  29  14  30  14  31  14  32  14  33   9  34   8
M  ISO  4  35   8  36  14  37  14  38   9
M  END
>  <minimizedAffinity>  (1) 
-5.25688553

>  <minimizedRMSD>  (1) 
4.81495714

$$$$
