
     RDKit          3D

 41 44  0  0  1  0  0  0  0  0999 V2000
   46.4480   32.9740   44.2160 C   0  0  1  0  0  0  0  0  0  0  0  0
   45.1290   34.9960   43.9150 C   0  0  0  0  0  0  0  0  0  0  0  0
   45.4110   33.7090   43.4410 C   0  0  0  0  0  0  0  0  0  0  0  0
   44.7340   33.2290   42.3520 C   0  0  0  0  0  0  0  0  0  0  0  0
   43.8250   34.0520   41.8060 N   0  0  0  0  0  0  0  0  0  0  0  0
   43.5390   35.2870   42.2430 C   0  0  0  0  0  0  0  0  0  0  0  0
   44.2030   35.7630   43.3140 N   0  0  0  0  0  0  0  0  0  0  0  0
   47.7130   33.0590   43.5130 C   0  0  0  0  0  0  0  0  0  0  0  0
   48.5120   32.1240   42.8700 C   0  0  0  0  0  0  0  0  0  0  0  0
   49.6220   32.7530   42.3920 N   0  0  0  0  0  0  0  0  0  0  0  0
   49.5450   34.0550   42.7140 C   0  0  0  0  0  0  0  0  0  0  0  0
   48.3980   34.2420   43.3870 N   0  0  0  0  0  0  0  0  0  0  0  0
   46.4930   33.5620   45.5840 C   0  0  0  0  0  0  0  0  0  0  0  0
   45.9060   32.5660   46.5590 C   0  0  0  0  0  0  0  0  0  0  0  0
   45.2830   32.7840   47.7350 N   0  0  0  0  0  0  0  0  0  0  0  0
   44.9330   31.6330   48.2520 O   0  0  0  0  0  0  0  0  0  0  0  0
   45.3040   30.6570   47.4540 C   0  0  0  0  0  0  0  0  0  0  0  0
   45.9210   31.2260   46.3790 N   0  0  0  0  0  0  0  0  0  0  0  0
   45.1150   29.2060   47.6390 C   0  0  0  0  0  0  0  0  0  0  0  0
   46.4430   28.4850   47.4570 C   0  0  0  0  0  0  0  0  0  0  0  0
   45.9780   27.0260   47.3660 C   0  0  0  0  0  0  0  0  0  0  0  0
   44.5940   27.0990   46.7470 C   0  0  0  0  0  0  0  0  0  0  0  0
   44.2920   28.5700   46.5600 C   0  0  0  0  0  0  0  0  0  0  0  0
   46.2149   31.9035   44.3146 H   0  0  0  0  0  0  0  0  0  0  0  0
   45.6717   35.3840   44.7896 H   0  0  0  0  0  0  0  0  0  0  0  0
   44.9245   32.2242   41.9468 H   0  0  0  0  0  0  0  0  0  0  0  0
   42.7776   35.8990   41.7372 H   0  0  0  0  0  0  0  0  0  0  0  0
   48.2865   31.0526   42.7639 H   0  0  0  0  0  0  0  0  0  0  0  0
   50.2879   34.8288   42.4702 H   0  0  0  0  0  0  0  0  0  0  0  0
   48.0767   35.1478   43.7574 H   0  0  0  0  0  0  0  0  0  0  0  0
   47.5355   33.7794   45.8594 H   0  0  0  0  0  0  0  0  0  0  0  0
   45.9144   34.4972   45.6094 H   0  0  0  0  0  0  0  0  0  0  0  0
   44.6503   29.1178   48.6321 H   0  0  0  0  0  0  0  0  0  0  0  0
   46.9524   28.8042   46.5358 H   0  0  0  0  0  0  0  0  0  0  0  0
   47.1749   28.6773   48.2553 H   0  0  0  0  0  0  0  0  0  0  0  0
   46.6576   26.4416   46.7283 H   0  0  0  0  0  0  0  0  0  0  0  0
   45.9684   26.5309   48.3482 H   0  0  0  0  0  0  0  0  0  0  0  0
   44.5825   26.5810   45.7766 H   0  0  0  0  0  0  0  0  0  0  0  0
   43.8425   26.6138   47.3872 H   0  0  0  0  0  0  0  0  0  0  0  0
   44.6044   28.9171   45.5641 H   0  0  0  0  0  0  0  0  0  0  0  0
   43.2206   28.8108   46.6242 H   0  0  0  0  0  0  0  0  0  0  0  0
  1 13  1  0
  3  2  2  0
  3  1  1  0
  4  3  1  0
  5  6  1  0
  5  4  2  0
  6  7  2  0
  7  2  1  0
  8  1  1  0
  9  8  2  0
 10 11  2  0
 10  9  1  0
 11 12  1  0
 12  8  1  0
 13 14  1  0
 14 15  2  0
 15 16  1  0
 17 19  1  0
 17 16  1  0
 18 14  1  0
 18 17  2  0
 20 19  1  0
 21 20  1  0
 22 21  1  0
 23 22  1  0
 23 19  1  0
  1 24  1  1
  2 25  1  0
  4 26  1  0
  6 27  1  0
  9 28  1  0
 11 29  1  0
 12 30  1  0
 13 31  1  0
 13 32  1  0
 19 33  1  0
 20 34  1  0
 20 35  1  0
 21 36  1  0
 21 37  1  0
 22 38  1  0
 22 39  1  0
 23 40  1  0
 23 41  1  0
M  ISO  8  24   8  25  14  26  14  27  14  28  14  29  14  30   9  31   8
M  ISO  8  32   8  33  13  34  13  35  13  36  13  37  13  38  13  39  13
M  ISO  2  40  13  41  13
M  END
>  <minimizedAffinity>  (1) 
-5.16412973

>  <minimizedRMSD>  (1) 
3.47269654

$$$$
