
     RDKit          3D

 30 32  0  0  1  0  0  0  0  0999 V2000
   45.8740   32.7550   45.0270 C   0  0  1  0  0  0  0  0  0  0  0  0
   44.8690   34.9640   45.1480 C   0  0  0  0  0  0  0  0  0  0  0  0
   45.6480   34.0810   44.3930 C   0  0  0  0  0  0  0  0  0  0  0  0
   46.1190   34.4710   43.1640 C   0  0  0  0  0  0  0  0  0  0  0  0
   45.7870   35.7120   42.7710 N   0  0  0  0  0  0  0  0  0  0  0  0
   45.0390   36.5770   43.4820 C   0  0  0  0  0  0  0  0  0  0  0  0
   44.5760   36.1930   44.6890 N   0  0  0  0  0  0  0  0  0  0  0  0
   46.5190   31.8750   44.0720 C   0  0  0  0  0  0  0  0  0  0  0  0
   46.0350   30.9980   43.1120 C   0  0  0  0  0  0  0  0  0  0  0  0
   47.0960   30.3950   42.4960 N   0  0  0  0  0  0  0  0  0  0  0  0
   48.2210   30.8660   43.0380 C   0  0  0  0  0  0  0  0  0  0  0  0
   47.8830   31.7570   43.9870 N   0  0  0  0  0  0  0  0  0  0  0  0
   46.6770   32.9730   46.2580 C   0  0  0  0  0  0  0  0  0  0  0  0
   46.1140   32.1240   47.3750 C   0  0  0  0  0  0  0  0  0  0  0  0
   45.8070   32.4510   48.6410 N   0  0  0  0  0  0  0  0  0  0  0  0
   45.3440   31.4130   49.2630 O   0  0  0  0  0  0  0  0  0  0  0  0
   45.3300   30.3790   48.4440 C   0  0  0  0  0  0  0  0  0  0  0  0
   45.8140   30.8110   47.2430 N   0  0  0  0  0  0  0  0  0  0  0  0
   44.9250   28.9890   48.5890 C   0  0  0  0  0  0  0  0  0  0  0  0
   44.8770   28.1240   47.6740 O   0  0  0  0  0  0  0  0  0  0  0  0
   44.9318   32.2671   45.3170 H   0  0  0  0  0  0  0  0  0  0  0  0
   44.4907   34.6482   46.1314 H   0  0  0  0  0  0  0  0  0  0  0  0
   46.7323   33.8064   42.5377 H   0  0  0  0  0  0  0  0  0  0  0  0
   44.8101   37.5774   43.0860 H   0  0  0  0  0  0  0  0  0  0  0  0
   44.9740   30.8179   42.8844 H   0  0  0  0  0  0  0  0  0  0  0  0
   49.2445   30.5764   42.7578 H   0  0  0  0  0  0  0  0  0  0  0  0
   48.5546   32.2780   44.5687 H   0  0  0  0  0  0  0  0  0  0  0  0
   47.7228   32.6881   46.0705 H   0  0  0  0  0  0  0  0  0  0  0  0
   46.6355   34.0345   46.5434 H   0  0  0  0  0  0  0  0  0  0  0  0
   44.6317   28.6608   49.5971 H   0  0  0  0  0  0  0  0  0  0  0  0
  1 13  1  0
  3  1  1  0
  3  2  2  0
  4  3  1  0
  5  4  2  0
  5  6  1  0
  6  7  2  0
  7  2  1  0
  8  1  1  0
  9  8  2  0
 10 11  2  0
 10  9  1  0
 11 12  1  0
 12  8  1  0
 13 14  1  0
 14 15  2  0
 15 16  1  0
 17 19  1  0
 17 16  1  0
 18 14  1  0
 18 17  2  0
 20 19  2  0
  1 21  1  1
  2 22  1  0
  4 23  1  0
  6 24  1  0
  9 25  1  0
 11 26  1  0
 12 27  1  0
 13 28  1  0
 13 29  1  0
 19 30  1  0
M  ISO  8  21   8  22  14  23  14  24  14  25  14  26  14  27   9  28   8
M  ISO  2  29   8  30   6
M  END
>  <minimizedAffinity>  (1) 
-4.28579664

>  <minimizedRMSD>  (1) 
1.26212585

$$$$
