
     RDKit          3D

 26 28  0  0  0  0  0  0  0  0999 V2000
   44.5060   35.6310   45.1100 C   0  0  0  0  0  0  0  0  0  0  0  0
   44.3220   35.7200   43.7020 C   0  0  0  0  0  0  0  0  0  0  0  0
   44.8050   34.6700   42.9080 C   0  0  0  0  0  0  0  0  0  0  0  0
   45.4250   33.6230   43.5340 N   0  0  0  0  0  0  0  0  0  0  0  0
   45.5830   33.5670   44.8670 C   0  0  0  0  0  0  0  0  0  0  0  0
   45.1190   34.5760   45.6340 N   0  0  0  0  0  0  0  0  0  0  0  0
   46.2300   32.4660   45.4890 N   0  0  0  0  0  0  0  0  0  0  0  0
   47.0080   31.5540   44.8800 C   0  0  0  0  0  0  0  0  0  0  0  0
   47.4630   30.6380   45.7820 N   0  0  0  0  0  0  0  0  0  0  0  0
   46.9560   30.9920   46.9680 C   0  0  0  0  0  0  0  0  0  0  0  0
   47.1370   30.3600   48.1950 C   0  0  0  0  0  0  0  0  0  0  0  0
   46.5010   30.9400   49.2380 N   0  0  0  0  0  0  0  0  0  0  0  0
   45.7410   32.0550   49.0890 C   0  0  0  0  0  0  0  0  0  0  0  0
   45.5780   32.6550   47.8750 N   0  0  0  0  0  0  0  0  0  0  0  0
   46.1860   32.1270   46.7980 C   0  0  0  0  0  0  0  0  0  0  0  0
   44.6250   34.7430   41.4420 C   0  0  0  0  0  0  0  0  0  0  0  0
   45.9000   34.7650   40.9070 F   0  0  0  0  0  0  0  0  0  0  0  0
   43.9700   33.6240   40.9460 F   0  0  0  0  0  0  0  0  0  0  0  0
   43.9270   35.8770   41.0670 F   0  0  0  0  0  0  0  0  0  0  0  0
   47.9370   29.2020   48.3020 N   0  0  0  0  0  0  0  0  0  0  0  0
   44.1405   36.4360   45.7645 H   0  0  0  0  0  0  0  0  0  0  0  0
   43.8163   36.5860   43.2501 H   0  0  0  0  0  0  0  0  0  0  0  0
   47.2442   31.5477   43.8057 H   0  0  0  0  0  0  0  0  0  0  0  0
   45.2436   32.4859   49.9705 H   0  0  0  0  0  0  0  0  0  0  0  0
   48.0619   28.7450   49.2166 H   0  0  0  0  0  0  0  0  0  0  0  0
   48.3959   28.8140   47.4655 H   0  0  0  0  0  0  0  0  0  0  0  0
  1  6  2  0
  2  1  1  0
  3  4  1  0
  3  2  2  0
  4  5  2  0
  5  7  1  0
  5  6  1  0
  7 15  1  0
  8  7  1  0
  8  9  2  0
  9 10  1  0
 10 11  2  0
 11 20  1  0
 11 12  1  0
 13 12  2  0
 14 13  1  0
 15 10  1  0
 15 14  2  0
 16  3  1  0
 17 16  1  0
 18 16  1  0
 19 16  1  0
  1 21  1  0
  2 22  1  0
  8 23  1  0
 13 24  1  0
 20 25  1  0
 20 26  1  0
M  ISO  4  21  14  22  14  23  14  24  14
M  END
>  <minimizedAffinity>  (1) 
-6.07876587

>  <minimizedRMSD>  (1) 
2.29205036

$$$$
