
     RDKit          3D

 24 26  0  0  0  0  0  0  0  0999 V2000
   45.0100   35.3950   44.1060 C   0  0  0  0  0  0  0  0  0  0  0  0
   45.8380   35.5500   42.9560 C   0  0  0  0  0  0  0  0  0  0  0  0
   46.8700   34.6340   42.7730 C   0  0  0  0  0  0  0  0  0  0  0  0
   47.0290   33.6530   43.6930 N   0  0  0  0  0  0  0  0  0  0  0  0
   46.2270   33.5320   44.7760 C   0  0  0  0  0  0  0  0  0  0  0  0
   45.2320   34.4050   44.9640 N   0  0  0  0  0  0  0  0  0  0  0  0
   46.6200   32.4190   45.5700 N   0  0  0  0  0  0  0  0  0  0  0  0
   47.4120   31.4850   44.9860 C   0  0  0  0  0  0  0  0  0  0  0  0
   47.6860   30.4990   45.8890 N   0  0  0  0  0  0  0  0  0  0  0  0
   47.0710   30.8050   47.0440 C   0  0  0  0  0  0  0  0  0  0  0  0
   46.9310   30.2680   48.3160 C   0  0  0  0  0  0  0  0  0  0  0  0
   46.1910   30.9170   49.2330 N   0  0  0  0  0  0  0  0  0  0  0  0
   45.5620   32.0880   48.9810 C   0  0  0  0  0  0  0  0  0  0  0  0
   45.6780   32.6440   47.7410 N   0  0  0  0  0  0  0  0  0  0  0  0
   46.4160   31.9940   46.8290 C   0  0  0  0  0  0  0  0  0  0  0  0
   47.7530   34.7750   41.5730 C   0  0  0  0  0  0  0  0  0  0  0  0
   48.3510   36.0020   41.7030 F   0  0  0  0  0  0  0  0  0  0  0  0
   48.7330   33.7940   41.5440 F   0  0  0  0  0  0  0  0  0  0  0  0
   47.0150   34.7070   40.4010 F   0  0  0  0  0  0  0  0  0  0  0  0
   44.1832   36.0984   44.2840 H   0  0  0  0  0  0  0  0  0  0  0  0
   45.6672   36.3655   42.2378 H   0  0  0  0  0  0  0  0  0  0  0  0
   47.7759   31.5173   43.9484 H   0  0  0  0  0  0  0  0  0  0  0  0
   47.4220   29.3177   48.5728 H   0  0  0  0  0  0  0  0  0  0  0  0
   44.9673   32.5831   49.7627 H   0  0  0  0  0  0  0  0  0  0  0  0
  1  6  2  0
  2  1  1  0
  3  2  2  0
  3  4  1  0
  4  5  2  0
  5  6  1  0
  5  7  1  0
  7 15  1  0
  8  7  1  0
  8  9  2  0
  9 10  1  0
 10 11  2  0
 11 12  1  0
 13 12  2  0
 14 13  1  0
 15 10  1  0
 15 14  2  0
 16 17  1  0
 16  3  1  0
 18 16  1  0
 19 16  1  0
  1 20  1  0
  2 21  1  0
  8 22  1  0
 11 23  1  0
 13 24  1  0
M  ISO  5  20  14  21  14  22  14  23  14  24  14
M  END
>  <minimizedAffinity>  (1) 
-5.82420778

>  <minimizedRMSD>  (1) 
1.06630361

$$$$
