
     RDKit          3D

 23 24  0  0  0  0  0  0  0  0999 V2000
   44.4940   35.8530   44.7100 C   0  0  0  0  0  0  0  0  0  0  0  0
   45.1770   35.7750   43.4630 C   0  0  0  0  0  0  0  0  0  0  0  0
   46.1160   34.7480   43.3100 C   0  0  0  0  0  0  0  0  0  0  0  0
   46.3200   33.9020   44.3410 N   0  0  0  0  0  0  0  0  0  0  0  0
   45.6560   34.0030   45.5130 C   0  0  0  0  0  0  0  0  0  0  0  0
   44.7580   34.9660   45.6880 N   0  0  0  0  0  0  0  0  0  0  0  0
   45.9420   33.0430   46.5710 C   0  0  0  0  0  0  0  0  0  0  0  0
   47.0260   32.1950   46.4860 C   0  0  0  0  0  0  0  0  0  0  0  0
   47.4170   31.2520   47.3910 C   0  0  0  0  0  0  0  0  0  0  0  0
   46.5980   31.1630   48.5220 C   0  0  0  0  0  0  0  0  0  0  0  0
   45.4830   31.9780   48.6950 C   0  0  0  0  0  0  0  0  0  0  0  0
   45.1720   32.9130   47.7050 C   0  0  0  0  0  0  0  0  0  0  0  0
   46.8520   34.6290   42.0250 C   0  0  0  0  0  0  0  0  0  0  0  0
   47.7070   35.7250   41.9920 F   0  0  0  0  0  0  0  0  0  0  0  0
   47.6360   33.4990   41.9620 F   0  0  0  0  0  0  0  0  0  0  0  0
   46.0070   34.6610   40.9350 F   0  0  0  0  0  0  0  0  0  0  0  0
   43.7462   36.6426   44.8753 H   0  0  0  0  0  0  0  0  0  0  0  0
   44.9752   36.4919   42.6535 H   0  0  0  0  0  0  0  0  0  0  0  0
   47.6478   32.2899   45.5836 H   0  0  0  0  0  0  0  0  0  0  0  0
   48.3018   30.6151   47.2439 H   0  0  0  0  0  0  0  0  0  0  0  0
   46.8433   30.4249   49.2998 H   0  0  0  0  0  0  0  0  0  0  0  0
   44.8578   31.8874   49.5955 H   0  0  0  0  0  0  0  0  0  0  0  0
   44.2920   33.5602   47.8343 H   0  0  0  0  0  0  0  0  0  0  0  0
  1  6  2  0
  2  1  1  0
  3  2  2  0
  3  4  1  0
  4  5  2  0
  5  6  1  0
  5  7  1  0
  7 12  1  0
  8  7  2  0
  8  9  1  0
  9 10  2  0
 10 11  1  0
 12 11  2  0
 13  3  1  0
 14 13  1  0
 15 13  1  0
 16 13  1  0
  1 17  1  0
  2 18  1  0
  8 19  1  0
  9 20  1  0
 10 21  1  0
 11 22  1  0
 12 23  1  0
M  ISO  7  17  14  18  14  19  14  20  14  21  14  22  14  23  14
M  END
>  <minimizedAffinity>  (1) 
-5.58568811

>  <minimizedRMSD>  (1) 
0.768523395

$$$$
