
     RDKit          3D

 20 21  0  0  0  0  0  0  0  0999 V2000
   44.5360   36.0670   44.2750 C   0  0  0  0  0  0  0  0  0  0  0  0
   45.3470   35.9150   43.1220 C   0  0  0  0  0  0  0  0  0  0  0  0
   46.2780   34.8730   43.1090 C   0  0  0  0  0  0  0  0  0  0  0  0
   46.3480   34.0680   44.2040 N   0  0  0  0  0  0  0  0  0  0  0  0
   45.5670   34.2310   45.2870 C   0  0  0  0  0  0  0  0  0  0  0  0
   44.6800   35.2230   45.3040 N   0  0  0  0  0  0  0  0  0  0  0  0
   45.7030   33.3250   46.4230 C   0  0  0  0  0  0  0  0  0  0  0  0
   46.6280   32.3070   46.5270 C   0  0  0  0  0  0  0  0  0  0  0  0
   46.4150   31.7200   47.7180 N   0  0  0  0  0  0  0  0  0  0  0  0
   45.3850   32.3470   48.3520 C   0  0  0  0  0  0  0  0  0  0  0  0
   44.9530   33.3370   47.5410 N   0  0  0  0  0  0  0  0  0  0  0  0
   47.1460   34.6860   41.9210 C   0  0  0  0  0  0  0  0  0  0  0  0
   47.9520   35.8180   41.8760 F   0  0  0  0  0  0  0  0  0  0  0  0
   47.9840   33.5960   42.0470 F   0  0  0  0  0  0  0  0  0  0  0  0
   46.4200   34.5960   40.7640 F   0  0  0  0  0  0  0  0  0  0  0  0
   43.7914   36.8752   44.3238 H   0  0  0  0  0  0  0  0  0  0  0  0
   45.2464   36.5963   42.2642 H   0  0  0  0  0  0  0  0  0  0  0  0
   47.3893   32.0301   45.7829 H   0  0  0  0  0  0  0  0  0  0  0  0
   44.9795   32.0935   49.3426 H   0  0  0  0  0  0  0  0  0  0  0  0
   44.1820   33.9893   47.7432 H   0  0  0  0  0  0  0  0  0  0  0  0
  1  6  2  0
  2  1  1  0
  3  2  2  0
  3  4  1  0
  4  5  2  0
  5  6  1  0
  5  7  1  0
  7  8  2  0
  7 11  1  0
  8  9  1  0
  9 10  2  0
 11 10  1  0
 12 14  1  0
 12  3  1  0
 13 12  1  0
 15 12  1  0
  1 16  1  0
  2 17  1  0
  8 18  1  0
 10 19  1  0
 11 20  1  0
M  ISO  5  16  14  17  14  18  14  19  14  20   9
M  END
>  <minimizedAffinity>  (1) 
-5.5364666

>  <minimizedRMSD>  (1) 
0.269037277

$$$$
