
     RDKit          3D

 29 30  0  0  0  0  0  0  0  0999 V2000
   44.5740   35.6700   44.8370 C   0  0  0  0  0  0  0  0  0  0  0  0
   45.2060   35.6800   43.5560 C   0  0  0  0  0  0  0  0  0  0  0  0
   46.1640   34.6890   43.3090 C   0  0  0  0  0  0  0  0  0  0  0  0
   46.4330   33.7900   44.2880 N   0  0  0  0  0  0  0  0  0  0  0  0
   45.8100   33.8180   45.4910 C   0  0  0  0  0  0  0  0  0  0  0  0
   44.8950   34.7530   45.7420 N   0  0  0  0  0  0  0  0  0  0  0  0
   46.1650   32.7920   46.5130 C   0  0  0  0  0  0  0  0  0  0  0  0
   45.1850   32.8780   47.6270 C   0  0  0  0  0  0  0  0  0  0  0  0
   45.1110   31.6960   48.5320 C   0  0  0  0  0  0  0  0  0  0  0  0
   45.1820   30.3940   47.7550 C   0  0  0  0  0  0  0  0  0  0  0  0
   46.5300   30.4350   47.0260 C   0  0  0  0  0  0  0  0  0  0  0  0
   46.3010   31.4230   45.8960 C   0  0  0  0  0  0  0  0  0  0  0  0
   46.8490   34.6610   41.9830 C   0  0  0  0  0  0  0  0  0  0  0  0
   47.6790   35.7770   41.9790 F   0  0  0  0  0  0  0  0  0  0  0  0
   47.6420   33.5450   41.8320 F   0  0  0  0  0  0  0  0  0  0  0  0
   45.9500   34.7350   40.9400 F   0  0  0  0  0  0  0  0  0  0  0  0
   43.8144   36.4289   45.0759 H   0  0  0  0  0  0  0  0  0  0  0  0
   44.9511   36.4337   42.7964 H   0  0  0  0  0  0  0  0  0  0  0  0
   47.1597   32.9916   46.9382 H   0  0  0  0  0  0  0  0  0  0  0  0
   45.4488   33.7531   48.2390 H   0  0  0  0  0  0  0  0  0  0  0  0
   44.1979   32.9423   47.1459 H   0  0  0  0  0  0  0  0  0  0  0  0
   45.9514   31.7354   49.2406 H   0  0  0  0  0  0  0  0  0  0  0  0
   44.1483   31.7283   49.0633 H   0  0  0  0  0  0  0  0  0  0  0  0
   45.1392   29.5336   48.4390 H   0  0  0  0  0  0  0  0  0  0  0  0
   44.3394   30.2854   47.0562 H   0  0  0  0  0  0  0  0  0  0  0  0
   47.3279   30.7854   47.6972 H   0  0  0  0  0  0  0  0  0  0  0  0
   46.8499   29.4455   46.6675 H   0  0  0  0  0  0  0  0  0  0  0  0
   45.3816   31.1636   45.3506 H   0  0  0  0  0  0  0  0  0  0  0  0
   47.1396   31.3998   45.1846 H   0  0  0  0  0  0  0  0  0  0  0  0
  1  6  2  0
  2  1  1  0
  3  2  2  0
  3  4  1  0
  4  5  2  0
  5  6  1  0
  5  7  1  0
  7  8  1  0
  8  9  1  0
 10  9  1  0
 11 10  1  0
 12  7  1  0
 12 11  1  0
 13  3  1  0
 14 13  1  0
 15 13  1  0
 16 13  1  0
  1 17  1  0
  2 18  1  0
  7 19  1  0
  8 20  1  0
  8 21  1  0
  9 22  1  0
  9 23  1  0
 10 24  1  0
 10 25  1  0
 11 26  1  0
 11 27  1  0
 12 28  1  0
 12 29  1  0
M  ISO  8  17  14  18  14  19  13  20  13  21  13  22  13  23  13  24  13
M  ISO  5  25  13  26  13  27  13  28  13  29  13
M  END
>  <minimizedAffinity>  (1) 
-5.47041845

>  <minimizedRMSD>  (1) 
1.13801181

$$$$
