
     RDKit          3D

 20 21  0  0  0  0  0  0  0  0999 V2000
   44.4890   36.0050   44.4690 C   0  0  0  0  0  0  0  0  0  0  0  0
   45.2260   35.8610   43.2710 C   0  0  0  0  0  0  0  0  0  0  0  0
   46.1580   34.8170   43.2070 C   0  0  0  0  0  0  0  0  0  0  0  0
   46.3070   34.0040   44.2800 N   0  0  0  0  0  0  0  0  0  0  0  0
   45.5820   34.1730   45.4110 C   0  0  0  0  0  0  0  0  0  0  0  0
   44.6880   35.1650   45.4890 N   0  0  0  0  0  0  0  0  0  0  0  0
   45.7670   33.2990   46.5180 N   0  0  0  0  0  0  0  0  0  0  0  0
   45.0650   33.0140   47.6040 N   0  0  0  0  0  0  0  0  0  0  0  0
   45.7040   32.0950   48.3440 C   0  0  0  0  0  0  0  0  0  0  0  0
   46.9000   31.7510   47.7100 C   0  0  0  0  0  0  0  0  0  0  0  0
   46.8920   32.5320   46.5700 C   0  0  0  0  0  0  0  0  0  0  0  0
   46.9530   34.6420   41.9530 C   0  0  0  0  0  0  0  0  0  0  0  0
   47.8170   35.7320   41.9170 F   0  0  0  0  0  0  0  0  0  0  0  0
   47.7240   33.5080   41.9970 F   0  0  0  0  0  0  0  0  0  0  0  0
   46.1670   34.6260   40.8360 F   0  0  0  0  0  0  0  0  0  0  0  0
   43.7480   36.8127   44.5619 H   0  0  0  0  0  0  0  0  0  0  0  0
   45.0734   36.5429   42.4214 H   0  0  0  0  0  0  0  0  0  0  0  0
   45.3438   31.6794   49.2967 H   0  0  0  0  0  0  0  0  0  0  0  0
   47.6643   31.0316   48.0389 H   0  0  0  0  0  0  0  0  0  0  0  0
   47.6857   32.5342   45.8083 H   0  0  0  0  0  0  0  0  0  0  0  0
  1  6  2  0
  2  1  1  0
  3  2  2  0
  3  4  1  0
  4  5  2  0
  5  6  1  0
  5  7  1  0
  7 11  1  0
  7  8  1  0
  8  9  2  0
 10  9  1  0
 11 10  2  0
 12 14  1  0
 12  3  1  0
 13 12  1  0
 15 12  1  0
  1 16  1  0
  2 17  1  0
  9 18  1  0
 10 19  1  0
 11 20  1  0
M  ISO  5  16  14  17  14  18  14  19  14  20  14
M  END
>  <minimizedAffinity>  (1) 
-5.3958621

>  <minimizedRMSD>  (1) 
0.256955981

$$$$
