
     RDKit          3D

 25 26  0  0  0  0  0  0  0  0999 V2000
   44.4940   35.8840   44.7210 C   0  0  0  0  0  0  0  0  0  0  0  0
   45.1660   35.7940   43.4690 C   0  0  0  0  0  0  0  0  0  0  0  0
   46.0820   34.7630   43.3050 C   0  0  0  0  0  0  0  0  0  0  0  0
   46.2790   33.9130   44.3350 N   0  0  0  0  0  0  0  0  0  0  0  0
   45.6300   34.0140   45.5160 C   0  0  0  0  0  0  0  0  0  0  0  0
   44.7520   34.9980   45.6830 N   0  0  0  0  0  0  0  0  0  0  0  0
   45.9030   33.0710   46.5440 N   0  0  0  0  0  0  0  0  0  0  0  0
   47.0670   32.1730   46.5450 C   0  0  0  0  0  0  0  0  0  0  0  0
   46.7780   31.1910   47.6800 C   0  0  0  0  0  0  0  0  0  0  0  0
   46.0960   32.1560   48.6580 C   0  0  0  0  0  0  0  0  0  0  0  0
   45.1100   32.8360   47.7340 C   0  0  0  0  0  0  0  0  0  0  0  0
   46.8020   34.6410   42.0060 C   0  0  0  0  0  0  0  0  0  0  0  0
   47.6840   35.7070   41.9700 F   0  0  0  0  0  0  0  0  0  0  0  0
   47.5400   33.4700   41.9280 F   0  0  0  0  0  0  0  0  0  0  0  0
   45.9360   34.6990   40.9320 F   0  0  0  0  0  0  0  0  0  0  0  0
   43.7610   36.6856   44.8947 H   0  0  0  0  0  0  0  0  0  0  0  0
   44.9671   36.5142   42.6617 H   0  0  0  0  0  0  0  0  0  0  0  0
   47.1537   31.6448   45.5840 H   0  0  0  0  0  0  0  0  0  0  0  0
   48.0161   32.7116   46.6836 H   0  0  0  0  0  0  0  0  0  0  0  0
   46.1058   30.3799   47.3635 H   0  0  0  0  0  0  0  0  0  0  0  0
   47.6516   30.6525   48.0759 H   0  0  0  0  0  0  0  0  0  0  0  0
   45.5860   31.6174   49.4703 H   0  0  0  0  0  0  0  0  0  0  0  0
   46.7817   32.8401   49.1793 H   0  0  0  0  0  0  0  0  0  0  0  0
   44.7497   33.7820   48.1644 H   0  0  0  0  0  0  0  0  0  0  0  0
   44.2042   32.2408   47.5459 H   0  0  0  0  0  0  0  0  0  0  0  0
  1  6  2  0
  2  1  1  0
  3  2  2  0
  3  4  1  0
  4  5  2  0
  5  6  1  0
  5  7  1  0
  7  8  1  0
  7 11  1  0
  8  9  1  0
  9 10  1  0
 11 10  1  0
 12  3  1  0
 13 12  1  0
 14 12  1  0
 15 12  1  0
  1 16  1  0
  2 17  1  0
  8 18  1  0
  8 19  1  0
  9 20  1  0
  9 21  1  0
 10 22  1  0
 10 23  1  0
 11 24  1  0
 11 25  1  0
M  ISO  8  16  14  17  14  18  13  19  13  20  13  21  13  22  13  23  13
M  ISO  2  24  13  25  13
M  END
>  <minimizedAffinity>  (1) 
-5.34269524

>  <minimizedRMSD>  (1) 
0.355240762

$$$$
