
     RDKit          3D

 39 42  0  0  1  0  0  0  0  0999 V2000
   44.6310   35.6790   44.8830 C   0  0  0  0  0  0  0  0  0  0  0  0
   45.2880   35.6810   43.6000 C   0  0  0  0  0  0  0  0  0  0  0  0
   46.1430   34.6400   43.3310 C   0  0  0  0  0  0  0  0  0  0  0  0
   46.3200   33.6710   44.2840 N   0  0  0  0  0  0  0  0  0  0  0  0
   45.6820   33.7150   45.4690 C   0  0  0  0  0  0  0  0  0  0  0  0
   44.8600   34.6990   45.7530 N   0  0  0  0  0  0  0  0  0  0  0  0
   45.9250   32.6420   46.4440 N   0  0  0  0  0  0  0  0  0  0  0  0
   45.2240   32.6750   47.7100 C   0  0  0  0  0  0  0  0  0  0  0  0
   46.0910   32.1510   48.8310 C   0  0  0  0  0  0  0  0  0  0  0  0
   47.5230   32.1220   48.4080 C   0  0  0  0  0  0  0  0  0  0  0  0
   47.6180   31.0850   47.2760 C   0  0  0  0  0  0  0  0  0  0  0  0
   46.8730   31.5640   46.1070 C   0  0  1  0  0  0  0  0  0  0  0  0
   46.1980   30.4850   45.3320 C   0  0  0  0  0  0  0  0  0  0  0  0
   46.7250   29.6410   44.4560 N   0  0  0  0  0  0  0  0  0  0  0  0
   45.8220   28.8200   43.9730 O   0  0  0  0  0  0  0  0  0  0  0  0
   44.6750   29.1450   44.5560 C   0  0  0  0  0  0  0  0  0  0  0  0
   44.8550   30.1780   45.4120 N   0  0  0  0  0  0  0  0  0  0  0  0
   43.1780   28.2480   44.1610 S   0  0  0  0  0  0  0  0  0  0  0  0
   42.1110   29.4210   43.3070 C   0  0  0  0  0  0  0  0  0  0  0  0
   42.0430   30.6340   42.7350 N   0  0  0  0  0  0  0  0  0  0  0  0
   40.8560   30.8540   42.2800 O   0  0  0  0  0  0  0  0  0  0  0  0
   40.0720   29.8040   42.5220 C   0  0  0  0  0  0  0  0  0  0  0  0
   40.8640   28.9160   43.1630 N   0  0  0  0  0  0  0  0  0  0  0  0
   38.6430   29.6670   42.1560 C   0  0  0  0  0  0  0  0  0  0  0  0
   38.0570   30.5330   41.4560 O   0  0  0  0  0  0  0  0  0  0  0  0
   37.9700   28.5460   42.6160 O   0  0  0  0  0  0  0  0  0  0  0  0
   43.9370   36.4916   45.1439 H   0  0  0  0  0  0  0  0  0  0  0  0
   45.1121   36.4823   42.8672 H   0  0  0  0  0  0  0  0  0  0  0  0
   46.6750   34.5852   42.3698 H   0  0  0  0  0  0  0  0  0  0  0  0
   44.9373   33.7131   47.9339 H   0  0  0  0  0  0  0  0  0  0  0  0
   44.3336   32.0340   47.6308 H   0  0  0  0  0  0  0  0  0  0  0  0
   45.9849   32.8059   49.7084 H   0  0  0  0  0  0  0  0  0  0  0  0
   45.7714   31.1291   49.0830 H   0  0  0  0  0  0  0  0  0  0  0  0
   47.8327   33.1127   48.0439 H   0  0  0  0  0  0  0  0  0  0  0  0
   48.1827   31.8585   49.2479 H   0  0  0  0  0  0  0  0  0  0  0  0
   48.6731   30.9371   47.0024 H   0  0  0  0  0  0  0  0  0  0  0  0
   47.1892   30.1312   47.6171 H   0  0  0  0  0  0  0  0  0  0  0  0
   47.6441   31.9832   45.4440 H   0  0  0  0  0  0  0  0  0  0  0  0
   37.0140   28.4167   42.3937 H   0  0  0  0  0  0  0  0  0  0  0  0
  1  6  2  0
  2  1  1  0
  3  2  2  0
  3  4  1  0
  4  5  2  0
  5  6  1  0
  5  7  1  0
  7  8  1  0
  8  9  1  0
 10  9  1  0
 11 10  1  0
 12  7  1  0
 12 11  1  0
 13 17  1  0
 13 12  1  0
 14 13  2  0
 15 14  1  0
 15 16  1  0
 16 17  2  0
 18 16  1  0
 19 18  1  0
 20 19  2  0
 21 22  1  0
 21 20  1  0
 22 23  2  0
 23 19  1  0
 24 22  1  0
 24 26  1  0
 25 24  2  0
  1 27  1  0
  2 28  1  0
  3 29  1  0
  8 30  1  0
  8 31  1  0
  9 32  1  0
  9 33  1  0
 10 34  1  0
 10 35  1  0
 11 36  1  0
 11 37  1  0
 12 38  1  6
 26 39  1  0
M  ISO  8  27  14  28  14  29  14  30  13  31  13  32  13  33  13  34  13
M  ISO  5  35  13  36  13  37  13  38  13  39   3
M  END
>  <minimizedAffinity>  (1) 
-5.54675293

>  <minimizedRMSD>  (1) 
4.12397575

$$$$
