
     RDKit          3D

 20 21  0  0  0  0  0  0  0  0999 V2000
   44.5220   35.9520   44.3080 C   0  0  0  0  0  0  0  0  0  0  0  0
   45.3330   35.8160   43.1510 C   0  0  0  0  0  0  0  0  0  0  0  0
   46.3060   34.8260   43.1380 C   0  0  0  0  0  0  0  0  0  0  0  0
   46.4280   34.0390   44.2400 N   0  0  0  0  0  0  0  0  0  0  0  0
   45.6480   34.1860   45.3250 C   0  0  0  0  0  0  0  0  0  0  0  0
   44.7060   35.1350   45.3550 N   0  0  0  0  0  0  0  0  0  0  0  0
   45.8310   33.3070   46.4760 C   0  0  0  0  0  0  0  0  0  0  0  0
   46.8320   32.4020   46.7570 C   0  0  0  0  0  0  0  0  0  0  0  0
   46.5040   31.8480   47.9770 C   0  0  0  0  0  0  0  0  0  0  0  0
   45.3610   32.3850   48.4210 N   0  0  0  0  0  0  0  0  0  0  0  0
   44.9690   33.2520   47.5220 N   0  0  0  0  0  0  0  0  0  0  0  0
   47.1640   34.6680   41.9380 C   0  0  0  0  0  0  0  0  0  0  0  0
   47.9510   35.8070   41.8920 F   0  0  0  0  0  0  0  0  0  0  0  0
   47.9900   33.5700   42.0250 F   0  0  0  0  0  0  0  0  0  0  0  0
   46.4100   34.5770   40.7770 F   0  0  0  0  0  0  0  0  0  0  0  0
   43.7428   36.7275   44.3456 H   0  0  0  0  0  0  0  0  0  0  0  0
   45.1937   36.4796   42.2849 H   0  0  0  0  0  0  0  0  0  0  0  0
   47.7104   32.1697   46.1369 H   0  0  0  0  0  0  0  0  0  0  0  0
   47.0917   31.0822   48.5043 H   0  0  0  0  0  0  0  0  0  0  0  0
   44.8806   32.1587   49.3035 H   0  0  0  0  0  0  0  0  0  0  0  0
  1  6  2  0
  2  1  1  0
  3  2  2  0
  3  4  1  0
  4  5  2  0
  5  6  1  0
  5  7  1  0
  7  8  1  0
  7 11  2  0
  8  9  2  0
  9 10  1  0
 11 10  1  0
 12 14  1  0
 12  3  1  0
 13 12  1  0
 15 12  1  0
  1 16  1  0
  2 17  1  0
  8 18  1  0
  9 19  1  0
 10 20  1  0
M  ISO  5  16  14  17  14  18  14  19  14  20   9
M  END
>  <minimizedAffinity>  (1) 
-5.18472624

>  <minimizedRMSD>  (1) 
0.327706397

$$$$
