
     RDKit          3D

 16 16  0  0  0  0  0  0  0  0999 V2000
   44.5920   35.9360   44.4000 C   0  0  0  0  0  0  0  0  0  0  0  0
   45.3830   35.8450   43.2330 C   0  0  0  0  0  0  0  0  0  0  0  0
   46.3250   34.8180   43.1380 C   0  0  0  0  0  0  0  0  0  0  0  0
   46.4180   33.9680   44.1810 N   0  0  0  0  0  0  0  0  0  0  0  0
   45.6630   34.0580   45.2920 C   0  0  0  0  0  0  0  0  0  0  0  0
   44.7540   35.0490   45.3820 N   0  0  0  0  0  0  0  0  0  0  0  0
   47.1650   34.7080   41.9180 C   0  0  0  0  0  0  0  0  0  0  0  0
   47.9460   35.8540   41.8980 F   0  0  0  0  0  0  0  0  0  0  0  0
   48.0100   33.6140   41.9830 F   0  0  0  0  0  0  0  0  0  0  0  0
   46.4050   34.6340   40.7800 F   0  0  0  0  0  0  0  0  0  0  0  0
   45.8510   33.0760   46.3640 C   0  0  0  0  0  0  0  0  0  0  0  0
   47.1290   33.1620   46.8870 F   0  0  0  0  0  0  0  0  0  0  0  0
   44.9190   33.3150   47.3760 F   0  0  0  0  0  0  0  0  0  0  0  0
   45.6540   31.7900   45.8630 F   0  0  0  0  0  0  0  0  0  0  0  0
   43.8443   36.7368   44.4982 H   0  0  0  0  0  0  0  0  0  0  0  0
   45.2594   36.5694   42.4145 H   0  0  0  0  0  0  0  0  0  0  0  0
  1  6  2  0
  2  1  1  0
  3  2  2  0
  3  4  1  0
  4  5  2  0
  5  6  1  0
  5 11  1  0
  7  9  1  0
  7  3  1  0
  8  7  1  0
 10  7  1  0
 11 12  1  0
 11 13  1  0
 14 11  1  0
  1 15  1  0
  2 16  1  0
M  ISO  2  15  14  16  14
M  END
>  <minimizedAffinity>  (1) 
-4.89970732

>  <minimizedRMSD>  (1) 
0.439216763

$$$$
