
     RDKit          3D

 30 32  0  0  1  0  0  0  0  0999 V2000
   46.9340   32.2690   45.5610 C   0  0  1  0  0  0  0  0  0  0  0  0
   47.0690   32.5220   47.0300 C   0  0  0  0  0  0  0  0  0  0  0  0
   45.8320   31.8720   46.4830 C   0  0  2  0  0  0  0  0  0  0  0  0
   45.6790   30.5000   46.9190 N   0  0  0  0  0  0  0  0  0  0  0  0
   46.0650   29.4370   46.2030 C   0  0  0  0  0  0  0  0  0  0  0  0
   45.8950   28.1320   46.6690 C   0  0  0  0  0  0  0  0  0  0  0  0
   45.3080   28.0310   47.9030 C   0  0  0  0  0  0  0  0  0  0  0  0
   45.1210   26.8810   48.3930 O   0  0  0  0  0  0  0  0  0  0  0  0
   44.9100   29.0690   48.6480 N   0  0  0  0  0  0  0  0  0  0  0  0
   45.1100   30.2930   48.1280 C   0  0  0  0  0  0  0  0  0  0  0  0
   44.7370   31.2950   48.8200 O   0  0  0  0  0  0  0  0  0  0  0  0
   45.2120   35.1400   43.9760 C   0  0  0  0  0  0  0  0  0  0  0  0
   46.0800   35.4220   42.8850 C   0  0  0  0  0  0  0  0  0  0  0  0
   47.2320   34.6290   42.7210 C   0  0  0  0  0  0  0  0  0  0  0  0
   47.4510   33.6300   43.6220 N   0  0  0  0  0  0  0  0  0  0  0  0
   46.6010   33.3920   44.6490 C   0  0  0  0  0  0  0  0  0  0  0  0
   45.4990   34.1450   44.8100 N   0  0  0  0  0  0  0  0  0  0  0  0
   48.1460   34.9220   41.5920 C   0  0  0  0  0  0  0  0  0  0  0  0
   48.5780   36.2290   41.8110 F   0  0  0  0  0  0  0  0  0  0  0  0
   49.2630   34.1090   41.6180 F   0  0  0  0  0  0  0  0  0  0  0  0
   47.5120   34.8500   40.3810 F   0  0  0  0  0  0  0  0  0  0  0  0
   47.5864   31.7766   44.8248 H   0  0  0  0  0  0  0  0  0  0  0  0
   47.7821   31.9346   47.6270 H   0  0  0  0  0  0  0  0  0  0  0  0
   47.2757   33.4042   47.6537 H   0  0  0  0  0  0  0  0  0  0  0  0
   44.7482   32.0565   46.4479 H   0  0  0  0  0  0  0  0  0  0  0  0
   46.5297   29.5963   45.2188 H   0  0  0  0  0  0  0  0  0  0  0  0
   46.2086   27.2513   46.0893 H   0  0  0  0  0  0  0  0  0  0  0  0
   44.4733   28.9373   49.5715 H   0  0  0  0  0  0  0  0  0  0  0  0
   44.3054   35.7437   44.1294 H   0  0  0  0  0  0  0  0  0  0  0  0
   45.8564   36.2409   42.1854 H   0  0  0  0  0  0  0  0  0  0  0  0
  1  3  1  0
  1  2  1  0
  3  4  1  0
  3  2  1  0
  4 10  1  0
  5  6  2  0
  5  4  1  0
  6  7  1  0
  7  8  2  0
  7  9  1  0
 10  9  1  0
 10 11  2  0
 12 17  2  0
 13 12  1  0
 14 13  2  0
 14 15  1  0
 15 16  2  0
 16 17  1  0
 16  1  1  0
 18 20  1  0
 18 19  1  0
 18 14  1  0
 21 18  1  0
  1 22  1  6
  2 23  1  0
  2 24  1  0
  3 25  1  6
  5 26  1  0
  6 27  1  0
  9 28  1  0
 12 29  1  0
 13 30  1  0
M  ISO  8  22  13  23  13  24  13  25  13  26  14  27  14  28   9  29  14
M  ISO  1  30  14
M  END
>  <minimizedAffinity>  (1) 
-5.7698946

>  <minimizedRMSD>  (1) 
1.83949745

$$$$
