
     RDKit          3D

 29 30  0  0  1  0  0  0  0  0999 V2000
   44.7560   35.6050   44.6280 C   0  0  0  0  0  0  0  0  0  0  0  0
   45.4830   35.6690   43.4090 C   0  0  0  0  0  0  0  0  0  0  0  0
   46.4060   34.6500   43.1270 C   0  0  0  0  0  0  0  0  0  0  0  0
   46.5600   33.6400   44.0400 N   0  0  0  0  0  0  0  0  0  0  0  0
   45.8510   33.6160   45.1860 C   0  0  0  0  0  0  0  0  0  0  0  0
   44.9640   34.5820   45.4750 N   0  0  0  0  0  0  0  0  0  0  0  0
   46.0690   32.4750   46.1030 C   0  0  1  0  0  0  0  0  0  0  0  0
   46.9920   32.6010   47.2720 C   0  0  0  0  0  0  0  0  0  0  0  0
   45.5140   32.6740   47.4820 C   0  0  2  0  0  0  0  0  0  0  0  0
   44.8630   31.5520   48.2180 C   0  0  0  0  0  0  0  0  0  0  0  0
   45.1160   30.2200   47.5490 C   0  0  0  0  0  0  0  0  0  0  0  0
   45.3370   31.4240   49.6460 C   0  0  0  0  0  0  0  0  0  0  0  0
   47.1870   34.7060   41.8550 C   0  0  0  0  0  0  0  0  0  0  0  0
   47.8800   35.9130   41.9340 F   0  0  0  0  0  0  0  0  0  0  0  0
   48.1170   33.6940   41.7800 F   0  0  0  0  0  0  0  0  0  0  0  0
   46.3700   34.7200   40.7560 F   0  0  0  0  0  0  0  0  0  0  0  0
   44.0261   36.3892   44.8776 H   0  0  0  0  0  0  0  0  0  0  0  0
   45.3261   36.4977   42.7028 H   0  0  0  0  0  0  0  0  0  0  0  0
   45.9940   31.7350   45.2926 H   0  0  0  0  0  0  0  0  0  0  0  0
   47.5544   31.7240   47.6250 H   0  0  0  0  0  0  0  0  0  0  0  0
   47.8447   33.2494   47.5217 H   0  0  0  0  0  0  0  0  0  0  0  0
   44.8042   33.3925   47.9179 H   0  0  0  0  0  0  0  0  0  0  0  0
   43.7917   31.8012   48.2067 H   0  0  0  0  0  0  0  0  0  0  0  0
   45.2630   29.4461   48.3168 H   0  0  0  0  0  0  0  0  0  0  0  0
   44.2522   29.9548   46.9217 H   0  0  0  0  0  0  0  0  0  0  0  0
   46.0169   30.2900   46.9217 H   0  0  0  0  0  0  0  0  0  0  0  0
   44.5053   31.6486   50.3299 H   0  0  0  0  0  0  0  0  0  0  0  0
   45.6914   30.3980   49.8241 H   0  0  0  0  0  0  0  0  0  0  0  0
   46.1597   32.1322   49.8241 H   0  0  0  0  0  0  0  0  0  0  0  0
  1  6  2  0
  2  1  1  0
  3  2  2  0
  3  4  1  0
  4  5  2  0
  5  6  1  0
  5  7  1  0
  7  8  1  0
  7  9  1  0
  8  9  1  0
  9 10  1  0
 10 12  1  0
 11 10  1  0
 13 14  1  0
 13  3  1  0
 15 13  1  0
 16 13  1  0
  1 17  1  0
  2 18  1  0
  7 19  1  6
  8 20  1  0
  8 21  1  0
  9 22  1  6
 10 23  1  0
 11 24  1  0
 11 25  1  0
 11 26  1  0
 12 27  1  0
 12 28  1  0
 12 29  1  0
M  ISO  8  17  14  18  14  19  13  20  13  21  13  22  13  23   8  24   8
M  ISO  5  25   8  26   8  27   8  28   8  29   8
M  END
>  <minimizedAffinity>  (1) 
-5.45224524

>  <minimizedRMSD>  (1) 
0.529724538

$$$$
