
     RDKit          3D

 23 24  0  0  1  0  0  0  0  0999 V2000
   44.3010   33.8040   40.1450 C   0  0  0  0  0  0  0  0  0  0  0  0
   44.9060   34.3180   41.3280 C   0  0  0  0  0  0  0  0  0  0  0  0
   44.2280   35.2980   42.0500 C   0  0  0  0  0  0  0  0  0  0  0  0
   43.0210   35.7090   41.5810 N   0  0  0  0  0  0  0  0  0  0  0  0
   42.4680   35.2120   40.4620 C   0  0  0  0  0  0  0  0  0  0  0  0
   43.1080   34.2810   39.7730 N   0  0  0  0  0  0  0  0  0  0  0  0
   41.1560   35.6920   40.0400 C   0  0  1  0  0  0  0  0  0  0  0  0
   40.2310   34.8740   39.2060 C   0  0  0  0  0  0  0  0  0  0  0  0
   39.9670   35.0560   40.6710 C   0  0  1  0  0  0  0  0  0  0  0  0
   39.9810   33.8100   41.4320 C   0  0  0  0  0  0  0  0  0  0  0  0
   40.1550   32.5610   41.1920 O   0  0  0  0  0  0  0  0  0  0  0  0
   39.7570   33.8490   42.8030 O   0  0  0  0  0  0  0  0  0  0  0  0
   44.8460   35.8540   43.2920 C   0  0  0  0  0  0  0  0  0  0  0  0
   45.1180   37.1840   42.9840 F   0  0  0  0  0  0  0  0  0  0  0  0
   43.9680   35.8420   44.3560 F   0  0  0  0  0  0  0  0  0  0  0  0
   46.0110   35.2080   43.6070 F   0  0  0  0  0  0  0  0  0  0  0  0
   44.8055   33.0294   39.5487 H   0  0  0  0  0  0  0  0  0  0  0  0
   45.8865   33.9494   41.6639 H   0  0  0  0  0  0  0  0  0  0  0  0
   41.5610   36.7077   39.9207 H   0  0  0  0  0  0  0  0  0  0  0  0
   39.5811   35.3617   38.4645 H   0  0  0  0  0  0  0  0  0  0  0  0
   40.3445   34.0090   38.5361 H   0  0  0  0  0  0  0  0  0  0  0  0
   39.2094   35.4775   41.3480 H   0  0  0  0  0  0  0  0  0  0  0  0
   39.7640   33.0108   43.3298 H   0  0  0  0  0  0  0  0  0  0  0  0
  1  2  2  0
  2  3  1  0
  3 13  1  0
  4  3  2  0
  5  4  1  0
  6  1  1  0
  6  5  2  0
  7  5  1  0
  7  9  1  0
  8  7  1  0
  8  9  1  0
  9 10  1  0
 10 12  1  0
 11 10  2  0
 13 16  1  0
 13 15  1  0
 14 13  1  0
  1 17  1  0
  2 18  1  0
  7 19  1  6
  8 20  1  0
  8 21  1  0
  9 22  1  6
 12 23  1  0
M  ISO  7  17  14  18  14  19  13  20  13  21  13  22  13  23   3
M  END
>  <minimizedAffinity>  (1) 
-5.32900763

>  <minimizedRMSD>  (1) 
6.48703957

$$$$
