
     RDKit          3D

 30 32  0  0  1  0  0  0  0  0999 V2000
   46.9170   32.5160   45.4090 C   0  0  1  0  0  0  0  0  0  0  0  0
   47.0580   32.8660   46.8560 C   0  0  0  0  0  0  0  0  0  0  0  0
   45.7840   32.2550   46.3550 C   0  0  2  0  0  0  0  0  0  0  0  0
   45.5650   30.8570   46.8430 C   0  0  0  0  0  0  0  0  0  0  0  0
   45.1680   30.6520   48.1470 C   0  0  0  0  0  0  0  0  0  0  0  0
   44.9610   29.3640   48.6120 C   0  0  0  0  0  0  0  0  0  0  0  0
   45.1400   28.2510   47.8150 C   0  0  0  0  0  0  0  0  0  0  0  0
   45.5340   28.4570   46.5200 C   0  0  0  0  0  0  0  0  0  0  0  0
   45.7450   29.7330   46.0390 C   0  0  0  0  0  0  0  0  0  0  0  0
   45.2630   35.2310   43.5060 C   0  0  0  0  0  0  0  0  0  0  0  0
   46.2440   35.5210   42.5170 C   0  0  0  0  0  0  0  0  0  0  0  0
   47.4340   34.7880   42.5330 C   0  0  0  0  0  0  0  0  0  0  0  0
   47.5930   33.8380   43.4880 N   0  0  0  0  0  0  0  0  0  0  0  0
   46.6420   33.5850   44.4170 C   0  0  0  0  0  0  0  0  0  0  0  0
   45.4950   34.2860   44.4090 N   0  0  0  0  0  0  0  0  0  0  0  0
   48.4820   35.0820   41.5090 C   0  0  0  0  0  0  0  0  0  0  0  0
   48.8810   36.3880   41.7840 F   0  0  0  0  0  0  0  0  0  0  0  0
   49.5900   34.2710   41.6530 F   0  0  0  0  0  0  0  0  0  0  0  0
   47.9850   35.0200   40.2340 F   0  0  0  0  0  0  0  0  0  0  0  0
   47.5463   31.9362   44.7177 H   0  0  0  0  0  0  0  0  0  0  0  0
   47.7320   32.2818   47.4998 H   0  0  0  0  0  0  0  0  0  0  0  0
   47.3159   33.7785   47.4135 H   0  0  0  0  0  0  0  0  0  0  0  0
   44.7149   32.5131   46.3337 H   0  0  0  0  0  0  0  0  0  0  0  0
   45.0158   31.5106   48.8176 H   0  0  0  0  0  0  0  0  0  0  0  0
   44.6421   29.2225   49.6552 H   0  0  0  0  0  0  0  0  0  0  0  0
   44.9723   27.2365   48.2058 H   0  0  0  0  0  0  0  0  0  0  0  0
   45.6843   27.5942   45.8545 H   0  0  0  0  0  0  0  0  0  0  0  0
   46.0633   29.8664   44.9945 H   0  0  0  0  0  0  0  0  0  0  0  0
   44.3148   35.7884   43.5223 H   0  0  0  0  0  0  0  0  0  0  0  0
   46.0706   36.3006   41.7606 H   0  0  0  0  0  0  0  0  0  0  0  0
  1  3  1  0
  1  2  1  0
  3  4  1  0
  3  2  1  0
  4  5  2  0
  5  6  1  0
  7  6  2  0
  8  7  1  0
  9  8  2  0
  9  4  1  0
 10 15  2  0
 11 12  2  0
 11 10  1  0
 12 13  1  0
 13 14  2  0
 14  1  1  0
 15 14  1  0
 16 18  1  0
 16 17  1  0
 16 12  1  0
 19 16  1  0
  1 20  1  6
  2 21  1  0
  2 22  1  0
  3 23  1  6
  5 24  1  0
  6 25  1  0
  7 26  1  0
  8 27  1  0
  9 28  1  0
 10 29  1  0
 11 30  1  0
M  ISO  8  20  13  21  13  22  13  23  13  24  14  25  14  26  14  27  14
M  ISO  3  28  14  29  14  30  14
M  END
>  <minimizedAffinity>  (1) 
-5.31056261

>  <minimizedRMSD>  (1) 
1.79863191

$$$$
