
     RDKit          3D

 25 27  0  0  1  0  0  0  0  0999 V2000
   46.6770   32.4830   45.9030 C   0  0  1  0  0  0  0  0  0  0  0  0
   47.1330   32.8380   47.2780 C   0  0  0  0  0  0  0  0  0  0  0  0
   45.7250   32.3800   47.0550 C   0  0  2  0  0  0  0  0  0  0  0  0
   44.9700   35.2660   44.1570 C   0  0  0  0  0  0  0  0  0  0  0  0
   45.8010   35.4350   43.0230 C   0  0  0  0  0  0  0  0  0  0  0  0
   46.9170   34.6090   42.8830 C   0  0  0  0  0  0  0  0  0  0  0  0
   47.1550   33.6750   43.8460 N   0  0  0  0  0  0  0  0  0  0  0  0
   46.3450   33.5350   44.9190 C   0  0  0  0  0  0  0  0  0  0  0  0
   45.2680   34.3260   45.0640 N   0  0  0  0  0  0  0  0  0  0  0  0
   47.8130   34.7770   41.7010 C   0  0  0  0  0  0  0  0  0  0  0  0
   48.3610   36.0490   41.8640 F   0  0  0  0  0  0  0  0  0  0  0  0
   48.8610   33.8790   41.7090 F   0  0  0  0  0  0  0  0  0  0  0  0
   47.1230   34.7300   40.5210 F   0  0  0  0  0  0  0  0  0  0  0  0
   45.4130   31.0290   47.6070 C   0  0  0  0  0  0  0  0  0  0  0  0
   45.0450   30.7080   48.8640 N   0  0  0  0  0  0  0  0  0  0  0  0
   44.8720   29.4230   48.9210 O   0  0  0  0  0  0  0  0  0  0  0  0
   45.1040   28.8520   47.7650 C   0  0  0  0  0  0  0  0  0  0  0  0
   45.4500   29.8710   46.9230 N   0  0  0  0  0  0  0  0  0  0  0  0
   47.0944   31.8197   45.1311 H   0  0  0  0  0  0  0  0  0  0  0  0
   47.8455   32.1871   47.8059 H   0  0  0  0  0  0  0  0  0  0  0  0
   47.5988   33.7220   47.7380 H   0  0  0  0  0  0  0  0  0  0  0  0
   44.7142   32.7724   47.2400 H   0  0  0  0  0  0  0  0  0  0  0  0
   44.0839   35.9035   44.2926 H   0  0  0  0  0  0  0  0  0  0  0  0
   45.5716   36.2015   42.2681 H   0  0  0  0  0  0  0  0  0  0  0  0
   45.0350   27.7810   47.5237 H   0  0  0  0  0  0  0  0  0  0  0  0
  1  3  1  0
  1  2  1  0
  3  2  1  0
  3 14  1  0
  4  9  2  0
  5  4  1  0
  6  5  2  0
  6  7  1  0
  7  8  2  0
  8  9  1  0
  8  1  1  0
 10 12  1  0
 10 11  1  0
 10  6  1  0
 13 10  1  0
 14 15  2  0
 15 16  1  0
 17 16  1  0
 18 14  1  0
 18 17  2  0
  1 19  1  6
  2 20  1  0
  2 21  1  0
  3 22  1  6
  4 23  1  0
  5 24  1  0
 17 25  1  0
M  ISO  7  19  13  20  13  21  13  22  13  23  14  24  14  25  14
M  END
>  <minimizedAffinity>  (1) 
-5.17769623

>  <minimizedRMSD>  (1) 
1.12581635

$$$$
