
     RDKit          3D

 27 29  0  0  1  0  0  0  0  0999 V2000
   46.8230   32.4040   45.8080 C   0  0  1  0  0  0  0  0  0  0  0  0
   47.0940   32.7330   47.2390 C   0  0  0  0  0  0  0  0  0  0  0  0
   45.7740   32.1390   46.8460 C   0  0  2  0  0  0  0  0  0  0  0  0
   45.0590   35.1820   44.1140 C   0  0  0  0  0  0  0  0  0  0  0  0
   45.8970   35.4040   42.9850 C   0  0  0  0  0  0  0  0  0  0  0  0
   47.0350   34.6100   42.8370 C   0  0  0  0  0  0  0  0  0  0  0  0
   47.2930   33.6550   43.7830 N   0  0  0  0  0  0  0  0  0  0  0  0
   46.4720   33.4720   44.8440 C   0  0  0  0  0  0  0  0  0  0  0  0
   45.3720   34.2330   44.9950 N   0  0  0  0  0  0  0  0  0  0  0  0
   47.9360   34.8290   41.6700 C   0  0  0  0  0  0  0  0  0  0  0  0
   48.4250   36.1220   41.8580 F   0  0  0  0  0  0  0  0  0  0  0  0
   49.0210   33.9760   41.6780 F   0  0  0  0  0  0  0  0  0  0  0  0
   47.2610   34.7670   40.4810 F   0  0  0  0  0  0  0  0  0  0  0  0
   45.4770   30.7670   47.1950 N   0  0  0  0  0  0  0  0  0  0  0  0
   45.3910   29.9460   46.1610 N   0  0  0  0  0  0  0  0  0  0  0  0
   45.1160   28.7060   46.5580 C   0  0  0  0  0  0  0  0  0  0  0  0
   45.0300   28.7820   47.9340 C   0  0  0  0  0  0  0  0  0  0  0  0
   45.2580   30.0860   48.3420 C   0  0  0  0  0  0  0  0  0  0  0  0
   47.3889   31.8309   45.0588 H   0  0  0  0  0  0  0  0  0  0  0  0
   47.8168   32.1348   47.8132 H   0  0  0  0  0  0  0  0  0  0  0  0
   47.4088   33.6360   47.7826 H   0  0  0  0  0  0  0  0  0  0  0  0
   44.7221   32.4265   46.9907 H   0  0  0  0  0  0  0  0  0  0  0  0
   44.1554   35.7924   44.2586 H   0  0  0  0  0  0  0  0  0  0  0  0
   45.6535   36.1826   42.2471 H   0  0  0  0  0  0  0  0  0  0  0  0
   44.9856   27.8144   45.9272 H   0  0  0  0  0  0  0  0  0  0  0  0
   44.8136   27.9366   48.6036 H   0  0  0  0  0  0  0  0  0  0  0  0
   45.2603   30.4793   49.3693 H   0  0  0  0  0  0  0  0  0  0  0  0
  1  3  1  0
  1  2  1  0
  3 14  1  0
  3  2  1  0
  4  9  2  0
  5  4  1  0
  6  5  2  0
  6  7  1  0
  7  8  2  0
  8  9  1  0
  8  1  1  0
 10 12  1  0
 10 11  1  0
 10  6  1  0
 13 10  1  0
 14 18  1  0
 15 16  2  0
 15 14  1  0
 16 17  1  0
 17 18  2  0
  1 19  1  6
  2 20  1  0
  2 21  1  0
  3 22  1  6
  4 23  1  0
  5 24  1  0
 16 25  1  0
 17 26  1  0
 18 27  1  0
M  ISO  8  19  13  20  13  21  13  22  13  23  14  24  14  25  14  26  14
M  ISO  1  27  14
M  END
>  <minimizedAffinity>  (1) 
-5.14422464

>  <minimizedRMSD>  (1) 
1.43396974

$$$$
