
     RDKit          3D

 27 29  0  0  1  0  0  0  0  0999 V2000
   45.2070   35.1890   43.8980 C   0  0  0  0  0  0  0  0  0  0  0  0
   46.0980   35.4400   42.8230 C   0  0  0  0  0  0  0  0  0  0  0  0
   47.2420   34.6400   42.7110 C   0  0  0  0  0  0  0  0  0  0  0  0
   47.4470   33.6560   43.6370 N   0  0  0  0  0  0  0  0  0  0  0  0
   46.5720   33.4490   44.6470 C   0  0  0  0  0  0  0  0  0  0  0  0
   45.4710   34.2090   44.7680 N   0  0  0  0  0  0  0  0  0  0  0  0
   46.8760   32.3450   45.5890 C   0  0  1  0  0  0  0  0  0  0  0  0
   46.9880   32.6050   47.0530 C   0  0  0  0  0  0  0  0  0  0  0  0
   45.7410   31.9800   46.5020 C   0  0  2  0  0  0  0  0  0  0  0  0
   45.5450   30.5620   46.7680 C   0  0  0  0  0  0  0  0  0  0  0  0
   45.5090   29.8080   47.8900 C   0  0  0  0  0  0  0  0  0  0  0  0
   45.3030   28.4670   47.8630 C   0  0  0  0  0  0  0  0  0  0  0  0
   45.1250   27.9110   46.5260 C   0  0  0  0  0  0  0  0  0  0  0  0
   45.2760   29.4260   45.4000 S   0  0  0  0  0  0  0  0  0  0  0  0
   48.1990   34.8950   41.5920 C   0  0  0  0  0  0  0  0  0  0  0  0
   48.6460   36.1970   41.8120 F   0  0  0  0  0  0  0  0  0  0  0  0
   49.2980   34.0620   41.6530 F   0  0  0  0  0  0  0  0  0  0  0  0
   47.5920   34.8250   40.3680 F   0  0  0  0  0  0  0  0  0  0  0  0
   44.2999   35.8001   44.0155 H   0  0  0  0  0  0  0  0  0  0  0  0
   45.8958   36.2413   42.0971 H   0  0  0  0  0  0  0  0  0  0  0  0
   47.5401   31.8383   44.8733 H   0  0  0  0  0  0  0  0  0  0  0  0
   47.6778   32.0063   47.6660 H   0  0  0  0  0  0  0  0  0  0  0  0
   47.2057   33.4894   47.6699 H   0  0  0  0  0  0  0  0  0  0  0  0
   44.6667   32.2123   46.5448 H   0  0  0  0  0  0  0  0  0  0  0  0
   45.6523   30.3011   48.8628 H   0  0  0  0  0  0  0  0  0  0  0  0
   45.2727   27.8505   48.7735 H   0  0  0  0  0  0  0  0  0  0  0  0
   44.9461   26.8638   46.2407 H   0  0  0  0  0  0  0  0  0  0  0  0
  1  6  2  0
  2  1  1  0
  3  2  2  0
  3  4  1  0
  4  5  2  0
  5  6  1  0
  5  7  1  0
  7  9  1  0
  7  8  1  0
  9 10  1  0
  9  8  1  0
 10 11  2  0
 12 11  1  0
 13 12  2  0
 14 13  1  0
 14 10  1  0
 15 17  1  0
 15 16  1  0
 15  3  1  0
 18 15  1  0
  1 19  1  0
  2 20  1  0
  7 21  1  6
  8 22  1  0
  8 23  1  0
  9 24  1  6
 11 25  1  0
 12 26  1  0
 13 27  1  0
M  ISO  8  19  14  20  14  21  13  22  13  23  13  24  13  25  14  26  14
M  ISO  1  27  14
M  END
>  <minimizedAffinity>  (1) 
-5.0136981

>  <minimizedRMSD>  (1) 
1.66598308

$$$$
