
     RDKit          3D

 23 24  0  0  1  0  0  0  0  0999 V2000
   44.6400   35.6360   44.8780 C   0  0  0  0  0  0  0  0  0  0  0  0
   45.2730   35.6660   43.6110 C   0  0  0  0  0  0  0  0  0  0  0  0
   46.1400   34.6220   43.2800 C   0  0  0  0  0  0  0  0  0  0  0  0
   46.3380   33.6220   44.1860 N   0  0  0  0  0  0  0  0  0  0  0  0
   45.7180   33.6270   45.3880 C   0  0  0  0  0  0  0  0  0  0  0  0
   44.8820   34.6240   45.7220 N   0  0  0  0  0  0  0  0  0  0  0  0
   45.9870   32.4880   46.2970 C   0  0  1  0  0  0  0  0  0  0  0  0
   47.0290   32.6020   47.3610 C   0  0  0  0  0  0  0  0  0  0  0  0
   45.5790   32.7250   47.7220 C   0  0  2  0  0  0  0  0  0  0  0  0
   44.8760   31.5300   48.3530 C   0  0  0  0  0  0  0  0  0  0  0  0
   46.8230   34.6410   41.9510 C   0  0  0  0  0  0  0  0  0  0  0  0
   47.6360   35.7740   41.9950 F   0  0  0  0  0  0  0  0  0  0  0  0
   47.6570   33.5530   41.7810 F   0  0  0  0  0  0  0  0  0  0  0  0
   45.9370   34.7550   40.9150 F   0  0  0  0  0  0  0  0  0  0  0  0
   43.9507   36.4425   45.1685 H   0  0  0  0  0  0  0  0  0  0  0  0
   45.0866   36.4898   42.9063 H   0  0  0  0  0  0  0  0  0  0  0  0
   45.8043   31.7382   45.5132 H   0  0  0  0  0  0  0  0  0  0  0  0
   47.5986   31.7130   47.6697 H   0  0  0  0  0  0  0  0  0  0  0  0
   47.9220   33.2268   47.5097 H   0  0  0  0  0  0  0  0  0  0  0  0
   45.0096   33.4753   48.2902 H   0  0  0  0  0  0  0  0  0  0  0  0
   44.9246   31.6126   49.4488 H   0  0  0  0  0  0  0  0  0  0  0  0
   43.8237   31.5126   48.0329 H   0  0  0  0  0  0  0  0  0  0  0  0
   45.3720   30.6018   48.0329 H   0  0  0  0  0  0  0  0  0  0  0  0
  1  6  2  0
  2  1  1  0
  3  2  2  0
  3  4  1  0
  4  5  2  0
  5  6  1  0
  5  7  1  0
  7  8  1  0
  7  9  1  0
  8  9  1  0
  9 10  1  0
 11 12  1  0
 11  3  1  0
 13 11  1  0
 14 11  1  0
  1 15  1  0
  2 16  1  0
  7 17  1  6
  8 18  1  0
  8 19  1  0
  9 20  1  6
 10 21  1  0
 10 22  1  0
 10 23  1  0
M  ISO  8  15  14  16  14  17  13  18  13  19  13  20  13  21   8  22   8
M  ISO  1  23   8
M  END
>  <minimizedAffinity>  (1) 
-4.86138916

>  <minimizedRMSD>  (1) 
0.0953216329

$$$$
