
     RDKit          3D

 22 23  0  0  1  0  0  0  0  0999 V2000
   44.8170   35.4630   44.4400 C   0  0  0  0  0  0  0  0  0  0  0  0
   45.5940   35.5580   43.2540 C   0  0  0  0  0  0  0  0  0  0  0  0
   46.5970   34.6070   43.0410 C   0  0  0  0  0  0  0  0  0  0  0  0
   46.7830   33.6350   43.9770 N   0  0  0  0  0  0  0  0  0  0  0  0
   46.0260   33.5730   45.0940 C   0  0  0  0  0  0  0  0  0  0  0  0
   45.0590   34.4790   45.3150 N   0  0  0  0  0  0  0  0  0  0  0  0
   46.2820   32.4760   46.0470 C   0  0  1  0  0  0  0  0  0  0  0  0
   46.9830   32.7270   47.3370 C   0  0  0  0  0  0  0  0  0  0  0  0
   45.4980   32.5240   47.3130 C   0  0  1  0  0  0  0  0  0  0  0  0
   44.7270   33.6740   47.6890 N   0  0  0  0  0  0  0  0  0  0  0  0
   47.4360   34.6940   41.8050 C   0  0  0  0  0  0  0  0  0  0  0  0
   48.0620   35.9350   41.9100 F   0  0  0  0  0  0  0  0  0  0  0  0
   48.4170   33.7300   41.7750 F   0  0  0  0  0  0  0  0  0  0  0  0
   46.6780   34.6670   40.6670 F   0  0  0  0  0  0  0  0  0  0  0  0
   44.0201   36.1948   44.6383 H   0  0  0  0  0  0  0  0  0  0  0  0
   45.4113   36.3589   42.5224 H   0  0  0  0  0  0  0  0  0  0  0  0
   46.4564   31.7574   45.2327 H   0  0  0  0  0  0  0  0  0  0  0  0
   47.6374   31.9546   47.7674 H   0  0  0  0  0  0  0  0  0  0  0  0
   47.6563   33.5088   47.7184 H   0  0  0  0  0  0  0  0  0  0  0  0
   44.7554   31.8380   47.7464 H   0  0  0  0  0  0  0  0  0  0  0  0
   44.6842   33.7378   48.7161 H   0  0  0  0  0  0  0  0  0  0  0  0
   45.1702   34.5232   47.3104 H   0  0  0  0  0  0  0  0  0  0  0  0
  1  6  2  0
  2  1  1  0
  3  2  2  0
  3  4  1  0
  4  5  2  0
  5  6  1  0
  5  7  1  0
  7  9  1  0
  7  8  1  0
  9  8  1  0
  9 10  1  0
 11 12  1  0
 11  3  1  0
 13 11  1  0
 14 11  1  0
  1 15  1  0
  2 16  1  0
  7 17  1  6
  8 18  1  0
  8 19  1  0
  9 20  1  1
 10 21  1  0
 10 22  1  0
M  ISO  8  15  14  16  14  17  13  18  13  19  13  20  13  21   5  22   5
M  END
>  <minimizedAffinity>  (1) 
-5.20609665

>  <minimizedRMSD>  (1) 
0.518427253

$$$$
