
     RDKit          3D

 25 26  0  0  1  0  0  0  0  0999 V2000
   46.3950   31.9930   45.2060 C   0  0  1  0  0  0  0  0  0  0  0  0
   47.3110   31.8640   46.3620 C   0  0  0  0  0  0  0  0  0  0  0  0
   45.9400   31.2810   46.4200 C   0  0  1  0  0  0  0  0  0  0  0  0
   44.7110   35.2480   45.6120 C   0  0  0  0  0  0  0  0  0  0  0  0
   44.3640   35.5610   44.2690 C   0  0  0  0  0  0  0  0  0  0  0  0
   44.7180   34.6470   43.2560 C   0  0  0  0  0  0  0  0  0  0  0  0
   45.3740   33.5120   43.6140 N   0  0  0  0  0  0  0  0  0  0  0  0
   45.6840   33.2550   44.9030 C   0  0  0  0  0  0  0  0  0  0  0  0
   45.3540   34.1130   45.8770 N   0  0  0  0  0  0  0  0  0  0  0  0
   44.3680   34.9520   41.8340 C   0  0  0  0  0  0  0  0  0  0  0  0
   45.5970   34.8290   41.1650 F   0  0  0  0  0  0  0  0  0  0  0  0
   43.5070   34.0290   41.3060 F   0  0  0  0  0  0  0  0  0  0  0  0
   43.9250   36.2300   41.6830 F   0  0  0  0  0  0  0  0  0  0  0  0
   45.0710   31.8450   47.3730 N   0  0  0  0  0  0  0  0  0  0  0  0
   45.1800   31.5770   48.7390 C   0  0  0  0  0  0  0  0  0  0  0  0
   44.0540   31.2920   49.4620 F   0  0  0  0  0  0  0  0  0  0  0  0
   45.9820   32.5090   49.4200 F   0  0  0  0  0  0  0  0  0  0  0  0
   45.9500   30.3930   48.8360 F   0  0  0  0  0  0  0  0  0  0  0  0
   46.5248   31.7752   44.1356 H   0  0  0  0  0  0  0  0  0  0  0  0
   48.1882   31.2034   46.2986 H   0  0  0  0  0  0  0  0  0  0  0  0
   47.8863   32.5665   46.9829 H   0  0  0  0  0  0  0  0  0  0  0  0
   45.4687   30.2971   46.5612 H   0  0  0  0  0  0  0  0  0  0  0  0
   44.4497   35.9394   46.4267 H   0  0  0  0  0  0  0  0  0  0  0  0
   43.8326   36.4931   44.0267 H   0  0  0  0  0  0  0  0  0  0  0  0
   45.1616   32.8662   47.2737 H   0  0  0  0  0  0  0  0  0  0  0  0
  1  2  1  0
  1  3  1  0
  2  3  1  0
  3 14  1  0
  4  9  2  0
  5  4  1  0
  6  7  1  0
  6  5  2  0
  7  8  2  0
  8  1  1  0
  8  9  1  0
 10  6  1  0
 11 10  1  0
 12 10  1  0
 13 10  1  0
 14 15  1  0
 15 18  1  0
 15 17  1  0
 15 16  1  0
  1 19  1  6
  2 20  1  0
  2 21  1  0
  3 22  1  6
  4 23  1  0
  5 24  1  0
 14 25  1  0
M  ISO  7  19  13  20  13  21  13  22  13  23  14  24  14  25   5
M  END
>  <minimizedAffinity>  (1) 
-4.97722292

>  <minimizedRMSD>  (1) 
2.67940569

$$$$
