
     RDKit          3D

 26 27  0  0  1  0  0  0  0  0999 V2000
   46.2130   31.8760   44.7490 C   0  0  1  0  0  0  0  0  0  0  0  0
   47.3120   31.7150   45.7640 C   0  0  0  0  0  0  0  0  0  0  0  0
   45.9200   31.1880   46.0190 C   0  0  1  0  0  0  0  0  0  0  0  0
   44.8110   35.2320   45.3930 C   0  0  0  0  0  0  0  0  0  0  0  0
   44.3370   35.5860   44.1010 C   0  0  0  0  0  0  0  0  0  0  0  0
   44.5120   34.6880   43.0540 C   0  0  0  0  0  0  0  0  0  0  0  0
   45.1370   33.4920   43.3050 N   0  0  0  0  0  0  0  0  0  0  0  0
   45.5750   33.1860   44.5360 C   0  0  0  0  0  0  0  0  0  0  0  0
   45.4150   34.0390   45.5590 N   0  0  0  0  0  0  0  0  0  0  0  0
   44.0260   35.0530   41.6900 C   0  0  0  0  0  0  0  0  0  0  0  0
   45.1110   34.7390   40.8550 F   0  0  0  0  0  0  0  0  0  0  0  0
   42.9800   34.2430   41.2760 F   0  0  0  0  0  0  0  0  0  0  0  0
   43.7310   36.3710   41.5820 F   0  0  0  0  0  0  0  0  0  0  0  0
   45.2800   31.8770   47.1210 N   0  0  0  0  0  0  0  0  0  0  0  0
   45.3130   31.2260   48.4040 C   0  0  0  0  0  0  0  0  0  0  0  0
   46.1200   30.1270   48.8600 N   0  0  0  0  0  0  0  0  0  0  0  0
   44.6570   31.4330   49.4630 O   0  0  0  0  0  0  0  0  0  0  0  0
   46.1374   31.6332   43.6788 H   0  0  0  0  0  0  0  0  0  0  0  0
   48.1423   31.0184   45.5758 H   0  0  0  0  0  0  0  0  0  0  0  0
   48.0049   32.3908   46.2866 H   0  0  0  0  0  0  0  0  0  0  0  0
   45.4167   30.2306   46.2191 H   0  0  0  0  0  0  0  0  0  0  0  0
   44.6870   35.9197   46.2425 H   0  0  0  0  0  0  0  0  0  0  0  0
   43.8406   36.5530   43.9322 H   0  0  0  0  0  0  0  0  0  0  0  0
   44.8224   32.7907   46.9922 H   0  0  0  0  0  0  0  0  0  0  0  0
   46.0171   29.7775   49.8234 H   0  0  0  0  0  0  0  0  0  0  0  0
   46.8010   29.6892   48.2233 H   0  0  0  0  0  0  0  0  0  0  0  0
  1  2  1  0
  1  3  1  0
  2  3  1  0
  3 14  1  0
  4  9  2  0
  5  4  1  0
  6  7  1  0
  6  5  2  0
  7  8  2  0
  8  1  1  0
  8  9  1  0
 10  6  1  0
 11 10  1  0
 12 10  1  0
 13 10  1  0
 14 15  1  0
 15 16  1  0
 15 17  2  0
  1 18  1  6
  2 19  1  0
  2 20  1  0
  3 21  1  6
  4 22  1  0
  5 23  1  0
 14 24  1  0
 16 25  1  0
 16 26  1  0
M  ISO  6  18  13  19  13  20  13  21  13  22  14  23  14
M  END
>  <minimizedAffinity>  (1) 
-4.83814001

>  <minimizedRMSD>  (1) 
2.71075773

$$$$
