
     RDKit          3D

 25 26  0  0  1  0  0  0  0  0999 V2000
   46.5870   31.3020   44.1290 C   0  0  1  0  0  0  0  0  0  0  0  0
   47.4800   30.9010   45.2740 C   0  0  0  0  0  0  0  0  0  0  0  0
   46.0020   31.1020   45.4650 C   0  0  1  0  0  0  0  0  0  0  0  0
   45.5240   34.7100   43.1870 C   0  0  0  0  0  0  0  0  0  0  0  0
   46.7070   35.2150   42.5880 C   0  0  0  0  0  0  0  0  0  0  0  0
   47.8360   34.3820   42.5290 C   0  0  0  0  0  0  0  0  0  0  0  0
   47.7480   33.1290   43.0470 N   0  0  0  0  0  0  0  0  0  0  0  0
   46.6160   32.6740   43.6090 C   0  0  0  0  0  0  0  0  0  0  0  0
   45.5270   33.4610   43.6730 N   0  0  0  0  0  0  0  0  0  0  0  0
   49.0960   34.9000   41.9080 C   0  0  0  0  0  0  0  0  0  0  0  0
   49.8360   35.3560   43.0130 F   0  0  0  0  0  0  0  0  0  0  0  0
   49.8410   33.8980   41.3290 F   0  0  0  0  0  0  0  0  0  0  0  0
   48.8730   35.9400   41.0680 F   0  0  0  0  0  0  0  0  0  0  0  0
   45.6970   32.2180   46.3350 N   0  0  0  0  0  0  0  0  0  0  0  0
   45.3900   31.9200   47.7150 C   0  0  0  0  0  0  0  0  0  0  0  0
   46.2210   31.3310   48.4870 O   0  0  0  0  0  0  0  0  0  0  0  0
   44.2040   32.2040   48.4140 O   0  0  0  0  0  0  0  0  0  0  0  0
   46.4219   30.8931   43.1213 H   0  0  0  0  0  0  0  0  0  0  0  0
   47.9111   29.8897   45.3125 H   0  0  0  0  0  0  0  0  0  0  0  0
   48.3942   31.3022   45.7359 H   0  0  0  0  0  0  0  0  0  0  0  0
   45.1253   30.5225   45.7900 H   0  0  0  0  0  0  0  0  0  0  0  0
   44.6198   35.3331   43.2514 H   0  0  0  0  0  0  0  0  0  0  0  0
   46.7390   36.2357   42.1792 H   0  0  0  0  0  0  0  0  0  0  0  0
   45.6988   33.1864   45.9841 H   0  0  0  0  0  0  0  0  0  0  0  0
   44.1165   31.9460   49.3658 H   0  0  0  0  0  0  0  0  0  0  0  0
  1  2  1  0
  1  3  1  0
  2  3  1  0
  3 14  1  0
  4  9  2  0
  5  4  1  0
  6  5  2  0
  6  7  1  0
  7  8  2  0
  8  9  1  0
  8  1  1  0
 10  6  1  0
 10 11  1  0
 12 10  1  0
 13 10  1  0
 14 15  1  0
 15 17  1  0
 15 16  2  0
  1 18  1  6
  2 19  1  0
  2 20  1  0
  3 21  1  6
  4 22  1  0
  5 23  1  0
 14 24  1  0
 17 25  1  0
M  ISO  7  18  13  19  13  20  13  21  13  22  14  23  14  25   3
M  END
>  <minimizedAffinity>  (1) 
-4.92276764

>  <minimizedRMSD>  (1) 
2.16247773

$$$$
