
     RDKit          3D

 43 47  0  0  1  0  0  0  0  0999 V2000
   46.6880   31.4280   39.7150 N   0  0  0  0  0  0  0  0  0  0  0  0
   47.3030   33.8910   39.4760 C   0  0  1  0  0  0  0  0  0  0  0  0
   48.3770   33.0280   38.9020 C   0  0  0  0  0  0  0  0  0  0  0  0
   46.9450   32.5710   38.8960 C   0  0  1  0  0  0  0  0  0  0  0  0
   47.8760   33.4950   43.1110 C   0  0  0  0  0  0  0  0  0  0  0  0
   46.8160   34.2690   43.6500 C   0  0  0  0  0  0  0  0  0  0  0  0
   45.9430   34.8940   42.7640 C   0  0  0  0  0  0  0  0  0  0  0  0
   46.1340   34.7440   41.4230 N   0  0  0  0  0  0  0  0  0  0  0  0
   47.1430   34.0070   40.9440 C   0  0  0  0  0  0  0  0  0  0  0  0
   48.0050   33.3890   41.7850 N   0  0  0  0  0  0  0  0  0  0  0  0
   44.8100   35.7170   43.3040 C   0  0  0  0  0  0  0  0  0  0  0  0
   45.2560   37.0300   43.1420 F   0  0  0  0  0  0  0  0  0  0  0  0
   43.6560   35.5720   42.5670 F   0  0  0  0  0  0  0  0  0  0  0  0
   44.5840   35.4790   44.6310 F   0  0  0  0  0  0  0  0  0  0  0  0
   46.1200   30.3320   38.9690 C   0  0  2  0  0  0  0  0  0  0  0  0
   46.8580   29.0260   39.1260 C   0  0  0  0  0  0  0  0  0  0  0  0
   46.8580   29.8080   37.8210 C   0  0  1  0  0  0  0  0  0  0  0  0
   46.0350   29.1400   36.7980 N   0  0  0  0  0  0  0  0  0  0  0  0
   45.6410   27.8790   36.6750 C   0  0  0  0  0  0  0  0  0  0  0  0
   44.8860   27.7560   35.5460 N   0  0  0  0  0  0  0  0  0  0  0  0
   44.8220   28.9850   34.9680 C   0  0  0  0  0  0  0  0  0  0  0  0
   44.2160   29.4820   33.8300 C   0  0  0  0  0  0  0  0  0  0  0  0
   43.5390   28.7040   33.0760 O   0  0  0  0  0  0  0  0  0  0  0  0
   44.3470   30.7870   33.5260 N   0  0  0  0  0  0  0  0  0  0  0  0
   45.0470   31.6510   34.2800 C   0  0  0  0  0  0  0  0  0  0  0  0
   45.1890   33.0390   33.9590 N   0  0  0  0  0  0  0  0  0  0  0  0
   45.6430   31.1810   35.3920 N   0  0  0  0  0  0  0  0  0  0  0  0
   45.5500   29.8750   35.7550 C   0  0  0  0  0  0  0  0  0  0  0  0
   47.5751   31.1168   40.1359 H   0  0  0  0  0  0  0  0  0  0  0  0
   47.0225   34.9420   39.3124 H   0  0  0  0  0  0  0  0  0  0  0  0
   48.8690   33.3128   37.9603 H   0  0  0  0  0  0  0  0  0  0  0  0
   49.3272   32.6145   39.2709 H   0  0  0  0  0  0  0  0  0  0  0  0
   46.1787   32.2740   38.1648 H   0  0  0  0  0  0  0  0  0  0  0  0
   48.5861   32.9861   43.7794 H   0  0  0  0  0  0  0  0  0  0  0  0
   46.6877   34.3723   44.7376 H   0  0  0  0  0  0  0  0  0  0  0  0
   45.0833   30.6789   39.0915 H   0  0  0  0  0  0  0  0  0  0  0  0
   47.7678   28.9717   39.7420 H   0  0  0  0  0  0  0  0  0  0  0  0
   46.5983   28.0028   39.4351 H   0  0  0  0  0  0  0  0  0  0  0  0
   47.6128   30.2403   37.1477 H   0  0  0  0  0  0  0  0  0  0  0  0
   45.8843   27.0635   37.3720 H   0  0  0  0  0  0  0  0  0  0  0  0
   43.8883   31.1401   32.6741 H   0  0  0  0  0  0  0  0  0  0  0  0
   45.7381   33.6563   34.5741 H   0  0  0  0  0  0  0  0  0  0  0  0
   44.7421   33.4203   33.1130 H   0  0  0  0  0  0  0  0  0  0  0  0
  2  9  1  0
  3  2  1  0
  4  3  1  0
  4  2  1  0
  4  1  1  0
  5  6  2  0
  7 11  1  0
  7  6  1  0
  8  7  2  0
  9  8  1  0
  9 10  2  0
 10  5  1  0
 11 14  1  0
 12 11  1  0
 13 11  1  0
 15 16  1  0
 15  1  1  0
 17 15  1  0
 17 16  1  0
 18 17  1  0
 19 18  1  0
 20 19  2  0
 21 20  1  0
 21 28  2  0
 22 21  1  0
 23 22  2  0
 24 22  1  0
 24 25  1  0
 25 27  2  0
 26 25  1  0
 27 28  1  0
 28 18  1  0
  1 29  1  0
  2 30  1  6
  3 31  1  0
  3 32  1  0
  4 33  1  6
  5 34  1  0
  6 35  1  0
 15 36  1  6
 16 37  1  0
 16 38  1  0
 17 39  1  6
 19 40  1  0
 24 41  1  0
 26 42  1  0
 26 43  1  0
M  ISO  8  29   5  30  13  31  13  32  13  33  13  34  14  35  14  36  13
M  ISO  5  37  13  38  13  39  13  40  14  41   9
M  END
>  <minimizedAffinity>  (1) 
-5.69299412

>  <minimizedRMSD>  (1) 
7.89725637

$$$$
