
     RDKit          3D

 45 49  0  0  1  0  0  0  0  0999 V2000
   44.7490   31.3590   41.8130 C   0  0  1  0  0  0  0  0  0  0  0  0
   44.1840   30.5320   42.9210 C   0  0  0  0  0  0  0  0  0  0  0  0
   43.2830   31.1410   41.8840 C   0  0  1  0  0  0  0  0  0  0  0  0
   44.7430   34.9250   42.8110 C   0  0  0  0  0  0  0  0  0  0  0  0
   46.0910   35.2910   42.5530 C   0  0  0  0  0  0  0  0  0  0  0  0
   46.9460   34.3290   42.0520 C   0  0  0  0  0  0  0  0  0  0  0  0
   46.4800   33.0600   41.8180 N   0  0  0  0  0  0  0  0  0  0  0  0
   45.2040   32.7470   42.0720 C   0  0  0  0  0  0  0  0  0  0  0  0
   44.3420   33.6760   42.5650 N   0  0  0  0  0  0  0  0  0  0  0  0
   48.3850   34.6760   41.7620 C   0  0  0  0  0  0  0  0  0  0  0  0
   48.9530   34.7690   43.0330 F   0  0  0  0  0  0  0  0  0  0  0  0
   49.0450   33.6910   41.0730 F   0  0  0  0  0  0  0  0  0  0  0  0
   48.4960   35.8870   41.1390 F   0  0  0  0  0  0  0  0  0  0  0  0
   42.3970   32.1370   42.4020 N   0  0  0  0  0  0  0  0  0  0  0  0
   41.1680   32.2290   41.6500 C   0  0  2  0  0  0  0  0  0  0  0  0
   40.4610   30.9210   41.4620 C   0  0  0  0  0  0  0  0  0  0  0  0
   41.1110   31.6790   40.2990 C   0  0  1  0  0  0  0  0  0  0  0  0
   40.1890   32.4430   39.3980 C   0  0  0  0  0  0  0  0  0  0  0  0
   38.8950   32.1400   39.0280 C   0  0  0  0  0  0  0  0  0  0  0  0
   38.2170   32.9890   38.1790 C   0  0  0  0  0  0  0  0  0  0  0  0
   38.7810   34.1420   37.6760 C   0  0  0  0  0  0  0  0  0  0  0  0
   40.0730   34.4520   38.0410 C   0  0  0  0  0  0  0  0  0  0  0  0
   40.6020   35.6130   37.5170 C   0  0  0  0  0  0  0  0  0  0  0  0
   41.8930   35.9640   37.8530 C   0  0  0  0  0  0  0  0  0  0  0  0
   42.6200   35.1530   38.6990 C   0  0  0  0  0  0  0  0  0  0  0  0
   42.0420   34.0210   39.1830 C   0  0  0  0  0  0  0  0  0  0  0  0
   40.7620   33.6110   38.8890 C   0  0  0  0  0  0  0  0  0  0  0  0
   45.5518   31.1809   41.0824 H   0  0  0  0  0  0  0  0  0  0  0  0
   44.3499   29.4447   42.9378 H   0  0  0  0  0  0  0  0  0  0  0  0
   44.2386   30.5548   44.0194 H   0  0  0  0  0  0  0  0  0  0  0  0
   42.5547   30.8114   41.1284 H   0  0  0  0  0  0  0  0  0  0  0  0
   44.0347   35.6656   43.2107 H   0  0  0  0  0  0  0  0  0  0  0  0
   46.4448   36.3143   42.7472 H   0  0  0  0  0  0  0  0  0  0  0  0
   42.1698   31.9012   43.3786 H   0  0  0  0  0  0  0  0  0  0  0  0
   40.9109   33.2208   42.0503 H   0  0  0  0  0  0  0  0  0  0  0  0
   40.9072   29.9881   41.8370 H   0  0  0  0  0  0  0  0  0  0  0  0
   39.4608   30.5220   41.6867 H   0  0  0  0  0  0  0  0  0  0  0  0
   41.8323   31.3963   39.5181 H   0  0  0  0  0  0  0  0  0  0  0  0
   38.4084   31.2292   39.4069 H   0  0  0  0  0  0  0  0  0  0  0  0
   37.1856   32.7364   37.8918 H   0  0  0  0  0  0  0  0  0  0  0  0
   38.2135   34.7984   36.9999 H   0  0  0  0  0  0  0  0  0  0  0  0
   40.0058   36.2469   36.8441 H   0  0  0  0  0  0  0  0  0  0  0  0
   42.3396   36.8845   37.4489 H   0  0  0  0  0  0  0  0  0  0  0  0
   43.6507   35.4174   38.9778 H   0  0  0  0  0  0  0  0  0  0  0  0
   42.6396   33.3891   39.8565 H   0  0  0  0  0  0  0  0  0  0  0  0
  1  3  1  0
  1  8  1  0
  1  2  1  0
  3 14  1  0
  3  2  1  0
  5  4  2  0
  6  5  1  0
  7  6  2  0
  7  8  1  0
  8  9  2  0
  9  4  1  0
 10  6  1  0
 10 11  1  0
 12 10  1  0
 13 10  1  0
 15 14  1  0
 16 15  1  0
 17 16  1  0
 17 15  1  0
 18 17  1  0
 19 18  2  0
 20 19  1  0
 21 22  1  0
 21 20  2  0
 22 27  2  0
 23 24  2  0
 23 22  1  0
 24 25  1  0
 25 26  2  0
 27 26  1  0
 27 18  1  0
  1 28  1  6
  2 29  1  0
  2 30  1  0
  3 31  1  6
  4 32  1  0
  5 33  1  0
 14 34  1  0
 15 35  1  6
 16 36  1  0
 16 37  1  0
 17 38  1  6
 19 39  1  0
 20 40  1  0
 21 41  1  0
 23 42  1  0
 24 43  1  0
 25 44  1  0
 26 45  1  0
M  ISO  8  28  13  29  13  30  13  31  13  32  14  33  14  34   5  35  13
M  ISO  8  36  13  37  13  38  13  39  14  40  14  41  14  42  14  43  14
M  ISO  2  44  14  45  14
M  END
>  <minimizedAffinity>  (1) 
-6.49094248

>  <minimizedRMSD>  (1) 
3.40182352

$$$$
