
     RDKit          3D

 39 42  0  0  1  0  0  0  0  0999 V2000
   44.6160   31.8160   41.7050 C   0  0  1  0  0  0  0  0  0  0  0  0
   43.6670   31.2430   42.7060 C   0  0  0  0  0  0  0  0  0  0  0  0
   43.1560   32.0320   41.5340 C   0  0  1  0  0  0  0  0  0  0  0  0
   45.8110   34.8570   43.4480 C   0  0  0  0  0  0  0  0  0  0  0  0
   46.9050   35.2370   42.6190 C   0  0  0  0  0  0  0  0  0  0  0  0
   47.1940   34.4610   41.5110 C   0  0  0  0  0  0  0  0  0  0  0  0
   46.4280   33.3630   41.2460 N   0  0  0  0  0  0  0  0  0  0  0  0
   45.4050   33.0270   42.0410 C   0  0  0  0  0  0  0  0  0  0  0  0
   45.1020   33.7700   43.1310 N   0  0  0  0  0  0  0  0  0  0  0  0
   48.3420   34.8420   40.6180 C   0  0  0  0  0  0  0  0  0  0  0  0
   49.2960   33.8600   40.8830 F   0  0  0  0  0  0  0  0  0  0  0  0
   48.0190   34.7690   39.2840 F   0  0  0  0  0  0  0  0  0  0  0  0
   48.8600   36.0630   40.9420 F   0  0  0  0  0  0  0  0  0  0  0  0
   42.5240   33.2640   41.8970 N   0  0  0  0  0  0  0  0  0  0  0  0
   41.2840   33.4720   41.1830 C   0  0  2  0  0  0  0  0  0  0  0  0
   40.0840   32.8120   41.8210 C   0  0  0  0  0  0  0  0  0  0  0  0
   40.6620   32.3520   40.4910 C   0  0  1  0  0  0  0  0  0  0  0  0
   39.7900   32.7480   39.3300 C   0  0  0  0  0  0  0  0  0  0  0  0
   39.8360   34.0370   38.8270 C   0  0  0  0  0  0  0  0  0  0  0  0
   39.0620   34.4740   37.7610 C   0  0  0  0  0  0  0  0  0  0  0  0
   38.1970   33.5420   37.1780 C   0  0  0  0  0  0  0  0  0  0  0  0
   38.1340   32.2520   37.6630 C   0  0  0  0  0  0  0  0  0  0  0  0
   38.9270   31.8860   38.7200 C   0  0  0  0  0  0  0  0  0  0  0  0
   45.4358   31.3799   41.1152 H   0  0  0  0  0  0  0  0  0  0  0  0
   43.5041   30.1561   42.7523 H   0  0  0  0  0  0  0  0  0  0  0  0
   43.5529   31.3045   43.7983 H   0  0  0  0  0  0  0  0  0  0  0  0
   42.4922   31.8888   40.6687 H   0  0  0  0  0  0  0  0  0  0  0  0
   45.5533   35.4507   44.3375 H   0  0  0  0  0  0  0  0  0  0  0  0
   47.5065   36.1274   42.8545 H   0  0  0  0  0  0  0  0  0  0  0  0
   42.3266   33.2505   42.9078 H   0  0  0  0  0  0  0  0  0  0  0  0
   41.5570   34.4849   40.8522 H   0  0  0  0  0  0  0  0  0  0  0  0
   40.2022   32.1941   42.7233 H   0  0  0  0  0  0  0  0  0  0  0  0
   39.0998   33.1401   42.1867 H   0  0  0  0  0  0  0  0  0  0  0  0
   41.0399   31.4041   40.0804 H   0  0  0  0  0  0  0  0  0  0  0  0
   40.5239   34.7544   39.2982 H   0  0  0  0  0  0  0  0  0  0  0  0
   39.1260   35.5079   37.3908 H   0  0  0  0  0  0  0  0  0  0  0  0
   37.5640   33.8391   36.3288 H   0  0  0  0  0  0  0  0  0  0  0  0
   37.4515   31.5213   37.2044 H   0  0  0  0  0  0  0  0  0  0  0  0
   38.8644   30.8527   39.0920 H   0  0  0  0  0  0  0  0  0  0  0  0
  1  8  1  0
  1  2  1  0
  3  1  1  0
  3 14  1  0
  3  2  1  0
  5  4  2  0
  6  5  1  0
  7  6  2  0
  7  8  1  0
  8  9  2  0
  9  4  1  0
 10 11  1  0
 10 13  1  0
 10  6  1  0
 12 10  1  0
 15 16  1  0
 15 14  1  0
 17 15  1  0
 17 16  1  0
 18 17  1  0
 19 18  2  0
 20 19  1  0
 21 22  1  0
 21 20  2  0
 22 23  2  0
 23 18  1  0
  1 24  1  6
  2 25  1  0
  2 26  1  0
  3 27  1  6
  4 28  1  0
  5 29  1  0
 14 30  1  0
 15 31  1  6
 16 32  1  0
 16 33  1  0
 17 34  1  1
 19 35  1  0
 20 36  1  0
 21 37  1  0
 22 38  1  0
 23 39  1  0
M  ISO  8  24  13  25  13  26  13  27  13  28  14  29  14  30   5  31  13
M  ISO  8  32  13  33  13  34  13  35  14  36  14  37  14  38  14  39  14
M  END
>  <minimizedAffinity>  (1) 
-5.74479294

>  <minimizedRMSD>  (1) 
3.09861588

$$$$
