
     RDKit          3D

 32 34  0  0  1  0  0  0  0  0999 V2000
   44.1130   32.3400   41.2320 C   0  0  1  0  0  0  0  0  0  0  0  0
   43.1250   31.7200   42.1660 C   0  0  0  0  0  0  0  0  0  0  0  0
   42.7030   32.8060   41.2230 C   0  0  1  0  0  0  0  0  0  0  0  0
   45.8330   34.7660   43.4420 C   0  0  0  0  0  0  0  0  0  0  0  0
   46.9730   35.1020   42.6530 C   0  0  0  0  0  0  0  0  0  0  0  0
   47.1140   34.4960   41.4000 C   0  0  0  0  0  0  0  0  0  0  0  0
   46.1640   33.6140   40.9810 N   0  0  0  0  0  0  0  0  0  0  0  0
   45.1040   33.3190   41.7440 C   0  0  0  0  0  0  0  0  0  0  0  0
   44.9420   33.8920   42.9650 N   0  0  0  0  0  0  0  0  0  0  0  0
   48.3010   34.8330   40.5500 C   0  0  0  0  0  0  0  0  0  0  0  0
   49.2170   33.8270   40.8630 F   0  0  0  0  0  0  0  0  0  0  0  0
   48.0250   34.7580   39.2130 F   0  0  0  0  0  0  0  0  0  0  0  0
   48.8460   36.0390   40.8900 F   0  0  0  0  0  0  0  0  0  0  0  0
   42.2980   34.0170   41.8750 N   0  0  0  0  0  0  0  0  0  0  0  0
   40.9500   34.3990   41.5150 C   0  0  2  0  0  0  0  0  0  0  0  0
   39.9140   33.3240   41.7460 C   0  0  0  0  0  0  0  0  0  0  0  0
   40.3160   33.7980   40.3550 C   0  0  1  0  0  0  0  0  0  0  0  0
   39.2560   34.6900   39.6970 C   0  0  0  0  0  0  0  0  0  0  0  0
   39.3380   35.9790   40.2300 F   0  0  0  0  0  0  0  0  0  0  0  0
   39.4650   34.8150   38.3370 F   0  0  0  0  0  0  0  0  0  0  0  0
   37.9740   34.1910   39.9130 F   0  0  0  0  0  0  0  0  0  0  0  0
   44.8236   31.9191   40.5055 H   0  0  0  0  0  0  0  0  0  0  0  0
   42.7862   30.6862   42.0035 H   0  0  0  0  0  0  0  0  0  0  0  0
   43.0694   31.5651   43.2536 H   0  0  0  0  0  0  0  0  0  0  0  0
   41.9873   32.9521   40.4006 H   0  0  0  0  0  0  0  0  0  0  0  0
   45.6890   35.2217   44.4328 H   0  0  0  0  0  0  0  0  0  0  0  0
   47.7219   35.8191   43.0204 H   0  0  0  0  0  0  0  0  0  0  0  0
   42.3435   33.8775   42.8945 H   0  0  0  0  0  0  0  0  0  0  0  0
   41.0938   35.4476   41.8146 H   0  0  0  0  0  0  0  0  0  0  0  0
   40.2140   32.3281   42.1041 H   0  0  0  0  0  0  0  0  0  0  0  0
   38.9763   33.2340   42.3139 H   0  0  0  0  0  0  0  0  0  0  0  0
   40.6854   33.3103   39.4408 H   0  0  0  0  0  0  0  0  0  0  0  0
  1  8  1  0
  1  2  1  0
  3  1  1  0
  3 14  1  0
  3  2  1  0
  5  4  2  0
  6  5  1  0
  7  6  2  0
  7  8  1  0
  8  9  2  0
  9  4  1  0
 10 11  1  0
 10 13  1  0
 10  6  1  0
 12 10  1  0
 15 16  1  0
 15 14  1  0
 17 15  1  0
 17 16  1  0
 18 21  1  0
 18 19  1  0
 18 17  1  0
 20 18  1  0
  1 22  1  6
  2 23  1  0
  2 24  1  0
  3 25  1  6
  4 26  1  0
  5 27  1  0
 14 28  1  0
 15 29  1  1
 16 30  1  0
 16 31  1  0
 17 32  1  6
M  ISO  8  22  13  23  13  24  13  25  13  26  14  27  14  28   5  29  13
M  ISO  3  30  13  31  13  32  13
M  END
>  <minimizedAffinity>  (1) 
-5.74205828

>  <minimizedRMSD>  (1) 
1.49380076

$$$$
