
     RDKit          3D

 32 34  0  0  1  0  0  0  0  0999 V2000
   43.9700   32.4340   41.2030 C   0  0  1  0  0  0  0  0  0  0  0  0
   42.8880   31.9720   42.1220 C   0  0  0  0  0  0  0  0  0  0  0  0
   42.5960   32.9740   41.0450 C   0  0  1  0  0  0  0  0  0  0  0  0
   45.7410   34.9090   43.3100 C   0  0  0  0  0  0  0  0  0  0  0  0
   46.8980   35.1670   42.5210 C   0  0  0  0  0  0  0  0  0  0  0  0
   47.0350   34.5030   41.3120 C   0  0  0  0  0  0  0  0  0  0  0  0
   46.0660   33.6280   40.9160 N   0  0  0  0  0  0  0  0  0  0  0  0
   44.9870   33.4030   41.6770 C   0  0  0  0  0  0  0  0  0  0  0  0
   44.8280   34.0410   42.8670 N   0  0  0  0  0  0  0  0  0  0  0  0
   48.2440   34.7620   40.4570 C   0  0  0  0  0  0  0  0  0  0  0  0
   49.1130   33.7270   40.8030 F   0  0  0  0  0  0  0  0  0  0  0  0
   47.9720   34.6600   39.1170 F   0  0  0  0  0  0  0  0  0  0  0  0
   48.8360   35.9540   40.7610 F   0  0  0  0  0  0  0  0  0  0  0  0
   42.2330   34.2660   41.5330 N   0  0  0  0  0  0  0  0  0  0  0  0
   42.0100   35.2160   40.4660 C   0  0  2  0  0  0  0  0  0  0  0  0
   40.6750   35.9120   40.5250 C   0  0  0  0  0  0  0  0  0  0  0  0
   41.0500   34.9100   39.4250 C   0  0  1  0  0  0  0  0  0  0  0  0
   41.4080   35.5070   38.0900 C   0  0  0  0  0  0  0  0  0  0  0  0
   40.5900   35.7970   37.2000 O   0  0  0  0  0  0  0  0  0  0  0  0
   42.6770   35.8280   37.6360 O   0  0  0  0  0  0  0  0  0  0  0  0
   44.6988   31.8990   40.5765 H   0  0  0  0  0  0  0  0  0  0  0  0
   42.4971   30.9469   42.0421 H   0  0  0  0  0  0  0  0  0  0  0  0
   42.7525   31.9365   43.2130 H   0  0  0  0  0  0  0  0  0  0  0  0
   41.9428   33.0698   40.1652 H   0  0  0  0  0  0  0  0  0  0  0  0
   45.6008   35.4194   44.2743 H   0  0  0  0  0  0  0  0  0  0  0  0
   47.6654   35.8769   42.8631 H   0  0  0  0  0  0  0  0  0  0  0  0
   41.3679   34.1799   42.0853 H   0  0  0  0  0  0  0  0  0  0  0  0
   43.0652   35.5235   40.4217 H   0  0  0  0  0  0  0  0  0  0  0  0
   39.9391   35.6438   41.2974 H   0  0  0  0  0  0  0  0  0  0  0  0
   40.3215   36.9528   40.5663 H   0  0  0  0  0  0  0  0  0  0  0  0
   40.5763   33.9997   39.0288 H   0  0  0  0  0  0  0  0  0  0  0  0
   42.7960   36.2187   36.7342 H   0  0  0  0  0  0  0  0  0  0  0  0
  1  8  1  0
  1  2  1  0
  3  1  1  0
  3 14  1  0
  3  2  1  0
  5  4  2  0
  6  5  1  0
  7  6  2  0
  7  8  1  0
  8  9  2  0
  9  4  1  0
 10 13  1  0
 10 11  1  0
 10  6  1  0
 12 10  1  0
 15 16  1  0
 15 14  1  0
 17 15  1  0
 17 16  1  0
 18 17  1  0
 19 18  2  0
 20 18  1  0
  1 21  1  6
  2 22  1  0
  2 23  1  0
  3 24  1  6
  4 25  1  0
  5 26  1  0
 14 27  1  0
 15 28  1  6
 16 29  1  0
 16 30  1  0
 17 31  1  6
 20 32  1  0
M  ISO  8  21  13  22  13  23  13  24  13  25  14  26  14  27   5  28  13
M  ISO  4  29  13  30  13  31  13  32   3
M  END
>  <minimizedAffinity>  (1) 
-5.46694803

>  <minimizedRMSD>  (1) 
1.42342532

$$$$
