
     RDKit          3D

 30 32  0  0  1  0  0  0  0  0999 V2000
   44.4760   33.5340   40.3160 C   0  0  1  0  0  0  0  0  0  0  0  0
   43.3930   32.5630   40.6590 C   0  0  0  0  0  0  0  0  0  0  0  0
   43.1160   34.0360   40.6360 C   0  0  1  0  0  0  0  0  0  0  0  0
   46.3210   33.7580   43.5220 C   0  0  0  0  0  0  0  0  0  0  0  0
   47.4890   34.4570   43.1110 C   0  0  0  0  0  0  0  0  0  0  0  0
   47.6170   34.8300   41.7840 C   0  0  0  0  0  0  0  0  0  0  0  0
   46.6160   34.5150   40.9100 N   0  0  0  0  0  0  0  0  0  0  0  0
   45.5240   33.8560   41.3170 C   0  0  0  0  0  0  0  0  0  0  0  0
   45.3800   33.4820   42.6150 N   0  0  0  0  0  0  0  0  0  0  0  0
   48.8420   35.5700   41.3290 C   0  0  0  0  0  0  0  0  0  0  0  0
   49.8850   34.7180   41.6910 F   0  0  0  0  0  0  0  0  0  0  0  0
   48.8810   35.7400   39.9720 F   0  0  0  0  0  0  0  0  0  0  0  0
   48.9940   36.7550   41.9920 F   0  0  0  0  0  0  0  0  0  0  0  0
   42.7880   34.5900   41.9160 N   0  0  0  0  0  0  0  0  0  0  0  0
   41.5470   35.3310   41.8860 C   0  0  2  0  0  0  0  0  0  0  0  0
   40.3290   34.4860   41.6190 C   0  0  0  0  0  0  0  0  0  0  0  0
   40.8510   35.5190   40.6300 C   0  0  1  0  0  0  0  0  0  0  0  0
   40.0490   36.6810   40.5830 O   0  0  0  0  0  0  0  0  0  0  0  0
   45.1796   33.6053   39.4735 H   0  0  0  0  0  0  0  0  0  0  0  0
   42.9708   31.9102   39.8808 H   0  0  0  0  0  0  0  0  0  0  0  0
   43.2719   31.7570   41.3978 H   0  0  0  0  0  0  0  0  0  0  0  0
   42.4562   34.7428   40.1115 H   0  0  0  0  0  0  0  0  0  0  0  0
   46.1943   33.4494   44.5702 H   0  0  0  0  0  0  0  0  0  0  0  0
   48.2795   34.6979   43.8370 H   0  0  0  0  0  0  0  0  0  0  0  0
   42.7002   33.8226   42.5974 H   0  0  0  0  0  0  0  0  0  0  0  0
   41.8721   36.0432   42.6587 H   0  0  0  0  0  0  0  0  0  0  0  0
   40.4310   33.4111   41.4087 H   0  0  0  0  0  0  0  0  0  0  0  0
   39.3748   34.2848   42.1279 H   0  0  0  0  0  0  0  0  0  0  0  0
   41.1572   35.5089   39.5735 H   0  0  0  0  0  0  0  0  0  0  0  0
   39.8440   36.9780   41.5049 H   0  0  0  0  0  0  0  0  0  0  0  0
  1  3  1  0
  1  2  1  0
  1  8  1  0
  3  2  1  0
  3 14  1  0
  5  4  2  0
  6  5  1  0
  7  8  1  0
  7  6  2  0
  8  9  2  0
  9  4  1  0
 10 11  1  0
 10  6  1  0
 10 13  1  0
 12 10  1  0
 15 14  1  0
 16 15  1  0
 17 16  1  0
 17 15  1  0
 18 17  1  0
  1 19  1  6
  2 20  1  0
  2 21  1  0
  3 22  1  6
  4 23  1  0
  5 24  1  0
 14 25  1  0
 15 26  1  1
 16 27  1  0
 16 28  1  0
 17 29  1  6
 18 30  1  0
M  ISO  8  19  13  20  13  21  13  22  13  23  14  24  14  25   5  26  13
M  ISO  4  27  13  28  13  29  13  30   3
M  END
>  <minimizedAffinity>  (1) 
-5.05864096

>  <minimizedRMSD>  (1) 
0.875327885

$$$$
