
     RDKit          3D

 20 21  0  0  0  0  0  0  0  0999 V2000
   46.3640   32.7940   45.5430 C   0  0  0  0  0  0  0  0  0  0  0  0
   46.1930   31.6120   45.1400 O   0  0  0  0  0  0  0  0  0  0  0  0
   44.5280   35.8320   44.7270 C   0  0  0  0  0  0  0  0  0  0  0  0
   44.9940   36.1640   43.4550 C   0  0  0  0  0  0  0  0  0  0  0  0
   45.9480   35.3350   42.8760 C   0  0  0  0  0  0  0  0  0  0  0  0
   46.3890   34.2360   43.5660 N   0  0  0  0  0  0  0  0  0  0  0  0
   45.9050   33.9540   44.8010 C   0  0  0  0  0  0  0  0  0  0  0  0
   44.9910   34.7380   45.3700 N   0  0  0  0  0  0  0  0  0  0  0  0
   47.0280   32.9070   46.7580 O   0  0  0  0  0  0  0  0  0  0  0  0
   46.5130   30.7640   49.5490 N   0  0  0  0  0  0  0  0  0  0  0  0
   47.3030   31.2320   48.5900 N   0  0  0  0  0  0  0  0  0  0  0  0
   46.6420   32.1460   47.8560 C   0  0  0  0  0  0  0  0  0  0  0  0
   45.3660   32.2250   48.4260 C   0  0  0  0  0  0  0  0  0  0  0  0
   45.3030   31.3590   49.4790 C   0  0  0  0  0  0  0  0  0  0  0  0
   43.7741   36.4690   45.2126 H   0  0  0  0  0  0  0  0  0  0  0  0
   44.6188   37.0531   42.9270 H   0  0  0  0  0  0  0  0  0  0  0  0
   46.3447   35.5587   41.8747 H   0  0  0  0  0  0  0  0  0  0  0  0
   46.7831   30.0527   50.2433 H   0  0  0  0  0  0  0  0  0  0  0  0
   44.5494   32.8770   48.0822 H   0  0  0  0  0  0  0  0  0  0  0  0
   44.4402   31.1815   50.1379 H   0  0  0  0  0  0  0  0  0  0  0  0
  1  9  1  0
  2  1  2  0
  3  8  2  0
  4  3  1  0
  5  4  2  0
  5  6  1  0
  6  7  2  0
  7  8  1  0
  7  1  1  0
  9 12  1  0
 11 10  1  0
 12 13  1  0
 12 11  2  0
 13 14  2  0
 14 10  1  0
  3 15  1  0
  4 16  1  0
  5 17  1  0
 10 18  1  0
 13 19  1  0
 14 20  1  0
M  ISO  6  15  14  16  14  17  14  18   9  19  14  20  14
M  END
>  <minimizedAffinity>  (1) 
-4.86841249

>  <minimizedRMSD>  (1) 
1.58782661

$$$$
