
     RDKit          3D

 20 21  0  0  0  0  0  0  0  0999 V2000
   46.0690   33.2790   45.9780 C   0  0  0  0  0  0  0  0  0  0  0  0
   47.0780   32.5160   45.9290 O   0  0  0  0  0  0  0  0  0  0  0  0
   44.4870   36.0850   44.2790 C   0  0  0  0  0  0  0  0  0  0  0  0
   45.1270   36.1100   43.0390 C   0  0  0  0  0  0  0  0  0  0  0  0
   46.1080   35.1580   42.7800 C   0  0  0  0  0  0  0  0  0  0  0  0
   46.3940   34.2450   43.7640 N   0  0  0  0  0  0  0  0  0  0  0  0
   45.7610   34.2480   44.9440 C   0  0  0  0  0  0  0  0  0  0  0  0
   44.8150   35.1620   45.2000 N   0  0  0  0  0  0  0  0  0  0  0  0
   45.2700   33.1190   47.1050 O   0  0  0  0  0  0  0  0  0  0  0  0
   45.4570   32.1080   48.0410 C   0  0  0  0  0  0  0  0  0  0  0  0
   44.8250   30.8760   47.8450 C   0  0  0  0  0  0  0  0  0  0  0  0
   45.1840   30.0720   48.9190 C   0  0  0  0  0  0  0  0  0  0  0  0
   45.9880   30.8180   49.6950 N   0  0  0  0  0  0  0  0  0  0  0  0
   46.1490   32.0210   49.1750 N   0  0  0  0  0  0  0  0  0  0  0  0
   43.7071   36.8272   44.5049 H   0  0  0  0  0  0  0  0  0  0  0  0
   44.8620   36.8648   42.2840 H   0  0  0  0  0  0  0  0  0  0  0  0
   46.6380   35.1377   41.8163 H   0  0  0  0  0  0  0  0  0  0  0  0
   44.1716   30.5982   47.0048 H   0  0  0  0  0  0  0  0  0  0  0  0
   44.8724   29.0324   49.0984 H   0  0  0  0  0  0  0  0  0  0  0  0
   46.4189   30.4962   50.5735 H   0  0  0  0  0  0  0  0  0  0  0  0
  1  9  1  0
  2  1  2  0
  3  8  2  0
  4  3  1  0
  5  4  2  0
  5  6  1  0
  6  7  2  0
  7  8  1  0
  7  1  1  0
  9 10  1  0
 10 14  2  0
 11 10  1  0
 11 12  2  0
 12 13  1  0
 14 13  1  0
  3 15  1  0
  4 16  1  0
  5 17  1  0
 11 18  1  0
 12 19  1  0
 13 20  1  0
M  ISO  6  15  14  16  14  17  14  18  14  19  14  20   9
M  END
>  <minimizedAffinity>  (1) 
-4.73500443

>  <minimizedRMSD>  (1) 
1.10255718

$$$$
