
     RDKit          3D

 18 19  0  0  0  0  0  0  0  0999 V2000
   44.4920   36.0870   44.2210 C   0  0  0  0  0  0  0  0  0  0  0  0
   45.1560   36.0710   42.9920 C   0  0  0  0  0  0  0  0  0  0  0  0
   46.1380   35.1050   42.7980 C   0  0  0  0  0  0  0  0  0  0  0  0
   46.4130   34.2150   43.8170 N   0  0  0  0  0  0  0  0  0  0  0  0
   45.7400   34.2780   44.9820 C   0  0  0  0  0  0  0  0  0  0  0  0
   44.7870   35.1970   45.2010 N   0  0  0  0  0  0  0  0  0  0  0  0
   46.0240   33.3450   46.0570 C   0  0  0  0  0  0  0  0  0  0  0  0
   47.0600   32.6220   46.0740 O   0  0  0  0  0  0  0  0  0  0  0  0
   45.1820   33.1770   47.1470 O   0  0  0  0  0  0  0  0  0  0  0  0
   45.2910   32.1230   48.0470 C   0  0  0  0  0  0  0  0  0  0  0  0
   45.7820   32.0320   49.2930 N   0  0  0  0  0  0  0  0  0  0  0  0
   45.6680   30.8180   49.7470 O   0  0  0  0  0  0  0  0  0  0  0  0
   45.1020   30.1030   48.8020 C   0  0  0  0  0  0  0  0  0  0  0  0
   44.8470   30.8840   47.7120 N   0  0  0  0  0  0  0  0  0  0  0  0
   43.7103   36.8403   44.3984 H   0  0  0  0  0  0  0  0  0  0  0  0
   44.9105   36.7981   42.2039 H   0  0  0  0  0  0  0  0  0  0  0  0
   46.6874   35.0510   41.8466 H   0  0  0  0  0  0  0  0  0  0  0  0
   44.8676   29.0309   48.8778 H   0  0  0  0  0  0  0  0  0  0  0  0
  1  6  2  0
  2  1  1  0
  3  2  2  0
  3  4  1  0
  4  5  2  0
  5  6  1  0
  5  7  1  0
  7  8  2  0
  7  9  1  0
  9 10  1  0
 10 11  2  0
 11 12  1  0
 13 12  1  0
 14 10  1  0
 14 13  2  0
  1 15  1  0
  2 16  1  0
  3 17  1  0
 13 18  1  0
M  ISO  4  15  14  16  14  17  14  18  14
M  END
>  <minimizedAffinity>  (1) 
-4.48978662

>  <minimizedRMSD>  (1) 
1.04171693

$$$$
