
     RDKit          3D

 29 30  0  0  0  0  0  0  0  0999 V2000
   44.5700   35.6850   44.9250 C   0  0  0  0  0  0  0  0  0  0  0  0
   44.8490   36.3140   43.7020 C   0  0  0  0  0  0  0  0  0  0  0  0
   45.7080   35.6480   42.8340 C   0  0  0  0  0  0  0  0  0  0  0  0
   46.2360   34.4260   43.2070 N   0  0  0  0  0  0  0  0  0  0  0  0
   45.9210   33.8760   44.4120 C   0  0  0  0  0  0  0  0  0  0  0  0
   45.0920   34.4950   45.2760 N   0  0  0  0  0  0  0  0  0  0  0  0
   46.4820   32.5920   44.7930 C   0  0  0  0  0  0  0  0  0  0  0  0
   47.6570   32.2420   44.5030 O   0  0  0  0  0  0  0  0  0  0  0  0
   45.7370   31.6620   45.5100 O   0  0  0  0  0  0  0  0  0  0  0  0
   46.0780   31.2300   46.8260 C   0  0  0  0  0  0  0  0  0  0  0  0
   46.4960   32.4170   47.6270 C   0  0  0  0  0  0  0  0  0  0  0  0
   47.8370   32.2450   48.3210 C   0  0  0  0  0  0  0  0  0  0  0  0
   47.7530   30.8710   48.9970 C   0  0  0  0  0  0  0  0  0  0  0  0
   47.9460   29.8760   47.8760 C   0  0  0  0  0  0  0  0  0  0  0  0
   47.0720   30.1380   46.6920 C   0  0  0  0  0  0  0  0  0  0  0  0
   43.8925   36.1884   45.6304 H   0  0  0  0  0  0  0  0  0  0  0  0
   44.4090   37.2881   43.4419 H   0  0  0  0  0  0  0  0  0  0  0  0
   45.9648   36.0896   41.8598 H   0  0  0  0  0  0  0  0  0  0  0  0
   45.2359   30.8015   47.3893 H   0  0  0  0  0  0  0  0  0  0  0  0
   46.5623   33.2843   46.9537 H   0  0  0  0  0  0  0  0  0  0  0  0
   45.7415   32.5542   48.4156 H   0  0  0  0  0  0  0  0  0  0  0  0
   48.6580   32.2676   47.5893 H   0  0  0  0  0  0  0  0  0  0  0  0
   48.0388   33.0513   49.0415 H   0  0  0  0  0  0  0  0  0  0  0  0
   48.5451   30.7619   49.7525 H   0  0  0  0  0  0  0  0  0  0  0  0
   46.7975   30.7245   49.5219 H   0  0  0  0  0  0  0  0  0  0  0  0
   48.9958   29.9172   47.5502 H   0  0  0  0  0  0  0  0  0  0  0  0
   47.6711   28.8863   48.2696 H   0  0  0  0  0  0  0  0  0  0  0  0
   46.5214   29.2113   46.4727 H   0  0  0  0  0  0  0  0  0  0  0  0
   47.7558   30.4660   45.8952 H   0  0  0  0  0  0  0  0  0  0  0  0
  1  6  2  0
  2  1  1  0
  3  4  1  0
  3  2  2  0
  4  5  2  0
  5  7  1  0
  5  6  1  0
  7  9  1  0
  8  7  2  0
  9 10  1  0
 10 11  1  0
 11 12  1  0
 12 13  1  0
 14 13  1  0
 15 10  1  0
 15 14  1  0
  1 16  1  0
  2 17  1  0
  3 18  1  0
 10 19  1  0
 11 20  1  0
 11 21  1  0
 12 22  1  0
 12 23  1  0
 13 24  1  0
 13 25  1  0
 14 26  1  0
 14 27  1  0
 15 28  1  0
 15 29  1  0
M  ISO  8  16  14  17  14  18  14  19  13  20  13  21  13  22  13  23  13
M  ISO  6  24  13  25  13  26  13  27  13  28  13  29  13
M  END
>  <minimizedAffinity>  (1) 
-4.21938038

>  <minimizedRMSD>  (1) 
2.32971525

$$$$
