
     RDKit          3D

 19 20  0  0  0  0  0  0  0  0999 V2000
   44.5250   35.8300   44.5140 C   0  0  0  0  0  0  0  0  0  0  0  0
   44.9360   36.2620   43.2530 C   0  0  0  0  0  0  0  0  0  0  0  0
   45.9430   35.5280   42.6290 C   0  0  0  0  0  0  0  0  0  0  0  0
   46.4770   34.4290   43.2730 N   0  0  0  0  0  0  0  0  0  0  0  0
   46.0240   34.0700   44.5040 C   0  0  0  0  0  0  0  0  0  0  0  0
   45.0620   34.7490   45.1290 N   0  0  0  0  0  0  0  0  0  0  0  0
   46.6110   32.9000   45.1610 C   0  0  0  0  0  0  0  0  0  0  0  0
   46.6660   31.7620   44.6470 O   0  0  0  0  0  0  0  0  0  0  0  0
   47.1540   33.0170   46.4380 O   0  0  0  0  0  0  0  0  0  0  0  0
   46.6310   32.2930   47.5300 C   0  0  0  0  0  0  0  0  0  0  0  0
   45.2580   32.2930   47.9640 C   0  0  0  0  0  0  0  0  0  0  0  0
   45.3430   31.1760   49.3680 S   0  0  0  0  0  0  0  0  0  0  0  0
   47.2210   30.8800   49.1530 C   0  0  0  0  0  0  0  0  0  0  0  0
   47.5950   31.6030   48.1080 N   0  0  0  0  0  0  0  0  0  0  0  0
   43.7318   36.3904   45.0305 H   0  0  0  0  0  0  0  0  0  0  0  0
   44.4853   37.1429   42.7725 H   0  0  0  0  0  0  0  0  0  0  0  0
   46.3088   35.8209   41.6338 H   0  0  0  0  0  0  0  0  0  0  0  0
   44.3928   32.8306   47.5488 H   0  0  0  0  0  0  0  0  0  0  0  0
   47.8625   30.2373   49.7737 H   0  0  0  0  0  0  0  0  0  0  0  0
  1  6  2  0
  2  1  1  0
  3  2  2  0
  3  4  1  0
  4  5  2  0
  5  6  1  0
  5  7  1  0
  7  9  1  0
  8  7  2  0
  9 10  1  0
 10 11  2  0
 10 14  1  0
 11 12  1  0
 13 12  1  0
 14 13  2  0
  1 15  1  0
  2 16  1  0
  3 17  1  0
 11 18  1  0
 13 19  1  0
M  ISO  5  15  14  16  14  17  14  18  14  19  14
M  END
>  <minimizedAffinity>  (1) 
-4.14255047

>  <minimizedRMSD>  (1) 
2.07903433

$$$$
