
     RDKit          3D

 20 21  0  0  0  0  0  0  0  0999 V2000
   44.4670   35.8800   44.8410 C   0  0  0  0  0  0  0  0  0  0  0  0
   45.0100   35.9760   43.5410 C   0  0  0  0  0  0  0  0  0  0  0  0
   45.9490   35.0180   43.1770 C   0  0  0  0  0  0  0  0  0  0  0  0
   46.3140   34.0330   44.0670 N   0  0  0  0  0  0  0  0  0  0  0  0
   45.7540   33.9960   45.3050 C   0  0  0  0  0  0  0  0  0  0  0  0
   44.8550   34.9000   45.6740 N   0  0  0  0  0  0  0  0  0  0  0  0
   46.1190   32.9700   46.2650 C   0  0  0  0  0  0  0  0  0  0  0  0
   47.1800   32.2900   46.1480 O   0  0  0  0  0  0  0  0  0  0  0  0
   45.3210   32.6690   47.3750 O   0  0  0  0  0  0  0  0  0  0  0  0
   45.8710   32.3090   48.6250 C   0  0  0  0  0  0  0  0  0  0  0  0
   46.3610   30.9440   48.9140 C   0  0  0  0  0  0  0  0  0  0  0  0
   45.1360   31.4620   49.5820 C   0  0  0  0  0  0  0  0  0  0  0  0
   43.7193   36.6145   45.1747 H   0  0  0  0  0  0  0  0  0  0  0  0
   44.7036   36.7731   42.8476 H   0  0  0  0  0  0  0  0  0  0  0  0
   46.4018   35.0469   42.1749 H   0  0  0  0  0  0  0  0  0  0  0  0
   46.3205   33.3124   48.6577 H   0  0  0  0  0  0  0  0  0  0  0  0
   46.2811   30.1565   48.1502 H   0  0  0  0  0  0  0  0  0  0  0  0
   47.3134   30.5131   49.2563 H   0  0  0  0  0  0  0  0  0  0  0  0
   45.1540   31.7014   50.6555 H   0  0  0  0  0  0  0  0  0  0  0  0
   44.0959   31.1167   49.6769 H   0  0  0  0  0  0  0  0  0  0  0  0
  1  6  2  0
  2  1  1  0
  3  2  2  0
  3  4  1  0
  4  5  2  0
  5  6  1  0
  5  7  1  0
  7  9  1  0
  8  7  2  0
  9 10  1  0
 10 11  1  0
 10 12  1  0
 11 12  1  0
  1 13  1  0
  2 14  1  0
  3 15  1  0
 10 16  1  0
 11 17  1  0
 11 18  1  0
 12 19  1  0
 12 20  1  0
M  ISO  8  13  14  14  14  15  14  16  13  17  13  18  13  19  13  20  13
M  END
>  <minimizedAffinity>  (1) 
-4.26285172

>  <minimizedRMSD>  (1) 
0.83333087

$$$$
