
     RDKit          3D

 15 15  0  0  0  0  0  0  0  0999 V2000
   44.5030   35.8330   44.6830 C   0  0  0  0  0  0  0  0  0  0  0  0
   45.1500   35.7630   43.4480 C   0  0  0  0  0  0  0  0  0  0  0  0
   46.1020   34.7680   43.2520 C   0  0  0  0  0  0  0  0  0  0  0  0
   46.3430   33.9120   44.2940 N   0  0  0  0  0  0  0  0  0  0  0  0
   45.7000   34.0120   45.4660 C   0  0  0  0  0  0  0  0  0  0  0  0
   44.7740   34.9630   45.6880 N   0  0  0  0  0  0  0  0  0  0  0  0
   45.9930   33.0720   46.5540 C   0  0  0  0  0  0  0  0  0  0  0  0
   47.0340   32.3740   46.5880 O   0  0  0  0  0  0  0  0  0  0  0  0
   45.0890   32.9210   47.6240 O   0  0  0  0  0  0  0  0  0  0  0  0
   45.0230   31.7320   48.3430 C   0  0  0  0  0  0  0  0  0  0  0  0
   45.3920   31.6870   49.5420 O   0  0  0  0  0  0  0  0  0  0  0  0
   43.7500   36.6180   44.8463 H   0  0  0  0  0  0  0  0  0  0  0  0
   44.9122   36.4790   42.6475 H   0  0  0  0  0  0  0  0  0  0  0  0
   46.6403   34.6722   42.2975 H   0  0  0  0  0  0  0  0  0  0  0  0
   44.6435   30.8217   47.8558 H   0  0  0  0  0  0  0  0  0  0  0  0
  1  6  2  0
  2  1  1  0
  3  2  2  0
  3  4  1  0
  4  5  2  0
  5  6  1  0
  5  7  1  0
  7  8  2  0
  7  9  1  0
  9 10  1  0
 10 11  2  0
  1 12  1  0
  2 13  1  0
  3 14  1  0
 10 15  1  0
M  ISO  4  12  14  13  14  14  14  15   6
M  END
>  <minimizedAffinity>  (1) 
-3.84827089

>  <minimizedRMSD>  (1) 
0.798194289

$$$$
