
     RDKit          3D

 35 38  0  0  0  0  0  0  0  0999 V2000
   45.2190   34.3670   43.5800 C   0  0  0  0  0  0  0  0  0  0  0  0
   45.4950   35.6810   43.2970 C   0  0  0  0  0  0  0  0  0  0  0  0
   44.7750   36.2810   42.2860 C   0  0  0  0  0  0  0  0  0  0  0  0
   43.8430   35.6080   41.6070 N   0  0  0  0  0  0  0  0  0  0  0  0
   43.5750   34.3110   41.8920 C   0  0  0  0  0  0  0  0  0  0  0  0
   44.2770   33.6840   42.8960 N   0  0  0  0  0  0  0  0  0  0  0  0
   42.5680   33.6580   41.1250 N   0  0  0  0  0  0  0  0  0  0  0  0
   42.0360   32.4830   41.5510 C   0  0  0  0  0  0  0  0  0  0  0  0
   41.1040   32.0820   40.6380 N   0  0  0  0  0  0  0  0  0  0  0  0
   41.0650   33.0050   39.6600 C   0  0  0  0  0  0  0  0  0  0  0  0
   40.3650   33.1950   38.4850 C   0  0  0  0  0  0  0  0  0  0  0  0
   39.5190   32.2800   38.2090 O   0  0  0  0  0  0  0  0  0  0  0  0
   40.5350   34.2510   37.6700 N   0  0  0  0  0  0  0  0  0  0  0  0
   41.4570   35.1760   38.0420 C   0  0  0  0  0  0  0  0  0  0  0  0
   41.6920   36.3180   37.2320 N   0  0  0  0  0  0  0  0  0  0  0  0
   42.1880   35.0740   39.1740 N   0  0  0  0  0  0  0  0  0  0  0  0
   41.9900   34.0030   39.9670 C   0  0  0  0  0  0  0  0  0  0  0  0
   45.7800   33.5120   44.5360 O   0  0  0  0  0  0  0  0  0  0  0  0
   45.4550   33.7360   45.8930 C   0  0  0  0  0  0  0  0  0  0  0  0
   44.7470   34.7350   46.1080 O   0  0  0  0  0  0  0  0  0  0  0  0
   47.5980   31.3680   47.6830 C   0  0  0  0  0  0  0  0  0  0  0  0
   46.8820   31.1300   48.8460 C   0  0  0  0  0  0  0  0  0  0  0  0
   45.6550   31.7760   49.0360 C   0  0  0  0  0  0  0  0  0  0  0  0
   45.2080   32.6300   48.0450 N   0  0  0  0  0  0  0  0  0  0  0  0
   45.9420   32.8300   46.9300 C   0  0  0  0  0  0  0  0  0  0  0  0
   47.1280   32.2150   46.7310 N   0  0  0  0  0  0  0  0  0  0  0  0
   46.2628   36.2355   43.8565 H   0  0  0  0  0  0  0  0  0  0  0  0
   44.9720   37.3335   42.0341 H   0  0  0  0  0  0  0  0  0  0  0  0
   42.3090   31.9474   42.4722 H   0  0  0  0  0  0  0  0  0  0  0  0
   39.9900   34.3537   36.8020 H   0  0  0  0  0  0  0  0  0  0  0  0
   42.3923   37.0170   37.5181 H   0  0  0  0  0  0  0  0  0  0  0  0
   41.1622   36.4475   36.3582 H   0  0  0  0  0  0  0  0  0  0  0  0
   48.5627   30.8625   47.5287 H   0  0  0  0  0  0  0  0  0  0  0  0
   47.2733   30.4420   49.6099 H   0  0  0  0  0  0  0  0  0  0  0  0
   45.0631   31.6089   49.9480 H   0  0  0  0  0  0  0  0  0  0  0  0
  1 18  1  0
  2  1  2  0
  3  2  1  0
  4  5  1  0
  4  3  2  0
  5  6  2  0
  6  1  1  0
  7  8  1  0
  7  5  1  0
  9  8  2  0
 10 17  2  0
 10  9  1  0
 11 10  1  0
 12 11  2  0
 13 14  1  0
 13 11  1  0
 14 16  2  0
 15 14  1  0
 16 17  1  0
 17  7  1  0
 18 19  1  0
 19 20  2  0
 19 25  1  0
 21 22  2  0
 22 23  1  0
 24 23  2  0
 25 24  1  0
 26 25  2  0
 26 21  1  0
  2 27  1  0
  3 28  1  0
  8 29  1  0
 13 30  1  0
 15 31  1  0
 15 32  1  0
 21 33  1  0
 22 34  1  0
 23 35  1  0
M  ISO  7  27  14  28  14  29  14  30   9  33  14  34  14  35  14
M  END
>  <minimizedAffinity>  (1) 
-6.70572758

>  <minimizedRMSD>  (1) 
2.25623107

$$$$
