
     RDKit          3D

 28 29  0  0  0  0  0  0  0  0999 V2000
   45.1360   34.2770   43.2600 C   0  0  0  0  0  0  0  0  0  0  0  0
   44.8320   35.3790   42.4770 C   0  0  0  0  0  0  0  0  0  0  0  0
   43.9220   35.2150   41.4600 C   0  0  0  0  0  0  0  0  0  0  0  0
   43.3550   34.0250   41.2420 N   0  0  0  0  0  0  0  0  0  0  0  0
   43.6520   32.9510   42.0040 C   0  0  0  0  0  0  0  0  0  0  0  0
   44.5510   33.0890   43.0190 N   0  0  0  0  0  0  0  0  0  0  0  0
   43.0650   31.6470   41.8070 N   0  0  0  0  0  0  0  0  0  0  0  0
   41.7370   31.4280   42.2060 C   0  0  0  0  0  0  0  0  0  0  0  0
   40.8320   32.3150   42.0080 N   0  0  0  0  0  0  0  0  0  0  0  0
   41.3940   30.1810   42.8420 N   0  0  0  0  0  0  0  0  0  0  0  0
   41.0340   33.2110   41.5570 H   0  0  0  0  0  0  0  0  0  0  0  0
   46.0210   34.1940   44.3400 O   0  0  0  0  0  0  0  0  0  0  0  0
   45.4740   34.1500   45.6250 C   0  0  0  0  0  0  0  0  0  0  0  0
   44.6320   35.0500   45.8760 O   0  0  0  0  0  0  0  0  0  0  0  0
   47.3510   31.4530   47.2060 C   0  0  0  0  0  0  0  0  0  0  0  0
   46.6480   31.2010   48.3800 C   0  0  0  0  0  0  0  0  0  0  0  0
   45.5070   31.9740   48.6280 C   0  0  0  0  0  0  0  0  0  0  0  0
   45.1310   32.9450   47.7060 N   0  0  0  0  0  0  0  0  0  0  0  0
   45.8590   33.1370   46.5890 C   0  0  0  0  0  0  0  0  0  0  0  0
   46.9520   32.4090   46.3340 N   0  0  0  0  0  0  0  0  0  0  0  0
   45.3043   36.3548   42.6635 H   0  0  0  0  0  0  0  0  0  0  0  0
   43.6585   36.0703   40.8205 H   0  0  0  0  0  0  0  0  0  0  0  0
   43.6133   30.8872   41.3793 H   0  0  0  0  0  0  0  0  0  0  0  0
   40.4241   30.0049   43.1406 H   0  0  0  0  0  0  0  0  0  0  0  0
   42.1188   29.4659   42.9979 H   0  0  0  0  0  0  0  0  0  0  0  0
   48.2513   30.8622   46.9812 H   0  0  0  0  0  0  0  0  0  0  0  0
   46.9760   30.4242   49.0864 H   0  0  0  0  0  0  0  0  0  0  0  0
   44.9150   31.8151   49.5414 H   0  0  0  0  0  0  0  0  0  0  0  0
  1 12  1  0
  2  1  2  0
  3  2  1  0
  4  3  2  0
  4  5  1  0
  5  6  2  0
  6  1  1  0
  7  5  1  0
  7  8  1  0
  8 10  1  0
  9  8  2  0
 11  9  1  0
 12 13  1  0
 13 14  2  0
 13 19  1  0
 15 16  2  0
 16 17  1  0
 18 17  2  0
 19 18  1  0
 20 19  2  0
 20 15  1  0
  2 21  1  0
  3 22  1  0
  7 23  1  0
 10 24  1  0
 10 25  1  0
 15 26  1  0
 16 27  1  0
 17 28  1  0
M  ISO  5  21  14  22  14  26  14  27  14  28  14
M  END
>  <minimizedAffinity>  (1) 
-5.07563448

>  <minimizedRMSD>  (1) 
0.200655818

$$$$
