
     RDKit          3D

 32 35  0  0  0  0  0  0  0  0999 V2000
   45.2310   34.4300   43.5270 C   0  0  0  0  0  0  0  0  0  0  0  0
   45.4150   35.7390   43.1760 C   0  0  0  0  0  0  0  0  0  0  0  0
   44.6550   36.2690   42.1710 C   0  0  0  0  0  0  0  0  0  0  0  0
   43.7440   35.5250   41.5380 N   0  0  0  0  0  0  0  0  0  0  0  0
   43.5540   34.2220   41.8820 C   0  0  0  0  0  0  0  0  0  0  0  0
   44.3020   33.6650   42.8870 N   0  0  0  0  0  0  0  0  0  0  0  0
   42.5660   33.4920   41.1640 N   0  0  0  0  0  0  0  0  0  0  0  0
   42.0230   32.2670   41.3150 C   0  0  0  0  0  0  0  0  0  0  0  0
   41.1130   32.0880   40.3280 N   0  0  0  0  0  0  0  0  0  0  0  0
   41.0670   33.1870   39.5460 C   0  0  0  0  0  0  0  0  0  0  0  0
   40.2870   33.4410   38.4350 C   0  0  0  0  0  0  0  0  0  0  0  0
   40.4750   34.6600   37.8600 N   0  0  0  0  0  0  0  0  0  0  0  0
   41.3610   35.5420   38.3530 C   0  0  0  0  0  0  0  0  0  0  0  0
   42.1000   35.2530   39.4390 N   0  0  0  0  0  0  0  0  0  0  0  0
   41.9940   34.0890   40.0780 C   0  0  0  0  0  0  0  0  0  0  0  0
   45.8560   33.6420   44.4990 O   0  0  0  0  0  0  0  0  0  0  0  0
   45.4570   33.8310   45.8420 C   0  0  0  0  0  0  0  0  0  0  0  0
   44.6980   34.8070   46.0560 O   0  0  0  0  0  0  0  0  0  0  0  0
   47.5460   31.4440   47.6490 C   0  0  0  0  0  0  0  0  0  0  0  0
   46.8290   31.1950   48.8080 C   0  0  0  0  0  0  0  0  0  0  0  0
   45.6120   31.8570   48.9690 C   0  0  0  0  0  0  0  0  0  0  0  0
   45.1660   32.7250   47.9840 N   0  0  0  0  0  0  0  0  0  0  0  0
   45.9260   32.9200   46.8720 C   0  0  0  0  0  0  0  0  0  0  0  0
   47.0990   32.2890   46.7040 N   0  0  0  0  0  0  0  0  0  0  0  0
   46.1634   36.3561   43.6947 H   0  0  0  0  0  0  0  0  0  0  0  0
   44.7953   37.3205   41.8801 H   0  0  0  0  0  0  0  0  0  0  0  0
   42.2749   31.5406   42.1017 H   0  0  0  0  0  0  0  0  0  0  0  0
   39.5649   32.7098   38.0427 H   0  0  0  0  0  0  0  0  0  0  0  0
   41.4840   36.5175   37.8597 H   0  0  0  0  0  0  0  0  0  0  0  0
   48.5095   30.9352   47.4976 H   0  0  0  0  0  0  0  0  0  0  0  0
   47.2058   30.5005   49.5733 H   0  0  0  0  0  0  0  0  0  0  0  0
   45.0085   31.6912   49.8736 H   0  0  0  0  0  0  0  0  0  0  0  0
  1 16  1  0
  2  1  2  0
  3  2  1  0
  4  5  1  0
  4  3  2  0
  5  6  2  0
  6  1  1  0
  7  8  1  0
  7  5  1  0
  9  8  2  0
 10 15  2  0
 10  9  1  0
 11 10  1  0
 12 13  1  0
 12 11  2  0
 13 14  2  0
 14 15  1  0
 15  7  1  0
 16 17  1  0
 17 18  2  0
 17 23  1  0
 19 20  2  0
 20 21  1  0
 22 21  2  0
 23 22  1  0
 24 23  2  0
 24 19  1  0
  2 25  1  0
  3 26  1  0
  8 27  1  0
 11 28  1  0
 13 29  1  0
 19 30  1  0
 20 31  1  0
 21 32  1  0
M  ISO  8  25  14  26  14  27  14  28  14  29  14  30  14  31  14  32  14
M  END
>  <minimizedAffinity>  (1) 
-6.09392023

>  <minimizedRMSD>  (1) 
1.80462325

$$$$
