
     RDKit          3D

 34 36  0  0  0  0  0  0  0  0999 V2000
   45.1800   34.4380   43.3650 C   0  0  0  0  0  0  0  0  0  0  0  0
   44.9910   35.6670   42.7870 C   0  0  0  0  0  0  0  0  0  0  0  0
   44.0930   35.7770   41.7580 C   0  0  0  0  0  0  0  0  0  0  0  0
   43.4100   34.7020   41.3220 N   0  0  0  0  0  0  0  0  0  0  0  0
   43.6040   33.4910   41.9010 C   0  0  0  0  0  0  0  0  0  0  0  0
   44.4960   33.3570   42.9290 N   0  0  0  0  0  0  0  0  0  0  0  0
   42.8160   32.3460   41.3690 C   0  0  0  0  0  0  0  0  0  0  0  0
   42.8780   31.2080   42.3930 C   0  0  0  0  0  0  0  0  0  0  0  0
   41.6170   30.4560   42.0900 C   0  0  0  0  0  0  0  0  0  0  0  0
   40.6050   31.5980   42.0480 C   0  0  0  0  0  0  0  0  0  0  0  0
   41.3680   32.6850   41.3280 C   0  0  0  0  0  0  0  0  0  0  0  0
   46.0240   34.0560   44.4170 O   0  0  0  0  0  0  0  0  0  0  0  0
   45.4700   34.0600   45.7200 C   0  0  0  0  0  0  0  0  0  0  0  0
   44.6300   34.9620   45.9580 O   0  0  0  0  0  0  0  0  0  0  0  0
   47.4060   31.4310   47.3660 C   0  0  0  0  0  0  0  0  0  0  0  0
   46.6710   31.1800   48.5140 C   0  0  0  0  0  0  0  0  0  0  0  0
   45.5150   31.9010   48.7350 C   0  0  0  0  0  0  0  0  0  0  0  0
   45.1350   32.8500   47.7980 N   0  0  0  0  0  0  0  0  0  0  0  0
   45.8830   33.0610   46.6950 C   0  0  0  0  0  0  0  0  0  0  0  0
   47.0100   32.3690   46.4640 N   0  0  0  0  0  0  0  0  0  0  0  0
   45.5487   36.5462   43.1420 H   0  0  0  0  0  0  0  0  0  0  0  0
   43.9282   36.7552   41.2826 H   0  0  0  0  0  0  0  0  0  0  0  0
   43.2171   32.0930   40.3765 H   0  0  0  0  0  0  0  0  0  0  0  0
   43.7669   30.5785   42.2393 H   0  0  0  0  0  0  0  0  0  0  0  0
   42.9539   31.5498   43.4358 H   0  0  0  0  0  0  0  0  0  0  0  0
   41.6791   29.9346   41.1234 H   0  0  0  0  0  0  0  0  0  0  0  0
   41.3766   29.6612   42.8114 H   0  0  0  0  0  0  0  0  0  0  0  0
   39.7026   31.3090   41.4894 H   0  0  0  0  0  0  0  0  0  0  0  0
   40.2439   31.9006   43.0420 H   0  0  0  0  0  0  0  0  0  0  0  0
   41.1980   33.6509   41.8261 H   0  0  0  0  0  0  0  0  0  0  0  0
   41.0261   32.7605   40.2852 H   0  0  0  0  0  0  0  0  0  0  0  0
   48.3279   30.8603   47.1807 H   0  0  0  0  0  0  0  0  0  0  0  0
   47.0031   30.4196   49.2362 H   0  0  0  0  0  0  0  0  0  0  0  0
   44.9079   31.7265   49.6355 H   0  0  0  0  0  0  0  0  0  0  0  0
  1 12  1  0
  2  1  2  0
  3  2  1  0
  4  3  2  0
  4  5  1  0
  5  6  2  0
  6  1  1  0
  7  5  1  0
  7  8  1  0
  9  8  1  0
 10  9  1  0
 11  7  1  0
 11 10  1  0
 12 13  1  0
 13 14  2  0
 13 19  1  0
 15 16  2  0
 16 17  1  0
 18 17  2  0
 19 18  1  0
 20 19  2  0
 20 15  1  0
  2 21  1  0
  3 22  1  0
  7 23  1  0
  8 24  1  0
  8 25  1  0
  9 26  1  0
  9 27  1  0
 10 28  1  0
 10 29  1  0
 11 30  1  0
 11 31  1  0
 15 32  1  0
 16 33  1  0
 17 34  1  0
M  ISO  8  21  14  22  14  23  13  24  13  25  13  26  13  27  13  28  13
M  ISO  6  29  13  30  13  31  13  32  14  33  14  34  14
M  END
>  <minimizedAffinity>  (1) 
-4.86450958

>  <minimizedRMSD>  (1) 
0.413475811

$$$$
