
     RDKit          3D

 34 36  0  0  0  0  0  0  0  0999 V2000
   45.1560   34.3580   43.3510 C   0  0  0  0  0  0  0  0  0  0  0  0
   45.0140   35.5880   42.7380 C   0  0  0  0  0  0  0  0  0  0  0  0
   44.1030   35.7050   41.7300 C   0  0  0  0  0  0  0  0  0  0  0  0
   43.3620   34.6390   41.3460 N   0  0  0  0  0  0  0  0  0  0  0  0
   43.5050   33.4340   41.9500 C   0  0  0  0  0  0  0  0  0  0  0  0
   44.4070   33.2820   42.9610 N   0  0  0  0  0  0  0  0  0  0  0  0
   42.6980   32.3320   41.5110 N   0  0  0  0  0  0  0  0  0  0  0  0
   42.0290   32.5000   40.2340 C   0  0  0  0  0  0  0  0  0  0  0  0
   41.0980   31.3740   39.9380 C   0  0  0  0  0  0  0  0  0  0  0  0
   41.4550   30.1870   40.5570 O   0  0  0  0  0  0  0  0  0  0  0  0
   41.3840   30.3790   41.9410 C   0  0  0  0  0  0  0  0  0  0  0  0
   42.6120   31.1580   42.3570 C   0  0  0  0  0  0  0  0  0  0  0  0
   46.0060   33.9710   44.3950 O   0  0  0  0  0  0  0  0  0  0  0  0
   45.4920   34.0160   45.7030 C   0  0  0  0  0  0  0  0  0  0  0  0
   44.6820   34.9390   45.9290 O   0  0  0  0  0  0  0  0  0  0  0  0
   47.4210   31.4290   47.3990 C   0  0  0  0  0  0  0  0  0  0  0  0
   46.6900   31.1840   48.5510 C   0  0  0  0  0  0  0  0  0  0  0  0
   45.5220   31.9110   48.7520 C   0  0  0  0  0  0  0  0  0  0  0  0
   45.1510   32.8410   47.7930 N   0  0  0  0  0  0  0  0  0  0  0  0
   45.9040   33.0380   46.6900 C   0  0  0  0  0  0  0  0  0  0  0  0
   47.0220   32.3420   46.4970 N   0  0  0  0  0  0  0  0  0  0  0  0
   45.6196   36.4500   43.0546 H   0  0  0  0  0  0  0  0  0  0  0  0
   43.9692   36.6730   41.2250 H   0  0  0  0  0  0  0  0  0  0  0  0
   41.4557   33.4386   40.2543 H   0  0  0  0  0  0  0  0  0  0  0  0
   42.7982   32.5200   39.4479 H   0  0  0  0  0  0  0  0  0  0  0  0
   40.0908   31.6557   40.2789 H   0  0  0  0  0  0  0  0  0  0  0  0
   41.1360   31.1983   38.8528 H   0  0  0  0  0  0  0  0  0  0  0  0
   40.4761   30.9457   42.1952 H   0  0  0  0  0  0  0  0  0  0  0  0
   41.3437   29.4122   42.4641 H   0  0  0  0  0  0  0  0  0  0  0  0
   43.5108   30.5370   42.2282 H   0  0  0  0  0  0  0  0  0  0  0  0
   42.5420   31.4505   43.4151 H   0  0  0  0  0  0  0  0  0  0  0  0
   48.3476   30.8640   47.2192 H   0  0  0  0  0  0  0  0  0  0  0  0
   47.0243   30.4360   49.2850 H   0  0  0  0  0  0  0  0  0  0  0  0
   44.9071   31.7521   49.6502 H   0  0  0  0  0  0  0  0  0  0  0  0
  1 13  1  0
  2  1  2  0
  3  2  1  0
  4  3  2  0
  4  5  1  0
  5  6  2  0
  6  1  1  0
  7  5  1  0
  7 12  1  0
  8  7  1  0
  9  8  1  0
  9 10  1  0
 10 11  1  0
 11 12  1  0
 13 14  1  0
 14 15  2  0
 14 20  1  0
 16 17  2  0
 17 18  1  0
 19 18  2  0
 20 19  1  0
 21 20  2  0
 21 16  1  0
  2 22  1  0
  3 23  1  0
  8 24  1  0
  8 25  1  0
  9 26  1  0
  9 27  1  0
 11 28  1  0
 11 29  1  0
 12 30  1  0
 12 31  1  0
 16 32  1  0
 17 33  1  0
 18 34  1  0
M  ISO  8  22  14  23  14  24  13  25  13  26  13  27  13  28  13  29  13
M  ISO  5  30  13  31  13  32  14  33  14  34  14
M  END
>  <minimizedAffinity>  (1) 
-4.98656511

>  <minimizedRMSD>  (1) 
0.602903306

$$$$
