
     RDKit          3D

 28 30  0  0  0  0  0  0  0  0999 V2000
   45.2060   34.3270   43.3690 C   0  0  0  0  0  0  0  0  0  0  0  0
   45.0300   35.4710   42.6360 C   0  0  0  0  0  0  0  0  0  0  0  0
   44.1180   35.4510   41.6210 C   0  0  0  0  0  0  0  0  0  0  0  0
   43.4100   34.3540   41.3390 N   0  0  0  0  0  0  0  0  0  0  0  0
   43.5850   33.2120   42.0700 C   0  0  0  0  0  0  0  0  0  0  0  0
   44.4950   33.2050   43.0960 N   0  0  0  0  0  0  0  0  0  0  0  0
   42.8280   32.0210   41.7780 N   0  0  0  0  0  0  0  0  0  0  0  0
   41.8500   32.1210   40.8650 C   0  0  0  0  0  0  0  0  0  0  0  0
   41.2600   30.8590   40.7460 C   0  0  0  0  0  0  0  0  0  0  0  0
   41.9120   30.0480   41.5980 N   0  0  0  0  0  0  0  0  0  0  0  0
   42.8730   30.7380   42.2380 C   0  0  0  0  0  0  0  0  0  0  0  0
   46.0710   34.0850   44.4540 O   0  0  0  0  0  0  0  0  0  0  0  0
   45.4940   34.0670   45.7410 C   0  0  0  0  0  0  0  0  0  0  0  0
   44.6460   34.9540   45.9630 O   0  0  0  0  0  0  0  0  0  0  0  0
   47.4090   31.4290   47.3950 C   0  0  0  0  0  0  0  0  0  0  0  0
   46.6640   31.1620   48.5330 C   0  0  0  0  0  0  0  0  0  0  0  0
   45.4910   31.8890   48.7420 C   0  0  0  0  0  0  0  0  0  0  0  0
   45.1310   32.8370   47.8090 N   0  0  0  0  0  0  0  0  0  0  0  0
   45.8940   33.0570   46.7200 C   0  0  0  0  0  0  0  0  0  0  0  0
   47.0290   32.3610   46.5050 N   0  0  0  0  0  0  0  0  0  0  0  0
   45.6076   36.3801   42.8593 H   0  0  0  0  0  0  0  0  0  0  0  0
   43.9623   36.3597   41.0210 H   0  0  0  0  0  0  0  0  0  0  0  0
   41.5650   33.0283   40.3122 H   0  0  0  0  0  0  0  0  0  0  0  0
   40.4254   30.5833   40.0846 H   0  0  0  0  0  0  0  0  0  0  0  0
   43.5672   30.3407   42.9932 H   0  0  0  0  0  0  0  0  0  0  0  0
   48.3352   30.8632   47.2160 H   0  0  0  0  0  0  0  0  0  0  0  0
   46.9890   30.3966   49.2531 H   0  0  0  0  0  0  0  0  0  0  0  0
   44.8684   31.7094   49.6309 H   0  0  0  0  0  0  0  0  0  0  0  0
  1 12  1  0
  2  1  2  0
  3  2  1  0
  4  3  2  0
  4  5  1  0
  5  6  2  0
  6  1  1  0
  7  5  1  0
  7 11  1  0
  8  7  1  0
  9  8  2  0
  9 10  1  0
 10 11  2  0
 12 13  1  0
 13 14  2  0
 13 19  1  0
 15 16  2  0
 16 17  1  0
 18 17  2  0
 19 18  1  0
 20 19  2  0
 20 15  1  0
  2 21  1  0
  3 22  1  0
  8 23  1  0
  9 24  1  0
 11 25  1  0
 15 26  1  0
 16 27  1  0
 17 28  1  0
M  ISO  8  21  14  22  14  23  14  24  14  25  14  26  14  27  14  28  14
M  END
>  <minimizedAffinity>  (1) 
-4.79117537

>  <minimizedRMSD>  (1) 
0.377729833

$$$$
