
     RDKit          3D

 33 34  0  0  0  0  0  0  0  0999 V2000
   45.9090   34.3180   44.2610 O   0  0  0  0  0  0  0  0  0  0  0  0
   45.0120   34.5480   43.2140 C   0  0  0  0  0  0  0  0  0  0  0  0
   44.6660   35.7150   42.5690 C   0  0  0  0  0  0  0  0  0  0  0  0
   43.7440   35.6550   41.5600 C   0  0  0  0  0  0  0  0  0  0  0  0
   43.1930   34.4860   41.2090 N   0  0  0  0  0  0  0  0  0  0  0  0
   43.5280   33.3400   41.8390 C   0  0  0  0  0  0  0  0  0  0  0  0
   44.4500   33.3660   42.8570 N   0  0  0  0  0  0  0  0  0  0  0  0
   42.8680   32.0850   41.3880 C   0  0  0  0  0  0  0  0  0  0  0  0
   43.1740   30.9900   42.3840 C   0  0  0  0  0  0  0  0  0  0  0  0
   43.1920   31.7320   39.9740 C   0  0  0  0  0  0  0  0  0  0  0  0
   41.3580   32.3020   41.4620 C   0  0  0  0  0  0  0  0  0  0  0  0
   45.3800   34.2770   45.5690 C   0  0  0  0  0  0  0  0  0  0  0  0
   44.5490   35.1680   45.8530 O   0  0  0  0  0  0  0  0  0  0  0  0
   47.3010   31.5570   47.0500 C   0  0  0  0  0  0  0  0  0  0  0  0
   46.6230   31.2820   48.2450 C   0  0  0  0  0  0  0  0  0  0  0  0
   45.5020   32.0500   48.5220 C   0  0  0  0  0  0  0  0  0  0  0  0
   45.1110   33.0240   47.6350 N   0  0  0  0  0  0  0  0  0  0  0  0
   45.8070   33.2410   46.5000 C   0  0  0  0  0  0  0  0  0  0  0  0
   46.8980   32.5170   46.2000 N   0  0  0  0  0  0  0  0  0  0  0  0
   45.1209   36.6737   42.8587 H   0  0  0  0  0  0  0  0  0  0  0  0
   43.4527   36.5752   41.0324 H   0  0  0  0  0  0  0  0  0  0  0  0
   43.0643   31.3825   43.4057 H   0  0  0  0  0  0  0  0  0  0  0  0
   42.4752   30.1536   42.2356 H   0  0  0  0  0  0  0  0  0  0  0  0
   44.2052   30.6370   42.2356 H   0  0  0  0  0  0  0  0  0  0  0  0
   43.9358   30.9217   39.9596 H   0  0  0  0  0  0  0  0  0  0  0  0
   42.2778   31.3998   39.4603 H   0  0  0  0  0  0  0  0  0  0  0  0
   43.6012   32.6144   39.4603 H   0  0  0  0  0  0  0  0  0  0  0  0
   41.0452   32.3469   42.5156 H   0  0  0  0  0  0  0  0  0  0  0  0
   41.0984   33.2467   40.9618 H   0  0  0  0  0  0  0  0  0  0  0  0
   40.8429   31.4687   40.9618 H   0  0  0  0  0  0  0  0  0  0  0  0
   48.1944   30.9665   46.7987 H   0  0  0  0  0  0  0  0  0  0  0  0
   46.9642   30.4933   48.9317 H   0  0  0  0  0  0  0  0  0  0  0  0
   44.9295   31.8806   49.4459 H   0  0  0  0  0  0  0  0  0  0  0  0
  1 12  1  0
  2  1  1  0
  3  2  2  0
  4  3  1  0
  5  4  2  0
  5  6  1  0
  6  7  2  0
  7  2  1  0
  8 11  1  0
  8  6  1  0
  8  9  1  0
 10  8  1  0
 12 13  2  0
 12 18  1  0
 14 15  2  0
 15 16  1  0
 17 16  2  0
 18 17  1  0
 19 18  2  0
 19 14  1  0
  3 20  1  0
  4 21  1  0
  9 22  1  0
  9 23  1  0
  9 24  1  0
 10 25  1  0
 10 26  1  0
 10 27  1  0
 11 28  1  0
 11 29  1  0
 11 30  1  0
 14 31  1  0
 15 32  1  0
 16 33  1  0
M  ISO  8  20  14  21  14  22   8  23   8  24   8  25   8  26   8  27   8
M  ISO  6  28   8  29   8  30   8  31  14  32  14  33  14
M  END
>  <minimizedAffinity>  (1) 
-4.56705904

>  <minimizedRMSD>  (1) 
0.372736663

$$$$
