
     RDKit          3D

 29 31  0  0  0  0  0  0  0  0999 V2000
   45.2190   34.4640   43.4470 C   0  0  0  0  0  0  0  0  0  0  0  0
   45.1100   35.7180   42.8750 C   0  0  0  0  0  0  0  0  0  0  0  0
   44.2320   35.8500   41.8400 C   0  0  0  0  0  0  0  0  0  0  0  0
   43.4960   34.8100   41.3840 N   0  0  0  0  0  0  0  0  0  0  0  0
   43.6220   33.5930   41.9600 C   0  0  0  0  0  0  0  0  0  0  0  0
   44.4860   33.4070   43.0010 N   0  0  0  0  0  0  0  0  0  0  0  0
   42.8140   32.4870   41.4470 C   0  0  0  0  0  0  0  0  0  0  0  0
   42.6740   31.3310   42.1840 C   0  0  0  0  0  0  0  0  0  0  0  0
   41.9080   30.2910   41.6890 C   0  0  0  0  0  0  0  0  0  0  0  0
   41.3160   30.4560   40.4770 N   0  0  0  0  0  0  0  0  0  0  0  0
   41.4780   31.6060   39.7850 C   0  0  0  0  0  0  0  0  0  0  0  0
   42.2270   32.6200   40.2710 N   0  0  0  0  0  0  0  0  0  0  0  0
   46.0360   34.0550   44.5120 O   0  0  0  0  0  0  0  0  0  0  0  0
   45.4780   34.0250   45.8030 C   0  0  0  0  0  0  0  0  0  0  0  0
   44.6300   34.9090   46.0170 O   0  0  0  0  0  0  0  0  0  0  0  0
   47.4130   31.4100   47.4450 C   0  0  0  0  0  0  0  0  0  0  0  0
   46.6800   31.1290   48.5980 C   0  0  0  0  0  0  0  0  0  0  0  0
   45.5210   31.8520   48.7910 C   0  0  0  0  0  0  0  0  0  0  0  0
   45.1370   32.8050   47.8600 N   0  0  0  0  0  0  0  0  0  0  0  0
   45.8930   33.0270   46.7660 C   0  0  0  0  0  0  0  0  0  0  0  0
   47.0330   32.3380   46.5460 N   0  0  0  0  0  0  0  0  0  0  0  0
   45.7040   36.5697   43.2380 H   0  0  0  0  0  0  0  0  0  0  0  0
   44.1184   36.8334   41.3604 H   0  0  0  0  0  0  0  0  0  0  0  0
   43.1692   31.2357   43.1616 H   0  0  0  0  0  0  0  0  0  0  0  0
   41.7819   29.3588   42.2591 H   0  0  0  0  0  0  0  0  0  0  0  0
   40.9898   31.7185   38.8057 H   0  0  0  0  0  0  0  0  0  0  0  0
   48.3416   30.8494   47.2621 H   0  0  0  0  0  0  0  0  0  0  0  0
   47.0104   30.3670   49.3192 H   0  0  0  0  0  0  0  0  0  0  0  0
   44.9022   31.6726   49.6826 H   0  0  0  0  0  0  0  0  0  0  0  0
  1 13  1  0
  2  1  2  0
  3  2  1  0
  4  3  2  0
  4  5  1  0
  5  6  2  0
  6  1  1  0
  7  5  1  0
  7  8  2  0
  9  8  1  0
 10  9  2  0
 11 12  2  0
 11 10  1  0
 12  7  1  0
 13 14  1  0
 14 15  2  0
 14 20  1  0
 16 17  2  0
 17 18  1  0
 19 18  2  0
 20 19  1  0
 21 20  2  0
 21 16  1  0
  2 22  1  0
  3 23  1  0
  8 24  1  0
  9 25  1  0
 11 26  1  0
 16 27  1  0
 17 28  1  0
 18 29  1  0
M  ISO  8  22  14  23  14  24  14  25  14  26  14  27  14  28  14  29  14
M  END
>  <minimizedAffinity>  (1) 
-4.77135849

>  <minimizedRMSD>  (1) 
0.670922875

$$$$
