
     RDKit          3D

 30 31  0  0  0  0  0  0  0  0999 V2000
   45.9360   34.2970   44.2570 O   0  0  0  0  0  0  0  0  0  0  0  0
   45.0100   34.4370   43.1980 C   0  0  0  0  0  0  0  0  0  0  0  0
   44.6790   35.5790   42.4890 C   0  0  0  0  0  0  0  0  0  0  0  0
   43.7420   35.4520   41.4990 C   0  0  0  0  0  0  0  0  0  0  0  0
   43.1650   34.2720   41.2230 N   0  0  0  0  0  0  0  0  0  0  0  0
   43.5020   33.1530   41.9330 C   0  0  0  0  0  0  0  0  0  0  0  0
   44.4350   33.2430   42.9300 N   0  0  0  0  0  0  0  0  0  0  0  0
   42.8540   31.8460   41.6210 C   0  0  0  0  0  0  0  0  0  0  0  0
   43.3510   30.7410   42.5320 C   0  0  0  0  0  0  0  0  0  0  0  0
   41.3660   31.8770   41.6610 C   0  0  0  0  0  0  0  0  0  0  0  0
   45.3990   34.2600   45.5660 C   0  0  0  0  0  0  0  0  0  0  0  0
   44.5660   35.1480   45.8410 O   0  0  0  0  0  0  0  0  0  0  0  0
   47.3130   31.5370   47.0790 C   0  0  0  0  0  0  0  0  0  0  0  0
   46.6290   31.2760   48.2630 C   0  0  0  0  0  0  0  0  0  0  0  0
   45.4980   32.0480   48.5360 C   0  0  0  0  0  0  0  0  0  0  0  0
   45.1110   33.0230   47.6370 N   0  0  0  0  0  0  0  0  0  0  0  0
   45.8240   33.2300   46.4940 C   0  0  0  0  0  0  0  0  0  0  0  0
   46.9090   32.4980   46.2190 N   0  0  0  0  0  0  0  0  0  0  0  0
   45.1493   36.5481   42.7118 H   0  0  0  0  0  0  0  0  0  0  0  0
   43.4549   36.3390   40.9153 H   0  0  0  0  0  0  0  0  0  0  0  0
   43.1485   31.6374   40.5819 H   0  0  0  0  0  0  0  0  0  0  0  0
   43.2156   31.0421   43.5813 H   0  0  0  0  0  0  0  0  0  0  0  0
   42.7799   29.8211   42.3379 H   0  0  0  0  0  0  0  0  0  0  0  0
   44.4181   30.5579   42.3379 H   0  0  0  0  0  0  0  0  0  0  0  0
   41.0274   31.8841   42.7076 H   0  0  0  0  0  0  0  0  0  0  0  0
   41.0043   32.7829   41.1525 H   0  0  0  0  0  0  0  0  0  0  0  0
   40.9669   30.9870   41.1525 H   0  0  0  0  0  0  0  0  0  0  0  0
   48.2075   30.9444   46.8366 H   0  0  0  0  0  0  0  0  0  0  0  0
   46.9665   30.4919   48.9567 H   0  0  0  0  0  0  0  0  0  0  0  0
   44.9210   31.8815   49.4576 H   0  0  0  0  0  0  0  0  0  0  0  0
  1 11  1  0
  2  1  1  0
  3  2  2  0
  4  3  1  0
  5  4  2  0
  5  6  1  0
  6  7  2  0
  7  2  1  0
  8 10  1  0
  8  6  1  0
  8  9  1  0
 11 12  2  0
 11 17  1  0
 13 14  2  0
 14 15  1  0
 16 15  2  0
 17 16  1  0
 18 17  2  0
 18 13  1  0
  3 19  1  0
  4 20  1  0
  8 21  1  0
  9 22  1  0
  9 23  1  0
  9 24  1  0
 10 25  1  0
 10 26  1  0
 10 27  1  0
 13 28  1  0
 14 29  1  0
 15 30  1  0
M  ISO  8  19  14  20  14  21   8  22   8  23   8  24   8  25   8  26   8
M  ISO  4  27   8  28  14  29  14  30  14
M  END
>  <minimizedAffinity>  (1) 
-4.46714306

>  <minimizedRMSD>  (1) 
0.449559808

$$$$
