
     RDKit          3D

 43 45  0  0  0  0  0  0  0  0999 V2000
   44.8960   35.7690   43.4510 C   0  0  0  0  0  0  0  0  0  0  0  0
   44.3610   36.3890   44.3780 O   0  0  0  0  0  0  0  0  0  0  0  0
   47.8950   33.7080   43.0580 C   0  0  0  0  0  0  0  0  0  0  0  0
   47.6800   32.6460   43.9430 C   0  0  0  0  0  0  0  0  0  0  0  0
   46.4990   32.6670   44.6610 C   0  0  0  0  0  0  0  0  0  0  0  0
   45.6010   33.6940   44.4890 N   0  0  0  0  0  0  0  0  0  0  0  0
   45.8630   34.6970   43.6140 C   0  0  0  0  0  0  0  0  0  0  0  0
   46.9910   34.7000   42.9150 N   0  0  0  0  0  0  0  0  0  0  0  0
   46.1090   31.6750   45.6050 N   0  0  0  0  0  0  0  0  0  0  0  0
   46.4930   31.8450   46.8840 C   0  0  0  0  0  0  0  0  0  0  0  0
   46.1030   30.8700   47.7900 C   0  0  0  0  0  0  0  0  0  0  0  0
   46.4750   30.9690   49.2180 C   0  0  0  0  0  0  0  0  0  0  0  0
   45.3610   29.7990   47.3490 C   0  0  0  0  0  0  0  0  0  0  0  0
   44.9730   28.8770   48.1100 O   0  0  0  0  0  0  0  0  0  0  0  0
   45.0190   29.7090   46.0350 N   0  0  0  0  0  0  0  0  0  0  0  0
   45.3860   30.6510   45.1180 C   0  0  0  0  0  0  0  0  0  0  0  0
   45.0690   30.5640   43.9120 O   0  0  0  0  0  0  0  0  0  0  0  0
   44.4970   36.1780   42.1690 O   0  0  0  0  0  0  0  0  0  0  0  0
   43.5240   35.3980   41.5020 C   0  0  0  0  0  0  0  0  0  0  0  0
   42.1830   35.3090   41.8040 C   0  0  0  0  0  0  0  0  0  0  0  0
   41.4300   34.4840   41.0130 C   0  0  0  0  0  0  0  0  0  0  0  0
   41.9700   33.7990   39.9960 N   0  0  0  0  0  0  0  0  0  0  0  0
   43.2910   33.8960   39.7080 C   0  0  0  0  0  0  0  0  0  0  0  0
   44.0820   34.7130   40.4790 N   0  0  0  0  0  0  0  0  0  0  0  0
   43.8920   33.1580   38.5640 C   0  0  0  0  0  0  0  0  0  0  0  0
   45.3510   32.8840   38.7590 C   0  0  0  0  0  0  0  0  0  0  0  0
   43.1640   31.8790   38.2490 C   0  0  0  0  0  0  0  0  0  0  0  0
   48.8214   33.7351   42.4655 H   0  0  0  0  0  0  0  0  0  0  0  0
   48.4138   31.8351   44.0615 H   0  0  0  0  0  0  0  0  0  0  0  0
   47.0880   32.7161   47.1958 H   0  0  0  0  0  0  0  0  0  0  0  0
   45.5996   30.7360   49.8420 H   0  0  0  0  0  0  0  0  0  0  0  0
   47.2820   30.2544   49.4371 H   0  0  0  0  0  0  0  0  0  0  0  0
   46.8201   31.9902   49.4371 H   0  0  0  0  0  0  0  0  0  0  0  0
   44.4631   28.9008   45.7210 H   0  0  0  0  0  0  0  0  0  0  0  0
   41.7398   35.8723   42.6384 H   0  0  0  0  0  0  0  0  0  0  0  0
   40.3541   34.3807   41.2174 H   0  0  0  0  0  0  0  0  0  0  0  0
   43.7832   33.8304   37.7003 H   0  0  0  0  0  0  0  0  0  0  0  0
   45.5755   32.8418   39.8350 H   0  0  0  0  0  0  0  0  0  0  0  0
   45.6089   31.9217   38.2926 H   0  0  0  0  0  0  0  0  0  0  0  0
   45.9404   33.6871   38.2926 H   0  0  0  0  0  0  0  0  0  0  0  0
   42.8793   31.3788   39.1864 H   0  0  0  0  0  0  0  0  0  0  0  0
   42.2598   32.1060   37.6652 H   0  0  0  0  0  0  0  0  0  0  0  0
   43.8209   31.2174   37.6652 H   0  0  0  0  0  0  0  0  0  0  0  0
  1  7  1  0
  1  2  2  0
  3  4  2  0
  4  5  1  0
  5  9  1  0
  6  5  2  0
  7  6  1  0
  8  3  1  0
  8  7  2  0
  9 10  1  0
 10 11  2  0
 11 12  1  0
 13 11  1  0
 13 14  2  0
 15 13  1  0
 16  9  1  0
 16 15  1  0
 17 16  2  0
 18  1  1  0
 19 20  2  0
 19 18  1  0
 21 20  1  0
 22 21  2  0
 23 22  1  0
 23 24  2  0
 24 19  1  0
 25 26  1  0
 25 23  1  0
 27 25  1  0
  3 28  1  0
  4 29  1  0
 10 30  1  0
 12 31  1  0
 12 32  1  0
 12 33  1  0
 15 34  1  0
 20 35  1  0
 21 36  1  0
 25 37  1  0
 26 38  1  0
 26 39  1  0
 26 40  1  0
 27 41  1  0
 27 42  1  0
 27 43  1  0
M  ISO  8  28  14  29  14  30  14  31   8  32   8  33   8  34   9  35  14
M  ISO  8  36  14  37   8  38   8  39   8  40   8  41   8  42   8  43   8
M  END
>  <minimizedAffinity>  (1) 
-5.67533827

>  <minimizedRMSD>  (1) 
3.9704051

$$$$
