
     RDKit          3D

 43 45  0  0  0  0  0  0  0  0999 V2000
   43.5970   35.3010   41.6680 C   0  0  0  0  0  0  0  0  0  0  0  0
   42.2420   35.3420   41.9140 C   0  0  0  0  0  0  0  0  0  0  0  0
   41.4410   34.6930   41.0280 C   0  0  0  0  0  0  0  0  0  0  0  0
   41.9310   34.0450   39.9690 N   0  0  0  0  0  0  0  0  0  0  0  0
   43.2710   34.0110   39.7370 C   0  0  0  0  0  0  0  0  0  0  0  0
   44.1170   34.6500   40.6010 N   0  0  0  0  0  0  0  0  0  0  0  0
   43.8340   33.3070   38.5380 C   0  0  0  0  0  0  0  0  0  0  0  0
   45.2590   32.8920   38.7480 C   0  0  0  0  0  0  0  0  0  0  0  0
   43.0070   32.1160   38.1240 C   0  0  0  0  0  0  0  0  0  0  0  0
   44.6320   35.8980   42.4390 O   0  0  0  0  0  0  0  0  0  0  0  0
   44.8250   35.4060   43.7390 C   0  0  0  0  0  0  0  0  0  0  0  0
   44.1910   36.0260   44.6300 O   0  0  0  0  0  0  0  0  0  0  0  0
   47.3330   32.8000   43.2490 C   0  0  0  0  0  0  0  0  0  0  0  0
   47.3570   32.1370   44.4680 C   0  0  0  0  0  0  0  0  0  0  0  0
   46.5020   32.5950   45.4530 C   0  0  0  0  0  0  0  0  0  0  0  0
   45.6740   33.6700   45.1950 N   0  0  0  0  0  0  0  0  0  0  0  0
   45.6890   34.2820   43.9880 C   0  0  0  0  0  0  0  0  0  0  0  0
   46.5140   33.8480   43.0230 N   0  0  0  0  0  0  0  0  0  0  0  0
   46.4380   31.9970   46.7380 N   0  0  0  0  0  0  0  0  0  0  0  0
   47.2820   32.4520   47.8230 C   0  0  0  0  0  0  0  0  0  0  0  0
   47.4030   31.4160   48.9080 C   0  0  0  0  0  0  0  0  0  0  0  0
   46.2400   30.8640   49.3390 O   0  0  0  0  0  0  0  0  0  0  0  0
   45.1810   30.8410   48.4690 C   0  0  0  0  0  0  0  0  0  0  0  0
   45.5280   30.9080   47.0170 C   0  0  0  0  0  0  0  0  0  0  0  0
   41.8289   35.8734   42.7840 H   0  0  0  0  0  0  0  0  0  0  0  0
   40.3529   34.7022   41.1891 H   0  0  0  0  0  0  0  0  0  0  0  0
   43.8009   34.0419   37.7201 H   0  0  0  0  0  0  0  0  0  0  0  0
   45.4681   32.8311   39.8262 H   0  0  0  0  0  0  0  0  0  0  0  0
   45.4262   31.9079   38.2859 H   0  0  0  0  0  0  0  0  0  0  0  0
   45.9285   33.6325   38.2859 H   0  0  0  0  0  0  0  0  0  0  0  0
   42.6435   31.5925   39.0206 H   0  0  0  0  0  0  0  0  0  0  0  0
   42.1494   32.4556   37.5247 H   0  0  0  0  0  0  0  0  0  0  0  0
   43.6248   31.4311   37.5247 H   0  0  0  0  0  0  0  0  0  0  0  0
   48.0012   32.4611   42.4436 H   0  0  0  0  0  0  0  0  0  0  0  0
   48.0280   31.2831   44.6430 H   0  0  0  0  0  0  0  0  0  0  0  0
   48.2844   32.6715   47.4266 H   0  0  0  0  0  0  0  0  0  0  0  0
   46.8239   33.3521   48.2587 H   0  0  0  0  0  0  0  0  0  0  0  0
   48.0399   30.6038   48.5276 H   0  0  0  0  0  0  0  0  0  0  0  0
   47.8186   31.9460   49.7776 H   0  0  0  0  0  0  0  0  0  0  0  0
   44.6246   29.9076   48.6399 H   0  0  0  0  0  0  0  0  0  0  0  0
   44.6028   31.7528   48.6794 H   0  0  0  0  0  0  0  0  0  0  0  0
   44.6058   31.0553   46.4358 H   0  0  0  0  0  0  0  0  0  0  0  0
   46.0219   29.9659   46.7369 H   0  0  0  0  0  0  0  0  0  0  0  0
  1  2  2  0
  1 10  1  0
  3  2  1  0
  4  3  2  0
  5  4  1  0
  5  6  2  0
  6  1  1  0
  7  8  1  0
  7  5  1  0
  9  7  1  0
 10 11  1  0
 11 17  1  0
 11 12  2  0
 13 14  2  0
 14 15  1  0
 15 19  1  0
 16 15  2  0
 17 16  1  0
 18 13  1  0
 18 17  2  0
 19 24  1  0
 19 20  1  0
 20 21  1  0
 21 22  1  0
 23 22  1  0
 24 23  1  0
  2 25  1  0
  3 26  1  0
  7 27  1  0
  8 28  1  0
  8 29  1  0
  8 30  1  0
  9 31  1  0
  9 32  1  0
  9 33  1  0
 13 34  1  0
 14 35  1  0
 20 36  1  0
 20 37  1  0
 21 38  1  0
 21 39  1  0
 23 40  1  0
 23 41  1  0
 24 42  1  0
 24 43  1  0
M  ISO  8  25  14  26  14  27   8  28   8  29   8  30   8  31   8  32   8
M  ISO  8  33   8  34  14  35  14  36  13  37  13  38  13  39  13  40  13
M  ISO  3  41  13  42  13  43  13
M  END
>  <minimizedAffinity>  (1) 
-5.53950024

>  <minimizedRMSD>  (1) 
3.25909448

$$$$
