
     RDKit          3D

 39 41  0  0  0  0  0  0  0  0999 V2000
   44.9270   35.9580   42.5570 O   0  0  0  0  0  0  0  0  0  0  0  0
   43.9370   35.3270   41.7700 C   0  0  0  0  0  0  0  0  0  0  0  0
   42.5730   35.3780   41.9190 C   0  0  0  0  0  0  0  0  0  0  0  0
   41.8200   34.6830   41.0290 C   0  0  0  0  0  0  0  0  0  0  0  0
   42.3790   33.9720   40.0390 N   0  0  0  0  0  0  0  0  0  0  0  0
   43.7280   33.9220   39.8890 C   0  0  0  0  0  0  0  0  0  0  0  0
   44.5220   34.6130   40.7730 N   0  0  0  0  0  0  0  0  0  0  0  0
   44.3590   33.1610   38.7800 C   0  0  0  0  0  0  0  0  0  0  0  0
   45.6810   32.5700   39.1630 C   0  0  0  0  0  0  0  0  0  0  0  0
   43.4620   32.0790   38.2360 C   0  0  0  0  0  0  0  0  0  0  0  0
   45.0790   35.5210   43.8820 C   0  0  0  0  0  0  0  0  0  0  0  0
   44.4990   36.2220   44.7320 O   0  0  0  0  0  0  0  0  0  0  0  0
   47.5920   32.8890   43.6600 C   0  0  0  0  0  0  0  0  0  0  0  0
   47.3390   32.0890   44.7810 C   0  0  0  0  0  0  0  0  0  0  0  0
   46.2940   32.4800   45.5990 C   0  0  0  0  0  0  0  0  0  0  0  0
   45.5740   33.6020   45.2810 N   0  0  0  0  0  0  0  0  0  0  0  0
   45.8610   34.3420   44.1850 C   0  0  0  0  0  0  0  0  0  0  0  0
   46.8710   33.9870   43.3700 N   0  0  0  0  0  0  0  0  0  0  0  0
   45.8920   31.7620   46.8020 C   0  0  0  0  0  0  0  0  0  0  0  0
   45.8540   32.3640   48.0420 C   0  0  0  0  0  0  0  0  0  0  0  0
   45.4830   31.7420   49.2260 C   0  0  0  0  0  0  0  0  0  0  0  0
   45.1360   30.4180   49.0890 C   0  0  0  0  0  0  0  0  0  0  0  0
   45.1570   29.7770   47.8770 C   0  0  0  0  0  0  0  0  0  0  0  0
   45.5340   30.4640   46.7650 N   0  0  0  0  0  0  0  0  0  0  0  0
   42.1083   35.9598   42.7287 H   0  0  0  0  0  0  0  0  0  0  0  0
   40.7241   34.7035   41.1221 H   0  0  0  0  0  0  0  0  0  0  0  0
   44.5289   33.9037   37.9866 H   0  0  0  0  0  0  0  0  0  0  0  0
   45.7625   32.5336   40.2594 H   0  0  0  0  0  0  0  0  0  0  0  0
   45.7591   31.5513   38.7554 H   0  0  0  0  0  0  0  0  0  0  0  0
   46.4922   33.1912   38.7554 H   0  0  0  0  0  0  0  0  0  0  0  0
   43.0048   31.5276   39.0708 H   0  0  0  0  0  0  0  0  0  0  0  0
   42.6718   32.5331   37.6201 H   0  0  0  0  0  0  0  0  0  0  0  0
   44.0547   31.3866   37.6201 H   0  0  0  0  0  0  0  0  0  0  0  0
   48.4158   32.6075   42.9876 H   0  0  0  0  0  0  0  0  0  0  0  0
   47.9408   31.1947   45.0002 H   0  0  0  0  0  0  0  0  0  0  0  0
   46.1413   33.4244   48.0974 H   0  0  0  0  0  0  0  0  0  0  0  0
   45.4677   32.2646   50.1938 H   0  0  0  0  0  0  0  0  0  0  0  0
   44.8311   29.8539   49.9827 H   0  0  0  0  0  0  0  0  0  0  0  0
   44.8717   28.7171   47.8046 H   0  0  0  0  0  0  0  0  0  0  0  0
  1 11  1  0
  2  3  2  0
  2  1  1  0
  4  3  1  0
  5  4  2  0
  6  5  1  0
  6  7  2  0
  7  2  1  0
  8  9  1  0
  8  6  1  0
 10  8  1  0
 11 17  1  0
 11 12  2  0
 13 14  2  0
 14 15  1  0
 15 19  1  0
 16 15  2  0
 17 16  1  0
 18 13  1  0
 18 17  2  0
 19 20  2  0
 20 21  1  0
 22 21  2  0
 23 22  1  0
 24 19  1  0
 24 23  2  0
  3 25  1  0
  4 26  1  0
  8 27  1  0
  9 28  1  0
  9 29  1  0
  9 30  1  0
 10 31  1  0
 10 32  1  0
 10 33  1  0
 13 34  1  0
 14 35  1  0
 20 36  1  0
 21 37  1  0
 22 38  1  0
 23 39  1  0
M  ISO  8  25  14  26  14  27   8  28   8  29   8  30   8  31   8  32   8
M  ISO  7  33   8  34  14  35  14  36  14  37  14  38  14  39  14
M  END
>  <minimizedAffinity>  (1) 
-5.68702316

>  <minimizedRMSD>  (1) 
3.04729581

$$$$
