
     RDKit          3D

 37 39  0  0  0  0  0  0  0  0999 V2000
   43.6680   34.9840   41.9300 C   0  0  0  0  0  0  0  0  0  0  0  0
   42.5590   35.5330   41.3250 C   0  0  0  0  0  0  0  0  0  0  0  0
   41.5930   34.6700   40.9170 C   0  0  0  0  0  0  0  0  0  0  0  0
   41.7020   33.3410   41.0890 N   0  0  0  0  0  0  0  0  0  0  0  0
   42.8010   32.8170   41.6870 C   0  0  0  0  0  0  0  0  0  0  0  0
   43.8050   33.6530   42.1170 N   0  0  0  0  0  0  0  0  0  0  0  0
   42.9540   31.3360   41.8700 C   0  0  0  0  0  0  0  0  0  0  0  0
   44.1570   30.9860   42.6920 C   0  0  0  0  0  0  0  0  0  0  0  0
   41.7220   30.6950   42.4520 C   0  0  0  0  0  0  0  0  0  0  0  0
   44.8000   35.6740   42.4360 O   0  0  0  0  0  0  0  0  0  0  0  0
   45.0990   35.5090   43.7980 C   0  0  0  0  0  0  0  0  0  0  0  0
   44.6820   36.4140   44.5370 O   0  0  0  0  0  0  0  0  0  0  0  0
   47.5750   32.8090   43.9380 C   0  0  0  0  0  0  0  0  0  0  0  0
   47.2540   32.1630   45.1240 C   0  0  0  0  0  0  0  0  0  0  0  0
   46.1940   32.6430   45.8770 C   0  0  0  0  0  0  0  0  0  0  0  0
   45.5000   33.7470   45.4140 N   0  0  0  0  0  0  0  0  0  0  0  0
   45.8430   34.3500   44.2530 C   0  0  0  0  0  0  0  0  0  0  0  0
   46.8730   33.8860   43.5190 N   0  0  0  0  0  0  0  0  0  0  0  0
   45.7860   32.0280   47.1350 C   0  0  0  0  0  0  0  0  0  0  0  0
   46.1510   32.5200   48.3700 C   0  0  0  0  0  0  0  0  0  0  0  0
   45.5780   31.6780   49.2520 N   0  0  0  0  0  0  0  0  0  0  0  0
   44.9090   30.7400   48.5560 C   0  0  0  0  0  0  0  0  0  0  0  0
   45.0180   30.9290   47.2080 N   0  0  0  0  0  0  0  0  0  0  0  0
   42.4605   36.6188   41.1792 H   0  0  0  0  0  0  0  0  0  0  0  0
   40.6921   35.0714   40.4300 H   0  0  0  0  0  0  0  0  0  0  0  0
   43.0999   30.9281   40.8589 H   0  0  0  0  0  0  0  0  0  0  0  0
   43.9051   31.0593   43.7603 H   0  0  0  0  0  0  0  0  0  0  0  0
   44.4736   29.9585   42.4596 H   0  0  0  0  0  0  0  0  0  0  0  0
   44.9754   31.6833   42.4596 H   0  0  0  0  0  0  0  0  0  0  0  0
   41.7776   30.7239   43.5502 H   0  0  0  0  0  0  0  0  0  0  0  0
   40.8297   31.2432   42.1155 H   0  0  0  0  0  0  0  0  0  0  0  0
   41.6588   29.6497   42.1155 H   0  0  0  0  0  0  0  0  0  0  0  0
   48.4134   32.4390   43.3296 H   0  0  0  0  0  0  0  0  0  0  0  0
   47.8294   31.2876   45.4595 H   0  0  0  0  0  0  0  0  0  0  0  0
   46.7711   33.4023   48.5868 H   0  0  0  0  0  0  0  0  0  0  0  0
   44.3418   29.9187   49.0182 H   0  0  0  0  0  0  0  0  0  0  0  0
   44.6141   30.3708   46.4424 H   0  0  0  0  0  0  0  0  0  0  0  0
  1  6  1  0
  1 10  1  0
  2  1  2  0
  3  4  2  0
  3  2  1  0
  4  5  1  0
  5  7  1  0
  5  6  2  0
  7  9  1  0
  7  8  1  0
 10 11  1  0
 11 17  1  0
 11 12  2  0
 13 14  2  0
 14 15  1  0
 15 19  1  0
 16 15  2  0
 17 16  1  0
 18 13  1  0
 18 17  2  0
 19 23  1  0
 19 20  2  0
 20 21  1  0
 22 21  2  0
 23 22  1  0
  2 24  1  0
  3 25  1  0
  7 26  1  0
  8 27  1  0
  8 28  1  0
  8 29  1  0
  9 30  1  0
  9 31  1  0
  9 32  1  0
 13 33  1  0
 14 34  1  0
 20 35  1  0
 22 36  1  0
 23 37  1  0
M  ISO  8  24  14  25  14  26   8  27   8  28   8  29   8  30   8  31   8
M  ISO  6  32   8  33  14  34  14  35  14  36  14  37   9
M  END
>  <minimizedAffinity>  (1) 
-5.34297609

>  <minimizedRMSD>  (1) 
2.51231384

$$$$
