
     RDKit          3D

 31 32  0  0  0  0  0  0  0  0999 V2000
   44.9880   34.4890   43.2100 C   0  0  0  0  0  0  0  0  0  0  0  0
   44.6570   35.6210   42.5020 C   0  0  0  0  0  0  0  0  0  0  0  0
   43.7340   35.4750   41.5140 C   0  0  0  0  0  0  0  0  0  0  0  0
   43.1670   34.2920   41.2330 N   0  0  0  0  0  0  0  0  0  0  0  0
   43.5050   33.1850   41.9410 C   0  0  0  0  0  0  0  0  0  0  0  0
   44.4350   33.2830   42.9510 N   0  0  0  0  0  0  0  0  0  0  0  0
   42.9020   31.8510   41.6310 C   0  0  0  0  0  0  0  0  0  0  0  0
   43.4230   30.7700   42.5260 C   0  0  0  0  0  0  0  0  0  0  0  0
   41.3960   31.8770   41.6720 C   0  0  0  0  0  0  0  0  0  0  0  0
   45.9170   34.3860   44.2760 O   0  0  0  0  0  0  0  0  0  0  0  0
   45.3990   34.2510   45.5730 C   0  0  0  0  0  0  0  0  0  0  0  0
   44.5870   35.1250   45.9070 O   0  0  0  0  0  0  0  0  0  0  0  0
   47.2620   31.3580   46.8260 C   0  0  0  0  0  0  0  0  0  0  0  0
   46.6330   31.0610   48.0220 C   0  0  0  0  0  0  0  0  0  0  0  0
   45.5600   31.8600   48.4000 C   0  0  0  0  0  0  0  0  0  0  0  0
   45.1700   32.9030   47.5800 N   0  0  0  0  0  0  0  0  0  0  0  0
   45.8170   33.1530   46.4200 C   0  0  0  0  0  0  0  0  0  0  0  0
   46.8570   32.3830   46.0480 N   0  0  0  0  0  0  0  0  0  0  0  0
   44.8460   31.6510   49.5960 O   0  0  0  0  0  0  0  0  0  0  0  0
   45.1160   36.5957   42.7239 H   0  0  0  0  0  0  0  0  0  0  0  0
   43.4423   36.3571   40.9251 H   0  0  0  0  0  0  0  0  0  0  0  0
   43.2097   31.6199   40.6005 H   0  0  0  0  0  0  0  0  0  0  0  0
   43.2814   31.0638   43.5765 H   0  0  0  0  0  0  0  0  0  0  0  0
   42.8761   29.8360   42.3296 H   0  0  0  0  0  0  0  0  0  0  0  0
   44.4943   30.6159   42.3296 H   0  0  0  0  0  0  0  0  0  0  0  0
   41.0577   31.8828   42.7187 H   0  0  0  0  0  0  0  0  0  0  0  0
   41.0309   32.7816   41.1636 H   0  0  0  0  0  0  0  0  0  0  0  0
   40.9999   30.9856   41.1636 H   0  0  0  0  0  0  0  0  0  0  0  0
   48.1140   30.7427   46.5012 H   0  0  0  0  0  0  0  0  0  0  0  0
   46.9696   30.2234   48.6507 H   0  0  0  0  0  0  0  0  0  0  0  0
   44.0873   32.2426   49.8294 H   0  0  0  0  0  0  0  0  0  0  0  0
  1 10  1  0
  2  1  2  0
  3  2  1  0
  4  3  2  0
  4  5  1  0
  5  6  2  0
  6  1  1  0
  7  9  1  0
  7  5  1  0
  7  8  1  0
 10 11  1  0
 11 12  2  0
 11 17  1  0
 13 14  2  0
 14 15  1  0
 15 19  1  0
 16 15  2  0
 17 16  1  0
 18 17  2  0
 18 13  1  0
  2 20  1  0
  3 21  1  0
  7 22  1  0
  8 23  1  0
  8 24  1  0
  8 25  1  0
  9 26  1  0
  9 27  1  0
  9 28  1  0
 13 29  1  0
 14 30  1  0
 19 31  1  0
M  ISO  8  20  14  21  14  22   8  23   8  24   8  25   8  26   8  27   8
M  ISO  4  28   8  29  14  30  14  31   3
M  END
>  <minimizedAffinity>  (1) 
-4.94729328

>  <minimizedRMSD>  (1) 
0.149827167

$$$$
