
     RDKit          3D

 43 45  0  0  0  0  0  0  0  0999 V2000
   44.9100   34.6760   42.8660 C   0  0  0  0  0  0  0  0  0  0  0  0
   44.4260   35.7810   42.2000 C   0  0  0  0  0  0  0  0  0  0  0  0
   43.4050   35.5720   41.3190 C   0  0  0  0  0  0  0  0  0  0  0  0
   42.8890   34.3480   41.1050 N   0  0  0  0  0  0  0  0  0  0  0  0
   43.3810   33.2740   41.7710 C   0  0  0  0  0  0  0  0  0  0  0  0
   44.4050   33.4440   42.6640 N   0  0  0  0  0  0  0  0  0  0  0  0
   42.8310   31.8980   41.5320 C   0  0  0  0  0  0  0  0  0  0  0  0
   43.4210   30.8830   42.4610 C   0  0  0  0  0  0  0  0  0  0  0  0
   41.3260   31.8530   41.6040 C   0  0  0  0  0  0  0  0  0  0  0  0
   45.9570   34.6530   43.8160 O   0  0  0  0  0  0  0  0  0  0  0  0
   45.7430   33.9330   45.0020 C   0  0  0  0  0  0  0  0  0  0  0  0
   45.0980   34.5440   45.8730 O   0  0  0  0  0  0  0  0  0  0  0  0
   47.8160   30.9460   44.6070 C   0  0  0  0  0  0  0  0  0  0  0  0
   47.2030   30.0080   45.4370 C   0  0  0  0  0  0  0  0  0  0  0  0
   46.0750   30.4290   46.1250 C   0  0  0  0  0  0  0  0  0  0  0  0
   45.6070   31.7080   45.9790 N   0  0  0  0  0  0  0  0  0  0  0  0
   46.2560   32.5830   45.1460 C   0  0  0  0  0  0  0  0  0  0  0  0
   47.3440   32.2130   44.4690 N   0  0  0  0  0  0  0  0  0  0  0  0
   45.3550   29.5240   47.0220 C   0  0  0  0  0  0  0  0  0  0  0  0
   46.3150   28.4420   47.4750 C   0  0  0  0  0  0  0  0  0  0  0  0
   45.4580   27.2020   47.6230 C   0  0  0  0  0  0  0  0  0  0  0  0
   44.5120   27.3780   46.4320 C   0  0  0  0  0  0  0  0  0  0  0  0
   44.1690   28.8370   46.4620 C   0  0  0  0  0  0  0  0  0  0  0  0
   44.8431   36.7845   42.3705 H   0  0  0  0  0  0  0  0  0  0  0  0
   42.9917   36.4294   40.7676 H   0  0  0  0  0  0  0  0  0  0  0  0
   43.1264   31.6386   40.5046 H   0  0  0  0  0  0  0  0  0  0  0  0
   43.2421   31.1908   43.5018 H   0  0  0  0  0  0  0  0  0  0  0  0
   42.9507   29.9049   42.2819 H   0  0  0  0  0  0  0  0  0  0  0  0
   44.5037   30.8076   42.2819 H   0  0  0  0  0  0  0  0  0  0  0  0
   41.0094   31.8435   42.6574 H   0  0  0  0  0  0  0  0  0  0  0  0
   40.9083   32.7391   41.1036 H   0  0  0  0  0  0  0  0  0  0  0  0
   40.9620   30.9436   41.1036 H   0  0  0  0  0  0  0  0  0  0  0  0
   48.7134   30.6500   44.0440 H   0  0  0  0  0  0  0  0  0  0  0  0
   47.5946   28.9853   45.5408 H   0  0  0  0  0  0  0  0  0  0  0  0
   44.9785   30.1737   47.8258 H   0  0  0  0  0  0  0  0  0  0  0  0
   47.1015   28.2820   46.7228 H   0  0  0  0  0  0  0  0  0  0  0  0
   46.8274   28.7069   48.4116 H   0  0  0  0  0  0  0  0  0  0  0  0
   46.0549   26.2822   47.5359 H   0  0  0  0  0  0  0  0  0  0  0  0
   44.9573   27.1025   48.5974 H   0  0  0  0  0  0  0  0  0  0  0  0
   43.6098   26.7605   46.5533 H   0  0  0  0  0  0  0  0  0  0  0  0
   44.9645   27.0664   45.4790 H   0  0  0  0  0  0  0  0  0  0  0  0
   43.9608   29.2016   45.4453 H   0  0  0  0  0  0  0  0  0  0  0  0
   43.2703   29.0271   47.0672 H   0  0  0  0  0  0  0  0  0  0  0  0
  1 10  1  0
  2  1  2  0
  3  2  1  0
  4  3  2  0
  4  5  1  0
  5  6  2  0
  6  1  1  0
  7  9  1  0
  7  5  1  0
  7  8  1  0
 10 11  1  0
 11 17  1  0
 11 12  2  0
 13 14  2  0
 14 15  1  0
 15 19  1  0
 16 15  2  0
 17 16  1  0
 18 13  1  0
 18 17  2  0
 19 20  1  0
 20 21  1  0
 22 23  1  0
 22 21  1  0
 23 19  1  0
  2 24  1  0
  3 25  1  0
  7 26  1  0
  8 27  1  0
  8 28  1  0
  8 29  1  0
  9 30  1  0
  9 31  1  0
  9 32  1  0
 13 33  1  0
 14 34  1  0
 19 35  1  0
 20 36  1  0
 20 37  1  0
 21 38  1  0
 21 39  1  0
 22 40  1  0
 22 41  1  0
 23 42  1  0
 23 43  1  0
M  ISO  8  24  14  25  14  26   8  27   8  28   8  29   8  30   8  31   8
M  ISO  8  32   8  33  14  34  14  35  13  36  13  37  13  38  13  39  13
M  ISO  4  40  13  41  13  42  13  43  13
M  END
>  <minimizedAffinity>  (1) 
-4.39615679

>  <minimizedRMSD>  (1) 
2.44137979

$$$$
