
     RDKit          3D

 40 42  0  0  0  0  0  0  0  0999 V2000
   45.1460   35.2150   43.7550 C   0  0  0  0  0  0  0  0  0  0  0  0
   44.6580   35.9700   44.6120 O   0  0  0  0  0  0  0  0  0  0  0  0
   47.9020   32.8070   43.7140 C   0  0  0  0  0  0  0  0  0  0  0  0
   47.4590   31.8220   44.5740 C   0  0  0  0  0  0  0  0  0  0  0  0
   46.2190   31.9550   45.1910 C   0  0  0  0  0  0  0  0  0  0  0  0
   45.4920   33.1030   44.8860 N   0  0  0  0  0  0  0  0  0  0  0  0
   45.9560   34.0450   44.0390 C   0  0  0  0  0  0  0  0  0  0  0  0
   47.1540   33.9020   43.4560 N   0  0  0  0  0  0  0  0  0  0  0  0
   45.7130   30.9930   46.0880 N   0  0  0  0  0  0  0  0  0  0  0  0
   45.3450   29.7730   45.7210 N   0  0  0  0  0  0  0  0  0  0  0  0
   44.9000   29.0790   46.7950 C   0  0  0  0  0  0  0  0  0  0  0  0
   45.0220   29.9590   47.8480 C   0  0  0  0  0  0  0  0  0  0  0  0
   45.5380   31.1790   47.3920 C   0  0  0  0  0  0  0  0  0  0  0  0
   45.7110   32.2650   48.3430 C   0  0  0  0  0  0  0  0  0  0  0  0
   44.9830   33.3610   47.9390 F   0  0  0  0  0  0  0  0  0  0  0  0
   47.0550   32.7480   48.3110 F   0  0  0  0  0  0  0  0  0  0  0  0
   45.5620   31.9290   49.6710 F   0  0  0  0  0  0  0  0  0  0  0  0
   44.8490   35.5870   42.4460 O   0  0  0  0  0  0  0  0  0  0  0  0
   43.6980   35.0230   41.8450 C   0  0  0  0  0  0  0  0  0  0  0  0
   42.7200   35.6960   41.1480 C   0  0  0  0  0  0  0  0  0  0  0  0
   41.6980   34.9550   40.6510 C   0  0  0  0  0  0  0  0  0  0  0  0
   41.6290   33.6300   40.8200 N   0  0  0  0  0  0  0  0  0  0  0  0
   42.5990   32.9740   41.5090 C   0  0  0  0  0  0  0  0  0  0  0  0
   43.6600   33.6920   42.0350 N   0  0  0  0  0  0  0  0  0  0  0  0
   42.5660   31.4810   41.6990 C   0  0  0  0  0  0  0  0  0  0  0  0
   43.7230   30.9850   42.4990 C   0  0  0  0  0  0  0  0  0  0  0  0
   41.2530   31.0400   42.3290 C   0  0  0  0  0  0  0  0  0  0  0  0
   48.8834   32.6981   43.2293 H   0  0  0  0  0  0  0  0  0  0  0  0
   48.0826   30.9374   44.7702 H   0  0  0  0  0  0  0  0  0  0  0  0
   44.5253   28.0451   46.8210 H   0  0  0  0  0  0  0  0  0  0  0  0
   44.7541   29.7368   48.8915 H   0  0  0  0  0  0  0  0  0  0  0  0
   42.7651   36.7852   41.0007 H   0  0  0  0  0  0  0  0  0  0  0  0
   40.8987   35.4612   40.0898 H   0  0  0  0  0  0  0  0  0  0  0  0
   42.6453   31.0323   40.6978 H   0  0  0  0  0  0  0  0  0  0  0  0
   43.4962   31.0822   43.5710 H   0  0  0  0  0  0  0  0  0  0  0  0
   43.9092   29.9280   42.2580 H   0  0  0  0  0  0  0  0  0  0  0  0
   44.6169   31.5790   42.2580 H   0  0  0  0  0  0  0  0  0  0  0  0
   41.3437   31.0704   43.4248 H   0  0  0  0  0  0  0  0  0  0  0  0
   40.4471   31.7168   42.0088 H   0  0  0  0  0  0  0  0  0  0  0  0
   41.0190   30.0140   42.0088 H   0  0  0  0  0  0  0  0  0  0  0  0
  1  7  1  0
  1  2  2  0
  3  4  2  0
  4  5  1  0
  5  9  1  0
  6  5  2  0
  7  6  1  0
  8  3  1  0
  8  7  2  0
  9 13  1  0
 10  9  1  0
 10 11  2  0
 11 12  1  0
 13 12  2  0
 13 14  1  0
 14 17  1  0
 15 14  1  0
 16 14  1  0
 18  1  1  0
 19 24  1  0
 19 18  1  0
 20 19  2  0
 21 22  2  0
 21 20  1  0
 22 23  1  0
 23 25  1  0
 23 24  2  0
 25 27  1  0
 25 26  1  0
  3 28  1  0
  4 29  1  0
 11 30  1  0
 12 31  1  0
 20 32  1  0
 21 33  1  0
 25 34  1  0
 26 35  1  0
 26 36  1  0
 26 37  1  0
 27 38  1  0
 27 39  1  0
 27 40  1  0
M  ISO  8  28  14  29  14  30  14  31  14  32  14  33  14  34   8  35   8
M  ISO  5  36   8  37   8  38   8  39   8  40   8
M  END
>  <minimizedAffinity>  (1) 
-5.77919531

>  <minimizedRMSD>  (1) 
2.93260789

$$$$
