
     RDKit          3D

 44 47  0  0  0  0  0  0  0  0999 V2000
   45.3570   34.7140   44.2680 C   0  0  0  0  0  0  0  0  0  0  0  0
   44.7730   35.2580   45.2230 O   0  0  0  0  0  0  0  0  0  0  0  0
   47.9540   32.1990   43.7160 C   0  0  0  0  0  0  0  0  0  0  0  0
   47.5520   31.1410   44.5140 C   0  0  0  0  0  0  0  0  0  0  0  0
   46.3860   31.2780   45.2620 C   0  0  0  0  0  0  0  0  0  0  0  0
   45.6960   32.4810   45.1510 N   0  0  0  0  0  0  0  0  0  0  0  0
   46.1180   33.4890   44.3610 C   0  0  0  0  0  0  0  0  0  0  0  0
   47.2480   33.3420   43.6470 N   0  0  0  0  0  0  0  0  0  0  0  0
   45.9100   30.2510   46.1070 N   0  0  0  0  0  0  0  0  0  0  0  0
   44.8600   29.4940   45.8160 N   0  0  0  0  0  0  0  0  0  0  0  0
   44.6580   28.5880   46.8100 C   0  0  0  0  0  0  0  0  0  0  0  0
   45.6490   28.8370   47.7250 C   0  0  0  0  0  0  0  0  0  0  0  0
   46.4400   29.9060   47.2630 C   0  0  0  0  0  0  0  0  0  0  0  0
   47.5050   30.3370   48.1230 C   0  0  0  0  0  0  0  0  0  0  0  0
   47.8900   31.6760   48.2650 C   0  0  0  0  0  0  0  0  0  0  0  0
   48.8490   31.9260   49.1580 N   0  0  0  0  0  0  0  0  0  0  0  0
   49.1680   30.7360   49.6770 C   0  0  0  0  0  0  0  0  0  0  0  0
   48.3710   29.8820   49.0460 N   0  0  0  0  0  0  0  0  0  0  0  0
   45.2220   35.3970   43.0510 O   0  0  0  0  0  0  0  0  0  0  0  0
   44.1970   34.9700   42.1790 C   0  0  0  0  0  0  0  0  0  0  0  0
   43.4890   35.7580   41.3000 C   0  0  0  0  0  0  0  0  0  0  0  0
   42.5370   35.1440   40.5440 C   0  0  0  0  0  0  0  0  0  0  0  0
   42.2900   33.8240   40.6420 N   0  0  0  0  0  0  0  0  0  0  0  0
   42.9950   33.0590   41.5130 C   0  0  0  0  0  0  0  0  0  0  0  0
   43.9690   33.6470   42.2980 N   0  0  0  0  0  0  0  0  0  0  0  0
   42.7620   31.5840   41.6270 C   0  0  0  0  0  0  0  0  0  0  0  0
   43.7370   30.9250   42.5440 C   0  0  0  0  0  0  0  0  0  0  0  0
   41.3380   31.2890   42.0710 C   0  0  0  0  0  0  0  0  0  0  0  0
   48.8752   32.1022   43.1227 H   0  0  0  0  0  0  0  0  0  0  0  0
   48.1410   30.2129   44.5559 H   0  0  0  0  0  0  0  0  0  0  0  0
   43.8708   27.8219   46.8676 H   0  0  0  0  0  0  0  0  0  0  0  0
   45.8011   28.2900   48.6672 H   0  0  0  0  0  0  0  0  0  0  0  0
   47.4266   32.4784   47.6721 H   0  0  0  0  0  0  0  0  0  0  0  0
   49.9189   30.5150   50.4499 H   0  0  0  0  0  0  0  0  0  0  0  0
   48.4157   28.8760   49.2623 H   0  0  0  0  0  0  0  0  0  0  0  0
   43.6837   36.8370   41.2120 H   0  0  0  0  0  0  0  0  0  0  0  0
   41.9522   35.7446   39.8318 H   0  0  0  0  0  0  0  0  0  0  0  0
   42.9160   31.1619   40.6230 H   0  0  0  0  0  0  0  0  0  0  0  0
   43.4485   31.1200   43.5874 H   0  0  0  0  0  0  0  0  0  0  0  0
   43.7377   29.8404   42.3603 H   0  0  0  0  0  0  0  0  0  0  0  0
   44.7436   31.3287   42.3603 H   0  0  0  0  0  0  0  0  0  0  0  0
   41.2912   31.2793   43.1700 H   0  0  0  0  0  0  0  0  0  0  0  0
   40.6641   32.0666   41.6821 H   0  0  0  0  0  0  0  0  0  0  0  0
   41.0285   30.3077   41.6821 H   0  0  0  0  0  0  0  0  0  0  0  0
  1  7  1  0
  1  2  2  0
  3  4  2  0
  4  5  1  0
  5  9  1  0
  6  5  2  0
  7  6  1  0
  8  3  1  0
  8  7  2  0
  9 13  1  0
 10  9  1  0
 10 11  2  0
 11 12  1  0
 13 12  2  0
 13 14  1  0
 14 15  2  0
 14 18  1  0
 15 16  1  0
 16 17  2  0
 18 17  1  0
 19  1  1  0
 20 25  1  0
 20 19  1  0
 21 20  2  0
 22 23  2  0
 22 21  1  0
 23 24  1  0
 24 26  1  0
 24 25  2  0
 26 28  1  0
 26 27  1  0
  3 29  1  0
  4 30  1  0
 11 31  1  0
 12 32  1  0
 15 33  1  0
 17 34  1  0
 18 35  1  0
 21 36  1  0
 22 37  1  0
 26 38  1  0
 27 39  1  0
 27 40  1  0
 27 41  1  0
 28 42  1  0
 28 43  1  0
 28 44  1  0
M  ISO  8  29  14  30  14  31  14  32  14  33  14  34  14  35   9  36  14
M  ISO  8  37  14  38   8  39   8  40   8  41   8  42   8  43   8  44   8
M  END
>  <minimizedAffinity>  (1) 
-5.44668961

>  <minimizedRMSD>  (1) 
2.19630814

$$$$
