
     RDKit          3D

 53 56  0  0  0  0  0  0  0  0999 V2000
   45.6600   34.1070   44.1470 C   0  0  0  0  0  0  0  0  0  0  0  0
   45.1660   34.7280   45.1060 O   0  0  0  0  0  0  0  0  0  0  0  0
   48.0550   31.3600   43.8120 C   0  0  0  0  0  0  0  0  0  0  0  0
   47.3880   30.3070   44.3980 C   0  0  0  0  0  0  0  0  0  0  0  0
   46.1130   30.4970   44.9270 C   0  0  0  0  0  0  0  0  0  0  0  0
   45.5940   31.7770   44.8180 N   0  0  0  0  0  0  0  0  0  0  0  0
   46.2730   32.7880   44.2350 C   0  0  0  0  0  0  0  0  0  0  0  0
   47.4960   32.5850   43.7360 N   0  0  0  0  0  0  0  0  0  0  0  0
   45.3930   29.4510   45.5400 N   0  0  0  0  0  0  0  0  0  0  0  0
   44.5620   28.6590   44.8680 N   0  0  0  0  0  0  0  0  0  0  0  0
   44.0390   27.7270   45.7020 C   0  0  0  0  0  0  0  0  0  0  0  0
   44.6100   28.0140   46.9160 C   0  0  0  0  0  0  0  0  0  0  0  0
   45.4790   29.1210   46.8260 C   0  0  0  0  0  0  0  0  0  0  0  0
   46.1700   29.6150   48.0120 C   0  0  0  0  0  0  0  0  0  0  0  0
   47.2640   30.6240   47.7540 C   0  0  0  0  0  0  0  0  0  0  0  0
   47.1790   31.8590   48.6350 C   0  0  0  0  0  0  0  0  0  0  0  0
   45.9380   32.6590   48.4610 C   0  0  0  0  0  0  0  0  0  0  0  0
   44.7780   31.6830   48.3020 C   0  0  0  0  0  0  0  0  0  0  0  0
   45.1860   30.3730   48.9340 C   0  0  0  0  0  0  0  0  0  0  0  0
   45.5880   34.7860   42.9300 O   0  0  0  0  0  0  0  0  0  0  0  0
   44.3760   34.6920   42.2010 C   0  0  0  0  0  0  0  0  0  0  0  0
   43.7220   35.7170   41.5500 C   0  0  0  0  0  0  0  0  0  0  0  0
   42.5690   35.4080   40.9080 C   0  0  0  0  0  0  0  0  0  0  0  0
   42.0730   34.1580   40.8980 N   0  0  0  0  0  0  0  0  0  0  0  0
   42.7230   33.1580   41.5410 C   0  0  0  0  0  0  0  0  0  0  0  0
   43.8970   33.4260   42.2080 N   0  0  0  0  0  0  0  0  0  0  0  0
   42.2050   31.7500   41.5300 C   0  0  0  0  0  0  0  0  0  0  0  0
   43.0080   30.8400   42.4000 C   0  0  0  0  0  0  0  0  0  0  0  0
   40.7380   31.7010   41.9240 C   0  0  0  0  0  0  0  0  0  0  0  0
   49.0616   31.1990   43.3986 H   0  0  0  0  0  0  0  0  0  0  0  0
   47.8620   29.3157   44.4484 H   0  0  0  0  0  0  0  0  0  0  0  0
   43.3234   26.9269   45.4614 H   0  0  0  0  0  0  0  0  0  0  0  0
   44.4149   27.4523   47.8414 H   0  0  0  0  0  0  0  0  0  0  0  0
   46.6005   28.7000   48.4450 H   0  0  0  0  0  0  0  0  0  0  0  0
   48.2341   30.1370   47.9321 H   0  0  0  0  0  0  0  0  0  0  0  0
   47.1481   30.9635   46.7141 H   0  0  0  0  0  0  0  0  0  0  0  0
   47.2346   31.5359   49.6850 H   0  0  0  0  0  0  0  0  0  0  0  0
   48.0142   32.5109   48.3394 H   0  0  0  0  0  0  0  0  0  0  0  0
   45.7748   33.2947   49.3438 H   0  0  0  0  0  0  0  0  0  0  0  0
   46.0189   33.3096   47.5777 H   0  0  0  0  0  0  0  0  0  0  0  0
   43.8841   32.0791   48.8060 H   0  0  0  0  0  0  0  0  0  0  0  0
   44.5410   31.5384   47.2376 H   0  0  0  0  0  0  0  0  0  0  0  0
   44.2911   29.7542   49.0963 H   0  0  0  0  0  0  0  0  0  0  0  0
   45.6817   30.5783   49.8943 H   0  0  0  0  0  0  0  0  0  0  0  0
   44.1196   36.7426   41.5517 H   0  0  0  0  0  0  0  0  0  0  0  0
   42.0228   36.2032   40.3795 H   0  0  0  0  0  0  0  0  0  0  0  0
   42.3052   31.3885   40.4959 H   0  0  0  0  0  0  0  0  0  0  0  0
   42.8054   31.0696   43.4565 H   0  0  0  0  0  0  0  0  0  0  0  0
   42.7316   29.7958   42.1922 H   0  0  0  0  0  0  0  0  0  0  0  0
   44.0785   30.9843   42.1922 H   0  0  0  0  0  0  0  0  0  0  0  0
   40.6528   31.6982   43.0207 H   0  0  0  0  0  0  0  0  0  0  0  0
   40.2197   32.5823   41.5182 H   0  0  0  0  0  0  0  0  0  0  0  0
   40.2797   30.7870   41.5182 H   0  0  0  0  0  0  0  0  0  0  0  0
  1  7  1  0
  1  2  2  0
  3  4  2  0
  4  5  1  0
  5  9  1  0
  6  5  2  0
  7  6  1  0
  8  3  1  0
  8  7  2  0
  9 13  1  0
 10  9  1  0
 10 11  2  0
 11 12  1  0
 13 12  2  0
 13 14  1  0
 14 19  1  0
 15 14  1  0
 15 16  1  0
 17 16  1  0
 18 17  1  0
 18 19  1  0
 20  1  1  0
 21 26  1  0
 21 20  1  0
 22 21  2  0
 23 22  1  0
 24 23  2  0
 24 25  1  0
 25 26  2  0
 27 25  1  0
 27 29  1  0
 27 28  1  0
  3 30  1  0
  4 31  1  0
 11 32  1  0
 12 33  1  0
 14 34  1  0
 15 35  1  0
 15 36  1  0
 16 37  1  0
 16 38  1  0
 17 39  1  0
 17 40  1  0
 18 41  1  0
 18 42  1  0
 19 43  1  0
 19 44  1  0
 22 45  1  0
 23 46  1  0
 27 47  1  0
 28 48  1  0
 28 49  1  0
 28 50  1  0
 29 51  1  0
 29 52  1  0
 29 53  1  0
M  ISO  8  30  14  31  14  32  14  33  14  34  13  35  13  36  13  37  13
M  ISO  8  38  13  39  13  40  13  41  13  42  13  43  13  44  13  45  14
M  ISO  8  46  14  47   8  48   8  49   8  50   8  51   8  52   8  53   8
M  END
>  <minimizedAffinity>  (1) 
-5.37688732

>  <minimizedRMSD>  (1) 
2.55810571

$$$$
