
     RDKit          3D

 46 48  0  0  0  0  0  0  0  0999 V2000
   44.8610   35.3840   43.3640 C   0  0  0  0  0  0  0  0  0  0  0  0
   44.3960   36.1850   44.1940 O   0  0  0  0  0  0  0  0  0  0  0  0
   47.9070   33.3590   43.4510 C   0  0  0  0  0  0  0  0  0  0  0  0
   47.5460   32.2890   44.2410 C   0  0  0  0  0  0  0  0  0  0  0  0
   46.2560   32.2360   44.7690 C   0  0  0  0  0  0  0  0  0  0  0  0
   45.3990   33.2900   44.4520 N   0  0  0  0  0  0  0  0  0  0  0  0
   45.8020   34.3180   43.6700 C   0  0  0  0  0  0  0  0  0  0  0  0
   47.0450   34.3560   43.1720 N   0  0  0  0  0  0  0  0  0  0  0  0
   45.8170   31.1820   45.5920 N   0  0  0  0  0  0  0  0  0  0  0  0
   45.3980   30.0120   45.1360 N   0  0  0  0  0  0  0  0  0  0  0  0
   45.0590   29.2060   46.1620 C   0  0  0  0  0  0  0  0  0  0  0  0
   45.2960   29.9600   47.2940 C   0  0  0  0  0  0  0  0  0  0  0  0
   45.7760   31.2150   46.9220 C   0  0  0  0  0  0  0  0  0  0  0  0
   46.0420   32.1890   47.9660 C   0  0  0  0  0  0  0  0  0  0  0  0
   47.5660   32.1710   48.1920 C   0  0  0  0  0  0  0  0  0  0  0  0
   45.4930   31.7050   49.3280 C   0  0  0  0  0  0  0  0  0  0  0  0
   44.4000   35.5850   42.0630 O   0  0  0  0  0  0  0  0  0  0  0  0
   43.1430   35.0290   41.7230 C   0  0  0  0  0  0  0  0  0  0  0  0
   42.0140   35.7130   41.3350 C   0  0  0  0  0  0  0  0  0  0  0  0
   40.9070   34.9710   41.0530 C   0  0  0  0  0  0  0  0  0  0  0  0
   40.8990   33.6360   41.1420 N   0  0  0  0  0  0  0  0  0  0  0  0
   42.0170   32.9730   41.5270 C   0  0  0  0  0  0  0  0  0  0  0  0
   43.1660   33.6770   41.8240 N   0  0  0  0  0  0  0  0  0  0  0  0
   42.0490   31.4740   41.6150 C   0  0  0  0  0  0  0  0  0  0  0  0
   43.2860   30.9730   42.2820 C   0  0  0  0  0  0  0  0  0  0  0  0
   40.8220   30.9270   42.3220 C   0  0  0  0  0  0  0  0  0  0  0  0
   48.9255   33.4000   43.0375 H   0  0  0  0  0  0  0  0  0  0  0  0
   48.2671   31.4858   44.4528 H   0  0  0  0  0  0  0  0  0  0  0  0
   44.6779   28.1755   46.1090 H   0  0  0  0  0  0  0  0  0  0  0  0
   45.1317   29.6231   48.3282 H   0  0  0  0  0  0  0  0  0  0  0  0
   45.6052   33.1532   47.6669 H   0  0  0  0  0  0  0  0  0  0  0  0
   47.7766   32.1685   49.2717 H   0  0  0  0  0  0  0  0  0  0  0  0
   47.9941   31.2677   47.7328 H   0  0  0  0  0  0  0  0  0  0  0  0
   48.0153   33.0639   47.7328 H   0  0  0  0  0  0  0  0  0  0  0  0
   46.0481   32.1944   50.1419 H   0  0  0  0  0  0  0  0  0  0  0  0
   44.4262   31.9619   49.4055 H   0  0  0  0  0  0  0  0  0  0  0  0
   45.6141   30.6144   49.4055 H   0  0  0  0  0  0  0  0  0  0  0  0
   42.0057   36.8101   41.2560 H   0  0  0  0  0  0  0  0  0  0  0  0
   39.9873   35.4875   40.7411 H   0  0  0  0  0  0  0  0  0  0  0  0
   42.0496   31.1074   40.5779 H   0  0  0  0  0  0  0  0  0  0  0  0
   43.1603   31.0239   43.3736 H   0  0  0  0  0  0  0  0  0  0  0  0
   43.4677   29.9304   41.9821 H   0  0  0  0  0  0  0  0  0  0  0  0
   44.1420   31.5953   41.9821 H   0  0  0  0  0  0  0  0  0  0  0  0
   40.9668   30.9915   43.4105 H   0  0  0  0  0  0  0  0  0  0  0  0
   39.9394   31.5169   42.0339 H   0  0  0  0  0  0  0  0  0  0  0  0
   40.6708   29.8762   42.0339 H   0  0  0  0  0  0  0  0  0  0  0  0
  1  7  1  0
  1  2  2  0
  3  4  2  0
  4  5  1  0
  5  9  1  0
  6  5  2  0
  7  6  1  0
  8  3  1  0
  8  7  2  0
  9 13  1  0
 10  9  1  0
 10 11  2  0
 11 12  1  0
 13 12  2  0
 13 14  1  0
 14 15  1  0
 14 16  1  0
 17  1  1  0
 18 23  1  0
 18 17  1  0
 19 18  2  0
 20 21  2  0
 20 19  1  0
 21 22  1  0
 22 24  1  0
 22 23  2  0
 24 25  1  0
 24 26  1  0
  3 27  1  0
  4 28  1  0
 11 29  1  0
 12 30  1  0
 14 31  1  0
 15 32  1  0
 15 33  1  0
 15 34  1  0
 16 35  1  0
 16 36  1  0
 16 37  1  0
 19 38  1  0
 20 39  1  0
 24 40  1  0
 25 41  1  0
 25 42  1  0
 25 43  1  0
 26 44  1  0
 26 45  1  0
 26 46  1  0
M  ISO  8  27  14  28  14  29  14  30  14  31   8  32   8  33   8  34   8
M  ISO  8  35   8  36   8  37   8  38  14  39  14  40   8  41   8  42   8
M  ISO  4  43   8  44   8  45   8  46   8
M  END
>  <minimizedAffinity>  (1) 
-5.50635386

>  <minimizedRMSD>  (1) 
2.73085141

$$$$
