
     RDKit          3D

 44 47  0  0  0  0  0  0  0  0999 V2000
   45.2030   34.9560   44.1420 C   0  0  0  0  0  0  0  0  0  0  0  0
   44.5920   35.4870   45.0890 O   0  0  0  0  0  0  0  0  0  0  0  0
   47.9230   32.5660   43.6200 C   0  0  0  0  0  0  0  0  0  0  0  0
   47.5970   31.5150   44.4550 C   0  0  0  0  0  0  0  0  0  0  0  0
   46.4330   31.6140   45.2240 C   0  0  0  0  0  0  0  0  0  0  0  0
   45.6710   32.7770   45.0920 N   0  0  0  0  0  0  0  0  0  0  0  0
   46.0310   33.7780   44.2590 C   0  0  0  0  0  0  0  0  0  0  0  0
   47.1550   33.6710   43.5270 N   0  0  0  0  0  0  0  0  0  0  0  0
   46.0210   30.5920   46.1080 N   0  0  0  0  0  0  0  0  0  0  0  0
   44.9200   29.8830   45.9510 N   0  0  0  0  0  0  0  0  0  0  0  0
   44.8020   28.9690   46.9520 C   0  0  0  0  0  0  0  0  0  0  0  0
   45.9290   29.1770   47.7410 C   0  0  0  0  0  0  0  0  0  0  0  0
   46.6910   30.2170   47.1870 C   0  0  0  0  0  0  0  0  0  0  0  0
   47.8690   30.5800   47.9150 C   0  0  0  0  0  0  0  0  0  0  0  0
   48.2570   31.6320   48.7220 C   0  0  0  0  0  0  0  0  0  0  0  0
   49.4090   31.6990   49.4090 C   0  0  0  0  0  0  0  0  0  0  0  0
   50.2340   30.5700   49.2450 C   0  0  0  0  0  0  0  0  0  0  0  0
   49.2290   29.4990   48.0810 S   0  0  0  0  0  0  0  0  0  0  0  0
   45.0260   35.6010   42.9110 O   0  0  0  0  0  0  0  0  0  0  0  0
   44.0210   35.0950   42.0540 C   0  0  0  0  0  0  0  0  0  0  0  0
   43.2810   35.8190   41.1500 C   0  0  0  0  0  0  0  0  0  0  0  0
   42.3560   35.1320   40.4160 C   0  0  0  0  0  0  0  0  0  0  0  0
   42.1720   33.7970   40.5640 N   0  0  0  0  0  0  0  0  0  0  0  0
   42.9150   33.1050   41.4620 C   0  0  0  0  0  0  0  0  0  0  0  0
   43.8550   33.7580   42.2220 N   0  0  0  0  0  0  0  0  0  0  0  0
   42.7500   31.6270   41.6340 C   0  0  0  0  0  0  0  0  0  0  0  0
   43.7650   31.0470   42.5630 C   0  0  0  0  0  0  0  0  0  0  0  0
   41.3520   31.2760   42.1120 C   0  0  0  0  0  0  0  0  0  0  0  0
   48.8373   32.4998   43.0120 H   0  0  0  0  0  0  0  0  0  0  0  0
   48.2370   30.6223   44.5137 H   0  0  0  0  0  0  0  0  0  0  0  0
   43.9985   28.2331   47.1031 H   0  0  0  0  0  0  0  0  0  0  0  0
   46.1821   28.6162   48.6528 H   0  0  0  0  0  0  0  0  0  0  0  0
   47.5664   32.4838   48.8089 H   0  0  0  0  0  0  0  0  0  0  0  0
   49.6826   32.5565   50.0413 H   0  0  0  0  0  0  0  0  0  0  0  0
   51.2201   30.3675   49.6884 H   0  0  0  0  0  0  0  0  0  0  0  0
   43.4268   36.9019   41.0233 H   0  0  0  0  0  0  0  0  0  0  0  0
   41.7428   35.6778   39.6838 H   0  0  0  0  0  0  0  0  0  0  0  0
   42.9079   31.1825   40.6403 H   0  0  0  0  0  0  0  0  0  0  0  0
   43.4540   31.2247   43.6031 H   0  0  0  0  0  0  0  0  0  0  0  0
   43.8487   29.9647   42.3852 H   0  0  0  0  0  0  0  0  0  0  0  0
   44.7400   31.5243   42.3852 H   0  0  0  0  0  0  0  0  0  0  0  0
   41.3311   31.2707   43.2118 H   0  0  0  0  0  0  0  0  0  0  0  0
   40.6374   32.0226   41.7352 H   0  0  0  0  0  0  0  0  0  0  0  0
   41.0749   30.2804   41.7352 H   0  0  0  0  0  0  0  0  0  0  0  0
  1  7  1  0
  1  2  2  0
  3  4  2  0
  4  5  1  0
  5  9  1  0
  6  5  2  0
  7  6  1  0
  8  3  1  0
  8  7  2  0
  9 13  1  0
 10  9  1  0
 10 11  2  0
 11 12  1  0
 13 12  2  0
 13 14  1  0
 14 18  1  0
 14 15  2  0
 15 16  1  0
 17 16  2  0
 18 17  1  0
 19  1  1  0
 20 25  1  0
 20 19  1  0
 21 20  2  0
 22 23  2  0
 22 21  1  0
 23 24  1  0
 24 26  1  0
 24 25  2  0
 26 28  1  0
 26 27  1  0
  3 29  1  0
  4 30  1  0
 11 31  1  0
 12 32  1  0
 15 33  1  0
 16 34  1  0
 17 35  1  0
 21 36  1  0
 22 37  1  0
 26 38  1  0
 27 39  1  0
 27 40  1  0
 27 41  1  0
 28 42  1  0
 28 43  1  0
 28 44  1  0
M  ISO  8  29  14  30  14  31  14  32  14  33  14  34  14  35  14  36  14
M  ISO  8  37  14  38   8  39   8  40   8  41   8  42   8  43   8  44   8
M  END
>  <minimizedAffinity>  (1) 
-5.34365082

>  <minimizedRMSD>  (1) 
2.35406351

$$$$
