
     RDKit          3D

 45 48  0  0  0  0  0  0  0  0999 V2000
   47.9450   32.4200   43.5970 C   0  0  0  0  0  0  0  0  0  0  0  0
   47.5710   31.3850   44.4160 C   0  0  0  0  0  0  0  0  0  0  0  0
   46.4250   31.4920   45.1990 C   0  0  0  0  0  0  0  0  0  0  0  0
   45.6970   32.6810   45.0890 N   0  0  0  0  0  0  0  0  0  0  0  0
   46.0910   33.6810   44.2640 C   0  0  0  0  0  0  0  0  0  0  0  0
   47.2080   33.5530   43.5250 N   0  0  0  0  0  0  0  0  0  0  0  0
   46.0090   30.4920   46.0930 N   0  0  0  0  0  0  0  0  0  0  0  0
   44.8870   29.8000   45.9490 N   0  0  0  0  0  0  0  0  0  0  0  0
   44.8030   28.8700   46.9370 C   0  0  0  0  0  0  0  0  0  0  0  0
   45.9360   29.0400   47.6830 C   0  0  0  0  0  0  0  0  0  0  0  0
   46.6870   30.0710   47.1470 C   0  0  0  0  0  0  0  0  0  0  0  0
   47.8610   30.4050   47.8670 C   0  0  0  0  0  0  0  0  0  0  0  0
   48.3230   31.4530   48.6170 C   0  0  0  0  0  0  0  0  0  0  0  0
   49.3850   31.7130   49.4350 C   0  0  0  0  0  0  0  0  0  0  0  0
   50.2030   30.6220   49.5250 N   0  0  0  0  0  0  0  0  0  0  0  0
   49.8720   29.5190   48.8450 C   0  0  0  0  0  0  0  0  0  0  0  0
   48.7960   29.4790   48.1080 N   0  0  0  0  0  0  0  0  0  0  0  0
   45.2840   34.8780   44.1600 C   0  0  0  0  0  0  0  0  0  0  0  0
   44.6860   35.4130   45.1100 O   0  0  0  0  0  0  0  0  0  0  0  0
   45.1180   35.5370   42.9360 O   0  0  0  0  0  0  0  0  0  0  0  0
   44.0920   35.0690   42.0840 C   0  0  0  0  0  0  0  0  0  0  0  0
   43.3520   35.8100   41.1920 C   0  0  0  0  0  0  0  0  0  0  0  0
   42.4060   35.1480   40.4640 C   0  0  0  0  0  0  0  0  0  0  0  0
   42.1940   33.8370   40.5980 N   0  0  0  0  0  0  0  0  0  0  0  0
   42.9280   33.1130   41.4800 C   0  0  0  0  0  0  0  0  0  0  0  0
   43.8950   33.7350   42.2390 N   0  0  0  0  0  0  0  0  0  0  0  0
   42.7270   31.6350   41.6340 C   0  0  0  0  0  0  0  0  0  0  0  0
   43.7340   31.0160   42.5500 C   0  0  0  0  0  0  0  0  0  0  0  0
   41.3200   31.3040   42.0990 C   0  0  0  0  0  0  0  0  0  0  0  0
   48.8575   32.3278   42.9897 H   0  0  0  0  0  0  0  0  0  0  0  0
   48.1780   30.4685   44.4541 H   0  0  0  0  0  0  0  0  0  0  0  0
   43.9976   28.1389   47.1008 H   0  0  0  0  0  0  0  0  0  0  0  0
   46.2079   28.4496   48.5704 H   0  0  0  0  0  0  0  0  0  0  0  0
   47.6560   32.3243   48.5394 H   0  0  0  0  0  0  0  0  0  0  0  0
   49.5582   32.6691   49.9506 H   0  0  0  0  0  0  0  0  0  0  0  0
   50.5176   28.6306   48.9081 H   0  0  0  0  0  0  0  0  0  0  0  0
   43.5158   36.8909   41.0705 H   0  0  0  0  0  0  0  0  0  0  0  0
   41.7980   35.7138   39.7428 H   0  0  0  0  0  0  0  0  0  0  0  0
   42.8731   31.2014   40.6337 H   0  0  0  0  0  0  0  0  0  0  0  0
   43.4397   31.1969   43.5944 H   0  0  0  0  0  0  0  0  0  0  0  0
   43.7812   29.9327   42.3647 H   0  0  0  0  0  0  0  0  0  0  0  0
   44.7218   31.4630   42.3647 H   0  0  0  0  0  0  0  0  0  0  0  0
   41.2894   31.2968   43.1986 H   0  0  0  0  0  0  0  0  0  0  0  0
   40.6200   32.0620   41.7177 H   0  0  0  0  0  0  0  0  0  0  0  0
   41.0313   30.3134   41.7177 H   0  0  0  0  0  0  0  0  0  0  0  0
  1  2  2  0
  2  3  1  0
  3  7  1  0
  4  3  2  0
  5  4  1  0
  6  1  1  0
  6  5  2  0
  7 11  1  0
  8  7  1  0
  8  9  2  0
  9 10  1  0
 11 10  2  0
 11 12  1  0
 12 17  1  0
 12 13  2  0
 13 14  1  0
 14 15  2  0
 16 15  1  0
 17 16  2  0
 18  5  1  0
 18 19  2  0
 20 18  1  0
 21 26  1  0
 21 20  1  0
 22 21  2  0
 23 24  2  0
 23 22  1  0
 24 25  1  0
 25 27  1  0
 25 26  2  0
 27 29  1  0
 27 28  1  0
  1 30  1  0
  2 31  1  0
  9 32  1  0
 10 33  1  0
 13 34  1  0
 14 35  1  0
 16 36  1  0
 22 37  1  0
 23 38  1  0
 27 39  1  0
 28 40  1  0
 28 41  1  0
 28 42  1  0
 29 43  1  0
 29 44  1  0
 29 45  1  0
M  ISO  8  30  14  31  14  32  14  33  14  34  14  35  14  36  14  37  14
M  ISO  8  38  14  39   8  40   8  41   8  42   8  43   8  44   8  45   8
M  END
>  <minimizedAffinity>  (1) 
-5.34316587

>  <minimizedRMSD>  (1) 
2.32061839

$$$$
