
     RDKit          3D

 42 45  0  0  0  0  0  0  0  0999 V2000
   45.2660   34.9220   44.1170 C   0  0  0  0  0  0  0  0  0  0  0  0
   44.7020   35.4950   45.0570 O   0  0  0  0  0  0  0  0  0  0  0  0
   47.9050   32.4520   43.6290 C   0  0  0  0  0  0  0  0  0  0  0  0
   47.5360   31.4230   44.4690 C   0  0  0  0  0  0  0  0  0  0  0  0
   46.3710   31.5500   45.2260 C   0  0  0  0  0  0  0  0  0  0  0  0
   45.6610   32.7270   45.0690 N   0  0  0  0  0  0  0  0  0  0  0  0
   46.0450   33.7130   44.2420 C   0  0  0  0  0  0  0  0  0  0  0  0
   47.1720   33.5710   43.5210 N   0  0  0  0  0  0  0  0  0  0  0  0
   45.9350   30.5330   46.1080 N   0  0  0  0  0  0  0  0  0  0  0  0
   44.9420   29.6970   45.8120 N   0  0  0  0  0  0  0  0  0  0  0  0
   44.7590   28.8380   46.8490 C   0  0  0  0  0  0  0  0  0  0  0  0
   45.7040   29.2100   47.7820 C   0  0  0  0  0  0  0  0  0  0  0  0
   46.4450   30.2820   47.3140 C   0  0  0  0  0  0  0  0  0  0  0  0
   47.5110   30.8930   48.0900 C   0  0  0  0  0  0  0  0  0  0  0  0
   47.8790   32.1890   48.3120 N   0  0  0  0  0  0  0  0  0  0  0  0
   48.9160   32.2260   49.0910 O   0  0  0  0  0  0  0  0  0  0  0  0
   49.2740   30.9860   49.4140 C   0  0  0  0  0  0  0  0  0  0  0  0
   48.4120   30.1510   48.8000 N   0  0  0  0  0  0  0  0  0  0  0  0
   45.0800   35.5570   42.8930 O   0  0  0  0  0  0  0  0  0  0  0  0
   44.0510   35.0790   42.0420 C   0  0  0  0  0  0  0  0  0  0  0  0
   43.3110   35.8150   41.1480 C   0  0  0  0  0  0  0  0  0  0  0  0
   42.3710   35.1520   40.4290 C   0  0  0  0  0  0  0  0  0  0  0  0
   42.1660   33.8340   40.5760 N   0  0  0  0  0  0  0  0  0  0  0  0
   42.8990   33.1130   41.4600 C   0  0  0  0  0  0  0  0  0  0  0  0
   43.8660   33.7470   42.2140 N   0  0  0  0  0  0  0  0  0  0  0  0
   42.7110   31.6330   41.6300 C   0  0  0  0  0  0  0  0  0  0  0  0
   43.7210   31.0300   42.5390 C   0  0  0  0  0  0  0  0  0  0  0  0
   41.3000   31.3140   42.1050 C   0  0  0  0  0  0  0  0  0  0  0  0
   48.8237   32.3533   43.0321 H   0  0  0  0  0  0  0  0  0  0  0  0
   48.1517   30.5143   44.5414 H   0  0  0  0  0  0  0  0  0  0  0  0
   44.0209   28.0261   46.9269 H   0  0  0  0  0  0  0  0  0  0  0  0
   45.8484   28.7245   48.7584 H   0  0  0  0  0  0  0  0  0  0  0  0
   50.1154   30.6965   50.0607 H   0  0  0  0  0  0  0  0  0  0  0  0
   43.4739   36.8954   41.0209 H   0  0  0  0  0  0  0  0  0  0  0  0
   41.7595   35.7105   39.7050 H   0  0  0  0  0  0  0  0  0  0  0  0
   42.8604   31.1798   40.6389 H   0  0  0  0  0  0  0  0  0  0  0  0
   43.4256   31.2063   43.5838 H   0  0  0  0  0  0  0  0  0  0  0  0
   43.7820   29.9476   42.3529 H   0  0  0  0  0  0  0  0  0  0  0  0
   44.7028   31.4899   42.3529 H   0  0  0  0  0  0  0  0  0  0  0  0
   41.2758   31.3085   43.2047 H   0  0  0  0  0  0  0  0  0  0  0  0
   40.6044   32.0775   41.7267 H   0  0  0  0  0  0  0  0  0  0  0  0
   41.0005   30.3255   41.7267 H   0  0  0  0  0  0  0  0  0  0  0  0
  1  7  1  0
  1  2  2  0
  3  4  2  0
  4  5  1  0
  5  9  1  0
  6  5  2  0
  7  6  1  0
  8  3  1  0
  8  7  2  0
  9 13  1  0
 10  9  1  0
 10 11  2  0
 11 12  1  0
 13 12  2  0
 13 14  1  0
 14 15  2  0
 14 18  1  0
 15 16  1  0
 16 17  1  0
 18 17  2  0
 19  1  1  0
 20 25  1  0
 20 19  1  0
 21 20  2  0
 22 23  2  0
 22 21  1  0
 23 24  1  0
 24 26  1  0
 24 25  2  0
 26 28  1  0
 26 27  1  0
  3 29  1  0
  4 30  1  0
 11 31  1  0
 12 32  1  0
 17 33  1  0
 21 34  1  0
 22 35  1  0
 26 36  1  0
 27 37  1  0
 27 38  1  0
 27 39  1  0
 28 40  1  0
 28 41  1  0
 28 42  1  0
M  ISO  8  29  14  30  14  31  14  32  14  33  14  34  14  35  14  36   8
M  ISO  6  37   8  38   8  39   8  40   8  41   8  42   8
M  END
>  <minimizedAffinity>  (1) 
-5.32724762

>  <minimizedRMSD>  (1) 
2.48201847

$$$$
