
     RDKit          3D

 43 46  0  0  0  0  0  0  0  0999 V2000
   45.1880   34.8540   44.3770 C   0  0  0  0  0  0  0  0  0  0  0  0
   44.5690   35.3440   45.3350 O   0  0  0  0  0  0  0  0  0  0  0  0
   47.8790   32.4610   43.7790 C   0  0  0  0  0  0  0  0  0  0  0  0
   47.5220   31.3870   44.5610 C   0  0  0  0  0  0  0  0  0  0  0  0
   46.3520   31.4510   45.3170 C   0  0  0  0  0  0  0  0  0  0  0  0
   45.6180   32.6230   45.2170 N   0  0  0  0  0  0  0  0  0  0  0  0
   45.9980   33.6540   44.4390 C   0  0  0  0  0  0  0  0  0  0  0  0
   47.1210   33.5710   43.7270 N   0  0  0  0  0  0  0  0  0  0  0  0
   45.9170   30.3930   46.1470 N   0  0  0  0  0  0  0  0  0  0  0  0
   44.8950   29.6110   45.8730 N   0  0  0  0  0  0  0  0  0  0  0  0
   44.7260   28.6930   46.8450 C   0  0  0  0  0  0  0  0  0  0  0  0
   45.7470   28.9740   47.7650 C   0  0  0  0  0  0  0  0  0  0  0  0
   46.4870   30.0520   47.3030 C   0  0  0  0  0  0  0  0  0  0  0  0
   47.5840   30.5460   48.0570 N   0  0  0  0  0  0  0  0  0  0  0  0
   48.7190   29.7830   48.0510 C   0  0  0  0  0  0  0  0  0  0  0  0
   49.6720   30.3800   48.8170 N   0  0  0  0  0  0  0  0  0  0  0  0
   49.1130   31.5110   49.2900 C   0  0  0  0  0  0  0  0  0  0  0  0
   47.8690   31.6060   48.8330 N   0  0  0  0  0  0  0  0  0  0  0  0
   45.0370   35.5730   43.1930 O   0  0  0  0  0  0  0  0  0  0  0  0
   44.0940   35.0960   42.2440 C   0  0  0  0  0  0  0  0  0  0  0  0
   43.4220   35.8380   41.3050 C   0  0  0  0  0  0  0  0  0  0  0  0
   42.5630   35.1840   40.4920 C   0  0  0  0  0  0  0  0  0  0  0  0
   42.3670   33.8550   40.5940 N   0  0  0  0  0  0  0  0  0  0  0  0
   43.0320   33.1300   41.5220 C   0  0  0  0  0  0  0  0  0  0  0  0
   43.9160   33.7590   42.3690 N   0  0  0  0  0  0  0  0  0  0  0  0
   42.8520   31.6430   41.6470 C   0  0  0  0  0  0  0  0  0  0  0  0
   43.8590   31.0200   42.5420 C   0  0  0  0  0  0  0  0  0  0  0  0
   41.4420   31.2920   42.1060 C   0  0  0  0  0  0  0  0  0  0  0  0
   48.8030   32.4111   43.1842 H   0  0  0  0  0  0  0  0  0  0  0  0
   48.1532   30.4866   44.5897 H   0  0  0  0  0  0  0  0  0  0  0  0
   43.9620   27.9037   46.9036 H   0  0  0  0  0  0  0  0  0  0  0  0
   45.9310   28.4275   48.7017 H   0  0  0  0  0  0  0  0  0  0  0  0
   48.8424   28.8331   47.5103 H   0  0  0  0  0  0  0  0  0  0  0  0
   49.6076   32.2395   49.9493 H   0  0  0  0  0  0  0  0  0  0  0  0
   43.5767   36.9235   41.2175 H   0  0  0  0  0  0  0  0  0  0  0  0
   42.0103   35.7507   39.7282 H   0  0  0  0  0  0  0  0  0  0  0  0
   43.0078   31.2272   40.6406 H   0  0  0  0  0  0  0  0  0  0  0  0
   43.5760   31.1951   43.5904 H   0  0  0  0  0  0  0  0  0  0  0  0
   43.9011   29.9378   42.3494 H   0  0  0  0  0  0  0  0  0  0  0  0
   44.8462   31.4654   42.3494 H   0  0  0  0  0  0  0  0  0  0  0  0
   41.4059   31.2830   43.2054 H   0  0  0  0  0  0  0  0  0  0  0  0
   40.7342   32.0414   41.7220 H   0  0  0  0  0  0  0  0  0  0  0  0
   41.1681   30.2983   41.7220 H   0  0  0  0  0  0  0  0  0  0  0  0
  1  7  1  0
  1  2  2  0
  3  4  2  0
  4  5  1  0
  5  9  1  0
  6  5  2  0
  7  6  1  0
  8  3  1  0
  8  7  2  0
  9 13  1  0
 10  9  1  0
 10 11  2  0
 11 12  1  0
 13 12  2  0
 13 14  1  0
 14 18  1  0
 15 14  1  0
 15 16  2  0
 16 17  1  0
 18 17  2  0
 19  1  1  0
 20 25  1  0
 20 19  1  0
 21 20  2  0
 22 23  2  0
 22 21  1  0
 23 24  1  0
 24 26  1  0
 24 25  2  0
 26 28  1  0
 26 27  1  0
  3 29  1  0
  4 30  1  0
 11 31  1  0
 12 32  1  0
 15 33  1  0
 17 34  1  0
 21 35  1  0
 22 36  1  0
 26 37  1  0
 27 38  1  0
 27 39  1  0
 27 40  1  0
 28 41  1  0
 28 42  1  0
 28 43  1  0
M  ISO  8  29  14  30  14  31  14  32  14  33  14  34  14  35  14  36  14
M  ISO  7  37   8  38   8  39   8  40   8  41   8  42   8  43   8
M  END
>  <minimizedAffinity>  (1) 
-5.26137495

>  <minimizedRMSD>  (1) 
2.21268773

$$$$
