
     RDKit          3D

 23 24  0  0  0  0  0  0  0  0999 V2000
   46.7240   34.9420   42.0200 C   0  0  0  0  0  0  0  0  0  0  0  0
   46.0910   34.8390   43.3400 C   0  0  0  0  0  0  0  0  0  0  0  0
   45.1750   35.8790   43.5710 C   0  0  0  0  0  0  0  0  0  0  0  0
   44.4720   35.9460   44.7830 C   0  0  0  0  0  0  0  0  0  0  0  0
   44.7340   34.9570   45.6940 N   0  0  0  0  0  0  0  0  0  0  0  0
   45.6290   33.9630   45.4360 C   0  0  0  0  0  0  0  0  0  0  0  0
   46.2820   33.9230   44.2790 N   0  0  0  0  0  0  0  0  0  0  0  0
   48.0870   34.2670   42.0060 C   0  0  0  0  0  0  0  0  0  0  0  0
   48.4670   33.7090   40.7070 C   0  0  0  0  0  0  0  0  0  0  0  0
   47.9640   34.2750   39.5360 C   0  0  0  0  0  0  0  0  0  0  0  0
   48.4920   33.5430   38.4880 C   0  0  0  0  0  0  0  0  0  0  0  0
   49.2510   32.6190   39.0560 N   0  0  0  0  0  0  0  0  0  0  0  0
   49.2680   32.6770   40.3810 N   0  0  0  0  0  0  0  0  0  0  0  0
   46.0769   34.4581   41.2736 H   0  0  0  0  0  0  0  0  0  0  0  0
   46.8620   36.0074   41.7835 H   0  0  0  0  0  0  0  0  0  0  0  0
   45.0084   36.6439   42.7982 H   0  0  0  0  0  0  0  0  0  0  0  0
   43.7496   36.7491   44.9907 H   0  0  0  0  0  0  0  0  0  0  0  0
   45.8131   33.1859   46.1925 H   0  0  0  0  0  0  0  0  0  0  0  0
   48.8434   35.0110   42.2965 H   0  0  0  0  0  0  0  0  0  0  0  0
   48.0286   33.4222   42.7080 H   0  0  0  0  0  0  0  0  0  0  0  0
   47.2816   35.1345   39.4606 H   0  0  0  0  0  0  0  0  0  0  0  0
   48.3184   33.6959   37.4126 H   0  0  0  0  0  0  0  0  0  0  0  0
   49.7804   31.9184   38.5177 H   0  0  0  0  0  0  0  0  0  0  0  0
  1  2  1  0
  2  3  2  0
  2  7  1  0
  3  4  1  0
  4  5  2  0
  6  5  1  0
  7  6  2  0
  8  1  1  0
  9  8  1  0
 10  9  1  0
 11 12  1  0
 11 10  2  0
 12 13  1  0
 13  9  2  0
  1 14  1  0
  1 15  1  0
  3 16  1  0
  4 17  1  0
  6 18  1  0
  8 19  1  0
  8 20  1  0
 10 21  1  0
 11 22  1  0
 12 23  1  0
M  ISO  8  14   8  15   8  16  14  17  14  18  14  19   8  20   8  21  14
M  ISO  2  22  14  23   9
M  END
>  <minimizedAffinity>  (1) 
-4.11271906

>  <minimizedRMSD>  (1) 
3.80565906

$$$$
