
     RDKit          3D

 44 47  0  0  0  0  0  0  0  0999 V2000
   45.3430   34.7350   44.2520 C   0  0  0  0  0  0  0  0  0  0  0  0
   44.7590   35.2790   45.2050 O   0  0  0  0  0  0  0  0  0  0  0  0
   47.9540   32.2430   43.7140 C   0  0  0  0  0  0  0  0  0  0  0  0
   47.5600   31.1980   44.5180 C   0  0  0  0  0  0  0  0  0  0  0  0
   46.3870   31.3150   45.2670 C   0  0  0  0  0  0  0  0  0  0  0  0
   45.6980   32.5060   45.1390 N   0  0  0  0  0  0  0  0  0  0  0  0
   46.1160   33.5100   44.3400 C   0  0  0  0  0  0  0  0  0  0  0  0
   47.2360   33.3750   43.6350 N   0  0  0  0  0  0  0  0  0  0  0  0
   45.9280   30.2790   46.1130 N   0  0  0  0  0  0  0  0  0  0  0  0
   44.8710   29.5250   45.8270 N   0  0  0  0  0  0  0  0  0  0  0  0
   44.6890   28.6120   46.8150 C   0  0  0  0  0  0  0  0  0  0  0  0
   45.7060   28.8680   47.7090 C   0  0  0  0  0  0  0  0  0  0  0  0
   46.4900   29.9230   47.2680 C   0  0  0  0  0  0  0  0  0  0  0  0
   47.5950   30.3840   48.0250 N   0  0  0  0  0  0  0  0  0  0  0  0
   47.8090   31.4410   48.8590 C   0  0  0  0  0  0  0  0  0  0  0  0
   49.0940   31.4280   49.3330 C   0  0  0  0  0  0  0  0  0  0  0  0
   49.6910   30.3630   48.7990 N   0  0  0  0  0  0  0  0  0  0  0  0
   48.7910   29.7320   48.0100 C   0  0  0  0  0  0  0  0  0  0  0  0
   45.1940   35.4160   43.0460 O   0  0  0  0  0  0  0  0  0  0  0  0
   44.1760   34.9790   42.1610 C   0  0  0  0  0  0  0  0  0  0  0  0
   43.4690   35.7570   41.2710 C   0  0  0  0  0  0  0  0  0  0  0  0
   42.5370   35.1410   40.5150 C   0  0  0  0  0  0  0  0  0  0  0  0
   42.2980   33.8200   40.6210 N   0  0  0  0  0  0  0  0  0  0  0  0
   42.9960   33.0560   41.5000 C   0  0  0  0  0  0  0  0  0  0  0  0
   43.9570   33.6470   42.2900 N   0  0  0  0  0  0  0  0  0  0  0  0
   42.7680   31.5810   41.6250 C   0  0  0  0  0  0  0  0  0  0  0  0
   43.7440   30.9330   42.5510 C   0  0  0  0  0  0  0  0  0  0  0  0
   41.3490   31.2760   42.0790 C   0  0  0  0  0  0  0  0  0  0  0  0
   48.8771   32.1490   43.1232 H   0  0  0  0  0  0  0  0  0  0  0  0
   48.1630   30.2795   44.5703 H   0  0  0  0  0  0  0  0  0  0  0  0
   43.9067   27.8420   46.8859 H   0  0  0  0  0  0  0  0  0  0  0  0
   45.8727   28.3121   48.6434 H   0  0  0  0  0  0  0  0  0  0  0  0
   47.0544   32.1991   49.1156 H   0  0  0  0  0  0  0  0  0  0  0  0
   49.5462   32.1566   50.0220 H   0  0  0  0  0  0  0  0  0  0  0  0
   48.9970   28.8172   47.4349 H   0  0  0  0  0  0  0  0  0  0  0  0
   43.6568   36.8371   41.1804 H   0  0  0  0  0  0  0  0  0  0  0  0
   41.9566   35.7336   39.7925 H   0  0  0  0  0  0  0  0  0  0  0  0
   42.9211   31.1597   40.6205 H   0  0  0  0  0  0  0  0  0  0  0  0
   43.4479   31.1296   43.5920 H   0  0  0  0  0  0  0  0  0  0  0  0
   43.7547   29.8478   42.3716 H   0  0  0  0  0  0  0  0  0  0  0  0
   44.7483   31.3443   42.3716 H   0  0  0  0  0  0  0  0  0  0  0  0
   41.3096   31.2675   43.1783 H   0  0  0  0  0  0  0  0  0  0  0  0
   40.6668   32.0480   41.6936 H   0  0  0  0  0  0  0  0  0  0  0  0
   41.0443   30.2918   41.6936 H   0  0  0  0  0  0  0  0  0  0  0  0
  1  7  1  0
  1  2  2  0
  3  4  2  0
  4  5  1  0
  5  9  1  0
  6  5  2  0
  7  6  1  0
  8  3  1  0
  8  7  2  0
  9 13  1  0
 10  9  1  0
 10 11  2  0
 11 12  1  0
 13 12  2  0
 13 14  1  0
 14 15  1  0
 15 16  2  0
 17 16  1  0
 18 14  1  0
 18 17  2  0
 19  1  1  0
 20 25  1  0
 20 19  1  0
 21 20  2  0
 22 23  2  0
 22 21  1  0
 23 24  1  0
 24 26  1  0
 24 25  2  0
 26 28  1  0
 26 27  1  0
  3 29  1  0
  4 30  1  0
 11 31  1  0
 12 32  1  0
 15 33  1  0
 16 34  1  0
 18 35  1  0
 21 36  1  0
 22 37  1  0
 26 38  1  0
 27 39  1  0
 27 40  1  0
 27 41  1  0
 28 42  1  0
 28 43  1  0
 28 44  1  0
M  ISO  8  29  14  30  14  31  14  32  14  33  14  34  14  35  14  36  14
M  ISO  8  37  14  38   8  39   8  40   8  41   8  42   8  43   8  44   8
M  END
>  <minimizedAffinity>  (1) 
-5.24209261

>  <minimizedRMSD>  (1) 
2.12754321

$$$$
