
     RDKit          3D

 51 54  0  0  0  0  0  0  0  0999 V2000
   48.2620   31.1870   43.6410 C   0  0  0  0  0  0  0  0  0  0  0  0
   47.7450   30.1650   44.4290 C   0  0  0  0  0  0  0  0  0  0  0  0
   46.5260   30.3710   45.0760 C   0  0  0  0  0  0  0  0  0  0  0  0
   45.9070   31.6010   44.8820 N   0  0  0  0  0  0  0  0  0  0  0  0
   46.4490   32.5600   44.1080 C   0  0  0  0  0  0  0  0  0  0  0  0
   47.6130   32.3620   43.4930 N   0  0  0  0  0  0  0  0  0  0  0  0
   45.9320   29.3750   45.8930 N   0  0  0  0  0  0  0  0  0  0  0  0
   45.5910   28.1750   45.4490 N   0  0  0  0  0  0  0  0  0  0  0  0
   45.0590   27.4520   46.4710 C   0  0  0  0  0  0  0  0  0  0  0  0
   45.1060   28.3050   47.5500 C   0  0  0  0  0  0  0  0  0  0  0  0
   45.6590   29.5310   47.1930 C   0  0  0  0  0  0  0  0  0  0  0  0
   45.8220   30.5740   48.1390 N   0  0  0  0  0  0  0  0  0  0  0  0
   47.0460   30.7920   48.9360 C   0  0  0  0  0  0  0  0  0  0  0  0
   47.7990   31.9040   48.2330 C   0  0  0  0  0  0  0  0  0  0  0  0
   46.8330   32.7940   47.6360 N   0  0  0  0  0  0  0  0  0  0  0  0
   45.5950   32.9110   48.3740 C   0  0  0  0  0  0  0  0  0  0  0  0
   44.8100   31.6100   48.4450 C   0  0  0  0  0  0  0  0  0  0  0  0
   45.7540   33.8280   43.9390 C   0  0  0  0  0  0  0  0  0  0  0  0
   45.2110   34.4680   44.8620 O   0  0  0  0  0  0  0  0  0  0  0  0
   45.6410   34.4340   42.6890 O   0  0  0  0  0  0  0  0  0  0  0  0
   44.3550   34.4610   42.0950 C   0  0  0  0  0  0  0  0  0  0  0  0
   43.7200   35.5610   41.5700 C   0  0  0  0  0  0  0  0  0  0  0  0
   42.4750   35.3650   41.0400 C   0  0  0  0  0  0  0  0  0  0  0  0
   41.8920   34.1640   41.0290 N   0  0  0  0  0  0  0  0  0  0  0  0
   42.5320   33.0830   41.5540 C   0  0  0  0  0  0  0  0  0  0  0  0
   43.7920   33.2440   42.0980 N   0  0  0  0  0  0  0  0  0  0  0  0
   41.9120   31.7170   41.5410 C   0  0  0  0  0  0  0  0  0  0  0  0
   42.6420   30.7440   42.4100 C   0  0  0  0  0  0  0  0  0  0  0  0
   40.4470   31.7710   41.9310 C   0  0  0  0  0  0  0  0  0  0  0  0
   49.2221   31.0350   43.1261 H   0  0  0  0  0  0  0  0  0  0  0  0
   48.2858   29.2136   44.5402 H   0  0  0  0  0  0  0  0  0  0  0  0
   44.6780   26.4205   46.4417 H   0  0  0  0  0  0  0  0  0  0  0  0
   44.7532   28.0513   48.5605 H   0  0  0  0  0  0  0  0  0  0  0  0
   46.7874   31.0926   49.9620 H   0  0  0  0  0  0  0  0  0  0  0  0
   47.6505   29.8761   49.0114 H   0  0  0  0  0  0  0  0  0  0  0  0
   48.4138   32.4550   48.9599 H   0  0  0  0  0  0  0  0  0  0  0  0
   48.4599   31.4859   47.4595 H   0  0  0  0  0  0  0  0  0  0  0  0
   47.2568   33.7302   47.5667 H   0  0  0  0  0  0  0  0  0  0  0  0
   45.8292   33.2336   49.3992 H   0  0  0  0  0  0  0  0  0  0  0  0
   44.9671   33.6410   47.8422 H   0  0  0  0  0  0  0  0  0  0  0  0
   43.9999   31.5993   47.7009 H   0  0  0  0  0  0  0  0  0  0  0  0
   44.3242   31.4573   49.4200 H   0  0  0  0  0  0  0  0  0  0  0  0
   44.1922   36.5545   41.5759 H   0  0  0  0  0  0  0  0  0  0  0  0
   41.9374   36.2228   40.6096 H   0  0  0  0  0  0  0  0  0  0  0  0
   41.9904   31.3558   40.5049 H   0  0  0  0  0  0  0  0  0  0  0  0
   42.4593   30.9876   43.4670 H   0  0  0  0  0  0  0  0  0  0  0  0
   42.2835   29.7252   42.2012 H   0  0  0  0  0  0  0  0  0  0  0  0
   43.7204   30.8032   42.2012 H   0  0  0  0  0  0  0  0  0  0  0  0
   40.3593   31.7742   43.0275 H   0  0  0  0  0  0  0  0  0  0  0  0
   39.9928   32.6865   41.5242 H   0  0  0  0  0  0  0  0  0  0  0  0
   39.9266   30.8914   41.5242 H   0  0  0  0  0  0  0  0  0  0  0  0
  1  2  2  0
  2  3  1  0
  3  7  1  0
  4  3  2  0
  5  4  1  0
  6  1  1  0
  6  5  2  0
  7 11  1  0
  8  7  1  0
  8  9  2  0
  9 10  1  0
 11 10  2  0
 11 12  1  0
 12 17  1  0
 12 13  1  0
 14 13  1  0
 15 14  1  0
 15 16  1  0
 16 17  1  0
 18  5  1  0
 18 19  2  0
 20 18  1  0
 21 26  1  0
 21 20  1  0
 22 21  2  0
 23 22  1  0
 24 23  2  0
 24 25  1  0
 25 26  2  0
 27 25  1  0
 27 29  1  0
 27 28  1  0
  1 30  1  0
  2 31  1  0
  9 32  1  0
 10 33  1  0
 13 34  1  0
 13 35  1  0
 14 36  1  0
 14 37  1  0
 15 38  1  0
 16 39  1  0
 16 40  1  0
 17 41  1  0
 17 42  1  0
 22 43  1  0
 23 44  1  0
 27 45  1  0
 28 46  1  0
 28 47  1  0
 28 48  1  0
 29 49  1  0
 29 50  1  0
 29 51  1  0
M  ISO  8  30  14  31  14  32  14  33  14  34  13  35  13  36  13  37  13
M  ISO  8  38   5  39  13  40  13  41  13  42  13  43  14  44  14  45   8
M  ISO  6  46   8  47   8  48   8  49   8  50   8  51   8
M  END
>  <minimizedAffinity>  (1) 
-5.24953318

>  <minimizedRMSD>  (1) 
2.71064639

$$$$
