
     RDKit          3D

 40 42  0  0  0  0  0  0  0  0999 V2000
   45.9270   34.7540   43.8500 O   0  0  0  0  0  0  0  0  0  0  0  0
   44.8830   34.7400   42.8910 C   0  0  0  0  0  0  0  0  0  0  0  0
   44.3750   35.8250   42.2090 C   0  0  0  0  0  0  0  0  0  0  0  0
   43.3720   35.5850   41.3290 C   0  0  0  0  0  0  0  0  0  0  0  0
   42.8910   34.3550   41.1250 N   0  0  0  0  0  0  0  0  0  0  0  0
   43.3940   33.2840   41.7980 C   0  0  0  0  0  0  0  0  0  0  0  0
   44.4130   33.4820   42.7020 N   0  0  0  0  0  0  0  0  0  0  0  0
   42.8870   31.8900   41.5750 C   0  0  0  0  0  0  0  0  0  0  0  0
   43.5040   30.9100   42.5090 C   0  0  0  0  0  0  0  0  0  0  0  0
   41.3690   31.8350   41.6710 C   0  0  0  0  0  0  0  0  0  0  0  0
   45.8590   33.8330   44.8980 C   0  0  0  0  0  0  0  0  0  0  0  0
   45.2430   34.2470   45.8910 O   0  0  0  0  0  0  0  0  0  0  0  0
   48.0810   31.1180   43.8590 C   0  0  0  0  0  0  0  0  0  0  0  0
   47.5990   30.0400   44.5700 C   0  0  0  0  0  0  0  0  0  0  0  0
   46.5090   30.2110   45.4200 C   0  0  0  0  0  0  0  0  0  0  0  0
   45.9690   31.4870   45.4950 N   0  0  0  0  0  0  0  0  0  0  0  0
   46.4740   32.5170   44.7770 C   0  0  0  0  0  0  0  0  0  0  0  0
   47.5210   32.3370   43.9650 N   0  0  0  0  0  0  0  0  0  0  0  0
   45.9700   29.1530   46.1820 N   0  0  0  0  0  0  0  0  0  0  0  0
   44.7140   28.7420   46.0880 N   0  0  0  0  0  0  0  0  0  0  0  0
   44.4950   27.7140   46.9320 C   0  0  0  0  0  0  0  0  0  0  0  0
   45.7100   27.5150   47.5600 C   0  0  0  0  0  0  0  0  0  0  0  0
   46.6430   28.4350   47.0790 C   0  0  0  0  0  0  0  0  0  0  0  0
   48.0190   28.4410   47.6100 C   0  0  0  0  0  0  0  0  0  0  0  0
   44.7660   36.8402   42.3716 H   0  0  0  0  0  0  0  0  0  0  0  0
   42.9418   36.4269   40.7668 H   0  0  0  0  0  0  0  0  0  0  0  0
   43.1842   31.6051   40.5550 H   0  0  0  0  0  0  0  0  0  0  0  0
   43.3092   31.2194   43.5464 H   0  0  0  0  0  0  0  0  0  0  0  0
   43.0695   29.9145   42.3356 H   0  0  0  0  0  0  0  0  0  0  0  0
   44.5896   30.8715   42.3356 H   0  0  0  0  0  0  0  0  0  0  0  0
   41.0687   31.8241   42.7292 H   0  0  0  0  0  0  0  0  0  0  0  0
   40.9381   32.7181   41.1766 H   0  0  0  0  0  0  0  0  0  0  0  0
   41.0031   30.9230   41.1766 H   0  0  0  0  0  0  0  0  0  0  0  0
   48.9429   30.9787   43.1898 H   0  0  0  0  0  0  0  0  0  0  0  0
   48.0717   29.0521   44.4669 H   0  0  0  0  0  0  0  0  0  0  0  0
   43.5586   27.1578   47.0864 H   0  0  0  0  0  0  0  0  0  0  0  0
   45.9111   26.7483   48.3227 H   0  0  0  0  0  0  0  0  0  0  0  0
   47.9877   28.4409   48.7096 H   0  0  0  0  0  0  0  0  0  0  0  0
   48.5517   27.5452   47.2582 H   0  0  0  0  0  0  0  0  0  0  0  0
   48.5438   29.3414   47.2582 H   0  0  0  0  0  0  0  0  0  0  0  0
  1 11  1  0
  2  1  1  0
  3  2  2  0
  4  3  1  0
  5  4  2  0
  5  6  1  0
  6  7  2  0
  7  2  1  0
  8 10  1  0
  8  6  1  0
  8  9  1  0
 11 12  2  0
 13 18  2  0
 13 14  1  0
 14 15  2  0
 15 16  1  0
 15 19  1  0
 17 11  1  0
 17 16  2  0
 18 17  1  0
 19 23  1  0
 20 19  1  0
 20 21  2  0
 21 22  1  0
 23 22  2  0
 23 24  1  0
  3 25  1  0
  4 26  1  0
  8 27  1  0
  9 28  1  0
  9 29  1  0
  9 30  1  0
 10 31  1  0
 10 32  1  0
 10 33  1  0
 13 34  1  0
 14 35  1  0
 21 36  1  0
 22 37  1  0
 24 38  1  0
 24 39  1  0
 24 40  1  0
M  ISO  8  25  14  26  14  27   8  28   8  29   8  30   8  31   8  32   8
M  ISO  8  33   8  34  14  35  14  36  14  37  14  38   8  39   8  40   8
M  END
>  <minimizedAffinity>  (1) 
-4.26000595

>  <minimizedRMSD>  (1) 
0.402578622

$$$$
