
     RDKit          3D

 49 51  0  0  0  0  0  0  0  0999 V2000
   45.4110   34.5430   44.4950 C   0  0  0  0  0  0  0  0  0  0  0  0
   44.8160   34.9670   45.4980 O   0  0  0  0  0  0  0  0  0  0  0  0
   47.9940   32.1100   43.5750 C   0  0  0  0  0  0  0  0  0  0  0  0
   47.6670   31.0280   44.3530 C   0  0  0  0  0  0  0  0  0  0  0  0
   46.5760   31.0850   45.2190 C   0  0  0  0  0  0  0  0  0  0  0  0
   45.8710   32.2770   45.2260 N   0  0  0  0  0  0  0  0  0  0  0  0
   46.2050   33.3290   44.4520 C   0  0  0  0  0  0  0  0  0  0  0  0
   47.2690   33.2510   43.6250 N   0  0  0  0  0  0  0  0  0  0  0  0
   46.2110   30.0090   46.0480 N   0  0  0  0  0  0  0  0  0  0  0  0
   44.9960   29.4960   46.0780 N   0  0  0  0  0  0  0  0  0  0  0  0
   44.9280   28.4580   46.9320 C   0  0  0  0  0  0  0  0  0  0  0  0
   46.2090   28.3690   47.4330 C   0  0  0  0  0  0  0  0  0  0  0  0
   47.0350   29.3660   46.8690 C   0  0  0  0  0  0  0  0  0  0  0  0
   48.4300   29.4640   47.3160 C   0  0  0  0  0  0  0  0  0  0  0  0
   49.4550   29.2330   46.2330 C   0  0  0  0  0  0  0  0  0  0  0  0
   48.7350   28.2500   48.2720 C   0  0  0  0  0  0  0  0  0  0  0  0
   48.7360   30.6360   48.2250 C   0  0  0  0  0  0  0  0  0  0  0  0
   45.2610   35.3450   43.3530 O   0  0  0  0  0  0  0  0  0  0  0  0
   44.2660   34.9690   42.4210 C   0  0  0  0  0  0  0  0  0  0  0  0
   43.5970   35.7960   41.5500 C   0  0  0  0  0  0  0  0  0  0  0  0
   42.6680   35.2130   40.7330 C   0  0  0  0  0  0  0  0  0  0  0  0
   42.4120   33.9030   40.7670 N   0  0  0  0  0  0  0  0  0  0  0  0
   43.0770   33.0980   41.6310 C   0  0  0  0  0  0  0  0  0  0  0  0
   44.0280   33.6400   42.4810 N   0  0  0  0  0  0  0  0  0  0  0  0
   42.8230   31.6160   41.6780 C   0  0  0  0  0  0  0  0  0  0  0  0
   43.7650   30.9080   42.5920 C   0  0  0  0  0  0  0  0  0  0  0  0
   41.3820   31.3230   42.0720 C   0  0  0  0  0  0  0  0  0  0  0  0
   48.8600   32.0486   42.8995 H   0  0  0  0  0  0  0  0  0  0  0  0
   48.2696   30.1097   44.2930 H   0  0  0  0  0  0  0  0  0  0  0  0
   44.0575   27.8302   47.1728 H   0  0  0  0  0  0  0  0  0  0  0  0
   46.5421   27.6240   48.1706 H   0  0  0  0  0  0  0  0  0  0  0  0
   50.4302   29.0132   46.6920 H   0  0  0  0  0  0  0  0  0  0  0  0
   49.1435   28.3825   45.6088 H   0  0  0  0  0  0  0  0  0  0  0  0
   49.5385   30.1349   45.6088 H   0  0  0  0  0  0  0  0  0  0  0  0
   48.6526   28.5779   49.3188 H   0  0  0  0  0  0  0  0  0  0  0  0
   48.0116   27.4433   48.0825 H   0  0  0  0  0  0  0  0  0  0  0  0
   49.7538   27.8810   48.0825 H   0  0  0  0  0  0  0  0  0  0  0  0
   48.6528   30.3175   49.2746 H   0  0  0  0  0  0  0  0  0  0  0  0
   49.7577   30.9940   48.0303 H   0  0  0  0  0  0  0  0  0  0  0  0
   48.0197   31.4478   48.0303 H   0  0  0  0  0  0  0  0  0  0  0  0
   43.7995   36.8765   41.5120 H   0  0  0  0  0  0  0  0  0  0  0  0
   42.1129   35.8447   40.0239 H   0  0  0  0  0  0  0  0  0  0  0  0
   42.9995   31.2318   40.6625 H   0  0  0  0  0  0  0  0  0  0  0  0
   43.4885   31.1158   43.6362 H   0  0  0  0  0  0  0  0  0  0  0  0
   43.7110   29.8250   42.4070 H   0  0  0  0  0  0  0  0  0  0  0  0
   44.7903   31.2609   42.4070 H   0  0  0  0  0  0  0  0  0  0  0  0
   41.2980   31.3059   43.1687 H   0  0  0  0  0  0  0  0  0  0  0  0
   40.7245   32.1058   41.6660 H   0  0  0  0  0  0  0  0  0  0  0  0
   41.0824   30.3456   41.6660 H   0  0  0  0  0  0  0  0  0  0  0  0
  1  2  2  0
  3  8  2  0
  3  4  1  0
  4  5  2  0
  5  6  1  0
  5  9  1  0
  7  1  1  0
  7  6  2  0
  8  7  1  0
  9 10  1  0
  9 13  1  0
 10 11  2  0
 11 12  1  0
 13 14  1  0
 13 12  2  0
 14 17  1  0
 14 16  1  0
 15 14  1  0
 18  1  1  0
 19 24  1  0
 19 18  1  0
 20 19  2  0
 21 22  2  0
 21 20  1  0
 22 23  1  0
 23 25  1  0
 23 24  2  0
 25 27  1  0
 25 26  1  0
  3 28  1  0
  4 29  1  0
 11 30  1  0
 12 31  1  0
 15 32  1  0
 15 33  1  0
 15 34  1  0
 16 35  1  0
 16 36  1  0
 16 37  1  0
 17 38  1  0
 17 39  1  0
 17 40  1  0
 20 41  1  0
 21 42  1  0
 25 43  1  0
 26 44  1  0
 26 45  1  0
 26 46  1  0
 27 47  1  0
 27 48  1  0
 27 49  1  0
M  ISO  8  28  14  29  14  30  14  31  14  32   8  33   8  34   8  35   8
M  ISO  8  36   8  37   8  38   8  39   8  40   8  41  14  42  14  43   8
M  ISO  6  44   8  45   8  46   8  47   8  48   8  49   8
M  END
>  <minimizedAffinity>  (1) 
-4.58814859

>  <minimizedRMSD>  (1) 
1.21480119

$$$$
