
     RDKit          3D

 33 35  0  0  0  0  0  0  0  0999 V2000
   44.7380   33.9770   47.1260 C   0  0  0  0  0  0  0  0  0  0  0  0
   45.0220   34.3770   45.8020 C   0  0  0  0  0  0  0  0  0  0  0  0
   46.0710   33.7870   45.1400 C   0  0  0  0  0  0  0  0  0  0  0  0
   46.7930   32.8400   45.7880 N   0  0  0  0  0  0  0  0  0  0  0  0
   46.5090   32.4610   47.0680 C   0  0  0  0  0  0  0  0  0  0  0  0
   45.5010   33.0200   47.7210 N   0  0  0  0  0  0  0  0  0  0  0  0
   47.3290   31.4630   47.6470 N   0  0  0  0  0  0  0  0  0  0  0  0
   48.2520   31.8970   48.5420 C   0  0  0  0  0  0  0  0  0  0  0  0
   49.1220   31.0430   49.1880 C   0  0  0  0  0  0  0  0  0  0  0  0
   50.1140   31.6030   50.1640 C   0  0  0  0  0  0  0  0  0  0  0  0
   49.0420   29.6850   48.9040 C   0  0  0  0  0  0  0  0  0  0  0  0
   49.8110   28.8890   49.4690 O   0  0  0  0  0  0  0  0  0  0  0  0
   48.1050   29.3270   48.0090 N   0  0  0  0  0  0  0  0  0  0  0  0
   47.2570   30.1490   47.3770 C   0  0  0  0  0  0  0  0  0  0  0  0
   46.4030   29.7630   46.5530 O   0  0  0  0  0  0  0  0  0  0  0  0
   46.4060   34.1540   43.7940 C   0  0  0  0  0  0  0  0  0  0  0  0
   45.5170   34.2570   42.7340 C   0  0  0  0  0  0  0  0  0  0  0  0
   46.2620   34.6380   41.6230 C   0  0  0  0  0  0  0  0  0  0  0  0
   47.5430   34.7450   42.0630 N   0  0  0  0  0  0  0  0  0  0  0  0
   47.6390   34.4610   43.3440 N   0  0  0  0  0  0  0  0  0  0  0  0
   48.6830   35.1250   41.2330 C   0  0  0  0  0  0  0  0  0  0  0  0
   49.1230   36.3690   41.6390 F   0  0  0  0  0  0  0  0  0  0  0  0
   48.3720   35.1470   39.8970 F   0  0  0  0  0  0  0  0  0  0  0  0
   49.7230   34.1870   41.4030 F   0  0  0  0  0  0  0  0  0  0  0  0
   43.9030   34.4373   47.6746 H   0  0  0  0  0  0  0  0  0  0  0  0
   44.4129   35.1487   45.3086 H   0  0  0  0  0  0  0  0  0  0  0  0
   48.3089   32.9734   48.7614 H   0  0  0  0  0  0  0  0  0  0  0  0
   49.7689   31.4082   51.1901 H   0  0  0  0  0  0  0  0  0  0  0  0
   51.0918   31.1236   50.0088 H   0  0  0  0  0  0  0  0  0  0  0  0
   50.2088   32.6879   50.0088 H   0  0  0  0  0  0  0  0  0  0  0  0
   48.0321   28.3237   47.7879 H   0  0  0  0  0  0  0  0  0  0  0  0
   44.4330   34.0730   42.7660 H   0  0  0  0  0  0  0  0  0  0  0  0
   45.8918   34.8154   40.6025 H   0  0  0  0  0  0  0  0  0  0  0  0
  1  6  2  0
  2  1  1  0
  3  4  1  0
  3  2  2  0
  4  5  2  0
  5  7  1  0
  5  6  1  0
  7  8  1  0
  8  9  2  0
  9 10  1  0
 11  9  1  0
 11 12  2  0
 13 11  1  0
 14  7  1  0
 14 13  1  0
 15 14  2  0
 16  3  1  0
 17 16  1  0
 18 19  1  0
 18 17  2  0
 19 20  1  0
 20 16  2  0
 21 24  1  0
 21 22  1  0
 21 19  1  0
 23 21  1  0
  1 25  1  0
  2 26  1  0
  8 27  1  0
 10 28  1  0
 10 29  1  0
 10 30  1  0
 13 31  1  0
 17 32  1  0
 18 33  1  0
M  ISO  8  25  14  26  14  27  14  28   8  29   8  30   8  31   9  32  14
M  ISO  1  33  14
M  END
>  <minimizedAffinity>  (1) 
-6.6811862

>  <minimizedRMSD>  (1) 
2.5233202

$$$$
