
     RDKit          3D

 33 36  0  0  0  0  0  0  0  0999 V2000
   44.8010   33.9800   47.0640 C   0  0  0  0  0  0  0  0  0  0  0  0
   45.1130   34.4970   45.7750 C   0  0  0  0  0  0  0  0  0  0  0  0
   45.9650   33.7490   44.9970 C   0  0  0  0  0  0  0  0  0  0  0  0
   46.4620   32.5750   45.4800 N   0  0  0  0  0  0  0  0  0  0  0  0
   46.1360   32.1180   46.7190 C   0  0  0  0  0  0  0  0  0  0  0  0
   45.3190   32.8070   47.5000 N   0  0  0  0  0  0  0  0  0  0  0  0
   46.7750   30.8600   47.0200 N   0  0  0  0  0  0  0  0  0  0  0  0
   46.5880   29.6130   46.5440 C   0  0  0  0  0  0  0  0  0  0  0  0
   47.4630   28.8180   47.1790 N   0  0  0  0  0  0  0  0  0  0  0  0
   48.2020   29.5410   48.0520 C   0  0  0  0  0  0  0  0  0  0  0  0
   49.2150   29.2280   48.9330 C   0  0  0  0  0  0  0  0  0  0  0  0
   49.7610   30.1890   49.6800 N   0  0  0  0  0  0  0  0  0  0  0  0
   49.3490   31.4670   49.5980 C   0  0  0  0  0  0  0  0  0  0  0  0
   48.3610   31.7800   48.7400 N   0  0  0  0  0  0  0  0  0  0  0  0
   47.7600   30.8610   47.9520 C   0  0  0  0  0  0  0  0  0  0  0  0
   46.3390   34.1940   43.6720 C   0  0  0  0  0  0  0  0  0  0  0  0
   45.4830   34.3830   42.6150 C   0  0  0  0  0  0  0  0  0  0  0  0
   46.2510   34.8070   41.5430 C   0  0  0  0  0  0  0  0  0  0  0  0
   47.5130   34.8520   42.0050 N   0  0  0  0  0  0  0  0  0  0  0  0
   47.5730   34.4890   43.2670 N   0  0  0  0  0  0  0  0  0  0  0  0
   48.6970   35.2470   41.2400 C   0  0  0  0  0  0  0  0  0  0  0  0
   49.1150   36.4840   41.6600 F   0  0  0  0  0  0  0  0  0  0  0  0
   48.4350   35.2890   39.8930 F   0  0  0  0  0  0  0  0  0  0  0  0
   49.7170   34.2990   41.4120 F   0  0  0  0  0  0  0  0  0  0  0  0
   49.6750   27.8870   49.0470 N   0  0  0  0  0  0  0  0  0  0  0  0
   44.1239   34.5459   47.7208 H   0  0  0  0  0  0  0  0  0  0  0  0
   44.6928   35.4490   45.4185 H   0  0  0  0  0  0  0  0  0  0  0  0
   45.8578   29.3057   45.7809 H   0  0  0  0  0  0  0  0  0  0  0  0
   49.8129   32.2443   50.2230 H   0  0  0  0  0  0  0  0  0  0  0  0
   44.3941   34.2273   42.6189 H   0  0  0  0  0  0  0  0  0  0  0  0
   45.9026   35.0543   40.5294 H   0  0  0  0  0  0  0  0  0  0  0  0
   50.4321   27.6565   49.7063 H   0  0  0  0  0  0  0  0  0  0  0  0
   49.2510   27.1463   48.4703 H   0  0  0  0  0  0  0  0  0  0  0  0
  1  6  2  0
  2  1  1  0
  3  4  1  0
  3  2  2  0
  4  5  2  0
  5  7  1  0
  5  6  1  0
  7 15  1  0
  8  7  1  0
  8  9  2  0
  9 10  1  0
 10 11  2  0
 11 25  1  0
 11 12  1  0
 13 12  2  0
 14 13  1  0
 15 10  1  0
 15 14  2  0
 16  3  1  0
 17 16  1  0
 18 19  1  0
 18 17  2  0
 19 20  1  0
 20 16  2  0
 21 24  1  0
 21 22  1  0
 21 19  1  0
 23 21  1  0
  1 26  1  0
  2 27  1  0
  8 28  1  0
 13 29  1  0
 17 30  1  0
 18 31  1  0
 25 32  1  0
 25 33  1  0
M  ISO  6  26  14  27  14  28  14  29  14  30  14  31  14
M  END
>  <minimizedAffinity>  (1) 
-6.72264338

>  <minimizedRMSD>  (1) 
2.53530407

$$$$
