
     RDKit          3D

 36 39  0  0  0  0  0  0  0  0999 V2000
   44.4220   36.0430   44.9160 C   0  0  0  0  0  0  0  0  0  0  0  0
   44.7720   35.8110   43.5500 C   0  0  0  0  0  0  0  0  0  0  0  0
   45.4080   34.6270   43.2970 C   0  0  0  0  0  0  0  0  0  0  0  0
   45.6430   33.8050   44.3360 N   0  0  0  0  0  0  0  0  0  0  0  0
   45.3150   34.0190   45.6240 C   0  0  0  0  0  0  0  0  0  0  0  0
   44.7010   35.1580   45.8830 N   0  0  0  0  0  0  0  0  0  0  0  0
   45.7230   32.9120   46.4830 C   0  0  0  0  0  0  0  0  0  0  0  0
   45.2960   32.7940   47.7830 C   0  0  0  0  0  0  0  0  0  0  0  0
   45.6520   31.7750   48.6240 C   0  0  0  0  0  0  0  0  0  0  0  0
   46.4910   30.7740   48.1910 C   0  0  0  0  0  0  0  0  0  0  0  0
   46.9540   30.8380   46.8970 C   0  0  0  0  0  0  0  0  0  0  0  0
   47.7920   29.8350   46.4710 C   0  0  0  0  0  0  0  0  0  0  0  0
   48.2920   29.8370   45.1860 C   0  0  0  0  0  0  0  0  0  0  0  0
   47.9070   30.8910   44.3600 C   0  0  0  0  0  0  0  0  0  0  0  0
   47.0660   31.8700   44.8320 C   0  0  0  0  0  0  0  0  0  0  0  0
   46.5570   31.8890   46.1050 C   0  0  0  0  0  0  0  0  0  0  0  0
   45.8180   34.2660   41.9620 C   0  0  0  0  0  0  0  0  0  0  0  0
   45.1250   33.5030   41.0650 C   0  0  0  0  0  0  0  0  0  0  0  0
   45.8820   33.4050   39.9100 C   0  0  0  0  0  0  0  0  0  0  0  0
   46.9990   34.1200   40.1750 N   0  0  0  0  0  0  0  0  0  0  0  0
   46.9790   34.6350   41.3780 N   0  0  0  0  0  0  0  0  0  0  0  0
   48.1210   34.3150   39.2420 C   0  0  0  0  0  0  0  0  0  0  0  0
   48.7850   35.4720   39.5770 F   0  0  0  0  0  0  0  0  0  0  0  0
   47.6970   34.3620   37.9450 F   0  0  0  0  0  0  0  0  0  0  0  0
   48.9980   33.2130   39.3380 F   0  0  0  0  0  0  0  0  0  0  0  0
   43.9071   36.9779   45.1823 H   0  0  0  0  0  0  0  0  0  0  0  0
   44.5450   36.5365   42.7549 H   0  0  0  0  0  0  0  0  0  0  0  0
   44.6226   33.5708   48.1744 H   0  0  0  0  0  0  0  0  0  0  0  0
   45.2648   31.7559   49.6534 H   0  0  0  0  0  0  0  0  0  0  0  0
   46.7822   29.9492   48.8580 H   0  0  0  0  0  0  0  0  0  0  0  0
   48.0661   29.0236   47.1613 H   0  0  0  0  0  0  0  0  0  0  0  0
   48.9642   29.0427   44.8292 H   0  0  0  0  0  0  0  0  0  0  0  0
   48.2779   30.9397   43.3255 H   0  0  0  0  0  0  0  0  0  0  0  0
   46.7850   32.6854   44.1492 H   0  0  0  0  0  0  0  0  0  0  0  0
   44.1382   33.0464   41.2315 H   0  0  0  0  0  0  0  0  0  0  0  0
   45.6312   32.8663   38.9843 H   0  0  0  0  0  0  0  0  0  0  0  0
  1  6  2  0
  2  1  1  0
  3  2  2  0
  3  4  1  0
  4  5  2  0
  5  6  1  0
  5  7  1  0
  7  8  2  0
  8  9  1  0
 10  9  2  0
 11 10  1  0
 12 11  2  0
 13 12  1  0
 14 15  1  0
 14 13  2  0
 15 16  2  0
 16  7  1  0
 16 11  1  0
 17  3  1  0
 18 17  1  0
 19 20  1  0
 19 18  2  0
 20 21  1  0
 21 17  2  0
 22 25  1  0
 22 23  1  0
 22 20  1  0
 24 22  1  0
  1 26  1  0
  2 27  1  0
  8 28  1  0
  9 29  1  0
 10 30  1  0
 12 31  1  0
 13 32  1  0
 14 33  1  0
 15 34  1  0
 18 35  1  0
 19 36  1  0
M  ISO  8  26  14  27  14  28  14  29  14  30  14  31  14  32  14  33  14
M  ISO  3  34  14  35  14  36  14
M  END
>  <minimizedAffinity>  (1) 
-6.71113205

>  <minimizedRMSD>  (1) 
0.249724507

$$$$
