
     RDKit          3D

 30 32  0  0  0  0  0  0  0  0999 V2000
   44.4000   35.8910   44.9310 C   0  0  0  0  0  0  0  0  0  0  0  0
   44.7540   35.6560   43.5790 C   0  0  0  0  0  0  0  0  0  0  0  0
   45.4810   34.5210   43.2980 C   0  0  0  0  0  0  0  0  0  0  0  0
   45.8180   33.6940   44.3210 N   0  0  0  0  0  0  0  0  0  0  0  0
   45.4640   33.9470   45.6060 C   0  0  0  0  0  0  0  0  0  0  0  0
   44.7610   35.0370   45.9120 N   0  0  0  0  0  0  0  0  0  0  0  0
   45.8780   32.9910   46.6310 C   0  0  0  0  0  0  0  0  0  0  0  0
   45.1270   32.8790   47.7970 C   0  0  0  0  0  0  0  0  0  0  0  0
   45.5340   31.9600   48.7710 C   0  0  0  0  0  0  0  0  0  0  0  0
   46.6620   31.1890   48.5590 C   0  0  0  0  0  0  0  0  0  0  0  0
   47.3930   31.3210   47.3910 C   0  0  0  0  0  0  0  0  0  0  0  0
   47.0110   32.2240   46.4090 C   0  0  0  0  0  0  0  0  0  0  0  0
   45.8790   34.2110   41.9520 C   0  0  0  0  0  0  0  0  0  0  0  0
   45.1390   33.4840   41.0380 C   0  0  0  0  0  0  0  0  0  0  0  0
   45.8870   33.4190   39.8670 C   0  0  0  0  0  0  0  0  0  0  0  0
   47.0210   34.1050   40.1490 N   0  0  0  0  0  0  0  0  0  0  0  0
   47.0200   34.5690   41.3670 N   0  0  0  0  0  0  0  0  0  0  0  0
   48.1250   34.3070   39.2020 C   0  0  0  0  0  0  0  0  0  0  0  0
   48.7870   35.4750   39.5340 F   0  0  0  0  0  0  0  0  0  0  0  0
   47.6930   34.3850   37.9090 F   0  0  0  0  0  0  0  0  0  0  0  0
   49.0240   33.2250   39.2840 F   0  0  0  0  0  0  0  0  0  0  0  0
   43.8183   36.7890   45.1865 H   0  0  0  0  0  0  0  0  0  0  0  0
   44.4586   36.3552   42.7828 H   0  0  0  0  0  0  0  0  0  0  0  0
   44.2320   33.4999   47.9501 H   0  0  0  0  0  0  0  0  0  0  0  0
   44.9584   31.8515   49.7021 H   0  0  0  0  0  0  0  0  0  0  0  0
   46.9807   30.4656   49.3239 H   0  0  0  0  0  0  0  0  0  0  0  0
   48.2892   30.7015   47.2391 H   0  0  0  0  0  0  0  0  0  0  0  0
   47.5912   32.3282   45.4803 H   0  0  0  0  0  0  0  0  0  0  0  0
   44.1463   33.0407   41.2052 H   0  0  0  0  0  0  0  0  0  0  0  0
   45.6181   32.9219   38.9233 H   0  0  0  0  0  0  0  0  0  0  0  0
  1  6  2  0
  2  1  1  0
  3  2  2  0
  3  4  1  0
  4  5  2  0
  5  6  1  0
  5  7  1  0
  7  8  2  0
  8  9  1  0
 10  9  2  0
 11 10  1  0
 12  7  1  0
 12 11  2  0
 13  3  1  0
 14 13  1  0
 15 16  1  0
 15 14  2  0
 16 17  1  0
 17 13  2  0
 18 21  1  0
 18 19  1  0
 18 16  1  0
 20 18  1  0
  1 22  1  0
  2 23  1  0
  8 24  1  0
  9 25  1  0
 10 26  1  0
 11 27  1  0
 12 28  1  0
 14 29  1  0
 15 30  1  0
M  ISO  8  22  14  23  14  24  14  25  14  26  14  27  14  28  14  29  14
M  ISO  1  30  14
M  END
>  <minimizedAffinity>  (1) 
-6.19575548

>  <minimizedRMSD>  (1) 
0.161784381

$$$$
