
     RDKit          3D

 27 28  0  0  0  0  0  0  0  0999 V2000
   44.5700   35.8840   44.3490 C   0  0  0  0  0  0  0  0  0  0  0  0
   44.9150   35.6240   43.0050 C   0  0  0  0  0  0  0  0  0  0  0  0
   45.5210   34.4230   42.7280 C   0  0  0  0  0  0  0  0  0  0  0  0
   45.7600   33.5460   43.7530 N   0  0  0  0  0  0  0  0  0  0  0  0
   45.4190   33.8200   45.0300 C   0  0  0  0  0  0  0  0  0  0  0  0
   44.8250   34.9920   45.3200 N   0  0  0  0  0  0  0  0  0  0  0  0
   45.6890   32.8750   46.0590 N   0  0  0  0  0  0  0  0  0  0  0  0
   45.3140   33.2030   47.3930 C   0  0  0  0  0  0  0  0  0  0  0  0
   44.4030   34.0740   47.6720 N   0  0  0  0  0  0  0  0  0  0  0  0
   45.9570   32.5560   48.4850 N   0  0  0  0  0  0  0  0  0  0  0  0
   44.1190   34.3240   48.6350 H   0  0  0  0  0  0  0  0  0  0  0  0
   45.9060   34.0750   41.3850 C   0  0  0  0  0  0  0  0  0  0  0  0
   45.1930   33.2790   40.5130 C   0  0  0  0  0  0  0  0  0  0  0  0
   45.9360   33.2130   39.3350 C   0  0  0  0  0  0  0  0  0  0  0  0
   47.0330   33.9580   39.5610 N   0  0  0  0  0  0  0  0  0  0  0  0
   47.0320   34.4730   40.7660 N   0  0  0  0  0  0  0  0  0  0  0  0
   48.1160   34.1830   38.5910 C   0  0  0  0  0  0  0  0  0  0  0  0
   48.8010   35.3210   38.9550 F   0  0  0  0  0  0  0  0  0  0  0  0
   47.6380   34.3310   37.3170 F   0  0  0  0  0  0  0  0  0  0  0  0
   48.9780   33.0850   38.5920 F   0  0  0  0  0  0  0  0  0  0  0  0
   44.0827   36.8361   44.6060 H   0  0  0  0  0  0  0  0  0  0  0  0
   44.7065   36.3552   42.2101 H   0  0  0  0  0  0  0  0  0  0  0  0
   46.1442   31.9763   45.8443 H   0  0  0  0  0  0  0  0  0  0  0  0
   45.6896   32.7895   49.4519 H   0  0  0  0  0  0  0  0  0  0  0  0
   46.6899   31.8541   48.3086 H   0  0  0  0  0  0  0  0  0  0  0  0
   44.2266   32.7913   40.7087 H   0  0  0  0  0  0  0  0  0  0  0  0
   45.6793   32.6671   38.4152 H   0  0  0  0  0  0  0  0  0  0  0  0
  1  6  2  0
  2  1  1  0
  3  2  2  0
  3  4  1  0
  4  5  2  0
  5  6  1  0
  5  7  1  0
  7  8  1  0
  8  9  2  0
  8 10  1  0
  9 11  1  0
 12  3  1  0
 13 12  1  0
 14 15  1  0
 14 13  2  0
 15 16  1  0
 16 12  2  0
 17 20  1  0
 17 18  1  0
 17 15  1  0
 19 17  1  0
  1 21  1  0
  2 22  1  0
  7 23  1  0
 10 24  1  0
 10 25  1  0
 13 26  1  0
 14 27  1  0
M  ISO  4  21  14  22  14  26  14  27  14
M  END
>  <minimizedAffinity>  (1) 
-6.32033682

>  <minimizedRMSD>  (1) 
0.564101815

$$$$
