
     RDKit          3D

 29 31  0  0  0  0  0  0  0  0999 V2000
   44.3720   35.8030   44.9930 C   0  0  0  0  0  0  0  0  0  0  0  0
   44.7150   35.5920   43.6360 C   0  0  0  0  0  0  0  0  0  0  0  0
   45.4850   34.4770   43.3300 C   0  0  0  0  0  0  0  0  0  0  0  0
   45.8720   33.6440   44.3500 N   0  0  0  0  0  0  0  0  0  0  0  0
   45.5170   33.8900   45.6310 C   0  0  0  0  0  0  0  0  0  0  0  0
   44.7820   34.9450   45.9550 N   0  0  0  0  0  0  0  0  0  0  0  0
   45.8720   34.2000   41.9740 C   0  0  0  0  0  0  0  0  0  0  0  0
   45.1080   33.5290   41.0390 C   0  0  0  0  0  0  0  0  0  0  0  0
   45.8540   33.4820   39.8710 C   0  0  0  0  0  0  0  0  0  0  0  0
   47.0190   34.1230   40.1680 N   0  0  0  0  0  0  0  0  0  0  0  0
   47.0260   34.5450   41.4070 N   0  0  0  0  0  0  0  0  0  0  0  0
   48.1190   34.3190   39.2310 C   0  0  0  0  0  0  0  0  0  0  0  0
   48.7770   35.4800   39.5620 F   0  0  0  0  0  0  0  0  0  0  0  0
   47.6850   34.3810   37.9290 F   0  0  0  0  0  0  0  0  0  0  0  0
   49.0070   33.2290   39.3160 F   0  0  0  0  0  0  0  0  0  0  0  0
   45.9600   32.9650   46.6690 C   0  0  0  0  0  0  0  0  0  0  0  0
   45.2080   32.7820   47.8100 C   0  0  0  0  0  0  0  0  0  0  0  0
   45.5180   31.9390   48.8600 C   0  0  0  0  0  0  0  0  0  0  0  0
   46.6990   31.2290   48.7210 C   0  0  0  0  0  0  0  0  0  0  0  0
   47.4530   31.4120   47.5780 C   0  0  0  0  0  0  0  0  0  0  0  0
   47.0900   32.2550   46.5850 N   0  0  0  0  0  0  0  0  0  0  0  0
   43.7636   36.6768   45.2691 H   0  0  0  0  0  0  0  0  0  0  0  0
   44.3832   36.2871   42.8507 H   0  0  0  0  0  0  0  0  0  0  0  0
   44.1015   33.1122   41.1916 H   0  0  0  0  0  0  0  0  0  0  0  0
   45.5672   33.0258   38.9120 H   0  0  0  0  0  0  0  0  0  0  0  0
   44.2758   33.3601   47.8920 H   0  0  0  0  0  0  0  0  0  0  0  0
   44.8719   31.8388   49.7446 H   0  0  0  0  0  0  0  0  0  0  0  0
   47.0302   30.5328   49.5056 H   0  0  0  0  0  0  0  0  0  0  0  0
   48.3905   30.8467   47.4709 H   0  0  0  0  0  0  0  0  0  0  0  0
  1  6  2  0
  2  1  1  0
  3  2  2  0
  3  4  1  0
  4  5  2  0
  5  6  1  0
  5 16  1  0
  7  3  1  0
  8  7  1  0
  9 10  1  0
  9  8  2  0
 10 11  1  0
 11  7  2  0
 12 15  1  0
 12 13  1  0
 12 10  1  0
 14 12  1  0
 16 17  2  0
 17 18  1  0
 19 18  2  0
 20 19  1  0
 21 16  1  0
 21 20  2  0
  1 22  1  0
  2 23  1  0
  8 24  1  0
  9 25  1  0
 17 26  1  0
 18 27  1  0
 19 28  1  0
 20 29  1  0
M  ISO  8  22  14  23  14  24  14  25  14  26  14  27  14  28  14  29  14
M  END
>  <minimizedAffinity>  (1) 
-6.14870548

>  <minimizedRMSD>  (1) 
0.348120958

$$$$
