
     RDKit          3D

 36 38  0  0  0  0  0  0  0  0999 V2000
   44.4440   35.5490   45.6230 C   0  0  0  0  0  0  0  0  0  0  0  0
   44.7820   35.4850   44.2540 C   0  0  0  0  0  0  0  0  0  0  0  0
   45.4630   34.3700   43.8110 C   0  0  0  0  0  0  0  0  0  0  0  0
   45.7740   33.3850   44.7130 N   0  0  0  0  0  0  0  0  0  0  0  0
   45.4320   33.4790   46.0270 C   0  0  0  0  0  0  0  0  0  0  0  0
   44.7680   34.5610   46.4740 N   0  0  0  0  0  0  0  0  0  0  0  0
   45.8430   34.2290   42.4350 C   0  0  0  0  0  0  0  0  0  0  0  0
   45.0490   33.7740   41.4140 C   0  0  0  0  0  0  0  0  0  0  0  0
   45.8100   33.7980   40.2540 C   0  0  0  0  0  0  0  0  0  0  0  0
   47.0180   34.2660   40.6380 N   0  0  0  0  0  0  0  0  0  0  0  0
   47.0510   34.5220   41.9150 N   0  0  0  0  0  0  0  0  0  0  0  0
   48.1740   34.4720   39.7490 C   0  0  0  0  0  0  0  0  0  0  0  0
   48.7640   35.6710   40.0530 F   0  0  0  0  0  0  0  0  0  0  0  0
   47.8040   34.4590   38.4270 F   0  0  0  0  0  0  0  0  0  0  0  0
   49.1030   33.4370   39.9360 F   0  0  0  0  0  0  0  0  0  0  0  0
   45.7820   32.4060   46.9590 C   0  0  0  0  0  0  0  0  0  0  0  0
   47.2730   32.5250   47.2760 C   0  0  0  0  0  0  0  0  0  0  0  0
   47.6560   31.2010   47.9220 C   0  0  0  0  0  0  0  0  0  0  0  0
   46.9430   31.0570   49.2250 C   0  0  0  0  0  0  0  0  0  0  0  0
   45.4640   31.2010   49.0480 C   0  0  0  0  0  0  0  0  0  0  0  0
   45.0670   32.4420   48.2710 C   0  0  0  0  0  0  0  0  0  0  0  0
   43.9026   36.4284   46.0020 H   0  0  0  0  0  0  0  0  0  0  0  0
   44.5114   36.2972   43.5633 H   0  0  0  0  0  0  0  0  0  0  0  0
   44.0014   33.4496   41.4989 H   0  0  0  0  0  0  0  0  0  0  0  0
   45.4978   33.5007   39.2420 H   0  0  0  0  0  0  0  0  0  0  0  0
   45.4934   31.4708   46.4568 H   0  0  0  0  0  0  0  0  0  0  0  0
   47.8510   32.6847   46.3538 H   0  0  0  0  0  0  0  0  0  0  0  0
   47.4838   33.3787   47.9369 H   0  0  0  0  0  0  0  0  0  0  0  0
   47.3727   30.3728   47.2558 H   0  0  0  0  0  0  0  0  0  0  0  0
   48.7421   31.1786   48.0946 H   0  0  0  0  0  0  0  0  0  0  0  0
   47.1596   30.0638   49.6453 H   0  0  0  0  0  0  0  0  0  0  0  0
   47.2925   31.8486   49.9042 H   0  0  0  0  0  0  0  0  0  0  0  0
   45.0899   30.3180   48.5091 H   0  0  0  0  0  0  0  0  0  0  0  0
   45.0247   31.2930   50.0523 H   0  0  0  0  0  0  0  0  0  0  0  0
   45.3572   33.3432   48.8310 H   0  0  0  0  0  0  0  0  0  0  0  0
   43.9783   32.4668   48.1154 H   0  0  0  0  0  0  0  0  0  0  0  0
  1  6  2  0
  2  1  1  0
  3  2  2  0
  3  4  1  0
  4  5  2  0
  5  6  1  0
  5 16  1  0
  7  3  1  0
  8  7  1  0
  9 10  1  0
  9  8  2  0
 10 11  1  0
 11  7  2  0
 12 15  1  0
 12 13  1  0
 12 10  1  0
 14 12  1  0
 16 17  1  0
 16 21  1  0
 17 18  1  0
 18 19  1  0
 20 19  1  0
 21 20  1  0
  1 22  1  0
  2 23  1  0
  8 24  1  0
  9 25  1  0
 16 26  1  0
 17 27  1  0
 17 28  1  0
 18 29  1  0
 18 30  1  0
 19 31  1  0
 19 32  1  0
 20 33  1  0
 20 34  1  0
 21 35  1  0
 21 36  1  0
M  ISO  8  22  14  23  14  24  14  25  14  26  13  27  13  28  13  29  13
M  ISO  7  30  13  31  13  32  13  33  13  34  13  35  13  36  13
M  END
>  <minimizedAffinity>  (1) 
-6.06194735

>  <minimizedRMSD>  (1) 
0.758515239

$$$$
