
     RDKit          3D

 33 35  0  0  0  0  0  0  0  0999 V2000
   44.3610   35.3140   46.0990 C   0  0  0  0  0  0  0  0  0  0  0  0
   44.7820   35.3970   44.7500 C   0  0  0  0  0  0  0  0  0  0  0  0
   45.5890   34.3780   44.2700 C   0  0  0  0  0  0  0  0  0  0  0  0
   45.9270   33.3700   45.1090 N   0  0  0  0  0  0  0  0  0  0  0  0
   45.5120   33.3120   46.3950 C   0  0  0  0  0  0  0  0  0  0  0  0
   44.7280   34.2880   46.8860 N   0  0  0  0  0  0  0  0  0  0  0  0
   46.0570   34.3880   42.9140 C   0  0  0  0  0  0  0  0  0  0  0  0
   45.3300   34.0550   41.7970 C   0  0  0  0  0  0  0  0  0  0  0  0
   46.1580   34.2010   40.6920 C   0  0  0  0  0  0  0  0  0  0  0  0
   47.3350   34.6140   41.2020 N   0  0  0  0  0  0  0  0  0  0  0  0
   47.2860   34.7280   42.5120 N   0  0  0  0  0  0  0  0  0  0  0  0
   48.5450   34.9100   40.4210 C   0  0  0  0  0  0  0  0  0  0  0  0
   49.0200   36.1400   40.7740 F   0  0  0  0  0  0  0  0  0  0  0  0
   48.2990   34.8770   39.0740 F   0  0  0  0  0  0  0  0  0  0  0  0
   49.5140   33.9320   40.6730 F   0  0  0  0  0  0  0  0  0  0  0  0
   45.9530   32.1620   47.1910 C   0  0  0  0  0  0  0  0  0  0  0  0
   45.0200   31.7410   48.2790 C   0  0  0  0  0  0  0  0  0  0  0  0
   45.9140   31.0380   49.3070 C   0  0  0  0  0  0  0  0  0  0  0  0
   47.3200   31.0900   48.7160 C   0  0  0  0  0  0  0  0  0  0  0  0
   47.2260   32.4280   47.9700 C   0  0  0  0  0  0  0  0  0  0  0  0
   43.7196   36.1064   46.5122 H   0  0  0  0  0  0  0  0  0  0  0  0
   44.4803   36.2376   44.1079 H   0  0  0  0  0  0  0  0  0  0  0  0
   44.2791   33.7305   41.7809 H   0  0  0  0  0  0  0  0  0  0  0  0
   45.9088   34.0200   39.6360 H   0  0  0  0  0  0  0  0  0  0  0  0
   46.0493   31.3994   46.4041 H   0  0  0  0  0  0  0  0  0  0  0  0
   44.5269   32.6160   48.7275 H   0  0  0  0  0  0  0  0  0  0  0  0
   44.2169   31.0867   47.9089 H   0  0  0  0  0  0  0  0  0  0  0  0
   45.8812   31.5656   50.2716 H   0  0  0  0  0  0  0  0  0  0  0  0
   45.5865   30.0056   49.4991 H   0  0  0  0  0  0  0  0  0  0  0  0
   48.0941   31.1083   49.4973 H   0  0  0  0  0  0  0  0  0  0  0  0
   47.6022   30.2255   48.0972 H   0  0  0  0  0  0  0  0  0  0  0  0
   48.0891   32.5955   47.3089 H   0  0  0  0  0  0  0  0  0  0  0  0
   47.2198   33.3281   48.6023 H   0  0  0  0  0  0  0  0  0  0  0  0
  1  6  2  0
  2  1  1  0
  3  2  2  0
  3  4  1  0
  4  5  2  0
  5  6  1  0
  5 16  1  0
  7  3  1  0
  8  7  1  0
  9 10  1  0
  9  8  2  0
 10 11  1  0
 11  7  2  0
 12 15  1  0
 12 13  1  0
 12 10  1  0
 14 12  1  0
 16 20  1  0
 16 17  1  0
 17 18  1  0
 19 18  1  0
 20 19  1  0
  1 21  1  0
  2 22  1  0
  8 23  1  0
  9 24  1  0
 16 25  1  0
 17 26  1  0
 17 27  1  0
 18 28  1  0
 18 29  1  0
 19 30  1  0
 19 31  1  0
 20 32  1  0
 20 33  1  0
M  ISO  8  21  14  22  14  23  14  24  14  25  13  26  13  27  13  28  13
M  ISO  5  29  13  30  13  31  13  32  13  33  13
M  END
>  <minimizedAffinity>  (1) 
-5.96886158

>  <minimizedRMSD>  (1) 
1.25115156

$$$$
