
     RDKit          3D

 27 29  0  0  0  0  0  0  0  0999 V2000
   44.3520   35.9870   44.8600 C   0  0  0  0  0  0  0  0  0  0  0  0
   44.7070   35.7360   43.5040 C   0  0  0  0  0  0  0  0  0  0  0  0
   45.4340   34.5950   43.2650 C   0  0  0  0  0  0  0  0  0  0  0  0
   45.7640   33.7930   44.3140 N   0  0  0  0  0  0  0  0  0  0  0  0
   45.4120   34.0600   45.5920 C   0  0  0  0  0  0  0  0  0  0  0  0
   44.7050   35.1600   45.8600 N   0  0  0  0  0  0  0  0  0  0  0  0
   45.8460   34.2420   41.9240 C   0  0  0  0  0  0  0  0  0  0  0  0
   45.1280   33.4850   41.0330 C   0  0  0  0  0  0  0  0  0  0  0  0
   45.8950   33.3960   39.8740 C   0  0  0  0  0  0  0  0  0  0  0  0
   47.0140   34.0970   40.1360 N   0  0  0  0  0  0  0  0  0  0  0  0
   47.0100   34.6110   41.3500 N   0  0  0  0  0  0  0  0  0  0  0  0
   48.1340   34.2910   39.2050 C   0  0  0  0  0  0  0  0  0  0  0  0
   48.7800   35.4650   39.5340 F   0  0  0  0  0  0  0  0  0  0  0  0
   47.6940   34.3730   37.8970 F   0  0  0  0  0  0  0  0  0  0  0  0
   49.0190   33.2170   39.2800 F   0  0  0  0  0  0  0  0  0  0  0  0
   45.8870   33.0410   46.5470 C   0  0  0  0  0  0  0  0  0  0  0  0
   46.9050   32.1400   46.6360 C   0  0  0  0  0  0  0  0  0  0  0  0
   46.7350   31.4920   47.8420 C   0  0  0  0  0  0  0  0  0  0  0  0
   45.6410   31.9950   48.4580 N   0  0  0  0  0  0  0  0  0  0  0  0
   45.1290   32.9320   47.6750 N   0  0  0  0  0  0  0  0  0  0  0  0
   43.7687   36.8888   45.0978 H   0  0  0  0  0  0  0  0  0  0  0  0
   44.4151   36.4184   42.6922 H   0  0  0  0  0  0  0  0  0  0  0  0
   44.1383   33.0355   41.2015 H   0  0  0  0  0  0  0  0  0  0  0  0
   45.6409   32.8665   38.9439 H   0  0  0  0  0  0  0  0  0  0  0  0
   47.7005   31.9649   45.8968 H   0  0  0  0  0  0  0  0  0  0  0  0
   47.3832   30.6963   48.2379 H   0  0  0  0  0  0  0  0  0  0  0  0
   45.2717   31.7013   49.3736 H   0  0  0  0  0  0  0  0  0  0  0  0
  1  6  2  0
  2  1  1  0
  3  2  2  0
  3  4  1  0
  4  5  2  0
  5  6  1  0
  5 16  1  0
  7  3  1  0
  8  7  1  0
  9 10  1  0
  9  8  2  0
 10 11  1  0
 11  7  2  0
 12 15  1  0
 12 13  1  0
 12 10  1  0
 14 12  1  0
 16 17  1  0
 16 20  2  0
 17 18  2  0
 18 19  1  0
 20 19  1  0
  1 21  1  0
  2 22  1  0
  8 23  1  0
  9 24  1  0
 17 25  1  0
 18 26  1  0
 19 27  1  0
M  ISO  7  21  14  22  14  23  14  24  14  25  14  26  14  27   9
M  END
>  <minimizedAffinity>  (1) 
-5.68247032

>  <minimizedRMSD>  (1) 
0.324068308

$$$$
