
     RDKit          3D

 27 29  0  0  0  0  0  0  0  0999 V2000
   44.4170   35.9980   44.9160 C   0  0  0  0  0  0  0  0  0  0  0  0
   44.7950   35.7310   43.5820 C   0  0  0  0  0  0  0  0  0  0  0  0
   45.4610   34.5640   43.3010 C   0  0  0  0  0  0  0  0  0  0  0  0
   45.7230   33.7180   44.3260 N   0  0  0  0  0  0  0  0  0  0  0  0
   45.3510   33.9920   45.6040 C   0  0  0  0  0  0  0  0  0  0  0  0
   44.7080   35.1140   45.8970 N   0  0  0  0  0  0  0  0  0  0  0  0
   45.8680   34.2420   41.9630 C   0  0  0  0  0  0  0  0  0  0  0  0
   45.1320   33.5010   41.0530 C   0  0  0  0  0  0  0  0  0  0  0  0
   45.8800   33.4230   39.8900 C   0  0  0  0  0  0  0  0  0  0  0  0
   47.0190   34.1170   40.1600 N   0  0  0  0  0  0  0  0  0  0  0  0
   47.0180   34.6050   41.3870 N   0  0  0  0  0  0  0  0  0  0  0  0
   48.1260   34.3170   39.2260 C   0  0  0  0  0  0  0  0  0  0  0  0
   48.7860   35.4710   39.5610 F   0  0  0  0  0  0  0  0  0  0  0  0
   47.7040   34.3790   37.9280 F   0  0  0  0  0  0  0  0  0  0  0  0
   49.0120   33.2230   39.3060 F   0  0  0  0  0  0  0  0  0  0  0  0
   45.6810   33.0270   46.6110 C   0  0  0  0  0  0  0  0  0  0  0  0
   45.1980   32.7850   47.8500 C   0  0  0  0  0  0  0  0  0  0  0  0
   45.6920   31.7800   48.6360 C   0  0  0  0  0  0  0  0  0  0  0  0
   46.7590   31.0190   48.0190 C   0  0  0  0  0  0  0  0  0  0  0  0
   46.9550   31.8160   46.3710 S   0  0  0  0  0  0  0  0  0  0  0  0
   43.8836   36.9290   45.1582 H   0  0  0  0  0  0  0  0  0  0  0  0
   44.5595   36.4468   42.7806 H   0  0  0  0  0  0  0  0  0  0  0  0
   44.1396   33.0577   41.2223 H   0  0  0  0  0  0  0  0  0  0  0  0
   45.6121   32.9121   38.9534 H   0  0  0  0  0  0  0  0  0  0  0  0
   44.3837   33.4147   48.2378 H   0  0  0  0  0  0  0  0  0  0  0  0
   45.3126   31.5687   49.6467 H   0  0  0  0  0  0  0  0  0  0  0  0
   47.3184   30.1683   48.4355 H   0  0  0  0  0  0  0  0  0  0  0  0
  1  6  2  0
  2  1  1  0
  3  2  2  0
  3  4  1  0
  4  5  2  0
  5  6  1  0
  5 16  1  0
  7  3  1  0
  8  7  1  0
  9 10  1  0
  9  8  2  0
 10 11  1  0
 11  7  2  0
 12 15  1  0
 12 13  1  0
 12 10  1  0
 14 12  1  0
 16 17  2  0
 17 18  1  0
 19 18  2  0
 20 16  1  0
 20 19  1  0
  1 21  1  0
  2 22  1  0
  8 23  1  0
  9 24  1  0
 17 25  1  0
 18 26  1  0
 19 27  1  0
M  ISO  7  21  14  22  14  23  14  24  14  25  14  26  14  27  14
M  END
>  <minimizedAffinity>  (1) 
-5.73063374

>  <minimizedRMSD>  (1) 
0.154558316

$$$$
