
     RDKit          3D

 23 24  0  0  0  0  0  0  0  0999 V2000
   44.4460   35.9110   44.9090 C   0  0  0  0  0  0  0  0  0  0  0  0
   44.8010   35.6860   43.5610 C   0  0  0  0  0  0  0  0  0  0  0  0
   45.4940   34.5160   43.2680 C   0  0  0  0  0  0  0  0  0  0  0  0
   45.7870   33.6670   44.2820 N   0  0  0  0  0  0  0  0  0  0  0  0
   45.4340   33.9090   45.5700 C   0  0  0  0  0  0  0  0  0  0  0  0
   44.7720   35.0170   45.8800 N   0  0  0  0  0  0  0  0  0  0  0  0
   45.8870   34.2190   41.9230 C   0  0  0  0  0  0  0  0  0  0  0  0
   45.1390   33.5130   40.9930 C   0  0  0  0  0  0  0  0  0  0  0  0
   45.8810   33.4540   39.8270 C   0  0  0  0  0  0  0  0  0  0  0  0
   47.0320   34.1210   40.1130 N   0  0  0  0  0  0  0  0  0  0  0  0
   47.0460   34.5770   41.3460 N   0  0  0  0  0  0  0  0  0  0  0  0
   48.1320   34.3190   39.1740 C   0  0  0  0  0  0  0  0  0  0  0  0
   48.7970   35.4740   39.5110 F   0  0  0  0  0  0  0  0  0  0  0  0
   47.7160   34.3850   37.8740 F   0  0  0  0  0  0  0  0  0  0  0  0
   49.0250   33.2310   39.2580 F   0  0  0  0  0  0  0  0  0  0  0  0
   45.7810   32.9410   46.6540 C   0  0  0  0  0  0  0  0  0  0  0  0
   44.9550   33.2030   47.7290 F   0  0  0  0  0  0  0  0  0  0  0  0
   47.0680   33.1260   47.1040 F   0  0  0  0  0  0  0  0  0  0  0  0
   45.6610   31.6270   46.2390 F   0  0  0  0  0  0  0  0  0  0  0  0
   43.8964   36.8251   45.1781 H   0  0  0  0  0  0  0  0  0  0  0  0
   44.5397   36.4079   42.7732 H   0  0  0  0  0  0  0  0  0  0  0  0
   44.1405   33.0800   41.1528 H   0  0  0  0  0  0  0  0  0  0  0  0
   45.6020   32.9736   38.8776 H   0  0  0  0  0  0  0  0  0  0  0  0
  1  6  2  0
  2  1  1  0
  3  2  2  0
  3  4  1  0
  4  5  2  0
  5  6  1  0
  5 16  1  0
  7  3  1  0
  8  7  1  0
  9 10  1  0
  9  8  2  0
 10 11  1  0
 11  7  2  0
 12 15  1  0
 12 13  1  0
 12 10  1  0
 14 12  1  0
 16 18  1  0
 16 17  1  0
 19 16  1  0
  1 20  1  0
  2 21  1  0
  8 22  1  0
  9 23  1  0
M  ISO  4  20  14  21  14  22  14  23  14
M  END
>  <minimizedAffinity>  (1) 
-5.52493858

>  <minimizedRMSD>  (1) 
0.421034008

$$$$
