
     RDKit          3D

 21 22  0  0  0  0  0  0  0  0999 V2000
   45.8230   34.2760   41.9130 C   0  0  0  0  0  0  0  0  0  0  0  0
   45.1320   33.5010   41.0220 C   0  0  0  0  0  0  0  0  0  0  0  0
   45.8950   33.3990   39.8710 C   0  0  0  0  0  0  0  0  0  0  0  0
   47.0210   34.1260   40.1270 N   0  0  0  0  0  0  0  0  0  0  0  0
   46.9830   34.6470   41.3310 N   0  0  0  0  0  0  0  0  0  0  0  0
   44.4570   36.1540   44.8260 C   0  0  0  0  0  0  0  0  0  0  0  0
   44.8390   35.8690   43.4900 C   0  0  0  0  0  0  0  0  0  0  0  0
   45.4060   34.6450   43.2390 C   0  0  0  0  0  0  0  0  0  0  0  0
   45.5720   33.7800   44.2710 N   0  0  0  0  0  0  0  0  0  0  0  0
   45.2000   34.0670   45.5480 C   0  0  0  0  0  0  0  0  0  0  0  0
   44.6450   35.2560   45.8090 N   0  0  0  0  0  0  0  0  0  0  0  0
   45.4400   33.0650   46.4970 O   0  0  0  0  0  0  0  0  0  0  0  0
   48.1310   34.3180   39.2050 C   0  0  0  0  0  0  0  0  0  0  0  0
   48.7980   35.4670   39.5290 F   0  0  0  0  0  0  0  0  0  0  0  0
   47.7150   34.3590   37.8890 F   0  0  0  0  0  0  0  0  0  0  0  0
   49.0120   33.2240   39.2960 F   0  0  0  0  0  0  0  0  0  0  0  0
   44.1469   33.0413   41.1899 H   0  0  0  0  0  0  0  0  0  0  0  0
   45.6472   32.8508   38.9501 H   0  0  0  0  0  0  0  0  0  0  0  0
   43.9993   37.1260   45.0619 H   0  0  0  0  0  0  0  0  0  0  0  0
   44.6863   36.6025   42.6846 H   0  0  0  0  0  0  0  0  0  0  0  0
   45.1925   33.2110   47.4444 H   0  0  0  0  0  0  0  0  0  0  0  0
  1  8  1  0
  2  1  1  0
  3  4  1  0
  3  2  2  0
  4  5  1  0
  5  1  2  0
  6 11  2  0
  7  6  1  0
  8  7  2  0
  8  9  1  0
  9 10  2  0
 10 11  1  0
 10 12  1  0
 13 16  1  0
 13 14  1  0
 13  4  1  0
 15 13  1  0
  2 17  1  0
  3 18  1  0
  6 19  1  0
  7 20  1  0
 12 21  1  0
M  ISO  5  17  14  18  14  19  14  20  14  21   3
M  END
>  <minimizedAffinity>  (1) 
-4.89897633

>  <minimizedRMSD>  (1) 
0.136155844

$$$$
