
     RDKit          3D

 27 29  0  0  0  0  0  0  0  0999 V2000
   44.3480   36.1540   44.7360 C   0  0  0  0  0  0  0  0  0  0  0  0
   44.7400   35.8180   43.4200 C   0  0  0  0  0  0  0  0  0  0  0  0
   45.4240   34.6440   43.2110 C   0  0  0  0  0  0  0  0  0  0  0  0
   45.6930   33.8560   44.2840 N   0  0  0  0  0  0  0  0  0  0  0  0
   45.3050   34.2030   45.5410 C   0  0  0  0  0  0  0  0  0  0  0  0
   44.6440   35.3270   45.7760 N   0  0  0  0  0  0  0  0  0  0  0  0
   45.8430   34.2560   41.9000 C   0  0  0  0  0  0  0  0  0  0  0  0
   45.1520   33.4310   41.0360 C   0  0  0  0  0  0  0  0  0  0  0  0
   45.9150   33.3200   39.8790 C   0  0  0  0  0  0  0  0  0  0  0  0
   47.0040   34.0720   40.1080 N   0  0  0  0  0  0  0  0  0  0  0  0
   46.9820   34.6330   41.2970 N   0  0  0  0  0  0  0  0  0  0  0  0
   48.1160   34.2680   39.1620 C   0  0  0  0  0  0  0  0  0  0  0  0
   48.7720   35.4220   39.4740 F   0  0  0  0  0  0  0  0  0  0  0  0
   47.6750   34.2990   37.8590 F   0  0  0  0  0  0  0  0  0  0  0  0
   49.0080   33.1860   39.2540 F   0  0  0  0  0  0  0  0  0  0  0  0
   45.6390   33.2950   46.6340 C   0  0  0  0  0  0  0  0  0  0  0  0
   46.7390   32.4680   46.7370 C   0  0  0  0  0  0  0  0  0  0  0  0
   46.7030   31.7810   47.8860 N   0  0  0  0  0  0  0  0  0  0  0  0
   45.5840   32.1610   48.5280 C   0  0  0  0  0  0  0  0  0  0  0  0
   44.9520   33.0710   47.7670 N   0  0  0  0  0  0  0  0  0  0  0  0
   43.8002   37.0898   44.9208 H   0  0  0  0  0  0  0  0  0  0  0  0
   44.5018   36.4844   42.5778 H   0  0  0  0  0  0  0  0  0  0  0  0
   44.1805   32.9515   41.2268 H   0  0  0  0  0  0  0  0  0  0  0  0
   45.6783   32.7422   38.9734 H   0  0  0  0  0  0  0  0  0  0  0  0
   47.5339   32.3848   45.9813 H   0  0  0  0  0  0  0  0  0  0  0  0
   45.2446   31.7910   49.5067 H   0  0  0  0  0  0  0  0  0  0  0  0
   44.0655   33.5320   48.0172 H   0  0  0  0  0  0  0  0  0  0  0  0
  1  6  2  0
  2  1  1  0
  3  2  2  0
  3  4  1  0
  4  5  2  0
  5  6  1  0
  5 16  1  0
  7  3  1  0
  8  7  1  0
  9 10  1  0
  9  8  2  0
 10 11  1  0
 11  7  2  0
 12 15  1  0
 12 13  1  0
 12 10  1  0
 14 12  1  0
 16 17  2  0
 16 20  1  0
 17 18  1  0
 18 19  2  0
 20 19  1  0
  1 21  1  0
  2 22  1  0
  8 23  1  0
  9 24  1  0
 17 25  1  0
 19 26  1  0
 20 27  1  0
M  ISO  7  21  14  22  14  23  14  24  14  25  14  26  14  27   9
M  END
>  <minimizedAffinity>  (1) 
-6.07323456

>  <minimizedRMSD>  (1) 
0.29041785

$$$$
