
     RDKit          3D

 26 27  0  0  0  0  0  0  0  0999 V2000
   45.8690   34.2480   41.9440 C   0  0  0  0  0  0  0  0  0  0  0  0
   45.1470   33.4980   41.0300 C   0  0  0  0  0  0  0  0  0  0  0  0
   45.8910   33.4160   39.8680 C   0  0  0  0  0  0  0  0  0  0  0  0
   47.0260   34.1240   40.1430 N   0  0  0  0  0  0  0  0  0  0  0  0
   47.0080   34.6070   41.3550 N   0  0  0  0  0  0  0  0  0  0  0  0
   44.4230   35.9960   44.8860 C   0  0  0  0  0  0  0  0  0  0  0  0
   44.7870   35.7650   43.5290 C   0  0  0  0  0  0  0  0  0  0  0  0
   45.4570   34.5760   43.2820 C   0  0  0  0  0  0  0  0  0  0  0  0
   45.7310   33.7090   44.3070 N   0  0  0  0  0  0  0  0  0  0  0  0
   45.3530   33.9910   45.5850 C   0  0  0  0  0  0  0  0  0  0  0  0
   44.7090   35.1180   45.8700 N   0  0  0  0  0  0  0  0  0  0  0  0
   45.6440   33.0580   46.7060 C   0  0  0  0  0  0  0  0  0  0  0  0
   46.9650   32.3460   46.5140 C   0  0  0  0  0  0  0  0  0  0  0  0
   48.1260   34.3170   39.1970 C   0  0  0  0  0  0  0  0  0  0  0  0
   48.7960   35.4740   39.5400 F   0  0  0  0  0  0  0  0  0  0  0  0
   47.7070   34.3700   37.9000 F   0  0  0  0  0  0  0  0  0  0  0  0
   49.0190   33.2310   39.2890 F   0  0  0  0  0  0  0  0  0  0  0  0
   44.1577   33.0478   41.1989 H   0  0  0  0  0  0  0  0  0  0  0  0
   45.6285   32.8980   38.9338 H   0  0  0  0  0  0  0  0  0  0  0  0
   43.8895   36.9234   45.1414 H   0  0  0  0  0  0  0  0  0  0  0  0
   44.5522   36.4825   42.7290 H   0  0  0  0  0  0  0  0  0  0  0  0
   45.6805   33.6297   47.6451 H   0  0  0  0  0  0  0  0  0  0  0  0
   44.8475   32.2999   46.7362 H   0  0  0  0  0  0  0  0  0  0  0  0
   47.4010   32.1110   47.4962 H   0  0  0  0  0  0  0  0  0  0  0  0
   46.8011   31.4140   45.9531 H   0  0  0  0  0  0  0  0  0  0  0  0
   47.6534   32.9953   45.9531 H   0  0  0  0  0  0  0  0  0  0  0  0
  1  8  1  0
  2  1  1  0
  3  4  1  0
  3  2  2  0
  4  5  1  0
  5  1  2  0
  6 11  2  0
  7  6  1  0
  8  7  2  0
  8  9  1  0
  9 10  2  0
 10 11  1  0
 10 12  1  0
 13 12  1  0
 14 17  1  0
 14 15  1  0
 14  4  1  0
 16 14  1  0
  2 18  1  0
  3 19  1  0
  6 20  1  0
  7 21  1  0
 12 22  1  0
 12 23  1  0
 13 24  1  0
 13 25  1  0
 13 26  1  0
M  ISO  8  18  14  19  14  20  14  21  14  22   8  23   8  24   8  25   8
M  ISO  1  26   8
M  END
>  <minimizedAffinity>  (1) 
-4.89179039

>  <minimizedRMSD>  (1) 
0.541510344

$$$$
