
     RDKit          3D

 41 45  0  0  0  0  0  0  0  0999 V2000
   47.9050   34.5610   42.4990 C   0  0  0  0  0  0  0  0  0  0  0  0
   47.8670   33.6430   43.5810 C   0  0  0  0  0  0  0  0  0  0  0  0
   46.6540   33.1000   43.9340 C   0  0  0  0  0  0  0  0  0  0  0  0
   45.5550   33.4630   43.2360 N   0  0  0  0  0  0  0  0  0  0  0  0
   45.6060   34.3420   42.2030 C   0  0  0  0  0  0  0  0  0  0  0  0
   46.7620   34.8920   41.8290 N   0  0  0  0  0  0  0  0  0  0  0  0
   46.5590   32.1730   45.0150 C   0  0  0  0  0  0  0  0  0  0  0  0
   47.1690   30.9270   45.0780 C   0  0  0  0  0  0  0  0  0  0  0  0
   46.8120   30.3640   46.2950 C   0  0  0  0  0  0  0  0  0  0  0  0
   46.0270   31.2710   46.8880 N   0  0  0  0  0  0  0  0  0  0  0  0
   45.8660   32.3460   46.1480 N   0  0  0  0  0  0  0  0  0  0  0  0
   45.4050   31.1060   48.2150 C   0  0  0  0  0  0  0  0  0  0  0  0
   44.3040   31.9100   48.2870 F   0  0  0  0  0  0  0  0  0  0  0  0
   46.2800   31.3660   49.2320 F   0  0  0  0  0  0  0  0  0  0  0  0
   45.0090   29.7600   48.3810 F   0  0  0  0  0  0  0  0  0  0  0  0
   44.3770   34.6780   41.5060 C   0  0  0  0  0  0  0  0  0  0  0  0
   43.3630   35.5030   41.9640 C   0  0  0  0  0  0  0  0  0  0  0  0
   42.3850   35.5800   41.0470 N   0  0  0  0  0  0  0  0  0  0  0  0
   42.7640   34.8080   40.0060 C   0  0  0  0  0  0  0  0  0  0  0  0
   43.9610   34.2760   40.3010 N   0  0  0  0  0  0  0  0  0  0  0  0
   44.7310   33.3930   39.4700 C   0  0  0  0  0  0  0  0  0  0  0  0
   46.1030   33.1790   39.3000 C   0  0  0  0  0  0  0  0  0  0  0  0
   46.2460   32.2070   38.3650 N   0  0  0  0  0  0  0  0  0  0  0  0
   45.0160   31.8120   37.9500 C   0  0  0  0  0  0  0  0  0  0  0  0
   44.7170   30.8340   36.9960 C   0  0  0  0  0  0  0  0  0  0  0  0
   43.3720   30.6110   36.7430 C   0  0  0  0  0  0  0  0  0  0  0  0
   42.3500   31.3110   37.3930 C   0  0  0  0  0  0  0  0  0  0  0  0
   42.7450   32.2550   38.3170 C   0  0  0  0  0  0  0  0  0  0  0  0
   44.0520   32.5330   38.6210 C   0  0  0  0  0  0  0  0  0  0  0  0
   48.8631   35.0095   42.1977 H   0  0  0  0  0  0  0  0  0  0  0  0
   48.7849   33.3727   44.1235 H   0  0  0  0  0  0  0  0  0  0  0  0
   47.8123   30.4730   44.3098 H   0  0  0  0  0  0  0  0  0  0  0  0
   47.1107   29.3812   46.6885 H   0  0  0  0  0  0  0  0  0  0  0  0
   43.3594   36.0189   42.9355 H   0  0  0  0  0  0  0  0  0  0  0  0
   42.1931   34.6440   39.0801 H   0  0  0  0  0  0  0  0  0  0  0  0
   46.9149   33.7019   39.8267 H   0  0  0  0  0  0  0  0  0  0  0  0
   47.1423   31.8300   38.0253 H   0  0  0  0  0  0  0  0  0  0  0  0
   45.5060   30.2722   36.4746 H   0  0  0  0  0  0  0  0  0  0  0  0
   43.0964   29.8499   35.9981 H   0  0  0  0  0  0  0  0  0  0  0  0
   41.2884   31.1186   37.1785 H   0  0  0  0  0  0  0  0  0  0  0  0
   41.9619   32.8205   38.8432 H   0  0  0  0  0  0  0  0  0  0  0  0
  1  2  2  0
  2  3  1  0
  3  7  1  0
  4  3  2  0
  5  4  1  0
  6  5  2  0
  6  1  1  0
  7  8  1  0
  7 11  2  0
  8  9  2  0
  9 10  1  0
 10 12  1  0
 11 10  1  0
 12 13  1  0
 12 15  1  0
 12 14  1  0
 16 17  2  0
 16  5  1  0
 18 17  1  0
 19 20  1  0
 19 18  2  0
 20 16  1  0
 21 20  1  0
 22 21  2  0
 23 22  1  0
 24 23  1  0
 24 29  2  0
 25 24  1  0
 26 25  2  0
 26 27  1  0
 27 28  2  0
 28 29  1  0
 29 21  1  0
  1 30  1  0
  2 31  1  0
  8 32  1  0
  9 33  1  0
 17 34  1  0
 19 35  1  0
 22 36  1  0
 23 37  1  0
 25 38  1  0
 26 39  1  0
 27 40  1  0
 28 41  1  0
M  ISO  8  30  14  31  14  32  14  33  14  34  14  35  14  36  14  37   9
M  ISO  4  38  14  39  14  40  14  41  14
M  END
>  <minimizedAffinity>  (1) 
-5.74871063

>  <minimizedRMSD>  (1) 
8.52324486

$$$$
