
     RDKit          3D

 34 37  0  0  0  0  0  0  0  0999 V2000
   45.2880   36.3710   43.0130 C   0  0  0  0  0  0  0  0  0  0  0  0
   44.0220   36.3470   42.3790 C   0  0  0  0  0  0  0  0  0  0  0  0
   43.6640   35.2240   41.6580 C   0  0  0  0  0  0  0  0  0  0  0  0
   44.5500   34.2040   41.5980 N   0  0  0  0  0  0  0  0  0  0  0  0
   45.7560   34.2470   42.2120 C   0  0  0  0  0  0  0  0  0  0  0  0
   46.1330   35.3080   42.9120 N   0  0  0  0  0  0  0  0  0  0  0  0
   46.6330   33.0810   42.0760 C   0  0  0  0  0  0  0  0  0  0  0  0
   47.3450   32.6870   40.9720 C   0  0  0  0  0  0  0  0  0  0  0  0
   48.0330   31.5650   41.2370 N   0  0  0  0  0  0  0  0  0  0  0  0
   47.7570   31.2490   42.5090 C   0  0  0  0  0  0  0  0  0  0  0  0
   46.9120   32.1580   43.0230 N   0  0  0  0  0  0  0  0  0  0  0  0
   45.5790   31.6300   46.3220 N   0  0  0  0  0  0  0  0  0  0  0  0
   45.8720   31.1340   45.1350 N   0  0  0  0  0  0  0  0  0  0  0  0
   46.4180   32.1140   44.3590 C   0  0  0  0  0  0  0  0  0  0  0  0
   46.4520   33.2720   45.1380 C   0  0  0  0  0  0  0  0  0  0  0  0
   45.9200   32.9510   46.3680 C   0  0  0  0  0  0  0  0  0  0  0  0
   42.3940   35.1490   40.9960 C   0  0  0  0  0  0  0  0  0  0  0  0
   41.1600   35.3230   41.5920 C   0  0  0  0  0  0  0  0  0  0  0  0
   40.2060   35.1650   40.5850 C   0  0  0  0  0  0  0  0  0  0  0  0
   40.9130   34.9120   39.4690 N   0  0  0  0  0  0  0  0  0  0  0  0
   42.2120   34.8970   39.6910 N   0  0  0  0  0  0  0  0  0  0  0  0
   40.3320   34.6740   38.1410 C   0  0  0  0  0  0  0  0  0  0  0  0
   40.7210   33.4450   37.6990 F   0  0  0  0  0  0  0  0  0  0  0  0
   40.6690   35.6540   37.2490 F   0  0  0  0  0  0  0  0  0  0  0  0
   38.9240   34.6890   38.2350 F   0  0  0  0  0  0  0  0  0  0  0  0
   45.5914   37.2558   43.5919 H   0  0  0  0  0  0  0  0  0  0  0  0
   43.3378   37.2046   42.4589 H   0  0  0  0  0  0  0  0  0  0  0  0
   47.3514   33.2150   40.0070 H   0  0  0  0  0  0  0  0  0  0  0  0
   48.1599   30.3796   43.0492 H   0  0  0  0  0  0  0  0  0  0  0  0
   45.1564   31.1000   47.0975 H   0  0  0  0  0  0  0  0  0  0  0  0
   46.8323   34.2565   44.8280 H   0  0  0  0  0  0  0  0  0  0  0  0
   45.7941   33.6301   47.2241 H   0  0  0  0  0  0  0  0  0  0  0  0
   40.9669   35.5430   42.6523 H   0  0  0  0  0  0  0  0  0  0  0  0
   39.1125   35.2328   40.6830 H   0  0  0  0  0  0  0  0  0  0  0  0
  2  1  2  0
  3  2  1  0
  4  3  2  0
  4  5  1  0
  5  6  2  0
  6  1  1  0
  7  5  1  0
  7 11  1  0
  8  9  1  0
  8  7  2  0
  9 10  2  0
 10 11  1  0
 11 14  1  0
 12 16  1  0
 13 12  1  0
 14 13  2  0
 14 15  1  0
 15 16  2  0
 17 18  1  0
 17  3  1  0
 19 18  2  0
 20 21  1  0
 20 19  1  0
 21 17  2  0
 22 25  1  0
 22 20  1  0
 23 22  1  0
 24 22  1  0
  1 26  1  0
  2 27  1  0
  8 28  1  0
 10 29  1  0
 12 30  1  0
 15 31  1  0
 16 32  1  0
 18 33  1  0
 19 34  1  0
M  ISO  8  26  14  27  14  28  14  29  14  30   9  31  14  32  14  33  14
M  ISO  1  34  14
M  END
>  <minimizedAffinity>  (1) 
-6.08795261

>  <minimizedRMSD>  (1) 
5.51320219

$$$$
