
     RDKit          3D

 39 41  0  0  0  0  0  0  0  0999 V2000
   45.2260   33.0850   47.1890 C   0  0  0  0  0  0  0  0  0  0  0  0
   45.4530   33.8080   45.9940 C   0  0  0  0  0  0  0  0  0  0  0  0
   46.4100   33.3760   45.1240 C   0  0  0  0  0  0  0  0  0  0  0  0
   47.1110   32.2540   45.4490 N   0  0  0  0  0  0  0  0  0  0  0  0
   46.8780   31.5770   46.5980 C   0  0  0  0  0  0  0  0  0  0  0  0
   45.9590   31.9730   47.4600 N   0  0  0  0  0  0  0  0  0  0  0  0
   46.6770   34.0670   43.9060 C   0  0  0  0  0  0  0  0  0  0  0  0
   45.7540   34.6500   43.0750 C   0  0  0  0  0  0  0  0  0  0  0  0
   46.4520   35.2090   42.0100 C   0  0  0  0  0  0  0  0  0  0  0  0
   47.7430   34.9340   42.2550 N   0  0  0  0  0  0  0  0  0  0  0  0
   47.8930   34.2630   43.3650 N   0  0  0  0  0  0  0  0  0  0  0  0
   48.8560   35.3330   41.3860 C   0  0  0  0  0  0  0  0  0  0  0  0
   49.2500   36.5980   41.7390 F   0  0  0  0  0  0  0  0  0  0  0  0
   48.5110   35.2940   40.0470 F   0  0  0  0  0  0  0  0  0  0  0  0
   49.9230   34.4380   41.5400 F   0  0  0  0  0  0  0  0  0  0  0  0
   47.6700   30.3840   46.8760 C   0  0  0  0  0  0  0  0  0  0  0  0
   47.9060   29.3280   46.0240 C   0  0  0  0  0  0  0  0  0  0  0  0
   48.6720   28.4130   46.6190 N   0  0  0  0  0  0  0  0  0  0  0  0
   48.9380   28.8710   47.8650 C   0  0  0  0  0  0  0  0  0  0  0  0
   48.3300   30.0480   47.9950 N   0  0  0  0  0  0  0  0  0  0  0  0
   48.3860   30.8640   49.2030 C   0  0  0  0  0  0  0  0  0  0  0  0
   47.1150   31.0220   49.7380 F   0  0  0  0  0  0  0  0  0  0  0  0
   49.1580   30.3280   50.1870 F   0  0  0  0  0  0  0  0  0  0  0  0
   48.7760   32.1810   48.8940 F   0  0  0  0  0  0  0  0  0  0  0  0
   49.7720   28.0160   48.7040 C   0  0  0  0  0  0  0  0  0  0  0  0
   49.2660   26.5630   48.6120 C   0  0  0  0  0  0  0  0  0  0  0  0
   51.1620   27.9450   48.0870 C   0  0  0  0  0  0  0  0  0  0  0  0
   44.4564   33.4229   47.8986 H   0  0  0  0  0  0  0  0  0  0  0  0
   44.8636   34.7091   45.7692 H   0  0  0  0  0  0  0  0  0  0  0  0
   44.6643   34.6713   43.2236 H   0  0  0  0  0  0  0  0  0  0  0  0
   46.0362   35.7579   41.1522 H   0  0  0  0  0  0  0  0  0  0  0  0
   47.5175   29.2504   44.9978 H   0  0  0  0  0  0  0  0  0  0  0  0
   49.7588   28.4140   49.7294 H   0  0  0  0  0  0  0  0  0  0  0  0
   49.1253   26.1589   49.6254 H   0  0  0  0  0  0  0  0  0  0  0  0
   48.3076   26.5420   48.0725 H   0  0  0  0  0  0  0  0  0  0  0  0
   50.0040   25.9512   48.0725 H   0  0  0  0  0  0  0  0  0  0  0  0
   51.9165   27.9065   48.8865 H   0  0  0  0  0  0  0  0  0  0  0  0
   51.2411   27.0416   47.4643 H   0  0  0  0  0  0  0  0  0  0  0  0
   51.3327   28.8356   47.4643 H   0  0  0  0  0  0  0  0  0  0  0  0
  1  6  2  0
  2  1  1  0
  3  4  1  0
  3  2  2  0
  4  5  2  0
  5 16  1  0
  5  6  1  0
  7  3  1  0
  8  7  1  0
  9 10  1  0
  9  8  2  0
 10 11  1  0
 11  7  2  0
 12 15  1  0
 12 13  1  0
 12 10  1  0
 14 12  1  0
 16 20  1  0
 17 18  1  0
 17 16  2  0
 18 19  2  0
 19 20  1  0
 19 25  1  0
 20 21  1  0
 21 22  1  0
 21 23  1  0
 24 21  1  0
 26 25  1  0
 27 25  1  0
  1 28  1  0
  2 29  1  0
  8 30  1  0
  9 31  1  0
 17 32  1  0
 25 33  1  0
 26 34  1  0
 26 35  1  0
 26 36  1  0
 27 37  1  0
 27 38  1  0
 27 39  1  0
M  ISO  8  28  14  29  14  30  14  31  14  32  14  33   8  34   8  35   8
M  ISO  4  36   8  37   8  38   8  39   8
M  END
>  <minimizedAffinity>  (1) 
-6.21290159

>  <minimizedRMSD>  (1) 
2.21303463

$$$$
