
     RDKit          3D

 46 49  0  0  0  0  0  0  0  0999 V2000
   45.2260   33.0650   47.1830 C   0  0  0  0  0  0  0  0  0  0  0  0
   45.4580   33.7960   45.9890 C   0  0  0  0  0  0  0  0  0  0  0  0
   46.4230   33.3800   45.1290 C   0  0  0  0  0  0  0  0  0  0  0  0
   47.1220   32.2710   45.4630 N   0  0  0  0  0  0  0  0  0  0  0  0
   46.9080   31.5730   46.5910 C   0  0  0  0  0  0  0  0  0  0  0  0
   45.9660   31.9600   47.4550 N   0  0  0  0  0  0  0  0  0  0  0  0
   46.6980   34.0760   43.9170 C   0  0  0  0  0  0  0  0  0  0  0  0
   45.7570   34.6870   43.0980 C   0  0  0  0  0  0  0  0  0  0  0  0
   46.4440   35.2440   42.0310 C   0  0  0  0  0  0  0  0  0  0  0  0
   47.7270   34.9500   42.2510 N   0  0  0  0  0  0  0  0  0  0  0  0
   47.8930   34.2600   43.3630 N   0  0  0  0  0  0  0  0  0  0  0  0
   48.8510   35.3380   41.3740 C   0  0  0  0  0  0  0  0  0  0  0  0
   49.2490   36.6160   41.7240 F   0  0  0  0  0  0  0  0  0  0  0  0
   48.5020   35.3080   40.0520 F   0  0  0  0  0  0  0  0  0  0  0  0
   49.9120   34.4440   41.5360 F   0  0  0  0  0  0  0  0  0  0  0  0
   47.6910   30.3950   46.8920 C   0  0  0  0  0  0  0  0  0  0  0  0
   47.9220   29.3300   46.0300 C   0  0  0  0  0  0  0  0  0  0  0  0
   48.6810   28.4130   46.6170 N   0  0  0  0  0  0  0  0  0  0  0  0
   48.9510   28.8710   47.8680 C   0  0  0  0  0  0  0  0  0  0  0  0
   48.3470   30.0520   47.9980 N   0  0  0  0  0  0  0  0  0  0  0  0
   49.7950   28.0040   48.7180 C   0  0  0  0  0  0  0  0  0  0  0  0
   51.2410   28.4900   48.6230 C   0  0  0  0  0  0  0  0  0  0  0  0
   52.1760   27.3770   48.2640 C   0  0  0  0  0  0  0  0  0  0  0  0
   51.8210   26.8970   46.8710 C   0  0  0  0  0  0  0  0  0  0  0  0
   50.4190   26.3580   46.9500 C   0  0  0  0  0  0  0  0  0  0  0  0
   49.7740   26.5680   48.2870 C   0  0  0  0  0  0  0  0  0  0  0  0
   48.4020   30.8590   49.2120 C   0  0  0  0  0  0  0  0  0  0  0  0
   47.1250   31.0480   49.7290 F   0  0  0  0  0  0  0  0  0  0  0  0
   49.1360   30.2970   50.2110 F   0  0  0  0  0  0  0  0  0  0  0  0
   48.8220   32.1690   48.9110 F   0  0  0  0  0  0  0  0  0  0  0  0
   44.4474   33.3934   47.8873 H   0  0  0  0  0  0  0  0  0  0  0  0
   44.8613   34.6918   45.7621 H   0  0  0  0  0  0  0  0  0  0  0  0
   44.6703   34.7222   43.2650 H   0  0  0  0  0  0  0  0  0  0  0  0
   46.0226   35.8070   41.1852 H   0  0  0  0  0  0  0  0  0  0  0  0
   47.5306   29.2571   45.0046 H   0  0  0  0  0  0  0  0  0  0  0  0
   49.3952   28.0631   49.7411 H   0  0  0  0  0  0  0  0  0  0  0  0
   51.3045   29.2719   47.8519 H   0  0  0  0  0  0  0  0  0  0  0  0
   51.5365   28.8826   49.6071 H   0  0  0  0  0  0  0  0  0  0  0  0
   53.2137   27.7416   48.2799 H   0  0  0  0  0  0  0  0  0  0  0  0
   52.0840   26.5529   48.9868 H   0  0  0  0  0  0  0  0  0  0  0  0
   52.5153   26.1052   46.5534 H   0  0  0  0  0  0  0  0  0  0  0  0
   51.8925   27.7142   46.1381 H   0  0  0  0  0  0  0  0  0  0  0  0
   49.8086   26.8612   46.1857 H   0  0  0  0  0  0  0  0  0  0  0  0
   50.4793   25.2720   46.7859 H   0  0  0  0  0  0  0  0  0  0  0  0
   48.7280   26.2325   48.2301 H   0  0  0  0  0  0  0  0  0  0  0  0
   50.3459   25.9895   49.0274 H   0  0  0  0  0  0  0  0  0  0  0  0
  1  6  2  0
  2  1  1  0
  3  4  1  0
  3  2  2  0
  4  5  2  0
  5 16  1  0
  5  6  1  0
  7  3  1  0
  8  7  1  0
  9 10  1  0
  9  8  2  0
 10 11  1  0
 11  7  2  0
 12 15  1  0
 12 13  1  0
 12 10  1  0
 14 12  1  0
 16 20  1  0
 17 18  1  0
 17 16  2  0
 18 19  2  0
 19 20  1  0
 19 21  1  0
 20 27  1  0
 22 21  1  0
 23 22  1  0
 24 25  1  0
 24 23  1  0
 25 26  1  0
 26 21  1  0
 27 28  1  0
 27 29  1  0
 30 27  1  0
  1 31  1  0
  2 32  1  0
  8 33  1  0
  9 34  1  0
 17 35  1  0
 21 36  1  0
 22 37  1  0
 22 38  1  0
 23 39  1  0
 23 40  1  0
 24 41  1  0
 24 42  1  0
 25 43  1  0
 25 44  1  0
 26 45  1  0
 26 46  1  0
M  ISO  8  31  14  32  14  33  14  34  14  35  14  36  13  37  13  38  13
M  ISO  8  39  13  40  13  41  13  42  13  43  13  44  13  45  13  46  13
M  END
>  <minimizedAffinity>  (1) 
-6.29919958

>  <minimizedRMSD>  (1) 
2.30777168

$$$$
