
     RDKit          3D

 32 34  0  0  0  0  0  0  0  0999 V2000
   45.2350   33.0520   47.2090 C   0  0  0  0  0  0  0  0  0  0  0  0
   45.4570   33.7890   46.0180 C   0  0  0  0  0  0  0  0  0  0  0  0
   46.4230   33.3680   45.1320 C   0  0  0  0  0  0  0  0  0  0  0  0
   47.1270   32.2500   45.4500 N   0  0  0  0  0  0  0  0  0  0  0  0
   46.9100   31.5560   46.5860 C   0  0  0  0  0  0  0  0  0  0  0  0
   45.9760   31.9420   47.4650 N   0  0  0  0  0  0  0  0  0  0  0  0
   46.6820   34.0740   43.9240 C   0  0  0  0  0  0  0  0  0  0  0  0
   45.7620   34.6910   43.1180 C   0  0  0  0  0  0  0  0  0  0  0  0
   46.4510   35.2530   42.0500 C   0  0  0  0  0  0  0  0  0  0  0  0
   47.7410   34.9460   42.2680 N   0  0  0  0  0  0  0  0  0  0  0  0
   47.8900   34.2520   43.3670 N   0  0  0  0  0  0  0  0  0  0  0  0
   48.8590   35.3290   41.3980 C   0  0  0  0  0  0  0  0  0  0  0  0
   49.2550   36.6060   41.7340 F   0  0  0  0  0  0  0  0  0  0  0  0
   48.4960   35.2850   40.0640 F   0  0  0  0  0  0  0  0  0  0  0  0
   49.9230   34.4360   41.5610 F   0  0  0  0  0  0  0  0  0  0  0  0
   47.6940   30.3690   46.8730 C   0  0  0  0  0  0  0  0  0  0  0  0
   47.9140   29.3110   46.0050 C   0  0  0  0  0  0  0  0  0  0  0  0
   48.6830   28.3770   46.5860 N   0  0  0  0  0  0  0  0  0  0  0  0
   48.9530   28.8400   47.8250 C   0  0  0  0  0  0  0  0  0  0  0  0
   48.3580   30.0210   47.9750 N   0  0  0  0  0  0  0  0  0  0  0  0
   48.4240   30.8300   49.1910 C   0  0  0  0  0  0  0  0  0  0  0  0
   47.1580   30.9840   49.7350 F   0  0  0  0  0  0  0  0  0  0  0  0
   49.2010   30.2560   50.1600 F   0  0  0  0  0  0  0  0  0  0  0  0
   48.8190   32.1450   48.8960 F   0  0  0  0  0  0  0  0  0  0  0  0
   49.7800   28.0400   48.7100 C   0  0  0  0  0  0  0  0  0  0  0  0
   49.4270   26.9120   49.0940 O   0  0  0  0  0  0  0  0  0  0  0  0
   44.4650   33.3779   47.9238 H   0  0  0  0  0  0  0  0  0  0  0  0
   44.8625   34.6894   45.8039 H   0  0  0  0  0  0  0  0  0  0  0  0
   44.6757   34.7338   43.2857 H   0  0  0  0  0  0  0  0  0  0  0  0
   46.0316   35.8248   41.2091 H   0  0  0  0  0  0  0  0  0  0  0  0
   47.5140   29.2459   44.9824 H   0  0  0  0  0  0  0  0  0  0  0  0
   50.7453   28.4431   49.0500 H   0  0  0  0  0  0  0  0  0  0  0  0
  1  6  2  0
  2  1  1  0
  3  4  1  0
  3  2  2  0
  4  5  2  0
  5 16  1  0
  5  6  1  0
  7  3  1  0
  8  7  1  0
  9 10  1  0
  9  8  2  0
 10 11  1  0
 11  7  2  0
 12 15  1  0
 12 13  1  0
 12 10  1  0
 14 12  1  0
 16 20  1  0
 17 18  1  0
 17 16  2  0
 18 19  2  0
 19 20  1  0
 19 25  1  0
 20 21  1  0
 21 22  1  0
 21 23  1  0
 24 21  1  0
 25 26  2  0
  1 27  1  0
  2 28  1  0
  8 29  1  0
  9 30  1  0
 17 31  1  0
 25 32  1  0
M  ISO  6  27  14  28  14  29  14  30  14  31  14  32   6
M  END
>  <minimizedAffinity>  (1) 
-6.16731215

>  <minimizedRMSD>  (1) 
2.17084575

$$$$
