
     RDKit          3D

 31 33  0  0  1  0  0  0  0  0999 V2000
   44.4170   35.7530   44.8810 C   0  0  0  0  0  0  0  0  0  0  0  0
   44.7230   35.3520   43.5540 C   0  0  0  0  0  0  0  0  0  0  0  0
   45.3840   34.1420   43.3960 C   0  0  0  0  0  0  0  0  0  0  0  0
   45.6620   33.4860   44.5170 N   0  0  0  0  0  0  0  0  0  0  0  0
   45.3840   33.8490   45.7620 C   0  0  0  0  0  0  0  0  0  0  0  0
   44.7520   34.9980   45.9550 N   0  0  0  0  0  0  0  0  0  0  0  0
   45.6260   33.8460   42.0320 C   0  0  0  0  0  0  0  0  0  0  0  0
   45.2460   33.2590   40.9880 N   0  0  0  0  0  0  0  0  0  0  0  0
   44.8850   32.7000   39.9960 C   0  0  0  0  0  0  0  0  0  0  0  0
   45.9980   33.2030   39.3870 N   0  0  0  0  0  0  0  0  0  0  0  0
   46.9100   33.9730   39.9700 C   0  0  0  0  0  0  0  0  0  0  0  0
   48.0580   34.4710   39.2650 C   0  0  0  0  0  0  0  0  0  0  0  0
   48.9370   35.2660   39.9670 C   0  0  0  0  0  0  0  0  0  0  0  0
   48.8460   35.6490   41.2900 C   0  0  0  0  0  0  0  0  0  0  0  0
   47.7220   35.1480   41.9400 C   0  0  0  0  0  0  0  0  0  0  0  0
   46.7510   34.3240   41.3260 C   0  0  0  0  0  0  0  0  0  0  0  0
   45.8490   32.8860   46.7770 C   0  0  0  0  0  0  0  0  0  0  0  0
   47.1430   33.0930   47.2070 F   0  0  0  0  0  0  0  0  0  0  0  0
   45.6220   31.6060   46.3430 F   0  0  0  0  0  0  0  0  0  0  0  0
   45.0510   33.0880   47.9100 F   0  0  0  0  0  0  0  0  0  0  0  0
   43.8918   36.7060   45.0422 H   0  0  0  0  0  0  0  0  0  0  0  0
   44.4482   35.9732   42.6888 H   0  0  0  0  0  0  0  0  0  0  0  0
   46.1958   32.9525   42.3270 H   0  0  0  0  0  0  0  0  0  0  0  0
   44.3361   33.7378   41.0497 H   0  0  0  0  0  0  0  0  0  0  0  0
   44.8578   31.6029   40.0705 H   0  0  0  0  0  0  0  0  0  0  0  0
   43.8778   32.8483   39.5795 H   0  0  0  0  0  0  0  0  0  0  0  0
   46.1425   32.9664   38.3950 H   0  0  0  0  0  0  0  0  0  0  0  0
   48.2286   34.2271   38.2060 H   0  0  0  0  0  0  0  0  0  0  0  0
   49.8100   35.6376   39.4104 H   0  0  0  0  0  0  0  0  0  0  0  0
   49.5914   36.2896   41.7839 H   0  0  0  0  0  0  0  0  0  0  0  0
   47.5800   35.4098   42.9989 H   0  0  0  0  0  0  0  0  0  0  0  0
  1  6  2  0
  2  1  1  0
  3  2  2  0
  3  4  1  0
  4  5  2  0
  5  6  1  0
  5 17  1  0
  7  3  1  0
  8  7  1  0
  9  8  1  0
 10 11  1  0
 10  9  1  0
 11 16  2  0
 12 13  2  0
 12 11  1  0
 13 14  1  0
 14 15  2  0
 16 15  1  0
 16  7  1  0
 17 18  1  0
 17 20  1  0
 19 17  1  0
  1 21  1  0
  2 22  1  0
  7 23  1  0
  8 24  1  0
  9 25  1  0
  9 26  1  0
 10 27  1  0
 12 28  1  0
 13 29  1  0
 14 30  1  0
 15 31  1  0
M  ISO  8  21  14  22  14  23  13  24   5  25  13  26  13  28  14  29  14
M  ISO  2  30  14  31  14
M  END
>  <minimizedAffinity>  (1) 
-6.06873083

>  <minimizedRMSD>  (1) 
1.54184365

$$$$
