
     RDKit          3D

 23 24  0  0  0  0  0  0  0  0999 V2000
   44.4500   35.9950   44.7940 C   0  0  0  0  0  0  0  0  0  0  0  0
   45.0790   35.9580   43.5320 C   0  0  0  0  0  0  0  0  0  0  0  0
   45.9620   34.9080   43.3110 C   0  0  0  0  0  0  0  0  0  0  0  0
   46.1690   33.9960   44.2930 N   0  0  0  0  0  0  0  0  0  0  0  0
   45.5370   34.0760   45.4920 C   0  0  0  0  0  0  0  0  0  0  0  0
   44.6860   35.0670   45.7380 N   0  0  0  0  0  0  0  0  0  0  0  0
   46.6890   34.7320   42.0600 C   0  0  0  0  0  0  0  0  0  0  0  0
   47.9140   35.3540   41.9400 C   0  0  0  0  0  0  0  0  0  0  0  0
   48.6600   35.2230   40.7650 C   0  0  0  0  0  0  0  0  0  0  0  0
   48.1530   34.4650   39.7320 C   0  0  0  0  0  0  0  0  0  0  0  0
   46.9160   33.8200   39.8140 C   0  0  0  0  0  0  0  0  0  0  0  0
   46.2290   33.9880   41.0000 C   0  0  0  0  0  0  0  0  0  0  0  0
   45.8980   32.9850   46.4230 C   0  0  0  0  0  0  0  0  0  0  0  0
   47.1690   33.0760   46.9370 F   0  0  0  0  0  0  0  0  0  0  0  0
   45.7250   31.7740   45.7480 F   0  0  0  0  0  0  0  0  0  0  0  0
   45.0050   32.9920   47.4730 F   0  0  0  0  0  0  0  0  0  0  0  0
   43.7436   36.8093   45.0130 H   0  0  0  0  0  0  0  0  0  0  0  0
   44.8811   36.7198   42.7636 H   0  0  0  0  0  0  0  0  0  0  0  0
   48.3060   35.9561   42.7729 H   0  0  0  0  0  0  0  0  0  0  0  0
   49.6375   35.7178   40.6665 H   0  0  0  0  0  0  0  0  0  0  0  0
   48.7434   34.3639   38.8094 H   0  0  0  0  0  0  0  0  0  0  0  0
   46.5150   33.2167   38.9862 H   0  0  0  0  0  0  0  0  0  0  0  0
   45.2511   33.4949   41.1029 H   0  0  0  0  0  0  0  0  0  0  0  0
  1  6  2  0
  2  1  1  0
  3  2  2  0
  3  4  1  0
  4  5  2  0
  5  6  1  0
  5 13  1  0
  7  3  1  0
  8  7  2  0
  9  8  1  0
 10 11  1  0
 10  9  2  0
 11 12  2  0
 12  7  1  0
 13 14  1  0
 13 16  1  0
 15 13  1  0
  1 17  1  0
  2 18  1  0
  8 19  1  0
  9 20  1  0
 10 21  1  0
 11 22  1  0
 12 23  1  0
M  ISO  7  17  14  18  14  19  14  20  14  21  14  22  14  23  14
M  END
>  <minimizedAffinity>  (1) 
-5.99134302

>  <minimizedRMSD>  (1) 
0.795677185

$$$$
