
     RDKit          3D

 21 22  0  0  0  0  0  0  0  0999 V2000
   44.4780   35.9320   44.7500 C   0  0  0  0  0  0  0  0  0  0  0  0
   45.1690   35.8650   43.5050 C   0  0  0  0  0  0  0  0  0  0  0  0
   46.0700   34.8160   43.3540 C   0  0  0  0  0  0  0  0  0  0  0  0
   46.2440   33.9330   44.3670 N   0  0  0  0  0  0  0  0  0  0  0  0
   45.5710   34.0280   45.5340 C   0  0  0  0  0  0  0  0  0  0  0  0
   44.6950   35.0300   45.7110 N   0  0  0  0  0  0  0  0  0  0  0  0
   46.8020   34.7050   42.0950 C   0  0  0  0  0  0  0  0  0  0  0  0
   48.0210   35.3220   41.9130 C   0  0  0  0  0  0  0  0  0  0  0  0
   48.5920   35.1240   40.6660 C   0  0  0  0  0  0  0  0  0  0  0  0
   48.0270   34.3920   39.6830 N   0  0  0  0  0  0  0  0  0  0  0  0
   46.8210   33.8010   39.9120 C   0  0  0  0  0  0  0  0  0  0  0  0
   46.2500   33.9780   41.1090 N   0  0  0  0  0  0  0  0  0  0  0  0
   45.9060   32.9670   46.4970 C   0  0  0  0  0  0  0  0  0  0  0  0
   47.1510   33.0580   47.0330 F   0  0  0  0  0  0  0  0  0  0  0  0
   45.6660   31.7400   45.8700 F   0  0  0  0  0  0  0  0  0  0  0  0
   44.9960   33.0410   47.5470 F   0  0  0  0  0  0  0  0  0  0  0  0
   43.7530   36.7411   44.9224 H   0  0  0  0  0  0  0  0  0  0  0  0
   44.9990   36.6028   42.7070 H   0  0  0  0  0  0  0  0  0  0  0  0
   48.5031   35.9248   42.6967 H   0  0  0  0  0  0  0  0  0  0  0  0
   49.5666   35.5927   40.4648 H   0  0  0  0  0  0  0  0  0  0  0  0
   46.3309   33.1958   39.1352 H   0  0  0  0  0  0  0  0  0  0  0  0
  1  6  2  0
  2  1  1  0
  3  2  2  0
  3  4  1  0
  4  5  2  0
  5  6  1  0
  5 13  1  0
  7  3  1  0
  8  7  2  0
  9  8  1  0
 10 11  1  0
 10  9  2  0
 11 12  2  0
 12  7  1  0
 13 14  1  0
 13 16  1  0
 15 13  1  0
  1 17  1  0
  2 18  1  0
  8 19  1  0
  9 20  1  0
 11 21  1  0
M  ISO  5  17  14  18  14  19  14  20  14  21  14
M  END
>  <minimizedAffinity>  (1) 
-5.44764185

>  <minimizedRMSD>  (1) 
0.353342891

$$$$
