
     RDKit          3D

 26 27  0  0  0  0  0  0  0  0999 V2000
   44.6370   36.0400   44.3510 C   0  0  0  0  0  0  0  0  0  0  0  0
   45.2940   35.8540   43.1030 C   0  0  0  0  0  0  0  0  0  0  0  0
   46.1280   34.7200   43.0020 C   0  0  0  0  0  0  0  0  0  0  0  0
   46.2510   33.8950   44.0700 N   0  0  0  0  0  0  0  0  0  0  0  0
   45.6060   34.1170   45.2280 C   0  0  0  0  0  0  0  0  0  0  0  0
   44.8120   35.1770   45.3570 N   0  0  0  0  0  0  0  0  0  0  0  0
   46.7690   34.5510   41.7680 N   0  0  0  0  0  0  0  0  0  0  0  0
   46.1170   33.8970   40.7720 C   0  0  0  0  0  0  0  0  0  0  0  0
   46.6950   33.6960   39.5340 C   0  0  0  0  0  0  0  0  0  0  0  0
   46.0140   32.9860   38.4200 C   0  0  0  0  0  0  0  0  0  0  0  0
   47.9850   34.1810   39.3030 C   0  0  0  0  0  0  0  0  0  0  0  0
   48.5520   34.0220   38.1880 O   0  0  0  0  0  0  0  0  0  0  0  0
   48.6310   34.8290   40.2890 N   0  0  0  0  0  0  0  0  0  0  0  0
   48.0050   34.9860   41.4680 C   0  0  0  0  0  0  0  0  0  0  0  0
   48.6280   35.6020   42.3960 O   0  0  0  0  0  0  0  0  0  0  0  0
   45.8980   33.0800   46.2490 C   0  0  0  0  0  0  0  0  0  0  0  0
   47.1370   33.1930   46.8290 F   0  0  0  0  0  0  0  0  0  0  0  0
   45.6570   31.8400   45.7010 F   0  0  0  0  0  0  0  0  0  0  0  0
   44.9620   33.2380   47.2710 F   0  0  0  0  0  0  0  0  0  0  0  0
   43.9748   36.9072   44.4904 H   0  0  0  0  0  0  0  0  0  0  0  0
   45.1597   36.5538   42.2650 H   0  0  0  0  0  0  0  0  0  0  0  0
   45.1012   33.5172   40.9564 H   0  0  0  0  0  0  0  0  0  0  0  0
   45.3079   32.2498   38.8317 H   0  0  0  0  0  0  0  0  0  0  0  0
   45.4669   33.7130   37.8019 H   0  0  0  0  0  0  0  0  0  0  0  0
   46.7632   32.4696   37.8019 H   0  0  0  0  0  0  0  0  0  0  0  0
   49.5824   35.1960   40.1440 H   0  0  0  0  0  0  0  0  0  0  0  0
  1  6  2  0
  2  1  1  0
  3  2  2  0
  3  4  1  0
  4  5  2  0
  5  6  1  0
  5 16  1  0
  7  3  1  0
  8  7  1  0
  9  8  2  0
 10  9  1  0
 11  9  1  0
 11 13  1  0
 12 11  2  0
 13 14  1  0
 14  7  1  0
 14 15  2  0
 16 17  1  0
 16 19  1  0
 18 16  1  0
  1 20  1  0
  2 21  1  0
  8 22  1  0
 10 23  1  0
 10 24  1  0
 10 25  1  0
 13 26  1  0
M  ISO  7  20  14  21  14  22  14  23   8  24   8  25   8  26   9
M  END
>  <minimizedAffinity>  (1) 
-5.89158392

>  <minimizedRMSD>  (1) 
0.502190888

$$$$
