
     RDKit          3D

 26 27  0  0  0  0  0  0  0  0999 V2000
   44.4990   35.8820   44.7560 C   0  0  0  0  0  0  0  0  0  0  0  0
   45.2270   35.8080   43.5390 C   0  0  0  0  0  0  0  0  0  0  0  0
   46.1370   34.7630   43.4350 C   0  0  0  0  0  0  0  0  0  0  0  0
   46.2880   33.8900   44.4550 N   0  0  0  0  0  0  0  0  0  0  0  0
   45.5750   33.9950   45.6000 C   0  0  0  0  0  0  0  0  0  0  0  0
   44.6770   34.9940   45.7510 N   0  0  0  0  0  0  0  0  0  0  0  0
   46.9040   34.6230   42.2450 N   0  0  0  0  0  0  0  0  0  0  0  0
   46.2540   34.3740   40.9870 C   0  0  0  0  0  0  0  0  0  0  0  0
   47.3500   33.9830   40.0170 C   0  0  0  0  0  0  0  0  0  0  0  0
   48.3580   34.9050   39.9020 O   0  0  0  0  0  0  0  0  0  0  0  0
   48.7590   35.5120   41.0640 C   0  0  0  0  0  0  0  0  0  0  0  0
   48.3490   34.7330   42.3040 C   0  0  0  0  0  0  0  0  0  0  0  0
   45.8820   32.9490   46.5920 C   0  0  0  0  0  0  0  0  0  0  0  0
   47.1400   33.0450   47.1340 F   0  0  0  0  0  0  0  0  0  0  0  0
   45.6620   31.7140   45.9890 F   0  0  0  0  0  0  0  0  0  0  0  0
   44.9670   33.0470   47.6240 F   0  0  0  0  0  0  0  0  0  0  0  0
   43.7660   36.6913   44.8895 H   0  0  0  0  0  0  0  0  0  0  0  0
   45.0793   36.5349   42.7267 H   0  0  0  0  0  0  0  0  0  0  0  0
   45.5253   33.5564   41.0892 H   0  0  0  0  0  0  0  0  0  0  0  0
   45.7049   35.2603   40.6364 H   0  0  0  0  0  0  0  0  0  0  0  0
   47.7889   33.0337   40.3578 H   0  0  0  0  0  0  0  0  0  0  0  0
   46.8798   33.9056   39.0256 H   0  0  0  0  0  0  0  0  0  0  0  0
   49.8550   35.6045   41.0528 H   0  0  0  0  0  0  0  0  0  0  0  0
   48.2686   36.4955   41.1119 H   0  0  0  0  0  0  0  0  0  0  0  0
   48.6548   35.2719   43.2129 H   0  0  0  0  0  0  0  0  0  0  0  0
   48.8283   33.7434   42.3359 H   0  0  0  0  0  0  0  0  0  0  0  0
  1  6  2  0
  2  1  1  0
  3  2  2  0
  3  4  1  0
  4  5  2  0
  5  6  1  0
  5 13  1  0
  7 12  1  0
  7  3  1  0
  8  7  1  0
  9  8  1  0
 10  9  1  0
 10 11  1  0
 11 12  1  0
 13 14  1  0
 13 16  1  0
 15 13  1  0
  1 17  1  0
  2 18  1  0
  8 19  1  0
  8 20  1  0
  9 21  1  0
  9 22  1  0
 11 23  1  0
 11 24  1  0
 12 25  1  0
 12 26  1  0
M  ISO  8  17  14  18  14  19  13  20  13  21  13  22  13  23  13  24  13
M  ISO  2  25  13  26  13
M  END
>  <minimizedAffinity>  (1) 
-5.40042114

>  <minimizedRMSD>  (1) 
0.385609061

$$$$
