
     RDKit          3D

 20 21  0  0  0  0  0  0  0  0999 V2000
   44.4970   36.0040   44.5980 C   0  0  0  0  0  0  0  0  0  0  0  0
   45.1840   35.9420   43.3690 C   0  0  0  0  0  0  0  0  0  0  0  0
   46.0890   34.8840   43.2110 C   0  0  0  0  0  0  0  0  0  0  0  0
   46.2460   33.9980   44.2330 N   0  0  0  0  0  0  0  0  0  0  0  0
   45.5590   34.1050   45.3950 C   0  0  0  0  0  0  0  0  0  0  0  0
   44.6930   35.1000   45.5710 N   0  0  0  0  0  0  0  0  0  0  0  0
   46.8270   34.7420   42.0010 N   0  0  0  0  0  0  0  0  0  0  0  0
   46.5900   34.1380   40.8440 N   0  0  0  0  0  0  0  0  0  0  0  0
   47.6360   34.3060   40.0120 C   0  0  0  0  0  0  0  0  0  0  0  0
   48.5670   35.0590   40.7060 C   0  0  0  0  0  0  0  0  0  0  0  0
   48.0400   35.3270   41.9650 C   0  0  0  0  0  0  0  0  0  0  0  0
   45.8800   33.0370   46.3750 C   0  0  0  0  0  0  0  0  0  0  0  0
   47.1450   33.1400   46.9050 F   0  0  0  0  0  0  0  0  0  0  0  0
   45.6690   31.8080   45.7500 F   0  0  0  0  0  0  0  0  0  0  0  0
   44.9840   33.1180   47.4190 F   0  0  0  0  0  0  0  0  0  0  0  0
   43.7774   36.8189   44.7653 H   0  0  0  0  0  0  0  0  0  0  0  0
   45.0184   36.6853   42.5753 H   0  0  0  0  0  0  0  0  0  0  0  0
   47.7312   33.9214   38.9858 H   0  0  0  0  0  0  0  0  0  0  0  0
   49.5473   35.3866   40.3296 H   0  0  0  0  0  0  0  0  0  0  0  0
   48.5186   35.9023   42.7712 H   0  0  0  0  0  0  0  0  0  0  0  0
  1  6  2  0
  2  1  1  0
  3  2  2  0
  3  4  1  0
  4  5  2  0
  5  6  1  0
  5 12  1  0
  7  3  1  0
  8  7  1  0
  9 10  1  0
  9  8  2  0
 10 11  2  0
 11  7  1  0
 12 13  1  0
 12 15  1  0
 14 12  1  0
  1 16  1  0
  2 17  1  0
  9 18  1  0
 10 19  1  0
 11 20  1  0
M  ISO  5  16  14  17  14  18  14  19  14  20  14
M  END
>  <minimizedAffinity>  (1) 
-5.2943759

>  <minimizedRMSD>  (1) 
0.463005781

$$$$
