
     RDKit          3D

 25 26  0  0  0  0  0  0  0  0999 V2000
   44.5620   35.7880   44.6710 C   0  0  0  0  0  0  0  0  0  0  0  0
   45.3180   35.6820   43.4920 C   0  0  0  0  0  0  0  0  0  0  0  0
   46.2400   34.6400   43.4450 C   0  0  0  0  0  0  0  0  0  0  0  0
   46.3700   33.7950   44.4960 N   0  0  0  0  0  0  0  0  0  0  0  0
   45.6140   33.9390   45.6140 C   0  0  0  0  0  0  0  0  0  0  0  0
   44.7100   34.9350   45.7040 N   0  0  0  0  0  0  0  0  0  0  0  0
   47.0480   34.4610   42.2860 N   0  0  0  0  0  0  0  0  0  0  0  0
   46.8830   33.4070   41.3070 C   0  0  0  0  0  0  0  0  0  0  0  0
   47.2640   34.0930   40.0140 C   0  0  0  0  0  0  0  0  0  0  0  0
   48.4330   34.9520   40.4450 C   0  0  0  0  0  0  0  0  0  0  0  0
   48.1580   35.2910   41.8920 C   0  0  0  0  0  0  0  0  0  0  0  0
   45.8910   32.9350   46.6490 C   0  0  0  0  0  0  0  0  0  0  0  0
   47.1540   33.0260   47.1930 F   0  0  0  0  0  0  0  0  0  0  0  0
   45.6500   31.6820   46.1280 F   0  0  0  0  0  0  0  0  0  0  0  0
   44.9980   33.1080   47.6880 F   0  0  0  0  0  0  0  0  0  0  0  0
   43.8216   36.5973   44.7544 H   0  0  0  0  0  0  0  0  0  0  0  0
   45.1889   36.3824   42.6536 H   0  0  0  0  0  0  0  0  0  0  0  0
   47.5522   32.5601   41.5191 H   0  0  0  0  0  0  0  0  0  0  0  0
   45.8698   32.9789   41.2924 H   0  0  0  0  0  0  0  0  0  0  0  0
   46.4370   34.7077   39.6291 H   0  0  0  0  0  0  0  0  0  0  0  0
   47.5033   33.3967   39.1968 H   0  0  0  0  0  0  0  0  0  0  0  0
   49.3770   34.3952   40.3512 H   0  0  0  0  0  0  0  0  0  0  0  0
   48.5350   35.8529   39.8221 H   0  0  0  0  0  0  0  0  0  0  0  0
   49.0399   35.0704   42.5113 H   0  0  0  0  0  0  0  0  0  0  0  0
   47.9303   36.3594   42.0211 H   0  0  0  0  0  0  0  0  0  0  0  0
  1  6  2  0
  2  1  1  0
  3  2  2  0
  3  4  1  0
  4  5  2  0
  5  6  1  0
  5 12  1  0
  7  3  1  0
  8  7  1  0
  9 10  1  0
  9  8  1  0
 10 11  1  0
 11  7  1  0
 12 13  1  0
 12 15  1  0
 14 12  1  0
  1 16  1  0
  2 17  1  0
  8 18  1  0
  8 19  1  0
  9 20  1  0
  9 21  1  0
 10 22  1  0
 10 23  1  0
 11 24  1  0
 11 25  1  0
M  ISO  8  16  14  17  14  18  13  19  13  20  13  21  13  22  13  23  13
M  ISO  2  24  13  25  13
M  END
>  <minimizedAffinity>  (1) 
-5.19017696

>  <minimizedRMSD>  (1) 
0.621742189

$$$$
