
     RDKit          3D

 31 33  0  0  0  0  0  0  0  0999 V2000
   46.7410   34.7850   42.1030 N   0  0  0  0  0  0  0  0  0  0  0  0
   48.0070   35.1670   41.9710 C   0  0  0  0  0  0  0  0  0  0  0  0
   48.3630   34.8760   40.6880 C   0  0  0  0  0  0  0  0  0  0  0  0
   47.3030   34.3270   40.0840 N   0  0  0  0  0  0  0  0  0  0  0  0
   46.2880   34.2630   40.9500 C   0  0  0  0  0  0  0  0  0  0  0  0
   44.9730   33.7590   40.7570 N   0  0  0  0  0  0  0  0  0  0  0  0
   44.0560   34.7570   40.8940 C   0  0  0  0  0  0  0  0  0  0  0  0
   42.6970   34.4950   40.7470 C   0  0  0  0  0  0  0  0  0  0  0  0
   42.3760   33.1660   40.4560 C   0  0  0  0  0  0  0  0  0  0  0  0
   40.9840   32.8580   40.2970 N   0  0  0  0  0  0  0  0  0  0  0  0
   43.2980   32.1940   40.3250 N   0  0  0  0  0  0  0  0  0  0  0  0
   44.5960   32.5160   40.4810 C   0  0  0  0  0  0  0  0  0  0  0  0
   45.5440   31.6800   40.3780 O   0  0  0  0  0  0  0  0  0  0  0  0
   44.4860   36.0390   44.7830 C   0  0  0  0  0  0  0  0  0  0  0  0
   45.1550   35.9940   43.5280 C   0  0  0  0  0  0  0  0  0  0  0  0
   46.0150   34.9320   43.3260 C   0  0  0  0  0  0  0  0  0  0  0  0
   46.1770   34.0070   44.3090 N   0  0  0  0  0  0  0  0  0  0  0  0
   45.5330   34.0780   45.4770 C   0  0  0  0  0  0  0  0  0  0  0  0
   44.6810   35.1030   45.7140 N   0  0  0  0  0  0  0  0  0  0  0  0
   45.8490   32.9700   46.4150 C   0  0  0  0  0  0  0  0  0  0  0  0
   47.1080   33.0720   46.9520 F   0  0  0  0  0  0  0  0  0  0  0  0
   45.6470   31.7810   45.7630 F   0  0  0  0  0  0  0  0  0  0  0  0
   44.9550   33.0260   47.4620 F   0  0  0  0  0  0  0  0  0  0  0  0
   48.6412   35.6265   42.7434 H   0  0  0  0  0  0  0  0  0  0  0  0
   49.3464   35.0597   40.2307 H   0  0  0  0  0  0  0  0  0  0  0  0
   44.3926   35.7789   41.1228 H   0  0  0  0  0  0  0  0  0  0  0  0
   41.9309   35.2773   40.8522 H   0  0  0  0  0  0  0  0  0  0  0  0
   40.6911   31.8943   40.0818 H   0  0  0  0  0  0  0  0  0  0  0  0
   40.2774   33.6006   40.3980 H   0  0  0  0  0  0  0  0  0  0  0  0
   43.7909   36.8658   44.9910 H   0  0  0  0  0  0  0  0  0  0  0  0
   44.9958   36.7643   42.7591 H   0  0  0  0  0  0  0  0  0  0  0  0
  1 16  1  0
  2  1  1  0
  3  2  2  0
  4  3  1  0
  4  5  2  0
  5  1  1  0
  6  7  1  0
  6  5  1  0
  8  7  2  0
  9  8  1  0
 10  9  1  0
 11  9  2  0
 11 12  1  0
 12  6  1  0
 13 12  2  0
 14 19  2  0
 15 14  1  0
 16 15  2  0
 16 17  1  0
 17 18  2  0
 18 19  1  0
 18 20  1  0
 20 21  1  0
 20 23  1  0
 22 20  1  0
  2 24  1  0
  3 25  1  0
  7 26  1  0
  8 27  1  0
 10 28  1  0
 10 29  1  0
 14 30  1  0
 15 31  1  0
M  ISO  6  24  14  25  14  26  14  27  14  30  14  31  14
M  END
>  <minimizedAffinity>  (1) 
-6.44670868

>  <minimizedRMSD>  (1) 
0.215052158

$$$$
