
     RDKit          3D

 34 36  0  0  1  0  0  0  0  0999 V2000
   46.6660   34.7430   42.1510 N   0  0  0  0  0  0  0  0  0  0  0  0
   47.9370   35.1310   41.9980 C   0  0  0  0  0  0  0  0  0  0  0  0
   48.2620   34.8420   40.7100 C   0  0  0  0  0  0  0  0  0  0  0  0
   47.1890   34.2910   40.1150 N   0  0  0  0  0  0  0  0  0  0  0  0
   46.1790   34.2210   41.0060 C   0  0  0  0  0  0  0  0  0  0  0  0
   44.4590   35.9830   44.8810 C   0  0  0  0  0  0  0  0  0  0  0  0
   45.0980   35.9440   43.6130 C   0  0  0  0  0  0  0  0  0  0  0  0
   45.9670   34.8870   43.3860 C   0  0  0  0  0  0  0  0  0  0  0  0
   46.1590   33.9610   44.3680 N   0  0  0  0  0  0  0  0  0  0  0  0
   45.5420   34.0260   45.5530 C   0  0  0  0  0  0  0  0  0  0  0  0
   44.6830   35.0470   45.8130 N   0  0  0  0  0  0  0  0  0  0  0  0
   45.8820   32.9280   46.4850 C   0  0  0  0  0  0  0  0  0  0  0  0
   47.1450   33.0280   46.9890 F   0  0  0  0  0  0  0  0  0  0  0  0
   45.6770   31.7350   45.8240 F   0  0  0  0  0  0  0  0  0  0  0  0
   44.9900   32.9610   47.5350 F   0  0  0  0  0  0  0  0  0  0  0  0
   44.7920   33.6740   40.7730 C   0  0  2  0  0  0  0  0  0  0  0  0
   44.7850   32.6260   39.7140 C   0  0  0  0  0  0  0  0  0  0  0  0
   43.9940   32.8770   38.4850 C   0  0  0  0  0  0  0  0  0  0  0  0
   42.9000   33.8670   38.5780 C   0  0  0  0  0  0  0  0  0  0  0  0
   42.6140   34.3900   39.9460 C   0  0  0  0  0  0  0  0  0  0  0  0
   43.9170   34.8490   40.5290 C   0  0  0  0  0  0  0  0  0  0  0  0
   48.5861   35.5898   42.7584 H   0  0  0  0  0  0  0  0  0  0  0  0
   49.2368   35.0273   40.2352 H   0  0  0  0  0  0  0  0  0  0  0  0
   43.7614   36.8038   45.1037 H   0  0  0  0  0  0  0  0  0  0  0  0
   44.9129   36.7136   42.8492 H   0  0  0  0  0  0  0  0  0  0  0  0
   44.3988   33.1297   41.6443 H   0  0  0  0  0  0  0  0  0  0  0  0
   45.8286   32.4688   39.4038 H   0  0  0  0  0  0  0  0  0  0  0  0
   44.2894   31.7649   40.1860 H   0  0  0  0  0  0  0  0  0  0  0  0
   44.2119   32.3493   37.5447 H   0  0  0  0  0  0  0  0  0  0  0  0
   42.3330   34.1970   37.6951 H   0  0  0  0  0  0  0  0  0  0  0  0
   41.9101   35.2332   39.8871 H   0  0  0  0  0  0  0  0  0  0  0  0
   42.1595   33.6098   40.5742 H   0  0  0  0  0  0  0  0  0  0  0  0
   44.4119   35.5349   39.8257 H   0  0  0  0  0  0  0  0  0  0  0  0
   43.7299   35.3702   41.4794 H   0  0  0  0  0  0  0  0  0  0  0  0
  1  8  1  0
  2  1  1  0
  3  2  2  0
  4  3  1  0
  4  5  2  0
  5  1  1  0
  6 11  2  0
  7  6  1  0
  8  7  2  0
  8  9  1  0
  9 10  2  0
 10 11  1  0
 10 12  1  0
 12 13  1  0
 12 15  1  0
 14 12  1  0
 16  5  1  0
 17 16  1  0
 18 19  2  0
 18 17  1  0
 19 20  1  0
 20 21  1  0
 21 16  1  0
  2 22  1  0
  3 23  1  0
  6 24  1  0
  7 25  1  0
 16 26  1  1
 17 27  1  0
 17 28  1  0
 18 29  1  0
 19 30  1  0
 20 31  1  0
 20 32  1  0
 21 33  1  0
 21 34  1  0
M  ISO  8  22  14  23  14  24  14  25  14  26  13  27  13  28  13  29  13
M  ISO  5  30  13  31  13  32  13  33  13  34  13
M  END
>  <minimizedAffinity>  (1) 
-5.99458551

>  <minimizedRMSD>  (1) 
0.468089372

$$$$
