
     RDKit          3D

 33 35  0  0  0  0  0  0  0  0999 V2000
   44.4830   36.0520   44.6010 C   0  0  0  0  0  0  0  0  0  0  0  0
   45.1920   36.0230   43.3720 C   0  0  0  0  0  0  0  0  0  0  0  0
   46.0940   34.9840   43.2020 C   0  0  0  0  0  0  0  0  0  0  0  0
   46.2400   34.0800   44.2040 N   0  0  0  0  0  0  0  0  0  0  0  0
   45.5610   34.1300   45.3480 C   0  0  0  0  0  0  0  0  0  0  0  0
   44.6720   35.1280   45.5510 N   0  0  0  0  0  0  0  0  0  0  0  0
   46.8750   34.8400   42.0040 N   0  0  0  0  0  0  0  0  0  0  0  0
   48.1170   35.3070   41.8990 C   0  0  0  0  0  0  0  0  0  0  0  0
   48.5250   34.9880   40.6430 C   0  0  0  0  0  0  0  0  0  0  0  0
   47.5150   34.3410   40.0370 N   0  0  0  0  0  0  0  0  0  0  0  0
   46.4890   34.2460   40.8750 C   0  0  0  0  0  0  0  0  0  0  0  0
   45.1640   33.6330   40.6890 C   0  0  0  0  0  0  0  0  0  0  0  0
   44.0070   34.5870   40.8540 C   0  0  0  0  0  0  0  0  0  0  0  0
   42.8620   33.5670   40.9350 C   0  0  0  0  0  0  0  0  0  0  0  0
   43.3920   32.6410   42.0190 C   0  0  0  0  0  0  0  0  0  0  0  0
   44.8710   32.5530   41.7040 C   0  0  0  0  0  0  0  0  0  0  0  0
   45.8740   33.0410   46.3050 C   0  0  0  0  0  0  0  0  0  0  0  0
   47.1220   33.1270   46.8340 F   0  0  0  0  0  0  0  0  0  0  0  0
   45.6570   31.8350   45.6510 F   0  0  0  0  0  0  0  0  0  0  0  0
   44.9520   33.1000   47.3380 F   0  0  0  0  0  0  0  0  0  0  0  0
   43.7560   36.8583   44.7784 H   0  0  0  0  0  0  0  0  0  0  0  0
   45.0341   36.7852   42.5948 H   0  0  0  0  0  0  0  0  0  0  0  0
   48.6934   35.8404   42.6692 H   0  0  0  0  0  0  0  0  0  0  0  0
   49.5059   35.2180   40.2014 H   0  0  0  0  0  0  0  0  0  0  0  0
   45.2327   33.2538   39.6587 H   0  0  0  0  0  0  0  0  0  0  0  0
   44.0930   35.1840   41.7739 H   0  0  0  0  0  0  0  0  0  0  0  0
   43.9065   35.3484   40.0665 H   0  0  0  0  0  0  0  0  0  0  0  0
   41.9156   34.0417   41.2334 H   0  0  0  0  0  0  0  0  0  0  0  0
   42.6232   33.0694   39.9835 H   0  0  0  0  0  0  0  0  0  0  0  0
   43.2261   33.0683   43.0190 H   0  0  0  0  0  0  0  0  0  0  0  0
   42.8938   31.6604   42.0311 H   0  0  0  0  0  0  0  0  0  0  0  0
   45.1113   31.5644   41.2857 H   0  0  0  0  0  0  0  0  0  0  0  0
   45.4775   32.6882   42.6117 H   0  0  0  0  0  0  0  0  0  0  0  0
  1  6  2  0
  2  1  1  0
  3  2  2  0
  3  4  1  0
  4  5  2  0
  5  6  1  0
  5 17  1  0
  7  3  1  0
  8  7  1  0
  9  8  2  0
 10  9  1  0
 10 11  2  0
 11  7  1  0
 12 13  1  0
 12 11  1  0
 12 16  1  0
 13 14  1  0
 14 15  1  0
 16 15  1  0
 17 18  1  0
 17 20  1  0
 19 17  1  0
  1 21  1  0
  2 22  1  0
  8 23  1  0
  9 24  1  0
 12 25  1  0
 13 26  1  0
 13 27  1  0
 14 28  1  0
 14 29  1  0
 15 30  1  0
 15 31  1  0
 16 32  1  0
 16 33  1  0
M  ISO  8  21  14  22  14  23  14  24  14  25  13  26  13  27  13  28  13
M  ISO  5  29  13  30  13  31  13  32  13  33  13
M  END
>  <minimizedAffinity>  (1) 
-5.77611256

>  <minimizedRMSD>  (1) 
0.430191845

$$$$
