
     RDKit          3D

 25 27  0  0  0  0  0  0  0  0999 V2000
   46.6880   34.7150   42.1460 N   0  0  0  0  0  0  0  0  0  0  0  0
   47.9830   35.0130   42.0440 C   0  0  0  0  0  0  0  0  0  0  0  0
   48.3000   34.7400   40.7400 C   0  0  0  0  0  0  0  0  0  0  0  0
   47.2010   34.2950   40.1180 N   0  0  0  0  0  0  0  0  0  0  0  0
   46.1800   34.2740   40.9920 C   0  0  0  0  0  0  0  0  0  0  0  0
   44.4570   35.9820   44.8670 C   0  0  0  0  0  0  0  0  0  0  0  0
   45.1050   35.9350   43.5950 C   0  0  0  0  0  0  0  0  0  0  0  0
   45.9780   34.8710   43.3870 C   0  0  0  0  0  0  0  0  0  0  0  0
   46.1540   33.9700   44.3780 N   0  0  0  0  0  0  0  0  0  0  0  0
   45.5330   34.0410   45.5610 C   0  0  0  0  0  0  0  0  0  0  0  0
   44.6790   35.0560   45.8040 N   0  0  0  0  0  0  0  0  0  0  0  0
   45.8750   32.9470   46.4980 C   0  0  0  0  0  0  0  0  0  0  0  0
   47.1350   33.0520   47.0140 F   0  0  0  0  0  0  0  0  0  0  0  0
   45.6580   31.7440   45.8490 F   0  0  0  0  0  0  0  0  0  0  0  0
   44.9730   32.9920   47.5480 F   0  0  0  0  0  0  0  0  0  0  0  0
   44.7740   33.8680   40.8020 C   0  0  0  0  0  0  0  0  0  0  0  0
   44.2620   32.6090   40.9420 N   0  0  0  0  0  0  0  0  0  0  0  0
   43.0050   32.6790   40.6900 O   0  0  0  0  0  0  0  0  0  0  0  0
   42.6440   33.9120   40.3870 C   0  0  0  0  0  0  0  0  0  0  0  0
   43.7490   34.6690   40.4560 N   0  0  0  0  0  0  0  0  0  0  0  0
   48.6492   35.3937   42.8322 H   0  0  0  0  0  0  0  0  0  0  0  0
   49.2915   34.8653   40.2805 H   0  0  0  0  0  0  0  0  0  0  0  0
   43.7564   36.8026   45.0808 H   0  0  0  0  0  0  0  0  0  0  0  0
   44.9242   36.6972   42.8228 H   0  0  0  0  0  0  0  0  0  0  0  0
   41.6310   34.2533   40.1276 H   0  0  0  0  0  0  0  0  0  0  0  0
  1  8  1  0
  2  1  1  0
  3  2  2  0
  4  3  1  0
  4  5  2  0
  5  1  1  0
  6 11  2  0
  7  6  1  0
  8  7  2  0
  8  9  1  0
  9 10  2  0
 10 11  1  0
 10 12  1  0
 12 13  1  0
 12 15  1  0
 14 12  1  0
 16 17  2  0
 16  5  1  0
 18 17  1  0
 19 20  2  0
 19 18  1  0
 20 16  1  0
  2 21  1  0
  3 22  1  0
  6 23  1  0
  7 24  1  0
 19 25  1  0
M  ISO  5  21  14  22  14  23  14  24  14  25  14
M  END
>  <minimizedAffinity>  (1) 
-5.65243053

>  <minimizedRMSD>  (1) 
0.551390052

$$$$
