
     RDKit          3D

 26 28  0  0  0  0  0  0  0  0999 V2000
   46.7140   34.7120   42.1670 N   0  0  0  0  0  0  0  0  0  0  0  0
   48.0210   34.9470   42.0830 C   0  0  0  0  0  0  0  0  0  0  0  0
   48.3440   34.6960   40.7880 C   0  0  0  0  0  0  0  0  0  0  0  0
   47.2260   34.3240   40.1500 N   0  0  0  0  0  0  0  0  0  0  0  0
   46.1920   34.3250   40.9930 C   0  0  0  0  0  0  0  0  0  0  0  0
   44.4580   35.9800   44.8700 C   0  0  0  0  0  0  0  0  0  0  0  0
   45.1150   35.9300   43.6080 C   0  0  0  0  0  0  0  0  0  0  0  0
   45.9870   34.8690   43.4080 C   0  0  0  0  0  0  0  0  0  0  0  0
   46.1610   33.9620   44.4020 N   0  0  0  0  0  0  0  0  0  0  0  0
   45.5310   34.0330   45.5780 C   0  0  0  0  0  0  0  0  0  0  0  0
   44.6710   35.0550   45.8130 N   0  0  0  0  0  0  0  0  0  0  0  0
   45.8570   32.9470   46.5270 C   0  0  0  0  0  0  0  0  0  0  0  0
   47.1300   33.0320   47.0390 F   0  0  0  0  0  0  0  0  0  0  0  0
   45.6600   31.7420   45.8830 F   0  0  0  0  0  0  0  0  0  0  0  0
   44.9790   32.9960   47.5730 F   0  0  0  0  0  0  0  0  0  0  0  0
   44.7850   33.9970   40.7740 C   0  0  0  0  0  0  0  0  0  0  0  0
   44.3460   32.5820   40.9090 C   0  0  0  0  0  0  0  0  0  0  0  0
   42.5960   32.6460   40.5660 S   0  0  0  0  0  0  0  0  0  0  0  0
   42.6650   34.5270   40.2890 C   0  0  0  0  0  0  0  0  0  0  0  0
   43.7710   34.7700   40.4610 N   0  0  0  0  0  0  0  0  0  0  0  0
   48.6946   35.2741   42.8888 H   0  0  0  0  0  0  0  0  0  0  0  0
   49.3458   34.7827   40.3420 H   0  0  0  0  0  0  0  0  0  0  0  0
   43.7560   36.8016   45.0755 H   0  0  0  0  0  0  0  0  0  0  0  0
   44.9409   36.6912   42.8333 H   0  0  0  0  0  0  0  0  0  0  0  0
   44.9568   31.7026   41.1611 H   0  0  0  0  0  0  0  0  0  0  0  0
   41.8450   35.2122   40.0280 H   0  0  0  0  0  0  0  0  0  0  0  0
  1  8  1  0
  2  1  1  0
  3  2  2  0
  4  3  1  0
  4  5  2  0
  5  1  1  0
  6 11  2  0
  7  6  1  0
  8  7  2  0
  8  9  1  0
  9 10  2  0
 10 11  1  0
 10 12  1  0
 12 13  1  0
 12 15  1  0
 14 12  1  0
 16 17  2  0
 16  5  1  0
 18 17  1  0
 19 20  2  0
 19 18  1  0
 20 16  1  0
  2 21  1  0
  3 22  1  0
  6 23  1  0
  7 24  1  0
 17 25  1  0
 19 26  1  0
M  ISO  6  21  14  22  14  23  14  24  14  25  14  26  14
M  END
>  <minimizedAffinity>  (1) 
-5.70012856

>  <minimizedRMSD>  (1) 
0.594915509

$$$$
