
     RDKit          3D

 23 24  0  0  0  0  0  0  0  0999 V2000
   44.4670   35.9930   44.7280 C   0  0  0  0  0  0  0  0  0  0  0  0
   45.1490   35.9610   43.4790 C   0  0  0  0  0  0  0  0  0  0  0  0
   46.0440   34.9270   43.2900 C   0  0  0  0  0  0  0  0  0  0  0  0
   46.2200   34.0160   44.2870 N   0  0  0  0  0  0  0  0  0  0  0  0
   45.5660   34.0770   45.4420 C   0  0  0  0  0  0  0  0  0  0  0  0
   44.6820   35.0680   45.6710 N   0  0  0  0  0  0  0  0  0  0  0  0
   46.7940   34.7850   42.0730 N   0  0  0  0  0  0  0  0  0  0  0  0
   48.0520   35.2120   41.9520 C   0  0  0  0  0  0  0  0  0  0  0  0
   48.4130   34.9040   40.6780 C   0  0  0  0  0  0  0  0  0  0  0  0
   47.3830   34.3100   40.0720 N   0  0  0  0  0  0  0  0  0  0  0  0
   46.3560   34.2270   40.9350 C   0  0  0  0  0  0  0  0  0  0  0  0
   45.0270   33.6340   40.6520 C   0  0  0  0  0  0  0  0  0  0  0  0
   45.9010   32.9880   46.3960 C   0  0  0  0  0  0  0  0  0  0  0  0
   47.1640   33.0930   46.9180 F   0  0  0  0  0  0  0  0  0  0  0  0
   45.6980   31.7760   45.7420 F   0  0  0  0  0  0  0  0  0  0  0  0
   45.0020   33.0380   47.4390 F   0  0  0  0  0  0  0  0  0  0  0  0
   43.7444   36.7991   44.9232 H   0  0  0  0  0  0  0  0  0  0  0  0
   44.9720   36.7213   42.7040 H   0  0  0  0  0  0  0  0  0  0  0  0
   48.6658   35.7072   42.7188 H   0  0  0  0  0  0  0  0  0  0  0  0
   49.3925   35.1104   40.2219 H   0  0  0  0  0  0  0  0  0  0  0  0
   44.5175   33.4067   41.6000 H   0  0  0  0  0  0  0  0  0  0  0  0
   44.4227   34.3479   40.0730 H   0  0  0  0  0  0  0  0  0  0  0  0
   45.1547   32.7075   40.0730 H   0  0  0  0  0  0  0  0  0  0  0  0
  1  6  2  0
  2  1  1  0
  3  2  2  0
  3  4  1  0
  4  5  2  0
  5  6  1  0
  5 13  1  0
  7  3  1  0
  8  7  1  0
  9  8  2  0
 10  9  1  0
 10 11  2  0
 11  7  1  0
 12 11  1  0
 13 14  1  0
 13 16  1  0
 15 13  1  0
  1 17  1  0
  2 18  1  0
  8 19  1  0
  9 20  1  0
 12 21  1  0
 12 22  1  0
 12 23  1  0
M  ISO  7  17  14  18  14  19  14  20  14  21   8  22   8  23   8
M  END
>  <minimizedAffinity>  (1) 
-5.32321739

>  <minimizedRMSD>  (1) 
0.0297970232

$$$$
