
     RDKit          3D

 35 37  0  0  0  0  0  0  0  0999 V2000
   46.7450   34.6900   42.2650 N   0  0  0  0  0  0  0  0  0  0  0  0
   47.9920   35.1710   42.1140 C   0  0  0  0  0  0  0  0  0  0  0  0
   48.3000   34.9460   40.8050 C   0  0  0  0  0  0  0  0  0  0  0  0
   47.2650   34.3540   40.2160 N   0  0  0  0  0  0  0  0  0  0  0  0
   46.2790   34.1850   41.1180 C   0  0  0  0  0  0  0  0  0  0  0  0
   45.0020   33.5980   40.8860 N   0  0  0  0  0  0  0  0  0  0  0  0
   44.5500   33.1340   39.5530 C   0  0  0  0  0  0  0  0  0  0  0  0
   43.2690   33.8420   39.2490 C   0  0  0  0  0  0  0  0  0  0  0  0
   42.9960   34.8260   40.1860 O   0  0  0  0  0  0  0  0  0  0  0  0
   42.8550   34.3360   41.4800 C   0  0  0  0  0  0  0  0  0  0  0  0
   43.9800   33.3880   41.8810 C   0  0  0  0  0  0  0  0  0  0  0  0
   44.5790   35.6990   45.0950 C   0  0  0  0  0  0  0  0  0  0  0  0
   45.1980   35.7810   43.8330 C   0  0  0  0  0  0  0  0  0  0  0  0
   46.0630   34.7430   43.5240 C   0  0  0  0  0  0  0  0  0  0  0  0
   46.2760   33.7180   44.4200 N   0  0  0  0  0  0  0  0  0  0  0  0
   45.6580   33.6970   45.6020 C   0  0  0  0  0  0  0  0  0  0  0  0
   44.8020   34.6900   45.9500 N   0  0  0  0  0  0  0  0  0  0  0  0
   45.9920   32.5320   46.4460 C   0  0  0  0  0  0  0  0  0  0  0  0
   47.2850   32.5410   46.8930 F   0  0  0  0  0  0  0  0  0  0  0  0
   45.7320   31.3820   45.7060 F   0  0  0  0  0  0  0  0  0  0  0  0
   45.1770   32.5080   47.5380 F   0  0  0  0  0  0  0  0  0  0  0  0
   44.9800   36.8770   42.9240 C   0  0  0  0  0  0  0  0  0  0  0  0
   45.2340   38.0330   43.3510 O   0  0  0  0  0  0  0  0  0  0  0  0
   48.6253   35.6430   42.8797 H   0  0  0  0  0  0  0  0  0  0  0  0
   49.2492   35.2108   40.3161 H   0  0  0  0  0  0  0  0  0  0  0  0
   45.3058   33.3793   38.7924 H   0  0  0  0  0  0  0  0  0  0  0  0
   44.4041   32.0437   39.5480 H   0  0  0  0  0  0  0  0  0  0  0  0
   43.3450   34.3067   38.2549 H   0  0  0  0  0  0  0  0  0  0  0  0
   42.4531   33.1047   39.2762 H   0  0  0  0  0  0  0  0  0  0  0  0
   42.8465   35.1859   42.1782 H   0  0  0  0  0  0  0  0  0  0  0  0
   41.9145   33.7667   41.5169 H   0  0  0  0  0  0  0  0  0  0  0  0
   43.6324   32.3444   41.8669 H   0  0  0  0  0  0  0  0  0  0  0  0
   44.3442   33.5795   42.9011 H   0  0  0  0  0  0  0  0  0  0  0  0
   43.8826   36.4968   45.3925 H   0  0  0  0  0  0  0  0  0  0  0  0
   44.6081   36.7107   41.9022 H   0  0  0  0  0  0  0  0  0  0  0  0
  1 14  1  0
  2  1  1  0
  3  2  2  0
  4  3  1  0
  4  5  2  0
  5  1  1  0
  6  5  1  0
  6 11  1  0
  7  6  1  0
  8  7  1  0
  8  9  1  0
  9 10  1  0
 10 11  1  0
 12 17  2  0
 13 12  1  0
 14 13  2  0
 14 15  1  0
 15 16  2  0
 16 17  1  0
 16 18  1  0
 18 19  1  0
 18 21  1  0
 20 18  1  0
 22 23  2  0
 22 13  1  0
  2 24  1  0
  3 25  1  0
  7 26  1  0
  7 27  1  0
  8 28  1  0
  8 29  1  0
 10 30  1  0
 10 31  1  0
 11 32  1  0
 11 33  1  0
 12 34  1  0
 22 35  1  0
M  ISO  8  24  14  25  14  26  13  27  13  28  13  29  13  30  13  31  13
M  ISO  4  32  13  33  13  34  14  35   6
M  END
>  <minimizedAffinity>  (1) 
-5.83378315

>  <minimizedRMSD>  (1) 
0.370596766

$$$$
