
     RDKit          3D

 36 38  0  0  0  0  0  0  0  0999 V2000
   47.1310   34.6110   42.1610 N   0  0  0  0  0  0  0  0  0  0  0  0
   48.2670   35.2990   42.0050 C   0  0  0  0  0  0  0  0  0  0  0  0
   48.5730   35.2330   40.6870 C   0  0  0  0  0  0  0  0  0  0  0  0
   47.6270   34.5130   40.0710 N   0  0  0  0  0  0  0  0  0  0  0  0
   46.7190   34.1150   40.9680 C   0  0  0  0  0  0  0  0  0  0  0  0
   45.5290   33.3270   40.7510 N   0  0  0  0  0  0  0  0  0  0  0  0
   45.1690   32.9470   39.3480 C   0  0  0  0  0  0  0  0  0  0  0  0
   43.7530   33.4090   39.1510 C   0  0  0  0  0  0  0  0  0  0  0  0
   43.3380   34.2460   40.1660 O   0  0  0  0  0  0  0  0  0  0  0  0
   43.3300   33.6560   41.4160 C   0  0  0  0  0  0  0  0  0  0  0  0
   44.6140   32.8500   41.7030 C   0  0  0  0  0  0  0  0  0  0  0  0
   44.9240   35.0010   45.0930 C   0  0  0  0  0  0  0  0  0  0  0  0
   45.4660   35.2980   43.8370 C   0  0  0  0  0  0  0  0  0  0  0  0
   46.4880   34.4510   43.4250 C   0  0  0  0  0  0  0  0  0  0  0  0
   46.9140   33.3980   44.2260 N   0  0  0  0  0  0  0  0  0  0  0  0
   46.3430   33.1880   45.4060 C   0  0  0  0  0  0  0  0  0  0  0  0
   45.3440   33.9830   45.8540 N   0  0  0  0  0  0  0  0  0  0  0  0
   46.9040   32.0270   46.1380 C   0  0  0  0  0  0  0  0  0  0  0  0
   47.5800   32.3740   47.2700 F   0  0  0  0  0  0  0  0  0  0  0  0
   47.7110   31.3180   45.2430 F   0  0  0  0  0  0  0  0  0  0  0  0
   45.8820   31.1740   46.4820 F   0  0  0  0  0  0  0  0  0  0  0  0
   45.0570   36.3580   43.0100 N   0  0  0  0  0  0  0  0  0  0  0  0
   43.8980   35.8210   45.5450 O   0  0  0  0  0  0  0  0  0  0  0  0
   48.8388   35.8154   42.7901 H   0  0  0  0  0  0  0  0  0  0  0  0
   49.4488   35.6923   40.2053 H   0  0  0  0  0  0  0  0  0  0  0  0
   45.8383   33.4463   38.6319 H   0  0  0  0  0  0  0  0  0  0  0  0
   45.2689   31.8641   39.1829 H   0  0  0  0  0  0  0  0  0  0  0  0
   43.6850   33.9488   38.1950 H   0  0  0  0  0  0  0  0  0  0  0  0
   43.1021   32.5222   39.1535 H   0  0  0  0  0  0  0  0  0  0  0  0
   43.2323   34.4446   42.1766 H   0  0  0  0  0  0  0  0  0  0  0  0
   42.4837   32.9540   41.4463 H   0  0  0  0  0  0  0  0  0  0  0  0
   44.4377   31.7722   41.5714 H   0  0  0  0  0  0  0  0  0  0  0  0
   44.9717   32.9735   42.7359 H   0  0  0  0  0  0  0  0  0  0  0  0
   45.5120   36.5045   42.0977 H   0  0  0  0  0  0  0  0  0  0  0  0
   44.3022   36.9884   43.3162 H   0  0  0  0  0  0  0  0  0  0  0  0
   43.5841   36.5751   44.9856 H   0  0  0  0  0  0  0  0  0  0  0  0
  1 14  1  0
  2  1  1  0
  3  2  2  0
  4  3  1  0
  4  5  2  0
  5  1  1  0
  6  5  1  0
  6 11  1  0
  7  6  1  0
  8  7  1  0
  8  9  1  0
  9 10  1  0
 10 11  1  0
 12 23  1  0
 12 17  2  0
 13 12  1  0
 14 13  2  0
 14 15  1  0
 15 16  2  0
 16 17  1  0
 16 18  1  0
 18 21  1  0
 18 19  1  0
 20 18  1  0
 22 13  1  0
  2 24  1  0
  3 25  1  0
  7 26  1  0
  7 27  1  0
  8 28  1  0
  8 29  1  0
 10 30  1  0
 10 31  1  0
 11 32  1  0
 11 33  1  0
 22 34  1  0
 22 35  1  0
 23 36  1  0
M  ISO  8  24  14  25  14  26  13  27  13  28  13  29  13  30  13  31  13
M  ISO  3  32  13  33  13  36   3
M  END
>  <minimizedAffinity>  (1) 
-6.13603163

>  <minimizedRMSD>  (1) 
0.963890254

$$$$
