
     RDKit          3D

 32 35  0  0  0  0  0  0  0  0999 V2000
   44.1930   35.6690   44.4600 C   0  0  0  0  0  0  0  0  0  0  0  0
   44.4810   35.0610   43.2200 C   0  0  0  0  0  0  0  0  0  0  0  0
   45.2880   33.9410   43.1390 C   0  0  0  0  0  0  0  0  0  0  0  0
   45.7810   33.4750   44.3530 N   0  0  0  0  0  0  0  0  0  0  0  0
   45.4930   34.0700   45.5120 C   0  0  0  0  0  0  0  0  0  0  0  0
   44.7130   35.1500   45.5800 N   0  0  0  0  0  0  0  0  0  0  0  0
   45.5230   33.4380   41.8170 C   0  0  0  0  0  0  0  0  0  0  0  0
   44.7580   32.4960   41.2480 N   0  0  0  0  0  0  0  0  0  0  0  0
   44.9190   31.9850   40.0300 C   0  0  0  0  0  0  0  0  0  0  0  0
   45.9120   32.3900   39.2200 N   0  0  0  0  0  0  0  0  0  0  0  0
   46.7420   33.3360   39.6920 C   0  0  0  0  0  0  0  0  0  0  0  0
   47.7630   33.7600   38.8790 C   0  0  0  0  0  0  0  0  0  0  0  0
   48.6510   34.7270   39.3020 C   0  0  0  0  0  0  0  0  0  0  0  0
   48.4650   35.2470   40.5820 C   0  0  0  0  0  0  0  0  0  0  0  0
   47.4230   34.7790   41.3440 C   0  0  0  0  0  0  0  0  0  0  0  0
   46.5240   33.8240   40.9600 C   0  0  0  0  0  0  0  0  0  0  0  0
   43.7860   35.8020   41.7200 S   0  0  0  0  0  0  0  0  0  0  0  0
   40.4820   33.8350   41.0780 N   0  0  0  0  0  0  0  0  0  0  0  0
   41.7530   33.8560   41.3620 N   0  0  0  0  0  0  0  0  0  0  0  0
   42.1730   35.1600   41.3920 C   0  0  0  0  0  0  0  0  0  0  0  0
   41.0860   35.8980   41.1110 C   0  0  0  0  0  0  0  0  0  0  0  0
   39.9840   35.0810   40.9040 C   0  0  0  0  0  0  0  0  0  0  0  0
   43.5486   36.5593   44.5066 H   0  0  0  0  0  0  0  0  0  0  0  0
   45.9122   33.6567   46.4412 H   0  0  0  0  0  0  0  0  0  0  0  0
   44.2214   31.2112   39.6770 H   0  0  0  0  0  0  0  0  0  0  0  0
   47.8748   33.3226   37.8759 H   0  0  0  0  0  0  0  0  0  0  0  0
   49.4715   35.0733   38.6564 H   0  0  0  0  0  0  0  0  0  0  0  0
   49.1420   36.0197   40.9752 H   0  0  0  0  0  0  0  0  0  0  0  0
   47.3015   35.2094   42.3490 H   0  0  0  0  0  0  0  0  0  0  0  0
   39.9233   32.9736   40.9958 H   0  0  0  0  0  0  0  0  0  0  0  0
   41.0718   36.9964   41.0532 H   0  0  0  0  0  0  0  0  0  0  0  0
   38.9532   35.3754   40.6576 H   0  0  0  0  0  0  0  0  0  0  0  0
  1  6  2  0
  2  1  1  0
  3  2  2  0
  3  4  1  0
  4  5  2  0
  5  6  1  0
  7  3  1  0
  8  7  2  0
  9  8  1  0
 10 11  1  0
 10  9  2  0
 11 16  2  0
 12 13  2  0
 12 11  1  0
 13 14  1  0
 14 15  2  0
 16 15  1  0
 16  7  1  0
 17  2  1  0
 18 19  1  0
 19 20  2  0
 20 17  1  0
 21 20  1  0
 22 18  1  0
 22 21  2  0
  1 23  1  0
  5 24  1  0
  9 25  1  0
 12 26  1  0
 13 27  1  0
 14 28  1  0
 15 29  1  0
 18 30  1  0
 21 31  1  0
 22 32  1  0
M  ISO  8  23  14  24  14  25  14  26  14  27  14  28  14  29  14  30   9
M  ISO  2  31  14  32  14
M  END
>  <minimizedAffinity>  (1) 
-5.49296713

>  <minimizedRMSD>  (1) 
0.585541248

$$$$
