
     RDKit          3D

 29 31  0  0  0  0  0  0  0  0999 V2000
   46.2360   32.9390   45.1010 C   0  0  0  0  0  0  0  0  0  0  0  0
   45.6390   34.1800   44.7120 N   0  0  0  0  0  0  0  0  0  0  0  0
   44.7880   35.0020   45.3010 N   0  0  0  0  0  0  0  0  0  0  0  0
   44.4990   36.0600   44.5530 C   0  0  0  0  0  0  0  0  0  0  0  0
   45.2130   35.9220   43.3910 C   0  0  0  0  0  0  0  0  0  0  0  0
   45.9130   34.7520   43.5080 C   0  0  0  0  0  0  0  0  0  0  0  0
   46.7920   34.2510   42.4780 N   0  0  0  0  0  0  0  0  0  0  0  0
   46.7630   33.3390   41.4990 C   0  0  0  0  0  0  0  0  0  0  0  0
   47.9530   33.3650   40.8730 N   0  0  0  0  0  0  0  0  0  0  0  0
   48.7310   34.3020   41.4640 C   0  0  0  0  0  0  0  0  0  0  0  0
   47.9940   34.8450   42.4620 N   0  0  0  0  0  0  0  0  0  0  0  0
   46.8520   32.9650   46.4880 C   0  0  0  0  0  0  0  0  0  0  0  0
   46.2020   32.0530   47.4080 C   0  0  0  0  0  0  0  0  0  0  0  0
   45.8330   30.8220   46.8770 C   0  0  0  0  0  0  0  0  0  0  0  0
   45.2010   29.8400   47.6460 C   0  0  0  0  0  0  0  0  0  0  0  0
   44.9710   30.1660   48.9440 N   0  0  0  0  0  0  0  0  0  0  0  0
   45.3340   31.3620   49.4470 C   0  0  0  0  0  0  0  0  0  0  0  0
   45.9370   32.2730   48.6770 N   0  0  0  0  0  0  0  0  0  0  0  0
   47.0248   32.6909   44.3756 H   0  0  0  0  0  0  0  0  0  0  0  0
   45.4320   32.1885   45.1210 H   0  0  0  0  0  0  0  0  0  0  0  0
   43.8201   36.8851   44.8143 H   0  0  0  0  0  0  0  0  0  0  0  0
   45.2216   36.6135   42.5356 H   0  0  0  0  0  0  0  0  0  0  0  0
   45.9153   32.6837   41.2502 H   0  0  0  0  0  0  0  0  0  0  0  0
   49.7613   34.5702   41.1874 H   0  0  0  0  0  0  0  0  0  0  0  0
   47.9128   32.6856   46.4068 H   0  0  0  0  0  0  0  0  0  0  0  0
   46.7276   33.9826   46.8868 H   0  0  0  0  0  0  0  0  0  0  0  0
   46.0451   30.6140   45.8179 H   0  0  0  0  0  0  0  0  0  0  0  0
   44.9089   28.8660   47.2265 H   0  0  0  0  0  0  0  0  0  0  0  0
   45.1318   31.5914   50.5036 H   0  0  0  0  0  0  0  0  0  0  0  0
  1 12  1  0
  2  1  1  0
  2  3  1  0
  4  3  2  0
  5  6  2  0
  5  4  1  0
  6  2  1  0
  7  6  1  0
  8  7  1  0
  9 10  1  0
  9  8  2  0
 10 11  2  0
 11  7  1  0
 12 13  1  0
 13 18  1  0
 14 13  2  0
 14 15  1  0
 15 16  2  0
 16 17  1  0
 18 17  2  0
  1 19  1  0
  1 20  1  0
  4 21  1  0
  5 22  1  0
  8 23  1  0
 10 24  1  0
 12 25  1  0
 12 26  1  0
 14 27  1  0
 15 28  1  0
 17 29  1  0
M  ISO  8  19   8  20   8  21  14  22  14  23  14  24  14  25   8  26   8
M  ISO  3  27  14  28  14  29  14
M  END
>  <minimizedAffinity>  (1) 
-4.95765018

>  <minimizedRMSD>  (1) 
6.46343613

$$$$
