
     RDKit          3D

 27 29  0  0  0  0  0  0  0  0999 V2000
   45.0930   34.3860   45.3680 C   0  0  0  0  0  0  0  0  0  0  0  0
   45.5670   34.6870   44.0800 C   0  0  0  0  0  0  0  0  0  0  0  0
   46.7160   34.0240   43.6270 C   0  0  0  0  0  0  0  0  0  0  0  0
   47.3440   33.1110   44.4360 N   0  0  0  0  0  0  0  0  0  0  0  0
   46.8220   32.8740   45.6730 C   0  0  0  0  0  0  0  0  0  0  0  0
   45.7300   33.4880   46.1370 N   0  0  0  0  0  0  0  0  0  0  0  0
   47.2730   34.2790   42.3040 C   0  0  0  0  0  0  0  0  0  0  0  0
   48.2290   35.2310   42.0230 C   0  0  0  0  0  0  0  0  0  0  0  0
   48.7320   35.4430   40.7580 C   0  0  0  0  0  0  0  0  0  0  0  0
   48.2460   34.6510   39.7130 C   0  0  0  0  0  0  0  0  0  0  0  0
   47.2850   33.6990   40.0160 C   0  0  0  0  0  0  0  0  0  0  0  0
   46.8050   33.5110   41.2800 N   0  0  0  0  0  0  0  0  0  0  0  0
   44.7490   35.8810   43.0200 S   0  0  0  0  0  0  0  0  0  0  0  0
   42.4070   33.5610   40.9320 N   0  0  0  0  0  0  0  0  0  0  0  0
   43.3720   33.7560   41.8030 N   0  0  0  0  0  0  0  0  0  0  0  0
   43.5730   35.0920   41.9670 C   0  0  0  0  0  0  0  0  0  0  0  0
   42.6720   35.6920   41.1430 C   0  0  0  0  0  0  0  0  0  0  0  0
   41.9140   34.7520   40.4700 C   0  0  0  0  0  0  0  0  0  0  0  0
   44.1928   34.8900   45.7496 H   0  0  0  0  0  0  0  0  0  0  0  0
   47.3248   32.1410   46.3210 H   0  0  0  0  0  0  0  0  0  0  0  0
   48.6087   35.8513   42.8482 H   0  0  0  0  0  0  0  0  0  0  0  0
   49.4949   36.2140   40.5751 H   0  0  0  0  0  0  0  0  0  0  0  0
   48.6142   34.7792   38.6844 H   0  0  0  0  0  0  0  0  0  0  0  0
   46.8929   33.0688   39.2041 H   0  0  0  0  0  0  0  0  0  0  0  0
   42.0667   32.6349   40.6362 H   0  0  0  0  0  0  0  0  0  0  0  0
   42.5613   36.7803   41.0276 H   0  0  0  0  0  0  0  0  0  0  0  0
   41.1090   34.9202   39.7395 H   0  0  0  0  0  0  0  0  0  0  0  0
  1  6  2  0
  2  1  1  0
  3  2  2  0
  3  4  1  0
  4  5  2  0
  5  6  1  0
  7  3  1  0
  8  7  2  0
  9  8  1  0
 10 11  1  0
 10  9  2  0
 11 12  2  0
 12  7  1  0
 13  2  1  0
 14 15  1  0
 15 16  2  0
 16 13  1  0
 17 16  1  0
 18 14  1  0
 18 17  2  0
  1 19  1  0
  5 20  1  0
  8 21  1  0
  9 22  1  0
 10 23  1  0
 11 24  1  0
 14 25  1  0
 17 26  1  0
 18 27  1  0
M  ISO  8  19  14  20  14  21  14  22  14  23  14  24  14  25   9  26  14
M  ISO  1  27  14
M  END
>  <minimizedAffinity>  (1) 
-5.0891571

>  <minimizedRMSD>  (1) 
2.51277161

$$$$
