
     RDKit          3D

 26 28  0  0  0  0  0  0  0  0999 V2000
   44.8400   34.8510   45.2310 C   0  0  0  0  0  0  0  0  0  0  0  0
   45.3710   35.0140   43.9480 C   0  0  0  0  0  0  0  0  0  0  0  0
   46.4560   34.2080   43.6010 C   0  0  0  0  0  0  0  0  0  0  0  0
   46.9670   33.3030   44.4910 N   0  0  0  0  0  0  0  0  0  0  0  0
   46.4080   33.1930   45.7170 C   0  0  0  0  0  0  0  0  0  0  0  0
   45.3610   33.9560   46.0830 N   0  0  0  0  0  0  0  0  0  0  0  0
   47.0790   34.3150   42.2640 C   0  0  0  0  0  0  0  0  0  0  0  0
   46.7140   33.4630   41.2540 C   0  0  0  0  0  0  0  0  0  0  0  0
   47.3360   33.6180   40.0350 C   0  0  0  0  0  0  0  0  0  0  0  0
   48.2730   34.5770   39.8460 N   0  0  0  0  0  0  0  0  0  0  0  0
   48.6200   35.4040   40.8440 C   0  0  0  0  0  0  0  0  0  0  0  0
   48.0180   35.2570   42.0360 N   0  0  0  0  0  0  0  0  0  0  0  0
   44.7270   36.1870   42.7650 S   0  0  0  0  0  0  0  0  0  0  0  0
   42.5850   34.4350   40.0360 N   0  0  0  0  0  0  0  0  0  0  0  0
   43.7350   34.8710   40.4900 N   0  0  0  0  0  0  0  0  0  0  0  0
   43.5180   35.4450   41.7190 C   0  0  0  0  0  0  0  0  0  0  0  0
   42.1820   35.3220   41.9570 C   0  0  0  0  0  0  0  0  0  0  0  0
   41.5530   34.6820   40.9050 C   0  0  0  0  0  0  0  0  0  0  0  0
   43.9834   35.4651   45.5458 H   0  0  0  0  0  0  0  0  0  0  0  0
   46.8178   32.4638   46.4314 H   0  0  0  0  0  0  0  0  0  0  0  0
   45.9528   32.6846   41.4113 H   0  0  0  0  0  0  0  0  0  0  0  0
   47.0673   32.9521   39.2017 H   0  0  0  0  0  0  0  0  0  0  0  0
   49.3798   36.1843   40.6898 H   0  0  0  0  0  0  0  0  0  0  0  0
   42.4695   33.9605   39.1291 H   0  0  0  0  0  0  0  0  0  0  0  0
   41.6730   35.6828   42.8629 H   0  0  0  0  0  0  0  0  0  0  0  0
   40.4876   34.4325   40.7927 H   0  0  0  0  0  0  0  0  0  0  0  0
  1  6  2  0
  2  1  1  0
  3  2  2  0
  3  4  1  0
  4  5  2  0
  5  6  1  0
  7  3  1  0
  8  7  2  0
  9  8  1  0
 10  9  2  0
 10 11  1  0
 11 12  2  0
 12  7  1  0
 13  2  1  0
 14 15  1  0
 14 18  1  0
 15 16  2  0
 16 17  1  0
 16 13  1  0
 18 17  2  0
  1 19  1  0
  5 20  1  0
  8 21  1  0
  9 22  1  0
 11 23  1  0
 14 24  1  0
 17 25  1  0
 18 26  1  0
M  ISO  8  19  14  20  14  21  14  22  14  23  14  24   9  25  14  26  14
M  END
>  <minimizedAffinity>  (1) 
-4.6573987

>  <minimizedRMSD>  (1) 
2.43286681

$$$$
