
     RDKit          3D

 33 35  0  0  0  0  0  0  0  0999 V2000
   44.4070   35.3060   44.6360 C   0  0  0  0  0  0  0  0  0  0  0  0
   44.9220   35.0760   43.3370 C   0  0  0  0  0  0  0  0  0  0  0  0
   46.0400   34.2520   43.1870 C   0  0  0  0  0  0  0  0  0  0  0  0
   46.6010   33.6950   44.3040 N   0  0  0  0  0  0  0  0  0  0  0  0
   46.0670   33.9490   45.5200 C   0  0  0  0  0  0  0  0  0  0  0  0
   45.0010   34.7290   45.7020 N   0  0  0  0  0  0  0  0  0  0  0  0
   46.5070   34.0630   41.8560 N   0  0  0  0  0  0  0  0  0  0  0  0
   47.5980   34.8770   41.3560 C   0  0  0  0  0  0  0  0  0  0  0  0
   48.7750   33.9100   41.2460 C   0  0  0  0  0  0  0  0  0  0  0  0
   48.4890   32.9780   40.1130 C   0  0  0  0  0  0  0  0  0  0  0  0
   47.1870   32.2830   40.3070 C   0  0  0  0  0  0  0  0  0  0  0  0
   46.0660   33.1340   40.8110 C   0  0  0  0  0  0  0  0  0  0  0  0
   44.1400   35.8370   41.8990 S   0  0  0  0  0  0  0  0  0  0  0  0
   41.0810   33.5650   41.0540 N   0  0  0  0  0  0  0  0  0  0  0  0
   42.3690   33.7240   41.2620 N   0  0  0  0  0  0  0  0  0  0  0  0
   42.6030   35.0460   41.5400 C   0  0  0  0  0  0  0  0  0  0  0  0
   41.3800   35.6350   41.4790 C   0  0  0  0  0  0  0  0  0  0  0  0
   40.3900   34.7410   41.1760 C   0  0  0  0  0  0  0  0  0  0  0  0
   43.5274   35.9516   44.7756 H   0  0  0  0  0  0  0  0  0  0  0  0
   46.5352   33.4894   46.4029 H   0  0  0  0  0  0  0  0  0  0  0  0
   47.3485   35.2999   40.3717 H   0  0  0  0  0  0  0  0  0  0  0  0
   47.8180   35.7318   42.0125 H   0  0  0  0  0  0  0  0  0  0  0  0
   49.7019   34.4682   41.0479 H   0  0  0  0  0  0  0  0  0  0  0  0
   48.9042   33.3501   42.1840 H   0  0  0  0  0  0  0  0  0  0  0  0
   49.2914   32.2279   40.0534 H   0  0  0  0  0  0  0  0  0  0  0  0
   48.4376   33.5635   39.1832 H   0  0  0  0  0  0  0  0  0  0  0  0
   46.8816   31.8610   39.3381 H   0  0  0  0  0  0  0  0  0  0  0  0
   47.3639   31.5278   41.0870 H   0  0  0  0  0  0  0  0  0  0  0  0
   45.6551   33.7136   39.9712 H   0  0  0  0  0  0  0  0  0  0  0  0
   45.3052   32.4697   41.2467 H   0  0  0  0  0  0  0  0  0  0  0  0
   40.6425   32.6613   40.8259 H   0  0  0  0  0  0  0  0  0  0  0  0
   41.2061   36.7071   41.6532 H   0  0  0  0  0  0  0  0  0  0  0  0
   39.3111   34.9212   41.0597 H   0  0  0  0  0  0  0  0  0  0  0  0
  1  6  2  0
  2  1  1  0
  3  2  2  0
  3  4  1  0
  4  5  2  0
  5  6  1  0
  7  3  1  0
  8  7  1  0
  9  8  1  0
 10 11  1  0
 10  9  1  0
 11 12  1  0
 12  7  1  0
 13  2  1  0
 14 18  1  0
 14 15  1  0
 15 16  2  0
 16 13  1  0
 17 16  1  0
 18 17  2  0
  1 19  1  0
  5 20  1  0
  8 21  1  0
  8 22  1  0
  9 23  1  0
  9 24  1  0
 10 25  1  0
 10 26  1  0
 11 27  1  0
 11 28  1  0
 12 29  1  0
 12 30  1  0
 14 31  1  0
 17 32  1  0
 18 33  1  0
M  ISO  8  19  14  20  14  21  13  22  13  23  13  24  13  25  13  26  13
M  ISO  7  27  13  28  13  29  13  30  13  31   9  32  14  33  14
M  END
>  <minimizedAffinity>  (1) 
-4.29604197

>  <minimizedRMSD>  (1) 
2.07125187

$$$$
