
     RDKit          3D

 28 30  0  0  0  0  0  0  0  0999 V2000
   46.9710   32.7830   46.6690 C   0  0  0  0  0  0  0  0  0  0  0  0
   46.2070   32.1370   47.6750 N   0  0  0  0  0  0  0  0  0  0  0  0
   44.9510   32.1420   48.0060 N   0  0  0  0  0  0  0  0  0  0  0  0
   44.6540   31.3660   49.0480 C   0  0  0  0  0  0  0  0  0  0  0  0
   45.8400   30.7980   49.4360 C   0  0  0  0  0  0  0  0  0  0  0  0
   46.7870   31.2860   48.5760 C   0  0  0  0  0  0  0  0  0  0  0  0
   48.2170   30.9170   48.6520 C   0  0  0  0  0  0  0  0  0  0  0  0
   49.1370   31.5770   49.3540 N   0  0  0  0  0  0  0  0  0  0  0  0
   50.2860   30.9990   49.2120 O   0  0  0  0  0  0  0  0  0  0  0  0
   50.1600   29.9560   48.4240 C   0  0  0  0  0  0  0  0  0  0  0  0
   48.8550   29.8720   48.0480 N   0  0  0  0  0  0  0  0  0  0  0  0
   46.3670   32.6340   45.2700 C   0  0  0  0  0  0  0  0  0  0  0  0
   45.8340   33.8870   44.7690 C   0  0  0  0  0  0  0  0  0  0  0  0
   46.2720   34.2560   43.5000 C   0  0  0  0  0  0  0  0  0  0  0  0
   45.8220   35.4460   42.9210 C   0  0  0  0  0  0  0  0  0  0  0  0
   44.9550   36.2080   43.6420 N   0  0  0  0  0  0  0  0  0  0  0  0
   44.5460   35.8230   44.8740 C   0  0  0  0  0  0  0  0  0  0  0  0
   44.9950   34.6760   45.4040 N   0  0  0  0  0  0  0  0  0  0  0  0
   47.0346   33.8542   46.9109 H   0  0  0  0  0  0  0  0  0  0  0  0
   47.9621   32.3060   46.6517 H   0  0  0  0  0  0  0  0  0  0  0  0
   43.6638   31.2131   49.5021 H   0  0  0  0  0  0  0  0  0  0  0  0
   45.9981   30.0950   50.2671 H   0  0  0  0  0  0  0  0  0  0  0  0
   50.9664   29.2717   48.1216 H   0  0  0  0  0  0  0  0  0  0  0  0
   47.1491   32.2809   44.5818 H   0  0  0  0  0  0  0  0  0  0  0  0
   45.5373   31.9147   45.3343 H   0  0  0  0  0  0  0  0  0  0  0  0
   46.9735   33.6098   42.9520 H   0  0  0  0  0  0  0  0  0  0  0  0
   46.1563   35.7551   41.9197 H   0  0  0  0  0  0  0  0  0  0  0  0
   43.8442   36.4522   45.4411 H   0  0  0  0  0  0  0  0  0  0  0  0
  1  2  1  0
  2  3  1  0
  2  6  1  0
  3  4  2  0
  4  5  1  0
  6  7  1  0
  6  5  2  0
  7  8  2  0
  9  8  1  0
 10  9  1  0
 11 10  2  0
 11  7  1  0
 12  1  1  0
 13 12  1  0
 13 18  1  0
 14 13  2  0
 15 14  1  0
 15 16  2  0
 16 17  1  0
 17 18  2  0
  1 19  1  0
  1 20  1  0
  4 21  1  0
  5 22  1  0
 10 23  1  0
 12 24  1  0
 12 25  1  0
 14 26  1  0
 15 27  1  0
 17 28  1  0
M  ISO  8  19   8  20   8  21  14  22  14  23  14  24   8  25   8  26  14
M  ISO  2  27  14  28  14
M  END
>  <minimizedAffinity>  (1) 
-4.82777452

>  <minimizedRMSD>  (1) 
2.89240241

$$$$
