
     RDKit          3D

 25 27  0  0  0  0  0  0  0  0999 V2000
   44.4270   35.2700   44.6430 C   0  0  0  0  0  0  0  0  0  0  0  0
   44.8870   35.1300   43.3300 C   0  0  0  0  0  0  0  0  0  0  0  0
   46.0300   34.3460   43.1000 C   0  0  0  0  0  0  0  0  0  0  0  0
   46.6530   33.7470   44.1670 N   0  0  0  0  0  0  0  0  0  0  0  0
   46.1590   33.9210   45.4110 C   0  0  0  0  0  0  0  0  0  0  0  0
   45.0600   34.6700   45.6630 N   0  0  0  0  0  0  0  0  0  0  0  0
   46.5550   34.1570   41.8130 N   0  0  0  0  0  0  0  0  0  0  0  0
   46.2840   33.4410   40.7020 C   0  0  0  0  0  0  0  0  0  0  0  0
   47.2190   33.7080   39.7240 C   0  0  0  0  0  0  0  0  0  0  0  0
   48.0800   34.6150   40.2690 N   0  0  0  0  0  0  0  0  0  0  0  0
   47.6700   34.8770   41.5250 C   0  0  0  0  0  0  0  0  0  0  0  0
   44.0580   35.9220   41.9510 S   0  0  0  0  0  0  0  0  0  0  0  0
   41.1020   33.5760   41.0060 N   0  0  0  0  0  0  0  0  0  0  0  0
   42.3720   33.8010   41.2550 N   0  0  0  0  0  0  0  0  0  0  0  0
   42.5520   35.1130   41.5470 C   0  0  0  0  0  0  0  0  0  0  0  0
   41.3140   35.6620   41.4580 C   0  0  0  0  0  0  0  0  0  0  0  0
   40.3710   34.7220   41.1180 C   0  0  0  0  0  0  0  0  0  0  0  0
   43.5339   35.8804   44.8426 H   0  0  0  0  0  0  0  0  0  0  0  0
   46.6704   33.4342   46.2545 H   0  0  0  0  0  0  0  0  0  0  0  0
   45.4394   32.7449   40.5922 H   0  0  0  0  0  0  0  0  0  0  0  0
   47.2617   33.2780   38.7124 H   0  0  0  0  0  0  0  0  0  0  0  0
   48.1663   35.5732   42.2171 H   0  0  0  0  0  0  0  0  0  0  0  0
   40.7102   32.6560   40.7589 H   0  0  0  0  0  0  0  0  0  0  0  0
   41.0934   36.7249   41.6356 H   0  0  0  0  0  0  0  0  0  0  0  0
   39.2896   34.8602   40.9717 H   0  0  0  0  0  0  0  0  0  0  0  0
  1  6  2  0
  2  1  1  0
  3  2  2  0
  3  4  1  0
  4  5  2  0
  5  6  1  0
  7  3  1  0
  8  7  1  0
  9 10  1  0
  9  8  2  0
 10 11  2  0
 11  7  1  0
 12  2  1  0
 13 17  1  0
 13 14  1  0
 14 15  2  0
 15 12  1  0
 16 15  1  0
 17 16  2  0
  1 18  1  0
  5 19  1  0
  8 20  1  0
  9 21  1  0
 11 22  1  0
 13 23  1  0
 16 24  1  0
 17 25  1  0
M  ISO  8  18  14  19  14  20  14  21  14  22  14  23   9  24  14  25  14
M  END
>  <minimizedAffinity>  (1) 
-4.25932693

>  <minimizedRMSD>  (1) 
1.57713616

$$$$
