
     RDKit          3D

 25 27  0  0  0  0  0  0  0  0999 V2000
   44.2840   35.4420   44.4630 C   0  0  0  0  0  0  0  0  0  0  0  0
   44.7420   35.1240   43.1730 C   0  0  0  0  0  0  0  0  0  0  0  0
   45.8470   34.2840   43.0410 C   0  0  0  0  0  0  0  0  0  0  0  0
   46.4550   33.7920   44.1710 N   0  0  0  0  0  0  0  0  0  0  0  0
   45.9620   34.1370   45.3820 C   0  0  0  0  0  0  0  0  0  0  0  0
   44.8940   34.9490   45.5380 N   0  0  0  0  0  0  0  0  0  0  0  0
   46.3030   33.9720   41.6550 C   0  0  0  0  0  0  0  0  0  0  0  0
   47.5110   34.6240   41.1290 C   0  0  0  0  0  0  0  0  0  0  0  0
   47.6350   33.2190   41.5780 C   0  0  0  0  0  0  0  0  0  0  0  0
   43.9340   35.7780   41.6980 S   0  0  0  0  0  0  0  0  0  0  0  0
   40.8440   33.5220   41.0300 N   0  0  0  0  0  0  0  0  0  0  0  0
   42.1480   33.7000   41.1810 N   0  0  0  0  0  0  0  0  0  0  0  0
   42.3900   35.0120   41.4250 C   0  0  0  0  0  0  0  0  0  0  0  0
   41.1740   35.6030   41.4110 C   0  0  0  0  0  0  0  0  0  0  0  0
   40.1640   34.6900   41.1630 C   0  0  0  0  0  0  0  0  0  0  0  0
   43.4140   36.1040   44.5851 H   0  0  0  0  0  0  0  0  0  0  0  0
   46.4534   33.7379   46.2816 H   0  0  0  0  0  0  0  0  0  0  0  0
   45.2794   33.8530   41.2702 H   0  0  0  0  0  0  0  0  0  0  0  0
   47.9927   35.4241   41.7102 H   0  0  0  0  0  0  0  0  0  0  0  0
   47.7475   35.1484   40.1914 H   0  0  0  0  0  0  0  0  0  0  0  0
   47.7742   32.4124   40.8432 H   0  0  0  0  0  0  0  0  0  0  0  0
   48.2729   32.6732   42.2888 H   0  0  0  0  0  0  0  0  0  0  0  0
   40.4016   32.6123   40.8361 H   0  0  0  0  0  0  0  0  0  0  0  0
   41.0079   36.6777   41.5764 H   0  0  0  0  0  0  0  0  0  0  0  0
   39.0806   34.8664   41.0914 H   0  0  0  0  0  0  0  0  0  0  0  0
  1  6  2  0
  2  1  1  0
  3  2  2  0
  3  4  1  0
  4  5  2  0
  5  6  1  0
  7  3  1  0
  8  9  1  0
  8  7  1  0
  9  7  1  0
 10  2  1  0
 11 15  1  0
 11 12  1  0
 12 13  2  0
 13 10  1  0
 14 13  1  0
 15 14  2  0
  1 16  1  0
  5 17  1  0
  7 18  1  0
  8 19  1  0
  8 20  1  0
  9 21  1  0
  9 22  1  0
 11 23  1  0
 14 24  1  0
 15 25  1  0
M  ISO  8  16  14  17  14  18  13  19  13  20  13  21  13  22  13  23   9
M  ISO  2  24  14  25  14
M  END
>  <minimizedAffinity>  (1) 
-3.96420622

>  <minimizedRMSD>  (1) 
0.995674253

$$$$
