
     RDKit          3D

 24 25  0  0  0  0  0  0  0  0999 V2000
   44.2990   35.7380   44.4290 C   0  0  0  0  0  0  0  0  0  0  0  0
   44.4650   35.0040   43.2510 C   0  0  0  0  0  0  0  0  0  0  0  0
   45.1040   33.7790   43.3580 C   0  0  0  0  0  0  0  0  0  0  0  0
   45.5420   33.3230   44.5550 N   0  0  0  0  0  0  0  0  0  0  0  0
   45.3520   34.0830   45.6710 C   0  0  0  0  0  0  0  0  0  0  0  0
   44.7440   35.2670   45.6110 N   0  0  0  0  0  0  0  0  0  0  0  0
   43.8720   35.5990   41.6710 S   0  0  0  0  0  0  0  0  0  0  0  0
   40.5360   33.7360   40.9890 N   0  0  0  0  0  0  0  0  0  0  0  0
   41.8160   33.7550   41.2620 N   0  0  0  0  0  0  0  0  0  0  0  0
   42.2370   35.0480   41.3350 C   0  0  0  0  0  0  0  0  0  0  0  0
   41.1410   35.7920   41.0920 C   0  0  0  0  0  0  0  0  0  0  0  0
   40.0260   35.0070   40.8630 C   0  0  0  0  0  0  0  0  0  0  0  0
   45.3430   32.9050   42.1580 C   0  0  0  0  0  0  0  0  0  0  0  0
   46.8180   33.0520   41.7780 C   0  0  0  0  0  0  0  0  0  0  0  0
   43.7970   36.7160   44.3908 H   0  0  0  0  0  0  0  0  0  0  0  0
   45.7087   33.7103   46.6425 H   0  0  0  0  0  0  0  0  0  0  0  0
   39.9797   32.8758   40.8818 H   0  0  0  0  0  0  0  0  0  0  0  0
   41.1337   36.8919   41.0775 H   0  0  0  0  0  0  0  0  0  0  0  0
   38.9955   35.3190   40.6378 H   0  0  0  0  0  0  0  0  0  0  0  0
   45.1201   31.8565   42.4050 H   0  0  0  0  0  0  0  0  0  0  0  0
   44.6928   33.2028   41.3222 H   0  0  0  0  0  0  0  0  0  0  0  0
   47.4277   33.1128   42.6916 H   0  0  0  0  0  0  0  0  0  0  0  0
   47.1324   32.1807   41.1846 H   0  0  0  0  0  0  0  0  0  0  0  0
   46.9542   33.9682   41.1846 H   0  0  0  0  0  0  0  0  0  0  0  0
  1  6  2  0
  2  3  2  0
  2  1  1  0
  3  4  1  0
  4  5  2  0
  6  5  1  0
  7  2  1  0
  8  9  1  0
  9 10  2  0
 10  7  1  0
 11 10  1  0
 12  8  1  0
 12 11  2  0
 13  3  1  0
 14 13  1  0
  1 15  1  0
  5 16  1  0
  8 17  1  0
 11 18  1  0
 12 19  1  0
 13 20  1  0
 13 21  1  0
 14 22  1  0
 14 23  1  0
 14 24  1  0
M  ISO  8  15  14  16  14  17   9  18  14  19  14  20   8  21   8  22   8
M  ISO  2  23   8  24   8
M  END
>  <minimizedAffinity>  (1) 
-3.82886386

>  <minimizedRMSD>  (1) 
0.264795423

$$$$
