
     RDKit          3D

 38 41  0  0  0  0  0  0  0  0999 V2000
   44.9470   34.6050   45.2120 C   0  0  0  0  0  0  0  0  0  0  0  0
   45.5610   34.8420   43.9620 C   0  0  0  0  0  0  0  0  0  0  0  0
   46.7070   34.1210   43.6180 C   0  0  0  0  0  0  0  0  0  0  0  0
   47.1960   33.2070   44.5100 N   0  0  0  0  0  0  0  0  0  0  0  0
   46.5890   33.0030   45.6940 C   0  0  0  0  0  0  0  0  0  0  0  0
   45.4860   33.6850   46.0460 N   0  0  0  0  0  0  0  0  0  0  0  0
   47.3440   34.3620   42.3280 C   0  0  0  0  0  0  0  0  0  0  0  0
   48.2220   35.4360   42.3290 C   0  0  0  0  0  0  0  0  0  0  0  0
   48.9200   35.8180   41.1980 C   0  0  0  0  0  0  0  0  0  0  0  0
   48.7440   35.1070   40.0030 C   0  0  0  0  0  0  0  0  0  0  0  0
   47.8720   34.0570   40.0370 C   0  0  0  0  0  0  0  0  0  0  0  0
   47.1770   33.6680   41.1490 C   0  0  0  0  0  0  0  0  0  0  0  0
   44.8480   36.0630   42.8520 S   0  0  0  0  0  0  0  0  0  0  0  0
   43.2730   34.1230   39.8790 N   0  0  0  0  0  0  0  0  0  0  0  0
   44.3100   34.4770   40.6090 N   0  0  0  0  0  0  0  0  0  0  0  0
   43.8790   35.3080   41.6050 C   0  0  0  0  0  0  0  0  0  0  0  0
   42.5410   35.4130   41.4100 C   0  0  0  0  0  0  0  0  0  0  0  0
   42.1230   34.6790   40.3280 C   0  0  0  0  0  0  0  0  0  0  0  0
   40.8130   34.4700   39.7210 C   0  0  0  0  0  0  0  0  0  0  0  0
   40.7280   34.6180   38.3540 C   0  0  0  0  0  0  0  0  0  0  0  0
   39.5080   34.4320   37.7180 C   0  0  0  0  0  0  0  0  0  0  0  0
   38.4000   34.0960   38.4920 C   0  0  0  0  0  0  0  0  0  0  0  0
   38.5200   33.9530   39.8770 C   0  0  0  0  0  0  0  0  0  0  0  0
   39.7300   34.1380   40.5080 C   0  0  0  0  0  0  0  0  0  0  0  0
   44.0434   35.1604   45.5036 H   0  0  0  0  0  0  0  0  0  0  0  0
   47.0059   32.2602   46.3901 H   0  0  0  0  0  0  0  0  0  0  0  0
   48.3678   36.0026   43.2605 H   0  0  0  0  0  0  0  0  0  0  0  0
   49.6091   36.6746   41.2360 H   0  0  0  0  0  0  0  0  0  0  0  0
   49.2817   35.3813   39.0834 H   0  0  0  0  0  0  0  0  0  0  0  0
   47.7183   33.4864   39.1092 H   0  0  0  0  0  0  0  0  0  0  0  0
   46.4912   32.8092   41.1027 H   0  0  0  0  0  0  0  0  0  0  0  0
   43.3299   33.4972   39.0629 H   0  0  0  0  0  0  0  0  0  0  0  0
   41.8714   36.0140   42.0427 H   0  0  0  0  0  0  0  0  0  0  0  0
   41.6218   34.8821   37.7696 H   0  0  0  0  0  0  0  0  0  0  0  0
   39.4186   34.5474   36.6277 H   0  0  0  0  0  0  0  0  0  0  0  0
   37.4234   33.9421   38.0097 H   0  0  0  0  0  0  0  0  0  0  0  0
   37.6338   33.6885   40.4726 H   0  0  0  0  0  0  0  0  0  0  0  0
   39.8290   34.0253   41.5977 H   0  0  0  0  0  0  0  0  0  0  0  0
  1  6  2  0
  2  1  1  0
  3  2  2  0
  3  4  1  0
  4  5  2  0
  5  6  1  0
  7  8  2  0
  7  3  1  0
  9  8  1  0
 10 11  1  0
 10  9  2  0
 11 12  2  0
 12  7  1  0
 13  2  1  0
 14 18  1  0
 14 15  1  0
 15 16  2  0
 16 13  1  0
 17 16  1  0
 18 17  2  0
 19 18  1  0
 19 24  1  0
 20 19  2  0
 21 20  1  0
 21 22  2  0
 22 23  1  0
 23 24  2  0
  1 25  1  0
  5 26  1  0
  8 27  1  0
  9 28  1  0
 10 29  1  0
 11 30  1  0
 12 31  1  0
 14 32  1  0
 17 33  1  0
 20 34  1  0
 21 35  1  0
 22 36  1  0
 23 37  1  0
 24 38  1  0
M  ISO  8  25  14  26  14  27  14  28  14  29  14  30  14  31  14  32   9
M  ISO  6  33  14  34  14  35  14  36  14  37  14  38  14
M  END
>  <minimizedAffinity>  (1) 
-7.25177574

>  <minimizedRMSD>  (1) 
0.815588892

$$$$
