
     RDKit          3D

 41 44  0  0  0  0  0  0  0  0999 V2000
   44.8760   34.6070   45.0080 C   0  0  0  0  0  0  0  0  0  0  0  0
   45.5120   34.8560   43.7680 C   0  0  0  0  0  0  0  0  0  0  0  0
   46.7420   34.2300   43.5180 C   0  0  0  0  0  0  0  0  0  0  0  0
   47.2680   33.4120   44.4810 N   0  0  0  0  0  0  0  0  0  0  0  0
   46.6210   33.2060   45.6530 C   0  0  0  0  0  0  0  0  0  0  0  0
   45.4580   33.7870   45.9100 N   0  0  0  0  0  0  0  0  0  0  0  0
   47.4120   34.4690   42.2560 C   0  0  0  0  0  0  0  0  0  0  0  0
   48.2560   35.5660   42.2490 C   0  0  0  0  0  0  0  0  0  0  0  0
   48.9730   35.9380   41.1320 C   0  0  0  0  0  0  0  0  0  0  0  0
   48.8640   35.2040   39.9580 C   0  0  0  0  0  0  0  0  0  0  0  0
   48.0290   34.1250   39.9740 C   0  0  0  0  0  0  0  0  0  0  0  0
   47.3130   33.7450   41.0750 C   0  0  0  0  0  0  0  0  0  0  0  0
   44.7480   35.9390   42.5740 S   0  0  0  0  0  0  0  0  0  0  0  0
   43.5400   33.5840   39.7240 N   0  0  0  0  0  0  0  0  0  0  0  0
   44.4620   33.9980   40.5560 N   0  0  0  0  0  0  0  0  0  0  0  0
   43.9350   35.0290   41.3120 C   0  0  0  0  0  0  0  0  0  0  0  0
   42.6640   35.1740   40.8600 C   0  0  0  0  0  0  0  0  0  0  0  0
   42.3720   34.2800   39.8550 C   0  0  0  0  0  0  0  0  0  0  0  0
   41.1670   34.1320   39.1490 N   0  0  0  0  0  0  0  0  0  0  0  0
   40.3700   33.1070   39.5090 C   0  0  0  0  0  0  0  0  0  0  0  0
   39.1680   32.8690   38.8860 C   0  0  0  0  0  0  0  0  0  0  0  0
   38.3080   31.7230   39.3130 C   0  0  0  0  0  0  0  0  0  0  0  0
   38.7460   33.6890   37.8620 C   0  0  0  0  0  0  0  0  0  0  0  0
   37.6590   33.5040   37.2740 O   0  0  0  0  0  0  0  0  0  0  0  0
   39.5780   34.7080   37.5320 N   0  0  0  0  0  0  0  0  0  0  0  0
   40.7660   34.9290   38.1610 C   0  0  0  0  0  0  0  0  0  0  0  0
   41.5160   35.8860   37.8280 O   0  0  0  0  0  0  0  0  0  0  0  0
   43.9097   35.0804   45.2366 H   0  0  0  0  0  0  0  0  0  0  0  0
   47.0701   32.5428   46.4070 H   0  0  0  0  0  0  0  0  0  0  0  0
   48.3583   36.1623   43.1677 H   0  0  0  0  0  0  0  0  0  0  0  0
   49.6325   36.8175   41.1705 H   0  0  0  0  0  0  0  0  0  0  0  0
   49.4266   35.4806   39.0542 H   0  0  0  0  0  0  0  0  0  0  0  0
   47.9267   33.5305   39.0541 H   0  0  0  0  0  0  0  0  0  0  0  0
   46.6568   32.8635   41.0253 H   0  0  0  0  0  0  0  0  0  0  0  0
   43.6795   32.8201   39.0473 H   0  0  0  0  0  0  0  0  0  0  0  0
   41.9524   35.9167   41.2498 H   0  0  0  0  0  0  0  0  0  0  0  0
   40.6902   32.4418   40.3245 H   0  0  0  0  0  0  0  0  0  0  0  0
   38.2749   31.6789   40.4116 H   0  0  0  0  0  0  0  0  0  0  0  0
   37.2898   31.8626   38.9208 H   0  0  0  0  0  0  0  0  0  0  0  0
   38.7266   30.7844   38.9208 H   0  0  0  0  0  0  0  0  0  0  0  0
   39.2989   35.3437   36.7712 H   0  0  0  0  0  0  0  0  0  0  0  0
  1  6  2  0
  2  1  1  0
  3  2  2  0
  3  4  1  0
  4  5  2  0
  5  6  1  0
  7  3  1  0
  8  7  2  0
  9  8  1  0
 10 11  1  0
 10  9  2  0
 11 12  2  0
 12  7  1  0
 13  2  1  0
 14 18  1  0
 14 15  1  0
 15 16  2  0
 16 13  1  0
 17 16  1  0
 18 17  2  0
 19 20  1  0
 19 18  1  0
 21 22  1  0
 21 20  2  0
 23 21  1  0
 24 23  2  0
 25 23  1  0
 25 26  1  0
 26 19  1  0
 27 26  2  0
  1 28  1  0
  5 29  1  0
  8 30  1  0
  9 31  1  0
 10 32  1  0
 11 33  1  0
 12 34  1  0
 14 35  1  0
 17 36  1  0
 20 37  1  0
 22 38  1  0
 22 39  1  0
 22 40  1  0
 25 41  1  0
M  ISO  8  28  14  29  14  30  14  31  14  32  14  33  14  34  14  35   9
M  ISO  6  36  14  37  14  38   8  39   8  40   8  41   9
M  END
>  <minimizedAffinity>  (1) 
-6.97830677

>  <minimizedRMSD>  (1) 
1.25179708

$$$$
