
     RDKit          3D

 36 39  0  0  0  0  0  0  0  0999 V2000
   44.9820   34.5400   45.1080 C   0  0  0  0  0  0  0  0  0  0  0  0
   45.5970   34.8320   43.8640 C   0  0  0  0  0  0  0  0  0  0  0  0
   46.7790   34.1680   43.5360 C   0  0  0  0  0  0  0  0  0  0  0  0
   47.2980   33.2650   44.4240 N   0  0  0  0  0  0  0  0  0  0  0  0
   46.6840   33.0110   45.6010 C   0  0  0  0  0  0  0  0  0  0  0  0
   45.5480   33.6380   45.9360 N   0  0  0  0  0  0  0  0  0  0  0  0
   47.4240   34.4530   42.2680 C   0  0  0  0  0  0  0  0  0  0  0  0
   48.3080   35.5210   42.2950 C   0  0  0  0  0  0  0  0  0  0  0  0
   49.0070   35.9320   41.1930 C   0  0  0  0  0  0  0  0  0  0  0  0
   48.8360   35.2620   39.9770 C   0  0  0  0  0  0  0  0  0  0  0  0
   47.9620   34.2120   39.9630 C   0  0  0  0  0  0  0  0  0  0  0  0
   47.2630   33.7970   41.0600 C   0  0  0  0  0  0  0  0  0  0  0  0
   44.8510   36.0270   42.7640 S   0  0  0  0  0  0  0  0  0  0  0  0
   43.3060   33.9920   39.8280 N   0  0  0  0  0  0  0  0  0  0  0  0
   44.3390   34.3500   40.5520 N   0  0  0  0  0  0  0  0  0  0  0  0
   43.8900   35.2300   41.5160 C   0  0  0  0  0  0  0  0  0  0  0  0
   42.5520   35.3490   41.2990 C   0  0  0  0  0  0  0  0  0  0  0  0
   42.1550   34.5750   40.2350 C   0  0  0  0  0  0  0  0  0  0  0  0
   40.8360   34.3980   39.6560 C   0  0  0  0  0  0  0  0  0  0  0  0
   40.6670   34.5670   38.2980 C   0  0  0  0  0  0  0  0  0  0  0  0
   39.3820   34.3850   37.8000 C   0  0  0  0  0  0  0  0  0  0  0  0
   38.3870   34.0610   38.6520 N   0  0  0  0  0  0  0  0  0  0  0  0
   38.5780   33.9020   39.9680 C   0  0  0  0  0  0  0  0  0  0  0  0
   39.8140   34.0740   40.4680 N   0  0  0  0  0  0  0  0  0  0  0  0
   44.0488   35.0461   45.3961 H   0  0  0  0  0  0  0  0  0  0  0  0
   47.1233   32.2787   46.2943 H   0  0  0  0  0  0  0  0  0  0  0  0
   48.4534   36.0606   43.2425 H   0  0  0  0  0  0  0  0  0  0  0  0
   49.6992   36.7841   41.2628 H   0  0  0  0  0  0  0  0  0  0  0  0
   49.3813   35.5672   39.0717 H   0  0  0  0  0  0  0  0  0  0  0  0
   47.8134   33.6716   39.0165 H   0  0  0  0  0  0  0  0  0  0  0  0
   46.5735   32.9433   40.9839 H   0  0  0  0  0  0  0  0  0  0  0  0
   43.3646   33.3375   39.0349 H   0  0  0  0  0  0  0  0  0  0  0  0
   41.8777   35.9807   41.8959 H   0  0  0  0  0  0  0  0  0  0  0  0
   41.5080   34.8329   37.6408 H   0  0  0  0  0  0  0  0  0  0  0  0
   39.1789   34.5035   36.7254 H   0  0  0  0  0  0  0  0  0  0  0  0
   37.7390   33.6356   40.6276 H   0  0  0  0  0  0  0  0  0  0  0  0
  1  6  2  0
  2  1  1  0
  3  2  2  0
  3  4  1  0
  4  5  2  0
  5  6  1  0
  7  8  2  0
  7  3  1  0
  9  8  1  0
 10  9  2  0
 11 10  1  0
 11 12  2  0
 12  7  1  0
 13  2  1  0
 14 18  1  0
 14 15  1  0
 15 16  2  0
 16 13  1  0
 17 16  1  0
 18 17  2  0
 19 18  1  0
 19 24  1  0
 20 19  2  0
 21 20  1  0
 21 22  2  0
 22 23  1  0
 23 24  2  0
  1 25  1  0
  5 26  1  0
  8 27  1  0
  9 28  1  0
 10 29  1  0
 11 30  1  0
 12 31  1  0
 14 32  1  0
 17 33  1  0
 20 34  1  0
 21 35  1  0
 23 36  1  0
M  ISO  8  25  14  26  14  27  14  28  14  29  14  30  14  31  14  32   9
M  ISO  4  33  14  34  14  35  14  36  14
M  END
>  <minimizedAffinity>  (1) 
-6.56024742

>  <minimizedRMSD>  (1) 
0.881124437

$$$$
