
     RDKit          3D

 35 38  0  0  0  0  0  0  0  0999 V2000
   45.1360   34.3520   45.4360 C   0  0  0  0  0  0  0  0  0  0  0  0
   45.6330   34.6420   44.1410 C   0  0  0  0  0  0  0  0  0  0  0  0
   46.7760   33.9720   43.6910 C   0  0  0  0  0  0  0  0  0  0  0  0
   47.3700   33.0600   44.5260 N   0  0  0  0  0  0  0  0  0  0  0  0
   46.8600   32.8160   45.7550 C   0  0  0  0  0  0  0  0  0  0  0  0
   45.7760   33.4400   46.2010 N   0  0  0  0  0  0  0  0  0  0  0  0
   47.2960   34.2570   42.3710 C   0  0  0  0  0  0  0  0  0  0  0  0
   48.2950   35.2110   42.3330 C   0  0  0  0  0  0  0  0  0  0  0  0
   48.9030   35.6050   41.1730 C   0  0  0  0  0  0  0  0  0  0  0  0
   48.5220   35.0410   39.9590 C   0  0  0  0  0  0  0  0  0  0  0  0
   47.5250   34.0910   40.0050 C   0  0  0  0  0  0  0  0  0  0  0  0
   46.9150   33.6940   41.1640 C   0  0  0  0  0  0  0  0  0  0  0  0
   44.7960   35.8510   43.1100 S   0  0  0  0  0  0  0  0  0  0  0  0
   42.4900   33.5730   40.9510 N   0  0  0  0  0  0  0  0  0  0  0  0
   43.3050   33.7620   41.9630 N   0  0  0  0  0  0  0  0  0  0  0  0
   43.7030   35.0670   41.9660 C   0  0  0  0  0  0  0  0  0  0  0  0
   43.0790   35.6330   40.9010 C   0  0  0  0  0  0  0  0  0  0  0  0
   42.3050   34.7090   40.2410 C   0  0  0  0  0  0  0  0  0  0  0  0
   41.4880   34.9430   39.0550 C   0  0  0  0  0  0  0  0  0  0  0  0
   40.2820   34.3410   38.7690 C   0  0  0  0  0  0  0  0  0  0  0  0
   39.8080   34.8200   37.5490 C   0  0  0  0  0  0  0  0  0  0  0  0
   40.7570   35.7070   37.1370 N   0  0  0  0  0  0  0  0  0  0  0  0
   41.7400   35.7800   38.0150 N   0  0  0  0  0  0  0  0  0  0  0  0
   44.2389   34.8637   45.8146 H   0  0  0  0  0  0  0  0  0  0  0  0
   47.3574   32.0797   46.4034 H   0  0  0  0  0  0  0  0  0  0  0  0
   48.6155   35.6742   43.2779 H   0  0  0  0  0  0  0  0  0  0  0  0
   49.6942   36.3687   41.1995 H   0  0  0  0  0  0  0  0  0  0  0  0
   48.9931   35.3386   39.0106 H   0  0  0  0  0  0  0  0  0  0  0  0
   47.2026   33.6275   39.0609 H   0  0  0  0  0  0  0  0  0  0  0  0
   46.1242   32.9298   41.1372 H   0  0  0  0  0  0  0  0  0  0  0  0
   42.0465   32.6711   40.7258 H   0  0  0  0  0  0  0  0  0  0  0  0
   43.1795   36.6881   40.6065 H   0  0  0  0  0  0  0  0  0  0  0  0
   39.7738   33.5997   39.4032 H   0  0  0  0  0  0  0  0  0  0  0  0
   38.8762   34.5438   37.0338 H   0  0  0  0  0  0  0  0  0  0  0  0
   40.7133   36.2465   36.2607 H   0  0  0  0  0  0  0  0  0  0  0  0
  1  6  2  0
  2  1  1  0
  3  2  2  0
  3  4  1  0
  4  5  2  0
  5  6  1  0
  7  3  1  0
  8  7  2  0
  9  8  1  0
 10 11  1  0
 10  9  2  0
 11 12  2  0
 12  7  1  0
 13  2  1  0
 14 15  1  0
 15 16  2  0
 16 13  1  0
 17 16  1  0
 18 17  2  0
 18 14  1  0
 19 18  1  0
 20 19  1  0
 21 20  2  0
 22 21  1  0
 22 23  1  0
 23 19  2  0
  1 24  1  0
  5 25  1  0
  8 26  1  0
  9 27  1  0
 10 28  1  0
 11 29  1  0
 12 30  1  0
 14 31  1  0
 17 32  1  0
 20 33  1  0
 21 34  1  0
 22 35  1  0
M  ISO  8  24  14  25  14  26  14  27  14  28  14  29  14  30  14  31   9
M  ISO  4  32  14  33  14  34  14  35   9
M  END
>  <minimizedAffinity>  (1) 
-6.53749466

>  <minimizedRMSD>  (1) 
0.683470488

$$$$
