
     RDKit          3D

 37 40  0  0  0  0  0  0  0  0999 V2000
   44.9310   34.6080   45.1540 C   0  0  0  0  0  0  0  0  0  0  0  0
   45.5640   34.8570   43.9100 C   0  0  0  0  0  0  0  0  0  0  0  0
   46.7370   34.1700   43.5900 C   0  0  0  0  0  0  0  0  0  0  0  0
   47.2330   33.2740   44.5010 N   0  0  0  0  0  0  0  0  0  0  0  0
   46.6070   33.0590   45.6770 C   0  0  0  0  0  0  0  0  0  0  0  0
   45.4850   33.7090   45.9970 N   0  0  0  0  0  0  0  0  0  0  0  0
   47.3840   34.4240   42.3190 C   0  0  0  0  0  0  0  0  0  0  0  0
   48.2580   35.4990   42.3350 C   0  0  0  0  0  0  0  0  0  0  0  0
   48.9650   35.8900   41.2180 C   0  0  0  0  0  0  0  0  0  0  0  0
   48.8130   35.1990   40.0250 C   0  0  0  0  0  0  0  0  0  0  0  0
   47.9460   34.1380   40.0200 C   0  0  0  0  0  0  0  0  0  0  0  0
   47.2410   33.7430   41.1270 C   0  0  0  0  0  0  0  0  0  0  0  0
   44.8380   36.0490   42.7860 S   0  0  0  0  0  0  0  0  0  0  0  0
   43.3300   34.0450   39.8300 N   0  0  0  0  0  0  0  0  0  0  0  0
   44.3520   34.4110   40.5520 N   0  0  0  0  0  0  0  0  0  0  0  0
   43.8890   35.2590   41.5340 C   0  0  0  0  0  0  0  0  0  0  0  0
   42.5490   35.3490   41.3240 C   0  0  0  0  0  0  0  0  0  0  0  0
   42.1590   34.5900   40.2490 C   0  0  0  0  0  0  0  0  0  0  0  0
   40.8520   34.4010   39.6850 C   0  0  0  0  0  0  0  0  0  0  0  0
   40.6680   34.5840   38.3310 C   0  0  0  0  0  0  0  0  0  0  0  0
   39.4020   34.3980   37.7970 C   0  0  0  0  0  0  0  0  0  0  0  0
   38.3660   34.0350   38.6430 C   0  0  0  0  0  0  0  0  0  0  0  0
   38.5670   33.8520   40.0160 C   0  0  0  0  0  0  0  0  0  0  0  0
   39.8210   34.0480   40.4750 N   0  0  0  0  0  0  0  0  0  0  0  0
   44.0061   35.1368   45.4278 H   0  0  0  0  0  0  0  0  0  0  0  0
   47.0298   32.3330   46.3871 H   0  0  0  0  0  0  0  0  0  0  0  0
   48.3924   36.0600   43.2716 H   0  0  0  0  0  0  0  0  0  0  0  0
   49.6493   36.7495   41.2728 H   0  0  0  0  0  0  0  0  0  0  0  0
   49.3659   35.4908   39.1199 H   0  0  0  0  0  0  0  0  0  0  0  0
   47.8094   33.5770   39.0837 H   0  0  0  0  0  0  0  0  0  0  0  0
   46.5598   32.8815   41.0654 H   0  0  0  0  0  0  0  0  0  0  0  0
   43.4033   33.4076   39.0242 H   0  0  0  0  0  0  0  0  0  0  0  0
   41.8644   35.9532   41.9375 H   0  0  0  0  0  0  0  0  0  0  0  0
   41.5108   34.8725   37.6856 H   0  0  0  0  0  0  0  0  0  0  0  0
   39.2230   34.5362   36.7205 H   0  0  0  0  0  0  0  0  0  0  0  0
   37.3596   33.8869   38.2245 H   0  0  0  0  0  0  0  0  0  0  0  0
   37.7446   33.5631   40.6870 H   0  0  0  0  0  0  0  0  0  0  0  0
  1  6  2  0
  2  1  1  0
  3  2  2  0
  3  4  1  0
  4  5  2  0
  5  6  1  0
  7  8  2  0
  7  3  1  0
  9  8  1  0
 10  9  2  0
 11 10  1  0
 11 12  2  0
 12  7  1  0
 13  2  1  0
 14 18  1  0
 14 15  1  0
 15 16  2  0
 16 13  1  0
 17 16  1  0
 18 17  2  0
 19 18  1  0
 19 24  1  0
 20 19  2  0
 21 20  1  0
 21 22  2  0
 22 23  1  0
 23 24  2  0
  1 25  1  0
  5 26  1  0
  8 27  1  0
  9 28  1  0
 10 29  1  0
 11 30  1  0
 12 31  1  0
 14 32  1  0
 17 33  1  0
 20 34  1  0
 21 35  1  0
 22 36  1  0
 23 37  1  0
M  ISO  8  25  14  26  14  27  14  28  14  29  14  30  14  31  14  32   9
M  ISO  5  33  14  34  14  35  14  36  14  37  14
M  END
>  <minimizedAffinity>  (1) 
-6.92400169

>  <minimizedRMSD>  (1) 
0.896594882

$$$$
