
     RDKit          3D

 38 41  0  0  0  0  0  0  0  0999 V2000
   44.9520   34.5040   45.2140 C   0  0  0  0  0  0  0  0  0  0  0  0
   45.4370   34.6430   43.8980 C   0  0  0  0  0  0  0  0  0  0  0  0
   46.6410   34.0390   43.5540 C   0  0  0  0  0  0  0  0  0  0  0  0
   47.3110   33.3320   44.5010 N   0  0  0  0  0  0  0  0  0  0  0  0
   46.8140   33.2180   45.7610 C   0  0  0  0  0  0  0  0  0  0  0  0
   45.6610   33.7910   46.1070 N   0  0  0  0  0  0  0  0  0  0  0  0
   47.1520   34.1780   42.1900 C   0  0  0  0  0  0  0  0  0  0  0  0
   48.0820   35.1930   42.0280 C   0  0  0  0  0  0  0  0  0  0  0  0
   48.6690   35.4720   40.8230 C   0  0  0  0  0  0  0  0  0  0  0  0
   48.3360   34.7200   39.6990 C   0  0  0  0  0  0  0  0  0  0  0  0
   47.4130   33.7160   39.8710 C   0  0  0  0  0  0  0  0  0  0  0  0
   46.8220   33.4330   41.0740 C   0  0  0  0  0  0  0  0  0  0  0  0
   44.4950   35.5940   42.6960 S   0  0  0  0  0  0  0  0  0  0  0  0
   42.4700   32.8110   40.8970 N   0  0  0  0  0  0  0  0  0  0  0  0
   43.4250   33.2030   41.7020 N   0  0  0  0  0  0  0  0  0  0  0  0
   43.4190   34.5680   41.7620 C   0  0  0  0  0  0  0  0  0  0  0  0
   42.4110   34.9470   40.9510 C   0  0  0  0  0  0  0  0  0  0  0  0
   41.7770   33.8480   40.3750 C   0  0  0  0  0  0  0  0  0  0  0  0
   40.6770   33.8430   39.4700 N   0  0  0  0  0  0  0  0  0  0  0  0
   39.6370   33.0870   39.8690 C   0  0  0  0  0  0  0  0  0  0  0  0
   38.5050   33.0130   39.0530 C   0  0  0  0  0  0  0  0  0  0  0  0
   38.4620   33.7160   37.8450 C   0  0  0  0  0  0  0  0  0  0  0  0
   37.4490   33.6710   37.0780 O   0  0  0  0  0  0  0  0  0  0  0  0
   39.5440   34.4530   37.5120 N   0  0  0  0  0  0  0  0  0  0  0  0
   40.6320   34.5210   38.3040 C   0  0  0  0  0  0  0  0  0  0  0  0
   41.6690   35.1880   38.0510 O   0  0  0  0  0  0  0  0  0  0  0  0
   44.0021   34.9745   45.5080 H   0  0  0  0  0  0  0  0  0  0  0  0
   47.3749   32.6409   46.5109 H   0  0  0  0  0  0  0  0  0  0  0  0
   48.3597   35.7989   42.9031 H   0  0  0  0  0  0  0  0  0  0  0  0
   49.4020   36.2883   40.7428 H   0  0  0  0  0  0  0  0  0  0  0  0
   48.7911   34.9205   38.7178 H   0  0  0  0  0  0  0  0  0  0  0  0
   47.1345   33.1083   38.9974 H   0  0  0  0  0  0  0  0  0  0  0  0
   46.0885   32.6169   41.1512 H   0  0  0  0  0  0  0  0  0  0  0  0
   42.2690   31.8233   40.6850 H   0  0  0  0  0  0  0  0  0  0  0  0
   42.1248   35.9931   40.7670 H   0  0  0  0  0  0  0  0  0  0  0  0
   39.6776   32.5371   40.8208 H   0  0  0  0  0  0  0  0  0  0  0  0
   37.6454   32.4000   39.3618 H   0  0  0  0  0  0  0  0  0  0  0  0
   39.5371   34.9787   36.6263 H   0  0  0  0  0  0  0  0  0  0  0  0
  1  6  2  0
  2  1  1  0
  3  2  2  0
  3  4  1  0
  4  5  2  0
  5  6  1  0
  7  3  1  0
  8  7  2  0
  9  8  1  0
 10 11  1  0
 10  9  2  0
 11 12  2  0
 12  7  1  0
 13  2  1  0
 14 15  1  0
 15 16  2  0
 16 13  1  0
 17 16  1  0
 18 14  1  0
 18 17  2  0
 19 20  1  0
 19 18  1  0
 21 20  2  0
 22 21  1  0
 23 22  2  0
 24 22  1  0
 24 25  1  0
 25 19  1  0
 26 25  2  0
  1 27  1  0
  5 28  1  0
  8 29  1  0
  9 30  1  0
 10 31  1  0
 11 32  1  0
 12 33  1  0
 14 34  1  0
 17 35  1  0
 20 36  1  0
 21 37  1  0
 24 38  1  0
M  ISO  8  27  14  28  14  29  14  30  14  31  14  32  14  33  14  34   9
M  ISO  4  35  14  36  14  37  14  38   9
M  END
>  <minimizedAffinity>  (1) 
-6.7154212

>  <minimizedRMSD>  (1) 
0.835613191

$$$$
