
     RDKit          3D

 42 46  0  0  0  0  0  0  0  0999 V2000
   42.4890   33.0840   40.9090 N   0  0  0  0  0  0  0  0  0  0  0  0
   43.3950   33.4010   41.8030 N   0  0  0  0  0  0  0  0  0  0  0  0
   43.5440   34.7580   41.8140 C   0  0  0  0  0  0  0  0  0  0  0  0
   42.6700   35.2080   40.8700 C   0  0  0  0  0  0  0  0  0  0  0  0
   41.9870   34.1720   40.2800 C   0  0  0  0  0  0  0  0  0  0  0  0
   40.9960   34.2310   39.2580 N   0  0  0  0  0  0  0  0  0  0  0  0
   40.8560   35.2320   38.3800 C   0  0  0  0  0  0  0  0  0  0  0  0
   39.8030   34.9220   37.5700 N   0  0  0  0  0  0  0  0  0  0  0  0
   39.3240   33.7150   37.9890 C   0  0  0  0  0  0  0  0  0  0  0  0
   38.2520   33.0220   37.4430 C   0  0  0  0  0  0  0  0  0  0  0  0
   37.5860   33.4330   36.4820 O   0  0  0  0  0  0  0  0  0  0  0  0
   37.9880   31.8460   38.0530 N   0  0  0  0  0  0  0  0  0  0  0  0
   38.7220   31.4060   39.1020 C   0  0  0  0  0  0  0  0  0  0  0  0
   38.4160   30.1590   39.7220 N   0  0  0  0  0  0  0  0  0  0  0  0
   39.7730   32.0960   39.6300 N   0  0  0  0  0  0  0  0  0  0  0  0
   40.0800   33.2790   39.0580 C   0  0  0  0  0  0  0  0  0  0  0  0
   44.6200   35.7170   42.8150 S   0  0  0  0  0  0  0  0  0  0  0  0
   45.0260   34.4950   45.2920 C   0  0  0  0  0  0  0  0  0  0  0  0
   45.5120   34.6800   43.9810 C   0  0  0  0  0  0  0  0  0  0  0  0
   46.7040   34.0370   43.6080 C   0  0  0  0  0  0  0  0  0  0  0  0
   47.3440   33.2570   44.5360 N   0  0  0  0  0  0  0  0  0  0  0  0
   46.8360   33.1120   45.7790 C   0  0  0  0  0  0  0  0  0  0  0  0
   45.7030   33.7160   46.1510 N   0  0  0  0  0  0  0  0  0  0  0  0
   47.2200   34.2150   42.2660 C   0  0  0  0  0  0  0  0  0  0  0  0
   48.1690   35.2080   42.1400 C   0  0  0  0  0  0  0  0  0  0  0  0
   48.7720   35.5260   40.9550 C   0  0  0  0  0  0  0  0  0  0  0  0
   48.4280   34.8220   39.7940 C   0  0  0  0  0  0  0  0  0  0  0  0
   47.4870   33.8410   39.9330 C   0  0  0  0  0  0  0  0  0  0  0  0
   46.8870   33.5260   41.1170 C   0  0  0  0  0  0  0  0  0  0  0  0
   42.1935   32.1178   40.7087 H   0  0  0  0  0  0  0  0  0  0  0  0
   42.5290   36.2681   40.6126 H   0  0  0  0  0  0  0  0  0  0  0  0
   41.4765   36.1385   38.3223 H   0  0  0  0  0  0  0  0  0  0  0  0
   37.2070   31.2683   37.7107 H   0  0  0  0  0  0  0  0  0  0  0  0
   38.9777   29.8290   40.5198 H   0  0  0  0  0  0  0  0  0  0  0  0
   37.6333   29.5882   39.3721 H   0  0  0  0  0  0  0  0  0  0  0  0
   44.0951   34.9874   45.6099 H   0  0  0  0  0  0  0  0  0  0  0  0
   47.3689   32.4800   46.5047 H   0  0  0  0  0  0  0  0  0  0  0  0
   48.4554   35.7731   43.0392 H   0  0  0  0  0  0  0  0  0  0  0  0
   49.5223   36.3293   40.9136 H   0  0  0  0  0  0  0  0  0  0  0  0
   48.8909   35.0469   38.8218 H   0  0  0  0  0  0  0  0  0  0  0  0
   47.1962   33.2719   39.0377 H   0  0  0  0  0  0  0  0  0  0  0  0
   46.1371   32.7222   41.1562 H   0  0  0  0  0  0  0  0  0  0  0  0
  1  2  1  0
  2  3  2  0
  3 17  1  0
  4  3  1  0
  5  4  2  0
  5  1  1  0
  6  5  1  0
  7  6  1  0
  8  9  1  0
  8  7  2  0
  9 16  2  0
 10  9  1  0
 10 12  1  0
 11 10  2  0
 12 13  1  0
 13 15  2  0
 13 14  1  0
 16  6  1  0
 16 15  1  0
 17 19  1  0
 18 23  2  0
 19 18  1  0
 20 19  2  0
 20 21  1  0
 21 22  2  0
 22 23  1  0
 24 20  1  0
 25 24  2  0
 26 25  1  0
 27 28  1  0
 27 26  2  0
 28 29  2  0
 29 24  1  0
  1 30  1  0
  4 31  1  0
  7 32  1  0
 12 33  1  0
 14 34  1  0
 14 35  1  0
 18 36  1  0
 22 37  1  0
 25 38  1  0
 26 39  1  0
 27 40  1  0
 28 41  1  0
 29 42  1  0
M  ISO  8  30   9  31  14  32  14  33   9  36  14  37  14  38  14  39  14
M  ISO  3  40  14  41  14  42  14
M  END
>  <minimizedAffinity>  (1) 
-6.97669458

>  <minimizedRMSD>  (1) 
0.66145277

$$$$
