
     RDKit          3D

 35 37  0  0  0  0  0  0  0  0999 V2000
   44.9420   34.6090   45.2110 C   0  0  0  0  0  0  0  0  0  0  0  0
   45.4700   34.7930   43.9020 C   0  0  0  0  0  0  0  0  0  0  0  0
   46.6230   34.1000   43.5430 C   0  0  0  0  0  0  0  0  0  0  0  0
   47.2090   33.2650   44.4610 N   0  0  0  0  0  0  0  0  0  0  0  0
   46.6780   33.1150   45.6960 C   0  0  0  0  0  0  0  0  0  0  0  0
   45.5690   33.7740   46.0590 N   0  0  0  0  0  0  0  0  0  0  0  0
   47.1730   34.2810   42.2040 C   0  0  0  0  0  0  0  0  0  0  0  0
   48.1790   35.2230   42.1330 C   0  0  0  0  0  0  0  0  0  0  0  0
   48.8130   35.5260   40.9490 C   0  0  0  0  0  0  0  0  0  0  0  0
   48.4540   34.8820   39.7770 C   0  0  0  0  0  0  0  0  0  0  0  0
   47.4470   33.9440   39.8650 C   0  0  0  0  0  0  0  0  0  0  0  0
   46.8110   33.6380   41.0390 C   0  0  0  0  0  0  0  0  0  0  0  0
   44.6480   35.8960   42.7700 S   0  0  0  0  0  0  0  0  0  0  0  0
   42.1610   33.6210   40.8440 N   0  0  0  0  0  0  0  0  0  0  0  0
   43.3290   33.8610   41.3670 N   0  0  0  0  0  0  0  0  0  0  0  0
   43.3190   35.1010   41.9350 C   0  0  0  0  0  0  0  0  0  0  0  0
   42.0640   35.5690   41.7060 C   0  0  0  0  0  0  0  0  0  0  0  0
   41.2910   34.6660   41.0180 C   0  0  0  0  0  0  0  0  0  0  0  0
   39.9570   34.7630   40.5910 N   0  0  0  0  0  0  0  0  0  0  0  0
   39.0370   33.6920   40.7020 C   0  0  0  0  0  0  0  0  0  0  0  0
   39.1800   32.8930   41.7070 N   0  0  0  0  0  0  0  0  0  0  0  0
   38.0100   33.5420   39.7230 N   0  0  0  0  0  0  0  0  0  0  0  0
   38.5090   32.1070   41.7930 H   0  0  0  0  0  0  0  0  0  0  0  0
   44.0329   35.1428   45.5251 H   0  0  0  0  0  0  0  0  0  0  0  0
   47.1651   32.4401   46.4152 H   0  0  0  0  0  0  0  0  0  0  0  0
   48.4837   35.7479   43.0504 H   0  0  0  0  0  0  0  0  0  0  0  0
   49.6096   36.2844   40.9340 H   0  0  0  0  0  0  0  0  0  0  0  0
   48.9487   35.1079   38.8209 H   0  0  0  0  0  0  0  0  0  0  0  0
   47.1401   33.4168   38.9496 H   0  0  0  0  0  0  0  0  0  0  0  0
   46.0131   32.8809   41.0524 H   0  0  0  0  0  0  0  0  0  0  0  0
   41.9187   32.7469   40.3559 H   0  0  0  0  0  0  0  0  0  0  0  0
   41.7083   36.5569   42.0338 H   0  0  0  0  0  0  0  0  0  0  0  0
   39.6339   35.6503   40.1797 H   0  0  0  0  0  0  0  0  0  0  0  0
   37.3373   32.7656   39.7971 H   0  0  0  0  0  0  0  0  0  0  0  0
   37.9413   34.2102   38.9421 H   0  0  0  0  0  0  0  0  0  0  0  0
  1  6  2  0
  2  1  1  0
  3  2  2  0
  3  4  1  0
  4  5  2  0
  5  6  1  0
  7  3  1  0
  8  7  2  0
  9  8  1  0
 10 11  1  0
 10  9  2  0
 11 12  2  0
 12  7  1  0
 13  2  1  0
 14 18  1  0
 14 15  1  0
 15 16  2  0
 16 13  1  0
 17 16  1  0
 18 17  2  0
 19 20  1  0
 19 18  1  0
 20 21  2  0
 21 23  1  0
 22 20  1  0
  1 24  1  0
  5 25  1  0
  8 26  1  0
  9 27  1  0
 10 28  1  0
 11 29  1  0
 12 30  1  0
 14 31  1  0
 17 32  1  0
 19 33  1  0
 22 34  1  0
 22 35  1  0
M  ISO  8  24  14  25  14  26  14  27  14  28  14  29  14  30  14  31   9
M  ISO  1  32  14
M  END
>  <minimizedAffinity>  (1) 
-6.44506645

>  <minimizedRMSD>  (1) 
0.602189124

$$$$
