
     RDKit          3D

 33 36  0  0  0  0  0  0  0  0999 V2000
   45.1140   34.3900   45.3870 C   0  0  0  0  0  0  0  0  0  0  0  0
   45.6260   34.6530   44.0860 C   0  0  0  0  0  0  0  0  0  0  0  0
   46.7580   33.9700   43.6510 C   0  0  0  0  0  0  0  0  0  0  0  0
   47.3370   33.0700   44.4890 N   0  0  0  0  0  0  0  0  0  0  0  0
   46.8300   32.8340   45.7300 C   0  0  0  0  0  0  0  0  0  0  0  0
   45.7490   33.4790   46.1620 N   0  0  0  0  0  0  0  0  0  0  0  0
   47.2840   34.2400   42.3150 C   0  0  0  0  0  0  0  0  0  0  0  0
   48.2680   35.2180   42.2880 C   0  0  0  0  0  0  0  0  0  0  0  0
   48.8760   35.5990   41.1110 C   0  0  0  0  0  0  0  0  0  0  0  0
   48.5150   35.0100   39.9110 C   0  0  0  0  0  0  0  0  0  0  0  0
   47.5400   34.0440   39.9640 C   0  0  0  0  0  0  0  0  0  0  0  0
   46.9290   33.6570   41.1270 C   0  0  0  0  0  0  0  0  0  0  0  0
   44.7980   35.8620   43.0410 S   0  0  0  0  0  0  0  0  0  0  0  0
   42.5370   33.5790   40.8620 N   0  0  0  0  0  0  0  0  0  0  0  0
   43.3770   33.7500   41.8490 N   0  0  0  0  0  0  0  0  0  0  0  0
   43.7080   35.0860   41.9050 C   0  0  0  0  0  0  0  0  0  0  0  0
   43.0110   35.6570   40.9010 C   0  0  0  0  0  0  0  0  0  0  0  0
   42.2560   34.7350   40.2160 C   0  0  0  0  0  0  0  0  0  0  0  0
   41.3620   34.8710   39.0820 C   0  0  0  0  0  0  0  0  0  0  0  0
   41.5700   35.7580   38.0920 N   0  0  0  0  0  0  0  0  0  0  0  0
   40.5750   35.6040   37.2480 O   0  0  0  0  0  0  0  0  0  0  0  0
   39.7630   34.6620   37.6720 C   0  0  0  0  0  0  0  0  0  0  0  0
   40.2470   34.1930   38.8230 N   0  0  0  0  0  0  0  0  0  0  0  0
   44.2209   34.9157   45.7557 H   0  0  0  0  0  0  0  0  0  0  0  0
   47.3209   32.0995   46.3854 H   0  0  0  0  0  0  0  0  0  0  0  0
   48.5703   35.7011   43.2289 H   0  0  0  0  0  0  0  0  0  0  0  0
   49.6538   36.3767   41.1252 H   0  0  0  0  0  0  0  0  0  0  0  0
   48.9864   35.3017   38.9609 H   0  0  0  0  0  0  0  0  0  0  0  0
   47.2348   33.5572   39.0260 H   0  0  0  0  0  0  0  0  0  0  0  0
   46.1529   32.8777   41.1073 H   0  0  0  0  0  0  0  0  0  0  0  0
   42.1340   32.6667   40.6046 H   0  0  0  0  0  0  0  0  0  0  0  0
   43.0430   36.7298   40.6599 H   0  0  0  0  0  0  0  0  0  0  0  0
   38.8470   34.3209   37.1675 H   0  0  0  0  0  0  0  0  0  0  0  0
  1  6  2  0
  2  1  1  0
  3  2  2  0
  3  4  1  0
  4  5  2  0
  5  6  1  0
  7  3  1  0
  8  7  2  0
  9  8  1  0
 10 11  1  0
 10  9  2  0
 11 12  2  0
 12  7  1  0
 13  2  1  0
 14 15  1  0
 15 16  2  0
 16 13  1  0
 17 16  1  0
 18 14  1  0
 18 17  2  0
 19 18  1  0
 20 19  2  0
 21 22  1  0
 21 20  1  0
 22 23  2  0
 23 19  1  0
  1 24  1  0
  5 25  1  0
  8 26  1  0
  9 27  1  0
 10 28  1  0
 11 29  1  0
 12 30  1  0
 14 31  1  0
 17 32  1  0
 22 33  1  0
M  ISO  8  24  14  25  14  26  14  27  14  28  14  29  14  30  14  31   9
M  ISO  2  32  14  33  14
M  END
>  <minimizedAffinity>  (1) 
-6.40162611

>  <minimizedRMSD>  (1) 
0.702061534

$$$$
