
     RDKit          3D

 41 44  0  0  0  0  0  0  0  0999 V2000
   44.3940   35.3650   44.6300 C   0  0  0  0  0  0  0  0  0  0  0  0
   44.9620   35.2660   43.3470 C   0  0  0  0  0  0  0  0  0  0  0  0
   46.0930   34.4700   43.1790 C   0  0  0  0  0  0  0  0  0  0  0  0
   46.6050   33.8170   44.2720 N   0  0  0  0  0  0  0  0  0  0  0  0
   46.0290   33.9400   45.4800 C   0  0  0  0  0  0  0  0  0  0  0  0
   44.9410   34.7010   45.6640 N   0  0  0  0  0  0  0  0  0  0  0  0
   46.7020   34.3510   41.8600 C   0  0  0  0  0  0  0  0  0  0  0  0
   47.8360   35.1140   41.6850 C   0  0  0  0  0  0  0  0  0  0  0  0
   48.5400   35.1220   40.5000 C   0  0  0  0  0  0  0  0  0  0  0  0
   48.1100   34.3410   39.4280 C   0  0  0  0  0  0  0  0  0  0  0  0
   46.9800   33.5890   39.6190 C   0  0  0  0  0  0  0  0  0  0  0  0
   46.2770   33.5790   40.7970 C   0  0  0  0  0  0  0  0  0  0  0  0
   44.2390   36.1510   41.9570 S   0  0  0  0  0  0  0  0  0  0  0  0
   40.6860   34.7560   41.2120 N   0  0  0  0  0  0  0  0  0  0  0  0
   41.4820   35.5450   41.9060 N   0  0  0  0  0  0  0  0  0  0  0  0
   42.7570   35.3630   41.4180 C   0  0  0  0  0  0  0  0  0  0  0  0
   42.6460   34.4350   40.4190 C   0  0  0  0  0  0  0  0  0  0  0  0
   41.3400   34.0370   40.2720 C   0  0  0  0  0  0  0  0  0  0  0  0
   39.6790   31.2940   37.6580 C   0  0  0  0  0  0  0  0  0  0  0  0
   41.0410   31.2070   37.8900 C   0  0  0  0  0  0  0  0  0  0  0  0
   41.5390   32.1420   38.7660 C   0  0  0  0  0  0  0  0  0  0  0  0
   40.7290   33.0820   39.3550 C   0  0  0  0  0  0  0  0  0  0  0  0
   39.3730   33.1510   39.1090 C   0  0  0  0  0  0  0  0  0  0  0  0
   38.8500   32.2200   38.2320 C   0  0  0  0  0  0  0  0  0  0  0  0
   38.9330   30.1530   36.5590 S   0  0  0  0  0  0  0  0  0  0  0  0
   38.1020   30.7990   35.5090 O   0  0  0  0  0  0  0  0  0  0  0  0
   38.1090   29.2150   37.4060 O   0  0  0  0  0  0  0  0  0  0  0  0
   43.5005   35.9868   44.7881 H   0  0  0  0  0  0  0  0  0  0  0  0
   46.4605   33.4036   46.3379 H   0  0  0  0  0  0  0  0  0  0  0  0
   48.1913   35.7375   42.5187 H   0  0  0  0  0  0  0  0  0  0  0  0
   49.4413   35.7447   40.4000 H   0  0  0  0  0  0  0  0  0  0  0  0
   48.6533   34.3289   38.4716 H   0  0  0  0  0  0  0  0  0  0  0  0
   46.6199   32.9640   38.7885 H   0  0  0  0  0  0  0  0  0  0  0  0
   45.3754   32.9564   40.8947 H   0  0  0  0  0  0  0  0  0  0  0  0
   39.6700   34.6936   41.3696 H   0  0  0  0  0  0  0  0  0  0  0  0
   43.4865   34.0596   39.8169 H   0  0  0  0  0  0  0  0  0  0  0  0
   41.6761   30.4478   37.4101 H   0  0  0  0  0  0  0  0  0  0  0  0
   42.6135   32.1373   39.0013 H   0  0  0  0  0  0  0  0  0  0  0  0
   38.7385   33.9110   39.5883 H   0  0  0  0  0  0  0  0  0  0  0  0
   37.7754   32.2229   37.9968 H   0  0  0  0  0  0  0  0  0  0  0  0
   39.9083   29.4860   35.8656 H   0  0  0  0  0  0  0  0  0  0  0  0
  1  6  2  0
  2  1  1  0
  3  2  2  0
  3  4  1  0
  4  5  2  0
  5  6  1  0
  7  3  1  0
  8  7  2  0
  9  8  1  0
 10 11  1  0
 10  9  2  0
 11 12  2  0
 12  7  1  0
 13  2  1  0
 14 15  1  0
 16 15  2  0
 16 13  1  0
 17 16  1  0
 18 17  2  0
 18 14  1  0
 19 20  2  0
 19 24  1  0
 20 21  1  0
 21 22  2  0
 22 18  1  0
 23 22  1  0
 24 23  2  0
 25 27  2  0
 25 19  1  0
 26 25  2  0
  1 28  1  0
  5 29  1  0
  8 30  1  0
  9 31  1  0
 10 32  1  0
 11 33  1  0
 12 34  1  0
 14 35  1  0
 17 36  1  0
 20 37  1  0
 21 38  1  0
 23 39  1  0
 24 40  1  0
 25 41  1  0
M  ISO  8  28  14  29  14  30  14  31  14  32  14  33  14  34  14  35   9
M  ISO  6  36  14  37  14  38  14  39  14  40  14  41  11
M  END
>  <minimizedAffinity>  (1) 
-6.05714846

>  <minimizedRMSD>  (1) 
2.5878346

$$$$
