
     RDKit          3D

 37 39  0  0  0  0  0  0  0  0999 V2000
   44.9490   34.6040   45.2360 C   0  0  0  0  0  0  0  0  0  0  0  0
   45.4720   34.7810   43.9320 C   0  0  0  0  0  0  0  0  0  0  0  0
   46.6210   34.0830   43.5540 C   0  0  0  0  0  0  0  0  0  0  0  0
   47.1940   33.2500   44.4770 N   0  0  0  0  0  0  0  0  0  0  0  0
   46.6760   33.1040   45.7050 C   0  0  0  0  0  0  0  0  0  0  0  0
   45.5750   33.7620   46.0910 N   0  0  0  0  0  0  0  0  0  0  0  0
   47.1550   34.2640   42.2200 C   0  0  0  0  0  0  0  0  0  0  0  0
   48.1700   35.2040   42.1400 C   0  0  0  0  0  0  0  0  0  0  0  0
   48.8010   35.5140   40.9600 C   0  0  0  0  0  0  0  0  0  0  0  0
   48.4190   34.8680   39.7830 C   0  0  0  0  0  0  0  0  0  0  0  0
   47.4060   33.9330   39.8740 C   0  0  0  0  0  0  0  0  0  0  0  0
   46.7820   33.6280   41.0530 C   0  0  0  0  0  0  0  0  0  0  0  0
   44.6370   35.8980   42.8040 S   0  0  0  0  0  0  0  0  0  0  0  0
   42.2980   33.4550   40.8820 N   0  0  0  0  0  0  0  0  0  0  0  0
   43.2450   33.6910   41.7720 N   0  0  0  0  0  0  0  0  0  0  0  0
   43.4730   35.0370   41.7940 C   0  0  0  0  0  0  0  0  0  0  0  0
   42.6260   35.5660   40.8870 C   0  0  0  0  0  0  0  0  0  0  0  0
   41.8600   34.5970   40.2830 C   0  0  0  0  0  0  0  0  0  0  0  0
   40.8290   34.7570   39.2510 C   0  0  0  0  0  0  0  0  0  0  0  0
   41.1940   35.7880   38.2330 C   0  0  0  0  0  0  0  0  0  0  0  0
   39.4510   35.0500   39.8090 C   0  0  0  0  0  0  0  0  0  0  0  0
   44.0442   35.1447   45.5505 H   0  0  0  0  0  0  0  0  0  0  0  0
   47.1692   32.4245   46.4157 H   0  0  0  0  0  0  0  0  0  0  0  0
   48.4829   35.7227   43.0582 H   0  0  0  0  0  0  0  0  0  0  0  0
   49.6027   36.2670   40.9426 H   0  0  0  0  0  0  0  0  0  0  0  0
   48.9047   35.0942   38.8223 H   0  0  0  0  0  0  0  0  0  0  0  0
   47.0874   33.4114   38.9595 H   0  0  0  0  0  0  0  0  0  0  0  0
   45.9812   32.8741   41.0709 H   0  0  0  0  0  0  0  0  0  0  0  0
   41.9331   32.5163   40.6661 H   0  0  0  0  0  0  0  0  0  0  0  0
   42.5567   36.6398   40.6588 H   0  0  0  0  0  0  0  0  0  0  0  0
   40.7816   33.7756   38.7565 H   0  0  0  0  0  0  0  0  0  0  0  0
   41.5194   36.7071   38.7423 H   0  0  0  0  0  0  0  0  0  0  0  0
   42.0123   35.4082   37.6036 H   0  0  0  0  0  0  0  0  0  0  0  0
   40.3190   36.0077   37.6036 H   0  0  0  0  0  0  0  0  0  0  0  0
   39.4911   35.0415   40.9082 H   0  0  0  0  0  0  0  0  0  0  0  0
   39.1176   36.0391   39.4619 H   0  0  0  0  0  0  0  0  0  0  0  0
   38.7440   34.2821   39.4619 H   0  0  0  0  0  0  0  0  0  0  0  0
  1  6  2  0
  2  1  1  0
  3  2  2  0
  3  4  1  0
  4  5  2  0
  5  6  1  0
  7  3  1  0
  8  7  2  0
  9  8  1  0
 10 11  1  0
 10  9  2  0
 11 12  2  0
 12  7  1  0
 13  2  1  0
 14 15  1  0
 15 16  2  0
 16 13  1  0
 17 16  1  0
 18 14  1  0
 18 17  2  0
 19 21  1  0
 19 18  1  0
 20 19  1  0
  1 22  1  0
  5 23  1  0
  8 24  1  0
  9 25  1  0
 10 26  1  0
 11 27  1  0
 12 28  1  0
 14 29  1  0
 17 30  1  0
 19 31  1  0
 20 32  1  0
 20 33  1  0
 20 34  1  0
 21 35  1  0
 21 36  1  0
 21 37  1  0
M  ISO  8  22  14  23  14  24  14  25  14  26  14  27  14  28  14  29   9
M  ISO  8  30  14  31   8  32   8  33   8  34   8  35   8  36   8  37   8
M  END
>  <minimizedAffinity>  (1) 
-6.19680262

>  <minimizedRMSD>  (1) 
0.208364591

$$$$
