
     RDKit          3D

 35 38  0  0  0  0  0  0  0  0999 V2000
   45.0810   34.3990   45.3530 C   0  0  0  0  0  0  0  0  0  0  0  0
   45.5810   34.6430   44.0520 C   0  0  0  0  0  0  0  0  0  0  0  0
   46.7520   33.9900   43.6540 C   0  0  0  0  0  0  0  0  0  0  0  0
   47.3630   33.1440   44.5400 N   0  0  0  0  0  0  0  0  0  0  0  0
   46.8590   32.9350   45.7670 C   0  0  0  0  0  0  0  0  0  0  0  0
   45.7350   33.5520   46.1740 N   0  0  0  0  0  0  0  0  0  0  0  0
   47.2800   34.2330   42.3130 C   0  0  0  0  0  0  0  0  0  0  0  0
   48.2440   35.2220   42.2560 C   0  0  0  0  0  0  0  0  0  0  0  0
   48.8560   35.5920   41.0910 C   0  0  0  0  0  0  0  0  0  0  0  0
   48.5070   34.9560   39.9020 C   0  0  0  0  0  0  0  0  0  0  0  0
   47.5420   33.9680   39.9760 C   0  0  0  0  0  0  0  0  0  0  0  0
   46.9360   33.6040   41.1390 C   0  0  0  0  0  0  0  0  0  0  0  0
   44.7090   35.7700   42.9650 S   0  0  0  0  0  0  0  0  0  0  0  0
   42.5210   33.3180   40.8980 N   0  0  0  0  0  0  0  0  0  0  0  0
   43.4480   33.5390   41.7980 N   0  0  0  0  0  0  0  0  0  0  0  0
   43.5990   34.9100   41.9060 C   0  0  0  0  0  0  0  0  0  0  0  0
   42.7140   35.4430   41.0250 C   0  0  0  0  0  0  0  0  0  0  0  0
   42.0150   34.4570   40.3700 C   0  0  0  0  0  0  0  0  0  0  0  0
   40.9730   34.5260   39.3500 C   0  0  0  0  0  0  0  0  0  0  0  0
   39.6160   34.3940   39.6070 C   0  0  0  0  0  0  0  0  0  0  0  0
   38.9270   34.5050   38.4700 N   0  0  0  0  0  0  0  0  0  0  0  0
   39.8330   34.7080   37.4740 C   0  0  0  0  0  0  0  0  0  0  0  0
   41.0620   34.7170   38.0210 N   0  0  0  0  0  0  0  0  0  0  0  0
   44.1620   34.8984   45.6937 H   0  0  0  0  0  0  0  0  0  0  0  0
   47.3749   32.2463   46.4522 H   0  0  0  0  0  0  0  0  0  0  0  0
   48.5307   35.7327   43.1871 H   0  0  0  0  0  0  0  0  0  0  0  0
   49.6178   36.3855   41.0925 H   0  0  0  0  0  0  0  0  0  0  0  0
   48.9783   35.2276   38.9459 H   0  0  0  0  0  0  0  0  0  0  0  0
   47.2501   33.4513   39.0498 H   0  0  0  0  0  0  0  0  0  0  0  0
   46.1744   32.8103   41.1402 H   0  0  0  0  0  0  0  0  0  0  0  0
   42.2100   32.3758   40.6214 H   0  0  0  0  0  0  0  0  0  0  0  0
   42.5747   36.5212   40.8575 H   0  0  0  0  0  0  0  0  0  0  0  0
   39.1742   34.2233   40.5998 H   0  0  0  0  0  0  0  0  0  0  0  0
   39.6003   34.8415   36.4072 H   0  0  0  0  0  0  0  0  0  0  0  0
   41.9405   34.8503   37.5000 H   0  0  0  0  0  0  0  0  0  0  0  0
  1  6  2  0
  2  1  1  0
  3  2  2  0
  3  4  1  0
  4  5  2  0
  5  6  1  0
  7  3  1  0
  8  7  2  0
  9  8  1  0
 10 11  1  0
 10  9  2  0
 11 12  2  0
 12  7  1  0
 13  2  1  0
 14 15  1  0
 15 16  2  0
 16 13  1  0
 17 16  1  0
 18 14  1  0
 18 17  2  0
 19 20  2  0
 19 18  1  0
 21 20  1  0
 22 23  1  0
 22 21  2  0
 23 19  1  0
  1 24  1  0
  5 25  1  0
  8 26  1  0
  9 27  1  0
 10 28  1  0
 11 29  1  0
 12 30  1  0
 14 31  1  0
 17 32  1  0
 20 33  1  0
 22 34  1  0
 23 35  1  0
M  ISO  8  24  14  25  14  26  14  27  14  28  14  29  14  30  14  31   9
M  ISO  4  32  14  33  14  34  14  35   9
M  END
>  <minimizedAffinity>  (1) 
-6.29885674

>  <minimizedRMSD>  (1) 
0.556672812

$$$$
