
     RDKit          3D

 23 25  0  0  0  0  0  0  0  0999 V2000
   46.2510   34.8230   42.0650 C   0  0  0  0  0  0  0  0  0  0  0  0
   45.6800   34.2450   40.9460 C   0  0  0  0  0  0  0  0  0  0  0  0
   46.4920   33.8240   39.8410 C   0  0  0  0  0  0  0  0  0  0  0  0
   47.8330   34.0040   39.9400 N   0  0  0  0  0  0  0  0  0  0  0  0
   48.3740   34.5680   41.0550 C   0  0  0  0  0  0  0  0  0  0  0  0
   47.5960   34.9520   42.0630 N   0  0  0  0  0  0  0  0  0  0  0  0
   44.2700   33.9900   40.9340 N   0  0  0  0  0  0  0  0  0  0  0  0
   43.6140   32.8670   41.4080 C   0  0  0  0  0  0  0  0  0  0  0  0
   42.2890   33.0160   41.1900 N   0  0  0  0  0  0  0  0  0  0  0  0
   42.1370   34.2460   40.5720 C   0  0  0  0  0  0  0  0  0  0  0  0
   43.3750   34.8560   40.4120 N   0  0  0  0  0  0  0  0  0  0  0  0
   45.5910   35.4240   43.2090 C   0  0  0  0  0  0  0  0  0  0  0  0
   45.2180   34.7260   44.3360 C   0  0  0  0  0  0  0  0  0  0  0  0
   44.6050   35.4990   45.2800 C   0  0  0  0  0  0  0  0  0  0  0  0
   44.6110   36.6980   44.7010 N   0  0  0  0  0  0  0  0  0  0  0  0
   45.1690   36.6380   43.5380 N   0  0  0  0  0  0  0  0  0  0  0  0
   46.0431   33.3711   38.9447 H   0  0  0  0  0  0  0  0  0  0  0  0
   49.4631   34.7071   41.1226 H   0  0  0  0  0  0  0  0  0  0  0  0
   44.0921   31.9977   41.8832 H   0  0  0  0  0  0  0  0  0  0  0  0
   41.1762   34.6771   40.2542 H   0  0  0  0  0  0  0  0  0  0  0  0
   45.3969   33.6482   44.4636 H   0  0  0  0  0  0  0  0  0  0  0  0
   44.2089   35.2069   46.2638 H   0  0  0  0  0  0  0  0  0  0  0  0
   44.2242   37.5546   45.1223 H   0  0  0  0  0  0  0  0  0  0  0  0
  1 12  1  0
  2  1  2  0
  3  4  2  0
  3  2  1  0
  4  5  1  0
  5  6  2  0
  6  1  1  0
  7  2  1  0
  7  8  1  0
  9  8  2  0
 10  9  1  0
 11 10  2  0
 11  7  1  0
 12 16  2  0
 12 13  1  0
 13 14  2  0
 15 14  1  0
 16 15  1  0
  3 17  1  0
  5 18  1  0
  8 19  1  0
 10 20  1  0
 13 21  1  0
 14 22  1  0
 15 23  1  0
M  ISO  7  17  14  18  14  19  14  20  14  21  14  22  14  23   9
M  END
>  <minimizedAffinity>  (1) 
-4.67376137

>  <minimizedRMSD>  (1) 
3.23206496

$$$$
