
     RDKit          3D

 25 26  0  0  0  0  0  0  0  0999 V2000
   46.2790   32.9580   45.0500 C   0  0  0  0  0  0  0  0  0  0  0  0
   45.6510   34.2000   44.6940 N   0  0  0  0  0  0  0  0  0  0  0  0
   44.7860   35.0200   45.2720 N   0  0  0  0  0  0  0  0  0  0  0  0
   44.5060   36.0590   44.4990 C   0  0  0  0  0  0  0  0  0  0  0  0
   45.2200   35.9340   43.3360 C   0  0  0  0  0  0  0  0  0  0  0  0
   45.9240   34.7730   43.4780 C   0  0  0  0  0  0  0  0  0  0  0  0
   46.8270   34.2820   42.4210 C   0  0  0  0  0  0  0  0  0  0  0  0
   46.7480   34.6210   41.2110 O   0  0  0  0  0  0  0  0  0  0  0  0
   46.7700   32.9280   46.4760 C   0  0  0  0  0  0  0  0  0  0  0  0
   46.1420   31.8930   47.2720 C   0  0  0  0  0  0  0  0  0  0  0  0
   45.9270   32.2270   48.6030 C   0  0  0  0  0  0  0  0  0  0  0  0
   45.3170   31.3370   49.4900 C   0  0  0  0  0  0  0  0  0  0  0  0
   44.9460   30.1270   48.9740 N   0  0  0  0  0  0  0  0  0  0  0  0
   45.1650   29.8270   47.6790 C   0  0  0  0  0  0  0  0  0  0  0  0
   45.7490   30.7040   46.8710 N   0  0  0  0  0  0  0  0  0  0  0  0
   47.1372   32.7958   44.3812 H   0  0  0  0  0  0  0  0  0  0  0  0
   45.5210   32.1674   44.9485 H   0  0  0  0  0  0  0  0  0  0  0  0
   43.8185   36.8808   44.7480 H   0  0  0  0  0  0  0  0  0  0  0  0
   45.2248   36.6196   42.4758 H   0  0  0  0  0  0  0  0  0  0  0  0
   47.6196   33.5751   42.7075 H   0  0  0  0  0  0  0  0  0  0  0  0
   47.8560   32.7534   46.4687 H   0  0  0  0  0  0  0  0  0  0  0  0
   46.5112   33.8949   46.9323 H   0  0  0  0  0  0  0  0  0  0  0  0
   46.2445   33.2153   48.9670 H   0  0  0  0  0  0  0  0  0  0  0  0
   45.1448   31.5956   50.5452 H   0  0  0  0  0  0  0  0  0  0  0  0
   44.8571   28.8463   47.2873 H   0  0  0  0  0  0  0  0  0  0  0  0
  1  9  1  0
  2  1  1  0
  2  3  1  0
  4  3  2  0
  5  6  2  0
  5  4  1  0
  6  2  1  0
  7  6  1  0
  8  7  2  0
  9 10  1  0
 10 11  2  0
 11 12  1  0
 13 12  2  0
 14 13  1  0
 15 10  1  0
 15 14  2  0
  1 16  1  0
  1 17  1  0
  4 18  1  0
  5 19  1  0
  7 20  1  0
  9 21  1  0
  9 22  1  0
 11 23  1  0
 12 24  1  0
 14 25  1  0
M  ISO  8  16   8  17   8  18  14  19  14  20   6  21   8  22   8  23  14
M  ISO  2  24  14  25  14
M  END
>  <minimizedAffinity>  (1) 
-4.51292706

>  <minimizedRMSD>  (1) 
6.0341773

$$$$
