
     RDKit          3D

 21 23  0  0  0  0  0  0  0  0999 V2000
   46.2050   34.0230   44.1520 C   0  0  0  0  0  0  0  0  0  0  0  0
   46.0610   34.9560   43.1370 C   0  0  0  0  0  0  0  0  0  0  0  0
   45.1800   36.0680   43.3020 C   0  0  0  0  0  0  0  0  0  0  0  0
   44.5050   36.1770   44.4770 N   0  0  0  0  0  0  0  0  0  0  0  0
   44.6690   35.2550   45.4580 C   0  0  0  0  0  0  0  0  0  0  0  0
   45.4940   34.2250   45.2810 N   0  0  0  0  0  0  0  0  0  0  0  0
   46.8700   34.8240   41.9690 N   0  0  0  0  0  0  0  0  0  0  0  0
   48.1220   35.3610   41.7380 C   0  0  0  0  0  0  0  0  0  0  0  0
   48.5230   34.9970   40.5000 N   0  0  0  0  0  0  0  0  0  0  0  0
   47.4990   34.2330   39.9710 C   0  0  0  0  0  0  0  0  0  0  0  0
   46.4640   34.1250   40.8920 N   0  0  0  0  0  0  0  0  0  0  0  0
   46.9430   32.7700   44.1430 C   0  0  0  0  0  0  0  0  0  0  0  0
   48.0210   32.2960   43.5100 N   0  0  0  0  0  0  0  0  0  0  0  0
   48.3050   31.0820   43.8490 O   0  0  0  0  0  0  0  0  0  0  0  0
   47.4360   30.6630   44.7330 C   0  0  0  0  0  0  0  0  0  0  0  0
   46.6330   31.7020   44.8850 N   0  0  0  0  0  0  0  0  0  0  0  0
   45.0516   36.8131   42.5031 H   0  0  0  0  0  0  0  0  0  0  0  0
   44.1179   35.3586   46.4043 H   0  0  0  0  0  0  0  0  0  0  0  0
   48.6956   35.9805   42.4431 H   0  0  0  0  0  0  0  0  0  0  0  0
   47.5031   33.7781   38.9695 H   0  0  0  0  0  0  0  0  0  0  0  0
   47.3858   29.6828   45.2297 H   0  0  0  0  0  0  0  0  0  0  0  0
  1  6  2  0
  2  3  2  0
  2  1  1  0
  3  4  1  0
  4  5  2  0
  6  5  1  0
  7  2  1  0
  8  7  1  0
  9  8  2  0
 10  9  1  0
 10 11  2  0
 11  7  1  0
 12  1  1  0
 12 16  1  0
 13 14  1  0
 13 12  2  0
 14 15  1  0
 15 16  2  0
  3 17  1  0
  5 18  1  0
  8 19  1  0
 10 20  1  0
 15 21  1  0
M  ISO  5  17  14  18  14  19  14  20  14  21  14
M  END
>  <minimizedAffinity>  (1) 
-4.49533129

>  <minimizedRMSD>  (1) 
4.88816309

$$$$
