
     RDKit          3D

 25 27  0  0  0  0  0  0  0  0999 V2000
   46.1640   33.9750   44.6320 C   0  0  0  0  0  0  0  0  0  0  0  0
   46.5110   34.4760   43.3890 C   0  0  0  0  0  0  0  0  0  0  0  0
   45.8110   35.5920   42.8320 C   0  0  0  0  0  0  0  0  0  0  0  0
   44.8070   36.1390   43.5700 N   0  0  0  0  0  0  0  0  0  0  0  0
   44.4930   35.6330   44.7920 C   0  0  0  0  0  0  0  0  0  0  0  0
   45.1590   34.5890   45.2860 N   0  0  0  0  0  0  0  0  0  0  0  0
   47.6450   33.9260   42.7140 N   0  0  0  0  0  0  0  0  0  0  0  0
   48.9760   34.2520   42.8980 C   0  0  0  0  0  0  0  0  0  0  0  0
   49.7230   33.5170   42.0420 N   0  0  0  0  0  0  0  0  0  0  0  0
   48.8330   32.7380   41.3260 C   0  0  0  0  0  0  0  0  0  0  0  0
   47.5320   32.9930   41.7460 N   0  0  0  0  0  0  0  0  0  0  0  0
   46.6470   32.7940   45.3070 C   0  0  0  0  0  0  0  0  0  0  0  0
   46.8170   32.7720   46.6660 C   0  0  0  0  0  0  0  0  0  0  0  0
   47.2740   31.7310   47.4230 C   0  0  0  0  0  0  0  0  0  0  0  0
   47.6100   30.5620   46.7930 C   0  0  0  0  0  0  0  0  0  0  0  0
   47.4550   30.5420   45.4350 C   0  0  0  0  0  0  0  0  0  0  0  0
   47.0040   31.6150   44.8230 N   0  0  0  0  0  0  0  0  0  0  0  0
   46.0748   35.9937   41.8425 H   0  0  0  0  0  0  0  0  0  0  0  0
   43.6820   36.0891   45.3787 H   0  0  0  0  0  0  0  0  0  0  0  0
   49.3631   34.9863   43.6198 H   0  0  0  0  0  0  0  0  0  0  0  0
   49.1129   32.0217   40.5396 H   0  0  0  0  0  0  0  0  0  0  0  0
   46.5570   33.6938   47.2070 H   0  0  0  0  0  0  0  0  0  0  0  0
   47.3701   31.8292   48.5144 H   0  0  0  0  0  0  0  0  0  0  0  0
   47.9833   29.6889   47.3483 H   0  0  0  0  0  0  0  0  0  0  0  0
   47.7049   29.6380   44.8603 H   0  0  0  0  0  0  0  0  0  0  0  0
  1  6  2  0
  1 12  1  0
  2  1  1  0
  3  2  2  0
  3  4  1  0
  4  5  2  0
  5  6  1  0
  7  8  1  0
  7  2  1  0
  9  8  2  0
 10 11  2  0
 10  9  1  0
 11  7  1  0
 12 13  2  0
 13 14  1  0
 15 14  2  0
 16 15  1  0
 17 12  1  0
 17 16  2  0
  3 18  1  0
  5 19  1  0
  8 20  1  0
 10 21  1  0
 13 22  1  0
 14 23  1  0
 15 24  1  0
 16 25  1  0
M  ISO  8  18  14  19  14  20  14  21  14  22  14  23  14  24  14  25  14
M  END
>  <minimizedAffinity>  (1) 
-4.6248641

>  <minimizedRMSD>  (1) 
5.69815731

$$$$
