
     RDKit          3D

 29 30  0  0  0  0  0  0  0  0999 V2000
   46.9000   32.7860   46.5810 C   0  0  0  0  0  0  0  0  0  0  0  0
   46.2230   32.1040   47.6380 N   0  0  0  0  0  0  0  0  0  0  0  0
   44.9850   32.1430   48.0670 N   0  0  0  0  0  0  0  0  0  0  0  0
   44.7550   31.3380   49.0980 C   0  0  0  0  0  0  0  0  0  0  0  0
   45.9540   30.7200   49.3590 C   0  0  0  0  0  0  0  0  0  0  0  0
   46.8470   31.2100   48.4440 C   0  0  0  0  0  0  0  0  0  0  0  0
   48.2830   30.7990   48.3720 C   0  0  0  0  0  0  0  0  0  0  0  0
   49.1800   31.3990   49.3640 C   0  0  0  0  0  0  0  0  0  0  0  0
   46.2130   32.6770   45.2340 C   0  0  0  0  0  0  0  0  0  0  0  0
   45.7240   33.9490   44.7470 C   0  0  0  0  0  0  0  0  0  0  0  0
   46.1540   34.3210   43.4790 C   0  0  0  0  0  0  0  0  0  0  0  0
   45.7590   35.5230   42.8850 C   0  0  0  0  0  0  0  0  0  0  0  0
   44.9310   36.3050   43.6170 N   0  0  0  0  0  0  0  0  0  0  0  0
   44.5170   35.9330   44.8530 C   0  0  0  0  0  0  0  0  0  0  0  0
   44.9220   34.7740   45.3800 N   0  0  0  0  0  0  0  0  0  0  0  0
   46.9715   33.8509   46.8471 H   0  0  0  0  0  0  0  0  0  0  0  0
   47.8848   32.3076   46.4744 H   0  0  0  0  0  0  0  0  0  0  0  0
   43.8035   31.1958   49.6314 H   0  0  0  0  0  0  0  0  0  0  0  0
   46.1563   29.9790   50.1464 H   0  0  0  0  0  0  0  0  0  0  0  0
   48.3260   29.7071   48.4981 H   0  0  0  0  0  0  0  0  0  0  0  0
   48.6425   31.1575   47.3962 H   0  0  0  0  0  0  0  0  0  0  0  0
   48.8210   31.1589   50.3757 H   0  0  0  0  0  0  0  0  0  0  0  0
   50.1954   30.9977   49.2304 H   0  0  0  0  0  0  0  0  0  0  0  0
   49.1967   32.4907   49.2304 H   0  0  0  0  0  0  0  0  0  0  0  0
   46.9318   32.2748   44.5049 H   0  0  0  0  0  0  0  0  0  0  0  0
   45.3435   32.0150   45.3594 H   0  0  0  0  0  0  0  0  0  0  0  0
   46.8261   33.6487   42.9256 H   0  0  0  0  0  0  0  0  0  0  0  0
   46.1009   35.8164   41.8815 H   0  0  0  0  0  0  0  0  0  0  0  0
   43.8441   36.5887   45.4251 H   0  0  0  0  0  0  0  0  0  0  0  0
  1  2  1  0
  2  3  1  0
  2  6  1  0
  3  4  2  0
  4  5  1  0
  6  5  2  0
  7  6  1  0
  7  8  1  0
  9  1  1  0
 10  9  1  0
 10 15  1  0
 11 10  2  0
 12 11  1  0
 12 13  2  0
 13 14  1  0
 14 15  2  0
  1 16  1  0
  1 17  1  0
  4 18  1  0
  5 19  1  0
  7 20  1  0
  7 21  1  0
  8 22  1  0
  8 23  1  0
  8 24  1  0
  9 25  1  0
  9 26  1  0
 11 27  1  0
 12 28  1  0
 14 29  1  0
M  ISO  8  16   8  17   8  18  14  19  14  20   8  21   8  22   8  23   8
M  ISO  6  24   8  25   8  26   8  27  14  28  14  29  14
M  END
>  <minimizedAffinity>  (1) 
-4.48707247

>  <minimizedRMSD>  (1) 
1.7853545

$$$$
