
     RDKit          3D

 25 26  0  0  0  0  0  0  0  0999 V2000
   45.9830   34.5040   43.8410 C   0  0  0  0  0  0  0  0  0  0  0  0
   47.0860   33.8370   43.2830 C   0  0  0  0  0  0  0  0  0  0  0  0
   47.6360   32.6910   43.9210 C   0  0  0  0  0  0  0  0  0  0  0  0
   47.0490   32.2890   45.0680 N   0  0  0  0  0  0  0  0  0  0  0  0
   45.9770   32.9580   45.5830 C   0  0  0  0  0  0  0  0  0  0  0  0
   45.4580   34.0520   44.9680 N   0  0  0  0  0  0  0  0  0  0  0  0
   47.6180   34.3360   42.0530 N   0  0  0  0  0  0  0  0  0  0  0  0
   47.3210   33.9730   40.7900 C   0  0  0  0  0  0  0  0  0  0  0  0
   48.0700   34.6950   39.9310 N   0  0  0  0  0  0  0  0  0  0  0  0
   48.8490   35.5260   40.6980 C   0  0  0  0  0  0  0  0  0  0  0  0
   48.5600   35.2930   42.0050 N   0  0  0  0  0  0  0  0  0  0  0  0
   45.2540   35.7050   43.3870 C   0  0  0  0  0  0  0  0  0  0  0  0
   44.1020   35.2720   42.4970 C   0  0  0  0  0  0  0  0  0  0  0  0
   44.5590   36.4080   44.5780 C   0  0  0  0  0  0  0  0  0  0  0  0
   48.5001   32.1568   43.4990 H   0  0  0  0  0  0  0  0  0  0  0  0
   45.5220   32.6025   46.5193 H   0  0  0  0  0  0  0  0  0  0  0  0
   46.5838   33.2083   40.5042 H   0  0  0  0  0  0  0  0  0  0  0  0
   49.5809   36.2547   40.3195 H   0  0  0  0  0  0  0  0  0  0  0  0
   45.9812   36.3615   42.8868 H   0  0  0  0  0  0  0  0  0  0  0  0
   43.2550   34.9536   43.1225 H   0  0  0  0  0  0  0  0  0  0  0  0
   43.7923   36.1151   41.8619 H   0  0  0  0  0  0  0  0  0  0  0  0
   44.4243   34.4337   41.8619 H   0  0  0  0  0  0  0  0  0  0  0  0
   44.9554   36.0070   45.5225 H   0  0  0  0  0  0  0  0  0  0  0  0
   44.7525   37.4897   44.5290 H   0  0  0  0  0  0  0  0  0  0  0  0
   43.4751   36.2268   44.5290 H   0  0  0  0  0  0  0  0  0  0  0  0
  1  6  2  0
  2  1  1  0
  2  3  2  0
  3  4  1  0
  4  5  2  0
  6  5  1  0
  7  2  1  0
  8  7  1  0
  9 10  1  0
  9  8  2  0
 10 11  2  0
 11  7  1  0
 12  1  1  0
 12 14  1  0
 13 12  1  0
  3 15  1  0
  5 16  1  0
  8 17  1  0
 10 18  1  0
 12 19  1  0
 13 20  1  0
 13 21  1  0
 13 22  1  0
 14 23  1  0
 14 24  1  0
 14 25  1  0
M  ISO  8  15  14  16  14  17  14  18  14  19   8  20   8  21   8  22   8
M  ISO  3  23   8  24   8  25   8
M  END
>  <minimizedAffinity>  (1) 
-4.03647423

>  <minimizedRMSD>  (1) 
3.28791142

$$$$
