
     RDKit          3D

 31 33  0  0  0  0  0  0  0  0999 V2000
   46.1430   32.9330   45.1650 C   0  0  0  0  0  0  0  0  0  0  0  0
   46.1510   31.6160   44.6890 C   0  0  0  0  0  0  0  0  0  0  0  0
   46.6430   30.5780   45.5080 C   0  0  0  0  0  0  0  0  0  0  0  0
   47.0950   30.9020   46.7370 N   0  0  0  0  0  0  0  0  0  0  0  0
   47.0750   32.1900   47.1780 C   0  0  0  0  0  0  0  0  0  0  0  0
   46.6010   33.1880   46.3880 N   0  0  0  0  0  0  0  0  0  0  0  0
   45.7540   34.1450   44.5510 N   0  0  0  0  0  0  0  0  0  0  0  0
   44.6440   35.0410   44.8920 C   0  0  0  0  0  0  0  0  0  0  0  0
   44.8960   36.3550   44.1860 C   0  0  0  0  0  0  0  0  0  0  0  0
   44.8900   36.1730   42.6970 C   0  0  0  0  0  0  0  0  0  0  0  0
   45.5520   34.8850   42.3130 C   0  0  0  0  0  0  0  0  0  0  0  0
   46.5710   34.5500   43.3960 C   0  0  0  0  0  0  0  0  0  0  0  0
   45.6310   31.3960   43.3830 N   0  0  0  0  0  0  0  0  0  0  0  0
   44.3400   31.3560   42.9340 C   0  0  0  0  0  0  0  0  0  0  0  0
   44.3500   31.1050   41.6070 N   0  0  0  0  0  0  0  0  0  0  0  0
   45.6630   30.9890   41.2340 C   0  0  0  0  0  0  0  0  0  0  0  0
   46.4480   31.1700   42.3390 N   0  0  0  0  0  0  0  0  0  0  0  0
   46.6576   29.5362   45.1552 H   0  0  0  0  0  0  0  0  0  0  0  0
   47.4472   32.4251   48.1861 H   0  0  0  0  0  0  0  0  0  0  0  0
   43.6918   34.6074   44.5524 H   0  0  0  0  0  0  0  0  0  0  0  0
   44.5816   35.1884   45.9803 H   0  0  0  0  0  0  0  0  0  0  0  0
   44.1081   37.0703   44.4645 H   0  0  0  0  0  0  0  0  0  0  0  0
   45.8833   36.7332   44.4896 H   0  0  0  0  0  0  0  0  0  0  0  0
   43.8497   36.1638   42.3395 H   0  0  0  0  0  0  0  0  0  0  0  0
   45.4464   37.0042   42.2392 H   0  0  0  0  0  0  0  0  0  0  0  0
   44.8016   34.0837   42.2432 H   0  0  0  0  0  0  0  0  0  0  0  0
   46.0454   34.9808   41.3346 H   0  0  0  0  0  0  0  0  0  0  0  0
   47.2256   33.7268   43.0739 H   0  0  0  0  0  0  0  0  0  0  0  0
   47.2336   35.3973   43.6263 H   0  0  0  0  0  0  0  0  0  0  0  0
   43.4418   31.5038   43.5516 H   0  0  0  0  0  0  0  0  0  0  0  0
   46.0253   30.7844   40.2157 H   0  0  0  0  0  0  0  0  0  0  0  0
  1  6  2  0
  2  1  1  0
  2  3  2  0
  3  4  1  0
  4  5  2  0
  6  5  1  0
  7  8  1  0
  7  1  1  0
  9  8  1  0
 10  9  1  0
 11 10  1  0
 11 12  1  0
 12  7  1  0
 13  2  1  0
 14 13  1  0
 15 14  2  0
 16 15  1  0
 16 17  2  0
 17 13  1  0
  3 18  1  0
  5 19  1  0
  8 20  1  0
  8 21  1  0
  9 22  1  0
  9 23  1  0
 10 24  1  0
 10 25  1  0
 11 26  1  0
 11 27  1  0
 12 28  1  0
 12 29  1  0
 14 30  1  0
 16 31  1  0
M  ISO  8  18  14  19  14  20  13  21  13  22  13  23  13  24  13  25  13
M  ISO  6  26  13  27  13  28  13  29  13  30  14  31  14
M  END
>  <minimizedAffinity>  (1) 
-3.9645772

>  <minimizedRMSD>  (1) 
3.46170115

$$$$
