
     RDKit          3D

 29 31  0  0  0  0  0  0  0  0999 V2000
   44.7250   35.0480   41.9710 C   0  0  0  0  0  0  0  0  0  0  0  0
   45.1690   34.2180   40.9540 C   0  0  0  0  0  0  0  0  0  0  0  0
   44.2780   33.8150   39.9180 C   0  0  0  0  0  0  0  0  0  0  0  0
   43.0030   34.2700   39.9690 N   0  0  0  0  0  0  0  0  0  0  0  0
   42.5970   35.0730   40.9660 C   0  0  0  0  0  0  0  0  0  0  0  0
   43.4480   35.4450   41.9360 N   0  0  0  0  0  0  0  0  0  0  0  0
   46.5150   33.7840   40.9670 N   0  0  0  0  0  0  0  0  0  0  0  0
   47.6060   34.4260   40.5050 C   0  0  0  0  0  0  0  0  0  0  0  0
   48.6990   33.6700   40.7070 N   0  0  0  0  0  0  0  0  0  0  0  0
   48.2870   32.5260   41.3110 C   0  0  0  0  0  0  0  0  0  0  0  0
   46.9390   32.6230   41.4590 N   0  0  0  0  0  0  0  0  0  0  0  0
   45.4530   35.5860   43.1290 C   0  0  0  0  0  0  0  0  0  0  0  0
   45.0700   34.8350   44.4170 C   0  0  0  0  0  0  0  0  0  0  0  0
   46.2170   33.8910   44.7120 C   0  0  0  0  0  0  0  0  0  0  0  0
   45.8840   32.4100   44.9020 C   0  0  0  0  0  0  0  0  0  0  0  0
   46.3420   33.2470   46.0420 C   0  0  0  0  0  0  0  0  0  0  0  0
   44.6141   33.1563   39.1037 H   0  0  0  0  0  0  0  0  0  0  0  0
   41.5567   35.4297   40.9883 H   0  0  0  0  0  0  0  0  0  0  0  0
   47.6027   35.4197   40.0333 H   0  0  0  0  0  0  0  0  0  0  0  0
   48.9218   31.6828   41.6210 H   0  0  0  0  0  0  0  0  0  0  0  0
   46.5340   35.4773   42.9568 H   0  0  0  0  0  0  0  0  0  0  0  0
   45.1873   36.6467   43.2489 H   0  0  0  0  0  0  0  0  0  0  0  0
   44.9369   35.5445   45.2470 H   0  0  0  0  0  0  0  0  0  0  0  0
   44.1224   34.2895   44.2965 H   0  0  0  0  0  0  0  0  0  0  0  0
   46.8959   34.4848   44.0823 H   0  0  0  0  0  0  0  0  0  0  0  0
   44.8400   32.0670   44.8520 H   0  0  0  0  0  0  0  0  0  0  0  0
   46.2114   31.4669   44.4401 H   0  0  0  0  0  0  0  0  0  0  0  0
   47.3396   33.0794   46.4740 H   0  0  0  0  0  0  0  0  0  0  0  0
   45.9376   33.4679   47.0408 H   0  0  0  0  0  0  0  0  0  0  0  0
  1 12  1  0
  2  7  1  0
  2  1  2  0
  3  4  2  0
  3  2  1  0
  4  5  1  0
  5  6  2  0
  6  1  1  0
  7 11  1  0
  8  9  2  0
  8  7  1  0
  9 10  1  0
 10 11  2  0
 12 13  1  0
 13 14  1  0
 14 15  1  0
 14 16  1  0
 15 16  1  0
  3 17  1  0
  5 18  1  0
  8 19  1  0
 10 20  1  0
 12 21  1  0
 12 22  1  0
 13 23  1  0
 13 24  1  0
 14 25  1  0
 15 26  1  0
 15 27  1  0
 16 28  1  0
 16 29  1  0
M  ISO  8  17  14  18  14  19  14  20  14  21   8  22   8  23   8  24   8
M  ISO  5  25  13  26  13  27  13  28  13  29  13
M  END
>  <minimizedAffinity>  (1) 
-3.80869007

>  <minimizedRMSD>  (1) 
4.12112093

$$$$
