
     RDKit          3D

 22 23  0  0  0  0  0  0  0  0999 V2000
   47.6840   34.9110   41.1500 C   0  0  0  0  0  0  0  0  0  0  0  0
   47.1730   34.0740   40.1580 C   0  0  0  0  0  0  0  0  0  0  0  0
   45.8380   33.6100   40.2510 C   0  0  0  0  0  0  0  0  0  0  0  0
   45.1030   34.0070   41.3170 N   0  0  0  0  0  0  0  0  0  0  0  0
   45.6210   34.8190   42.2630 C   0  0  0  0  0  0  0  0  0  0  0  0
   46.8850   35.2450   42.1560 N   0  0  0  0  0  0  0  0  0  0  0  0
   48.0030   33.7340   39.0690 N   0  0  0  0  0  0  0  0  0  0  0  0
   48.1910   34.3780   37.9100 C   0  0  0  0  0  0  0  0  0  0  0  0
   49.0610   33.6950   37.1330 N   0  0  0  0  0  0  0  0  0  0  0  0
   49.4270   32.5840   37.8380 C   0  0  0  0  0  0  0  0  0  0  0  0
   48.7630   32.6300   39.0230 N   0  0  0  0  0  0  0  0  0  0  0  0
   49.0360   35.4990   41.2680 C   0  0  0  0  0  0  0  0  0  0  0  0
   49.7800   34.9530   42.4880 C   0  0  0  0  0  0  0  0  0  0  0  0
   45.4120   32.9486   39.4822 H   0  0  0  0  0  0  0  0  0  0  0  0
   45.0053   35.1298   43.1199 H   0  0  0  0  0  0  0  0  0  0  0  0
   47.7074   35.3257   37.6307 H   0  0  0  0  0  0  0  0  0  0  0  0
   50.1261   31.8010   37.5093 H   0  0  0  0  0  0  0  0  0  0  0  0
   49.6108   35.2584   40.3615 H   0  0  0  0  0  0  0  0  0  0  0  0
   48.9299   36.5874   41.3869 H   0  0  0  0  0  0  0  0  0  0  0  0
   49.2915   35.3115   43.4061 H   0  0  0  0  0  0  0  0  0  0  0  0
   49.7604   33.8534   42.4676 H   0  0  0  0  0  0  0  0  0  0  0  0
   50.8231   35.3015   42.4676 H   0  0  0  0  0  0  0  0  0  0  0  0
  1 12  1  0
  1  6  2  0
  2  3  2  0
  2  1  1  0
  3  4  1  0
  4  5  2  0
  6  5  1  0
  7  2  1  0
  8  7  1  0
  9 10  1  0
  9  8  2  0
 10 11  2  0
 11  7  1  0
 12 13  1  0
  3 14  1  0
  5 15  1  0
  8 16  1  0
 10 17  1  0
 12 18  1  0
 12 19  1  0
 13 20  1  0
 13 21  1  0
 13 22  1  0
M  ISO  8  14  14  15  14  16  14  17  14  18   8  19   8  20   8  21   8
M  ISO  1  22   8
M  END
>  <minimizedAffinity>  (1) 
-3.83395648

>  <minimizedRMSD>  (1) 
5.0017972

$$$$
