
     RDKit          3D

 23 24  0  0  0  0  0  0  0  0999 V2000
   47.7030   34.9020   41.1530 C   0  0  0  0  0  0  0  0  0  0  0  0
   47.1780   34.0810   40.1520 C   0  0  0  0  0  0  0  0  0  0  0  0
   45.8320   33.6260   40.2380 C   0  0  0  0  0  0  0  0  0  0  0  0
   45.1060   34.0180   41.3100 N   0  0  0  0  0  0  0  0  0  0  0  0
   45.6400   34.8150   42.2680 C   0  0  0  0  0  0  0  0  0  0  0  0
   46.8990   35.2240   42.1610 N   0  0  0  0  0  0  0  0  0  0  0  0
   47.9970   33.7170   39.0670 N   0  0  0  0  0  0  0  0  0  0  0  0
   48.1780   34.3600   37.8970 C   0  0  0  0  0  0  0  0  0  0  0  0
   49.0440   33.6920   37.1120 N   0  0  0  0  0  0  0  0  0  0  0  0
   49.4190   32.5810   37.8300 C   0  0  0  0  0  0  0  0  0  0  0  0
   48.7610   32.6250   39.0200 N   0  0  0  0  0  0  0  0  0  0  0  0
   49.0490   35.4790   41.2660 C   0  0  0  0  0  0  0  0  0  0  0  0
   49.7270   35.0060   42.5640 C   0  0  0  0  0  0  0  0  0  0  0  0
   49.4240   33.6630   42.7120 O   0  0  0  0  0  0  0  0  0  0  0  0
   45.3981   32.9793   39.4612 H   0  0  0  0  0  0  0  0  0  0  0  0
   45.0320   35.1221   43.1317 H   0  0  0  0  0  0  0  0  0  0  0  0
   47.6847   35.3035   37.6204 H   0  0  0  0  0  0  0  0  0  0  0  0
   50.1215   31.8004   37.5026 H   0  0  0  0  0  0  0  0  0  0  0  0
   49.6537   35.1604   40.4041 H   0  0  0  0  0  0  0  0  0  0  0  0
   48.9671   36.5758   41.2849 H   0  0  0  0  0  0  0  0  0  0  0  0
   50.8162   35.1420   42.4927 H   0  0  0  0  0  0  0  0  0  0  0  0
   49.3705   35.5867   43.4276 H   0  0  0  0  0  0  0  0  0  0  0  0
   49.3737   33.4403   43.6753 H   0  0  0  0  0  0  0  0  0  0  0  0
  1 12  1  0
  1  6  2  0
  2  3  2  0
  2  1  1  0
  3  4  1  0
  4  5  2  0
  6  5  1  0
  7  2  1  0
  8  7  1  0
  9 10  1  0
  9  8  2  0
 10 11  2  0
 11  7  1  0
 12 13  1  0
 13 14  1  0
  3 15  1  0
  5 16  1  0
  8 17  1  0
 10 18  1  0
 12 19  1  0
 12 20  1  0
 13 21  1  0
 13 22  1  0
 14 23  1  0
M  ISO  8  15  14  16  14  17  14  18  14  19   8  20   8  21   8  22   8
M  ISO  1  23   3
M  END
>  <minimizedAffinity>  (1) 
-3.72740865

>  <minimizedRMSD>  (1) 
0.166634575

$$$$
