
     RDKit          3D

 29 31  0  0  0  0  0  0  0  0999 V2000
   46.5670   34.0250   41.8080 C   0  0  0  0  0  0  0  0  0  0  0  0
   45.2880   34.0880   42.3610 C   0  0  0  0  0  0  0  0  0  0  0  0
   45.1290   33.9000   43.7620 C   0  0  0  0  0  0  0  0  0  0  0  0
   46.2340   33.6680   44.5030 N   0  0  0  0  0  0  0  0  0  0  0  0
   47.4590   33.6130   43.9370 C   0  0  0  0  0  0  0  0  0  0  0  0
   47.5850   33.7930   42.6120 N   0  0  0  0  0  0  0  0  0  0  0  0
   44.1800   34.3340   41.5260 N   0  0  0  0  0  0  0  0  0  0  0  0
   43.6140   35.5040   41.2150 C   0  0  0  0  0  0  0  0  0  0  0  0
   42.5660   35.3160   40.3780 N   0  0  0  0  0  0  0  0  0  0  0  0
   42.4850   33.9780   40.1650 C   0  0  0  0  0  0  0  0  0  0  0  0
   43.4870   33.3980   40.8820 N   0  0  0  0  0  0  0  0  0  0  0  0
   46.9610   34.1870   40.4030 C   0  0  0  0  0  0  0  0  0  0  0  0
   47.2570   32.8290   39.7490 C   0  0  0  0  0  0  0  0  0  0  0  0
   46.3980   32.6440   38.6070 N   0  0  0  0  0  0  0  0  0  0  0  0
   45.3270   31.8920   38.4430 N   0  0  0  0  0  0  0  0  0  0  0  0
   44.8520   32.0500   37.1840 C   0  0  0  0  0  0  0  0  0  0  0  0
   45.7000   32.9620   36.5480 C   0  0  0  0  0  0  0  0  0  0  0  0
   46.6650   33.3210   37.4680 C   0  0  0  0  0  0  0  0  0  0  0  0
   44.1339   33.9424   44.2288 H   0  0  0  0  0  0  0  0  0  0  0  0
   48.3474   33.4221   44.5569 H   0  0  0  0  0  0  0  0  0  0  0  0
   43.9520   36.4826   41.5867 H   0  0  0  0  0  0  0  0  0  0  0  0
   41.7490   33.4599   39.5326 H   0  0  0  0  0  0  0  0  0  0  0  0
   46.1432   34.6783   39.8554 H   0  0  0  0  0  0  0  0  0  0  0  0
   47.8749   34.7981   40.3657 H   0  0  0  0  0  0  0  0  0  0  0  0
   48.3078   32.8002   39.4250 H   0  0  0  0  0  0  0  0  0  0  0  0
   47.0737   32.0254   40.4775 H   0  0  0  0  0  0  0  0  0  0  0  0
   43.9710   31.5570   36.7473 H   0  0  0  0  0  0  0  0  0  0  0  0
   45.6146   33.3241   35.5128 H   0  0  0  0  0  0  0  0  0  0  0  0
   47.4944   34.0249   37.3048 H   0  0  0  0  0  0  0  0  0  0  0  0
  1  2  1  0
  1  6  2  0
  2  3  2  0
  3  4  1  0
  5  4  2  0
  6  5  1  0
  7  2  1  0
  8  7  1  0
  9  8  2  0
 10  9  1  0
 10 11  2  0
 11  7  1  0
 12  1  1  0
 13 12  1  0
 14 13  1  0
 15 14  1  0
 16 15  2  0
 17 16  1  0
 17 18  2  0
 18 14  1  0
  3 19  1  0
  5 20  1  0
  8 21  1  0
 10 22  1  0
 12 23  1  0
 12 24  1  0
 13 25  1  0
 13 26  1  0
 16 27  1  0
 17 28  1  0
 18 29  1  0
M  ISO  8  19  14  20  14  21  14  22  14  23   8  24   8  25   8  26   8
M  ISO  3  27  14  28  14  29  14
M  END
>  <minimizedAffinity>  (1) 
-3.48223567

>  <minimizedRMSD>  (1) 
6.05843401

$$$$
