
     RDKit          3D

 26 27  0  0  0  0  0  0  0  0999 V2000
   43.9410   33.5080   41.8600 C   0  0  0  0  0  0  0  0  0  0  0  0
   42.6960   33.2900   41.2610 C   0  0  0  0  0  0  0  0  0  0  0  0
   42.0410   32.0520   41.4580 C   0  0  0  0  0  0  0  0  0  0  0  0
   42.6430   31.1210   42.2190 N   0  0  0  0  0  0  0  0  0  0  0  0
   43.8590   31.3670   42.7880 C   0  0  0  0  0  0  0  0  0  0  0  0
   44.4460   32.5310   42.5880 N   0  0  0  0  0  0  0  0  0  0  0  0
   42.1170   34.3040   40.4770 N   0  0  0  0  0  0  0  0  0  0  0  0
   41.3400   35.3240   40.8640 C   0  0  0  0  0  0  0  0  0  0  0  0
   40.9850   36.0850   39.8140 N   0  0  0  0  0  0  0  0  0  0  0  0
   41.5780   35.4980   38.7110 C   0  0  0  0  0  0  0  0  0  0  0  0
   42.2650   34.4090   39.1480 N   0  0  0  0  0  0  0  0  0  0  0  0
   44.7890   34.7130   41.7880 C   0  0  0  0  0  0  0  0  0  0  0  0
   46.1720   34.3460   41.2070 C   0  0  0  0  0  0  0  0  0  0  0  0
   47.4480   35.0580   42.2720 S   0  0  0  0  0  0  0  0  0  0  0  0
   48.9230   35.5440   41.4000 C   0  0  0  0  0  0  0  0  0  0  0  0
   49.2850   36.8320   41.8160 F   0  0  0  0  0  0  0  0  0  0  0  0
   49.9620   34.7080   41.7430 F   0  0  0  0  0  0  0  0  0  0  0  0
   48.7420   35.6240   40.0300 F   0  0  0  0  0  0  0  0  0  0  0  0
   41.0610   31.8551   40.9989 H   0  0  0  0  0  0  0  0  0  0  0  0
   44.3457   30.6003   43.4087 H   0  0  0  0  0  0  0  0  0  0  0  0
   41.0330   35.5139   41.9031 H   0  0  0  0  0  0  0  0  0  0  0  0
   41.5069   35.8481   37.6706 H   0  0  0  0  0  0  0  0  0  0  0  0
   44.3074   35.4602   41.1401 H   0  0  0  0  0  0  0  0  0  0  0  0
   44.9182   35.1269   42.7989 H   0  0  0  0  0  0  0  0  0  0  0  0
   46.2829   33.2521   41.1753 H   0  0  0  0  0  0  0  0  0  0  0  0
   46.2691   34.7421   40.1854 H   0  0  0  0  0  0  0  0  0  0  0  0
  1  6  2  0
  2  3  2  0
  2  1  1  0
  3  4  1  0
  4  5  2  0
  6  5  1  0
  7  8  1  0
  7  2  1  0
  9  8  2  0
 10 11  2  0
 10  9  1  0
 11  7  1  0
 12  1  1  0
 13 12  1  0
 13 14  1  0
 15 17  1  0
 15 16  1  0
 15 14  1  0
 18 15  1  0
  3 19  1  0
  5 20  1  0
  8 21  1  0
 10 22  1  0
 12 23  1  0
 12 24  1  0
 13 25  1  0
 13 26  1  0
M  ISO  8  19  14  20  14  21  14  22  14  23   8  24   8  25   8  26   8
M  END
>  <minimizedAffinity>  (1) 
-4.49322605

>  <minimizedRMSD>  (1) 
5.29347992

$$$$
