
     RDKit          3D

 39 41  0  0  0  0  0  0  0  0999 V2000
   47.6930   34.8540   41.1790 C   0  0  0  0  0  0  0  0  0  0  0  0
   47.1610   34.0810   40.1440 C   0  0  0  0  0  0  0  0  0  0  0  0
   45.8000   33.6670   40.2010 C   0  0  0  0  0  0  0  0  0  0  0  0
   45.0730   34.0640   41.2740 N   0  0  0  0  0  0  0  0  0  0  0  0
   45.6170   34.8110   42.2620 C   0  0  0  0  0  0  0  0  0  0  0  0
   46.8900   35.1810   42.1810 N   0  0  0  0  0  0  0  0  0  0  0  0
   47.9820   33.7150   39.0620 N   0  0  0  0  0  0  0  0  0  0  0  0
   48.2330   34.3970   37.9310 C   0  0  0  0  0  0  0  0  0  0  0  0
   49.0760   33.7120   37.1360 N   0  0  0  0  0  0  0  0  0  0  0  0
   49.3570   32.5440   37.8070 C   0  0  0  0  0  0  0  0  0  0  0  0
   48.6740   32.5750   38.9870 N   0  0  0  0  0  0  0  0  0  0  0  0
   49.0610   35.3730   41.3130 C   0  0  0  0  0  0  0  0  0  0  0  0
   49.7460   34.7910   42.5600 C   0  0  0  0  0  0  0  0  0  0  0  0
   50.4760   33.1860   42.1070 S   0  0  0  0  0  0  0  0  0  0  0  0
   49.7080   31.8140   42.9650 C   0  0  0  0  0  0  0  0  0  0  0  0
   50.5230   30.5710   42.7410 C   0  0  0  0  0  0  0  0  0  0  0  0
   49.9680   29.5110   43.6870 C   0  0  0  0  0  0  0  0  0  0  0  0
   48.4900   29.3110   43.5000 C   0  0  0  0  0  0  0  0  0  0  0  0
   47.7090   30.5990   43.6040 C   0  0  0  0  0  0  0  0  0  0  0  0
   48.2760   31.5770   42.5810 C   0  0  0  0  0  0  0  0  0  0  0  0
   45.3562   33.0497   39.4061 H   0  0  0  0  0  0  0  0  0  0  0  0
   45.0082   35.1104   43.1279 H   0  0  0  0  0  0  0  0  0  0  0  0
   47.8071   35.3817   37.6881 H   0  0  0  0  0  0  0  0  0  0  0  0
   50.0126   31.7335   37.4559 H   0  0  0  0  0  0  0  0  0  0  0  0
   49.6410   35.0956   40.4204 H   0  0  0  0  0  0  0  0  0  0  0  0
   49.0145   36.4673   41.4147 H   0  0  0  0  0  0  0  0  0  0  0  0
   50.5349   35.4752   42.9056 H   0  0  0  0  0  0  0  0  0  0  0  0
   49.0145   34.6616   43.3712 H   0  0  0  0  0  0  0  0  0  0  0  0
   49.6872   32.0783   44.0326 H   0  0  0  0  0  0  0  0  0  0  0  0
   50.4266   30.2366   41.6975 H   0  0  0  0  0  0  0  0  0  0  0  0
   51.5901   30.7557   42.9337 H   0  0  0  0  0  0  0  0  0  0  0  0
   50.4829   28.5582   43.4947 H   0  0  0  0  0  0  0  0  0  0  0  0
   50.1378   29.8525   44.7188 H   0  0  0  0  0  0  0  0  0  0  0  0
   48.1284   28.6170   44.2730 H   0  0  0  0  0  0  0  0  0  0  0  0
   48.3349   28.9097   42.4876 H   0  0  0  0  0  0  0  0  0  0  0  0
   46.6466   30.4097   43.3907 H   0  0  0  0  0  0  0  0  0  0  0  0
   47.7923   31.0158   44.6185 H   0  0  0  0  0  0  0  0  0  0  0  0
   47.7142   32.5224   42.6072 H   0  0  0  0  0  0  0  0  0  0  0  0
   48.1996   31.1736   41.5605 H   0  0  0  0  0  0  0  0  0  0  0  0
  1 12  1  0
  1  6  2  0
  2  3  2  0
  2  1  1  0
  3  4  1  0
  4  5  2  0
  6  5  1  0
  7  2  1  0
  8  7  1  0
  9 10  1  0
  9  8  2  0
 10 11  2  0
 11  7  1  0
 12 13  1  0
 14 13  1  0
 14 15  1  0
 16 15  1  0
 16 17  1  0
 18 19  1  0
 18 17  1  0
 20 15  1  0
 20 19  1  0
  3 21  1  0
  5 22  1  0
  8 23  1  0
 10 24  1  0
 12 25  1  0
 12 26  1  0
 13 27  1  0
 13 28  1  0
 15 29  1  0
 16 30  1  0
 16 31  1  0
 17 32  1  0
 17 33  1  0
 18 34  1  0
 18 35  1  0
 19 36  1  0
 19 37  1  0
 20 38  1  0
 20 39  1  0
M  ISO  8  21  14  22  14  23  14  24  14  25   8  26   8  27   8  28   8
M  ISO  8  29  13  30  13  31  13  32  13  33  13  34  13  35  13  36  13
M  ISO  3  37  13  38  13  39  13
M  END
>  <minimizedAffinity>  (1) 
-3.95813155

>  <minimizedRMSD>  (1) 
1.37648094

$$$$
