
     RDKit          3D

 30 32  0  0  0  0  0  0  0  0999 V2000
   47.6980   34.9120   41.1420 C   0  0  0  0  0  0  0  0  0  0  0  0
   47.1910   34.0770   40.1450 C   0  0  0  0  0  0  0  0  0  0  0  0
   45.8440   33.6090   40.2500 C   0  0  0  0  0  0  0  0  0  0  0  0
   45.1180   34.0030   41.3260 N   0  0  0  0  0  0  0  0  0  0  0  0
   45.6400   34.8130   42.2740 C   0  0  0  0  0  0  0  0  0  0  0  0
   46.9040   35.2420   42.1570 N   0  0  0  0  0  0  0  0  0  0  0  0
   48.0020   33.7160   39.0690 N   0  0  0  0  0  0  0  0  0  0  0  0
   48.1910   34.3720   37.9130 C   0  0  0  0  0  0  0  0  0  0  0  0
   49.0560   33.6990   37.1210 N   0  0  0  0  0  0  0  0  0  0  0  0
   49.4150   32.5750   37.8240 C   0  0  0  0  0  0  0  0  0  0  0  0
   48.7530   32.6220   39.0030 N   0  0  0  0  0  0  0  0  0  0  0  0
   49.0260   35.4930   41.2500 C   0  0  0  0  0  0  0  0  0  0  0  0
   49.7570   35.0400   42.5270 C   0  0  0  0  0  0  0  0  0  0  0  0
   50.4680   33.4080   42.2700 S   0  0  0  0  0  0  0  0  0  0  0  0
   49.3340   32.0790   42.5780 C   0  0  0  0  0  0  0  0  0  0  0  0
   50.1180   30.9180   42.7100 C   0  0  0  0  0  0  0  0  0  0  0  0
   49.2700   29.8730   42.9590 N   0  0  0  0  0  0  0  0  0  0  0  0
   47.9960   30.3410   42.9890 C   0  0  0  0  0  0  0  0  0  0  0  0
   48.0730   31.6540   42.7590 N   0  0  0  0  0  0  0  0  0  0  0  0
   45.4104   32.9506   39.4829 H   0  0  0  0  0  0  0  0  0  0  0  0
   45.0302   35.1184   43.1371 H   0  0  0  0  0  0  0  0  0  0  0  0
   47.7092   35.3245   37.6471 H   0  0  0  0  0  0  0  0  0  0  0  0
   50.1078   31.7877   37.4921 H   0  0  0  0  0  0  0  0  0  0  0  0
   49.6186   35.1872   40.3752 H   0  0  0  0  0  0  0  0  0  0  0  0
   48.9136   36.5863   41.2951 H   0  0  0  0  0  0  0  0  0  0  0  0
   50.5586   35.7553   42.7630 H   0  0  0  0  0  0  0  0  0  0  0  0
   49.0418   34.9991   43.3618 H   0  0  0  0  0  0  0  0  0  0  0  0
   51.2134   30.8607   42.6280 H   0  0  0  0  0  0  0  0  0  0  0  0
   47.0822   29.7552   43.1673 H   0  0  0  0  0  0  0  0  0  0  0  0
   47.2521   32.2752   42.7241 H   0  0  0  0  0  0  0  0  0  0  0  0
  1 12  1  0
  1  6  2  0
  2  3  2  0
  2  1  1  0
  3  4  1  0
  4  5  2  0
  6  5  1  0
  7  2  1  0
  8  7  1  0
  9 10  1  0
  9  8  2  0
 10 11  2  0
 11  7  1  0
 12 13  1  0
 14 13  1  0
 14 15  1  0
 15 16  2  0
 15 19  1  0
 16 17  1  0
 17 18  2  0
 19 18  1  0
  3 20  1  0
  5 21  1  0
  8 22  1  0
 10 23  1  0
 12 24  1  0
 12 25  1  0
 13 26  1  0
 13 27  1  0
 16 28  1  0
 18 29  1  0
 19 30  1  0
M  ISO  8  20  14  21  14  22  14  23  14  24   8  25   8  26   8  27   8
M  ISO  3  28  14  29  14  30   9
M  END
>  <minimizedAffinity>  (1) 
-4.00596333

>  <minimizedRMSD>  (1) 
0.315454721

$$$$
