
     RDKit          3D

 30 32  0  0  0  0  0  0  0  0999 V2000
   47.6820   34.8740   41.1630 C   0  0  0  0  0  0  0  0  0  0  0  0
   47.1630   34.0780   40.1470 C   0  0  0  0  0  0  0  0  0  0  0  0
   45.8110   33.6540   40.2120 C   0  0  0  0  0  0  0  0  0  0  0  0
   45.0780   34.0490   41.2730 N   0  0  0  0  0  0  0  0  0  0  0  0
   45.6110   34.8230   42.2470 C   0  0  0  0  0  0  0  0  0  0  0  0
   46.8840   35.2050   42.1580 N   0  0  0  0  0  0  0  0  0  0  0  0
   47.9890   33.7030   39.0630 N   0  0  0  0  0  0  0  0  0  0  0  0
   48.2190   34.3680   37.9150 C   0  0  0  0  0  0  0  0  0  0  0  0
   49.0660   33.6880   37.1260 N   0  0  0  0  0  0  0  0  0  0  0  0
   49.3780   32.5360   37.8280 C   0  0  0  0  0  0  0  0  0  0  0  0
   48.7040   32.5780   39.0040 N   0  0  0  0  0  0  0  0  0  0  0  0
   49.0460   35.4180   41.2900 C   0  0  0  0  0  0  0  0  0  0  0  0
   49.6970   34.9730   42.6010 C   0  0  0  0  0  0  0  0  0  0  0  0
   50.5780   33.4040   42.2730 S   0  0  0  0  0  0  0  0  0  0  0  0
   49.4560   32.0260   42.4610 C   0  0  0  0  0  0  0  0  0  0  0  0
   48.2910   31.9950   43.1960 C   0  0  0  0  0  0  0  0  0  0  0  0
   47.8090   30.7000   43.0050 C   0  0  0  0  0  0  0  0  0  0  0  0
   48.7020   30.0290   42.1750 C   0  0  0  0  0  0  0  0  0  0  0  0
   49.6610   30.8740   41.8850 O   0  0  0  0  0  0  0  0  0  0  0  0
   45.3747   33.0238   39.4230 H   0  0  0  0  0  0  0  0  0  0  0  0
   44.9977   35.1342   43.1055 H   0  0  0  0  0  0  0  0  0  0  0  0
   47.7721   35.3397   37.6577 H   0  0  0  0  0  0  0  0  0  0  0  0
   50.0504   31.7327   37.4927 H   0  0  0  0  0  0  0  0  0  0  0  0
   49.6553   35.0603   40.4469 H   0  0  0  0  0  0  0  0  0  0  0  0
   48.9858   36.5163   41.2852 H   0  0  0  0  0  0  0  0  0  0  0  0
   50.4082   35.7381   42.9457 H   0  0  0  0  0  0  0  0  0  0  0  0
   48.9364   34.8339   43.3834 H   0  0  0  0  0  0  0  0  0  0  0  0
   47.8449   32.8032   43.7941 H   0  0  0  0  0  0  0  0  0  0  0  0
   46.8862   30.2829   43.4345 H   0  0  0  0  0  0  0  0  0  0  0  0
   48.6189   28.9883   41.8285 H   0  0  0  0  0  0  0  0  0  0  0  0
  1 12  1  0
  1  6  2  0
  2  3  2  0
  2  1  1  0
  3  4  1  0
  4  5  2  0
  6  5  1  0
  7  2  1  0
  8  7  1  0
  9 10  1  0
  9  8  2  0
 10 11  2  0
 11  7  1  0
 12 13  1  0
 14 15  1  0
 14 13  1  0
 15 16  2  0
 17 16  1  0
 18 17  2  0
 19 18  1  0
 19 15  1  0
  3 20  1  0
  5 21  1  0
  8 22  1  0
 10 23  1  0
 12 24  1  0
 12 25  1  0
 13 26  1  0
 13 27  1  0
 16 28  1  0
 17 29  1  0
 18 30  1  0
M  ISO  8  20  14  21  14  22  14  23  14  24   8  25   8  26   8  27   8
M  ISO  3  28  14  29  14  30  14
M  END
>  <minimizedAffinity>  (1) 
-4.0435276

>  <minimizedRMSD>  (1) 
2.21668649

$$$$
