
     RDKit          3D

 32 33  0  0  0  0  0  0  0  0999 V2000
   47.6560   34.8230   41.2240 C   0  0  0  0  0  0  0  0  0  0  0  0
   47.1210   34.0830   40.1670 C   0  0  0  0  0  0  0  0  0  0  0  0
   45.7420   33.7340   40.1810 C   0  0  0  0  0  0  0  0  0  0  0  0
   45.0170   34.1540   41.2450 N   0  0  0  0  0  0  0  0  0  0  0  0
   45.5520   34.8660   42.2500 C   0  0  0  0  0  0  0  0  0  0  0  0
   46.8480   35.1740   42.2020 N   0  0  0  0  0  0  0  0  0  0  0  0
   47.9600   33.6870   39.1020 N   0  0  0  0  0  0  0  0  0  0  0  0
   48.2180   34.3570   37.9590 C   0  0  0  0  0  0  0  0  0  0  0  0
   49.0650   33.6600   37.1840 N   0  0  0  0  0  0  0  0  0  0  0  0
   49.3470   32.5000   37.8840 C   0  0  0  0  0  0  0  0  0  0  0  0
   48.6470   32.5550   39.0610 N   0  0  0  0  0  0  0  0  0  0  0  0
   49.0480   35.2820   41.3950 C   0  0  0  0  0  0  0  0  0  0  0  0
   49.6760   34.6660   42.6590 C   0  0  0  0  0  0  0  0  0  0  0  0
   50.6490   33.2150   42.1570 S   0  0  0  0  0  0  0  0  0  0  0  0
   49.8710   31.6840   42.6430 C   0  0  0  0  0  0  0  0  0  0  0  0
   50.0660   30.5430   41.6970 C   0  0  0  0  0  0  0  0  0  0  0  0
   48.4010   31.8960   42.9880 C   0  0  0  0  0  0  0  0  0  0  0  0
   45.2865   33.1511   39.3669 H   0  0  0  0  0  0  0  0  0  0  0  0
   44.9313   35.1896   43.0985 H   0  0  0  0  0  0  0  0  0  0  0  0
   47.7935   35.3378   37.6984 H   0  0  0  0  0  0  0  0  0  0  0  0
   50.0097   31.6854   37.5566 H   0  0  0  0  0  0  0  0  0  0  0  0
   49.6374   34.9812   40.5163 H   0  0  0  0  0  0  0  0  0  0  0  0
   49.0477   36.3770   41.4995 H   0  0  0  0  0  0  0  0  0  0  0  0
   50.3306   35.4030   43.1472 H   0  0  0  0  0  0  0  0  0  0  0  0
   48.8900   34.3703   43.3695 H   0  0  0  0  0  0  0  0  0  0  0  0
   50.4041   31.3709   43.5528 H   0  0  0  0  0  0  0  0  0  0  0  0
   50.2244   29.6162   42.2680 H   0  0  0  0  0  0  0  0  0  0  0  0
   49.1732   30.4353   41.0635 H   0  0  0  0  0  0  0  0  0  0  0  0
   50.9439   30.7379   41.0635 H   0  0  0  0  0  0  0  0  0  0  0  0
   48.2798   31.9135   44.0812 H   0  0  0  0  0  0  0  0  0  0  0  0
   48.0596   32.8527   42.5659 H   0  0  0  0  0  0  0  0  0  0  0  0
   47.8032   31.0748   42.5659 H   0  0  0  0  0  0  0  0  0  0  0  0
  1 12  1  0
  1  6  2  0
  2  3  2  0
  2  1  1  0
  3  4  1  0
  4  5  2  0
  6  5  1  0
  7  2  1  0
  8  7  1  0
  9 10  1  0
  9  8  2  0
 10 11  2  0
 11  7  1  0
 12 13  1  0
 14 15  1  0
 14 13  1  0
 15 17  1  0
 16 15  1  0
  3 18  1  0
  5 19  1  0
  8 20  1  0
 10 21  1  0
 12 22  1  0
 12 23  1  0
 13 24  1  0
 13 25  1  0
 15 26  1  0
 16 27  1  0
 16 28  1  0
 16 29  1  0
 17 30  1  0
 17 31  1  0
 17 32  1  0
M  ISO  8  18  14  19  14  20  14  21  14  22   8  23   8  24   8  25   8
M  ISO  7  26   8  27   8  28   8  29   8  30   8  31   8  32   8
M  END
>  <minimizedAffinity>  (1) 
-3.76970744

>  <minimizedRMSD>  (1) 
1.18651557

$$$$
