
     RDKit          3D

 26 28  0  0  1  0  0  0  0  0999 V2000
   46.9830   32.2330   46.7760 C   0  0  2  0  0  0  0  0  0  0  0  0
   46.9360   30.8720   46.2350 C   0  0  0  0  0  0  0  0  0  0  0  0
   46.8320   31.0080   47.7190 C   0  0  1  0  0  0  0  0  0  0  0  0
   48.0040   30.5590   48.4770 C   0  0  0  0  0  0  0  0  0  0  0  0
   49.0360   29.7920   47.9510 C   0  0  0  0  0  0  0  0  0  0  0  0
   49.9370   29.5700   48.9330 N   0  0  0  0  0  0  0  0  0  0  0  0
   49.4490   30.1980   50.0270 C   0  0  0  0  0  0  0  0  0  0  0  0
   48.2740   30.8070   49.7740 N   0  0  0  0  0  0  0  0  0  0  0  0
   45.7710   33.1100   46.7220 C   0  0  0  0  0  0  0  0  0  0  0  0
   44.9580   33.0140   47.6840 O   0  0  0  0  0  0  0  0  0  0  0  0
   44.5220   35.8560   44.6570 C   0  0  0  0  0  0  0  0  0  0  0  0
   45.2240   35.7000   43.4450 C   0  0  0  0  0  0  0  0  0  0  0  0
   46.1180   34.6330   43.3850 C   0  0  0  0  0  0  0  0  0  0  0  0
   46.2480   33.8370   44.4700 N   0  0  0  0  0  0  0  0  0  0  0  0
   45.5600   34.0220   45.6030 C   0  0  0  0  0  0  0  0  0  0  0  0
   44.7030   35.0260   45.6930 N   0  0  0  0  0  0  0  0  0  0  0  0
   47.6789   33.0717   46.6264 H   0  0  0  0  0  0  0  0  0  0  0  0
   46.0563   30.5494   45.6587 H   0  0  0  0  0  0  0  0  0  0  0  0
   47.5985   30.2971   45.5713 H   0  0  0  0  0  0  0  0  0  0  0  0
   46.1252   30.7217   48.5117 H   0  0  0  0  0  0  0  0  0  0  0  0
   49.1072   29.4286   46.9152 H   0  0  0  0  0  0  0  0  0  0  0  0
   49.9510   30.2101   51.0057 H   0  0  0  0  0  0  0  0  0  0  0  0
   47.7005   31.3500   50.4352 H   0  0  0  0  0  0  0  0  0  0  0  0
   43.8042   36.6837   44.7553 H   0  0  0  0  0  0  0  0  0  0  0  0
   45.0746   36.3818   42.5948 H   0  0  0  0  0  0  0  0  0  0  0  0
   46.7053   34.4424   42.4746 H   0  0  0  0  0  0  0  0  0  0  0  0
  1  3  1  0
  2  1  1  0
  2  3  1  0
  3  4  1  0
  4  8  1  0
  5  4  2  0
  5  6  1  0
  6  7  2  0
  8  7  1  0
  9  1  1  0
  9 10  2  0
 11 16  2  0
 12 11  1  0
 13 12  2  0
 13 14  1  0
 14 15  2  0
 15 16  1  0
 15  9  1  0
  1 17  1  1
  2 18  1  0
  2 19  1  0
  3 20  1  1
  5 21  1  0
  7 22  1  0
  8 23  1  0
 11 24  1  0
 12 25  1  0
 13 26  1  0
M  ISO  8  17  13  18  13  19  13  20  13  21  14  22  14  23   9  24  14
M  ISO  2  25  14  26  14
M  END
>  <minimizedAffinity>  (1) 
-5.10157204

>  <minimizedRMSD>  (1) 
1.52409494

$$$$
