
     RDKit          3D

 32 34  0  0  1  0  0  0  0  0999 V2000
   46.7110   31.9050   46.4470 C   0  0  2  0  0  0  0  0  0  0  0  0
   46.3150   30.5100   46.6600 C   0  0  0  0  0  0  0  0  0  0  0  0
   47.0540   31.1730   47.7740 C   0  0  1  0  0  0  0  0  0  0  0  0
   48.4710   30.8500   48.0750 C   0  0  0  0  0  0  0  0  0  0  0  0
   49.0110   31.4140   49.3510 C   0  0  0  0  0  0  0  0  0  0  0  0
   50.4090   30.7800   49.3700 C   0  0  0  0  0  0  0  0  0  0  0  0
   50.2560   29.4580   48.6320 C   0  0  0  0  0  0  0  0  0  0  0  0
   48.7860   29.3880   48.2020 C   0  0  0  0  0  0  0  0  0  0  0  0
   45.7230   33.0190   46.6050 C   0  0  0  0  0  0  0  0  0  0  0  0
   45.0870   33.0510   47.6870 O   0  0  0  0  0  0  0  0  0  0  0  0
   44.5490   35.9040   44.7070 C   0  0  0  0  0  0  0  0  0  0  0  0
   45.2380   35.8020   43.4820 C   0  0  0  0  0  0  0  0  0  0  0  0
   46.0970   34.7180   43.3560 C   0  0  0  0  0  0  0  0  0  0  0  0
   46.2150   33.8540   44.3860 N   0  0  0  0  0  0  0  0  0  0  0  0
   45.5340   33.9910   45.5440 C   0  0  0  0  0  0  0  0  0  0  0  0
   44.6930   35.0250   45.7070 N   0  0  0  0  0  0  0  0  0  0  0  0
   47.2388   32.4102   45.6247 H   0  0  0  0  0  0  0  0  0  0  0  0
   45.2506   30.2640   46.7886 H   0  0  0  0  0  0  0  0  0  0  0  0
   46.4751   29.5820   46.0916 H   0  0  0  0  0  0  0  0  0  0  0  0
   46.8704   31.3197   48.8486 H   0  0  0  0  0  0  0  0  0  0  0  0
   48.9342   31.3078   47.1885 H   0  0  0  0  0  0  0  0  0  0  0  0
   49.0639   32.5123   49.3189 H   0  0  0  0  0  0  0  0  0  0  0  0
   48.3998   31.2009   50.2404 H   0  0  0  0  0  0  0  0  0  0  0  0
   51.1337   31.4279   48.8551 H   0  0  0  0  0  0  0  0  0  0  0  0
   50.7831   30.6386   50.3947 H   0  0  0  0  0  0  0  0  0  0  0  0
   50.9145   29.4324   47.7512 H   0  0  0  0  0  0  0  0  0  0  0  0
   50.5330   28.6045   49.2682 H   0  0  0  0  0  0  0  0  0  0  0  0
   48.1615   28.9025   48.9664 H   0  0  0  0  0  0  0  0  0  0  0  0
   48.6010   28.7975   47.2925 H   0  0  0  0  0  0  0  0  0  0  0  0
   43.8581   36.7481   44.8490 H   0  0  0  0  0  0  0  0  0  0  0  0
   45.1036   36.5366   42.6743 H   0  0  0  0  0  0  0  0  0  0  0  0
   46.6724   34.5660   42.4309 H   0  0  0  0  0  0  0  0  0  0  0  0
  1  9  1  0
  1  2  1  0
  1  3  1  0
  2  3  1  0
  3  4  1  0
  4  8  1  0
  4  5  1  0
  5  6  1  0
  7  6  1  0
  8  7  1  0
  9 10  2  0
 11 16  2  0
 12 11  1  0
 13 12  2  0
 13 14  1  0
 14 15  2  0
 15 16  1  0
 15  9  1  0
  1 17  1  6
  2 18  1  0
  2 19  1  0
  3 20  1  1
  4 21  1  0
  5 22  1  0
  5 23  1  0
  6 24  1  0
  6 25  1  0
  7 26  1  0
  7 27  1  0
  8 28  1  0
  8 29  1  0
 11 30  1  0
 12 31  1  0
 13 32  1  0
M  ISO  8  17  13  18  13  19  13  20  13  21  13  22  13  23  13  24  13
M  ISO  8  25  13  26  13  27  13  28  13  29  13  30  14  31  14  32  14
M  END
>  <minimizedAffinity>  (1) 
-4.7145133

>  <minimizedRMSD>  (1) 
1.20484698

$$$$
