
     RDKit          3D

 21 22  0  0  1  0  0  0  0  0999 V2000
   45.7680   33.1010   46.8030 C   0  0  0  0  0  0  0  0  0  0  0  0
   44.9000   32.9600   47.7100 O   0  0  0  0  0  0  0  0  0  0  0  0
   44.5620   35.7950   44.6510 C   0  0  0  0  0  0  0  0  0  0  0  0
   45.2810   35.6030   43.4560 C   0  0  0  0  0  0  0  0  0  0  0  0
   46.1760   34.5280   43.4320 C   0  0  0  0  0  0  0  0  0  0  0  0
   46.2860   33.7610   44.5400 N   0  0  0  0  0  0  0  0  0  0  0  0
   45.5810   33.9800   45.6580 C   0  0  0  0  0  0  0  0  0  0  0  0
   44.7190   34.9930   45.7230 N   0  0  0  0  0  0  0  0  0  0  0  0
   47.0270   32.3050   46.9590 C   0  0  2  0  0  0  0  0  0  0  0  0
   46.9590   30.8890   47.3410 C   0  0  0  0  0  0  0  0  0  0  0  0
   47.3220   31.8600   48.4150 C   0  0  1  0  0  0  0  0  0  0  0  0
   48.6810   31.7840   48.8550 N   0  0  0  0  0  0  0  0  0  0  0  0
   43.8470   36.6287   44.7121 H   0  0  0  0  0  0  0  0  0  0  0  0
   45.1462   36.2635   42.5868 H   0  0  0  0  0  0  0  0  0  0  0  0
   46.7748   34.3123   42.5348 H   0  0  0  0  0  0  0  0  0  0  0  0
   47.5434   32.8386   46.1475 H   0  0  0  0  0  0  0  0  0  0  0  0
   45.9823   30.3843   47.3755 H   0  0  0  0  0  0  0  0  0  0  0  0
   47.4322   29.9749   46.9530 H   0  0  0  0  0  0  0  0  0  0  0  0
   46.9444   32.1645   49.4023 H   0  0  0  0  0  0  0  0  0  0  0  0
   48.7089   31.7824   49.8846 H   0  0  0  0  0  0  0  0  0  0  0  0
   49.1093   30.9177   48.4986 H   0  0  0  0  0  0  0  0  0  0  0  0
  1  9  1  0
  1  2  2  0
  3  8  2  0
  4  3  1  0
  5  4  2  0
  5  6  1  0
  6  7  2  0
  7  8  1  0
  7  1  1  0
  9 10  1  0
  9 11  1  0
 10 11  1  0
 11 12  1  0
  3 13  1  0
  4 14  1  0
  5 15  1  0
  9 16  1  6
 10 17  1  0
 10 18  1  0
 11 19  1  1
 12 20  1  0
 12 21  1  0
M  ISO  8  13  14  14  14  15  14  16  13  17  13  18  13  19  13  20   5
M  ISO  1  21   5
M  END
>  <minimizedAffinity>  (1) 
-4.13046837

>  <minimizedRMSD>  (1) 
0.353809267

$$$$
