
     RDKit          3D

 26 28  0  0  1  0  0  0  0  0999 V2000
   45.6730   33.0310   46.0760 C   0  0  0  0  0  0  0  0  0  0  0  0
   45.2230   33.0930   47.2540 O   0  0  0  0  0  0  0  0  0  0  0  0
   44.6010   36.1480   44.4960 C   0  0  0  0  0  0  0  0  0  0  0  0
   45.2760   36.1450   43.2620 C   0  0  0  0  0  0  0  0  0  0  0  0
   46.0870   35.0460   43.0170 C   0  0  0  0  0  0  0  0  0  0  0  0
   46.1730   34.0740   43.9570 N   0  0  0  0  0  0  0  0  0  0  0  0
   45.5130   34.1170   45.1180 C   0  0  0  0  0  0  0  0  0  0  0  0
   44.7200   35.1600   45.3940 N   0  0  0  0  0  0  0  0  0  0  0  0
   46.3900   31.7780   45.6970 C   0  0  2  0  0  0  0  0  0  0  0  0
   46.1150   30.5260   46.3990 C   0  0  0  0  0  0  0  0  0  0  0  0
   47.3710   31.2420   46.7580 C   0  0  2  0  0  0  0  0  0  0  0  0
   47.5660   31.9600   48.0370 C   0  0  0  0  0  0  0  0  0  0  0  0
   48.7900   31.6470   48.8830 C   0  0  0  0  0  0  0  0  0  0  0  0
   47.4780   31.0890   49.2830 C   0  0  0  0  0  0  0  0  0  0  0  0
   43.9463   36.9991   44.7348 H   0  0  0  0  0  0  0  0  0  0  0  0
   45.1676   36.9638   42.5355 H   0  0  0  0  0  0  0  0  0  0  0  0
   46.6504   34.9653   42.0757 H   0  0  0  0  0  0  0  0  0  0  0  0
   46.4140   32.0513   44.6318 H   0  0  0  0  0  0  0  0  0  0  0  0
   45.2900   30.4822   47.1253 H   0  0  0  0  0  0  0  0  0  0  0  0
   45.8928   29.5012   46.0666 H   0  0  0  0  0  0  0  0  0  0  0  0
   48.4341   30.9641   46.8093 H   0  0  0  0  0  0  0  0  0  0  0  0
   47.1131   32.8895   47.6615 H   0  0  0  0  0  0  0  0  0  0  0  0
   49.5714   30.9802   48.4895 H   0  0  0  0  0  0  0  0  0  0  0  0
   49.5566   32.2545   49.3864 H   0  0  0  0  0  0  0  0  0  0  0  0
   46.9723   31.4695   50.1827 H   0  0  0  0  0  0  0  0  0  0  0  0
   47.1000   30.0778   49.4942 H   0  0  0  0  0  0  0  0  0  0  0  0
  1  2  2  0
  3  8  2  0
  4  3  1  0
  5  4  2  0
  5  6  1  0
  6  7  2  0
  7  8  1  0
  7  1  1  0
  9  1  1  0
  9 10  1  0
  9 11  1  0
 10 11  1  0
 11 12  1  0
 12 13  1  0
 12 14  1  0
 13 14  1  0
  3 15  1  0
  4 16  1  0
  5 17  1  0
  9 18  1  6
 10 19  1  0
 10 20  1  0
 11 21  1  6
 12 22  1  0
 13 23  1  0
 13 24  1  0
 14 25  1  0
 14 26  1  0
M  ISO  8  15  14  16  14  17  14  18  13  19  13  20  13  21  13  22  13
M  ISO  4  23  13  24  13  25  13  26  13
M  END
>  <minimizedAffinity>  (1) 
-4.35988379

>  <minimizedRMSD>  (1) 
1.39845026

$$$$
