
     RDKit          3D

 35 37  0  0  1  0  0  0  0  0999 V2000
   46.9010   32.0710   46.1550 C   0  0  2  0  0  0  0  0  0  0  0  0
   46.5270   30.7110   45.7240 C   0  0  0  0  0  0  0  0  0  0  0  0
   46.8630   30.9140   47.1620 C   0  0  1  0  0  0  0  0  0  0  0  0
   45.8390   33.1220   46.3520 C   0  0  0  0  0  0  0  0  0  0  0  0
   45.2110   33.0590   47.4510 O   0  0  0  0  0  0  0  0  0  0  0  0
   44.5040   36.0060   44.5910 C   0  0  0  0  0  0  0  0  0  0  0  0
   45.1500   35.9570   43.3330 C   0  0  0  0  0  0  0  0  0  0  0  0
   46.0450   34.9010   43.1390 C   0  0  0  0  0  0  0  0  0  0  0  0
   46.2100   34.0370   44.1490 N   0  0  0  0  0  0  0  0  0  0  0  0
   45.5800   34.1100   45.3370 C   0  0  0  0  0  0  0  0  0  0  0  0
   44.7120   35.1170   45.5550 N   0  0  0  0  0  0  0  0  0  0  0  0
   48.1450   30.5810   47.7820 C   0  0  2  0  0  0  0  0  0  0  0  0
   48.6030   29.1650   47.4910 C   0  0  0  0  0  0  0  0  0  0  0  0
   48.0970   30.7890   49.2750 C   0  0  0  0  0  0  0  0  0  0  0  0
   49.4750   31.0570   49.8240 C   0  0  0  0  0  0  0  0  0  0  0  0
   50.3310   32.0640   49.7030 C   0  0  0  0  0  0  0  0  0  0  0  0
   51.5210   32.0240   50.3270 C   0  0  0  0  0  0  0  0  0  0  0  0
   51.7970   30.8820   51.0940 C   0  0  0  0  0  0  0  0  0  0  0  0
   50.2200   29.8730   50.8520 S   0  0  0  0  0  0  0  0  0  0  0  0
   47.6352   32.8020   45.7855 H   0  0  0  0  0  0  0  0  0  0  0  0
   45.4874   30.4996   45.4334 H   0  0  0  0  0  0  0  0  0  0  0  0
   46.8939   30.0293   44.9426 H   0  0  0  0  0  0  0  0  0  0  0  0
   46.3427   30.6136   48.0834 H   0  0  0  0  0  0  0  0  0  0  0  0
   43.7924   36.8232   44.7801 H   0  0  0  0  0  0  0  0  0  0  0  0
   44.9587   36.7075   42.5519 H   0  0  0  0  0  0  0  0  0  0  0  0
   46.5931   34.7840   42.1925 H   0  0  0  0  0  0  0  0  0  0  0  0
   48.8770   31.2668   47.3305 H   0  0  0  0  0  0  0  0  0  0  0  0
   48.7750   28.6333   48.4385 H   0  0  0  0  0  0  0  0  0  0  0  0
   47.8286   28.6409   46.9117 H   0  0  0  0  0  0  0  0  0  0  0  0
   49.5377   29.1937   46.9117 H   0  0  0  0  0  0  0  0  0  0  0  0
   47.4467   31.6476   49.4985 H   0  0  0  0  0  0  0  0  0  0  0  0
   47.7022   29.8762   49.7451 H   0  0  0  0  0  0  0  0  0  0  0  0
   50.0651   32.9367   49.0884 H   0  0  0  0  0  0  0  0  0  0  0  0
   52.2445   32.8480   50.2403 H   0  0  0  0  0  0  0  0  0  0  0  0
   52.6949   30.6389   51.6811 H   0  0  0  0  0  0  0  0  0  0  0  0
  1  4  1  0
  1  3  1  0
  2  1  1  0
  2  3  1  0
  3 12  1  0
  4  5  2  0
  6 11  2  0
  7  6  1  0
  8  7  2  0
  8  9  1  0
  9 10  2  0
 10 11  1  0
 10  4  1  0
 12 14  1  0
 13 12  1  0
 14 15  1  0
 15 19  1  0
 16 15  2  0
 16 17  1  0
 17 18  2  0
 19 18  1  0
  1 20  1  6
  2 21  1  0
  2 22  1  0
  3 23  1  1
  6 24  1  0
  7 25  1  0
  8 26  1  0
 12 27  1  6
 13 28  1  0
 13 29  1  0
 13 30  1  0
 14 31  1  0
 14 32  1  0
 16 33  1  0
 17 34  1  0
 18 35  1  0
M  ISO  8  20  13  21  13  22  13  23  13  24  14  25  14  26  14  27   8
M  ISO  8  28   8  29   8  30   8  31   8  32   8  33  14  34  14  35  14
M  END
>  <minimizedAffinity>  (1) 
-5.13047743

>  <minimizedRMSD>  (1) 
0.953997731

$$$$
