
     RDKit          3D

 35 37  0  0  1  0  0  0  0  0999 V2000
   47.0180   32.2140   46.0570 C   0  0  2  0  0  0  0  0  0  0  0  0
   46.7480   30.8940   45.4380 C   0  0  0  0  0  0  0  0  0  0  0  0
   46.9090   30.9470   46.9150 C   0  0  1  0  0  0  0  0  0  0  0  0
   45.8840   33.1940   46.2340 C   0  0  0  0  0  0  0  0  0  0  0  0
   45.2120   33.0700   47.3050 O   0  0  0  0  0  0  0  0  0  0  0  0
   44.4820   36.0540   44.4830 C   0  0  0  0  0  0  0  0  0  0  0  0
   45.1090   36.0290   43.2330 C   0  0  0  0  0  0  0  0  0  0  0  0
   46.0240   35.0040   43.0290 C   0  0  0  0  0  0  0  0  0  0  0  0
   46.2290   34.1320   44.0390 N   0  0  0  0  0  0  0  0  0  0  0  0
   45.6000   34.1910   45.2380 C   0  0  0  0  0  0  0  0  0  0  0  0
   44.7090   35.1660   45.4710 N   0  0  0  0  0  0  0  0  0  0  0  0
   48.1210   30.5870   47.6530 C   0  0  2  0  0  0  0  0  0  0  0  0
   48.6030   29.1770   47.3460 C   0  0  0  0  0  0  0  0  0  0  0  0
   47.8970   30.7110   49.1390 C   0  0  0  0  0  0  0  0  0  0  0  0
   49.1880   30.8020   49.8700 C   0  0  0  0  0  0  0  0  0  0  0  0
   50.0400   31.8900   49.6600 C   0  0  0  0  0  0  0  0  0  0  0  0
   51.1430   31.6650   50.4910 C   0  0  0  0  0  0  0  0  0  0  0  0
   50.8950   30.4740   51.1420 C   0  0  0  0  0  0  0  0  0  0  0  0
   49.7480   29.9890   50.7640 O   0  0  0  0  0  0  0  0  0  0  0  0
   47.7606   33.0026   45.8655 H   0  0  0  0  0  0  0  0  0  0  0  0
   45.7575   30.6884   45.0060 H   0  0  0  0  0  0  0  0  0  0  0  0
   47.2279   30.3126   44.6370 H   0  0  0  0  0  0  0  0  0  0  0  0
   46.2972   30.5258   47.7264 H   0  0  0  0  0  0  0  0  0  0  0  0
   43.7522   36.8548   44.6730 H   0  0  0  0  0  0  0  0  0  0  0  0
   44.8903   36.7772   42.4569 H   0  0  0  0  0  0  0  0  0  0  0  0
   46.5639   34.9060   42.0756 H   0  0  0  0  0  0  0  0  0  0  0  0
   48.8982   31.2923   47.3236 H   0  0  0  0  0  0  0  0  0  0  0  0
   48.7869   28.6392   48.2878 H   0  0  0  0  0  0  0  0  0  0  0  0
   47.8355   28.6457   46.7641 H   0  0  0  0  0  0  0  0  0  0  0  0
   49.5352   29.2267   46.7641 H   0  0  0  0  0  0  0  0  0  0  0  0
   47.3066   31.6174   49.3387 H   0  0  0  0  0  0  0  0  0  0  0  0
   47.3613   29.8155   49.4871 H   0  0  0  0  0  0  0  0  0  0  0  0
   49.8777   32.7427   48.9844 H   0  0  0  0  0  0  0  0  0  0  0  0
   52.0287   32.3077   50.6027 H   0  0  0  0  0  0  0  0  0  0  0  0
   51.5683   30.0033   51.8735 H   0  0  0  0  0  0  0  0  0  0  0  0
  1  4  1  0
  1  3  1  0
  2  1  1  0
  2  3  1  0
  3 12  1  0
  4  5  2  0
  6 11  2  0
  7  6  1  0
  8  7  2  0
  8  9  1  0
  9 10  2  0
 10 11  1  0
 10  4  1  0
 12 14  1  0
 13 12  1  0
 14 15  1  0
 15 19  1  0
 16 15  2  0
 16 17  1  0
 17 18  2  0
 19 18  1  0
  1 20  1  6
  2 21  1  0
  2 22  1  0
  3 23  1  1
  6 24  1  0
  7 25  1  0
  8 26  1  0
 12 27  1  6
 13 28  1  0
 13 29  1  0
 13 30  1  0
 14 31  1  0
 14 32  1  0
 16 33  1  0
 17 34  1  0
 18 35  1  0
M  ISO  8  20  13  21  13  22  13  23  13  24  14  25  14  26  14  27   8
M  ISO  8  28   8  29   8  30   8  31   8  32   8  33  14  34  14  35  14
M  END
>  <minimizedAffinity>  (1) 
-5.18754578

>  <minimizedRMSD>  (1) 
2.11334252

$$$$
