
     RDKit          3D

 41 43  0  0  1  0  0  0  0  0999 V2000
   47.7080   31.3100   47.8560 C   0  0  2  0  0  0  0  0  0  0  0  0
   46.4800   29.3970   46.7310 C   0  0  2  0  0  0  0  0  0  0  0  0
   47.5990   28.7240   47.4310 C   0  0  0  0  0  0  0  0  0  0  0  0
   47.0810   29.9990   48.0060 C   0  0  1  0  0  0  0  0  0  0  0  0
   45.0780   28.8670   46.8860 C   0  0  0  0  0  0  0  0  0  0  0  0
   44.1560   29.7380   46.8510 O   0  0  0  0  0  0  0  0  0  0  0  0
   44.4040   25.6320   48.4050 C   0  0  0  0  0  0  0  0  0  0  0  0
   44.4280   24.7400   47.3290 C   0  0  0  0  0  0  0  0  0  0  0  0
   44.6760   25.2920   46.0830 C   0  0  0  0  0  0  0  0  0  0  0  0
   44.8720   26.6280   46.0090 N   0  0  0  0  0  0  0  0  0  0  0  0
   44.8410   27.4520   47.0660 C   0  0  0  0  0  0  0  0  0  0  0  0
   44.6020   26.9600   48.3030 N   0  0  0  0  0  0  0  0  0  0  0  0
   48.7260   31.6160   48.9290 C   0  0  0  0  0  0  0  0  0  0  0  0
   46.7020   32.4120   47.8140 C   0  0  0  0  0  0  0  0  0  0  0  0
   45.6300   34.3960   44.1760 C   0  0  0  0  0  0  0  0  0  0  0  0
   44.9990   34.6080   45.3850 C   0  0  0  0  0  0  0  0  0  0  0  0
   45.4110   33.9260   46.5110 C   0  0  0  0  0  0  0  0  0  0  0  0
   46.4660   33.0070   46.4810 C   0  0  0  0  0  0  0  0  0  0  0  0
   47.0870   32.8030   45.2680 C   0  0  0  0  0  0  0  0  0  0  0  0
   46.6680   33.4900   44.1480 C   0  0  0  0  0  0  0  0  0  0  0  0
   45.1410   35.2390   42.7230 S   0  0  0  0  0  0  0  0  0  0  0  0
   43.7280   34.8310   42.3320 O   0  0  0  0  0  0  0  0  0  0  0  0
   45.1220   36.7140   42.9970 O   0  0  0  0  0  0  0  0  0  0  0  0
   48.2350   31.2566   46.8920 H   0  0  0  0  0  0  0  0  0  0  0  0
   46.3190   29.7036   45.6869 H   0  0  0  0  0  0  0  0  0  0  0  0
   47.4190   27.7761   47.9592 H   0  0  0  0  0  0  0  0  0  0  0  0
   48.5944   28.3724   47.1219 H   0  0  0  0  0  0  0  0  0  0  0  0
   46.7830   30.2705   49.0295 H   0  0  0  0  0  0  0  0  0  0  0  0
   44.2096   25.2198   49.4061 H   0  0  0  0  0  0  0  0  0  0  0  0
   44.2596   23.6614   47.4640 H   0  0  0  0  0  0  0  0  0  0  0  0
   44.7124   24.6629   45.1814 H   0  0  0  0  0  0  0  0  0  0  0  0
   48.2676   31.4782   49.9194 H   0  0  0  0  0  0  0  0  0  0  0  0
   49.5845   30.9362   48.8245 H   0  0  0  0  0  0  0  0  0  0  0  0
   49.0674   32.6565   48.8245 H   0  0  0  0  0  0  0  0  0  0  0  0
   45.7453   32.0119   48.1809 H   0  0  0  0  0  0  0  0  0  0  0  0
   47.1125   33.2200   48.4374 H   0  0  0  0  0  0  0  0  0  0  0  0
   44.1654   35.3227   45.4508 H   0  0  0  0  0  0  0  0  0  0  0  0
   44.8933   34.1106   47.4638 H   0  0  0  0  0  0  0  0  0  0  0  0
   47.9205   32.0891   45.1927 H   0  0  0  0  0  0  0  0  0  0  0  0
   47.1833   33.3073   43.1935 H   0  0  0  0  0  0  0  0  0  0  0  0
   46.0198   34.9293   41.7187 H   0  0  0  0  0  0  0  0  0  0  0  0
  1  4  1  0
  1 13  1  0
  2  5  1  0
  2  3  1  0
  2  4  1  0
  3  4  1  0
  5 11  1  0
  6  5  2  0
  8  7  2  0
  9  8  1  0
 10  9  2  0
 10 11  1  0
 11 12  2  0
 12  7  1  0
 14  1  1  0
 15 16  2  0
 16 17  1  0
 18 17  2  0
 18 14  1  0
 19 18  1  0
 20 15  1  0
 20 19  2  0
 21 23  2  0
 21 15  1  0
 22 21  2  0
  1 24  1  6
  2 25  1  6
  3 26  1  0
  3 27  1  0
  4 28  1  1
  7 29  1  0
  8 30  1  0
  9 31  1  0
 13 32  1  0
 13 33  1  0
 13 34  1  0
 14 35  1  0
 14 36  1  0
 16 37  1  0
 17 38  1  0
 19 39  1  0
 20 40  1  0
 21 41  1  0
M  ISO  8  24   8  25  13  26  13  27  13  28  13  29  14  30  14  31  14
M  ISO  8  32   8  33   8  34   8  35   8  36   8  37  14  38  14  39  14
M  ISO  2  40  14  41  11
M  END
>  <minimizedAffinity>  (1) 
-4.44299364

>  <minimizedRMSD>  (1) 
6.66344595

$$$$
