
     RDKit          3D

 49 52  0  0  1  0  0  0  0  0999 V2000
   48.2930   30.7550   47.8370 C   0  0  2  0  0  0  0  0  0  0  0  0
   46.9410   32.1040   46.1950 C   0  0  2  0  0  0  0  0  0  0  0  0
   46.4850   30.6840   45.9240 C   0  0  0  0  0  0  0  0  0  0  0  0
   46.9870   31.0350   47.2580 C   0  0  1  0  0  0  0  0  0  0  0  0
   45.8450   33.1470   46.3720 C   0  0  0  0  0  0  0  0  0  0  0  0
   45.1890   33.0640   47.4710 O   0  0  0  0  0  0  0  0  0  0  0  0
   44.5020   35.9950   44.5670 C   0  0  0  0  0  0  0  0  0  0  0  0
   45.1390   35.9350   43.3200 C   0  0  0  0  0  0  0  0  0  0  0  0
   46.0440   34.8910   43.1410 C   0  0  0  0  0  0  0  0  0  0  0  0
   46.2260   34.0380   44.1690 N   0  0  0  0  0  0  0  0  0  0  0  0
   45.5920   34.1290   45.3560 C   0  0  0  0  0  0  0  0  0  0  0  0
   44.7030   35.1290   45.5770 N   0  0  0  0  0  0  0  0  0  0  0  0
   48.9340   29.4960   47.2760 C   0  0  0  0  0  0  0  0  0  0  0  0
   48.2120   30.6060   49.3310 C   0  0  0  0  0  0  0  0  0  0  0  0
   49.4980   30.6800   50.0330 C   0  0  0  0  0  0  0  0  0  0  0  0
   50.2340   29.6850   50.6500 C   0  0  0  0  0  0  0  0  0  0  0  0
   51.4200   29.9560   51.2440 C   0  0  0  0  0  0  0  0  0  0  0  0
   51.8810   31.2230   51.2280 N   0  0  0  0  0  0  0  0  0  0  0  0
   51.1910   32.2270   50.6350 C   0  0  0  0  0  0  0  0  0  0  0  0
   50.0140   31.9320   50.0500 N   0  0  0  0  0  0  0  0  0  0  0  0
   51.7510   33.5360   50.6650 N   0  0  0  0  0  0  0  0  0  0  0  0
   51.1820   34.7100   50.8940 C   0  0  0  0  0  0  0  0  0  0  0  0
   51.9510   35.8420   50.8670 C   0  0  0  0  0  0  0  0  0  0  0  0
   51.2810   37.1350   51.1270 C   0  0  0  0  0  0  0  0  0  0  0  0
   53.3060   35.8220   50.6080 C   0  0  0  0  0  0  0  0  0  0  0  0
   54.0060   36.8680   50.5850 O   0  0  0  0  0  0  0  0  0  0  0  0
   53.8530   34.5940   50.3780 N   0  0  0  0  0  0  0  0  0  0  0  0
   53.0890   33.4650   50.4050 C   0  0  0  0  0  0  0  0  0  0  0  0
   53.7700   32.4220   50.1690 O   0  0  0  0  0  0  0  0  0  0  0  0
   48.9166   31.6209   47.5698 H   0  0  0  0  0  0  0  0  0  0  0  0
   47.6565   32.7986   45.7307 H   0  0  0  0  0  0  0  0  0  0  0  0
   45.4157   30.4699   45.7797 H   0  0  0  0  0  0  0  0  0  0  0  0
   46.7420   29.9181   45.1775 H   0  0  0  0  0  0  0  0  0  0  0  0
   46.5604   30.8095   48.2465 H   0  0  0  0  0  0  0  0  0  0  0  0
   43.7837   36.8115   44.7324 H   0  0  0  0  0  0  0  0  0  0  0  0
   44.9359   36.6705   42.5276 H   0  0  0  0  0  0  0  0  0  0  0  0
   46.5906   34.7671   42.1945 H   0  0  0  0  0  0  0  0  0  0  0  0
   49.2623   28.8512   48.1046 H   0  0  0  0  0  0  0  0  0  0  0  0
   48.2014   28.9554   46.6587 H   0  0  0  0  0  0  0  0  0  0  0  0
   49.8022   29.7704   46.6587 H   0  0  0  0  0  0  0  0  0  0  0  0
   47.5651   31.4066   49.7190 H   0  0  0  0  0  0  0  0  0  0  0  0
   47.8179   29.5962   49.5179 H   0  0  0  0  0  0  0  0  0  0  0  0
   49.8488   28.6547   50.6583 H   0  0  0  0  0  0  0  0  0  0  0  0
   51.9975   29.1565   51.7312 H   0  0  0  0  0  0  0  0  0  0  0  0
   50.1040   34.7745   51.1034 H   0  0  0  0  0  0  0  0  0  0  0  0
   51.1988   37.2936   52.2124 H   0  0  0  0  0  0  0  0  0  0  0  0
   51.8704   37.9496   50.6810 H   0  0  0  0  0  0  0  0  0  0  0  0
   50.2756   37.1232   50.6810 H   0  0  0  0  0  0  0  0  0  0  0  0
   54.8610   34.5181   50.1804 H   0  0  0  0  0  0  0  0  0  0  0  0
  1 14  1  0
  2  5  1  0
  2  4  1  0
  3  2  1  0
  3  4  1  0
  4  1  1  0
  5  6  2  0
  7 12  2  0
  8  7  1  0
  9  8  2  0
  9 10  1  0
 10 11  2  0
 11 12  1  0
 11  5  1  0
 13  1  1  0
 14 15  1  0
 15 20  1  0
 15 16  2  0
 16 17  1  0
 18 17  2  0
 19 21  1  0
 19 18  1  0
 20 19  2  0
 21 22  1  0
 23 22  2  0
 23 24  1  0
 25 23  1  0
 26 25  2  0
 27 28  1  0
 27 25  1  0
 28 21  1  0
 29 28  2  0
  1 30  1  1
  2 31  1  6
  3 32  1  0
  3 33  1  0
  4 34  1  1
  7 35  1  0
  8 36  1  0
  9 37  1  0
 13 38  1  0
 13 39  1  0
 13 40  1  0
 14 41  1  0
 14 42  1  0
 16 43  1  0
 17 44  1  0
 22 45  1  0
 24 46  1  0
 24 47  1  0
 24 48  1  0
 27 49  1  0
M  ISO  8  30   8  31  13  32  13  33  13  34  13  35  14  36  14  37  14
M  ISO  8  38   8  39   8  40   8  41   8  42   8  43  14  44  14  45  14
M  ISO  4  46   8  47   8  48   8  49   9
M  END
>  <minimizedAffinity>  (1) 
-6.78789186

>  <minimizedRMSD>  (1) 
0.781442285

$$$$
