
     RDKit          3D

 46 49  0  0  1  0  0  0  0  0999 V2000
   48.3430   30.7650   47.8940 C   0  0  2  0  0  0  0  0  0  0  0  0
   47.0060   32.1120   46.2340 C   0  0  2  0  0  0  0  0  0  0  0  0
   46.5980   30.6870   45.9210 C   0  0  0  0  0  0  0  0  0  0  0  0
   47.0510   31.0260   47.2770 C   0  0  1  0  0  0  0  0  0  0  0  0
   45.8840   33.1260   46.3890 C   0  0  0  0  0  0  0  0  0  0  0  0
   45.2100   33.0210   47.4770 O   0  0  0  0  0  0  0  0  0  0  0  0
   44.5040   35.9560   44.5790 C   0  0  0  0  0  0  0  0  0  0  0  0
   45.1480   35.8960   43.3310 C   0  0  0  0  0  0  0  0  0  0  0  0
   46.0670   34.8640   43.1550 C   0  0  0  0  0  0  0  0  0  0  0  0
   46.2610   34.0140   44.1850 N   0  0  0  0  0  0  0  0  0  0  0  0
   45.6250   34.1020   45.3700 C   0  0  0  0  0  0  0  0  0  0  0  0
   44.7240   35.0870   45.5900 N   0  0  0  0  0  0  0  0  0  0  0  0
   49.0790   29.5970   47.2700 C   0  0  0  0  0  0  0  0  0  0  0  0
   48.2080   30.4960   49.3690 C   0  0  0  0  0  0  0  0  0  0  0  0
   49.4650   30.4150   50.1060 C   0  0  0  0  0  0  0  0  0  0  0  0
   50.1910   29.3170   50.5180 C   0  0  0  0  0  0  0  0  0  0  0  0
   51.3680   29.4680   51.2060 C   0  0  0  0  0  0  0  0  0  0  0  0
   51.8050   30.7060   51.4730 N   0  0  0  0  0  0  0  0  0  0  0  0
   51.1240   31.8020   51.0880 C   0  0  0  0  0  0  0  0  0  0  0  0
   49.9730   31.6460   50.4160 N   0  0  0  0  0  0  0  0  0  0  0  0
   51.6680   33.1160   51.4180 C   0  0  0  0  0  0  0  0  0  0  0  0
   52.3980   33.3210   52.5590 C   0  0  0  0  0  0  0  0  0  0  0  0
   52.9190   34.5530   52.8880 C   0  0  0  0  0  0  0  0  0  0  0  0
   52.6430   35.5480   51.9770 C   0  0  0  0  0  0  0  0  0  0  0  0
   51.9130   35.4270   50.7990 C   0  0  0  0  0  0  0  0  0  0  0  0
   51.4250   34.1540   50.5430 C   0  0  0  0  0  0  0  0  0  0  0  0
   48.9276   31.6809   47.7228 H   0  0  0  0  0  0  0  0  0  0  0  0
   47.7165   32.8349   45.8068 H   0  0  0  0  0  0  0  0  0  0  0  0
   45.5399   30.4467   45.7405 H   0  0  0  0  0  0  0  0  0  0  0  0
   46.8979   29.9435   45.1678 H   0  0  0  0  0  0  0  0  0  0  0  0
   46.6026   30.7724   48.2489 H   0  0  0  0  0  0  0  0  0  0  0  0
   43.7740   36.7623   44.7431 H   0  0  0  0  0  0  0  0  0  0  0  0
   44.9374   36.6256   42.5352 H   0  0  0  0  0  0  0  0  0  0  0  0
   46.6157   34.7460   42.2089 H   0  0  0  0  0  0  0  0  0  0  0  0
   49.4848   28.9529   48.0640 H   0  0  0  0  0  0  0  0  0  0  0  0
   48.3834   29.0162   46.6465 H   0  0  0  0  0  0  0  0  0  0  0  0
   49.9031   29.9738   46.6465 H   0  0  0  0  0  0  0  0  0  0  0  0
   47.6079   31.3063   49.8087 H   0  0  0  0  0  0  0  0  0  0  0  0
   47.7403   29.5042   49.4556 H   0  0  0  0  0  0  0  0  0  0  0  0
   49.8209   28.3061   50.2917 H   0  0  0  0  0  0  0  0  0  0  0  0
   51.9426   28.5887   51.5326 H   0  0  0  0  0  0  0  0  0  0  0  0
   52.5743   32.4722   53.2361 H   0  0  0  0  0  0  0  0  0  0  0  0
   53.5062   34.7273   53.8017 H   0  0  0  0  0  0  0  0  0  0  0  0
   53.0431   36.5468   52.2055 H   0  0  0  0  0  0  0  0  0  0  0  0
   51.7362   36.2760   50.1222 H   0  0  0  0  0  0  0  0  0  0  0  0
   50.8373   33.9703   49.6315 H   0  0  0  0  0  0  0  0  0  0  0  0
  1 14  1  0
  2  5  1  0
  2  4  1  0
  3  2  1  0
  3  4  1  0
  4  1  1  0
  5  6  2  0
  7 12  2  0
  8  7  1  0
  9  8  2  0
  9 10  1  0
 10 11  2  0
 11 12  1  0
 11  5  1  0
 13  1  1  0
 14 15  1  0
 15 20  1  0
 15 16  2  0
 16 17  1  0
 17 18  2  0
 19 21  1  0
 19 18  1  0
 20 19  2  0
 21 22  2  0
 22 23  1  0
 24 23  2  0
 25 24  1  0
 26 25  2  0
 26 21  1  0
  1 27  1  1
  2 28  1  6
  3 29  1  0
  3 30  1  0
  4 31  1  1
  7 32  1  0
  8 33  1  0
  9 34  1  0
 13 35  1  0
 13 36  1  0
 13 37  1  0
 14 38  1  0
 14 39  1  0
 16 40  1  0
 17 41  1  0
 22 42  1  0
 23 43  1  0
 24 44  1  0
 25 45  1  0
 26 46  1  0
M  ISO  8  27   8  28  13  29  13  30  13  31  13  32  14  33  14  34  14
M  ISO  8  35   8  36   8  37   8  38   8  39   8  40  14  41  14  42  14
M  ISO  4  43  14  44  14  45  14  46  14
M  END
>  <minimizedAffinity>  (1) 
-6.16510582

>  <minimizedRMSD>  (1) 
1.2628777

$$$$
