
     RDKit          3D

 49 52  0  0  1  0  0  0  0  0999 V2000
   48.4080   30.7040   47.8920 C   0  0  2  0  0  0  0  0  0  0  0  0
   47.0790   32.1040   46.2690 C   0  0  2  0  0  0  0  0  0  0  0  0
   46.7340   30.6870   45.8640 C   0  0  0  0  0  0  0  0  0  0  0  0
   47.1260   30.9630   47.2510 C   0  0  1  0  0  0  0  0  0  0  0  0
   45.9230   33.0730   46.4420 C   0  0  0  0  0  0  0  0  0  0  0  0
   45.2540   32.9210   47.5260 O   0  0  0  0  0  0  0  0  0  0  0  0
   44.4730   35.9130   44.7050 C   0  0  0  0  0  0  0  0  0  0  0  0
   45.0930   35.8810   43.4410 C   0  0  0  0  0  0  0  0  0  0  0  0
   46.0220   34.8610   43.2320 C   0  0  0  0  0  0  0  0  0  0  0  0
   46.2440   34.0010   44.2450 N   0  0  0  0  0  0  0  0  0  0  0  0
   45.6300   34.0620   45.4450 C   0  0  0  0  0  0  0  0  0  0  0  0
   44.7190   35.0370   45.6970 N   0  0  0  0  0  0  0  0  0  0  0  0
   49.1560   29.5370   47.2870 C   0  0  0  0  0  0  0  0  0  0  0  0
   48.2400   30.4260   49.3610 C   0  0  0  0  0  0  0  0  0  0  0  0
   49.4960   30.4290   50.1310 C   0  0  0  0  0  0  0  0  0  0  0  0
   50.2480   29.3830   50.6190 C   0  0  0  0  0  0  0  0  0  0  0  0
   51.3960   29.5830   51.3130 C   0  0  0  0  0  0  0  0  0  0  0  0
   51.7900   30.8460   51.5160 N   0  0  0  0  0  0  0  0  0  0  0  0
   51.1010   31.9140   51.0660 C   0  0  0  0  0  0  0  0  0  0  0  0
   49.9590   31.6760   50.3770 N   0  0  0  0  0  0  0  0  0  0  0  0
   52.4690   35.8250   51.7470 C   0  0  0  0  0  0  0  0  0  0  0  0
   52.7900   34.7940   52.6080 C   0  0  0  0  0  0  0  0  0  0  0  0
   52.3740   33.4870   52.4440 C   0  0  0  0  0  0  0  0  0  0  0  0
   51.5910   33.2680   51.3270 C   0  0  0  0  0  0  0  0  0  0  0  0
   51.2220   34.2360   50.4150 C   0  0  0  0  0  0  0  0  0  0  0  0
   51.6720   35.5250   50.6370 C   0  0  0  0  0  0  0  0  0  0  0  0
   53.0330   37.4610   52.0190 S   0  0  0  0  0  0  0  0  0  0  0  0
   53.3190   37.6580   53.4580 O   0  0  0  0  0  0  0  0  0  0  0  0
   52.0300   38.4830   51.5760 O   0  0  0  0  0  0  0  0  0  0  0  0
   48.9938   31.6211   47.7314 H   0  0  0  0  0  0  0  0  0  0  0  0
   47.7769   32.8729   45.9060 H   0  0  0  0  0  0  0  0  0  0  0  0
   45.6922   30.4217   45.6313 H   0  0  0  0  0  0  0  0  0  0  0  0
   47.0868   29.9978   45.0826 H   0  0  0  0  0  0  0  0  0  0  0  0
   46.6530   30.6446   48.1917 H   0  0  0  0  0  0  0  0  0  0  0  0
   43.7372   36.7084   44.8947 H   0  0  0  0  0  0  0  0  0  0  0  0
   44.8577   36.6199   42.6608 H   0  0  0  0  0  0  0  0  0  0  0  0
   46.5541   34.7626   42.2743 H   0  0  0  0  0  0  0  0  0  0  0  0
   49.5612   28.9048   48.0908 H   0  0  0  0  0  0  0  0  0  0  0  0
   48.4693   28.9440   46.6651 H   0  0  0  0  0  0  0  0  0  0  0  0
   49.9816   29.9134   46.6651 H   0  0  0  0  0  0  0  0  0  0  0  0
   47.5767   31.1956   49.7826 H   0  0  0  0  0  0  0  0  0  0  0  0
   47.8260   29.4101   49.4417 H   0  0  0  0  0  0  0  0  0  0  0  0
   49.9065   28.3528   50.4401 H   0  0  0  0  0  0  0  0  0  0  0  0
   51.9836   28.7357   51.6962 H   0  0  0  0  0  0  0  0  0  0  0  0
   53.4173   35.0287   53.4806 H   0  0  0  0  0  0  0  0  0  0  0  0
   52.6445   32.6849   53.1465 H   0  0  0  0  0  0  0  0  0  0  0  0
   50.5943   33.9919   49.5453 H   0  0  0  0  0  0  0  0  0  0  0  0
   51.3998   36.3242   49.9319 H   0  0  0  0  0  0  0  0  0  0  0  0
   54.1711   37.6308   51.2755 H   0  0  0  0  0  0  0  0  0  0  0  0
  1 14  1  0
  2  5  1  0
  2  4  1  0
  3  2  1  0
  3  4  1  0
  4  1  1  0
  5  6  2  0
  7 12  2  0
  8  7  1  0
  9  8  2  0
  9 10  1  0
 10 11  2  0
 11 12  1  0
 11  5  1  0
 13  1  1  0
 14 15  1  0
 15 20  1  0
 15 16  2  0
 16 17  1  0
 17 18  2  0
 19 24  1  0
 19 18  1  0
 20 19  2  0
 21 27  1  0
 21 22  2  0
 23 22  1  0
 24 23  2  0
 25 26  2  0
 25 24  1  0
 26 21  1  0
 27 28  2  0
 29 27  2  0
  1 30  1  1
  2 31  1  6
  3 32  1  0
  3 33  1  0
  4 34  1  1
  7 35  1  0
  8 36  1  0
  9 37  1  0
 13 38  1  0
 13 39  1  0
 13 40  1  0
 14 41  1  0
 14 42  1  0
 16 43  1  0
 17 44  1  0
 22 45  1  0
 23 46  1  0
 25 47  1  0
 26 48  1  0
 27 49  1  0
M  ISO  8  30   8  31  13  32  13  33  13  34  13  35  14  36  14  37  14
M  ISO  8  38   8  39   8  40   8  41   8  42   8  43  14  44  14  45  14
M  ISO  4  46  14  47  14  48  14  49  11
M  END
>  <minimizedAffinity>  (1) 
-6.22012472

>  <minimizedRMSD>  (1) 
1.61592185

$$$$
