
     RDKit          3D

 48 51  0  0  1  0  0  0  0  0999 V2000
   48.3190   30.8020   47.8960 C   0  0  2  0  0  0  0  0  0  0  0  0
   46.9830   32.1360   46.2280 C   0  0  2  0  0  0  0  0  0  0  0  0
   46.5720   30.7130   45.9240 C   0  0  0  0  0  0  0  0  0  0  0  0
   47.0250   31.0540   47.2780 C   0  0  1  0  0  0  0  0  0  0  0  0
   45.8600   33.1510   46.3800 C   0  0  0  0  0  0  0  0  0  0  0  0
   45.1820   33.0520   47.4660 O   0  0  0  0  0  0  0  0  0  0  0  0
   44.5010   35.9790   44.5650 C   0  0  0  0  0  0  0  0  0  0  0  0
   45.1440   35.9170   43.3130 C   0  0  0  0  0  0  0  0  0  0  0  0
   46.0550   34.8780   43.1400 C   0  0  0  0  0  0  0  0  0  0  0  0
   46.2410   34.0320   44.1750 N   0  0  0  0  0  0  0  0  0  0  0  0
   45.6030   34.1280   45.3600 C   0  0  0  0  0  0  0  0  0  0  0  0
   44.7070   35.1230   45.5730 N   0  0  0  0  0  0  0  0  0  0  0  0
   49.0210   29.5820   47.3190 C   0  0  0  0  0  0  0  0  0  0  0  0
   48.1870   30.6010   49.3830 C   0  0  0  0  0  0  0  0  0  0  0  0
   49.4620   30.5030   50.1050 C   0  0  0  0  0  0  0  0  0  0  0  0
   50.1270   29.4010   50.6000 C   0  0  0  0  0  0  0  0  0  0  0  0
   51.3170   29.5120   51.2420 C   0  0  0  0  0  0  0  0  0  0  0  0
   51.8460   30.7360   51.3880 N   0  0  0  0  0  0  0  0  0  0  0  0
   51.2370   31.8480   50.9250 C   0  0  0  0  0  0  0  0  0  0  0  0
   50.0550   31.7060   50.2900 N   0  0  0  0  0  0  0  0  0  0  0  0
   51.8370   33.1340   51.1040 N   0  0  0  0  0  0  0  0  0  0  0  0
   52.9360   33.3950   52.0400 C   0  0  0  0  0  0  0  0  0  0  0  0
   52.6450   34.8290   52.4300 C   0  0  0  0  0  0  0  0  0  0  0  0
   52.2490   35.4270   51.0860 C   0  0  0  0  0  0  0  0  0  0  0  0
   51.4590   34.3290   50.4110 C   0  0  0  0  0  0  0  0  0  0  0  0
   48.9228   31.6960   47.6809 H   0  0  0  0  0  0  0  0  0  0  0  0
   47.6952   32.8548   45.7966 H   0  0  0  0  0  0  0  0  0  0  0  0
   45.5132   30.4752   45.7443 H   0  0  0  0  0  0  0  0  0  0  0  0
   46.8704   29.9655   45.1742 H   0  0  0  0  0  0  0  0  0  0  0  0
   46.5757   30.8002   48.2494 H   0  0  0  0  0  0  0  0  0  0  0  0
   43.7763   36.7907   44.7259 H   0  0  0  0  0  0  0  0  0  0  0  0
   44.9381   36.6479   42.5171 H   0  0  0  0  0  0  0  0  0  0  0  0
   46.6028   34.7515   42.1946 H   0  0  0  0  0  0  0  0  0  0  0  0
   49.3864   28.9470   48.1395 H   0  0  0  0  0  0  0  0  0  0  0  0
   48.3136   29.0105   46.7001 H   0  0  0  0  0  0  0  0  0  0  0  0
   49.8706   29.9064   46.7001 H   0  0  0  0  0  0  0  0  0  0  0  0
   47.6245   31.4518   49.7951 H   0  0  0  0  0  0  0  0  0  0  0  0
   47.6767   29.6365   49.5218 H   0  0  0  0  0  0  0  0  0  0  0  0
   49.6802   28.4042   50.4707 H   0  0  0  0  0  0  0  0  0  0  0  0
   51.8338   28.6228   51.6321 H   0  0  0  0  0  0  0  0  0  0  0  0
   52.8947   32.7229   52.9098 H   0  0  0  0  0  0  0  0  0  0  0  0
   53.9394   33.2330   51.6195 H   0  0  0  0  0  0  0  0  0  0  0  0
   51.8214   34.8899   53.1566 H   0  0  0  0  0  0  0  0  0  0  0  0
   53.4842   35.3420   52.9225 H   0  0  0  0  0  0  0  0  0  0  0  0
   51.6288   36.3247   51.2258 H   0  0  0  0  0  0  0  0  0  0  0  0
   53.1192   35.7458   50.4934 H   0  0  0  0  0  0  0  0  0  0  0  0
   50.3786   34.5104   50.5105 H   0  0  0  0  0  0  0  0  0  0  0  0
   51.6657   34.2689   49.3323 H   0  0  0  0  0  0  0  0  0  0  0  0
  1 14  1  0
  2  5  1  0
  2  4  1  0
  3  2  1  0
  3  4  1  0
  4  1  1  0
  5  6  2  0
  7 12  2  0
  8  7  1  0
  9  8  2  0
  9 10  1  0
 10 11  2  0
 11 12  1  0
 11  5  1  0
 13  1  1  0
 14 15  1  0
 15 20  1  0
 15 16  2  0
 16 17  1  0
 17 18  2  0
 19 21  1  0
 19 18  1  0
 20 19  2  0
 21 22  1  0
 22 23  1  0
 24 23  1  0
 25 24  1  0
 25 21  1  0
  1 26  1  1
  2 27  1  6
  3 28  1  0
  3 29  1  0
  4 30  1  1
  7 31  1  0
  8 32  1  0
  9 33  1  0
 13 34  1  0
 13 35  1  0
 13 36  1  0
 14 37  1  0
 14 38  1  0
 16 39  1  0
 17 40  1  0
 22 41  1  0
 22 42  1  0
 23 43  1  0
 23 44  1  0
 24 45  1  0
 24 46  1  0
 25 47  1  0
 25 48  1  0
M  ISO  8  26   8  27  13  28  13  29  13  30  13  31  14  32  14  33  14
M  ISO  8  34   8  35   8  36   8  37   8  38   8  39  14  40  14  41  13
M  ISO  7  42  13  43  13  44  13  45  13  46  13  47  13  48  13
M  END
>  <minimizedAffinity>  (1) 
-6.06514931

>  <minimizedRMSD>  (1) 
0.992863238

$$$$
