
     RDKit          3D

 43 46  0  0  1  0  0  0  0  0999 V2000
   48.3060   30.7330   47.8340 C   0  0  2  0  0  0  0  0  0  0  0  0
   46.9820   32.1120   46.1930 C   0  0  2  0  0  0  0  0  0  0  0  0
   46.5570   30.6960   45.8680 C   0  0  0  0  0  0  0  0  0  0  0  0
   47.0130   31.0120   47.2270 C   0  0  1  0  0  0  0  0  0  0  0  0
   45.8700   33.1360   46.3670 C   0  0  0  0  0  0  0  0  0  0  0  0
   45.2090   33.0390   47.4620 O   0  0  0  0  0  0  0  0  0  0  0  0
   44.5030   35.9780   44.5690 C   0  0  0  0  0  0  0  0  0  0  0  0
   45.1400   35.9270   43.3210 C   0  0  0  0  0  0  0  0  0  0  0  0
   46.0550   34.8850   43.1380 C   0  0  0  0  0  0  0  0  0  0  0  0
   46.2420   34.0330   44.1650 N   0  0  0  0  0  0  0  0  0  0  0  0
   45.6090   34.1170   45.3510 C   0  0  0  0  0  0  0  0  0  0  0  0
   44.7120   35.1090   45.5760 N   0  0  0  0  0  0  0  0  0  0  0  0
   49.0250   29.5640   47.1940 C   0  0  0  0  0  0  0  0  0  0  0  0
   48.1680   30.4330   49.3030 C   0  0  0  0  0  0  0  0  0  0  0  0
   49.4240   30.4590   50.0600 C   0  0  0  0  0  0  0  0  0  0  0  0
   50.1790   29.4370   50.5780 C   0  0  0  0  0  0  0  0  0  0  0  0
   51.3340   29.6500   51.2530 C   0  0  0  0  0  0  0  0  0  0  0  0
   51.7390   30.9170   51.4130 N   0  0  0  0  0  0  0  0  0  0  0  0
   51.0360   31.9590   50.9240 C   0  0  0  0  0  0  0  0  0  0  0  0
   49.8970   31.7230   50.2600 N   0  0  0  0  0  0  0  0  0  0  0  0
   51.5620   33.2760   51.1530 C   0  0  0  0  0  0  0  0  0  0  0  0
   51.4270   34.4200   50.4750 C   0  0  0  0  0  0  0  0  0  0  0  0
   52.0260   35.5790   50.8770 C   0  0  0  0  0  0  0  0  0  0  0  0
   52.8110   35.4310   52.1010 C   0  0  0  0  0  0  0  0  0  0  0  0
   52.6070   33.6510   52.5410 S   0  0  0  0  0  0  0  0  0  0  0  0
   48.8980   31.6463   47.6747 H   0  0  0  0  0  0  0  0  0  0  0  0
   47.6999   32.8299   45.7696 H   0  0  0  0  0  0  0  0  0  0  0  0
   45.4960   30.4710   45.6848 H   0  0  0  0  0  0  0  0  0  0  0  0
   46.8485   29.9569   45.1072 H   0  0  0  0  0  0  0  0  0  0  0  0
   46.5609   30.7512   48.1953 H   0  0  0  0  0  0  0  0  0  0  0  0
   43.7785   36.7883   44.7380 H   0  0  0  0  0  0  0  0  0  0  0  0
   44.9321   36.6640   42.5313 H   0  0  0  0  0  0  0  0  0  0  0  0
   46.6016   34.7655   42.1909 H   0  0  0  0  0  0  0  0  0  0  0  0
   49.4287   28.9076   47.9790 H   0  0  0  0  0  0  0  0  0  0  0  0
   48.3193   28.9971   46.5691 H   0  0  0  0  0  0  0  0  0  0  0  0
   49.8493   29.9381   46.5691 H   0  0  0  0  0  0  0  0  0  0  0  0
   47.4893   31.1792   49.7417 H   0  0  0  0  0  0  0  0  0  0  0  0
   47.7874   29.4033   49.3728 H   0  0  0  0  0  0  0  0  0  0  0  0
   49.8321   28.4024   50.4395 H   0  0  0  0  0  0  0  0  0  0  0  0
   51.9198   28.8108   51.6563 H   0  0  0  0  0  0  0  0  0  0  0  0
   50.8127   34.4278   49.5626 H   0  0  0  0  0  0  0  0  0  0  0  0
   51.9276   36.5303   50.3335 H   0  0  0  0  0  0  0  0  0  0  0  0
   53.3881   36.2005   52.6347 H   0  0  0  0  0  0  0  0  0  0  0  0
  1 14  1  0
  2  5  1  0
  2  4  1  0
  3  2  1  0
  3  4  1  0
  4  1  1  0
  5  6  2  0
  7 12  2  0
  8  7  1  0
  9  8  2  0
  9 10  1  0
 10 11  2  0
 11 12  1  0
 11  5  1  0
 13  1  1  0
 14 15  1  0
 15 20  1  0
 15 16  2  0
 16 17  1  0
 17 18  2  0
 19 21  1  0
 19 18  1  0
 20 19  2  0
 21 25  1  0
 22 23  1  0
 22 21  2  0
 23 24  2  0
 24 25  1  0
  1 26  1  1
  2 27  1  6
  3 28  1  0
  3 29  1  0
  4 30  1  1
  7 31  1  0
  8 32  1  0
  9 33  1  0
 13 34  1  0
 13 35  1  0
 13 36  1  0
 14 37  1  0
 14 38  1  0
 16 39  1  0
 17 40  1  0
 22 41  1  0
 23 42  1  0
 24 43  1  0
M  ISO  8  26   8  27  13  28  13  29  13  30  13  31  14  32  14  33  14
M  ISO  8  34   8  35   8  36   8  37   8  38   8  39  14  40  14  41  14
M  ISO  2  42  14  43  14
M  END
>  <minimizedAffinity>  (1) 
-5.86413288

>  <minimizedRMSD>  (1) 
0.970246136

$$$$
