
     RDKit          3D

 19 19  0  0  0  0  0  0  0  0999 V2000
   44.6250   36.1160   44.4500 C   0  0  0  0  0  0  0  0  0  0  0  0
   45.2080   36.0190   43.1850 C   0  0  0  0  0  0  0  0  0  0  0  0
   45.9560   34.8880   42.8800 C   0  0  0  0  0  0  0  0  0  0  0  0
   46.0880   33.9180   43.8340 N   0  0  0  0  0  0  0  0  0  0  0  0
   45.5070   34.0500   45.0520 C   0  0  0  0  0  0  0  0  0  0  0  0
   44.7900   35.1290   45.3510 N   0  0  0  0  0  0  0  0  0  0  0  0
   45.6650   33.0150   46.0290 N   0  0  0  0  0  0  0  0  0  0  0  0
   45.3510   33.2350   47.4080 C   0  0  0  0  0  0  0  0  0  0  0  0
   44.3530   34.0340   47.6480 N   0  0  0  0  0  0  0  0  0  0  0  0
   46.1540   32.5640   48.3990 N   0  0  0  0  0  0  0  0  0  0  0  0
   44.0900   34.2230   48.6530 H   0  0  0  0  0  0  0  0  0  0  0  0
   46.5690   34.7430   41.6050 N   0  0  0  0  0  0  0  0  0  0  0  0
   44.0284   37.0024   44.7116 H   0  0  0  0  0  0  0  0  0  0  0  0
   45.0779   36.8219   42.4444 H   0  0  0  0  0  0  0  0  0  0  0  0
   46.0123   32.0917   45.7328 H   0  0  0  0  0  0  0  0  0  0  0  0
   45.9557   32.6998   49.4006 H   0  0  0  0  0  0  0  0  0  0  0  0
   46.9262   31.9487   48.1057 H   0  0  0  0  0  0  0  0  0  0  0  0
   47.1208   33.8998   41.3917 H   0  0  0  0  0  0  0  0  0  0  0  0
   46.4612   35.4812   40.8948 H   0  0  0  0  0  0  0  0  0  0  0  0
  1  6  2  0
  2  1  1  0
  3  2  2  0
  3  4  1  0
  4  5  2  0
  5  6  1  0
  5  7  1  0
  7  8  1  0
  8  9  2  0
  8 10  1  0
  9 11  1  0
 12  3  1  0
  1 13  1  0
  2 14  1  0
  7 15  1  0
 10 16  1  0
 10 17  1  0
 12 18  1  0
 12 19  1  0
M  ISO  2  13  14  14  14
M  END
>  <minimizedAffinity>  (1) 
-5.07380247

>  <minimizedRMSD>  (1) 
0.255582273

$$$$
