
     RDKit          3D

 25 27  0  0  0  0  0  0  0  0999 V2000
   47.4900   34.2240   39.9220 C   0  0  0  0  0  0  0  0  0  0  0  0
   48.6480   33.4960   39.6430 C   0  0  0  0  0  0  0  0  0  0  0  0
   49.2270   32.7340   40.6550 C   0  0  0  0  0  0  0  0  0  0  0  0
   48.6280   32.7300   41.8960 N   0  0  0  0  0  0  0  0  0  0  0  0
   47.5130   33.4420   42.1310 C   0  0  0  0  0  0  0  0  0  0  0  0
   46.9470   34.1820   41.1560 N   0  0  0  0  0  0  0  0  0  0  0  0
   46.9670   33.3750   43.4420 N   0  0  0  0  0  0  0  0  0  0  0  0
   47.3240   32.3810   44.2750 C   0  0  0  0  0  0  0  0  0  0  0  0
   46.6910   32.4970   45.4810 N   0  0  0  0  0  0  0  0  0  0  0  0
   45.9210   33.6010   45.3770 C   0  0  0  0  0  0  0  0  0  0  0  0
   45.0390   34.2740   46.2230 C   0  0  0  0  0  0  0  0  0  0  0  0
   44.4110   35.3880   45.7900 N   0  0  0  0  0  0  0  0  0  0  0  0
   44.6230   35.8630   44.5480 C   0  0  0  0  0  0  0  0  0  0  0  0
   45.4710   35.2380   43.7030 N   0  0  0  0  0  0  0  0  0  0  0  0
   46.0950   34.1420   44.1120 C   0  0  0  0  0  0  0  0  0  0  0  0
   50.4060   31.9810   40.4080 N   0  0  0  0  0  0  0  0  0  0  0  0
   44.8910   33.6810   47.5120 N   0  0  0  0  0  0  0  0  0  0  0  0
   47.0201   34.8322   39.1351 H   0  0  0  0  0  0  0  0  0  0  0  0
   49.0965   33.5237   38.6390 H   0  0  0  0  0  0  0  0  0  0  0  0
   48.0327   31.5796   44.0192 H   0  0  0  0  0  0  0  0  0  0  0  0
   44.0987   36.7718   44.2174 H   0  0  0  0  0  0  0  0  0  0  0  0
   50.8267   31.4206   41.1628 H   0  0  0  0  0  0  0  0  0  0  0  0
   50.8401   31.9955   39.4741 H   0  0  0  0  0  0  0  0  0  0  0  0
   44.2604   34.1075   48.2058 H   0  0  0  0  0  0  0  0  0  0  0  0
   45.4148   32.8263   47.7489 H   0  0  0  0  0  0  0  0  0  0  0  0
  1  6  2  0
  2  1  1  0
  2  3  2  0
  3  4  1  0
  4  5  2  0
  5  7  1  0
  6  5  1  0
  7 15  1  0
  7  8  1  0
  8  9  2  0
 10  9  1  0
 10 11  2  0
 11 17  1  0
 12 11  1  0
 13 12  2  0
 14 15  2  0
 14 13  1  0
 15 10  1  0
 16  3  1  0
  1 18  1  0
  2 19  1  0
  8 20  1  0
 13 21  1  0
 16 22  1  0
 16 23  1  0
 17 24  1  0
 17 25  1  0
M  ISO  4  18  14  19  14  20  14  21  14
M  END
>  <minimizedAffinity>  (1) 
-5.60321712

>  <minimizedRMSD>  (1) 
4.34737635

$$$$
