
     RDKit          3D

 20 21  0  0  0  0  0  0  0  0999 V2000
   44.4660   35.9310   44.7060 C   0  0  0  0  0  0  0  0  0  0  0  0
   45.1050   35.8970   43.4680 C   0  0  0  0  0  0  0  0  0  0  0  0
   46.0410   34.8820   43.2350 C   0  0  0  0  0  0  0  0  0  0  0  0
   46.2780   33.9750   44.2390 N   0  0  0  0  0  0  0  0  0  0  0  0
   45.6380   34.0460   45.4190 C   0  0  0  0  0  0  0  0  0  0  0  0
   44.7490   35.0100   45.6420 N   0  0  0  0  0  0  0  0  0  0  0  0
   45.9440   33.0450   46.4370 C   0  0  0  0  0  0  0  0  0  0  0  0
   46.9900   32.1660   46.2410 C   0  0  0  0  0  0  0  0  0  0  0  0
   47.2020   31.2520   47.2650 C   0  0  0  0  0  0  0  0  0  0  0  0
   46.4680   31.1850   48.3920 N   0  0  0  0  0  0  0  0  0  0  0  0
   45.4600   32.0660   48.5320 C   0  0  0  0  0  0  0  0  0  0  0  0
   45.2020   32.9880   47.5620 N   0  0  0  0  0  0  0  0  0  0  0  0
   46.7230   34.8010   41.9870 N   0  0  0  0  0  0  0  0  0  0  0  0
   43.7257   36.7165   44.9179 H   0  0  0  0  0  0  0  0  0  0  0  0
   44.8803   36.6468   42.6952 H   0  0  0  0  0  0  0  0  0  0  0  0
   47.6135   32.1879   45.3350 H   0  0  0  0  0  0  0  0  0  0  0  0
   48.0263   30.5332   47.1473 H   0  0  0  0  0  0  0  0  0  0  0  0
   44.8379   32.0416   49.4389 H   0  0  0  0  0  0  0  0  0  0  0  0
   47.4101   34.0514   41.8233 H   0  0  0  0  0  0  0  0  0  0  0  0
   46.5290   35.4921   41.2483 H   0  0  0  0  0  0  0  0  0  0  0  0
  1  6  2  0
  2  1  1  0
  3  2  2  0
  3  4  1  0
  4  5  2  0
  5  6  1  0
  5  7  1  0
  7 12  1  0
  8  7  2  0
  8  9  1  0
  9 10  2  0
 10 11  1  0
 12 11  2  0
 13  3  1  0
  1 14  1  0
  2 15  1  0
  8 16  1  0
  9 17  1  0
 11 18  1  0
 13 19  1  0
 13 20  1  0
M  ISO  5  14  14  15  14  16  14  17  14  18  14
M  END
>  <minimizedAffinity>  (1) 
-4.58882618

>  <minimizedRMSD>  (1) 
0.340337038

$$$$
