
     RDKit          3D

 27 28  0  0  0  0  0  0  0  0999 V2000
   44.4720   35.9010   44.9150 C   0  0  0  0  0  0  0  0  0  0  0  0
   45.0400   35.9170   43.6260 C   0  0  0  0  0  0  0  0  0  0  0  0
   45.9330   34.8820   43.3070 C   0  0  0  0  0  0  0  0  0  0  0  0
   46.2100   33.9160   44.2430 N   0  0  0  0  0  0  0  0  0  0  0  0
   45.6290   33.9580   45.4650 C   0  0  0  0  0  0  0  0  0  0  0  0
   44.7700   34.9380   45.8000 N   0  0  0  0  0  0  0  0  0  0  0  0
   45.9380   32.9420   46.4120 N   0  0  0  0  0  0  0  0  0  0  0  0
   47.0930   32.1100   46.1510 C   0  0  0  0  0  0  0  0  0  0  0  0
   47.3600   31.1260   47.2440 C   0  0  0  0  0  0  0  0  0  0  0  0
   47.1570   31.6750   48.6160 C   0  0  0  0  0  0  0  0  0  0  0  0
   45.8740   32.4080   48.8230 C   0  0  0  0  0  0  0  0  0  0  0  0
   45.1310   32.7510   47.5830 C   0  0  0  0  0  0  0  0  0  0  0  0
   46.5350   34.8560   42.0100 N   0  0  0  0  0  0  0  0  0  0  0  0
   43.7682   36.6961   45.2023 H   0  0  0  0  0  0  0  0  0  0  0  0
   44.7943   36.7066   42.9006 H   0  0  0  0  0  0  0  0  0  0  0  0
   46.9233   31.5575   45.2151 H   0  0  0  0  0  0  0  0  0  0  0  0
   47.9684   32.7726   46.0823 H   0  0  0  0  0  0  0  0  0  0  0  0
   46.6838   30.2687   47.1107 H   0  0  0  0  0  0  0  0  0  0  0  0
   48.4205   30.8442   47.1671 H   0  0  0  0  0  0  0  0  0  0  0  0
   47.1880   30.8358   49.3265 H   0  0  0  0  0  0  0  0  0  0  0  0
   47.9585   32.4121   48.7718 H   0  0  0  0  0  0  0  0  0  0  0  0
   45.2212   31.7806   49.4476 H   0  0  0  0  0  0  0  0  0  0  0  0
   46.1435   33.3664   49.2908 H   0  0  0  0  0  0  0  0  0  0  0  0
   44.5756   33.6824   47.7674 H   0  0  0  0  0  0  0  0  0  0  0  0
   44.4868   31.8857   47.3679 H   0  0  0  0  0  0  0  0  0  0  0  0
   47.1921   34.1025   41.7622 H   0  0  0  0  0  0  0  0  0  0  0  0
   46.3115   35.5908   41.3237 H   0  0  0  0  0  0  0  0  0  0  0  0
  1  6  2  0
  2  1  1  0
  3  2  2  0
  3  4  1  0
  4  5  2  0
  5  6  1  0
  5  7  1  0
  7 12  1  0
  8  7  1  0
  8  9  1  0
  9 10  1  0
 10 11  1  0
 12 11  1  0
 13  3  1  0
  1 14  1  0
  2 15  1  0
  8 16  1  0
  8 17  1  0
  9 18  1  0
  9 19  1  0
 10 20  1  0
 10 21  1  0
 11 22  1  0
 11 23  1  0
 12 24  1  0
 12 25  1  0
 13 26  1  0
 13 27  1  0
M  ISO  8  14  14  15  14  16  13  17  13  18  13  19  13  20  13  21  13
M  ISO  4  22  13  23  13  24  13  25  13
M  END
>  <minimizedAffinity>  (1) 
-4.92747021

>  <minimizedRMSD>  (1) 
0.328799993

$$$$
