
     RDKit          3D

 44 47  0  0  0  0  0  0  0  0999 V2000
   46.1170   31.9990   43.6920 C   0  0  0  0  0  0  0  0  0  0  0  0
   45.5910   33.2630   44.0880 N   0  0  0  0  0  0  0  0  0  0  0  0
   45.0620   34.2640   43.3990 N   0  0  0  0  0  0  0  0  0  0  0  0
   44.6910   35.2810   44.1700 C   0  0  0  0  0  0  0  0  0  0  0  0
   45.0100   34.8950   45.4430 C   0  0  0  0  0  0  0  0  0  0  0  0
   45.5810   33.6110   45.3820 C   0  0  0  0  0  0  0  0  0  0  0  0
   45.9800   33.0580   46.6820 C   0  0  0  0  0  0  0  0  0  0  0  0
   45.2040   32.5870   47.7090 C   0  0  0  0  0  0  0  0  0  0  0  0
   45.9540   32.1860   48.7330 N   0  0  0  0  0  0  0  0  0  0  0  0
   47.2390   32.3770   48.4170 C   0  0  0  0  0  0  0  0  0  0  0  0
   47.2080   32.8940   47.1970 N   0  0  0  0  0  0  0  0  0  0  0  0
   47.6290   31.8700   43.8620 C   0  0  0  0  0  0  0  0  0  0  0  0
   48.3310   32.0260   42.5890 C   0  0  0  0  0  0  0  0  0  0  0  0
   49.7000   31.8510   42.6550 C   0  0  0  0  0  0  0  0  0  0  0  0
   50.5190   31.9640   41.5390 C   0  0  0  0  0  0  0  0  0  0  0  0
   49.8870   32.2580   40.3830 N   0  0  0  0  0  0  0  0  0  0  0  0
   48.5200   32.4330   40.3170 C   0  0  0  0  0  0  0  0  0  0  0  0
   47.8020   32.3100   41.4200 N   0  0  0  0  0  0  0  0  0  0  0  0
   48.1820   32.7480   38.9730 N   0  0  0  0  0  0  0  0  0  0  0  0
   47.7140   33.9690   38.3580 C   0  0  0  0  0  0  0  0  0  0  0  0
   48.5340   34.3870   37.1740 C   0  0  0  0  0  0  0  0  0  0  0  0
   49.7320   33.5970   37.0940 N   0  0  0  0  0  0  0  0  0  0  0  0
   49.3050   32.2240   36.8600 C   0  0  0  0  0  0  0  0  0  0  0  0
   48.2350   31.8220   37.8580 C   0  0  0  0  0  0  0  0  0  0  0  0
   45.8744   31.8414   42.6307 H   0  0  0  0  0  0  0  0  0  0  0  0
   45.6592   31.2456   44.3499 H   0  0  0  0  0  0  0  0  0  0  0  0
   44.2281   36.2273   43.8534 H   0  0  0  0  0  0  0  0  0  0  0  0
   44.8480   35.4864   46.3563 H   0  0  0  0  0  0  0  0  0  0  0  0
   44.1049   32.5458   47.6895 H   0  0  0  0  0  0  0  0  0  0  0  0
   48.1237   32.1548   49.0318 H   0  0  0  0  0  0  0  0  0  0  0  0
   48.0627   33.1507   46.6827 H   0  0  0  0  0  0  0  0  0  0  0  0
   47.9771   32.6468   44.5587 H   0  0  0  0  0  0  0  0  0  0  0  0
   47.8459   30.8648   44.2525 H   0  0  0  0  0  0  0  0  0  0  0  0
   50.1578   31.6136   43.6266 H   0  0  0  0  0  0  0  0  0  0  0  0
   51.6086   31.8235   41.5934 H   0  0  0  0  0  0  0  0  0  0  0  0
   46.6755   33.8184   38.0282 H   0  0  0  0  0  0  0  0  0  0  0  0
   47.7973   34.7666   39.1109 H   0  0  0  0  0  0  0  0  0  0  0  0
   47.9444   34.2462   36.2561 H   0  0  0  0  0  0  0  0  0  0  0  0
   48.8100   35.4460   37.2854 H   0  0  0  0  0  0  0  0  0  0  0  0
   50.3228   33.9237   36.3161 H   0  0  0  0  0  0  0  0  0  0  0  0
   48.8993   32.1399   35.8410 H   0  0  0  0  0  0  0  0  0  0  0  0
   50.1714   31.5570   36.9799 H   0  0  0  0  0  0  0  0  0  0  0  0
   47.2581   31.8132   37.3524 H   0  0  0  0  0  0  0  0  0  0  0  0
   48.4799   30.8227   38.2470 H   0  0  0  0  0  0  0  0  0  0  0  0
  1 12  1  0
  1  2  1  0
  2  6  1  0
  3  2  1  0
  3  4  2  0
  4  5  1  0
  6  5  2  0
  6  7  1  0
  7 11  1  0
  7  8  2  0
  8  9  1  0
 10  9  2  0
 11 10  1  0
 13 14  2  0
 13 12  1  0
 15 14  1  0
 16 15  2  0
 17 16  1  0
 17 18  2  0
 18 13  1  0
 19 17  1  0
 20 19  1  0
 21 20  1  0
 22 21  1  0
 23 22  1  0
 23 24  1  0
 24 19  1  0
  1 25  1  0
  1 26  1  0
  4 27  1  0
  5 28  1  0
  8 29  1  0
 10 30  1  0
 11 31  1  0
 12 32  1  0
 12 33  1  0
 14 34  1  0
 15 35  1  0
 20 36  1  0
 20 37  1  0
 21 38  1  0
 21 39  1  0
 22 40  1  0
 23 41  1  0
 23 42  1  0
 24 43  1  0
 24 44  1  0
M  ISO  8  25   8  26   8  27  14  28  14  29  14  30  14  31   9  32   8
M  ISO  8  33   8  34  14  35  14  36  13  37  13  38  13  39  13  40   5
M  ISO  4  41  13  42  13  43  13  44  13
M  END
>  <minimizedAffinity>  (1) 
-5.84527111

>  <minimizedRMSD>  (1) 
6.43887329

$$$$
