
     RDKit          3D

 25 26  0  0  0  0  0  0  0  0999 V2000
   44.5990   36.0300   44.5430 C   0  0  0  0  0  0  0  0  0  0  0  0
   45.3390   35.9610   43.3580 C   0  0  0  0  0  0  0  0  0  0  0  0
   46.1830   34.8750   43.1650 C   0  0  0  0  0  0  0  0  0  0  0  0
   46.2480   33.9220   44.1470 N   0  0  0  0  0  0  0  0  0  0  0  0
   45.5310   34.0080   45.2740 C   0  0  0  0  0  0  0  0  0  0  0  0
   44.7080   35.0590   45.4710 N   0  0  0  0  0  0  0  0  0  0  0  0
   45.6310   32.9980   46.2620 N   0  0  0  0  0  0  0  0  0  0  0  0
   45.1310   33.2130   47.6000 C   0  0  0  0  0  0  0  0  0  0  0  0
   46.0060   32.3480   48.5090 C   0  0  0  0  0  0  0  0  0  0  0  0
   47.3060   32.2490   48.0510 O   0  0  0  0  0  0  0  0  0  0  0  0
   47.4320   31.5610   46.8710 C   0  0  0  0  0  0  0  0  0  0  0  0
   46.2420   31.7150   45.9520 C   0  0  0  0  0  0  0  0  0  0  0  0
   46.9570   34.7730   41.9620 N   0  0  0  0  0  0  0  0  0  0  0  0
   43.9247   36.8812   44.7183 H   0  0  0  0  0  0  0  0  0  0  0  0
   45.2543   36.7495   42.5957 H   0  0  0  0  0  0  0  0  0  0  0  0
   45.2198   34.2737   47.8774 H   0  0  0  0  0  0  0  0  0  0  0  0
   44.0671   32.9467   47.6851 H   0  0  0  0  0  0  0  0  0  0  0  0
   46.0189   32.7934   49.5147 H   0  0  0  0  0  0  0  0  0  0  0  0
   45.5772   31.3351   48.5218 H   0  0  0  0  0  0  0  0  0  0  0  0
   48.3262   31.9296   46.3471 H   0  0  0  0  0  0  0  0  0  0  0  0
   47.5073   30.4936   47.1259 H   0  0  0  0  0  0  0  0  0  0  0  0
   45.5222   30.9016   46.1259 H   0  0  0  0  0  0  0  0  0  0  0  0
   46.5512   31.6711   44.8973 H   0  0  0  0  0  0  0  0  0  0  0  0
   47.5829   33.9675   41.8190 H   0  0  0  0  0  0  0  0  0  0  0  0
   46.8870   35.5052   41.2410 H   0  0  0  0  0  0  0  0  0  0  0  0
  1  6  2  0
  2  1  1  0
  3  2  2  0
  3  4  1  0
  4  5  2  0
  5  6  1  0
  5  7  1  0
  7  8  1  0
  8  9  1  0
 10  9  1  0
 11 10  1  0
 12  7  1  0
 12 11  1  0
 13  3  1  0
  1 14  1  0
  2 15  1  0
  8 16  1  0
  8 17  1  0
  9 18  1  0
  9 19  1  0
 11 20  1  0
 11 21  1  0
 12 22  1  0
 12 23  1  0
 13 24  1  0
 13 25  1  0
M  ISO  8  14  14  15  14  16  13  17  13  18  13  19  13  20  13  21  13
M  ISO  2  22  13  23  13
M  END
>  <minimizedAffinity>  (1) 
-4.52638721

>  <minimizedRMSD>  (1) 
0.230629459

$$$$
