
     RDKit          3D

 19 20  0  0  0  0  0  0  0  0999 V2000
   44.4920   35.8620   44.6740 C   0  0  0  0  0  0  0  0  0  0  0  0
   45.1510   35.7880   43.4340 C   0  0  0  0  0  0  0  0  0  0  0  0
   46.1060   34.7750   43.2510 C   0  0  0  0  0  0  0  0  0  0  0  0
   46.3520   33.9100   44.2800 N   0  0  0  0  0  0  0  0  0  0  0  0
   45.6940   34.0190   45.4550 C   0  0  0  0  0  0  0  0  0  0  0  0
   44.7850   34.9700   45.6540 N   0  0  0  0  0  0  0  0  0  0  0  0
   45.9100   33.1470   46.5580 N   0  0  0  0  0  0  0  0  0  0  0  0
   47.0140   32.3810   46.6670 C   0  0  0  0  0  0  0  0  0  0  0  0
   46.9070   31.6610   47.8460 C   0  0  0  0  0  0  0  0  0  0  0  0
   45.7440   31.9990   48.4350 N   0  0  0  0  0  0  0  0  0  0  0  0
   45.1300   32.9170   47.6370 C   0  0  0  0  0  0  0  0  0  0  0  0
   46.7930   34.6680   42.0140 N   0  0  0  0  0  0  0  0  0  0  0  0
   43.7383   36.6436   44.8499 H   0  0  0  0  0  0  0  0  0  0  0  0
   44.9247   36.5037   42.6299 H   0  0  0  0  0  0  0  0  0  0  0  0
   47.8476   32.3358   45.9507 H   0  0  0  0  0  0  0  0  0  0  0  0
   47.6425   30.9402   48.2328 H   0  0  0  0  0  0  0  0  0  0  0  0
   44.1588   33.3927   47.8382 H   0  0  0  0  0  0  0  0  0  0  0  0
   47.4941   33.9260   41.8768 H   0  0  0  0  0  0  0  0  0  0  0  0
   46.5906   35.3323   41.2534 H   0  0  0  0  0  0  0  0  0  0  0  0
  1  6  2  0
  2  1  1  0
  3  2  2  0
  3  4  1  0
  4  5  2  0
  5  6  1  0
  5  7  1  0
  7  8  1  0
  7 11  1  0
  8  9  2  0
  9 10  1  0
 11 10  2  0
 12  3  1  0
  1 13  1  0
  2 14  1  0
  8 15  1  0
  9 16  1  0
 11 17  1  0
 12 18  1  0
 12 19  1  0
M  ISO  5  13  14  14  14  15  14  16  14  17  14
M  END
>  <minimizedAffinity>  (1) 
-4.43365717

>  <minimizedRMSD>  (1) 
0.288497567

$$$$
