
     RDKit          3D

 19 20  0  0  0  0  0  0  0  0999 V2000
   44.5260   35.9060   44.5130 C   0  0  0  0  0  0  0  0  0  0  0  0
   45.2930   35.6180   43.3790 C   0  0  0  0  0  0  0  0  0  0  0  0
   46.1750   34.5260   43.4210 C   0  0  0  0  0  0  0  0  0  0  0  0
   46.2490   33.7880   44.5760 N   0  0  0  0  0  0  0  0  0  0  0  0
   45.4940   34.1000   45.6460 C   0  0  0  0  0  0  0  0  0  0  0  0
   44.6410   35.1480   45.6180 N   0  0  0  0  0  0  0  0  0  0  0  0
   45.6940   33.2150   46.7900 C   0  0  0  0  0  0  0  0  0  0  0  0
   46.9330   32.5730   46.8540 C   0  0  0  0  0  0  0  0  0  0  0  0
   46.9250   31.7810   48.0080 C   0  0  0  0  0  0  0  0  0  0  0  0
   45.6610   32.0050   48.5670 C   0  0  0  0  0  0  0  0  0  0  0  0
   44.9760   32.8450   47.8270 O   0  0  0  0  0  0  0  0  0  0  0  0
   46.9650   34.2100   42.2820 N   0  0  0  0  0  0  0  0  0  0  0  0
   43.8267   36.7550   44.5008 H   0  0  0  0  0  0  0  0  0  0  0  0
   45.2069   36.2348   42.4723 H   0  0  0  0  0  0  0  0  0  0  0  0
   47.7586   32.6713   46.1338 H   0  0  0  0  0  0  0  0  0  0  0  0
   47.7274   31.1318   48.3884 H   0  0  0  0  0  0  0  0  0  0  0  0
   45.2940   31.5424   49.4951 H   0  0  0  0  0  0  0  0  0  0  0  0
   47.6126   33.4096   42.3104 H   0  0  0  0  0  0  0  0  0  0  0  0
   46.8897   34.7815   41.4284 H   0  0  0  0  0  0  0  0  0  0  0  0
  1  6  2  0
  2  3  2  0
  2  1  1  0
  3  4  1  0
  4  5  2  0
  5  7  1  0
  6  5  1  0
  7  8  2  0
  7 11  1  0
  8  9  1  0
  9 10  2  0
 11 10  1  0
 12  3  1  0
  1 13  1  0
  2 14  1  0
  8 15  1  0
  9 16  1  0
 10 17  1  0
 12 18  1  0
 12 19  1  0
M  ISO  5  13  14  14  14  15  14  16  14  17  14
M  END
>  <minimizedAffinity>  (1) 
-4.38825655

>  <minimizedRMSD>  (1) 
0.777170002

$$$$
