
     RDKit          3D

 15 15  0  0  0  0  0  0  0  0999 V2000
   44.5170   35.9980   44.5520 C   0  0  0  0  0  0  0  0  0  0  0  0
   45.2260   35.9110   43.3440 C   0  0  0  0  0  0  0  0  0  0  0  0
   46.1290   34.8700   43.1890 C   0  0  0  0  0  0  0  0  0  0  0  0
   46.2880   33.9680   44.2300 N   0  0  0  0  0  0  0  0  0  0  0  0
   45.5860   34.0970   45.3600 C   0  0  0  0  0  0  0  0  0  0  0  0
   44.7150   35.0930   45.5240 N   0  0  0  0  0  0  0  0  0  0  0  0
   45.8330   33.0870   46.3990 C   0  0  0  0  0  0  0  0  0  0  0  0
   45.6730   31.7920   45.9120 F   0  0  0  0  0  0  0  0  0  0  0  0
   44.9640   33.2160   47.4760 F   0  0  0  0  0  0  0  0  0  0  0  0
   47.1080   33.1320   46.9350 F   0  0  0  0  0  0  0  0  0  0  0  0
   46.8690   34.7380   41.9850 N   0  0  0  0  0  0  0  0  0  0  0  0
   43.7941   36.8131   44.7036 H   0  0  0  0  0  0  0  0  0  0  0  0
   45.0698   36.6480   42.5425 H   0  0  0  0  0  0  0  0  0  0  0  0
   47.5386   33.9632   41.8744 H   0  0  0  0  0  0  0  0  0  0  0  0
   46.7364   35.4170   41.2219 H   0  0  0  0  0  0  0  0  0  0  0  0
  1  6  2  0
  2  1  1  0
  3  2  2  0
  3  4  1  0
  4  5  2  0
  5  6  1  0
  5  7  1  0
  7 10  1  0
  7  9  1  0
  8  7  1  0
 11  3  1  0
  1 12  1  0
  2 13  1  0
 11 14  1  0
 11 15  1  0
M  ISO  2  12  14  13  14
M  END
>  <minimizedAffinity>  (1) 
-4.14106798

>  <minimizedRMSD>  (1) 
0.463352561

$$$$
