
     RDKit          3D

 19 20  0  0  0  0  0  0  0  0999 V2000
   44.5580   35.8440   44.6940 C   0  0  0  0  0  0  0  0  0  0  0  0
   45.3000   35.6180   43.5200 C   0  0  0  0  0  0  0  0  0  0  0  0
   46.1560   34.5220   43.4790 C   0  0  0  0  0  0  0  0  0  0  0  0
   46.2300   33.7210   44.5860 N   0  0  0  0  0  0  0  0  0  0  0  0
   45.5070   33.9560   45.7020 C   0  0  0  0  0  0  0  0  0  0  0  0
   44.6840   35.0140   45.7360 N   0  0  0  0  0  0  0  0  0  0  0  0
   45.7400   32.9950   46.7330 C   0  0  0  0  0  0  0  0  0  0  0  0
   45.1520   32.7820   47.9230 C   0  0  0  0  0  0  0  0  0  0  0  0
   45.5940   31.7590   48.7260 C   0  0  0  0  0  0  0  0  0  0  0  0
   46.6340   30.9880   48.2670 C   0  0  0  0  0  0  0  0  0  0  0  0
   47.0350   31.7100   46.6230 S   0  0  0  0  0  0  0  0  0  0  0  0
   46.9290   34.2510   42.3150 N   0  0  0  0  0  0  0  0  0  0  0  0
   43.8741   36.7034   44.7552 H   0  0  0  0  0  0  0  0  0  0  0  0
   45.2055   36.2916   42.6555 H   0  0  0  0  0  0  0  0  0  0  0  0
   44.3212   33.4236   48.2519 H   0  0  0  0  0  0  0  0  0  0  0  0
   45.1305   31.5637   49.7042 H   0  0  0  0  0  0  0  0  0  0  0  0
   47.1161   30.1352   48.7672 H   0  0  0  0  0  0  0  0  0  0  0  0
   47.5601   33.4372   42.2938 H   0  0  0  0  0  0  0  0  0  0  0  0
   46.8573   34.8686   41.4939 H   0  0  0  0  0  0  0  0  0  0  0  0
  1  6  2  0
  2  1  1  0
  3  2  2  0
  3  4  1  0
  4  5  2  0
  5  6  1  0
  5  7  1  0
  7  8  2  0
  8  9  1  0
 10  9  2  0
 11  7  1  0
 11 10  1  0
 12  3  1  0
  1 13  1  0
  2 14  1  0
  8 15  1  0
  9 16  1  0
 10 17  1  0
 12 18  1  0
 12 19  1  0
M  ISO  5  13  14  14  14  15  14  16  14  17  14
M  END
>  <minimizedAffinity>  (1) 
-4.3284359

>  <minimizedRMSD>  (1) 
0.631882608

$$$$
