
     RDKit          3D

 36 39  0  0  0  0  0  0  0  0999 V2000
   45.8850   32.9200   46.0560 C   0  0  0  0  0  0  0  0  0  0  0  0
   45.5340   33.1200   47.3780 C   0  0  0  0  0  0  0  0  0  0  0  0
   45.7020   32.1170   48.3160 C   0  0  0  0  0  0  0  0  0  0  0  0
   46.2230   30.8920   47.9590 C   0  0  0  0  0  0  0  0  0  0  0  0
   46.5490   30.7720   46.6170 C   0  0  0  0  0  0  0  0  0  0  0  0
   46.4140   31.7060   45.6470 C   0  0  0  0  0  0  0  0  0  0  0  0
   46.7950   31.4360   44.3020 N   0  0  0  0  0  0  0  0  0  0  0  0
   47.9420   31.5090   43.5740 C   0  0  0  0  0  0  0  0  0  0  0  0
   47.6940   31.1190   42.3250 N   0  0  0  0  0  0  0  0  0  0  0  0
   46.3950   30.7890   42.2200 C   0  0  0  0  0  0  0  0  0  0  0  0
   45.6840   30.3310   41.1230 C   0  0  0  0  0  0  0  0  0  0  0  0
   46.2420   30.1620   40.0010 O   0  0  0  0  0  0  0  0  0  0  0  0
   44.3640   30.0620   41.2690 N   0  0  0  0  0  0  0  0  0  0  0  0
   43.8070   30.2560   42.4820 C   0  0  0  0  0  0  0  0  0  0  0  0
   42.4080   29.9740   42.6450 N   0  0  0  0  0  0  0  0  0  0  0  0
   44.5000   30.6970   43.5340 N   0  0  0  0  0  0  0  0  0  0  0  0
   45.8240   30.9840   43.4570 C   0  0  0  0  0  0  0  0  0  0  0  0
   44.5510   35.8800   44.3780 C   0  0  0  0  0  0  0  0  0  0  0  0
   45.3660   35.9700   43.2480 C   0  0  0  0  0  0  0  0  0  0  0  0
   46.3730   35.0180   43.0610 C   0  0  0  0  0  0  0  0  0  0  0  0
   46.5090   34.0370   44.0020 N   0  0  0  0  0  0  0  0  0  0  0  0
   45.7030   33.9840   45.0800 C   0  0  0  0  0  0  0  0  0  0  0  0
   44.7260   34.9050   45.2660 N   0  0  0  0  0  0  0  0  0  0  0  0
   47.2270   35.0700   41.9220 N   0  0  0  0  0  0  0  0  0  0  0  0
   45.1158   34.0890   47.6881 H   0  0  0  0  0  0  0  0  0  0  0  0
   45.4155   32.2999   49.3622 H   0  0  0  0  0  0  0  0  0  0  0  0
   46.3685   30.0750   48.6811 H   0  0  0  0  0  0  0  0  0  0  0  0
   46.9665   29.8037   46.3037 H   0  0  0  0  0  0  0  0  0  0  0  0
   48.9195   31.8381   43.9565 H   0  0  0  0  0  0  0  0  0  0  0  0
   43.8022   29.7193   40.4766 H   0  0  0  0  0  0  0  0  0  0  0  0
   41.9578   30.1136   43.5608 H   0  0  0  0  0  0  0  0  0  0  0  0
   41.8550   29.6322   41.8461 H   0  0  0  0  0  0  0  0  0  0  0  0
   43.7556   36.6233   44.5358 H   0  0  0  0  0  0  0  0  0  0  0  0
   45.2182   36.7776   42.5159 H   0  0  0  0  0  0  0  0  0  0  0  0
   47.9642   34.3614   41.7983 H   0  0  0  0  0  0  0  0  0  0  0  0
   47.1072   35.8162   41.2221 H   0  0  0  0  0  0  0  0  0  0  0  0
  1  2  2  0
  2  3  1  0
  4  3  2  0
  5  4  1  0
  6  1  1  0
  6  5  2  0
  7  6  1  0
  8  7  1  0
  9  8  2  0
 10  9  1  0
 10 17  2  0
 11 13  1  0
 11 10  1  0
 12 11  2  0
 13 14  1  0
 14 15  1  0
 14 16  2  0
 17 16  1  0
 17  7  1  0
 18 23  2  0
 19 18  1  0
 20 19  2  0
 20 21  1  0
 21 22  2  0
 22 23  1  0
 22  1  1  0
 24 20  1  0
  2 25  1  0
  3 26  1  0
  4 27  1  0
  5 28  1  0
  8 29  1  0
 13 30  1  0
 15 31  1  0
 15 32  1  0
 18 33  1  0
 19 34  1  0
 24 35  1  0
 24 36  1  0
M  ISO  8  25  14  26  14  27  14  28  14  29  14  30   9  33  14  34  14
M  END
>  <minimizedAffinity>  (1) 
-4.96217775

>  <minimizedRMSD>  (1) 
2.04368496

$$$$
