
     RDKit          3D

 30 32  0  0  0  0  0  0  0  0999 V2000
   43.9600   33.8380   39.8720 C   0  0  0  0  0  0  0  0  0  0  0  0
   44.1340   33.2970   38.6090 C   0  0  0  0  0  0  0  0  0  0  0  0
   45.3910   32.9280   38.1710 C   0  0  0  0  0  0  0  0  0  0  0  0
   46.5050   33.0930   38.9850 C   0  0  0  0  0  0  0  0  0  0  0  0
   46.2500   33.6390   40.2320 C   0  0  0  0  0  0  0  0  0  0  0  0
   45.0450   34.0210   40.7240 C   0  0  0  0  0  0  0  0  0  0  0  0
   40.9120   35.8000   40.3880 C   0  0  0  0  0  0  0  0  0  0  0  0
   40.1440   34.9580   41.1920 C   0  0  0  0  0  0  0  0  0  0  0  0
   40.6620   33.7330   41.5530 C   0  0  0  0  0  0  0  0  0  0  0  0
   41.9200   33.3940   41.1020 N   0  0  0  0  0  0  0  0  0  0  0  0
   42.6350   34.2310   40.3260 C   0  0  0  0  0  0  0  0  0  0  0  0
   42.1310   35.4240   39.9750 N   0  0  0  0  0  0  0  0  0  0  0  0
   39.9280   32.8400   42.3640 N   0  0  0  0  0  0  0  0  0  0  0  0
   44.9550   34.5710   42.0710 C   0  0  0  0  0  0  0  0  0  0  0  0
   44.6760   35.8510   42.5020 C   0  0  0  0  0  0  0  0  0  0  0  0
   44.6600   36.1160   43.8570 C   0  0  0  0  0  0  0  0  0  0  0  0
   44.9110   35.1560   44.7630 N   0  0  0  0  0  0  0  0  0  0  0  0
   45.1870   33.8910   44.3380 C   0  0  0  0  0  0  0  0  0  0  0  0
   45.2030   33.6340   43.0380 N   0  0  0  0  0  0  0  0  0  0  0  0
   43.2644   33.1601   37.9495 H   0  0  0  0  0  0  0  0  0  0  0  0
   45.5116   32.4983   37.1656 H   0  0  0  0  0  0  0  0  0  0  0  0
   47.5177   32.8100   38.6619 H   0  0  0  0  0  0  0  0  0  0  0  0
   47.1173   33.7777   40.8942 H   0  0  0  0  0  0  0  0  0  0  0  0
   40.5141   36.7813   40.0900 H   0  0  0  0  0  0  0  0  0  0  0  0
   39.1440   35.2658   41.5315 H   0  0  0  0  0  0  0  0  0  0  0  0
   40.3322   31.9288   42.6232 H   0  0  0  0  0  0  0  0  0  0  0  0
   38.9884   33.0998   42.6964 H   0  0  0  0  0  0  0  0  0  0  0  0
   44.4689   36.6506   41.7756 H   0  0  0  0  0  0  0  0  0  0  0  0
   44.4367   37.1361   44.2026 H   0  0  0  0  0  0  0  0  0  0  0  0
   45.3941   33.0924   45.0656 H   0  0  0  0  0  0  0  0  0  0  0  0
  1 11  1  0
  1  6  1  0
  2  1  2  0
  3  2  1  0
  3  4  2  0
  4  5  1  0
  5  6  2  0
  6 14  1  0
  7  8  2  0
  8  9  1  0
  9 13  1  0
 10  9  2  0
 11 10  1  0
 12 11  2  0
 12  7  1  0
 14 15  2  0
 14 19  1  0
 15 16  1  0
 16 17  2  0
 18 17  1  0
 19 18  2  0
  2 20  1  0
  3 21  1  0
  4 22  1  0
  5 23  1  0
  7 24  1  0
  8 25  1  0
 13 26  1  0
 13 27  1  0
 15 28  1  0
 16 29  1  0
 18 30  1  0
M  ISO  8  20  14  21  14  22  14  23  14  24  14  25  14  28  14  29  14
M  ISO  1  30  14
M  END
>  <minimizedAffinity>  (1) 
-5.27713394

>  <minimizedRMSD>  (1) 
6.81812906

$$$$
