
     RDKit          3D

 28 29  0  0  0  0  0  0  0  0999 V2000
   45.8480   32.9340   46.4140 C   0  0  0  0  0  0  0  0  0  0  0  0
   45.2930   32.9840   47.6700 C   0  0  0  0  0  0  0  0  0  0  0  0
   45.5130   32.0240   48.6230 C   0  0  0  0  0  0  0  0  0  0  0  0
   46.3370   30.9420   48.3150 C   0  0  0  0  0  0  0  0  0  0  0  0
   46.8730   30.9430   47.0260 C   0  0  0  0  0  0  0  0  0  0  0  0
   46.6650   31.8830   46.0730 C   0  0  0  0  0  0  0  0  0  0  0  0
   44.4650   35.9360   44.8580 C   0  0  0  0  0  0  0  0  0  0  0  0
   45.1040   35.9250   43.6060 C   0  0  0  0  0  0  0  0  0  0  0  0
   45.9880   34.9150   43.2980 C   0  0  0  0  0  0  0  0  0  0  0  0
   46.2010   33.9560   44.2480 N   0  0  0  0  0  0  0  0  0  0  0  0
   45.5830   33.9850   45.4340 C   0  0  0  0  0  0  0  0  0  0  0  0
   44.7130   34.9750   45.7420 N   0  0  0  0  0  0  0  0  0  0  0  0
   46.6310   34.9010   42.0420 N   0  0  0  0  0  0  0  0  0  0  0  0
   47.3060   31.7430   44.7420 C   0  0  0  0  0  0  0  0  0  0  0  0
   47.9770   30.3660   44.6280 C   0  0  0  0  0  0  0  0  0  0  0  0
   44.6419   33.8340   47.9223 H   0  0  0  0  0  0  0  0  0  0  0  0
   45.0466   32.1057   49.6159 H   0  0  0  0  0  0  0  0  0  0  0  0
   46.5503   30.1417   49.0389 H   0  0  0  0  0  0  0  0  0  0  0  0
   47.5268   30.0998   46.7586 H   0  0  0  0  0  0  0  0  0  0  0  0
   43.7583   36.7415   45.1066 H   0  0  0  0  0  0  0  0  0  0  0  0
   44.8986   36.7206   42.8747 H   0  0  0  0  0  0  0  0  0  0  0  0
   47.2924   34.1461   41.8104 H   0  0  0  0  0  0  0  0  0  0  0  0
   46.4390   35.6456   41.3568 H   0  0  0  0  0  0  0  0  0  0  0  0
   46.5421   31.8428   43.9568 H   0  0  0  0  0  0  0  0  0  0  0  0
   48.0670   32.5281   44.6218 H   0  0  0  0  0  0  0  0  0  0  0  0
   48.1709   29.9681   45.6350 H   0  0  0  0  0  0  0  0  0  0  0  0
   47.3129   29.6785   44.0837 H   0  0  0  0  0  0  0  0  0  0  0  0
   48.9277   30.4653   44.0837 H   0  0  0  0  0  0  0  0  0  0  0  0
  1  2  2  0
  2  3  1  0
  4  3  2  0
  5  4  1  0
  6  1  1  0
  6  5  2  0
  7 12  2  0
  8  7  1  0
  9  8  2  0
  9 10  1  0
 10 11  2  0
 11 12  1  0
 11  1  1  0
 13  9  1  0
 14  6  1  0
 15 14  1  0
  2 16  1  0
  3 17  1  0
  4 18  1  0
  5 19  1  0
  7 20  1  0
  8 21  1  0
 13 22  1  0
 13 23  1  0
 14 24  1  0
 14 25  1  0
 15 26  1  0
 15 27  1  0
 15 28  1  0
M  ISO  8  16  14  17  14  18  14  19  14  20  14  21  14  24   8  25   8
M  ISO  3  26   8  27   8  28   8
M  END
>  <minimizedAffinity>  (1) 
-4.82731199

>  <minimizedRMSD>  (1) 
0.452166259

$$$$
