
     RDKit          3D

 29 31  0  0  0  0  0  0  0  0999 V2000
   45.8830   32.8300   46.5680 C   0  0  0  0  0  0  0  0  0  0  0  0
   45.3880   32.9710   47.8330 C   0  0  0  0  0  0  0  0  0  0  0  0
   45.6080   32.0110   48.8040 C   0  0  0  0  0  0  0  0  0  0  0  0
   46.3530   30.8690   48.4950 C   0  0  0  0  0  0  0  0  0  0  0  0
   46.8250   30.7840   47.2060 C   0  0  0  0  0  0  0  0  0  0  0  0
   46.6160   31.7150   46.2490 C   0  0  0  0  0  0  0  0  0  0  0  0
   44.5120   35.7700   44.8880 C   0  0  0  0  0  0  0  0  0  0  0  0
   45.1970   35.7560   43.6600 C   0  0  0  0  0  0  0  0  0  0  0  0
   46.1160   34.7450   43.4230 C   0  0  0  0  0  0  0  0  0  0  0  0
   46.3130   33.8060   44.3990 N   0  0  0  0  0  0  0  0  0  0  0  0
   45.6410   33.8520   45.5590 C   0  0  0  0  0  0  0  0  0  0  0  0
   44.7490   34.8290   45.7940 N   0  0  0  0  0  0  0  0  0  0  0  0
   46.8290   34.6900   42.2030 N   0  0  0  0  0  0  0  0  0  0  0  0
   47.2020   31.4500   44.9050 C   0  0  0  0  0  0  0  0  0  0  0  0
   48.1250   30.2580   44.7150 C   0  0  0  0  0  0  0  0  0  0  0  0
   46.7560   30.2050   44.1990 C   0  0  0  0  0  0  0  0  0  0  0  0
   44.8019   33.8671   48.0850 H   0  0  0  0  0  0  0  0  0  0  0  0
   45.1982   32.1455   49.8159 H   0  0  0  0  0  0  0  0  0  0  0  0
   46.5502   30.0839   49.2398 H   0  0  0  0  0  0  0  0  0  0  0  0
   47.4142   29.8955   46.9349 H   0  0  0  0  0  0  0  0  0  0  0  0
   43.7784   36.5622   45.0983 H   0  0  0  0  0  0  0  0  0  0  0  0
   45.0077   36.5312   42.9029 H   0  0  0  0  0  0  0  0  0  0  0  0
   47.5093   33.9345   42.0377 H   0  0  0  0  0  0  0  0  0  0  0  0
   46.6680   35.4054   41.4797 H   0  0  0  0  0  0  0  0  0  0  0  0
   47.2643   32.5241   44.6762 H   0  0  0  0  0  0  0  0  0  0  0  0
   48.9727   30.3255   44.0172 H   0  0  0  0  0  0  0  0  0  0  0  0
   48.7263   29.6273   45.3863 H   0  0  0  0  0  0  0  0  0  0  0  0
   46.5813   30.2267   43.1132 H   0  0  0  0  0  0  0  0  0  0  0  0
   45.9135   29.5095   44.3274 H   0  0  0  0  0  0  0  0  0  0  0  0
  1  2  2  0
  2  3  1  0
  4  3  2  0
  5  4  1  0
  6  1  1  0
  6  5  2  0
  7 12  2  0
  8  7  1  0
  9  8  2  0
  9 10  1  0
 10 11  2  0
 11 12  1  0
 11  1  1  0
 13  9  1  0
 14  6  1  0
 15 14  1  0
 16 15  1  0
 16 14  1  0
  2 17  1  0
  3 18  1  0
  4 19  1  0
  5 20  1  0
  7 21  1  0
  8 22  1  0
 13 23  1  0
 13 24  1  0
 14 25  1  0
 15 26  1  0
 15 27  1  0
 16 28  1  0
 16 29  1  0
M  ISO  8  17  14  18  14  19  14  20  14  21  14  22  14  25  13  26  13
M  ISO  3  27  13  28  13  29  13
M  END
>  <minimizedAffinity>  (1) 
-4.85539961

>  <minimizedRMSD>  (1) 
0.827084184

$$$$
