
     RDKit          3D

 38 41  0  0  0  0  0  0  0  0999 V2000
   44.4800   31.6900   40.3000 C   0  0  0  0  0  0  0  0  0  0  0  0
   43.9250   30.6030   39.6990 C   0  0  0  0  0  0  0  0  0  0  0  0
   42.6940   30.1120   40.0740 C   0  0  0  0  0  0  0  0  0  0  0  0
   41.9770   30.7320   41.0990 C   0  0  0  0  0  0  0  0  0  0  0  0
   42.5900   31.8290   41.6740 C   0  0  0  0  0  0  0  0  0  0  0  0
   43.7980   32.3180   41.3100 C   0  0  0  0  0  0  0  0  0  0  0  0
   44.2470   33.4780   42.0680 C   0  0  0  0  0  0  0  0  0  0  0  0
   44.0700   34.8210   41.7860 C   0  0  0  0  0  0  0  0  0  0  0  0
   44.5600   35.8010   42.6200 C   0  0  0  0  0  0  0  0  0  0  0  0
   45.2460   35.4780   43.7700 C   0  0  0  0  0  0  0  0  0  0  0  0
   45.4250   34.1370   44.0560 C   0  0  0  0  0  0  0  0  0  0  0  0
   46.1130   33.8270   45.2110 C   0  0  0  0  0  0  0  0  0  0  0  0
   46.3480   32.5250   45.5940 C   0  0  0  0  0  0  0  0  0  0  0  0
   45.8630   31.5140   44.7670 C   0  0  0  0  0  0  0  0  0  0  0  0
   45.1840   31.8440   43.6270 C   0  0  0  0  0  0  0  0  0  0  0  0
   44.9370   33.1410   43.2260 C   0  0  0  0  0  0  0  0  0  0  0  0
   48.0720   32.3770   40.2370 C   0  0  0  0  0  0  0  0  0  0  0  0
   48.2050   33.1790   39.1030 C   0  0  0  0  0  0  0  0  0  0  0  0
   47.0720   33.4840   38.3630 C   0  0  0  0  0  0  0  0  0  0  0  0
   45.8860   32.9710   38.8010 N   0  0  0  0  0  0  0  0  0  0  0  0
   45.7720   32.2030   39.8900 C   0  0  0  0  0  0  0  0  0  0  0  0
   46.8740   31.9090   40.6080 N   0  0  0  0  0  0  0  0  0  0  0  0
   47.1600   34.2940   37.2080 N   0  0  0  0  0  0  0  0  0  0  0  0
   44.4757   30.1014   38.8896 H   0  0  0  0  0  0  0  0  0  0  0  0
   42.2756   29.2309   39.5656 H   0  0  0  0  0  0  0  0  0  0  0  0
   40.9907   30.3717   41.4268 H   0  0  0  0  0  0  0  0  0  0  0  0
   42.0566   32.3425   42.4875 H   0  0  0  0  0  0  0  0  0  0  0  0
   43.5258   35.1122   40.8755 H   0  0  0  0  0  0  0  0  0  0  0  0
   44.4011   36.8589   42.3638 H   0  0  0  0  0  0  0  0  0  0  0  0
   45.6378   36.2596   44.4376 H   0  0  0  0  0  0  0  0  0  0  0  0
   46.4853   34.6448   45.8455 H   0  0  0  0  0  0  0  0  0  0  0  0
   46.8978   32.2922   46.5179 H   0  0  0  0  0  0  0  0  0  0  0  0
   46.0252   30.4581   45.0293 H   0  0  0  0  0  0  0  0  0  0  0  0
   44.8124   31.0266   42.9915 H   0  0  0  0  0  0  0  0  0  0  0  0
   48.9619   32.1264   40.8330 H   0  0  0  0  0  0  0  0  0  0  0  0
   49.1908   33.5626   38.8012 H   0  0  0  0  0  0  0  0  0  0  0  0
   48.0728   34.6641   36.9069 H   0  0  0  0  0  0  0  0  0  0  0  0
   46.3113   34.5142   36.6675 H   0  0  0  0  0  0  0  0  0  0  0  0
  1  6  2  0
  2  3  2  0
  2  1  1  0
  3  4  1  0
  4  5  2  0
  6  5  1  0
  6  7  1  0
  7 16  1  0
  8  7  2  0
  8  9  1  0
  9 10  2  0
 10 11  1  0
 11 12  2  0
 12 13  1  0
 14 13  2  0
 15 14  1  0
 16 15  2  0
 16 11  1  0
 17 22  2  0
 18 17  1  0
 19 20  1  0
 19 18  2  0
 20 21  2  0
 21  1  1  0
 21 22  1  0
 23 19  1  0
  2 24  1  0
  3 25  1  0
  4 26  1  0
  5 27  1  0
  8 28  1  0
  9 29  1  0
 10 30  1  0
 12 31  1  0
 13 32  1  0
 14 33  1  0
 15 34  1  0
 17 35  1  0
 18 36  1  0
 23 37  1  0
 23 38  1  0
M  ISO  8  24  14  25  14  26  14  27  14  28  14  29  14  30  14  31  14
M  ISO  5  32  14  33  14  34  14  35  14  36  14
M  END
>  <minimizedAffinity>  (1) 
-4.84554482

>  <minimizedRMSD>  (1) 
6.14841318

$$$$
