
     RDKit          3D

 33 36  0  0  0  0  0  0  0  0999 V2000
   45.7240   32.9090   46.1890 C   0  0  0  0  0  0  0  0  0  0  0  0
   45.2950   32.9980   47.5000 C   0  0  0  0  0  0  0  0  0  0  0  0
   45.6570   32.0470   48.4300 C   0  0  0  0  0  0  0  0  0  0  0  0
   46.4650   30.9700   48.0730 C   0  0  0  0  0  0  0  0  0  0  0  0
   46.8540   30.9520   46.7430 C   0  0  0  0  0  0  0  0  0  0  0  0
   46.5230   31.8670   45.7890 C   0  0  0  0  0  0  0  0  0  0  0  0
   47.0050   31.7030   44.4620 N   0  0  0  0  0  0  0  0  0  0  0  0
   48.0460   32.1920   43.7270 C   0  0  0  0  0  0  0  0  0  0  0  0
   47.9920   31.6600   42.4920 N   0  0  0  0  0  0  0  0  0  0  0  0
   46.9230   30.8280   42.4210 C   0  0  0  0  0  0  0  0  0  0  0  0
   46.5320   30.0980   41.3290 C   0  0  0  0  0  0  0  0  0  0  0  0
   45.4220   29.3260   41.4880 N   0  0  0  0  0  0  0  0  0  0  0  0
   44.7890   29.3320   42.6990 C   0  0  0  0  0  0  0  0  0  0  0  0
   45.2330   30.0730   43.7230 N   0  0  0  0  0  0  0  0  0  0  0  0
   46.3160   30.8610   43.6520 C   0  0  0  0  0  0  0  0  0  0  0  0
   44.4840   36.0500   44.7630 C   0  0  0  0  0  0  0  0  0  0  0  0
   44.6040   35.8110   43.3900 C   0  0  0  0  0  0  0  0  0  0  0  0
   45.1000   34.5970   42.9500 C   0  0  0  0  0  0  0  0  0  0  0  0
   45.4530   33.6790   43.9010 N   0  0  0  0  0  0  0  0  0  0  0  0
   45.3330   33.9210   45.2180 C   0  0  0  0  0  0  0  0  0  0  0  0
   44.8460   35.1120   45.6460 N   0  0  0  0  0  0  0  0  0  0  0  0
   45.2420   34.3030   41.5740 N   0  0  0  0  0  0  0  0  0  0  0  0
   44.6558   33.8395   47.8055 H   0  0  0  0  0  0  0  0  0  0  0  0
   45.3032   32.1399   49.4674 H   0  0  0  0  0  0  0  0  0  0  0  0
   46.7705   30.1944   48.7907 H   0  0  0  0  0  0  0  0  0  0  0  0
   47.4939   30.1155   46.4257 H   0  0  0  0  0  0  0  0  0  0  0  0
   48.8043   32.9038   44.0852 H   0  0  0  0  0  0  0  0  0  0  0  0
   47.0837   30.1338   40.3780 H   0  0  0  0  0  0  0  0  0  0  0  0
   43.8910   28.7119   42.8367 H   0  0  0  0  0  0  0  0  0  0  0  0
   44.0902   37.0136   45.1185 H   0  0  0  0  0  0  0  0  0  0  0  0
   44.3060   36.5830   42.6653 H   0  0  0  0  0  0  0  0  0  0  0  0
   45.6146   33.3894   41.2784 H   0  0  0  0  0  0  0  0  0  0  0  0
   44.9728   35.0025   40.8675 H   0  0  0  0  0  0  0  0  0  0  0  0
  1  2  2  0
  2  3  1  0
  4  3  2  0
  5  4  1  0
  6  1  1  0
  6  5  2  0
  7  6  1  0
  8  7  1  0
  9  8  2  0
 10  9  1  0
 10 15  2  0
 11 12  2  0
 11 10  1  0
 12 13  1  0
 13 14  2  0
 15 14  1  0
 15  7  1  0
 16 21  2  0
 17 16  1  0
 18 17  2  0
 18 19  1  0
 19 20  2  0
 20 21  1  0
 20  1  1  0
 22 18  1  0
  2 23  1  0
  3 24  1  0
  4 25  1  0
  5 26  1  0
  8 27  1  0
 11 28  1  0
 13 29  1  0
 16 30  1  0
 17 31  1  0
 22 32  1  0
 22 33  1  0
M  ISO  8  23  14  24  14  25  14  26  14  27  14  28  14  29  14  30  14
M  ISO  1  31  14
M  END
>  <minimizedAffinity>  (1) 
-4.68272305

>  <minimizedRMSD>  (1) 
1.50138533

$$$$
