
     RDKit          3D

 29 31  0  0  0  0  0  0  0  0999 V2000
   45.7290   32.8930   46.4170 C   0  0  0  0  0  0  0  0  0  0  0  0
   45.4910   33.1250   47.7370 C   0  0  0  0  0  0  0  0  0  0  0  0
   45.6410   32.1620   48.7000 C   0  0  0  0  0  0  0  0  0  0  0  0
   46.0480   30.8950   48.3570 C   0  0  0  0  0  0  0  0  0  0  0  0
   46.2810   30.6980   47.0010 C   0  0  0  0  0  0  0  0  0  0  0  0
   46.1370   31.6450   46.0290 C   0  0  0  0  0  0  0  0  0  0  0  0
   44.5050   35.8840   44.7190 C   0  0  0  0  0  0  0  0  0  0  0  0
   45.2690   35.9000   43.5470 C   0  0  0  0  0  0  0  0  0  0  0  0
   46.1900   34.8970   43.3460 C   0  0  0  0  0  0  0  0  0  0  0  0
   46.3160   33.9250   44.3060 N   0  0  0  0  0  0  0  0  0  0  0  0
   45.5720   33.9330   45.4200 C   0  0  0  0  0  0  0  0  0  0  0  0
   44.6680   34.9200   45.6160 N   0  0  0  0  0  0  0  0  0  0  0  0
   46.9780   34.8760   42.1770 N   0  0  0  0  0  0  0  0  0  0  0  0
   46.4230   31.2180   44.6690 C   0  0  0  0  0  0  0  0  0  0  0  0
   45.7660   30.8060   43.5140 C   0  0  0  0  0  0  0  0  0  0  0  0
   46.7120   30.5450   42.5420 C   0  0  0  0  0  0  0  0  0  0  0  0
   47.9290   30.8110   43.1530 C   0  0  0  0  0  0  0  0  0  0  0  0
   47.7010   31.1980   44.3860 O   0  0  0  0  0  0  0  0  0  0  0  0
   45.1640   34.1294   48.0439 H   0  0  0  0  0  0  0  0  0  0  0  0
   45.4346   32.4042   49.7530 H   0  0  0  0  0  0  0  0  0  0  0  0
   46.1797   30.0955   49.1010 H   0  0  0  0  0  0  0  0  0  0  0  0
   46.6084   29.6964   46.6854 H   0  0  0  0  0  0  0  0  0  0  0  0
   43.7636   36.6766   44.8981 H   0  0  0  0  0  0  0  0  0  0  0  0
   45.1364   36.6978   42.8014 H   0  0  0  0  0  0  0  0  0  0  0  0
   47.6654   34.1226   42.0327 H   0  0  0  0  0  0  0  0  0  0  0  0
   46.8663   35.6141   41.4673 H   0  0  0  0  0  0  0  0  0  0  0  0
   44.6771   30.7051   43.3950 H   0  0  0  0  0  0  0  0  0  0  0  0
   46.5388   30.2020   41.5113 H   0  0  0  0  0  0  0  0  0  0  0  0
   48.9187   30.7138   42.6828 H   0  0  0  0  0  0  0  0  0  0  0  0
  1  2  2  0
  2  3  1  0
  4  3  2  0
  5  4  1  0
  6  1  1  0
  6  5  2  0
  7 12  2  0
  8  7  1  0
  9  8  2  0
  9 10  1  0
 10 11  2  0
 11 12  1  0
 11  1  1  0
 13  9  1  0
 14  6  1  0
 15 14  2  0
 16 17  2  0
 16 15  1  0
 17 18  1  0
 18 14  1  0
  2 19  1  0
  3 20  1  0
  4 21  1  0
  5 22  1  0
  7 23  1  0
  8 24  1  0
 13 25  1  0
 13 26  1  0
 15 27  1  0
 16 28  1  0
 17 29  1  0
M  ISO  8  19  14  20  14  21  14  22  14  23  14  24  14  27  14  28  14
M  ISO  1  29  14
M  END
>  <minimizedAffinity>  (1) 
-4.73164368

>  <minimizedRMSD>  (1) 
1.46624637

$$$$
