
     RDKit          3D

 35 37  0  0  0  0  0  0  0  0999 V2000
   45.6760   33.5940   45.2840 C   0  0  0  0  0  0  0  0  0  0  0  0
   45.0230   33.5820   46.4850 C   0  0  0  0  0  0  0  0  0  0  0  0
   45.4890   32.8860   47.5720 C   0  0  0  0  0  0  0  0  0  0  0  0
   46.6660   32.1560   47.4750 C   0  0  0  0  0  0  0  0  0  0  0  0
   47.2920   32.1980   46.2370 C   0  0  0  0  0  0  0  0  0  0  0  0
   46.8440   32.8850   45.1450 C   0  0  0  0  0  0  0  0  0  0  0  0
   44.8500   36.4020   43.0980 C   0  0  0  0  0  0  0  0  0  0  0  0
   44.2310   35.7730   42.0080 C   0  0  0  0  0  0  0  0  0  0  0  0
   44.1000   34.3840   42.0260 C   0  0  0  0  0  0  0  0  0  0  0  0
   44.5850   33.6980   43.1160 N   0  0  0  0  0  0  0  0  0  0  0  0
   45.1720   34.3320   44.1420 C   0  0  0  0  0  0  0  0  0  0  0  0
   45.2980   35.6800   44.1230 N   0  0  0  0  0  0  0  0  0  0  0  0
   43.4860   33.6880   40.9540 N   0  0  0  0  0  0  0  0  0  0  0  0
   49.1150   32.0440   41.6900 C   0  0  0  0  0  0  0  0  0  0  0  0
   49.0140   33.3650   42.0730 C   0  0  0  0  0  0  0  0  0  0  0  0
   48.2970   33.7520   43.1840 C   0  0  0  0  0  0  0  0  0  0  0  0
   47.6590   32.7940   43.9400 C   0  0  0  0  0  0  0  0  0  0  0  0
   47.7620   31.4520   43.5540 C   0  0  0  0  0  0  0  0  0  0  0  0
   48.4850   31.0660   42.4340 C   0  0  0  0  0  0  0  0  0  0  0  0
   50.0560   31.6920   40.2570 S   0  0  0  0  0  0  0  0  0  0  0  0
   51.5390   31.8450   40.5430 O   0  0  0  0  0  0  0  0  0  0  0  0
   49.8470   30.2970   39.7780 O   0  0  0  0  0  0  0  0  0  0  0  0
   44.0877   34.1524   46.5839 H   0  0  0  0  0  0  0  0  0  0  0  0
   44.9305   32.9064   48.5194 H   0  0  0  0  0  0  0  0  0  0  0  0
   47.0743   31.5837   48.3211 H   0  0  0  0  0  0  0  0  0  0  0  0
   48.2276   31.6302   46.1260 H   0  0  0  0  0  0  0  0  0  0  0  0
   44.9658   37.4959   43.1061 H   0  0  0  0  0  0  0  0  0  0  0  0
   43.8570   36.3618   41.1575 H   0  0  0  0  0  0  0  0  0  0  0  0
   43.3998   32.6622   40.9882 H   0  0  0  0  0  0  0  0  0  0  0  0
   43.1262   34.2082   40.1411 H   0  0  0  0  0  0  0  0  0  0  0  0
   49.5220   34.1340   41.4725 H   0  0  0  0  0  0  0  0  0  0  0  0
   48.2349   34.8140   43.4639 H   0  0  0  0  0  0  0  0  0  0  0  0
   47.2558   30.6823   44.1551 H   0  0  0  0  0  0  0  0  0  0  0  0
   48.5545   30.0067   42.1459 H   0  0  0  0  0  0  0  0  0  0  0  0
   49.6385   32.5783   39.2993 H   0  0  0  0  0  0  0  0  0  0  0  0
  1  2  2  0
  2  3  1  0
  4  3  2  0
  5  4  1  0
  6  1  1  0
  6  5  2  0
  7 12  2  0
  8  9  2  0
  8  7  1  0
  9 10  1  0
 10 11  2  0
 11  1  1  0
 12 11  1  0
 13  9  1  0
 14 15  2  0
 14 19  1  0
 15 16  1  0
 16 17  2  0
 17  6  1  0
 18 17  1  0
 19 18  2  0
 20 21  2  0
 20 14  1  0
 22 20  2  0
  2 23  1  0
  3 24  1  0
  4 25  1  0
  5 26  1  0
  7 27  1  0
  8 28  1  0
 13 29  1  0
 13 30  1  0
 15 31  1  0
 16 32  1  0
 18 33  1  0
 19 34  1  0
 20 35  1  0
M  ISO  8  23  14  24  14  25  14  26  14  27  14  28  14  31  14  32  14
M  ISO  3  33  14  34  14  35  11
M  END
>  <minimizedAffinity>  (1) 
-4.69315243

>  <minimizedRMSD>  (1) 
2.00309396

$$$$
