
     RDKit          3D

 28 30  0  0  0  0  0  0  0  0999 V2000
   45.7200   32.9540   46.1860 C   0  0  0  0  0  0  0  0  0  0  0  0
   45.4180   33.1700   47.4990 C   0  0  0  0  0  0  0  0  0  0  0  0
   45.5490   32.1780   48.4470 C   0  0  0  0  0  0  0  0  0  0  0  0
   46.0020   30.9110   48.0830 C   0  0  0  0  0  0  0  0  0  0  0  0
   46.2880   30.7610   46.7480 C   0  0  0  0  0  0  0  0  0  0  0  0
   46.1680   31.7160   45.7980 C   0  0  0  0  0  0  0  0  0  0  0  0
   44.5540   35.9710   44.4850 C   0  0  0  0  0  0  0  0  0  0  0  0
   45.3370   35.9980   43.3290 C   0  0  0  0  0  0  0  0  0  0  0  0
   46.2640   34.9760   43.1360 C   0  0  0  0  0  0  0  0  0  0  0  0
   46.3460   34.0120   44.0990 N   0  0  0  0  0  0  0  0  0  0  0  0
   45.5850   34.0070   45.2000 C   0  0  0  0  0  0  0  0  0  0  0  0
   44.6890   34.9970   45.3830 N   0  0  0  0  0  0  0  0  0  0  0  0
   47.0860   34.9510   41.9750 N   0  0  0  0  0  0  0  0  0  0  0  0
   46.5190   31.3170   44.4400 C   0  0  0  0  0  0  0  0  0  0  0  0
   45.5650   30.8520   43.4490 C   0  0  0  0  0  0  0  0  0  0  0  0
   46.7290   30.5360   41.9850 S   0  0  0  0  0  0  0  0  0  0  0  0
   48.2240   31.0910   43.0170 C   0  0  0  0  0  0  0  0  0  0  0  0
   47.7980   31.3660   44.0330 N   0  0  0  0  0  0  0  0  0  0  0  0
   45.0603   34.1628   47.8094 H   0  0  0  0  0  0  0  0  0  0  0  0
   45.2947   32.3873   49.4965 H   0  0  0  0  0  0  0  0  0  0  0  0
   46.1213   30.0937   48.8095 H   0  0  0  0  0  0  0  0  0  0  0  0
   46.6475   29.7739   46.4217 H   0  0  0  0  0  0  0  0  0  0  0  0
   43.8141   36.7667   44.6565 H   0  0  0  0  0  0  0  0  0  0  0  0
   45.2248   36.8051   42.5901 H   0  0  0  0  0  0  0  0  0  0  0  0
   47.7679   34.1904   41.8430 H   0  0  0  0  0  0  0  0  0  0  0  0
   46.9992   35.6935   41.2665 H   0  0  0  0  0  0  0  0  0  0  0  0
   44.4756   30.7203   43.5256 H   0  0  0  0  0  0  0  0  0  0  0  0
   49.2760   31.1363   42.6989 H   0  0  0  0  0  0  0  0  0  0  0  0
  1  2  2  0
  2  3  1  0
  4  3  2  0
  5  4  1  0
  6  1  1  0
  6  5  2  0
  7 12  2  0
  8  7  1  0
  9  8  2  0
  9 10  1  0
 10 11  2  0
 11 12  1  0
 11  1  1  0
 13  9  1  0
 14  6  1  0
 15 14  2  0
 16 17  1  0
 16 15  1  0
 17 18  2  0
 18 14  1  0
  2 19  1  0
  3 20  1  0
  4 21  1  0
  5 22  1  0
  7 23  1  0
  8 24  1  0
 13 25  1  0
 13 26  1  0
 15 27  1  0
 17 28  1  0
M  ISO  8  19  14  20  14  21  14  22  14  23  14  24  14  27  14  28  14
M  END
>  <minimizedAffinity>  (1) 
-4.77545404

>  <minimizedRMSD>  (1) 
1.52171874

$$$$
