
     RDKit          3D

 39 42  0  0  0  0  0  0  0  0999 V2000
   45.8130   32.9820   46.1460 C   0  0  0  0  0  0  0  0  0  0  0  0
   45.3380   33.1360   47.4290 C   0  0  0  0  0  0  0  0  0  0  0  0
   45.4910   32.1540   48.3740 C   0  0  0  0  0  0  0  0  0  0  0  0
   46.1290   30.9680   48.0760 C   0  0  0  0  0  0  0  0  0  0  0  0
   46.5900   30.8690   46.7580 C   0  0  0  0  0  0  0  0  0  0  0  0
   46.4650   31.8020   45.7960 C   0  0  0  0  0  0  0  0  0  0  0  0
   46.9830   31.5650   44.4970 N   0  0  0  0  0  0  0  0  0  0  0  0
   46.1980   30.9140   43.6090 C   0  0  0  0  0  0  0  0  0  0  0  0
   46.8690   30.7850   42.4340 N   0  0  0  0  0  0  0  0  0  0  0  0
   48.0940   31.3700   42.6060 C   0  0  0  0  0  0  0  0  0  0  0  0
   48.1210   31.8320   43.8800 N   0  0  0  0  0  0  0  0  0  0  0  0
   49.1600   31.4930   41.6660 N   0  0  0  0  0  0  0  0  0  0  0  0
   50.4150   31.5810   42.1460 C   0  0  0  0  0  0  0  0  0  0  0  0
   51.4340   31.6980   41.2230 C   0  0  0  0  0  0  0  0  0  0  0  0
   51.0680   31.7170   39.8920 C   0  0  0  0  0  0  0  0  0  0  0  0
   52.0930   31.8380   38.9140 N   0  0  0  0  0  0  0  0  0  0  0  0
   49.7970   31.6260   39.4640 N   0  0  0  0  0  0  0  0  0  0  0  0
   48.7930   31.5090   40.3710 C   0  0  0  0  0  0  0  0  0  0  0  0
   47.5890   31.4220   40.0260 O   0  0  0  0  0  0  0  0  0  0  0  0
   44.5560   35.9470   44.4420 C   0  0  0  0  0  0  0  0  0  0  0  0
   45.3610   35.9790   43.2730 C   0  0  0  0  0  0  0  0  0  0  0  0
   46.3050   34.9950   43.0980 C   0  0  0  0  0  0  0  0  0  0  0  0
   46.4370   34.0300   44.0410 N   0  0  0  0  0  0  0  0  0  0  0  0
   45.6430   34.0330   45.1540 C   0  0  0  0  0  0  0  0  0  0  0  0
   44.7160   34.9830   45.3460 N   0  0  0  0  0  0  0  0  0  0  0  0
   47.1320   34.9900   41.9410 N   0  0  0  0  0  0  0  0  0  0  0  0
   44.8235   34.0690   47.7026 H   0  0  0  0  0  0  0  0  0  0  0  0
   45.0976   32.3152   49.3885 H   0  0  0  0  0  0  0  0  0  0  0  0
   46.2647   30.1644   48.8148 H   0  0  0  0  0  0  0  0  0  0  0  0
   47.1050   29.9372   46.4813 H   0  0  0  0  0  0  0  0  0  0  0  0
   45.1797   30.5476   43.8060 H   0  0  0  0  0  0  0  0  0  0  0  0
   50.6190   31.5605   43.2267 H   0  0  0  0  0  0  0  0  0  0  0  0
   52.4869   31.7725   41.5327 H   0  0  0  0  0  0  0  0  0  0  0  0
   51.8504   31.8550   37.9131 H   0  0  0  0  0  0  0  0  0  0  0  0
   53.0781   31.9087   39.2064 H   0  0  0  0  0  0  0  0  0  0  0  0
   43.7945   36.7245   44.6019 H   0  0  0  0  0  0  0  0  0  0  0  0
   45.2322   36.7738   42.5236 H   0  0  0  0  0  0  0  0  0  0  0  0
   47.8375   34.2501   41.8154 H   0  0  0  0  0  0  0  0  0  0  0  0
   47.0254   35.7262   41.2286 H   0  0  0  0  0  0  0  0  0  0  0  0
  1  2  2  0
  2  3  1  0
  4  3  2  0
  5  4  1  0
  6  1  1  0
  6  5  2  0
  7  6  1  0
  8  7  1  0
  9 10  1  0
  9  8  2  0
 10 11  2  0
 11  7  1  0
 12 13  1  0
 12 10  1  0
 14 13  2  0
 15 14  1  0
 16 15  1  0
 17 15  2  0
 17 18  1  0
 18 12  1  0
 19 18  2  0
 20 25  2  0
 21 20  1  0
 22 21  2  0
 22 23  1  0
 23 24  2  0
 24 25  1  0
 24  1  1  0
 26 22  1  0
  2 27  1  0
  3 28  1  0
  4 29  1  0
  5 30  1  0
  8 31  1  0
 13 32  1  0
 14 33  1  0
 16 34  1  0
 16 35  1  0
 20 36  1  0
 21 37  1  0
 26 38  1  0
 26 39  1  0
M  ISO  8  27  14  28  14  29  14  30  14  31  14  32  14  33  14  36  14
M  ISO  1  37  14
M  END
>  <minimizedAffinity>  (1) 
-6.33324575

>  <minimizedRMSD>  (1) 
0.533832848

$$$$
