
     RDKit          3D

 41 44  0  0  0  0  0  0  0  0999 V2000
   45.8250   32.9790   46.1490 C   0  0  0  0  0  0  0  0  0  0  0  0
   45.4000   33.1660   47.4440 C   0  0  0  0  0  0  0  0  0  0  0  0
   45.5600   32.1780   48.3910 C   0  0  0  0  0  0  0  0  0  0  0  0
   46.1540   30.9650   48.0680 C   0  0  0  0  0  0  0  0  0  0  0  0
   46.5560   30.8480   46.7460 C   0  0  0  0  0  0  0  0  0  0  0  0
   46.4240   31.7870   45.7680 C   0  0  0  0  0  0  0  0  0  0  0  0
   46.8840   31.5250   44.4600 N   0  0  0  0  0  0  0  0  0  0  0  0
   46.0000   31.0080   43.5730 C   0  0  0  0  0  0  0  0  0  0  0  0
   46.6290   30.8250   42.3740 N   0  0  0  0  0  0  0  0  0  0  0  0
   47.9050   31.2380   42.5450 C   0  0  0  0  0  0  0  0  0  0  0  0
   48.0360   31.6580   43.8230 N   0  0  0  0  0  0  0  0  0  0  0  0
   48.8920   31.2100   41.5240 N   0  0  0  0  0  0  0  0  0  0  0  0
   49.1550   30.1940   40.6700 C   0  0  0  0  0  0  0  0  0  0  0  0
   50.1450   30.3020   39.7220 C   0  0  0  0  0  0  0  0  0  0  0  0
   50.3940   29.1570   38.8080 C   0  0  0  0  0  0  0  0  0  0  0  0
   50.9110   31.4670   39.6140 C   0  0  0  0  0  0  0  0  0  0  0  0
   51.8180   31.5790   38.7530 O   0  0  0  0  0  0  0  0  0  0  0  0
   50.5890   32.4440   40.5060 N   0  0  0  0  0  0  0  0  0  0  0  0
   49.6300   32.3400   41.4230 C   0  0  0  0  0  0  0  0  0  0  0  0
   49.4490   33.3400   42.1850 O   0  0  0  0  0  0  0  0  0  0  0  0
   44.5320   35.9360   44.4370 C   0  0  0  0  0  0  0  0  0  0  0  0
   45.3520   35.9850   43.2770 C   0  0  0  0  0  0  0  0  0  0  0  0
   46.3260   35.0140   43.1040 C   0  0  0  0  0  0  0  0  0  0  0  0
   46.4550   34.0490   44.0550 N   0  0  0  0  0  0  0  0  0  0  0  0
   45.6500   34.0290   45.1590 C   0  0  0  0  0  0  0  0  0  0  0  0
   44.6990   34.9620   45.3450 N   0  0  0  0  0  0  0  0  0  0  0  0
   47.1620   35.0270   41.9680 N   0  0  0  0  0  0  0  0  0  0  0  0
   44.9259   34.1173   47.7273 H   0  0  0  0  0  0  0  0  0  0  0  0
   45.2116   32.3529   49.4196 H   0  0  0  0  0  0  0  0  0  0  0  0
   46.2947   30.1595   48.8038 H   0  0  0  0  0  0  0  0  0  0  0  0
   47.0306   29.8986   46.4572 H   0  0  0  0  0  0  0  0  0  0  0  0
   44.9462   30.7735   43.7840 H   0  0  0  0  0  0  0  0  0  0  0  0
   48.5672   29.2665   40.7352 H   0  0  0  0  0  0  0  0  0  0  0  0
   50.5910   28.2512   39.4002 H   0  0  0  0  0  0  0  0  0  0  0  0
   49.5100   28.9953   38.1736 H   0  0  0  0  0  0  0  0  0  0  0  0
   51.2653   29.3770   38.1736 H   0  0  0  0  0  0  0  0  0  0  0  0
   51.1240   33.3234   40.4686 H   0  0  0  0  0  0  0  0  0  0  0  0
   43.7563   36.7006   44.5913 H   0  0  0  0  0  0  0  0  0  0  0  0
   45.2159   36.7801   42.5291 H   0  0  0  0  0  0  0  0  0  0  0  0
   47.8823   34.3002   41.8503 H   0  0  0  0  0  0  0  0  0  0  0  0
   47.0522   35.7633   41.2562 H   0  0  0  0  0  0  0  0  0  0  0  0
  1  2  2  0
  2  3  1  0
  4  3  2  0
  5  4  1  0
  6  1  1  0
  6  5  2  0
  7  6  1  0
  8  7  1  0
  9 10  1  0
  9  8  2  0
 10 11  2  0
 11  7  1  0
 12 10  1  0
 13 12  1  0
 14 13  2  0
 15 14  1  0
 16 14  1  0
 16 18  1  0
 17 16  2  0
 18 19  1  0
 19 12  1  0
 19 20  2  0
 21 26  2  0
 22 21  1  0
 23 22  2  0
 23 24  1  0
 24 25  2  0
 25 26  1  0
 25  1  1  0
 27 23  1  0
  2 28  1  0
  3 29  1  0
  4 30  1  0
  5 31  1  0
  8 32  1  0
 13 33  1  0
 15 34  1  0
 15 35  1  0
 15 36  1  0
 18 37  1  0
 21 38  1  0
 22 39  1  0
 27 40  1  0
 27 41  1  0
M  ISO  8  28  14  29  14  30  14  31  14  32  14  33  14  34   8  35   8
M  ISO  4  36   8  37   9  38  14  39  14
M  END
>  <minimizedAffinity>  (1) 
-6.22042608

>  <minimizedRMSD>  (1) 
0.326838553

$$$$
