
     RDKit          3D

 38 41  0  0  0  0  0  0  0  0999 V2000
   45.8900   32.9540   46.0810 C   0  0  0  0  0  0  0  0  0  0  0  0
   45.4820   33.1130   47.3930 C   0  0  0  0  0  0  0  0  0  0  0  0
   45.6660   32.1250   48.3170 C   0  0  0  0  0  0  0  0  0  0  0  0
   46.2680   30.9300   47.9760 C   0  0  0  0  0  0  0  0  0  0  0  0
   46.6600   30.8210   46.6460 C   0  0  0  0  0  0  0  0  0  0  0  0
   46.5040   31.7670   45.6830 C   0  0  0  0  0  0  0  0  0  0  0  0
   46.9500   31.5280   44.3580 N   0  0  0  0  0  0  0  0  0  0  0  0
   46.1470   30.7910   43.5550 C   0  0  0  0  0  0  0  0  0  0  0  0
   46.7570   30.6800   42.3350 N   0  0  0  0  0  0  0  0  0  0  0  0
   47.9340   31.3580   42.4170 C   0  0  0  0  0  0  0  0  0  0  0  0
   48.0230   31.8650   43.6640 N   0  0  0  0  0  0  0  0  0  0  0  0
   48.7970   31.4310   41.3160 N   0  0  0  0  0  0  0  0  0  0  0  0
   48.4750   30.8590   40.1390 C   0  0  0  0  0  0  0  0  0  0  0  0
   49.2880   30.9000   39.0240 C   0  0  0  0  0  0  0  0  0  0  0  0
   50.5080   31.5720   39.1310 C   0  0  0  0  0  0  0  0  0  0  0  0
   51.3430   31.6780   38.1730 O   0  0  0  0  0  0  0  0  0  0  0  0
   50.8090   32.1350   40.3140 N   0  0  0  0  0  0  0  0  0  0  0  0
   49.9780   32.0690   41.3830 C   0  0  0  0  0  0  0  0  0  0  0  0
   50.2680   32.5980   42.4840 O   0  0  0  0  0  0  0  0  0  0  0  0
   44.5310   35.9070   44.4220 C   0  0  0  0  0  0  0  0  0  0  0  0
   45.3360   35.9840   43.2620 C   0  0  0  0  0  0  0  0  0  0  0  0
   46.3180   35.0360   43.0700 C   0  0  0  0  0  0  0  0  0  0  0  0
   46.4780   34.0590   44.0040 N   0  0  0  0  0  0  0  0  0  0  0  0
   45.6880   34.0160   45.1030 C   0  0  0  0  0  0  0  0  0  0  0  0
   44.7170   34.9330   45.3190 N   0  0  0  0  0  0  0  0  0  0  0  0
   47.1420   35.0780   41.9240 N   0  0  0  0  0  0  0  0  0  0  0  0
   45.0000   34.0536   47.6978 H   0  0  0  0  0  0  0  0  0  0  0  0
   45.3286   32.2838   49.3519 H   0  0  0  0  0  0  0  0  0  0  0  0
   46.4263   30.1214   48.7047 H   0  0  0  0  0  0  0  0  0  0  0  0
   47.1423   29.8793   46.3450 H   0  0  0  0  0  0  0  0  0  0  0  0
   45.1752   30.3576   43.8341 H   0  0  0  0  0  0  0  0  0  0  0  0
   47.5129   30.3312   40.0626 H   0  0  0  0  0  0  0  0  0  0  0  0
   48.9850   30.4192   38.0821 H   0  0  0  0  0  0  0  0  0  0  0  0
   51.7042   32.6350   40.4118 H   0  0  0  0  0  0  0  0  0  0  0  0
   43.7432   36.6565   44.5882 H   0  0  0  0  0  0  0  0  0  0  0  0
   45.1812   36.7864   42.5257 H   0  0  0  0  0  0  0  0  0  0  0  0
   47.8732   34.3653   41.7891 H   0  0  0  0  0  0  0  0  0  0  0  0
   47.0118   35.8214   41.2230 H   0  0  0  0  0  0  0  0  0  0  0  0
  1  2  2  0
  2  3  1  0
  4  3  2  0
  5  4  1  0
  6  1  1  0
  6  5  2  0
  7  6  1  0
  8  7  1  0
  9 10  1  0
  9  8  2  0
 10 11  2  0
 11  7  1  0
 12 18  1  0
 12 10  1  0
 13 12  1  0
 14 15  1  0
 14 13  2  0
 15 17  1  0
 16 15  2  0
 17 18  1  0
 18 19  2  0
 20 25  2  0
 21 20  1  0
 22 21  2  0
 22 23  1  0
 23 24  2  0
 24 25  1  0
 24  1  1  0
 26 22  1  0
  2 27  1  0
  3 28  1  0
  4 29  1  0
  5 30  1  0
  8 31  1  0
 13 32  1  0
 14 33  1  0
 17 34  1  0
 20 35  1  0
 21 36  1  0
 26 37  1  0
 26 38  1  0
M  ISO  8  27  14  28  14  29  14  30  14  31  14  32  14  33  14  34   9
M  ISO  2  35  14  36  14
M  END
>  <minimizedAffinity>  (1) 
-6.17443466

>  <minimizedRMSD>  (1) 
0.459826916

$$$$
