
     RDKit          3D

 33 35  0  0  0  0  0  0  0  0999 V2000
   47.4020   31.4240   43.5580 C   0  0  0  0  0  0  0  0  0  0  0  0
   48.7640   31.1990   43.1770 N   0  0  0  0  0  0  0  0  0  0  0  0
   49.5470   30.1310   43.2590 N   0  0  0  0  0  0  0  0  0  0  0  0
   50.7650   30.3550   42.7820 C   0  0  0  0  0  0  0  0  0  0  0  0
   50.7570   31.6650   42.3650 C   0  0  0  0  0  0  0  0  0  0  0  0
   49.4770   32.1850   42.6230 C   0  0  0  0  0  0  0  0  0  0  0  0
   49.3130   33.5880   42.2290 C   0  0  0  0  0  0  0  0  0  0  0  0
   48.6450   34.1140   41.1300 C   0  0  0  0  0  0  0  0  0  0  0  0
   48.7300   35.4560   41.1230 N   0  0  0  0  0  0  0  0  0  0  0  0
   49.4390   35.8310   42.1960 C   0  0  0  0  0  0  0  0  0  0  0  0
   49.7650   34.7000   42.8220 N   0  0  0  0  0  0  0  0  0  0  0  0
   47.2350   31.7860   45.0470 C   0  0  0  0  0  0  0  0  0  0  0  0
   46.3670   32.9540   45.2090 C   0  0  0  0  0  0  0  0  0  0  0  0
   45.7490   33.0470   46.4510 C   0  0  0  0  0  0  0  0  0  0  0  0
   44.8910   34.1050   46.7620 C   0  0  0  0  0  0  0  0  0  0  0  0
   44.7040   35.0260   45.7740 N   0  0  0  0  0  0  0  0  0  0  0  0
   45.3170   34.9190   44.5640 C   0  0  0  0  0  0  0  0  0  0  0  0
   46.1330   33.8830   44.3160 N   0  0  0  0  0  0  0  0  0  0  0  0
   45.0070   35.9980   43.6070 C   0  0  0  0  0  0  0  0  0  0  0  0
   44.9290   37.2340   44.2230 F   0  0  0  0  0  0  0  0  0  0  0  0
   43.8840   35.6790   42.8750 F   0  0  0  0  0  0  0  0  0  0  0  0
   46.0380   36.1360   42.6680 F   0  0  0  0  0  0  0  0  0  0  0  0
   46.8273   30.5083   43.3552 H   0  0  0  0  0  0  0  0  0  0  0  0
   47.0382   32.2812   42.9725 H   0  0  0  0  0  0  0  0  0  0  0  0
   51.6027   29.6439   42.7311 H   0  0  0  0  0  0  0  0  0  0  0  0
   51.5996   32.2077   41.9117 H   0  0  0  0  0  0  0  0  0  0  0  0
   48.1196   33.5157   40.3711 H   0  0  0  0  0  0  0  0  0  0  0  0
   49.6978   36.8568   42.4973 H   0  0  0  0  0  0  0  0  0  0  0  0
   50.3189   34.6831   43.6902 H   0  0  0  0  0  0  0  0  0  0  0  0
   46.7903   30.9310   45.5773 H   0  0  0  0  0  0  0  0  0  0  0  0
   48.2250   32.0248   45.4627 H   0  0  0  0  0  0  0  0  0  0  0  0
   45.9399   32.2700   47.2059 H   0  0  0  0  0  0  0  0  0  0  0  0
   44.3977   34.1896   47.7416 H   0  0  0  0  0  0  0  0  0  0  0  0
  1 12  1  0
  2  3  1  0
  2  1  1  0
  4  3  2  0
  5  6  2  0
  5  4  1  0
  6  2  1  0
  7  6  1  0
  7 11  1  0
  8  7  2  0
  9  8  1  0
  9 10  2  0
 10 11  1  0
 12 13  1  0
 13 14  2  0
 14 15  1  0
 16 15  2  0
 17 16  1  0
 18 17  2  0
 18 13  1  0
 19 20  1  0
 19 17  1  0
 21 19  1  0
 22 19  1  0
  1 23  1  0
  1 24  1  0
  4 25  1  0
  5 26  1  0
  8 27  1  0
 10 28  1  0
 11 29  1  0
 12 30  1  0
 12 31  1  0
 14 32  1  0
 15 33  1  0
M  ISO  8  23   8  24   8  25  14  26  14  27  14  28  14  29   9  30   8
M  ISO  3  31   8  32  14  33  14
M  END
>  <minimizedAffinity>  (1) 
-5.15429258

>  <minimizedRMSD>  (1) 
1.20731986

$$$$
