
     RDKit          3D

 40 42  0  0  0  0  0  0  0  0999 V2000
   45.8080   33.0040   46.2380 C   0  0  0  0  0  0  0  0  0  0  0  0
   45.2570   33.0130   47.5080 C   0  0  0  0  0  0  0  0  0  0  0  0
   45.5030   32.0100   48.3980 C   0  0  0  0  0  0  0  0  0  0  0  0
   46.3080   30.9440   48.0720 C   0  0  0  0  0  0  0  0  0  0  0  0
   46.8420   30.9810   46.7740 C   0  0  0  0  0  0  0  0  0  0  0  0
   46.6240   31.9560   45.8610 C   0  0  0  0  0  0  0  0  0  0  0  0
   44.4500   36.0650   44.7880 C   0  0  0  0  0  0  0  0  0  0  0  0
   45.0600   36.0790   43.5090 C   0  0  0  0  0  0  0  0  0  0  0  0
   45.9120   35.0560   43.1730 C   0  0  0  0  0  0  0  0  0  0  0  0
   46.1430   34.0600   44.0800 N   0  0  0  0  0  0  0  0  0  0  0  0
   45.5380   34.0830   45.2970 C   0  0  0  0  0  0  0  0  0  0  0  0
   44.6960   35.0760   45.6540 N   0  0  0  0  0  0  0  0  0  0  0  0
   46.5390   35.0300   41.9150 N   0  0  0  0  0  0  0  0  0  0  0  0
   47.2350   31.8670   44.5690 N   0  0  0  0  0  0  0  0  0  0  0  0
   46.6800   31.0460   43.6690 C   0  0  0  0  0  0  0  0  0  0  0  0
   47.4200   31.1160   42.5150 N   0  0  0  0  0  0  0  0  0  0  0  0
   48.4260   31.9910   42.7360 C   0  0  0  0  0  0  0  0  0  0  0  0
   48.2970   32.4460   44.0110 N   0  0  0  0  0  0  0  0  0  0  0  0
   49.4810   32.3930   41.7820 C   0  0  0  0  0  0  0  0  0  0  0  0
   50.2150   33.6310   42.2400 C   0  0  0  0  0  0  0  0  0  0  0  0
   48.9000   32.6340   40.4180 C   0  0  0  0  0  0  0  0  0  0  0  0
   50.5120   31.2670   41.6320 C   0  0  0  0  0  0  0  0  0  0  0  0
   44.6060   33.8482   47.8057 H   0  0  0  0  0  0  0  0  0  0  0  0
   45.0477   32.0545   49.3984 H   0  0  0  0  0  0  0  0  0  0  0  0
   46.5177   30.1243   48.7749 H   0  0  0  0  0  0  0  0  0  0  0  0
   47.4929   30.1466   46.4736 H   0  0  0  0  0  0  0  0  0  0  0  0
   43.7655   36.8779   45.0721 H   0  0  0  0  0  0  0  0  0  0  0  0
   44.8549   36.8938   42.7990 H   0  0  0  0  0  0  0  0  0  0  0  0
   47.1764   34.2579   41.6731 H   0  0  0  0  0  0  0  0  0  0  0  0
   46.3610   35.7831   41.2352 H   0  0  0  0  0  0  0  0  0  0  0  0
   45.7867   30.4238   43.8267 H   0  0  0  0  0  0  0  0  0  0  0  0
   50.2328   33.6610   43.3394 H   0  0  0  0  0  0  0  0  0  0  0  0
   51.2460   33.6088   41.8571 H   0  0  0  0  0  0  0  0  0  0  0  0
   49.7008   34.5249   41.8571 H   0  0  0  0  0  0  0  0  0  0  0  0
   47.8883   33.0537   40.5193 H   0  0  0  0  0  0  0  0  0  0  0  0
   49.5372   33.3420   39.8679 H   0  0  0  0  0  0  0  0  0  0  0  0
   48.8490   31.6828   39.8679 H   0  0  0  0  0  0  0  0  0  0  0  0
   50.8269   30.9231   42.6283 H   0  0  0  0  0  0  0  0  0  0  0  0
   50.0618   30.4287   41.0801 H   0  0  0  0  0  0  0  0  0  0  0  0
   51.3866   31.6418   41.0801 H   0  0  0  0  0  0  0  0  0  0  0  0
  1  2  2  0
  2  3  1  0
  4  3  2  0
  5  4  1  0
  6  1  1  0
  6  5  2  0
  7 12  2  0
  8  7  1  0
  9  8  2  0
  9 10  1  0
 10 11  2  0
 11 12  1  0
 11  1  1  0
 13  9  1  0
 14  6  1  0
 15 14  1  0
 16 17  1  0
 16 15  2  0
 17 18  2  0
 18 14  1  0
 19 20  1  0
 19 17  1  0
 21 19  1  0
 22 19  1  0
  2 23  1  0
  3 24  1  0
  4 25  1  0
  5 26  1  0
  7 27  1  0
  8 28  1  0
 13 29  1  0
 13 30  1  0
 15 31  1  0
 20 32  1  0
 20 33  1  0
 20 34  1  0
 21 35  1  0
 21 36  1  0
 21 37  1  0
 22 38  1  0
 22 39  1  0
 22 40  1  0
M  ISO  8  23  14  24  14  25  14  26  14  27  14  28  14  31  14  32   8
M  ISO  8  33   8  34   8  35   8  36   8  37   8  38   8  39   8  40   8
M  END
>  <minimizedAffinity>  (1) 
-5.42962837

>  <minimizedRMSD>  (1) 
1.02555203

$$$$
