
     RDKit          3D

 33 36  0  0  0  0  0  0  0  0999 V2000
   45.7800   32.9560   46.2500 C   0  0  0  0  0  0  0  0  0  0  0  0
   45.3370   33.1070   47.5490 C   0  0  0  0  0  0  0  0  0  0  0  0
   45.5140   32.1210   48.4790 C   0  0  0  0  0  0  0  0  0  0  0  0
   46.1420   30.9390   48.1590 C   0  0  0  0  0  0  0  0  0  0  0  0
   46.5720   30.8380   46.8280 C   0  0  0  0  0  0  0  0  0  0  0  0
   46.4200   31.7850   45.8710 C   0  0  0  0  0  0  0  0  0  0  0  0
   44.4950   35.9490   44.6090 C   0  0  0  0  0  0  0  0  0  0  0  0
   45.2400   35.9910   43.4160 C   0  0  0  0  0  0  0  0  0  0  0  0
   46.1700   34.9950   43.1920 C   0  0  0  0  0  0  0  0  0  0  0  0
   46.3250   34.0150   44.1350 N   0  0  0  0  0  0  0  0  0  0  0  0
   45.5820   34.0190   45.2700 C   0  0  0  0  0  0  0  0  0  0  0  0
   44.6700   34.9800   45.5100 N   0  0  0  0  0  0  0  0  0  0  0  0
   46.9490   34.9790   42.0150 N   0  0  0  0  0  0  0  0  0  0  0  0
   46.9030   31.5590   44.5570 N   0  0  0  0  0  0  0  0  0  0  0  0
   46.1130   30.9110   43.6900 C   0  0  0  0  0  0  0  0  0  0  0  0
   46.7530   30.7990   42.4990 N   0  0  0  0  0  0  0  0  0  0  0  0
   47.9630   31.3930   42.6460 C   0  0  0  0  0  0  0  0  0  0  0  0
   48.0290   31.8490   43.9110 N   0  0  0  0  0  0  0  0  0  0  0  0
   49.1010   31.6050   41.7570 C   0  0  0  0  0  0  0  0  0  0  0  0
   49.2370   31.6750   40.4150 N   0  0  0  0  0  0  0  0  0  0  0  0
   50.4830   31.8840   40.1060 O   0  0  0  0  0  0  0  0  0  0  0  0
   51.2110   31.9600   41.1980 C   0  0  0  0  0  0  0  0  0  0  0  0
   50.3650   31.7880   42.2360 N   0  0  0  0  0  0  0  0  0  0  0  0
   44.8316   34.0393   47.8413 H   0  0  0  0  0  0  0  0  0  0  0  0
   45.1469   32.2755   49.5044 H   0  0  0  0  0  0  0  0  0  0  0  0
   46.2952   30.1336   48.8924 H   0  0  0  0  0  0  0  0  0  0  0  0
   47.0781   29.9064   46.5346 H   0  0  0  0  0  0  0  0  0  0  0  0
   43.7498   36.7343   44.8039 H   0  0  0  0  0  0  0  0  0  0  0  0
   45.0858   36.7954   42.6817 H   0  0  0  0  0  0  0  0  0  0  0  0
   47.6382   34.2287   41.8637 H   0  0  0  0  0  0  0  0  0  0  0  0
   46.8282   35.7177   41.3074 H   0  0  0  0  0  0  0  0  0  0  0  0
   45.1047   30.5300   43.9094 H   0  0  0  0  0  0  0  0  0  0  0  0
   52.2963   32.1303   41.2548 H   0  0  0  0  0  0  0  0  0  0  0  0
  1  2  2  0
  2  3  1  0
  4  3  2  0
  5  4  1  0
  6  1  1  0
  6  5  2  0
  7 12  2  0
  8  7  1  0
  9  8  2  0
  9 10  1  0
 10 11  2  0
 11 12  1  0
 11  1  1  0
 13  9  1  0
 14  6  1  0
 15 14  1  0
 16 17  1  0
 16 15  2  0
 17 18  2  0
 18 14  1  0
 19 23  1  0
 19 17  1  0
 20 19  2  0
 21 20  1  0
 21 22  1  0
 22 23  2  0
  2 24  1  0
  3 25  1  0
  4 26  1  0
  5 27  1  0
  7 28  1  0
  8 29  1  0
 13 30  1  0
 13 31  1  0
 15 32  1  0
 22 33  1  0
M  ISO  8  24  14  25  14  26  14  27  14  28  14  29  14  32  14  33  14
M  END
>  <minimizedAffinity>  (1) 
-5.42340088

>  <minimizedRMSD>  (1) 
0.528063416

$$$$
