
     RDKit          3D

 46 49  0  0  0  0  0  0  0  0999 V2000
   46.0510   31.7120   45.7540 C   0  0  0  0  0  0  0  0  0  0  0  0
   45.9300   31.5610   47.1660 N   0  0  0  0  0  0  0  0  0  0  0  0
   45.0010   31.9530   48.0210 N   0  0  0  0  0  0  0  0  0  0  0  0
   45.2840   31.5980   49.2770 C   0  0  0  0  0  0  0  0  0  0  0  0
   46.4850   30.9330   49.2020 C   0  0  0  0  0  0  0  0  0  0  0  0
   46.8810   30.9190   47.8540 C   0  0  0  0  0  0  0  0  0  0  0  0
   48.1570   30.2360   47.6140 C   0  0  0  0  0  0  0  0  0  0  0  0
   49.2620   30.1360   48.4510 C   0  0  0  0  0  0  0  0  0  0  0  0
   50.2420   29.4340   47.8840 N   0  0  0  0  0  0  0  0  0  0  0  0
   49.8050   29.0540   46.6540 C   0  0  0  0  0  0  0  0  0  0  0  0
   48.5730   29.5500   46.5430 N   0  0  0  0  0  0  0  0  0  0  0  0
   46.9890   32.8650   45.3290 C   0  0  0  0  0  0  0  0  0  0  0  0
   46.4900   33.5360   44.1380 C   0  0  0  0  0  0  0  0  0  0  0  0
   47.4700   34.1690   43.3770 C   0  0  0  0  0  0  0  0  0  0  0  0
   47.1390   34.8540   42.2070 C   0  0  0  0  0  0  0  0  0  0  0  0
   45.8360   34.8670   41.8600 N   0  0  0  0  0  0  0  0  0  0  0  0
   44.8910   34.2430   42.6140 C   0  0  0  0  0  0  0  0  0  0  0  0
   45.2340   33.5960   43.7280 N   0  0  0  0  0  0  0  0  0  0  0  0
   43.5410   34.3770   42.0640 C   0  0  0  0  0  0  0  0  0  0  0  0
   43.4160   35.6030   41.1510 C   0  0  0  0  0  0  0  0  0  0  0  0
   42.1520   35.3550   40.3270 C   0  0  0  0  0  0  0  0  0  0  0  0
   42.6420   34.5350   39.1280 C   0  0  0  0  0  0  0  0  0  0  0  0
   43.6040   33.5200   39.7020 C   0  0  0  0  0  0  0  0  0  0  0  0
   43.3010   33.1840   41.1520 C   0  0  0  0  0  0  0  0  0  0  0  0
   46.4443   30.7731   45.3370 H   0  0  0  0  0  0  0  0  0  0  0  0
   45.0492   31.9554   45.3703 H   0  0  0  0  0  0  0  0  0  0  0  0
   44.6848   31.7953   50.1781 H   0  0  0  0  0  0  0  0  0  0  0  0
   47.0364   30.4915   50.0452 H   0  0  0  0  0  0  0  0  0  0  0  0
   49.3201   30.5806   49.4554 H   0  0  0  0  0  0  0  0  0  0  0  0
   50.3534   28.4614   45.9070 H   0  0  0  0  0  0  0  0  0  0  0  0
   47.9905   29.4166   45.7041 H   0  0  0  0  0  0  0  0  0  0  0  0
   47.0567   33.5939   46.1500 H   0  0  0  0  0  0  0  0  0  0  0  0
   47.9795   32.4435   45.1027 H   0  0  0  0  0  0  0  0  0  0  0  0
   48.5198   34.1284   43.7029 H   0  0  0  0  0  0  0  0  0  0  0  0
   47.9034   35.3585   41.5978 H   0  0  0  0  0  0  0  0  0  0  0  0
   42.8385   34.4559   42.9068 H   0  0  0  0  0  0  0  0  0  0  0  0
   43.3143   36.5211   41.7482 H   0  0  0  0  0  0  0  0  0  0  0  0
   44.3038   35.7375   40.5157 H   0  0  0  0  0  0  0  0  0  0  0  0
   41.4105   34.7892   40.9101 H   0  0  0  0  0  0  0  0  0  0  0  0
   41.6550   36.2887   40.0250 H   0  0  0  0  0  0  0  0  0  0  0  0
   43.1545   35.1833   38.4020 H   0  0  0  0  0  0  0  0  0  0  0  0
   41.8095   34.0533   38.5942 H   0  0  0  0  0  0  0  0  0  0  0  0
   43.5405   32.5978   39.1058 H   0  0  0  0  0  0  0  0  0  0  0  0
   44.6123   33.9580   39.6649 H   0  0  0  0  0  0  0  0  0  0  0  0
   42.2479   32.8771   41.2350 H   0  0  0  0  0  0  0  0  0  0  0  0
   43.9725   32.3708   41.4647 H   0  0  0  0  0  0  0  0  0  0  0  0
  1  2  1  0
  2  6  1  0
  2  3  1  0
  3  4  2  0
  5  4  1  0
  6  5  2  0
  7  6  1  0
  7  8  2  0
  9  8  1  0
 10  9  2  0
 11 10  1  0
 11  7  1  0
 12  1  1  0
 13 12  1  0
 14 13  2  0
 15 14  1  0
 16 15  2  0
 16 17  1  0
 17 18  2  0
 18 13  1  0
 19 17  1  0
 20 19  1  0
 21 20  1  0
 22 23  1  0
 22 21  1  0
 23 24  1  0
 24 19  1  0
  1 25  1  0
  1 26  1  0
  4 27  1  0
  5 28  1  0
  8 29  1  0
 10 30  1  0
 11 31  1  0
 12 32  1  0
 12 33  1  0
 14 34  1  0
 15 35  1  0
 19 36  1  0
 20 37  1  0
 20 38  1  0
 21 39  1  0
 21 40  1  0
 22 41  1  0
 22 42  1  0
 23 43  1  0
 23 44  1  0
 24 45  1  0
 24 46  1  0
M  ISO  8  25   8  26   8  27  14  28  14  29  14  30  14  31   9  32   8
M  ISO  8  33   8  34  14  35  14  36  13  37  13  38  13  39  13  40  13
M  ISO  6  41  13  42  13  43  13  44  13  45  13  46  13
M  END
>  <minimizedAffinity>  (1) 
-5.1169157

>  <minimizedRMSD>  (1) 
5.53639603

$$$$
