
     RDKit          3D

 31 33  0  0  0  0  0  0  0  0999 V2000
   45.8680   32.9600   46.1050 C   0  0  0  0  0  0  0  0  0  0  0  0
   45.4470   33.1160   47.4120 C   0  0  0  0  0  0  0  0  0  0  0  0
   45.6230   32.1320   48.3430 C   0  0  0  0  0  0  0  0  0  0  0  0
   46.2350   30.9360   47.9990 C   0  0  0  0  0  0  0  0  0  0  0  0
   46.6350   30.8350   46.6760 C   0  0  0  0  0  0  0  0  0  0  0  0
   46.4800   31.7870   45.7190 C   0  0  0  0  0  0  0  0  0  0  0  0
   44.5290   35.9250   44.4480 C   0  0  0  0  0  0  0  0  0  0  0  0
   45.3300   35.9980   43.2820 C   0  0  0  0  0  0  0  0  0  0  0  0
   46.3080   35.0400   43.0830 C   0  0  0  0  0  0  0  0  0  0  0  0
   46.4590   34.0600   44.0250 N   0  0  0  0  0  0  0  0  0  0  0  0
   45.6700   34.0220   45.1320 C   0  0  0  0  0  0  0  0  0  0  0  0
   44.7140   34.9460   45.3410 N   0  0  0  0  0  0  0  0  0  0  0  0
   47.1270   35.0740   41.9410 N   0  0  0  0  0  0  0  0  0  0  0  0
   46.9410   31.5490   44.3920 N   0  0  0  0  0  0  0  0  0  0  0  0
   46.1250   30.8630   43.5560 C   0  0  0  0  0  0  0  0  0  0  0  0
   46.7430   30.7400   42.3450 N   0  0  0  0  0  0  0  0  0  0  0  0
   47.9400   31.3590   42.4630 C   0  0  0  0  0  0  0  0  0  0  0  0
   48.0380   31.8400   43.7090 N   0  0  0  0  0  0  0  0  0  0  0  0
   49.0020   31.5200   41.4520 C   0  0  0  0  0  0  0  0  0  0  0  0
   49.9840   30.5480   41.5770 F   0  0  0  0  0  0  0  0  0  0  0  0
   49.5960   32.7500   41.6090 F   0  0  0  0  0  0  0  0  0  0  0  0
   48.4830   31.4330   40.1700 F   0  0  0  0  0  0  0  0  0  0  0  0
   44.9583   34.0554   47.7099 H   0  0  0  0  0  0  0  0  0  0  0  0
   45.2762   32.2897   49.3749 H   0  0  0  0  0  0  0  0  0  0  0  0
   46.3919   30.1247   48.7251 H   0  0  0  0  0  0  0  0  0  0  0  0
   47.1232   29.8972   46.3725 H   0  0  0  0  0  0  0  0  0  0  0  0
   43.7479   36.6800   44.6208 H   0  0  0  0  0  0  0  0  0  0  0  0
   45.1770   36.8025   42.5475 H   0  0  0  0  0  0  0  0  0  0  0  0
   47.8514   34.3545   41.8052 H   0  0  0  0  0  0  0  0  0  0  0  0
   47.0027   35.8184   41.2401 H   0  0  0  0  0  0  0  0  0  0  0  0
   45.1296   30.4703   43.8108 H   0  0  0  0  0  0  0  0  0  0  0  0
  1  2  2  0
  2  3  1  0
  4  3  2  0
  5  4  1  0
  6  1  1  0
  6  5  2  0
  7 12  2  0
  8  7  1  0
  9  8  2  0
  9 10  1  0
 10 11  2  0
 11 12  1  0
 11  1  1  0
 13  9  1  0
 14  6  1  0
 15 14  1  0
 16 17  1  0
 16 15  2  0
 17 18  2  0
 18 14  1  0
 19 20  1  0
 19 21  1  0
 19 17  1  0
 22 19  1  0
  2 23  1  0
  3 24  1  0
  4 25  1  0
  5 26  1  0
  7 27  1  0
  8 28  1  0
 13 29  1  0
 13 30  1  0
 15 31  1  0
M  ISO  7  23  14  24  14  25  14  26  14  27  14  28  14  31  14
M  END
>  <minimizedAffinity>  (1) 
-5.00296116

>  <minimizedRMSD>  (1) 
0.341303498

$$$$
