
     RDKit          3D

 34 36  0  0  0  0  0  0  0  0999 V2000
   45.8700   32.9610   46.1050 C   0  0  0  0  0  0  0  0  0  0  0  0
   45.4560   33.1240   47.4100 C   0  0  0  0  0  0  0  0  0  0  0  0
   45.6290   32.1400   48.3400 C   0  0  0  0  0  0  0  0  0  0  0  0
   46.2260   30.9360   48.0040 C   0  0  0  0  0  0  0  0  0  0  0  0
   46.6240   30.8250   46.6760 C   0  0  0  0  0  0  0  0  0  0  0  0
   46.4790   31.7670   45.7130 C   0  0  0  0  0  0  0  0  0  0  0  0
   44.5310   35.9140   44.4340 C   0  0  0  0  0  0  0  0  0  0  0  0
   45.3360   35.9870   43.2740 C   0  0  0  0  0  0  0  0  0  0  0  0
   46.3240   35.0270   43.0810 C   0  0  0  0  0  0  0  0  0  0  0  0
   46.4730   34.0580   44.0180 N   0  0  0  0  0  0  0  0  0  0  0  0
   45.6820   34.0170   45.1190 C   0  0  0  0  0  0  0  0  0  0  0  0
   44.7110   34.9440   45.3290 N   0  0  0  0  0  0  0  0  0  0  0  0
   47.1460   35.0660   41.9420 N   0  0  0  0  0  0  0  0  0  0  0  0
   46.9290   31.5270   44.3940 N   0  0  0  0  0  0  0  0  0  0  0  0
   46.0850   30.9090   43.5450 C   0  0  0  0  0  0  0  0  0  0  0  0
   46.6910   30.7670   42.3340 N   0  0  0  0  0  0  0  0  0  0  0  0
   47.9320   31.3160   42.4610 C   0  0  0  0  0  0  0  0  0  0  0  0
   48.0530   31.7720   43.7290 N   0  0  0  0  0  0  0  0  0  0  0  0
   48.8780   31.3430   41.3420 C   0  0  0  0  0  0  0  0  0  0  0  0
   49.7880   32.5570   41.4800 C   0  0  0  0  0  0  0  0  0  0  0  0
   44.9758   34.0677   47.7082 H   0  0  0  0  0  0  0  0  0  0  0  0
   45.2889   32.3057   49.3729 H   0  0  0  0  0  0  0  0  0  0  0  0
   46.3744   30.1268   48.7342 H   0  0  0  0  0  0  0  0  0  0  0  0
   47.1031   29.8806   46.3786 H   0  0  0  0  0  0  0  0  0  0  0  0
   43.7466   36.6673   44.5994 H   0  0  0  0  0  0  0  0  0  0  0  0
   45.1836   36.7891   42.5368 H   0  0  0  0  0  0  0  0  0  0  0  0
   47.8748   34.3506   41.8081 H   0  0  0  0  0  0  0  0  0  0  0  0
   47.0197   35.8100   41.2410 H   0  0  0  0  0  0  0  0  0  0  0  0
   45.0671   30.5723   43.7912 H   0  0  0  0  0  0  0  0  0  0  0  0
   48.3237   31.4053   40.3939 H   0  0  0  0  0  0  0  0  0  0  0  0
   49.4846   30.4254   41.3506 H   0  0  0  0  0  0  0  0  0  0  0  0
   49.9507   32.7740   42.5460 H   0  0  0  0  0  0  0  0  0  0  0  0
   50.7539   32.3481   40.9968 H   0  0  0  0  0  0  0  0  0  0  0  0
   49.3165   33.4255   40.9968 H   0  0  0  0  0  0  0  0  0  0  0  0
  1  2  2  0
  2  3  1  0
  4  3  2  0
  5  4  1  0
  6  1  1  0
  6  5  2  0
  7 12  2  0
  8  7  1  0
  9  8  2  0
  9 10  1  0
 10 11  2  0
 11 12  1  0
 11  1  1  0
 13  9  1  0
 14  6  1  0
 15 14  1  0
 16 17  1  0
 16 15  2  0
 17 18  2  0
 18 14  1  0
 19 20  1  0
 19 17  1  0
  2 21  1  0
  3 22  1  0
  4 23  1  0
  5 24  1  0
  7 25  1  0
  8 26  1  0
 13 27  1  0
 13 28  1  0
 15 29  1  0
 19 30  1  0
 19 31  1  0
 20 32  1  0
 20 33  1  0
 20 34  1  0
M  ISO  8  21  14  22  14  23  14  24  14  25  14  26  14  29  14  30   8
M  ISO  4  31   8  32   8  33   8  34   8
M  END
>  <minimizedAffinity>  (1) 
-4.84954882

>  <minimizedRMSD>  (1) 
0.590438545

$$$$
