
     RDKit          3D

 38 42  0  0  0  0  0  0  0  0999 V2000
   45.8540   32.8910   46.3350 C   0  0  0  0  0  0  0  0  0  0  0  0
   45.5870   33.0480   47.6850 C   0  0  0  0  0  0  0  0  0  0  0  0
   45.8340   32.0380   48.5760 C   0  0  0  0  0  0  0  0  0  0  0  0
   46.3530   30.8350   48.1800 C   0  0  0  0  0  0  0  0  0  0  0  0
   46.6050   30.7310   46.8020 C   0  0  0  0  0  0  0  0  0  0  0  0
   46.3830   31.6910   45.8690 C   0  0  0  0  0  0  0  0  0  0  0  0
   44.4610   35.9130   44.8480 C   0  0  0  0  0  0  0  0  0  0  0  0
   45.1140   35.9650   43.6040 C   0  0  0  0  0  0  0  0  0  0  0  0
   46.0180   34.9730   43.2890 C   0  0  0  0  0  0  0  0  0  0  0  0
   46.2400   33.9820   44.1980 N   0  0  0  0  0  0  0  0  0  0  0  0
   45.5900   33.9700   45.3860 C   0  0  0  0  0  0  0  0  0  0  0  0
   44.7020   34.9230   45.7230 N   0  0  0  0  0  0  0  0  0  0  0  0
   46.7000   34.9770   42.0550 N   0  0  0  0  0  0  0  0  0  0  0  0
   46.6820   31.4550   44.5100 N   0  0  0  0  0  0  0  0  0  0  0  0
   45.9500   30.5640   43.8340 C   0  0  0  0  0  0  0  0  0  0  0  0
   46.4020   30.4910   42.5590 N   0  0  0  0  0  0  0  0  0  0  0  0
   47.4400   31.3620   42.4520 C   0  0  0  0  0  0  0  0  0  0  0  0
   47.5880   31.9340   43.6520 N   0  0  0  0  0  0  0  0  0  0  0  0
   48.3300   31.7410   41.3600 C   0  0  0  0  0  0  0  0  0  0  0  0
   48.2030   32.5270   40.2740 N   0  0  0  0  0  0  0  0  0  0  0  0
   49.3240   32.5320   39.5970 O   0  0  0  0  0  0  0  0  0  0  0  0
   50.2020   31.7730   40.1940 C   0  0  0  0  0  0  0  0  0  0  0  0
   49.6170   31.2690   41.2890 N   0  0  0  0  0  0  0  0  0  0  0  0
   51.5710   31.5080   39.7670 C   0  0  0  0  0  0  0  0  0  0  0  0
   52.6130   31.1390   40.5340 N   0  0  0  0  0  0  0  0  0  0  0  0
   53.6630   31.0010   39.7820 O   0  0  0  0  0  0  0  0  0  0  0  0
   53.3680   31.2670   38.5110 C   0  0  0  0  0  0  0  0  0  0  0  0
   52.0430   31.5880   38.5090 N   0  0  0  0  0  0  0  0  0  0  0  0
   45.1699   33.9992   48.0472 H   0  0  0  0  0  0  0  0  0  0  0  0
   45.6088   32.1981   49.6407 H   0  0  0  0  0  0  0  0  0  0  0  0
   46.5565   30.0151   48.8845 H   0  0  0  0  0  0  0  0  0  0  0  0
   47.0231   29.7785   46.4444 H   0  0  0  0  0  0  0  0  0  0  0  0
   43.7378   36.6993   45.1101 H   0  0  0  0  0  0  0  0  0  0  0  0
   44.9076   36.7812   42.8960 H   0  0  0  0  0  0  0  0  0  0  0  0
   47.3722   34.2281   41.8357 H   0  0  0  0  0  0  0  0  0  0  0  0
   46.5260   35.7289   41.3728 H   0  0  0  0  0  0  0  0  0  0  0  0
   45.1131   29.9821   44.2475 H   0  0  0  0  0  0  0  0  0  0  0  0
   54.0482   31.2346   37.6471 H   0  0  0  0  0  0  0  0  0  0  0  0
  1  2  2  0
  2  3  1  0
  4  3  2  0
  5  4  1  0
  6  1  1  0
  6  5  2  0
  7 12  2  0
  8  7  1  0
  9  8  2  0
  9 10  1  0
 10 11  2  0
 11 12  1  0
 11  1  1  0
 13  9  1  0
 14  6  1  0
 15 14  1  0
 16 15  2  0
 17 16  1  0
 17 18  2  0
 18 14  1  0
 19 17  1  0
 20 19  2  0
 21 22  1  0
 21 20  1  0
 22 23  2  0
 23 19  1  0
 24 22  1  0
 24 25  2  0
 26 25  1  0
 27 26  1  0
 28 27  2  0
 28 24  1  0
  2 29  1  0
  3 30  1  0
  4 31  1  0
  5 32  1  0
  7 33  1  0
  8 34  1  0
 13 35  1  0
 13 36  1  0
 15 37  1  0
 27 38  1  0
M  ISO  8  29  14  30  14  31  14  32  14  33  14  34  14  37  14  38  14
M  END
>  <minimizedAffinity>  (1) 
-5.94385624

>  <minimizedRMSD>  (1) 
1.34283161

$$$$
