
     RDKit          3D

 46 50  0  0  0  0  0  0  0  0999 V2000
   45.8000   32.8950   46.2940 C   0  0  0  0  0  0  0  0  0  0  0  0
   45.4910   33.0330   47.6310 C   0  0  0  0  0  0  0  0  0  0  0  0
   45.7130   32.0170   48.5180 C   0  0  0  0  0  0  0  0  0  0  0  0
   46.2500   30.8200   48.1160 C   0  0  0  0  0  0  0  0  0  0  0  0
   46.5420   30.7400   46.7490 C   0  0  0  0  0  0  0  0  0  0  0  0
   46.3420   31.7160   45.8330 C   0  0  0  0  0  0  0  0  0  0  0  0
   44.4490   35.9530   44.8310 C   0  0  0  0  0  0  0  0  0  0  0  0
   45.1310   36.0320   43.5950 C   0  0  0  0  0  0  0  0  0  0  0  0
   46.0350   35.0400   43.2920 C   0  0  0  0  0  0  0  0  0  0  0  0
   46.2370   34.0220   44.1910 N   0  0  0  0  0  0  0  0  0  0  0  0
   45.5510   34.0010   45.3630 C   0  0  0  0  0  0  0  0  0  0  0  0
   44.6640   34.9560   45.6850 N   0  0  0  0  0  0  0  0  0  0  0  0
   46.7480   35.0570   42.0790 N   0  0  0  0  0  0  0  0  0  0  0  0
   46.6820   31.5030   44.4760 N   0  0  0  0  0  0  0  0  0  0  0  0
   45.8260   30.8340   43.6910 C   0  0  0  0  0  0  0  0  0  0  0  0
   46.3380   30.7430   42.4440 N   0  0  0  0  0  0  0  0  0  0  0  0
   47.5430   31.3730   42.4630 C   0  0  0  0  0  0  0  0  0  0  0  0
   47.7330   31.8310   43.7130 N   0  0  0  0  0  0  0  0  0  0  0  0
   48.5740   31.6180   41.4500 C   0  0  0  0  0  0  0  0  0  0  0  0
   48.5430   32.0650   40.1850 N   0  0  0  0  0  0  0  0  0  0  0  0
   49.7490   32.1080   39.6950 O   0  0  0  0  0  0  0  0  0  0  0  0
   50.6070   31.6970   40.6030 C   0  0  0  0  0  0  0  0  0  0  0  0
   49.8820   31.3900   41.6980 N   0  0  0  0  0  0  0  0  0  0  0  0
   52.0690   31.5590   40.5500 C   0  0  0  0  0  0  0  0  0  0  0  0
   52.4600   31.3640   39.0780 C   0  0  0  0  0  0  0  0  0  0  0  0
   53.8150   30.6620   39.1640 C   0  0  0  0  0  0  0  0  0  0  0  0
   53.9880   30.2270   40.5970 C   0  0  0  0  0  0  0  0  0  0  0  0
   52.5600   30.2440   41.1060 C   0  0  0  0  0  0  0  0  0  0  0  0
   45.0579   33.9782   47.9902 H   0  0  0  0  0  0  0  0  0  0  0  0
   45.4555   32.1622   49.5775 H   0  0  0  0  0  0  0  0  0  0  0  0
   46.4363   29.9892   48.8124 H   0  0  0  0  0  0  0  0  0  0  0  0
   46.9742   29.7960   46.3857 H   0  0  0  0  0  0  0  0  0  0  0  0
   43.7221   36.7359   45.0931 H   0  0  0  0  0  0  0  0  0  0  0  0
   44.9445   36.8613   42.8968 H   0  0  0  0  0  0  0  0  0  0  0  0
   47.4213   34.3070   41.8669 H   0  0  0  0  0  0  0  0  0  0  0  0
   46.5966   35.8194   41.4032 H   0  0  0  0  0  0  0  0  0  0  0  0
   44.8575   30.4230   44.0120 H   0  0  0  0  0  0  0  0  0  0  0  0
   52.4699   32.4323   41.0854 H   0  0  0  0  0  0  0  0  0  0  0  0
   52.5496   32.3316   38.5626 H   0  0  0  0  0  0  0  0  0  0  0  0
   51.7142   30.7917   38.5068 H   0  0  0  0  0  0  0  0  0  0  0  0
   53.8315   29.7869   38.4977 H   0  0  0  0  0  0  0  0  0  0  0  0
   54.6288   31.3339   38.8537 H   0  0  0  0  0  0  0  0  0  0  0  0
   54.4224   29.2183   40.6588 H   0  0  0  0  0  0  0  0  0  0  0  0
   54.6725   30.8654   41.1748 H   0  0  0  0  0  0  0  0  0  0  0  0
   52.5232   30.2317   42.2053 H   0  0  0  0  0  0  0  0  0  0  0  0
   51.9611   29.3726   40.8027 H   0  0  0  0  0  0  0  0  0  0  0  0
  1  2  2  0
  2  3  1  0
  4  3  2  0
  5  4  1  0
  6  1  1  0
  6  5  2  0
  7 12  2  0
  8  7  1  0
  9  8  2  0
  9 10  1  0
 10 11  2  0
 11 12  1  0
 11  1  1  0
 13  9  1  0
 14  6  1  0
 15 14  1  0
 16 17  1  0
 16 15  2  0
 17 18  2  0
 18 14  1  0
 19 23  1  0
 19 17  1  0
 20 19  2  0
 21 20  1  0
 21 22  1  0
 22 23  2  0
 24 22  1  0
 24 28  1  0
 25 26  1  0
 25 24  1  0
 26 27  1  0
 27 28  1  0
  2 29  1  0
  3 30  1  0
  4 31  1  0
  5 32  1  0
  7 33  1  0
  8 34  1  0
 13 35  1  0
 13 36  1  0
 15 37  1  0
 24 38  1  0
 25 39  1  0
 25 40  1  0
 26 41  1  0
 26 42  1  0
 27 43  1  0
 27 44  1  0
 28 45  1  0
 28 46  1  0
M  ISO  8  29  14  30  14  31  14  32  14  33  14  34  14  37  14  38  13
M  ISO  8  39  13  40  13  41  13  42  13  43  13  44  13  45  13  46  13
M  END
>  <minimizedAffinity>  (1) 
-5.94324493

>  <minimizedRMSD>  (1) 
0.770670474

$$$$
