
     RDKit          3D

 39 43  0  0  0  0  0  0  0  0999 V2000
   45.8180   32.8890   46.3250 C   0  0  0  0  0  0  0  0  0  0  0  0
   45.5210   33.0460   47.6680 C   0  0  0  0  0  0  0  0  0  0  0  0
   45.7540   32.0380   48.5610 C   0  0  0  0  0  0  0  0  0  0  0  0
   46.2850   30.8420   48.1680 C   0  0  0  0  0  0  0  0  0  0  0  0
   46.5700   30.7320   46.7930 C   0  0  0  0  0  0  0  0  0  0  0  0
   46.3570   31.6980   45.8720 C   0  0  0  0  0  0  0  0  0  0  0  0
   44.4620   35.9320   44.8390 C   0  0  0  0  0  0  0  0  0  0  0  0
   45.1190   35.9960   43.5900 C   0  0  0  0  0  0  0  0  0  0  0  0
   46.0140   34.9880   43.2910 C   0  0  0  0  0  0  0  0  0  0  0  0
   46.2240   33.9840   44.2020 N   0  0  0  0  0  0  0  0  0  0  0  0
   45.5610   33.9790   45.3840 C   0  0  0  0  0  0  0  0  0  0  0  0
   44.6860   34.9450   45.7030 N   0  0  0  0  0  0  0  0  0  0  0  0
   46.7120   34.9900   42.0530 N   0  0  0  0  0  0  0  0  0  0  0  0
   46.6850   31.4700   44.5110 N   0  0  0  0  0  0  0  0  0  0  0  0
   45.9270   30.6050   43.8170 C   0  0  0  0  0  0  0  0  0  0  0  0
   46.3920   30.5220   42.5490 N   0  0  0  0  0  0  0  0  0  0  0  0
   47.4490   31.3480   42.4640 C   0  0  0  0  0  0  0  0  0  0  0  0
   47.6090   31.9150   43.6760 N   0  0  0  0  0  0  0  0  0  0  0  0
   48.3790   31.7130   41.3950 C   0  0  0  0  0  0  0  0  0  0  0  0
   48.3070   32.5610   40.3470 N   0  0  0  0  0  0  0  0  0  0  0  0
   49.4110   32.5350   39.6790 O   0  0  0  0  0  0  0  0  0  0  0  0
   50.2590   31.6860   40.2340 C   0  0  0  0  0  0  0  0  0  0  0  0
   49.6180   31.1810   41.2930 N   0  0  0  0  0  0  0  0  0  0  0  0
   51.6300   31.3830   39.7550 C   0  0  0  0  0  0  0  0  0  0  0  0
   51.9660   31.6190   38.4400 C   0  0  0  0  0  0  0  0  0  0  0  0
   53.7460   31.0890   38.3410 S   0  0  0  0  0  0  0  0  0  0  0  0
   53.6960   30.6290   40.1690 C   0  0  0  0  0  0  0  0  0  0  0  0
   52.6410   30.8890   40.4350 N   0  0  0  0  0  0  0  0  0  0  0  0
   45.0916   33.9951   48.0212 H   0  0  0  0  0  0  0  0  0  0  0  0
   45.5081   32.1933   49.6218 H   0  0  0  0  0  0  0  0  0  0  0  0
   46.4766   30.0222   48.8760 H   0  0  0  0  0  0  0  0  0  0  0  0
   47.0007   29.7833   46.4403 H   0  0  0  0  0  0  0  0  0  0  0  0
   43.7439   36.7216   45.1053 H   0  0  0  0  0  0  0  0  0  0  0  0
   44.9252   36.8165   42.8835 H   0  0  0  0  0  0  0  0  0  0  0  0
   47.3783   34.2350   41.8362 H   0  0  0  0  0  0  0  0  0  0  0  0
   46.5516   35.7464   41.3726 H   0  0  0  0  0  0  0  0  0  0  0  0
   45.0644   30.0515   44.2165 H   0  0  0  0  0  0  0  0  0  0  0  0
   51.3316   32.0249   37.6382 H   0  0  0  0  0  0  0  0  0  0  0  0
   54.4925   30.2150   40.8048 H   0  0  0  0  0  0  0  0  0  0  0  0
  1  2  2  0
  2  3  1  0
  4  3  2  0
  5  4  1  0
  6  1  1  0
  6  5  2  0
  7 12  2  0
  8  7  1  0
  9  8  2  0
  9 10  1  0
 10 11  2  0
 11 12  1  0
 11  1  1  0
 13  9  1  0
 14  6  1  0
 15 14  1  0
 16 15  2  0
 17 16  1  0
 17 18  2  0
 18 14  1  0
 19 17  1  0
 20 19  2  0
 21 22  1  0
 21 20  1  0
 22 23  2  0
 23 19  1  0
 24 22  1  0
 24 28  1  0
 25 24  2  0
 26 25  1  0
 26 27  1  0
 27 28  2  0
  2 29  1  0
  3 30  1  0
  4 31  1  0
  5 32  1  0
  7 33  1  0
  8 34  1  0
 13 35  1  0
 13 36  1  0
 15 37  1  0
 25 38  1  0
 27 39  1  0
M  ISO  8  29  14  30  14  31  14  32  14  33  14  34  14  37  14  38  14
M  ISO  1  39  14
M  END
>  <minimizedAffinity>  (1) 
-5.93688774

>  <minimizedRMSD>  (1) 
1.3893379

$$$$
