
     RDKit          3D

 40 44  0  0  0  0  0  0  0  0999 V2000
   45.7630   32.8760   46.2550 C   0  0  0  0  0  0  0  0  0  0  0  0
   45.6460   33.0770   47.6120 C   0  0  0  0  0  0  0  0  0  0  0  0
   45.8370   32.0590   48.5040 C   0  0  0  0  0  0  0  0  0  0  0  0
   46.1550   30.7850   48.0790 C   0  0  0  0  0  0  0  0  0  0  0  0
   46.2590   30.6460   46.6860 C   0  0  0  0  0  0  0  0  0  0  0  0
   46.0810   31.6170   45.7700 C   0  0  0  0  0  0  0  0  0  0  0  0
   44.4720   35.9410   44.7630 C   0  0  0  0  0  0  0  0  0  0  0  0
   45.1940   36.0290   43.5590 C   0  0  0  0  0  0  0  0  0  0  0  0
   46.1120   35.0400   43.2750 C   0  0  0  0  0  0  0  0  0  0  0  0
   46.2750   34.0240   44.1740 N   0  0  0  0  0  0  0  0  0  0  0  0
   45.5540   33.9830   45.3230 C   0  0  0  0  0  0  0  0  0  0  0  0
   44.6530   34.9380   45.6210 N   0  0  0  0  0  0  0  0  0  0  0  0
   46.8690   35.0620   42.0920 N   0  0  0  0  0  0  0  0  0  0  0  0
   46.2170   31.3370   44.3850 N   0  0  0  0  0  0  0  0  0  0  0  0
   45.2050   30.7580   43.7440 C   0  0  0  0  0  0  0  0  0  0  0  0
   45.5370   30.5800   42.4440 N   0  0  0  0  0  0  0  0  0  0  0  0
   46.7840   31.0610   42.2830 C   0  0  0  0  0  0  0  0  0  0  0  0
   47.1820   31.5220   43.4930 N   0  0  0  0  0  0  0  0  0  0  0  0
   47.6980   31.1670   41.1550 C   0  0  0  0  0  0  0  0  0  0  0  0
   47.5270   31.2320   39.8170 N   0  0  0  0  0  0  0  0  0  0  0  0
   48.6880   31.3210   39.2260 O   0  0  0  0  0  0  0  0  0  0  0  0
   49.6450   31.3190   40.1130 C   0  0  0  0  0  0  0  0  0  0  0  0
   49.0460   31.2250   41.3100 N   0  0  0  0  0  0  0  0  0  0  0  0
   51.0790   31.4030   39.8500 C   0  0  0  0  0  0  0  0  0  0  0  0
   51.6710   31.2300   38.6180 C   0  0  0  0  0  0  0  0  0  0  0  0
   53.0440   31.3960   38.8330 C   0  0  0  0  0  0  0  0  0  0  0  0
   53.2300   31.6580   40.1500 N   0  0  0  0  0  0  0  0  0  0  0  0
   52.0350   31.6610   40.7620 N   0  0  0  0  0  0  0  0  0  0  0  0
   45.3930   34.0797   47.9869 H   0  0  0  0  0  0  0  0  0  0  0  0
   45.7353   32.2590   49.5809 H   0  0  0  0  0  0  0  0  0  0  0  0
   46.3138   29.9476   48.7744 H   0  0  0  0  0  0  0  0  0  0  0  0
   46.5107   29.6452   46.3051 H   0  0  0  0  0  0  0  0  0  0  0  0
   43.7366   36.7230   45.0031 H   0  0  0  0  0  0  0  0  0  0  0  0
   45.0306   36.8646   42.8625 H   0  0  0  0  0  0  0  0  0  0  0  0
   47.5488   34.3120   41.9016 H   0  0  0  0  0  0  0  0  0  0  0  0
   46.7443   35.8281   41.4149 H   0  0  0  0  0  0  0  0  0  0  0  0
   44.2467   30.4687   44.2001 H   0  0  0  0  0  0  0  0  0  0  0  0
   51.1694   31.0078   37.6646 H   0  0  0  0  0  0  0  0  0  0  0  0
   53.8323   31.3262   38.0689 H   0  0  0  0  0  0  0  0  0  0  0  0
   54.1381   31.8269   40.6058 H   0  0  0  0  0  0  0  0  0  0  0  0
  1  2  2  0
  2  3  1  0
  4  3  2  0
  5  4  1  0
  6  1  1  0
  6  5  2  0
  7 12  2  0
  8  7  1  0
  9  8  2  0
  9 10  1  0
 10 11  2  0
 11 12  1  0
 11  1  1  0
 13  9  1  0
 14  6  1  0
 15 14  1  0
 16 15  2  0
 17 16  1  0
 17 18  2  0
 18 14  1  0
 19 23  1  0
 19 17  1  0
 20 19  2  0
 21 20  1  0
 21 22  1  0
 22 23  2  0
 24 22  1  0
 24 28  2  0
 25 26  2  0
 25 24  1  0
 26 27  1  0
 27 28  1  0
  2 29  1  0
  3 30  1  0
  4 31  1  0
  5 32  1  0
  7 33  1  0
  8 34  1  0
 13 35  1  0
 13 36  1  0
 15 37  1  0
 25 38  1  0
 26 39  1  0
 27 40  1  0
M  ISO  8  29  14  30  14  31  14  32  14  33  14  34  14  37  14  38  14
M  ISO  2  39  14  40   9
M  END
>  <minimizedAffinity>  (1) 
-5.76558924

>  <minimizedRMSD>  (1) 
1.44403648

$$$$
