
     RDKit          3D

 49 53  0  0  0  0  0  0  0  0999 V2000
   45.8090   32.9020   46.3060 C   0  0  0  0  0  0  0  0  0  0  0  0
   45.4750   33.0350   47.6380 C   0  0  0  0  0  0  0  0  0  0  0  0
   45.6960   32.0270   48.5290 C   0  0  0  0  0  0  0  0  0  0  0  0
   46.2640   30.8320   48.1350 C   0  0  0  0  0  0  0  0  0  0  0  0
   46.5820   30.7520   46.7740 C   0  0  0  0  0  0  0  0  0  0  0  0
   46.3820   31.7190   45.8560 C   0  0  0  0  0  0  0  0  0  0  0  0
   44.4530   35.9490   44.8160 C   0  0  0  0  0  0  0  0  0  0  0  0
   45.1340   36.0110   43.5850 C   0  0  0  0  0  0  0  0  0  0  0  0
   46.0400   35.0170   43.2870 C   0  0  0  0  0  0  0  0  0  0  0  0
   46.2420   34.0150   44.1900 N   0  0  0  0  0  0  0  0  0  0  0  0
   45.5640   33.9900   45.3670 C   0  0  0  0  0  0  0  0  0  0  0  0
   44.6750   34.9470   45.6830 N   0  0  0  0  0  0  0  0  0  0  0  0
   46.7530   35.0300   42.0650 N   0  0  0  0  0  0  0  0  0  0  0  0
   46.7520   31.5100   44.4970 N   0  0  0  0  0  0  0  0  0  0  0  0
   45.9180   30.8250   43.7030 C   0  0  0  0  0  0  0  0  0  0  0  0
   46.4540   30.7390   42.4590 N   0  0  0  0  0  0  0  0  0  0  0  0
   47.6480   31.3890   42.4960 C   0  0  0  0  0  0  0  0  0  0  0  0
   47.8060   31.8500   43.7500 N   0  0  0  0  0  0  0  0  0  0  0  0
   48.6860   31.6480   41.5060 C   0  0  0  0  0  0  0  0  0  0  0  0
   48.6920   32.2400   40.2950 N   0  0  0  0  0  0  0  0  0  0  0  0
   49.9000   32.2160   39.8050 O   0  0  0  0  0  0  0  0  0  0  0  0
   50.7140   31.6300   40.6410 C   0  0  0  0  0  0  0  0  0  0  0  0
   49.9820   31.2620   41.7190 N   0  0  0  0  0  0  0  0  0  0  0  0
   52.1650   31.4460   40.3720 C   0  0  0  0  0  0  0  0  0  0  0  0
   52.7540   30.3310   41.1930 C   0  0  0  0  0  0  0  0  0  0  0  0
   53.1000   29.1020   40.4210 C   0  0  0  0  0  0  0  0  0  0  0  0
   52.2100   28.8660   39.2330 C   0  0  0  0  0  0  0  0  0  0  0  0
   52.1610   30.0330   38.2920 C   0  0  0  0  0  0  0  0  0  0  0  0
   52.4590   31.3560   38.9100 C   0  0  0  0  0  0  0  0  0  0  0  0
   45.0210   33.9737   47.9884 H   0  0  0  0  0  0  0  0  0  0  0  0
   45.4160   32.1688   49.5833 H   0  0  0  0  0  0  0  0  0  0  0  0
   46.4523   30.0060   48.8367 H   0  0  0  0  0  0  0  0  0  0  0  0
   47.0366   29.8145   46.4213 H   0  0  0  0  0  0  0  0  0  0  0  0
   43.7268   36.7345   45.0721 H   0  0  0  0  0  0  0  0  0  0  0  0
   44.9471   36.8332   42.8785 H   0  0  0  0  0  0  0  0  0  0  0  0
   47.4276   34.2807   41.8544 H   0  0  0  0  0  0  0  0  0  0  0  0
   46.5974   35.7887   41.3860 H   0  0  0  0  0  0  0  0  0  0  0  0
   44.9514   30.3995   44.0108 H   0  0  0  0  0  0  0  0  0  0  0  0
   52.6847   32.3547   40.7101 H   0  0  0  0  0  0  0  0  0  0  0  0
   53.6717   30.7052   41.6703 H   0  0  0  0  0  0  0  0  0  0  0  0
   51.9791   30.0353   41.9156 H   0  0  0  0  0  0  0  0  0  0  0  0
   54.1368   29.1952   40.0655 H   0  0  0  0  0  0  0  0  0  0  0  0
   52.9651   28.2468   41.0995 H   0  0  0  0  0  0  0  0  0  0  0  0
   52.5844   27.9894   38.6840 H   0  0  0  0  0  0  0  0  0  0  0  0
   51.1900   28.7094   39.6139 H   0  0  0  0  0  0  0  0  0  0  0  0
   51.1511   30.0791   37.8585 H   0  0  0  0  0  0  0  0  0  0  0  0
   52.9503   29.8585   37.5460 H   0  0  0  0  0  0  0  0  0  0  0  0
   53.5279   31.5695   38.7623 H   0  0  0  0  0  0  0  0  0  0  0  0
   51.7983   32.0838   38.4163 H   0  0  0  0  0  0  0  0  0  0  0  0
  1  2  2  0
  2  3  1  0
  4  3  2  0
  5  4  1  0
  6  1  1  0
  6  5  2  0
  7 12  2  0
  8  7  1  0
  9  8  2  0
  9 10  1  0
 10 11  2  0
 11 12  1  0
 11  1  1  0
 13  9  1  0
 14  6  1  0
 15 14  1  0
 16 17  1  0
 16 15  2  0
 17 18  2  0
 18 14  1  0
 19 23  1  0
 19 17  1  0
 20 19  2  0
 21 20  1  0
 21 22  1  0
 22 23  2  0
 24 22  1  0
 24 25  1  0
 26 25  1  0
 27 26  1  0
 28 29  1  0
 28 27  1  0
 29 24  1  0
  2 30  1  0
  3 31  1  0
  4 32  1  0
  5 33  1  0
  7 34  1  0
  8 35  1  0
 13 36  1  0
 13 37  1  0
 15 38  1  0
 24 39  1  0
 25 40  1  0
 25 41  1  0
 26 42  1  0
 26 43  1  0
 27 44  1  0
 27 45  1  0
 28 46  1  0
 28 47  1  0
 29 48  1  0
 29 49  1  0
M  ISO  8  30  14  31  14  32  14  33  14  34  14  35  14  38  14  39  13
M  ISO  8  40  13  41  13  42  13  43  13  44  13  45  13  46  13  47  13
M  ISO  2  48  13  49  13
M  END
>  <minimizedAffinity>  (1) 
-5.77931929

>  <minimizedRMSD>  (1) 
0.844223678

$$$$
