
     RDKit          3D

 35 38  0  0  0  0  0  0  0  0999 V2000
   45.8120   32.9040   46.2890 C   0  0  0  0  0  0  0  0  0  0  0  0
   45.4970   33.0380   47.6280 C   0  0  0  0  0  0  0  0  0  0  0  0
   45.7210   32.0180   48.5160 C   0  0  0  0  0  0  0  0  0  0  0  0
   46.2690   30.8220   48.1140 C   0  0  0  0  0  0  0  0  0  0  0  0
   46.5690   30.7400   46.7480 C   0  0  0  0  0  0  0  0  0  0  0  0
   46.3690   31.7150   45.8230 C   0  0  0  0  0  0  0  0  0  0  0  0
   44.4550   35.9410   44.8070 C   0  0  0  0  0  0  0  0  0  0  0  0
   45.1420   36.0120   43.5800 C   0  0  0  0  0  0  0  0  0  0  0  0
   46.0570   35.0300   43.2710 C   0  0  0  0  0  0  0  0  0  0  0  0
   46.2580   34.0230   44.1750 N   0  0  0  0  0  0  0  0  0  0  0  0
   45.5690   33.9930   45.3540 C   0  0  0  0  0  0  0  0  0  0  0  0
   44.6770   34.9420   45.6660 N   0  0  0  0  0  0  0  0  0  0  0  0
   46.7780   35.0460   42.0590 N   0  0  0  0  0  0  0  0  0  0  0  0
   46.7190   31.5000   44.4670 N   0  0  0  0  0  0  0  0  0  0  0  0
   45.8560   30.8260   43.6930 C   0  0  0  0  0  0  0  0  0  0  0  0
   46.3740   30.7280   42.4400 N   0  0  0  0  0  0  0  0  0  0  0  0
   47.5680   31.3520   42.4580 C   0  0  0  0  0  0  0  0  0  0  0  0
   47.7550   31.8170   43.7130 N   0  0  0  0  0  0  0  0  0  0  0  0
   48.6110   31.6000   41.4540 C   0  0  0  0  0  0  0  0  0  0  0  0
   48.5840   32.0440   40.1780 N   0  0  0  0  0  0  0  0  0  0  0  0
   49.7850   32.0950   39.6990 O   0  0  0  0  0  0  0  0  0  0  0  0
   50.6430   31.6970   40.6130 C   0  0  0  0  0  0  0  0  0  0  0  0
   49.9240   31.3850   41.7130 N   0  0  0  0  0  0  0  0  0  0  0  0
   52.0930   31.5560   40.6200 C   0  0  0  0  0  0  0  0  0  0  0  0
   52.8320   31.4550   39.5960 O   0  0  0  0  0  0  0  0  0  0  0  0
   45.0585   33.9805   47.9878 H   0  0  0  0  0  0  0  0  0  0  0  0
   45.4565   32.1591   49.5744 H   0  0  0  0  0  0  0  0  0  0  0  0
   46.4573   29.9930   48.8121 H   0  0  0  0  0  0  0  0  0  0  0  0
   47.0081   29.7969   46.3904 H   0  0  0  0  0  0  0  0  0  0  0  0
   43.7231   36.7213   45.0627 H   0  0  0  0  0  0  0  0  0  0  0  0
   44.9510   36.8384   42.8795 H   0  0  0  0  0  0  0  0  0  0  0  0
   47.4564   34.2987   41.8534 H   0  0  0  0  0  0  0  0  0  0  0  0
   46.6262   35.8050   41.3794 H   0  0  0  0  0  0  0  0  0  0  0  0
   44.8874   30.4190   44.0187 H   0  0  0  0  0  0  0  0  0  0  0  0
   52.5901   31.5354   41.6011 H   0  0  0  0  0  0  0  0  0  0  0  0
  1  2  2  0
  2  3  1  0
  4  3  2  0
  5  4  1  0
  6  1  1  0
  6  5  2  0
  7 12  2  0
  8  7  1  0
  9  8  2  0
  9 10  1  0
 10 11  2  0
 11 12  1  0
 11  1  1  0
 13  9  1  0
 14  6  1  0
 15 14  1  0
 16 17  1  0
 16 15  2  0
 17 18  2  0
 18 14  1  0
 19 23  1  0
 19 17  1  0
 20 19  2  0
 21 20  1  0
 21 22  1  0
 22 24  1  0
 22 23  2  0
 25 24  2  0
  2 26  1  0
  3 27  1  0
  4 28  1  0
  5 29  1  0
  7 30  1  0
  8 31  1  0
 13 32  1  0
 13 33  1  0
 15 34  1  0
 24 35  1  0
M  ISO  8  26  14  27  14  28  14  29  14  30  14  31  14  34  14  35   6
M  END
>  <minimizedAffinity>  (1) 
-5.47011948

>  <minimizedRMSD>  (1) 
0.558470249

$$$$
