
     RDKit          3D

 29 30  0  0  0  0  0  0  0  0999 V2000
   46.4590   34.4930   43.5150 C   0  0  0  0  0  0  0  0  0  0  0  0
   46.1560   33.8740   44.7320 C   0  0  0  0  0  0  0  0  0  0  0  0
   45.1370   34.4340   45.4910 C   0  0  0  0  0  0  0  0  0  0  0  0
   44.4950   35.5410   45.0190 N   0  0  0  0  0  0  0  0  0  0  0  0
   44.8070   36.1150   43.8480 C   0  0  0  0  0  0  0  0  0  0  0  0
   45.7770   35.5970   43.1030 N   0  0  0  0  0  0  0  0  0  0  0  0
   47.5110   34.0510   42.5450 C   0  0  0  0  0  0  0  0  0  0  0  0
   48.2900   35.2180   42.0230 C   0  0  0  0  0  0  0  0  0  0  0  0
   48.4680   35.0570   40.5530 C   0  0  0  0  0  0  0  0  0  0  0  0
   47.3290   34.1860   40.1380 C   0  0  0  0  0  0  0  0  0  0  0  0
   46.8780   33.3920   41.3330 C   0  0  0  0  0  0  0  0  0  0  0  0
   46.9190   32.7100   45.0950 C   0  0  0  0  0  0  0  0  0  0  0  0
   46.8400   32.5480   46.6190 C   0  0  0  0  0  0  0  0  0  0  0  0
   44.8521   33.9921   46.4572 H   0  0  0  0  0  0  0  0  0  0  0  0
   44.2635   37.0084   43.5068 H   0  0  0  0  0  0  0  0  0  0  0  0
   48.1640   33.3529   43.0894 H   0  0  0  0  0  0  0  0  0  0  0  0
   47.7430   36.1498   42.2294 H   0  0  0  0  0  0  0  0  0  0  0  0
   49.2724   35.2623   42.5159 H   0  0  0  0  0  0  0  0  0  0  0  0
   48.4187   36.0316   40.0453 H   0  0  0  0  0  0  0  0  0  0  0  0
   49.4452   34.6244   40.2924 H   0  0  0  0  0  0  0  0  0  0  0  0
   46.4997   34.8087   39.7713 H   0  0  0  0  0  0  0  0  0  0  0  0
   47.6461   33.5081   39.3318 H   0  0  0  0  0  0  0  0  0  0  0  0
   45.7813   33.4168   41.4151 H   0  0  0  0  0  0  0  0  0  0  0  0
   47.1780   32.3371   41.2488 H   0  0  0  0  0  0  0  0  0  0  0  0
   46.4996   31.8202   44.6027 H   0  0  0  0  0  0  0  0  0  0  0  0
   47.9656   32.8243   44.7764 H   0  0  0  0  0  0  0  0  0  0  0  0
   47.2726   33.4350   47.1049 H   0  0  0  0  0  0  0  0  0  0  0  0
   45.7881   32.4401   46.9222 H   0  0  0  0  0  0  0  0  0  0  0  0
   47.4027   31.6528   46.9222 H   0  0  0  0  0  0  0  0  0  0  0  0
  1  2  2  0
  2 12  1  0
  2  3  1  0
  4  3  2  0
  5  4  1  0
  6  1  1  0
  6  5  2  0
  7  1  1  0
  8  7  1  0
  9  8  1  0
 10  9  1  0
 10 11  1  0
 11  7  1  0
 12 13  1  0
  3 14  1  0
  5 15  1  0
  7 16  1  0
  8 17  1  0
  8 18  1  0
  9 19  1  0
  9 20  1  0
 10 21  1  0
 10 22  1  0
 11 23  1  0
 11 24  1  0
 12 25  1  0
 12 26  1  0
 13 27  1  0
 13 28  1  0
 13 29  1  0
M  ISO  8  14  14  15  14  16  13  17  13  18  13  19  13  20  13  21  13
M  ISO  8  22  13  23  13  24  13  25   8  26   8  27   8  28   8  29   8
M  END
>  <minimizedAffinity>  (1) 
-4.63567591

>  <minimizedRMSD>  (1) 
4.43575287

$$$$
