
     RDKit          3D

 43 46  0  0  0  0  0  0  0  0999 V2000
   46.5160   34.5660   43.3270 C   0  0  0  0  0  0  0  0  0  0  0  0
   46.1780   33.9680   44.5360 C   0  0  0  0  0  0  0  0  0  0  0  0
   45.1450   34.5150   45.2620 C   0  0  0  0  0  0  0  0  0  0  0  0
   44.4990   35.6090   44.7750 N   0  0  0  0  0  0  0  0  0  0  0  0
   44.8300   36.1800   43.6080 C   0  0  0  0  0  0  0  0  0  0  0  0
   45.8250   35.6700   42.8880 N   0  0  0  0  0  0  0  0  0  0  0  0
   47.6240   34.1700   42.4020 C   0  0  0  0  0  0  0  0  0  0  0  0
   48.3410   35.3320   41.8430 C   0  0  0  0  0  0  0  0  0  0  0  0
   48.5670   35.1370   40.3920 C   0  0  0  0  0  0  0  0  0  0  0  0
   47.4870   34.1810   39.9900 C   0  0  0  0  0  0  0  0  0  0  0  0
   47.0240   33.4260   41.1950 C   0  0  0  0  0  0  0  0  0  0  0  0
   46.9270   32.8160   44.9260 C   0  0  0  0  0  0  0  0  0  0  0  0
   46.0020   31.8220   45.6330 C   0  0  0  0  0  0  0  0  0  0  0  0
   46.3710   31.7590   47.0960 C   0  0  0  0  0  0  0  0  0  0  0  0
   45.8050   32.3610   48.2000 C   0  0  0  0  0  0  0  0  0  0  0  0
   46.5280   31.9700   49.2820 N   0  0  0  0  0  0  0  0  0  0  0  0
   47.5360   31.1370   48.8920 C   0  0  0  0  0  0  0  0  0  0  0  0
   48.5300   30.4770   49.5730 C   0  0  0  0  0  0  0  0  0  0  0  0
   49.4620   29.6640   48.9310 C   0  0  0  0  0  0  0  0  0  0  0  0
   49.3460   29.5460   47.5690 C   0  0  0  0  0  0  0  0  0  0  0  0
   48.3580   30.1980   46.8620 C   0  0  0  0  0  0  0  0  0  0  0  0
   47.4380   31.0070   47.5380 C   0  0  0  0  0  0  0  0  0  0  0  0
   44.8453   34.0735   46.2239 H   0  0  0  0  0  0  0  0  0  0  0  0
   44.2826   37.0639   43.2487 H   0  0  0  0  0  0  0  0  0  0  0  0
   48.3203   33.5549   42.9910 H   0  0  0  0  0  0  0  0  0  0  0  0
   47.7407   36.2404   41.9994 H   0  0  0  0  0  0  0  0  0  0  0  0
   49.3121   35.4352   42.3493 H   0  0  0  0  0  0  0  0  0  0  0  0
   48.4708   36.0886   39.8486 H   0  0  0  0  0  0  0  0  0  0  0  0
   49.5754   34.7612   40.1643 H   0  0  0  0  0  0  0  0  0  0  0  0
   46.6430   34.7396   39.5593 H   0  0  0  0  0  0  0  0  0  0  0  0
   47.8774   33.4768   39.2405 H   0  0  0  0  0  0  0  0  0  0  0  0
   45.9254   33.4266   41.2504 H   0  0  0  0  0  0  0  0  0  0  0  0
   47.3427   32.3736   41.1646 H   0  0  0  0  0  0  0  0  0  0  0  0
   47.3616   32.3417   44.0337 H   0  0  0  0  0  0  0  0  0  0  0  0
   47.7337   33.1173   45.6105 H   0  0  0  0  0  0  0  0  0  0  0  0
   44.9580   32.1530   45.5303 H   0  0  0  0  0  0  0  0  0  0  0  0
   46.1122   30.8259   45.1796 H   0  0  0  0  0  0  0  0  0  0  0  0
   44.9328   33.0313   48.2040 H   0  0  0  0  0  0  0  0  0  0  0  0
   46.3426   32.2595   50.2529 H   0  0  0  0  0  0  0  0  0  0  0  0
   48.5924   30.5946   50.6649 H   0  0  0  0  0  0  0  0  0  0  0  0
   50.2529   29.1418   49.4894 H   0  0  0  0  0  0  0  0  0  0  0  0
   50.0623   28.9126   47.0251 H   0  0  0  0  0  0  0  0  0  0  0  0
   48.2932   30.0825   45.7700 H   0  0  0  0  0  0  0  0  0  0  0  0
  1  2  1  0
  2 12  1  0
  2  3  2  0
  4  3  1  0
  5  4  2  0
  6  1  2  0
  6  5  1  0
  7  1  1  0
  8  7  1  0
  9  8  1  0
 10  9  1  0
 10 11  1  0
 11  7  1  0
 12 13  1  0
 13 14  1  0
 14 22  1  0
 14 15  2  0
 15 16  1  0
 17 16  1  0
 17 18  2  0
 19 18  1  0
 20 19  2  0
 21 22  2  0
 21 20  1  0
 22 17  1  0
  3 23  1  0
  5 24  1  0
  7 25  1  0
  8 26  1  0
  8 27  1  0
  9 28  1  0
  9 29  1  0
 10 30  1  0
 10 31  1  0
 11 32  1  0
 11 33  1  0
 12 34  1  0
 12 35  1  0
 13 36  1  0
 13 37  1  0
 15 38  1  0
 16 39  1  0
 18 40  1  0
 19 41  1  0
 20 42  1  0
 21 43  1  0
M  ISO  8  23  14  24  14  25  13  26  13  27  13  28  13  29  13  30  13
M  ISO  8  31  13  32  13  33  13  34   8  35   8  36   8  37   8  38  14
M  ISO  5  39   9  40  14  41  14  42  14  43  14
M  END
>  <minimizedAffinity>  (1) 
-6.31723976

>  <minimizedRMSD>  (1) 
2.10499287

$$$$
