
     RDKit          3D

 40 43  0  0  0  0  0  0  0  0999 V2000
   46.4320   34.5800   43.4180 C   0  0  0  0  0  0  0  0  0  0  0  0
   46.0870   34.0290   44.6470 C   0  0  0  0  0  0  0  0  0  0  0  0
   45.0690   34.6200   45.3620 C   0  0  0  0  0  0  0  0  0  0  0  0
   44.4500   35.7090   44.8420 N   0  0  0  0  0  0  0  0  0  0  0  0
   44.7870   36.2370   43.6570 C   0  0  0  0  0  0  0  0  0  0  0  0
   45.7620   35.6850   42.9520 N   0  0  0  0  0  0  0  0  0  0  0  0
   47.5300   34.1420   42.4910 C   0  0  0  0  0  0  0  0  0  0  0  0
   48.3010   35.2780   41.9520 C   0  0  0  0  0  0  0  0  0  0  0  0
   48.5230   35.0530   40.4890 C   0  0  0  0  0  0  0  0  0  0  0  0
   47.4040   34.1700   40.0790 C   0  0  0  0  0  0  0  0  0  0  0  0
   46.8950   33.4250   41.2860 C   0  0  0  0  0  0  0  0  0  0  0  0
   46.8310   32.8600   45.0540 C   0  0  0  0  0  0  0  0  0  0  0  0
   46.6740   32.6740   46.5600 C   0  0  0  0  0  0  0  0  0  0  0  0
   47.2320   31.3350   46.8160 N   0  0  0  0  0  0  0  0  0  0  0  0
   47.0150   30.2250   46.0910 C   0  0  0  0  0  0  0  0  0  0  0  0
   47.6740   29.1720   46.5970 N   0  0  0  0  0  0  0  0  0  0  0  0
   48.3420   29.6320   47.6950 C   0  0  0  0  0  0  0  0  0  0  0  0
   49.1780   29.0850   48.6360 C   0  0  0  0  0  0  0  0  0  0  0  0
   49.6830   29.8490   49.6260 N   0  0  0  0  0  0  0  0  0  0  0  0
   49.3690   31.1740   49.7000 C   0  0  0  0  0  0  0  0  0  0  0  0
   48.5530   31.7500   48.7970 N   0  0  0  0  0  0  0  0  0  0  0  0
   48.0580   30.9760   47.8160 C   0  0  0  0  0  0  0  0  0  0  0  0
   44.7632   34.2157   46.3382 H   0  0  0  0  0  0  0  0  0  0  0  0
   44.2577   37.1217   43.2735 H   0  0  0  0  0  0  0  0  0  0  0  0
   48.2052   33.4937   43.0688 H   0  0  0  0  0  0  0  0  0  0  0  0
   47.7393   36.2117   42.1023 H   0  0  0  0  0  0  0  0  0  0  0  0
   49.2676   35.3563   42.4712 H   0  0  0  0  0  0  0  0  0  0  0  0
   48.4895   36.0051   39.9390 H   0  0  0  0  0  0  0  0  0  0  0  0
   49.5071   34.6096   40.2770 H   0  0  0  0  0  0  0  0  0  0  0  0
   46.5926   34.7779   39.6523 H   0  0  0  0  0  0  0  0  0  0  0  0
   47.7561   33.4530   39.3227 H   0  0  0  0  0  0  0  0  0  0  0  0
   45.7975   33.4775   41.3388 H   0  0  0  0  0  0  0  0  0  0  0  0
   47.1571   32.3572   41.2544 H   0  0  0  0  0  0  0  0  0  0  0  0
   46.4426   31.9742   44.5301 H   0  0  0  0  0  0  0  0  0  0  0  0
   47.8942   32.9889   44.8032 H   0  0  0  0  0  0  0  0  0  0  0  0
   47.2366   33.4432   47.1093 H   0  0  0  0  0  0  0  0  0  0  0  0
   45.6289   32.7664   46.8904 H   0  0  0  0  0  0  0  0  0  0  0  0
   46.3774   30.1848   45.1955 H   0  0  0  0  0  0  0  0  0  0  0  0
   49.4376   28.0174   48.5824 H   0  0  0  0  0  0  0  0  0  0  0  0
   49.7903   31.7838   50.5128 H   0  0  0  0  0  0  0  0  0  0  0  0
  1  2  1  0
  2 12  1  0
  2  3  2  0
  4  3  1  0
  5  4  2  0
  6  1  2  0
  6  5  1  0
  7  1  1  0
  8  7  1  0
  9  8  1  0
 10  9  1  0
 10 11  1  0
 11  7  1  0
 12 13  1  0
 13 14  1  0
 14 22  1  0
 15 16  2  0
 15 14  1  0
 16 17  1  0
 17 22  2  0
 17 18  1  0
 18 19  2  0
 19 20  1  0
 21 20  2  0
 22 21  1  0
  3 23  1  0
  5 24  1  0
  7 25  1  0
  8 26  1  0
  8 27  1  0
  9 28  1  0
  9 29  1  0
 10 30  1  0
 10 31  1  0
 11 32  1  0
 11 33  1  0
 12 34  1  0
 12 35  1  0
 13 36  1  0
 13 37  1  0
 15 38  1  0
 18 39  1  0
 20 40  1  0
M  ISO  8  23  14  24  14  25  13  26  13  27  13  28  13  29  13  30  13
M  ISO  8  31  13  32  13  33  13  34   8  35   8  36   8  37   8  38  14
M  ISO  2  39  14  40  14
M  END
>  <minimizedAffinity>  (1) 
-5.82889414

>  <minimizedRMSD>  (1) 
1.12937105

$$$$
