
     RDKit          3D

 37 39  0  0  0  0  0  0  0  0999 V2000
   46.2590   34.6190   43.4470 C   0  0  0  0  0  0  0  0  0  0  0  0
   45.8190   34.0920   44.6590 C   0  0  0  0  0  0  0  0  0  0  0  0
   44.8680   34.8050   45.3540 C   0  0  0  0  0  0  0  0  0  0  0  0
   44.4020   35.9700   44.8460 N   0  0  0  0  0  0  0  0  0  0  0  0
   44.8330   36.4690   43.6770 C   0  0  0  0  0  0  0  0  0  0  0  0
   45.7450   35.8080   42.9870 N   0  0  0  0  0  0  0  0  0  0  0  0
   47.3080   34.0490   42.5320 C   0  0  0  0  0  0  0  0  0  0  0  0
   48.2280   35.0760   42.0130 C   0  0  0  0  0  0  0  0  0  0  0  0
   48.4470   34.8580   40.5610 C   0  0  0  0  0  0  0  0  0  0  0  0
   47.2190   34.1570   40.1100 C   0  0  0  0  0  0  0  0  0  0  0  0
   46.6020   33.4630   41.2910 C   0  0  0  0  0  0  0  0  0  0  0  0
   46.4020   32.8500   45.0630 C   0  0  0  0  0  0  0  0  0  0  0  0
   46.9520   32.9970   46.4770 C   0  0  0  0  0  0  0  0  0  0  0  0
   46.2390   31.9320   47.2840 C   0  0  0  0  0  0  0  0  0  0  0  0
   45.8170   30.7110   46.7980 C   0  0  0  0  0  0  0  0  0  0  0  0
   45.1780   29.8360   47.6510 C   0  0  0  0  0  0  0  0  0  0  0  0
   44.9490   30.1390   48.9600 N   0  0  0  0  0  0  0  0  0  0  0  0
   45.3670   31.3340   49.4190 C   0  0  0  0  0  0  0  0  0  0  0  0
   45.9920   32.1950   48.5960 N   0  0  0  0  0  0  0  0  0  0  0  0
   44.4892   34.4302   46.3163 H   0  0  0  0  0  0  0  0  0  0  0  0
   44.4305   37.4196   43.2970 H   0  0  0  0  0  0  0  0  0  0  0  0
   47.8729   33.3073   43.1158 H   0  0  0  0  0  0  0  0  0  0  0  0
   47.7914   36.0731   42.1721 H   0  0  0  0  0  0  0  0  0  0  0  0
   49.1897   35.0072   42.5426 H   0  0  0  0  0  0  0  0  0  0  0  0
   48.5641   35.8173   40.0356 H   0  0  0  0  0  0  0  0  0  0  0  0
   49.3613   34.2825   40.3541 H   0  0  0  0  0  0  0  0  0  0  0  0
   46.5073   34.8860   39.6952 H   0  0  0  0  0  0  0  0  0  0  0  0
   47.4705   33.4218   39.3314 H   0  0  0  0  0  0  0  0  0  0  0  0
   45.5214   33.6642   41.3332 H   0  0  0  0  0  0  0  0  0  0  0  0
   46.7237   32.3714   41.2310 H   0  0  0  0  0  0  0  0  0  0  0  0
   45.6366   32.0602   45.0452 H   0  0  0  0  0  0  0  0  0  0  0  0
   47.2156   32.5796   44.3739 H   0  0  0  0  0  0  0  0  0  0  0  0
   48.0390   32.8290   46.4890 H   0  0  0  0  0  0  0  0  0  0  0  0
   46.7861   34.0056   46.8835 H   0  0  0  0  0  0  0  0  0  0  0  0
   45.9879   30.4399   45.7457 H   0  0  0  0  0  0  0  0  0  0  0  0
   44.8426   28.8630   47.2628 H   0  0  0  0  0  0  0  0  0  0  0  0
   45.1967   31.6070   50.4709 H   0  0  0  0  0  0  0  0  0  0  0  0
  1  2  1  0
  2 12  1  0
  2  3  2  0
  4  3  1  0
  5  4  2  0
  6  1  2  0
  6  5  1  0
  7  1  1  0
  8  7  1  0
  9  8  1  0
 10  9  1  0
 10 11  1  0
 11  7  1  0
 12 13  1  0
 13 14  1  0
 14 19  1  0
 15 14  2  0
 15 16  1  0
 16 17  2  0
 17 18  1  0
 19 18  2  0
  3 20  1  0
  5 21  1  0
  7 22  1  0
  8 23  1  0
  8 24  1  0
  9 25  1  0
  9 26  1  0
 10 27  1  0
 10 28  1  0
 11 29  1  0
 11 30  1  0
 12 31  1  0
 12 32  1  0
 13 33  1  0
 13 34  1  0
 15 35  1  0
 16 36  1  0
 18 37  1  0
M  ISO  8  20  14  21  14  22  13  23  13  24  13  25  13  26  13  27  13
M  ISO  8  28  13  29  13  30  13  31   8  32   8  33   8  34   8  35  14
M  ISO  2  36  14  37  14
M  END
>  <minimizedAffinity>  (1) 
-5.62352514

>  <minimizedRMSD>  (1) 
1.95385516

$$$$
