
     RDKit          3D

 36 38  0  0  0  0  0  0  0  0999 V2000
   46.2300   34.4210   43.7290 C   0  0  0  0  0  0  0  0  0  0  0  0
   45.8980   33.8760   44.9700 C   0  0  0  0  0  0  0  0  0  0  0  0
   44.9710   34.5510   45.7310 C   0  0  0  0  0  0  0  0  0  0  0  0
   44.4230   35.6960   45.2620 N   0  0  0  0  0  0  0  0  0  0  0  0
   44.7510   36.2110   44.0640 C   0  0  0  0  0  0  0  0  0  0  0  0
   45.6390   35.5860   43.3090 N   0  0  0  0  0  0  0  0  0  0  0  0
   47.2280   33.8770   42.7530 C   0  0  0  0  0  0  0  0  0  0  0  0
   48.1780   34.9030   42.2860 C   0  0  0  0  0  0  0  0  0  0  0  0
   48.3580   34.8070   40.8180 C   0  0  0  0  0  0  0  0  0  0  0  0
   47.0850   34.1670   40.3490 C   0  0  0  0  0  0  0  0  0  0  0  0
   46.4690   33.4220   41.4860 C   0  0  0  0  0  0  0  0  0  0  0  0
   46.5470   32.6680   45.3490 C   0  0  0  0  0  0  0  0  0  0  0  0
   47.0260   32.7810   46.7910 C   0  0  0  0  0  0  0  0  0  0  0  0
   46.2210   31.8840   47.6480 N   0  0  0  0  0  0  0  0  0  0  0  0
   45.7560   30.6650   47.2740 C   0  0  0  0  0  0  0  0  0  0  0  0
   45.0510   30.1530   48.3620 C   0  0  0  0  0  0  0  0  0  0  0  0
   45.1180   31.0860   49.3550 N   0  0  0  0  0  0  0  0  0  0  0  0
   45.8250   32.1380   48.9270 C   0  0  0  0  0  0  0  0  0  0  0  0
   44.6767   34.1613   46.7166 H   0  0  0  0  0  0  0  0  0  0  0  0
   44.2848   37.1441   43.7149 H   0  0  0  0  0  0  0  0  0  0  0  0
   47.7701   33.0688   43.2658 H   0  0  0  0  0  0  0  0  0  0  0  0
   47.7888   35.9001   42.5395 H   0  0  0  0  0  0  0  0  0  0  0  0
   49.1490   34.7416   42.7769 H   0  0  0  0  0  0  0  0  0  0  0  0
   48.4841   35.8044   40.3715 H   0  0  0  0  0  0  0  0  0  0  0  0
   49.2542   34.2363   40.5331 H   0  0  0  0  0  0  0  0  0  0  0  0
   46.3898   34.9433   39.9967 H   0  0  0  0  0  0  0  0  0  0  0  0
   47.2998   33.4734   39.5227 H   0  0  0  0  0  0  0  0  0  0  0  0
   45.4005   33.6691   41.5709 H   0  0  0  0  0  0  0  0  0  0  0  0
   46.5411   32.3339   41.3416 H   0  0  0  0  0  0  0  0  0  0  0  0
   45.8408   31.8291   45.2616 H   0  0  0  0  0  0  0  0  0  0  0  0
   47.4088   32.4914   44.6886 H   0  0  0  0  0  0  0  0  0  0  0  0
   48.0855   32.4911   46.8495 H   0  0  0  0  0  0  0  0  0  0  0  0
   46.9111   33.8192   47.1359 H   0  0  0  0  0  0  0  0  0  0  0  0
   45.9064   30.1756   46.3004 H   0  0  0  0  0  0  0  0  0  0  0  0
   44.5380   29.1812   48.4107 H   0  0  0  0  0  0  0  0  0  0  0  0
   46.0473   33.0471   49.5051 H   0  0  0  0  0  0  0  0  0  0  0  0
  1  2  1  0
  2 12  1  0
  2  3  2  0
  4  3  1  0
  5  4  2  0
  6  1  2  0
  6  5  1  0
  7  1  1  0
  8  7  1  0
  9  8  1  0
 10  9  1  0
 10 11  1  0
 11  7  1  0
 12 13  1  0
 13 14  1  0
 14 18  1  0
 15 14  1  0
 15 16  2  0
 16 17  1  0
 18 17  2  0
  3 19  1  0
  5 20  1  0
  7 21  1  0
  8 22  1  0
  8 23  1  0
  9 24  1  0
  9 25  1  0
 10 26  1  0
 10 27  1  0
 11 28  1  0
 11 29  1  0
 12 30  1  0
 12 31  1  0
 13 32  1  0
 13 33  1  0
 15 34  1  0
 16 35  1  0
 18 36  1  0
M  ISO  8  19  14  20  14  21  13  22  13  23  13  24  13  25  13  26  13
M  ISO  8  27  13  28  13  29  13  30   8  31   8  32   8  33   8  34  14
M  ISO  2  35  14  36  14
M  END
>  <minimizedAffinity>  (1) 
-5.40583038

>  <minimizedRMSD>  (1) 
1.79749703

$$$$
