
     RDKit          3D

 36 38  0  0  0  0  0  0  0  0999 V2000
   46.4680   34.4560   43.5230 C   0  0  0  0  0  0  0  0  0  0  0  0
   46.1850   33.8610   44.7450 C   0  0  0  0  0  0  0  0  0  0  0  0
   45.1810   34.4150   45.5080 C   0  0  0  0  0  0  0  0  0  0  0  0
   44.5130   35.5010   45.0530 N   0  0  0  0  0  0  0  0  0  0  0  0
   44.7930   36.0690   43.8700 C   0  0  0  0  0  0  0  0  0  0  0  0
   45.7550   35.5570   43.1140 N   0  0  0  0  0  0  0  0  0  0  0  0
   47.5470   34.0670   42.5550 C   0  0  0  0  0  0  0  0  0  0  0  0
   48.2840   35.2340   42.0290 C   0  0  0  0  0  0  0  0  0  0  0  0
   48.4670   35.0790   40.5610 C   0  0  0  0  0  0  0  0  0  0  0  0
   47.3390   34.1830   40.1470 C   0  0  0  0  0  0  0  0  0  0  0  0
   46.8890   33.3970   41.3360 C   0  0  0  0  0  0  0  0  0  0  0  0
   46.9540   32.7050   45.0970 C   0  0  0  0  0  0  0  0  0  0  0  0
   46.0260   31.6330   45.6610 C   0  0  0  0  0  0  0  0  0  0  0  0
   46.6080   31.2530   47.0040 C   0  0  0  0  0  0  0  0  0  0  0  0
   47.4060   32.1240   47.7500 C   0  0  0  0  0  0  0  0  0  0  0  0
   47.7760   31.4860   48.9170 C   0  0  0  0  0  0  0  0  0  0  0  0
   47.1930   30.2540   48.8420 N   0  0  0  0  0  0  0  0  0  0  0  0
   46.5090   30.1240   47.7180 N   0  0  0  0  0  0  0  0  0  0  0  0
   44.9229   33.9767   46.4833 H   0  0  0  0  0  0  0  0  0  0  0  0
   44.2300   36.9509   43.5304 H   0  0  0  0  0  0  0  0  0  0  0  0
   48.2423   33.4079   43.0955 H   0  0  0  0  0  0  0  0  0  0  0  0
   47.7130   36.1517   42.2332 H   0  0  0  0  0  0  0  0  0  0  0  0
   49.2671   35.2999   42.5180 H   0  0  0  0  0  0  0  0  0  0  0  0
   48.3992   36.0527   40.0537 H   0  0  0  0  0  0  0  0  0  0  0  0
   49.4527   34.6672   40.2986 H   0  0  0  0  0  0  0  0  0  0  0  0
   46.5041   34.7904   39.7675 H   0  0  0  0  0  0  0  0  0  0  0  0
   47.6752   33.5006   39.3525 H   0  0  0  0  0  0  0  0  0  0  0  0
   45.7932   33.4311   41.4253 H   0  0  0  0  0  0  0  0  0  0  0  0
   47.1745   32.3380   41.2529 H   0  0  0  0  0  0  0  0  0  0  0  0
   47.4632   32.3164   44.2027 H   0  0  0  0  0  0  0  0  0  0  0  0
   47.7036   32.9783   45.8543 H   0  0  0  0  0  0  0  0  0  0  0  0
   45.0084   32.0323   45.7832 H   0  0  0  0  0  0  0  0  0  0  0  0
   45.9536   30.7647   44.9896 H   0  0  0  0  0  0  0  0  0  0  0  0
   47.6912   33.1452   47.4571 H   0  0  0  0  0  0  0  0  0  0  0  0
   48.4029   31.8832   49.7289 H   0  0  0  0  0  0  0  0  0  0  0  0
   47.2749   29.5239   49.5639 H   0  0  0  0  0  0  0  0  0  0  0  0
  1  2  1  0
  2 12  1  0
  2  3  2  0
  4  3  1  0
  5  4  2  0
  6  1  2  0
  6  5  1  0
  7  1  1  0
  8  7  1  0
  9  8  1  0
 10  9  1  0
 10 11  1  0
 11  7  1  0
 12 13  1  0
 13 14  1  0
 14 18  2  0
 14 15  1  0
 15 16  2  0
 17 16  1  0
 18 17  1  0
  3 19  1  0
  5 20  1  0
  7 21  1  0
  8 22  1  0
  8 23  1  0
  9 24  1  0
  9 25  1  0
 10 26  1  0
 10 27  1  0
 11 28  1  0
 11 29  1  0
 12 30  1  0
 12 31  1  0
 13 32  1  0
 13 33  1  0
 15 34  1  0
 16 35  1  0
 17 36  1  0
M  ISO  8  19  14  20  14  21  13  22  13  23  13  24  13  25  13  26  13
M  ISO  8  27  13  28  13  29  13  30   8  31   8  32   8  33   8  34  14
M  ISO  2  35  14  36   9
M  END
>  <minimizedAffinity>  (1) 
-5.49040794

>  <minimizedRMSD>  (1) 
1.07455468

$$$$
