
     RDKit          3D

 34 36  0  0  0  0  0  0  0  0999 V2000
   46.4630   34.4820   43.5180 C   0  0  0  0  0  0  0  0  0  0  0  0
   46.1570   33.8660   44.7290 C   0  0  0  0  0  0  0  0  0  0  0  0
   45.1520   34.4200   45.4910 C   0  0  0  0  0  0  0  0  0  0  0  0
   44.5070   35.5250   45.0440 N   0  0  0  0  0  0  0  0  0  0  0  0
   44.8070   36.1110   43.8740 C   0  0  0  0  0  0  0  0  0  0  0  0
   45.7720   35.5990   43.1190 N   0  0  0  0  0  0  0  0  0  0  0  0
   47.5380   34.0760   42.5570 C   0  0  0  0  0  0  0  0  0  0  0  0
   48.2780   35.2320   42.0130 C   0  0  0  0  0  0  0  0  0  0  0  0
   48.4650   35.0670   40.5540 C   0  0  0  0  0  0  0  0  0  0  0  0
   47.3290   34.1850   40.1440 C   0  0  0  0  0  0  0  0  0  0  0  0
   46.8730   33.4100   41.3360 C   0  0  0  0  0  0  0  0  0  0  0  0
   46.9030   32.7060   45.0850 C   0  0  0  0  0  0  0  0  0  0  0  0
   46.1390   31.9130   46.1410 C   0  0  0  0  0  0  0  0  0  0  0  0
   47.0410   31.5970   47.2960 C   0  0  0  0  0  0  0  0  0  0  0  0
   47.6740   32.4820   48.0690 N   0  0  0  0  0  0  0  0  0  0  0  0
   48.3600   31.8520   48.9610 O   0  0  0  0  0  0  0  0  0  0  0  0
   48.1770   30.5610   48.7740 C   0  0  0  0  0  0  0  0  0  0  0  0
   47.3520   30.3590   47.7340 N   0  0  0  0  0  0  0  0  0  0  0  0
   44.8750   33.9688   46.4552 H   0  0  0  0  0  0  0  0  0  0  0  0
   44.2591   37.0060   43.5442 H   0  0  0  0  0  0  0  0  0  0  0  0
   48.2250   33.4164   43.1074 H   0  0  0  0  0  0  0  0  0  0  0  0
   47.7090   36.1534   42.2062 H   0  0  0  0  0  0  0  0  0  0  0  0
   49.2622   35.2947   42.5002 H   0  0  0  0  0  0  0  0  0  0  0  0
   48.4118   36.0382   40.0402 H   0  0  0  0  0  0  0  0  0  0  0  0
   49.4465   34.6420   40.2972 H   0  0  0  0  0  0  0  0  0  0  0  0
   46.5007   34.8006   39.7632 H   0  0  0  0  0  0  0  0  0  0  0  0
   47.6554   33.4965   39.3506 H   0  0  0  0  0  0  0  0  0  0  0  0
   45.7776   33.4558   41.4253 H   0  0  0  0  0  0  0  0  0  0  0  0
   47.1500   32.3485   41.2560 H   0  0  0  0  0  0  0  0  0  0  0  0
   47.0534   32.0792   44.1937 H   0  0  0  0  0  0  0  0  0  0  0  0
   47.8799   33.0088   45.4900 H   0  0  0  0  0  0  0  0  0  0  0  0
   45.2857   32.5086   46.4974 H   0  0  0  0  0  0  0  0  0  0  0  0
   45.7782   30.9736   45.6967 H   0  0  0  0  0  0  0  0  0  0  0  0
   48.6332   29.7650   49.3809 H   0  0  0  0  0  0  0  0  0  0  0  0
  1  2  1  0
  2 12  1  0
  2  3  2  0
  4  3  1  0
  5  4  2  0
  6  1  2  0
  6  5  1  0
  7  1  1  0
  8  7  1  0
  9  8  1  0
 10  9  1  0
 10 11  1  0
 11  7  1  0
 12 13  1  0
 13 14  1  0
 14 18  1  0
 14 15  2  0
 15 16  1  0
 17 16  1  0
 18 17  2  0
  3 19  1  0
  5 20  1  0
  7 21  1  0
  8 22  1  0
  8 23  1  0
  9 24  1  0
  9 25  1  0
 10 26  1  0
 10 27  1  0
 11 28  1  0
 11 29  1  0
 12 30  1  0
 12 31  1  0
 13 32  1  0
 13 33  1  0
 17 34  1  0
M  ISO  8  19  14  20  14  21  13  22  13  23  13  24  13  25  13  26  13
M  ISO  8  27  13  28  13  29  13  30   8  31   8  32   8  33   8  34  14
M  END
>  <minimizedAffinity>  (1) 
-5.32676983

>  <minimizedRMSD>  (1) 
0.88912648

$$$$
