
     RDKit          3D

 31 32  0  0  0  0  0  0  0  0999 V2000
   46.4550   34.4830   43.5110 C   0  0  0  0  0  0  0  0  0  0  0  0
   46.1490   33.8850   44.7300 C   0  0  0  0  0  0  0  0  0  0  0  0
   45.1430   34.4480   45.4830 C   0  0  0  0  0  0  0  0  0  0  0  0
   44.4950   35.5450   45.0240 N   0  0  0  0  0  0  0  0  0  0  0  0
   44.7950   36.1160   43.8460 C   0  0  0  0  0  0  0  0  0  0  0  0
   45.7610   35.5940   43.0990 N   0  0  0  0  0  0  0  0  0  0  0  0
   47.5280   34.0730   42.5520 C   0  0  0  0  0  0  0  0  0  0  0  0
   48.2830   35.2270   42.0210 C   0  0  0  0  0  0  0  0  0  0  0  0
   48.4700   35.0750   40.5590 C   0  0  0  0  0  0  0  0  0  0  0  0
   47.3510   34.1900   40.1390 C   0  0  0  0  0  0  0  0  0  0  0  0
   46.8700   33.4110   41.3280 C   0  0  0  0  0  0  0  0  0  0  0  0
   46.8980   32.7290   45.0970 C   0  0  0  0  0  0  0  0  0  0  0  0
   46.8400   32.5350   46.6090 C   0  0  0  0  0  0  0  0  0  0  0  0
   47.2990   31.1920   46.9630 N   0  0  0  0  0  0  0  0  0  0  0  0
   44.8669   34.0087   46.4530 H   0  0  0  0  0  0  0  0  0  0  0  0
   44.2467   37.0061   43.5037 H   0  0  0  0  0  0  0  0  0  0  0  0
   48.2063   33.4041   43.1019 H   0  0  0  0  0  0  0  0  0  0  0  0
   47.7247   36.1529   42.2234 H   0  0  0  0  0  0  0  0  0  0  0  0
   49.2672   35.2730   42.5101 H   0  0  0  0  0  0  0  0  0  0  0  0
   48.4070   36.0502   40.0540 H   0  0  0  0  0  0  0  0  0  0  0  0
   49.4555   34.6601   40.3008 H   0  0  0  0  0  0  0  0  0  0  0  0
   46.5274   34.8009   39.7409 H   0  0  0  0  0  0  0  0  0  0  0  0
   47.6983   33.4980   39.3577 H   0  0  0  0  0  0  0  0  0  0  0  0
   45.7741   33.4658   41.4049 H   0  0  0  0  0  0  0  0  0  0  0  0
   47.1347   32.3461   41.2504 H   0  0  0  0  0  0  0  0  0  0  0  0
   46.4732   31.8451   44.5987 H   0  0  0  0  0  0  0  0  0  0  0  0
   47.9452   32.8611   44.7874 H   0  0  0  0  0  0  0  0  0  0  0  0
   47.4861   33.2802   47.0962 H   0  0  0  0  0  0  0  0  0  0  0  0
   45.8010   32.6606   46.9478 H   0  0  0  0  0  0  0  0  0  0  0  0
   47.3307   31.0992   47.9883 H   0  0  0  0  0  0  0  0  0  0  0  0
   46.6489   30.4936   46.5750 H   0  0  0  0  0  0  0  0  0  0  0  0
  1  2  2  0
  2 12  1  0
  2  3  1  0
  4  3  2  0
  5  4  1  0
  6  1  1  0
  6  5  2  0
  7  1  1  0
  8  7  1  0
  9  8  1  0
 10  9  1  0
 10 11  1  0
 11  7  1  0
 12 13  1  0
 13 14  1  0
  3 15  1  0
  5 16  1  0
  7 17  1  0
  8 18  1  0
  8 19  1  0
  9 20  1  0
  9 21  1  0
 10 22  1  0
 10 23  1  0
 11 24  1  0
 11 25  1  0
 12 26  1  0
 12 27  1  0
 13 28  1  0
 13 29  1  0
 14 30  1  0
 14 31  1  0
M  ISO  8  15  14  16  14  17  13  18  13  19  13  20  13  21  13  22  13
M  ISO  8  23  13  24  13  25  13  26   8  27   8  28   8  29   8  30   5
M  ISO  1  31   5
M  END
>  <minimizedAffinity>  (1) 
-4.585886

>  <minimizedRMSD>  (1) 
0.103612162

$$$$
