
     RDKit          3D

 30 31  0  0  0  0  0  0  0  0999 V2000
   46.4560   34.4850   43.5100 C   0  0  0  0  0  0  0  0  0  0  0  0
   46.1550   33.8810   44.7260 C   0  0  0  0  0  0  0  0  0  0  0  0
   45.1460   34.4410   45.4800 C   0  0  0  0  0  0  0  0  0  0  0  0
   44.4990   35.5410   45.0130 N   0  0  0  0  0  0  0  0  0  0  0  0
   44.7960   36.1110   43.8460 C   0  0  0  0  0  0  0  0  0  0  0  0
   45.7600   35.5960   43.0990 N   0  0  0  0  0  0  0  0  0  0  0  0
   47.5250   34.0860   42.5510 C   0  0  0  0  0  0  0  0  0  0  0  0
   48.2780   35.2380   42.0140 C   0  0  0  0  0  0  0  0  0  0  0  0
   48.4750   35.0730   40.5550 C   0  0  0  0  0  0  0  0  0  0  0  0
   47.3510   34.1910   40.1340 C   0  0  0  0  0  0  0  0  0  0  0  0
   46.8680   33.4090   41.3320 C   0  0  0  0  0  0  0  0  0  0  0  0
   46.8980   32.7280   45.0960 C   0  0  0  0  0  0  0  0  0  0  0  0
   46.8410   32.5300   46.6040 C   0  0  0  0  0  0  0  0  0  0  0  0
   47.2560   30.8130   47.0400 S   0  0  0  0  0  0  0  0  0  0  0  0
   44.8675   34.0021   46.4494 H   0  0  0  0  0  0  0  0  0  0  0  0
   44.2456   37.0008   43.5065 H   0  0  0  0  0  0  0  0  0  0  0  0
   48.2110   33.4276   43.1041 H   0  0  0  0  0  0  0  0  0  0  0  0
   47.7143   36.1633   42.2040 H   0  0  0  0  0  0  0  0  0  0  0  0
   49.2588   35.2932   42.5089 H   0  0  0  0  0  0  0  0  0  0  0  0
   48.4225   36.0444   40.0416 H   0  0  0  0  0  0  0  0  0  0  0  0
   49.4595   34.6495   40.3072 H   0  0  0  0  0  0  0  0  0  0  0  0
   46.5286   34.8046   39.7375 H   0  0  0  0  0  0  0  0  0  0  0  0
   47.6935   33.4990   39.3505 H   0  0  0  0  0  0  0  0  0  0  0  0
   45.7718   33.4585   41.4081 H   0  0  0  0  0  0  0  0  0  0  0  0
   47.1342   32.3440   41.2612 H   0  0  0  0  0  0  0  0  0  0  0  0
   46.4720   31.8452   44.5969 H   0  0  0  0  0  0  0  0  0  0  0  0
   47.9461   32.8619   44.7901 H   0  0  0  0  0  0  0  0  0  0  0  0
   47.5601   33.2092   47.0853 H   0  0  0  0  0  0  0  0  0  0  0  0
   45.8205   32.7478   46.9521 H   0  0  0  0  0  0  0  0  0  0  0  0
   47.2874   30.6829   48.4034 H   0  0  0  0  0  0  0  0  0  0  0  0
  1  2  2  0
  2 12  1  0
  2  3  1  0
  4  3  2  0
  5  4  1  0
  6  1  1  0
  6  5  2  0
  7  1  1  0
  8  7  1  0
  9  8  1  0
 10  9  1  0
 10 11  1  0
 11  7  1  0
 12 13  1  0
 13 14  1  0
  3 15  1  0
  5 16  1  0
  7 17  1  0
  8 18  1  0
  8 19  1  0
  9 20  1  0
  9 21  1  0
 10 22  1  0
 10 23  1  0
 11 24  1  0
 11 25  1  0
 12 26  1  0
 12 27  1  0
 13 28  1  0
 13 29  1  0
 14 30  1  0
M  ISO  8  15  14  16  14  17  13  18  13  19  13  20  13  21  13  22  13
M  ISO  8  23  13  24  13  25  13  26   8  27   8  28   8  29   8  30  11
M  END
>  <minimizedAffinity>  (1) 
-4.58067036

>  <minimizedRMSD>  (1) 
0.172399834

$$$$
