
     RDKit          3D

 43 45  0  0  0  0  0  0  0  0999 V2000
   46.4070   34.6210   43.4100 C   0  0  0  0  0  0  0  0  0  0  0  0
   46.0530   34.0790   44.6270 C   0  0  0  0  0  0  0  0  0  0  0  0
   45.0540   34.6690   45.3490 C   0  0  0  0  0  0  0  0  0  0  0  0
   44.4330   35.7770   44.8360 N   0  0  0  0  0  0  0  0  0  0  0  0
   44.7730   36.3060   43.6490 C   0  0  0  0  0  0  0  0  0  0  0  0
   45.7510   35.7400   42.9350 N   0  0  0  0  0  0  0  0  0  0  0  0
   47.5230   34.1970   42.5230 C   0  0  0  0  0  0  0  0  0  0  0  0
   48.2930   35.2930   41.9500 C   0  0  0  0  0  0  0  0  0  0  0  0
   48.5140   35.0860   40.5040 C   0  0  0  0  0  0  0  0  0  0  0  0
   47.4120   34.1940   40.0900 C   0  0  0  0  0  0  0  0  0  0  0  0
   46.8530   33.4880   41.2870 C   0  0  0  0  0  0  0  0  0  0  0  0
   46.6900   32.9180   45.0610 C   0  0  0  0  0  0  0  0  0  0  0  0
   46.1650   32.4060   46.4010 C   0  0  0  0  0  0  0  0  0  0  0  0
   47.0330   31.5890   47.1200 N   0  0  0  0  0  0  0  0  0  0  0  0
   48.0520   31.7560   47.9810 C   0  0  0  0  0  0  0  0  0  0  0  0
   48.7560   30.7650   48.5740 C   0  0  0  0  0  0  0  0  0  0  0  0
   48.4730   29.4530   48.3350 C   0  0  0  0  0  0  0  0  0  0  0  0
   49.2510   28.4870   49.0380 N   0  0  0  0  0  0  0  0  0  0  0  0
   47.4690   29.2140   47.4860 N   0  0  0  0  0  0  0  0  0  0  0  0
   46.7940   30.2650   46.9170 C   0  0  0  0  0  0  0  0  0  0  0  0
   45.8930   29.8000   46.1570 O   0  0  0  0  0  0  0  0  0  0  0  0
   49.8610   31.1520   49.5040 C   0  0  0  0  0  0  0  0  0  0  0  0
   49.6010   30.6380   50.7830 F   0  0  0  0  0  0  0  0  0  0  0  0
   50.0110   32.5100   49.6230 F   0  0  0  0  0  0  0  0  0  0  0  0
   51.0620   30.6330   49.1360 F   0  0  0  0  0  0  0  0  0  0  0  0
   44.7536   34.2612   46.3254 H   0  0  0  0  0  0  0  0  0  0  0  0
   44.2515   37.1965   43.2682 H   0  0  0  0  0  0  0  0  0  0  0  0
   48.2012   33.5819   43.1326 H   0  0  0  0  0  0  0  0  0  0  0  0
   47.7440   36.2345   42.0988 H   0  0  0  0  0  0  0  0  0  0  0  0
   49.2712   35.3336   42.4516 H   0  0  0  0  0  0  0  0  0  0  0  0
   48.4661   36.0419   39.9618 H   0  0  0  0  0  0  0  0  0  0  0  0
   49.5042   34.6588   40.2873 H   0  0  0  0  0  0  0  0  0  0  0  0
   46.6191   34.7898   39.6143 H   0  0  0  0  0  0  0  0  0  0  0  0
   47.7958   33.4501   39.3763 H   0  0  0  0  0  0  0  0  0  0  0  0
   45.7590   33.5962   41.3246 H   0  0  0  0  0  0  0  0  0  0  0  0
   47.0604   32.4079   41.2658 H   0  0  0  0  0  0  0  0  0  0  0  0
   46.5399   32.1337   44.3045 H   0  0  0  0  0  0  0  0  0  0  0  0
   47.7536   33.1621   45.1994 H   0  0  0  0  0  0  0  0  0  0  0  0
   45.9278   33.2793   47.0264 H   0  0  0  0  0  0  0  0  0  0  0  0
   45.2945   31.7781   46.1603 H   0  0  0  0  0  0  0  0  0  0  0  0
   48.3384   32.7897   48.2246 H   0  0  0  0  0  0  0  0  0  0  0  0
   49.0775   27.4820   48.8935 H   0  0  0  0  0  0  0  0  0  0  0  0
   49.9865   28.7941   49.6904 H   0  0  0  0  0  0  0  0  0  0  0  0
  1  2  1  0
  2 12  1  0
  2  3  2  0
  4  3  1  0
  5  4  2  0
  6  1  2  0
  6  5  1  0
  7  1  1  0
  8  7  1  0
  9  8  1  0
 10  9  1  0
 10 11  1  0
 11  7  1  0
 12 13  1  0
 13 14  1  0
 14 15  1  0
 15 16  2  0
 16 22  1  0
 17 16  1  0
 17 18  1  0
 19 17  2  0
 20 14  1  0
 20 19  1  0
 21 20  2  0
 22 24  1  0
 22 23  1  0
 25 22  1  0
  3 26  1  0
  5 27  1  0
  7 28  1  0
  8 29  1  0
  8 30  1  0
  9 31  1  0
  9 32  1  0
 10 33  1  0
 10 34  1  0
 11 35  1  0
 11 36  1  0
 12 37  1  0
 12 38  1  0
 13 39  1  0
 13 40  1  0
 15 41  1  0
 18 42  1  0
 18 43  1  0
M  ISO  8  26  14  27  14  28  13  29  13  30  13  31  13  32  13  33  13
M  ISO  8  34  13  35  13  36  13  37   8  38   8  39   8  40   8  41  14
M  END
>  <minimizedAffinity>  (1) 
-6.3138628

>  <minimizedRMSD>  (1) 
1.29706156

$$$$
