
     RDKit          3D

 43 45  0  0  0  0  0  0  0  0999 V2000
   46.4060   34.6160   43.4220 C   0  0  0  0  0  0  0  0  0  0  0  0
   46.0600   34.0850   44.6460 C   0  0  0  0  0  0  0  0  0  0  0  0
   45.0580   34.6770   45.3640 C   0  0  0  0  0  0  0  0  0  0  0  0
   44.4270   35.7750   44.8410 N   0  0  0  0  0  0  0  0  0  0  0  0
   44.7640   36.2930   43.6450 C   0  0  0  0  0  0  0  0  0  0  0  0
   45.7400   35.7250   42.9400 N   0  0  0  0  0  0  0  0  0  0  0  0
   47.5250   34.1900   42.5400 C   0  0  0  0  0  0  0  0  0  0  0  0
   48.2880   35.2860   41.9600 C   0  0  0  0  0  0  0  0  0  0  0  0
   48.5120   35.0690   40.5140 C   0  0  0  0  0  0  0  0  0  0  0  0
   47.4090   34.1760   40.1070 C   0  0  0  0  0  0  0  0  0  0  0  0
   46.8650   33.4650   41.3070 C   0  0  0  0  0  0  0  0  0  0  0  0
   46.7070   32.9350   45.0970 C   0  0  0  0  0  0  0  0  0  0  0  0
   46.1390   32.3960   46.4080 C   0  0  0  0  0  0  0  0  0  0  0  0
   47.0310   31.6750   47.1980 N   0  0  0  0  0  0  0  0  0  0  0  0
   47.9830   31.9510   48.1070 C   0  0  0  0  0  0  0  0  0  0  0  0
   48.7380   31.0410   48.7640 C   0  0  0  0  0  0  0  0  0  0  0  0
   48.5890   29.6890   48.5480 C   0  0  0  0  0  0  0  0  0  0  0  0
   49.4270   28.8350   49.3000 N   0  0  0  0  0  0  0  0  0  0  0  0
   47.6550   29.3490   47.6500 N   0  0  0  0  0  0  0  0  0  0  0  0
   46.9270   30.3300   47.0230 C   0  0  0  0  0  0  0  0  0  0  0  0
   46.1090   29.7720   46.2220 O   0  0  0  0  0  0  0  0  0  0  0  0
   49.7380   31.6200   49.7340 C   0  0  0  0  0  0  0  0  0  0  0  0
   44.7633   34.2780   46.3458 H   0  0  0  0  0  0  0  0  0  0  0  0
   44.2382   37.1767   43.2542 H   0  0  0  0  0  0  0  0  0  0  0  0
   48.2039   33.5828   43.1567 H   0  0  0  0  0  0  0  0  0  0  0  0
   47.7328   36.2251   42.1011 H   0  0  0  0  0  0  0  0  0  0  0  0
   49.2653   35.3370   42.4623 H   0  0  0  0  0  0  0  0  0  0  0  0
   48.4661   36.0210   39.9649 H   0  0  0  0  0  0  0  0  0  0  0  0
   49.5022   34.6400   40.3006 H   0  0  0  0  0  0  0  0  0  0  0  0
   46.6097   34.7713   39.6414 H   0  0  0  0  0  0  0  0  0  0  0  0
   47.7870   33.4361   39.3861 H   0  0  0  0  0  0  0  0  0  0  0  0
   45.7693   33.5543   41.3463 H   0  0  0  0  0  0  0  0  0  0  0  0
   47.0913   32.3887   41.2891 H   0  0  0  0  0  0  0  0  0  0  0  0
   46.6092   32.1551   44.3275 H   0  0  0  0  0  0  0  0  0  0  0  0
   47.7570   33.2044   45.2837 H   0  0  0  0  0  0  0  0  0  0  0  0
   45.7792   33.2516   46.9983 H   0  0  0  0  0  0  0  0  0  0  0  0
   45.3469   31.6874   46.1244 H   0  0  0  0  0  0  0  0  0  0  0  0
   48.1638   33.0114   48.3367 H   0  0  0  0  0  0  0  0  0  0  0  0
   49.3613   27.8140   49.1815 H   0  0  0  0  0  0  0  0  0  0  0  0
   50.1035   29.2336   49.9666 H   0  0  0  0  0  0  0  0  0  0  0  0
   49.4040   31.4266   50.7641 H   0  0  0  0  0  0  0  0  0  0  0  0
   50.7196   31.1505   49.5726 H   0  0  0  0  0  0  0  0  0  0  0  0
   49.8195   32.7050   49.5726 H   0  0  0  0  0  0  0  0  0  0  0  0
  1  2  1  0
  2 12  1  0
  2  3  2  0
  4  3  1  0
  5  4  2  0
  6  1  2  0
  6  5  1  0
  7  1  1  0
  8  7  1  0
  9  8  1  0
 10  9  1  0
 10 11  1  0
 11  7  1  0
 12 13  1  0
 13 14  1  0
 14 15  1  0
 15 16  2  0
 16 22  1  0
 17 16  1  0
 17 18  1  0
 19 17  2  0
 20 14  1  0
 20 19  1  0
 21 20  2  0
  3 23  1  0
  5 24  1  0
  7 25  1  0
  8 26  1  0
  8 27  1  0
  9 28  1  0
  9 29  1  0
 10 30  1  0
 10 31  1  0
 11 32  1  0
 11 33  1  0
 12 34  1  0
 12 35  1  0
 13 36  1  0
 13 37  1  0
 15 38  1  0
 18 39  1  0
 18 40  1  0
 22 41  1  0
 22 42  1  0
 22 43  1  0
M  ISO  8  23  14  24  14  25  13  26  13  27  13  28  13  29  13  30  13
M  ISO  8  31  13  32  13  33  13  34   8  35   8  36   8  37   8  38  14
M  ISO  3  41   8  42   8  43   8
M  END
>  <minimizedAffinity>  (1) 
-6.06570911

>  <minimizedRMSD>  (1) 
0.82358706

$$$$
