
     RDKit          3D

 40 43  0  0  1  0  0  0  0  0999 V2000
   47.4090   34.0930   41.5470 C   0  0  1  0  0  0  0  0  0  0  0  0
   48.2310   35.1320   40.7950 C   0  0  0  0  0  0  0  0  0  0  0  0
   49.1680   35.8840   41.6810 C   0  0  0  0  0  0  0  0  0  0  0  0
   50.0830   34.9960   42.4820 C   0  0  0  0  0  0  0  0  0  0  0  0
   49.4950   33.6260   42.6570 C   0  0  0  0  0  0  0  0  0  0  0  0
   48.0050   33.8110   42.8960 C   0  0  2  0  0  0  0  0  0  0  0  0
   47.5070   32.5130   43.3750 C   0  0  0  0  0  0  0  0  0  0  0  0
   47.6610   31.5240   42.4440 N   0  0  0  0  0  0  0  0  0  0  0  0
   47.2390   30.2700   42.6790 C   0  0  0  0  0  0  0  0  0  0  0  0
   46.6480   29.9400   43.8460 N   0  0  0  0  0  0  0  0  0  0  0  0
   46.4830   30.8840   44.7780 C   0  0  0  0  0  0  0  0  0  0  0  0
   45.9000   30.6370   46.0110 C   0  0  0  0  0  0  0  0  0  0  0  0
   45.7490   31.6330   46.9810 C   0  0  0  0  0  0  0  0  0  0  0  0
   46.1990   32.9290   46.7040 C   0  0  0  0  0  0  0  0  0  0  0  0
   46.7730   33.1490   45.4730 C   0  0  0  0  0  0  0  0  0  0  0  0
   46.9040   32.1600   44.5550 C   0  0  0  0  0  0  0  0  0  0  0  0
   43.7240   34.2900   40.7620 C   0  0  0  0  0  0  0  0  0  0  0  0
   45.0800   33.8980   40.6270 C   0  0  0  0  0  0  0  0  0  0  0  0
   45.9740   34.4280   41.5680 C   0  0  0  0  0  0  0  0  0  0  0  0
   45.4870   35.2550   42.5120 N   0  0  0  0  0  0  0  0  0  0  0  0
   44.1890   35.6200   42.6280 C   0  0  0  0  0  0  0  0  0  0  0  0
   43.3180   35.1170   41.7260 N   0  0  0  0  0  0  0  0  0  0  0  0
   47.4580   33.1427   40.9951 H   0  0  0  0  0  0  0  0  0  0  0  0
   48.8175   34.6201   40.0179 H   0  0  0  0  0  0  0  0  0  0  0  0
   47.5281   35.8603   40.3643 H   0  0  0  0  0  0  0  0  0  0  0  0
   49.7852   36.5442   41.0540 H   0  0  0  0  0  0  0  0  0  0  0  0
   48.5525   36.4452   42.3995 H   0  0  0  0  0  0  0  0  0  0  0  0
   51.0465   34.9086   41.9586 H   0  0  0  0  0  0  0  0  0  0  0  0
   50.2208   35.4451   43.4766 H   0  0  0  0  0  0  0  0  0  0  0  0
   49.6608   33.0248   41.7509 H   0  0  0  0  0  0  0  0  0  0  0  0
   49.9664   33.1005   43.5006 H   0  0  0  0  0  0  0  0  0  0  0  0
   47.7654   34.6114   43.6115 H   0  0  0  0  0  0  0  0  0  0  0  0
   47.3778   29.4993   41.9065 H   0  0  0  0  0  0  0  0  0  0  0  0
   45.5432   29.6208   46.2346 H   0  0  0  0  0  0  0  0  0  0  0  0
   45.2823   31.4007   47.9497 H   0  0  0  0  0  0  0  0  0  0  0  0
   46.0978   33.7393   47.4410 H   0  0  0  0  0  0  0  0  0  0  0  0
   47.1365   34.1575   45.2263 H   0  0  0  0  0  0  0  0  0  0  0  0
   42.9833   33.8994   40.0487 H   0  0  0  0  0  0  0  0  0  0  0  0
   45.4116   33.2169   39.8294 H   0  0  0  0  0  0  0  0  0  0  0  0
   43.8560   36.3000   43.4259 H   0  0  0  0  0  0  0  0  0  0  0  0
  1 19  1  0
  1  6  1  0
  2  1  1  0
  2  3  1  0
  3  4  1  0
  4  5  1  0
  5  6  1  0
  6  7  1  0
  7 16  2  0
  8  9  2  0
  8  7  1  0
  9 10  1  0
 10 11  2  0
 11 12  1  0
 12 13  2  0
 14 13  1  0
 15 14  2  0
 16 11  1  0
 16 15  1  0
 17 22  2  0
 18 17  1  0
 18 19  2  0
 19 20  1  0
 20 21  2  0
 22 21  1  0
  1 23  1  6
  2 24  1  0
  2 25  1  0
  3 26  1  0
  3 27  1  0
  4 28  1  0
  4 29  1  0
  5 30  1  0
  5 31  1  0
  6 32  1  1
  9 33  1  0
 12 34  1  0
 13 35  1  0
 14 36  1  0
 15 37  1  0
 17 38  1  0
 18 39  1  0
 21 40  1  0
M  ISO  8  23  13  24  13  25  13  26  13  27  13  28  13  29  13  30  13
M  ISO  8  31  13  32  13  33  14  34  14  35  14  36  14  37  14  38  14
M  ISO  2  39  14  40  14
M  END
>  <minimizedAffinity>  (1) 
-6.03253555

>  <minimizedRMSD>  (1) 
3.24536586

$$$$
