
     RDKit          3D

 42 44  0  0  1  0  0  0  0  0999 V2000
   46.9860   33.8950   41.3880 C   0  0  1  0  0  0  0  0  0  0  0  0
   47.9760   34.6740   40.5330 C   0  0  0  0  0  0  0  0  0  0  0  0
   48.8050   35.6420   41.3020 C   0  0  0  0  0  0  0  0  0  0  0  0
   49.4920   35.0620   42.5120 C   0  0  0  0  0  0  0  0  0  0  0  0
   48.8120   33.7890   42.9410 C   0  0  0  0  0  0  0  0  0  0  0  0
   47.3040   34.0410   42.8440 C   0  0  2  0  0  0  0  0  0  0  0  0
   43.5670   34.0030   39.7970 C   0  0  0  0  0  0  0  0  0  0  0  0
   44.8970   33.5870   40.0350 C   0  0  0  0  0  0  0  0  0  0  0  0
   45.5830   34.2680   41.0430 C   0  0  0  0  0  0  0  0  0  0  0  0
   44.9500   35.2680   41.7250 N   0  0  0  0  0  0  0  0  0  0  0  0
   43.6720   35.6410   41.4700 C   0  0  0  0  0  0  0  0  0  0  0  0
   42.9900   35.0000   40.5040 N   0  0  0  0  0  0  0  0  0  0  0  0
   46.5690   33.0530   43.7180 C   0  0  0  0  0  0  0  0  0  0  0  0
   47.4440   31.9990   44.3030 C   0  0  0  0  0  0  0  0  0  0  0  0
   46.5140   31.0480   45.0710 C   0  0  0  0  0  0  0  0  0  0  0  0
   46.2120   31.7560   46.3730 C   0  0  0  0  0  0  0  0  0  0  0  0
   46.3900   33.2400   46.2290 C   0  0  0  0  0  0  0  0  0  0  0  0
   45.8990   33.7650   44.8950 C   0  0  0  0  0  0  0  0  0  0  0  0
   47.0829   32.8224   41.1639 H   0  0  0  0  0  0  0  0  0  0  0  0
   47.4120   35.2304   39.7700 H   0  0  0  0  0  0  0  0  0  0  0  0
   48.6671   33.9391   40.0945 H   0  0  0  0  0  0  0  0  0  0  0  0
   49.5773   36.0422   40.6286 H   0  0  0  0  0  0  0  0  0  0  0  0
   48.1151   36.4127   41.6764 H   0  0  0  0  0  0  0  0  0  0  0  0
   50.5419   34.8465   42.2643 H   0  0  0  0  0  0  0  0  0  0  0  0
   49.4398   35.7897   43.3353 H   0  0  0  0  0  0  0  0  0  0  0  0
   49.1017   32.9619   42.2762 H   0  0  0  0  0  0  0  0  0  0  0  0
   49.1017   33.5115   43.9653 H   0  0  0  0  0  0  0  0  0  0  0  0
   46.9948   35.0341   43.2019 H   0  0  0  0  0  0  0  0  0  0  0  0
   42.9836   33.4996   39.0120 H   0  0  0  0  0  0  0  0  0  0  0  0
   45.3644   32.7742   39.4597 H   0  0  0  0  0  0  0  0  0  0  0  0
   43.2011   36.4534   42.0429 H   0  0  0  0  0  0  0  0  0  0  0  0
   45.8372   32.5791   43.0473 H   0  0  0  0  0  0  0  0  0  0  0  0
   47.9713   31.4551   43.5054 H   0  0  0  0  0  0  0  0  0  0  0  0
   48.2079   32.4337   44.9644 H   0  0  0  0  0  0  0  0  0  0  0  0
   45.5882   30.8719   44.5037 H   0  0  0  0  0  0  0  0  0  0  0  0
   46.9767   30.0637   45.2355 H   0  0  0  0  0  0  0  0  0  0  0  0
   45.1729   31.5445   46.6655 H   0  0  0  0  0  0  0  0  0  0  0  0
   46.9091   31.3911   47.1417 H   0  0  0  0  0  0  0  0  0  0  0  0
   45.8285   33.7406   47.0316 H   0  0  0  0  0  0  0  0  0  0  0  0
   47.4677   33.4512   46.2910 H   0  0  0  0  0  0  0  0  0  0  0  0
   46.1214   34.8405   44.8328 H   0  0  0  0  0  0  0  0  0  0  0  0
   44.8166   33.5787   44.8337 H   0  0  0  0  0  0  0  0  0  0  0  0
  1  6  1  0
  2  3  1  0
  2  1  1  0
  3  4  1  0
  4  5  1  0
  6  5  1  0
  6 13  1  0
  7  8  2  0
  7 12  1  0
  8  9  1  0
  9  1  1  0
  9 10  2  0
 11 10  1  0
 12 11  2  0
 13 14  1  0
 13 18  1  0
 14 15  1  0
 15 16  1  0
 17 16  1  0
 18 17  1  0
  1 19  1  6
  2 20  1  0
  2 21  1  0
  3 22  1  0
  3 23  1  0
  4 24  1  0
  4 25  1  0
  5 26  1  0
  5 27  1  0
  6 28  1  1
  7 29  1  0
  8 30  1  0
 11 31  1  0
 13 32  1  0
 14 33  1  0
 14 34  1  0
 15 35  1  0
 15 36  1  0
 16 37  1  0
 16 38  1  0
 17 39  1  0
 17 40  1  0
 18 41  1  0
 18 42  1  0
M  ISO  8  19  13  20  13  21  13  22  13  23  13  24  13  25  13  26  13
M  ISO  8  27  13  28  13  29  14  30  14  31  14  32  13  33  13  34  13
M  ISO  8  35  13  36  13  37  13  38  13  39  13  40  13  41  13  42  13
M  END
>  <minimizedAffinity>  (1) 
-5.63538122

>  <minimizedRMSD>  (1) 
2.79690528

$$$$
