
     RDKit          3D

 36 38  0  0  1  0  0  0  0  0999 V2000
   47.3150   34.0560   41.6210 C   0  0  1  0  0  0  0  0  0  0  0  0
   48.1250   35.0290   40.7810 C   0  0  0  0  0  0  0  0  0  0  0  0
   49.0910   35.8430   41.5720 C   0  0  0  0  0  0  0  0  0  0  0  0
   50.0000   35.0460   42.4580 C   0  0  0  0  0  0  0  0  0  0  0  0
   49.4000   33.7010   42.7900 C   0  0  0  0  0  0  0  0  0  0  0  0
   47.9160   33.9310   42.9900 C   0  0  2  0  0  0  0  0  0  0  0  0
   43.5950   34.1450   40.9940 C   0  0  0  0  0  0  0  0  0  0  0  0
   44.9290   33.7360   40.8930 C   0  0  0  0  0  0  0  0  0  0  0  0
   45.8740   34.4320   41.6510 C   0  0  0  0  0  0  0  0  0  0  0  0
   45.4530   35.4640   42.4420 N   0  0  0  0  0  0  0  0  0  0  0  0
   44.1450   35.8370   42.5160 C   0  0  0  0  0  0  0  0  0  0  0  0
   43.2430   35.1760   41.7950 N   0  0  0  0  0  0  0  0  0  0  0  0
   47.2830   32.9340   43.8350 C   0  0  0  0  0  0  0  0  0  0  0  0
   46.7210   33.3710   45.0340 C   0  0  0  0  0  0  0  0  0  0  0  0
   46.0960   32.5140   45.9140 C   0  0  0  0  0  0  0  0  0  0  0  0
   46.0400   31.1710   45.5630 C   0  0  0  0  0  0  0  0  0  0  0  0
   46.5990   30.7260   44.3680 C   0  0  0  0  0  0  0  0  0  0  0  0
   47.2170   31.6110   43.5120 C   0  0  0  0  0  0  0  0  0  0  0  0
   47.3564   33.0608   41.1542 H   0  0  0  0  0  0  0  0  0  0  0  0
   47.4287   35.7127   40.2733 H   0  0  0  0  0  0  0  0  0  0  0  0
   48.7148   34.4286   40.0727 H   0  0  0  0  0  0  0  0  0  0  0  0
   49.7132   36.4161   40.8688 H   0  0  0  0  0  0  0  0  0  0  0  0
   48.4900   36.4818   42.2359 H   0  0  0  0  0  0  0  0  0  0  0  0
   50.9596   34.8931   41.9424 H   0  0  0  0  0  0  0  0  0  0  0  0
   50.1469   35.6021   43.3956 H   0  0  0  0  0  0  0  0  0  0  0  0
   49.5673   32.9954   41.9629 H   0  0  0  0  0  0  0  0  0  0  0  0
   49.8613   33.2705   43.6910 H   0  0  0  0  0  0  0  0  0  0  0  0
   47.7406   34.8570   43.5573 H   0  0  0  0  0  0  0  0  0  0  0  0
   42.8216   33.6205   40.4137 H   0  0  0  0  0  0  0  0  0  0  0  0
   45.2225   32.8991   40.2422 H   0  0  0  0  0  0  0  0  0  0  0  0
   43.8389   36.6726   43.1625 H   0  0  0  0  0  0  0  0  0  0  0  0
   46.7787   34.4400   45.2870 H   0  0  0  0  0  0  0  0  0  0  0  0
   45.6594   32.8784   46.8556 H   0  0  0  0  0  0  0  0  0  0  0  0
   45.5493   30.4522   46.2357 H   0  0  0  0  0  0  0  0  0  0  0  0
   46.5468   29.6591   44.1052 H   0  0  0  0  0  0  0  0  0  0  0  0
   47.6563   31.2511   42.5699 H   0  0  0  0  0  0  0  0  0  0  0  0
  1  9  1  0
  1  6  1  0
  2  3  1  0
  2  1  1  0
  3  4  1  0
  4  5  1  0
  5  6  1  0
  6 13  1  0
  7 12  2  0
  8  7  1  0
  8  9  2  0
  9 10  1  0
 10 11  2  0
 12 11  1  0
 13 14  2  0
 14 15  1  0
 16 15  2  0
 17 16  1  0
 18 13  1  0
 18 17  2  0
  1 19  1  6
  2 20  1  0
  2 21  1  0
  3 22  1  0
  3 23  1  0
  4 24  1  0
  4 25  1  0
  5 26  1  0
  5 27  1  0
  6 28  1  1
  7 29  1  0
  8 30  1  0
 11 31  1  0
 14 32  1  0
 15 33  1  0
 16 34  1  0
 17 35  1  0
 18 36  1  0
M  ISO  8  19  13  20  13  21  13  22  13  23  13  24  13  25  13  26  13
M  ISO  8  27  13  28  13  29  14  30  14  31  14  32  14  33  14  34  14
M  ISO  2  35  14  36  14
M  END
>  <minimizedAffinity>  (1) 
-5.40961838

>  <minimizedRMSD>  (1) 
2.46032214

$$$$
