
     RDKit          3D

 37 39  0  0  1  0  0  0  0  0999 V2000
   47.1740   34.0030   41.6240 C   0  0  1  0  0  0  0  0  0  0  0  0
   48.0180   34.8060   40.6490 C   0  0  0  0  0  0  0  0  0  0  0  0
   48.9530   35.7660   41.2860 C   0  0  0  0  0  0  0  0  0  0  0  0
   49.8050   35.1950   42.3880 C   0  0  0  0  0  0  0  0  0  0  0  0
   49.2250   33.8980   42.9020 C   0  0  0  0  0  0  0  0  0  0  0  0
   47.7310   34.1250   43.0100 C   0  0  2  0  0  0  0  0  0  0  0  0
   47.1130   33.2210   43.9330 N   0  0  0  0  0  0  0  0  0  0  0  0
   46.5140   33.6180   45.0770 C   0  0  0  0  0  0  0  0  0  0  0  0
   45.9090   32.7880   45.9910 C   0  0  0  0  0  0  0  0  0  0  0  0
   45.9090   31.4230   45.7250 C   0  0  0  0  0  0  0  0  0  0  0  0
   45.3070   30.4860   46.6120 N   0  0  0  0  0  0  0  0  0  0  0  0
   46.4990   31.0120   44.5940 N   0  0  0  0  0  0  0  0  0  0  0  0
   47.0730   31.8890   43.7450 C   0  0  0  0  0  0  0  0  0  0  0  0
   47.5910   31.3790   42.7230 O   0  0  0  0  0  0  0  0  0  0  0  0
   43.8920   35.7930   42.1300 C   0  0  0  0  0  0  0  0  0  0  0  0
   45.2750   35.4990   42.2760 C   0  0  0  0  0  0  0  0  0  0  0  0
   45.7330   34.3740   41.5490 C   0  0  0  0  0  0  0  0  0  0  0  0
   44.8630   33.6540   40.7750 N   0  0  0  0  0  0  0  0  0  0  0  0
   43.5560   33.9900   40.6810 C   0  0  0  0  0  0  0  0  0  0  0  0
   43.0710   35.0480   41.3520 N   0  0  0  0  0  0  0  0  0  0  0  0
   47.2233   32.9423   41.3367 H   0  0  0  0  0  0  0  0  0  0  0  0
   47.3397   35.3716   39.9932 H   0  0  0  0  0  0  0  0  0  0  0  0
   48.6398   34.0804   40.1042 H   0  0  0  0  0  0  0  0  0  0  0  0
   49.6227   36.1574   40.5060 H   0  0  0  0  0  0  0  0  0  0  0  0
   48.3254   36.5386   41.7542 H   0  0  0  0  0  0  0  0  0  0  0  0
   50.8173   35.0080   42.0003 H   0  0  0  0  0  0  0  0  0  0  0  0
   49.8379   35.9177   43.2166 H   0  0  0  0  0  0  0  0  0  0  0  0
   49.4377   33.0788   42.1994 H   0  0  0  0  0  0  0  0  0  0  0  0
   49.6618   33.6165   43.8715 H   0  0  0  0  0  0  0  0  0  0  0  0
   47.5190   35.1245   43.4175 H   0  0  0  0  0  0  0  0  0  0  0  0
   46.5100   34.6960   45.2956 H   0  0  0  0  0  0  0  0  0  0  0  0
   45.4409   33.1900   46.9017 H   0  0  0  0  0  0  0  0  0  0  0  0
   45.3230   29.4808   46.3877 H   0  0  0  0  0  0  0  0  0  0  0  0
   44.8555   30.8133   47.4780 H   0  0  0  0  0  0  0  0  0  0  0  0
   43.4736   36.6564   42.6681 H   0  0  0  0  0  0  0  0  0  0  0  0
   45.9420   36.1028   42.9089 H   0  0  0  0  0  0  0  0  0  0  0  0
   42.8838   33.3911   40.0490 H   0  0  0  0  0  0  0  0  0  0  0  0
  1  6  1  0
  2  3  1  0
  2  1  1  0
  3  4  1  0
  4  5  1  0
  5  6  1  0
  6  7  1  0
  7  8  1  0
  8  9  2  0
 10  9  1  0
 10 11  1  0
 12 10  2  0
 13  7  1  0
 13 12  1  0
 14 13  2  0
 15 16  2  0
 17  1  1  0
 17 16  1  0
 18 17  2  0
 19 18  1  0
 19 20  2  0
 20 15  1  0
  1 21  1  6
  2 22  1  0
  2 23  1  0
  3 24  1  0
  3 25  1  0
  4 26  1  0
  4 27  1  0
  5 28  1  0
  5 29  1  0
  6 30  1  1
  8 31  1  0
  9 32  1  0
 11 33  1  0
 11 34  1  0
 15 35  1  0
 16 36  1  0
 19 37  1  0
M  ISO  8  21  13  22  13  23  13  24  13  25  13  26  13  27  13  28  13
M  ISO  7  29  13  30  13  31  14  32  14  35  14  36  14  37  14
M  END
>  <minimizedAffinity>  (1) 
-5.66125584

>  <minimizedRMSD>  (1) 
2.7025044

$$$$
