
     RDKit          3D

 40 42  0  0  1  0  0  0  0  0999 V2000
   47.2030   34.0600   41.5870 C   0  0  1  0  0  0  0  0  0  0  0  0
   48.0790   34.8840   40.6590 C   0  0  0  0  0  0  0  0  0  0  0  0
   49.0100   35.7920   41.3800 C   0  0  0  0  0  0  0  0  0  0  0  0
   49.8440   35.1390   42.4460 C   0  0  0  0  0  0  0  0  0  0  0  0
   49.2070   33.8560   42.9230 C   0  0  0  0  0  0  0  0  0  0  0  0
   47.7150   34.1000   42.9970 C   0  0  2  0  0  0  0  0  0  0  0  0
   43.5890   34.2030   40.5290 C   0  0  0  0  0  0  0  0  0  0  0  0
   44.9460   33.7880   40.5510 C   0  0  0  0  0  0  0  0  0  0  0  0
   45.7670   34.4470   41.4750 C   0  0  0  0  0  0  0  0  0  0  0  0
   45.2500   35.4210   42.2840 N   0  0  0  0  0  0  0  0  0  0  0  0
   43.9370   35.7830   42.2230 C   0  0  0  0  0  0  0  0  0  0  0  0
   43.1160   35.1700   41.3460 N   0  0  0  0  0  0  0  0  0  0  0  0
   47.0220   33.0800   43.7310 N   0  0  0  0  0  0  0  0  0  0  0  0
   47.4010   31.7490   43.4940 C   0  0  0  0  0  0  0  0  0  0  0  0
   47.5200   30.8460   44.6770 C   0  0  0  0  0  0  0  0  0  0  0  0
   46.3530   31.0440   45.5170 N   0  0  0  0  0  0  0  0  0  0  0  0
   46.4910   32.3990   46.0510 C   0  0  0  0  0  0  0  0  0  0  0  0
   46.4700   33.4340   44.9760 C   0  0  0  0  0  0  0  0  0  0  0  0
   47.2600   33.0096   41.2655 H   0  0  0  0  0  0  0  0  0  0  0  0
   47.4283   35.4922   40.0135 H   0  0  0  0  0  0  0  0  0  0  0  0
   48.6945   34.1788   40.0811 H   0  0  0  0  0  0  0  0  0  0  0  0
   49.6914   36.2378   40.6404 H   0  0  0  0  0  0  0  0  0  0  0  0
   48.3780   36.5296   41.8963 H   0  0  0  0  0  0  0  0  0  0  0  0
   50.8401   34.9152   42.0364 H   0  0  0  0  0  0  0  0  0  0  0  0
   49.9236   35.8285   43.2994 H   0  0  0  0  0  0  0  0  0  0  0  0
   49.4215   33.0422   42.2146 H   0  0  0  0  0  0  0  0  0  0  0  0
   49.6049   33.5634   43.9059 H   0  0  0  0  0  0  0  0  0  0  0  0
   47.5424   35.0596   43.5064 H   0  0  0  0  0  0  0  0  0  0  0  0
   42.8979   33.7206   39.8221 H   0  0  0  0  0  0  0  0  0  0  0  0
   45.3283   32.9999   39.8856 H   0  0  0  0  0  0  0  0  0  0  0  0
   43.5493   36.5709   42.8856 H   0  0  0  0  0  0  0  0  0  0  0  0
   46.6538   31.3090   42.8172 H   0  0  0  0  0  0  0  0  0  0  0  0
   48.4212   31.8157   43.0881 H   0  0  0  0  0  0  0  0  0  0  0  0
   47.5654   29.7988   44.3432 H   0  0  0  0  0  0  0  0  0  0  0  0
   48.4369   31.0753   45.2397 H   0  0  0  0  0  0  0  0  0  0  0  0
   45.4897   30.9608   44.9615 H   0  0  0  0  0  0  0  0  0  0  0  0
   45.6599   32.5924   46.7451 H   0  0  0  0  0  0  0  0  0  0  0  0
   47.4630   32.4629   46.5621 H   0  0  0  0  0  0  0  0  0  0  0  0
   47.0250   34.3081   45.3474 H   0  0  0  0  0  0  0  0  0  0  0  0
   45.4033   33.6102   44.7732 H   0  0  0  0  0  0  0  0  0  0  0  0
  1  6  1  0
  2  3  1  0
  2  1  1  0
  3  4  1  0
  4  5  1  0
  5  6  1  0
  6 13  1  0
  7  8  2  0
  7 12  1  0
  8  9  1  0
  9  1  1  0
  9 10  2  0
 11 10  1  0
 12 11  2  0
 13 18  1  0
 14 13  1  0
 14 15  1  0
 15 16  1  0
 16 17  1  0
 18 17  1  0
  1 19  1  6
  2 20  1  0
  2 21  1  0
  3 22  1  0
  3 23  1  0
  4 24  1  0
  4 25  1  0
  5 26  1  0
  5 27  1  0
  6 28  1  1
  7 29  1  0
  8 30  1  0
 11 31  1  0
 14 32  1  0
 14 33  1  0
 15 34  1  0
 15 35  1  0
 16 36  1  0
 17 37  1  0
 17 38  1  0
 18 39  1  0
 18 40  1  0
M  ISO  8  19  13  20  13  21  13  22  13  23  13  24  13  25  13  26  13
M  ISO  8  27  13  28  13  29  14  30  14  31  14  32  13  33  13  34  13
M  ISO  6  35  13  36   5  37  13  38  13  39  13  40  13
M  END
>  <minimizedAffinity>  (1) 
-5.27861309

>  <minimizedRMSD>  (1) 
2.3776722

$$$$
