
     RDKit          3D

 38 40  0  0  1  0  0  0  0  0999 V2000
   46.4760   34.9580   41.8920 C   0  0  1  0  0  0  0  0  0  0  0  0
   47.9670   35.2530   41.9270 C   0  0  0  0  0  0  0  0  0  0  0  0
   48.8130   34.0970   41.5150 C   0  0  0  0  0  0  0  0  0  0  0  0
   48.4380   33.5340   40.1850 C   0  0  0  0  0  0  0  0  0  0  0  0
   46.9700   33.7990   39.8400 C   0  0  0  0  0  0  0  0  0  0  0  0
   46.1990   33.6880   41.1400 C   0  0  2  0  0  0  0  0  0  0  0  0
   44.4920   35.9070   44.9580 C   0  0  0  0  0  0  0  0  0  0  0  0
   45.0180   35.9930   43.6560 C   0  0  0  0  0  0  0  0  0  0  0  0
   45.8870   34.9500   43.2640 C   0  0  0  0  0  0  0  0  0  0  0  0
   46.1670   33.9380   44.1390 N   0  0  0  0  0  0  0  0  0  0  0  0
   45.6300   33.9040   45.3890 C   0  0  0  0  0  0  0  0  0  0  0  0
   44.7970   34.8870   45.7920 N   0  0  0  0  0  0  0  0  0  0  0  0
   44.7950   33.5970   40.9040 N   0  0  0  0  0  0  0  0  0  0  0  0
   44.1170   34.8720   40.7950 C   0  0  0  0  0  0  0  0  0  0  0  0
   42.6690   34.3880   40.6120 C   0  0  0  0  0  0  0  0  0  0  0  0
   42.6070   33.0430   41.2970 C   0  0  0  0  0  0  0  0  0  0  0  0
   44.0130   32.9590   41.9160 C   0  0  0  0  0  0  0  0  0  0  0  0
   45.9780   35.7723   41.3452 H   0  0  0  0  0  0  0  0  0  0  0  0
   48.1714   36.0934   41.2474 H   0  0  0  0  0  0  0  0  0  0  0  0
   48.2256   35.4868   42.9703 H   0  0  0  0  0  0  0  0  0  0  0  0
   49.8605   34.4297   41.4703 H   0  0  0  0  0  0  0  0  0  0  0  0
   48.6615   33.3014   42.2594 H   0  0  0  0  0  0  0  0  0  0  0  0
   49.0723   33.9946   39.4133 H   0  0  0  0  0  0  0  0  0  0  0  0
   48.5850   32.4446   40.2249 H   0  0  0  0  0  0  0  0  0  0  0  0
   46.8550   34.8067   39.4142 H   0  0  0  0  0  0  0  0  0  0  0  0
   46.5995   33.0808   39.0937 H   0  0  0  0  0  0  0  0  0  0  0  0
   46.5057   32.7866   41.6907 H   0  0  0  0  0  0  0  0  0  0  0  0
   43.8101   36.6955   45.3093 H   0  0  0  0  0  0  0  0  0  0  0  0
   44.7670   36.8249   42.9815 H   0  0  0  0  0  0  0  0  0  0  0  0
   45.8745   33.0760   46.0706 H   0  0  0  0  0  0  0  0  0  0  0  0
   44.2336   35.4759   41.7070 H   0  0  0  0  0  0  0  0  0  0  0  0
   44.4908   35.5293   39.9961 H   0  0  0  0  0  0  0  0  0  0  0  0
   41.9656   35.0917   41.0810 H   0  0  0  0  0  0  0  0  0  0  0  0
   42.3912   34.3197   39.5498 H   0  0  0  0  0  0  0  0  0  0  0  0
   41.8242   33.0195   42.0695 H   0  0  0  0  0  0  0  0  0  0  0  0
   42.3571   32.2063   40.6281 H   0  0  0  0  0  0  0  0  0  0  0  0
   44.3250   31.9154   42.0697 H   0  0  0  0  0  0  0  0  0  0  0  0
   44.0982   33.4183   42.9119 H   0  0  0  0  0  0  0  0  0  0  0  0
  1  2  1  0
  1  9  1  0
  3  2  1  0
  4  3  1  0
  5  4  1  0
  5  6  1  0
  6  1  1  0
  7 12  2  0
  8  7  1  0
  9  8  2  0
  9 10  1  0
 10 11  2  0
 11 12  1  0
 13 14  1  0
 13  6  1  0
 13 17  1  0
 15 14  1  0
 15 16  1  0
 16 17  1  0
  1 18  1  6
  2 19  1  0
  2 20  1  0
  3 21  1  0
  3 22  1  0
  4 23  1  0
  4 24  1  0
  5 25  1  0
  5 26  1  0
  6 27  1  1
  7 28  1  0
  8 29  1  0
 11 30  1  0
 14 31  1  0
 14 32  1  0
 15 33  1  0
 15 34  1  0
 16 35  1  0
 16 36  1  0
 17 37  1  0
 17 38  1  0
M  ISO  8  18  13  19  13  20  13  21  13  22  13  23  13  24  13  25  13
M  ISO  8  26  13  27  13  28  14  29  14  30  14  31  13  32  13  33  13
M  ISO  5  34  13  35  13  36  13  37  13  38  13
M  END
>  <minimizedAffinity>  (1) 
-5.14328766

>  <minimizedRMSD>  (1) 
3.04278326

$$$$
