
     RDKit          3D

 33 35  0  0  1  0  0  0  0  0999 V2000
   47.2640   34.0820   41.6390 C   0  0  1  0  0  0  0  0  0  0  0  0
   48.1000   34.9550   40.7200 C   0  0  0  0  0  0  0  0  0  0  0  0
   49.0400   35.8440   41.4600 C   0  0  0  0  0  0  0  0  0  0  0  0
   49.9350   35.1230   42.4200 C   0  0  0  0  0  0  0  0  0  0  0  0
   49.3120   33.8290   42.8870 C   0  0  0  0  0  0  0  0  0  0  0  0
   47.8240   34.0810   43.0300 C   0  0  2  0  0  0  0  0  0  0  0  0
   43.6150   34.2310   40.7100 C   0  0  0  0  0  0  0  0  0  0  0  0
   44.9550   33.8320   40.6770 C   0  0  0  0  0  0  0  0  0  0  0  0
   45.8210   34.4490   41.5790 C   0  0  0  0  0  0  0  0  0  0  0  0
   45.3370   35.3960   42.4370 N   0  0  0  0  0  0  0  0  0  0  0  0
   44.0160   35.7610   42.4410 C   0  0  0  0  0  0  0  0  0  0  0  0
   43.1690   35.1720   41.5740 N   0  0  0  0  0  0  0  0  0  0  0  0
   47.1700   33.1210   43.9170 C   0  0  0  0  0  0  0  0  0  0  0  0
   46.9340   31.7410   43.8840 C   0  0  0  0  0  0  0  0  0  0  0  0
   46.2460   31.4590   45.0660 C   0  0  0  0  0  0  0  0  0  0  0  0
   46.1060   32.6700   45.7410 C   0  0  0  0  0  0  0  0  0  0  0  0
   46.6640   33.5830   45.0180 O   0  0  0  0  0  0  0  0  0  0  0  0
   47.3201   33.0431   41.2818 H   0  0  0  0  0  0  0  0  0  0  0  0
   47.4235   35.5815   40.1201 H   0  0  0  0  0  0  0  0  0  0  0  0
   48.7053   34.2862   40.0905 H   0  0  0  0  0  0  0  0  0  0  0  0
   49.6706   36.3673   40.7262 H   0  0  0  0  0  0  0  0  0  0  0  0
   48.4229   36.5318   42.0568 H   0  0  0  0  0  0  0  0  0  0  0  0
   50.8901   34.9011   41.9215 H   0  0  0  0  0  0  0  0  0  0  0  0
   50.0935   35.7677   43.2971 H   0  0  0  0  0  0  0  0  0  0  0  0
   49.4915   33.0346   42.1476 H   0  0  0  0  0  0  0  0  0  0  0  0
   49.7493   33.5048   43.8428 H   0  0  0  0  0  0  0  0  0  0  0  0
   47.6350   35.0484   43.5183 H   0  0  0  0  0  0  0  0  0  0  0  0
   42.9024   33.7660   40.0128 H   0  0  0  0  0  0  0  0  0  0  0  0
   45.3097   33.0662   39.9715 H   0  0  0  0  0  0  0  0  0  0  0  0
   43.6516   36.5253   43.1432 H   0  0  0  0  0  0  0  0  0  0  0  0
   47.2275   31.0316   43.0962 H   0  0  0  0  0  0  0  0  0  0  0  0
   45.8855   30.4745   45.3988 H   0  0  0  0  0  0  0  0  0  0  0  0
   45.6110   32.8206   46.7117 H   0  0  0  0  0  0  0  0  0  0  0  0
  1  6  1  0
  2  3  1  0
  2  1  1  0
  3  4  1  0
  4  5  1  0
  5  6  1  0
  6 13  1  0
  7 12  2  0
  8  7  1  0
  8  9  2  0
  9  1  1  0
  9 10  1  0
 10 11  2  0
 12 11  1  0
 13 17  1  0
 14 13  2  0
 14 15  1  0
 15 16  2  0
 17 16  1  0
  1 18  1  6
  2 19  1  0
  2 20  1  0
  3 21  1  0
  3 22  1  0
  4 23  1  0
  4 24  1  0
  5 25  1  0
  5 26  1  0
  6 27  1  1
  7 28  1  0
  8 29  1  0
 11 30  1  0
 14 31  1  0
 15 32  1  0
 16 33  1  0
M  ISO  8  18  13  19  13  20  13  21  13  22  13  23  13  24  13  25  13
M  ISO  8  26  13  27  13  28  14  29  14  30  14  31  14  32  14  33  14
M  END
>  <minimizedAffinity>  (1) 
-5.29414272

>  <minimizedRMSD>  (1) 
2.34587598

$$$$
