
     RDKit          3D

 31 33  0  0  1  0  0  0  0  0999 V2000
   47.2070   34.0700   41.6170 C   0  0  1  0  0  0  0  0  0  0  0  0
   48.0790   34.9150   40.6980 C   0  0  0  0  0  0  0  0  0  0  0  0
   49.0270   35.8090   41.4230 C   0  0  0  0  0  0  0  0  0  0  0  0
   49.8840   35.1000   42.4340 C   0  0  0  0  0  0  0  0  0  0  0  0
   49.2180   33.8410   42.9360 C   0  0  0  0  0  0  0  0  0  0  0  0
   47.7360   34.1410   43.0210 C   0  0  2  0  0  0  0  0  0  0  0  0
   43.5890   34.2850   40.5740 C   0  0  0  0  0  0  0  0  0  0  0  0
   44.9380   33.8530   40.5790 C   0  0  0  0  0  0  0  0  0  0  0  0
   45.7730   34.4630   41.5130 C   0  0  0  0  0  0  0  0  0  0  0  0
   45.2670   35.4180   42.3490 N   0  0  0  0  0  0  0  0  0  0  0  0
   43.9620   35.8070   42.3150 C   0  0  0  0  0  0  0  0  0  0  0  0
   43.1460   35.2360   41.4290 N   0  0  0  0  0  0  0  0  0  0  0  0
   47.0260   33.2740   43.9590 C   0  0  0  0  0  0  0  0  0  0  0  0
   46.4100   33.5060   45.1340 N   0  0  0  0  0  0  0  0  0  0  0  0
   45.9060   32.4300   45.6310 O   0  0  0  0  0  0  0  0  0  0  0  0
   46.1760   31.4450   44.7920 C   0  0  0  0  0  0  0  0  0  0  0  0
   46.8680   31.9470   43.7490 N   0  0  0  0  0  0  0  0  0  0  0  0
   47.2523   33.0179   41.2993 H   0  0  0  0  0  0  0  0  0  0  0  0
   47.4224   35.5389   40.0738 H   0  0  0  0  0  0  0  0  0  0  0  0
   48.6872   34.2179   40.1030 H   0  0  0  0  0  0  0  0  0  0  0  0
   49.6872   36.2857   40.6834 H   0  0  0  0  0  0  0  0  0  0  0  0
   48.4168   36.5371   41.9776 H   0  0  0  0  0  0  0  0  0  0  0  0
   50.8438   34.8350   41.9664 H   0  0  0  0  0  0  0  0  0  0  0  0
   50.0390   35.7739   43.2894 H   0  0  0  0  0  0  0  0  0  0  0  0
   49.3980   33.0114   42.2364 H   0  0  0  0  0  0  0  0  0  0  0  0
   49.6196   33.5429   43.9157 H   0  0  0  0  0  0  0  0  0  0  0  0
   47.5678   35.1446   43.4387 H   0  0  0  0  0  0  0  0  0  0  0  0
   42.8845   33.8367   39.8579 H   0  0  0  0  0  0  0  0  0  0  0  0
   45.3049   33.0813   39.8863 H   0  0  0  0  0  0  0  0  0  0  0  0
   43.5887   36.5776   43.0055 H   0  0  0  0  0  0  0  0  0  0  0  0
   45.8850   30.3923   44.9226 H   0  0  0  0  0  0  0  0  0  0  0  0
  1  6  1  0
  2  3  1  0
  2  1  1  0
  3  4  1  0
  4  5  1  0
  5  6  1  0
  6 13  1  0
  7  8  2  0
  7 12  1  0
  8  9  1  0
  9  1  1  0
  9 10  2  0
 11 10  1  0
 12 11  2  0
 13 14  2  0
 14 15  1  0
 16 15  1  0
 17 13  1  0
 17 16  2  0
  1 18  1  6
  2 19  1  0
  2 20  1  0
  3 21  1  0
  3 22  1  0
  4 23  1  0
  4 24  1  0
  5 25  1  0
  5 26  1  0
  6 27  1  1
  7 28  1  0
  8 29  1  0
 11 30  1  0
 16 31  1  0
M  ISO  8  18  13  19  13  20  13  21  13  22  13  23  13  24  13  25  13
M  ISO  6  26  13  27  13  28  14  29  14  30  14  31  14
M  END
>  <minimizedAffinity>  (1) 
-5.21600676

>  <minimizedRMSD>  (1) 
2.54430652

$$$$
