
     RDKit          3D

 39 41  0  0  1  0  0  0  0  0999 V2000
   47.2910   34.0410   41.5450 C   0  0  1  0  0  0  0  0  0  0  0  0
   48.1510   34.9890   40.7280 C   0  0  0  0  0  0  0  0  0  0  0  0
   49.0900   35.8090   41.5450 C   0  0  0  0  0  0  0  0  0  0  0  0
   49.9370   35.0320   42.5040 C   0  0  0  0  0  0  0  0  0  0  0  0
   49.3430   33.6690   42.7690 C   0  0  0  0  0  0  0  0  0  0  0  0
   47.8480   33.8810   42.9270 C   0  0  2  0  0  0  0  0  0  0  0  0
   43.6430   34.3910   40.6400 C   0  0  0  0  0  0  0  0  0  0  0  0
   44.9850   33.9570   40.5590 C   0  0  0  0  0  0  0  0  0  0  0  0
   45.8560   34.4570   41.5430 C   0  0  0  0  0  0  0  0  0  0  0  0
   45.3810   35.3120   42.5010 N   0  0  0  0  0  0  0  0  0  0  0  0
   44.0780   35.6990   42.5350 C   0  0  0  0  0  0  0  0  0  0  0  0
   43.2160   35.2370   41.6030 N   0  0  0  0  0  0  0  0  0  0  0  0
   47.2470   32.7180   43.5260 N   0  0  0  0  0  0  0  0  0  0  0  0
   46.9400   32.9100   44.9270 C   0  0  0  0  0  0  0  0  0  0  0  0
   46.0350   31.7460   45.3280 C   0  0  0  0  0  0  0  0  0  0  0  0
   46.5720   30.5450   44.8870 O   0  0  0  0  0  0  0  0  0  0  0  0
   47.9150   30.6370   44.5750 C   0  0  0  0  0  0  0  0  0  0  0  0
   48.0120   31.5100   43.3150 C   0  0  0  0  0  0  0  0  0  0  0  0
   47.3189   33.0500   41.0684 H   0  0  0  0  0  0  0  0  0  0  0  0
   47.4869   35.6702   40.1758 H   0  0  0  0  0  0  0  0  0  0  0  0
   48.7670   34.3672   40.0617 H   0  0  0  0  0  0  0  0  0  0  0  0
   49.7589   36.3480   40.8580 H   0  0  0  0  0  0  0  0  0  0  0  0
   48.4643   36.4753   42.1570 H   0  0  0  0  0  0  0  0  0  0  0  0
   50.9433   34.9090   42.0771 H   0  0  0  0  0  0  0  0  0  0  0  0
   49.9864   35.5836   43.4544 H   0  0  0  0  0  0  0  0  0  0  0  0
   49.5451   32.9943   41.9241 H   0  0  0  0  0  0  0  0  0  0  0  0
   49.7796   33.2098   43.6682 H   0  0  0  0  0  0  0  0  0  0  0  0
   47.6445   34.7559   43.5620 H   0  0  0  0  0  0  0  0  0  0  0  0
   42.9212   34.0278   39.8936 H   0  0  0  0  0  0  0  0  0  0  0  0
   45.3282   33.2686   39.7726 H   0  0  0  0  0  0  0  0  0  0  0  0
   43.7268   36.3861   43.3189 H   0  0  0  0  0  0  0  0  0  0  0  0
   47.8633   32.8987   45.5248 H   0  0  0  0  0  0  0  0  0  0  0  0
   46.4483   33.8785   45.1007 H   0  0  0  0  0  0  0  0  0  0  0  0
   45.9402   31.7207   46.4236 H   0  0  0  0  0  0  0  0  0  0  0  0
   45.0459   31.8864   44.8676 H   0  0  0  0  0  0  0  0  0  0  0  0
   48.4665   31.1042   45.4042 H   0  0  0  0  0  0  0  0  0  0  0  0
   48.3524   29.6423   44.4040 H   0  0  0  0  0  0  0  0  0  0  0  0
   47.6060   30.9610   42.4526 H   0  0  0  0  0  0  0  0  0  0  0  0
   49.0637   31.7634   43.1156 H   0  0  0  0  0  0  0  0  0  0  0  0
  1  6  1  0
  2  3  1  0
  2  1  1  0
  3  4  1  0
  4  5  1  0
  5  6  1  0
  6 13  1  0
  7 12  2  0
  8  7  1  0
  8  9  2  0
  9  1  1  0
  9 10  1  0
 10 11  2  0
 12 11  1  0
 13 14  1  0
 14 15  1  0
 16 15  1  0
 17 16  1  0
 18 13  1  0
 18 17  1  0
  1 19  1  6
  2 20  1  0
  2 21  1  0
  3 22  1  0
  3 23  1  0
  4 24  1  0
  4 25  1  0
  5 26  1  0
  5 27  1  0
  6 28  1  1
  7 29  1  0
  8 30  1  0
 11 31  1  0
 14 32  1  0
 14 33  1  0
 15 34  1  0
 15 35  1  0
 17 36  1  0
 17 37  1  0
 18 38  1  0
 18 39  1  0
M  ISO  8  19  13  20  13  21  13  22  13  23  13  24  13  25  13  26  13
M  ISO  8  27  13  28  13  29  14  30  14  31  14  32  13  33  13  34  13
M  ISO  5  35  13  36  13  37  13  38  13  39  13
M  END
>  <minimizedAffinity>  (1) 
-5.20530748

>  <minimizedRMSD>  (1) 
2.16499543

$$$$
