
     RDKit          3D

 30 33  0  0  0  0  0  0  0  0999 V2000
   44.6210   34.2130   43.0440 N   0  0  0  0  0  0  0  0  0  0  0  0
   44.5190   35.5350   42.7970 C   0  0  0  0  0  0  0  0  0  0  0  0
   43.8430   35.7290   41.6490 N   0  0  0  0  0  0  0  0  0  0  0  0
   43.5240   34.5060   41.1800 C   0  0  0  0  0  0  0  0  0  0  0  0
   44.0060   33.5950   42.0440 N   0  0  0  0  0  0  0  0  0  0  0  0
   42.7850   34.2340   39.9520 C   0  0  0  0  0  0  0  0  0  0  0  0
   43.3450   33.8170   38.7620 C   0  0  0  0  0  0  0  0  0  0  0  0
   42.3550   33.6720   37.8610 N   0  0  0  0  0  0  0  0  0  0  0  0
   41.1820   33.9950   38.4790 C   0  0  0  0  0  0  0  0  0  0  0  0
   39.8980   34.0050   37.9870 C   0  0  0  0  0  0  0  0  0  0  0  0
   38.8940   34.3890   38.8820 C   0  0  0  0  0  0  0  0  0  0  0  0
   39.1480   34.7420   40.1920 C   0  0  0  0  0  0  0  0  0  0  0  0
   40.4250   34.7280   40.6650 C   0  0  0  0  0  0  0  0  0  0  0  0
   41.4210   34.3510   39.7900 C   0  0  0  0  0  0  0  0  0  0  0  0
   45.3770   34.1690   45.3260 C   0  0  0  0  0  0  0  0  0  0  0  0
   45.2330   33.4920   44.1120 C   0  0  0  0  0  0  0  0  0  0  0  0
   45.6920   32.1750   44.0370 C   0  0  0  0  0  0  0  0  0  0  0  0
   46.2520   31.6250   45.1410 N   0  0  0  0  0  0  0  0  0  0  0  0
   46.3790   32.2970   46.2950 C   0  0  0  0  0  0  0  0  0  0  0  0
   45.9390   33.5550   46.3660 N   0  0  0  0  0  0  0  0  0  0  0  0
   44.9259   36.3327   43.4358 H   0  0  0  0  0  0  0  0  0  0  0  0
   44.4145   33.6347   38.5808 H   0  0  0  0  0  0  0  0  0  0  0  0
   42.4635   33.3715   36.8818 H   0  0  0  0  0  0  0  0  0  0  0  0
   39.6728   33.7264   36.9470 H   0  0  0  0  0  0  0  0  0  0  0  0
   37.8537   34.4107   38.5253 H   0  0  0  0  0  0  0  0  0  0  0  0
   38.3193   35.0345   40.8536 H   0  0  0  0  0  0  0  0  0  0  0  0
   40.6526   35.0066   41.7045 H   0  0  0  0  0  0  0  0  0  0  0  0
   45.0268   35.2073   45.4226 H   0  0  0  0  0  0  0  0  0  0  0  0
   45.6010   31.5987   43.1045 H   0  0  0  0  0  0  0  0  0  0  0  0
   46.8397   31.8175   47.1713 H   0  0  0  0  0  0  0  0  0  0  0  0
  1 16  1  0
  2  1  1  0
  3  2  2  0
  4  3  1  0
  4  5  2  0
  5  1  1  0
  6  4  1  0
  7  6  2  0
  8  9  1  0
  8  7  1  0
  9 14  2  0
 10  9  1  0
 10 11  2  0
 11 12  1  0
 12 13  2  0
 14  6  1  0
 14 13  1  0
 15 20  2  0
 16 15  1  0
 17 16  2  0
 17 18  1  0
 18 19  2  0
 19 20  1  0
  2 21  1  0
  7 22  1  0
  8 23  1  0
 10 24  1  0
 11 25  1  0
 12 26  1  0
 13 27  1  0
 15 28  1  0
 17 29  1  0
 19 30  1  0
M  ISO  8  21  14  22  14  23   9  24  14  25  14  26  14  27  14  28  14
M  ISO  2  29  14  30  14
M  END
>  <minimizedAffinity>  (1) 
-5.80678415

>  <minimizedRMSD>  (1) 
2.64075089

$$$$
