
     RDKit          3D

 32 33  0  0  1  0  0  0  0  0999 V2000
   47.3550   34.0620   41.5380 C   0  0  1  0  0  0  0  0  0  0  0  0
   48.2160   35.0330   40.7510 C   0  0  0  0  0  0  0  0  0  0  0  0
   49.1430   35.8390   41.5950 C   0  0  0  0  0  0  0  0  0  0  0  0
   50.0080   35.0170   42.5080 C   0  0  0  0  0  0  0  0  0  0  0  0
   49.4020   33.6560   42.7410 C   0  0  0  0  0  0  0  0  0  0  0  0
   47.8990   33.8820   42.9220 C   0  0  2  0  0  0  0  0  0  0  0  0
   43.7110   34.3950   40.6280 C   0  0  0  0  0  0  0  0  0  0  0  0
   45.0360   33.9570   40.5540 C   0  0  0  0  0  0  0  0  0  0  0  0
   45.9200   34.4700   41.5060 C   0  0  0  0  0  0  0  0  0  0  0  0
   45.4540   35.3530   42.4380 N   0  0  0  0  0  0  0  0  0  0  0  0
   44.1540   35.7580   42.4830 C   0  0  0  0  0  0  0  0  0  0  0  0
   43.2870   35.2720   41.5700 N   0  0  0  0  0  0  0  0  0  0  0  0
   47.3110   32.6840   43.6480 C   0  0  0  0  0  0  0  0  0  0  0  0
   46.7240   33.1050   44.9830 C   0  0  0  0  0  0  0  0  0  0  0  0
   47.3939   33.0726   41.0589 H   0  0  0  0  0  0  0  0  0  0  0  0
   48.8156   34.4582   40.0298 H   0  0  0  0  0  0  0  0  0  0  0  0
   47.5320   35.7419   40.2615 H   0  0  0  0  0  0  0  0  0  0  0  0
   49.7975   36.4220   40.9304 H   0  0  0  0  0  0  0  0  0  0  0  0
   48.5168   36.4756   42.2373 H   0  0  0  0  0  0  0  0  0  0  0  0
   51.0011   34.8957   42.0508 H   0  0  0  0  0  0  0  0  0  0  0  0
   50.0912   35.5352   43.4747 H   0  0  0  0  0  0  0  0  0  0  0  0
   49.5877   33.0028   41.8756 H   0  0  0  0  0  0  0  0  0  0  0  0
   49.8424   33.1671   43.6225 H   0  0  0  0  0  0  0  0  0  0  0  0
   47.6488   34.7630   43.5313 H   0  0  0  0  0  0  0  0  0  0  0  0
   42.9854   34.0137   39.8944 H   0  0  0  0  0  0  0  0  0  0  0  0
   45.3663   33.2438   39.7844 H   0  0  0  0  0  0  0  0  0  0  0  0
   43.8165   36.4695   43.2510 H   0  0  0  0  0  0  0  0  0  0  0  0
   46.5184   32.2390   43.0286 H   0  0  0  0  0  0  0  0  0  0  0  0
   48.1104   31.9500   43.8272 H   0  0  0  0  0  0  0  0  0  0  0  0
   47.3234   32.6751   45.7990 H   0  0  0  0  0  0  0  0  0  0  0  0
   46.7350   34.2023   45.0587 H   0  0  0  0  0  0  0  0  0  0  0  0
   45.6882   32.7427   45.0587 H   0  0  0  0  0  0  0  0  0  0  0  0
  1  6  1  0
  2  1  1  0
  2  3  1  0
  3  4  1  0
  4  5  1  0
  5  6  1  0
  6 13  1  0
  7 12  2  0
  8  7  1  0
  8  9  2  0
  9  1  1  0
  9 10  1  0
 10 11  2  0
 12 11  1  0
 13 14  1  0
  1 15  1  6
  2 16  1  0
  2 17  1  0
  3 18  1  0
  3 19  1  0
  4 20  1  0
  4 21  1  0
  5 22  1  0
  5 23  1  0
  6 24  1  1
  7 25  1  0
  8 26  1  0
 11 27  1  0
 13 28  1  0
 13 29  1  0
 14 30  1  0
 14 31  1  0
 14 32  1  0
M  ISO  8  15  13  16  13  17  13  18  13  19  13  20  13  21  13  22  13
M  ISO  8  23  13  24  13  25  14  26  14  27  14  28   8  29   8  30   8
M  ISO  2  31   8  32   8
M  END
>  <minimizedAffinity>  (1) 
-4.80829811

>  <minimizedRMSD>  (1) 
2.33811355

$$$$
