
     RDKit          3D

 27 28  0  0  1  0  0  0  0  0999 V2000
   47.5260   34.0270   42.4580 C   0  0  1  0  0  0  0  0  0  0  0  0
   48.4740   35.1520   42.0650 C   0  0  0  0  0  0  0  0  0  0  0  0
   49.8620   34.9640   42.5750 C   0  0  0  0  0  0  0  0  0  0  0  0
   50.4700   33.6330   42.2340 C   0  0  0  0  0  0  0  0  0  0  0  0
   49.4070   32.5890   41.9860 C   0  0  0  0  0  0  0  0  0  0  0  0
   48.3010   32.8570   42.9850 C   0  0  2  0  0  0  0  0  0  0  0  0
   44.6610   35.9390   43.9940 C   0  0  0  0  0  0  0  0  0  0  0  0
   45.6290   35.5640   43.0420 C   0  0  0  0  0  0  0  0  0  0  0  0
   46.4770   34.5140   43.3970 C   0  0  0  0  0  0  0  0  0  0  0  0
   46.3310   33.9160   44.6190 N   0  0  0  0  0  0  0  0  0  0  0  0
   45.3800   34.3070   45.5150 C   0  0  0  0  0  0  0  0  0  0  0  0
   44.5490   35.3210   45.1920 N   0  0  0  0  0  0  0  0  0  0  0  0
   47.3060   31.4290   43.3430 S   0  0  0  0  0  0  0  0  0  0  0  0
   46.9888   33.6751   41.5649 H   0  0  0  0  0  0  0  0  0  0  0  0
   48.5110   35.2088   40.9671 H   0  0  0  0  0  0  0  0  0  0  0  0
   48.0851   36.0763   42.5172 H   0  0  0  0  0  0  0  0  0  0  0  0
   50.4968   35.7531   42.1456 H   0  0  0  0  0  0  0  0  0  0  0  0
   49.8041   35.0125   43.6724 H   0  0  0  0  0  0  0  0  0  0  0  0
   51.0835   33.7415   41.3275 H   0  0  0  0  0  0  0  0  0  0  0  0
   51.0854   33.3053   43.0848 H   0  0  0  0  0  0  0  0  0  0  0  0
   49.0213   32.6756   40.9595 H   0  0  0  0  0  0  0  0  0  0  0  0
   49.8118   31.5729   42.1033 H   0  0  0  0  0  0  0  0  0  0  0  0
   48.7230   33.1007   43.9711 H   0  0  0  0  0  0  0  0  0  0  0  0
   43.9724   36.7628   43.7550 H   0  0  0  0  0  0  0  0  0  0  0  0
   45.7122   36.0720   42.0699 H   0  0  0  0  0  0  0  0  0  0  0  0
   45.2911   33.8026   46.4885 H   0  0  0  0  0  0  0  0  0  0  0  0
   47.1991   31.2755   44.7002 H   0  0  0  0  0  0  0  0  0  0  0  0
  1  6  1  0
  1  9  1  0
  2  1  1  0
  2  3  1  0
  4  3  1  0
  5  4  1  0
  5  6  1  0
  6 13  1  0
  7 12  2  0
  8  9  2  0
  8  7  1  0
  9 10  1  0
 10 11  2  0
 12 11  1  0
  1 14  1  6
  2 15  1  0
  2 16  1  0
  3 17  1  0
  3 18  1  0
  4 19  1  0
  4 20  1  0
  5 21  1  0
  5 22  1  0
  6 23  1  1
  7 24  1  0
  8 25  1  0
 11 26  1  0
 13 27  1  0
M  ISO  8  14  13  15  13  16  13  17  13  18  13  19  13  20  13  21  13
M  ISO  6  22  13  23  13  24  14  25  14  26  14  27  11
M  END
>  <minimizedAffinity>  (1) 
-4.73348665

>  <minimizedRMSD>  (1) 
0.135701478

$$$$
