
     RDKit          3D

 28 29  0  0  1  0  0  0  0  0999 V2000
   47.1540   34.3740   42.1080 C   0  0  1  0  0  0  0  0  0  0  0  0
   48.3500   35.3050   42.0230 C   0  0  0  0  0  0  0  0  0  0  0  0
   49.6460   34.6710   42.3970 C   0  0  0  0  0  0  0  0  0  0  0  0
   49.9410   33.3830   41.6830 C   0  0  0  0  0  0  0  0  0  0  0  0
   48.6780   32.7530   41.1510 C   0  0  0  0  0  0  0  0  0  0  0  0
   47.6030   32.9540   42.1870 C   0  0  1  0  0  0  0  0  0  0  0  0
   44.5920   36.1970   44.1890 C   0  0  0  0  0  0  0  0  0  0  0  0
   45.4300   35.9210   43.1070 C   0  0  0  0  0  0  0  0  0  0  0  0
   46.2300   34.7790   43.2070 C   0  0  0  0  0  0  0  0  0  0  0  0
   46.1570   34.0070   44.3290 N   0  0  0  0  0  0  0  0  0  0  0  0
   45.3220   34.3120   45.3710 C   0  0  0  0  0  0  0  0  0  0  0  0
   44.5450   35.4120   45.2840 N   0  0  0  0  0  0  0  0  0  0  0  0
   47.9870   32.4940   43.5350 C   0  0  0  0  0  0  0  0  0  0  0  0
   48.1060   31.2890   43.8030 O   0  0  0  0  0  0  0  0  0  0  0  0
   46.5628   34.4588   41.1843 H   0  0  0  0  0  0  0  0  0  0  0  0
   48.4303   35.6697   40.9883 H   0  0  0  0  0  0  0  0  0  0  0  0
   48.1731   36.1135   42.7476 H   0  0  0  0  0  0  0  0  0  0  0  0
   50.4540   35.3821   42.1699 H   0  0  0  0  0  0  0  0  0  0  0  0
   49.5756   34.4253   43.4669 H   0  0  0  0  0  0  0  0  0  0  0  0
   50.6220   33.5860   40.8433 H   0  0  0  0  0  0  0  0  0  0  0  0
   50.4036   32.6864   42.3977 H   0  0  0  0  0  0  0  0  0  0  0  0
   48.3855   33.2363   40.2071 H   0  0  0  0  0  0  0  0  0  0  0  0
   48.8317   31.6818   40.9538 H   0  0  0  0  0  0  0  0  0  0  0  0
   46.7424   32.3057   41.9656 H   0  0  0  0  0  0  0  0  0  0  0  0
   43.9469   37.0870   44.1465 H   0  0  0  0  0  0  0  0  0  0  0  0
   45.4593   36.5702   42.2195 H   0  0  0  0  0  0  0  0  0  0  0  0
   45.2853   33.6709   46.2641 H   0  0  0  0  0  0  0  0  0  0  0  0
   48.1726   33.2390   44.3227 H   0  0  0  0  0  0  0  0  0  0  0  0
  1  6  1  0
  1  9  1  0
  2  1  1  0
  2  3  1  0
  4  3  1  0
  5  4  1  0
  5  6  1  0
  6 13  1  0
  7 12  2  0
  8  9  2  0
  8  7  1  0
  9 10  1  0
 10 11  2  0
 12 11  1  0
 13 14  2  0
  1 15  1  6
  2 16  1  0
  2 17  1  0
  3 18  1  0
  3 19  1  0
  4 20  1  0
  4 21  1  0
  5 22  1  0
  5 23  1  0
  6 24  1  6
  7 25  1  0
  8 26  1  0
 11 27  1  0
 13 28  1  0
M  ISO  8  15  13  16  13  17  13  18  13  19  13  20  13  21  13  22  13
M  ISO  6  23  13  24  13  25  14  26  14  27  14  28   6
M  END
>  <minimizedAffinity>  (1) 
-4.47425079

>  <minimizedRMSD>  (1) 
0.9755162

$$$$
