
     RDKit          3D

 32 34  0  0  0  0  0  0  0  0999 V2000
   47.1170   32.9260   44.3580 C   0  0  0  0  0  0  0  0  0  0  0  0
   46.0830   33.8570   44.4360 C   0  0  0  0  0  0  0  0  0  0  0  0
   45.3520   33.9830   45.5980 C   0  0  0  0  0  0  0  0  0  0  0  0
   45.6900   33.1640   46.6400 C   0  0  0  0  0  0  0  0  0  0  0  0
   46.7060   32.2300   46.6010 C   0  0  0  0  0  0  0  0  0  0  0  0
   47.3800   32.1590   45.4380 N   0  0  0  0  0  0  0  0  0  0  0  0
   49.7700   33.4400   41.9240 C   0  0  0  0  0  0  0  0  0  0  0  0
   49.4570   32.4920   40.9010 C   0  0  0  0  0  0  0  0  0  0  0  0
   48.3350   31.6880   41.0530 C   0  0  0  0  0  0  0  0  0  0  0  0
   47.5950   31.8560   42.1810 N   0  0  0  0  0  0  0  0  0  0  0  0
   47.9140   32.7740   43.1550 C   0  0  0  0  0  0  0  0  0  0  0  0
   48.9840   33.5280   42.9920 N   0  0  0  0  0  0  0  0  0  0  0  0
   45.6970   34.7640   43.3400 C   0  0  0  0  0  0  0  0  0  0  0  0
   44.9710   36.0240   43.8460 C   0  0  0  0  0  0  0  0  0  0  0  0
   44.4520   36.6110   42.5110 C   0  0  0  0  0  0  0  0  0  0  0  0
   43.7780   35.3400   41.9790 C   0  0  0  0  0  0  0  0  0  0  0  0
   44.7070   34.2130   42.3720 C   0  0  0  0  0  0  0  0  0  0  0  0
   44.5319   34.7111   45.6835 H   0  0  0  0  0  0  0  0  0  0  0  0
   45.1133   33.2557   47.5722 H   0  0  0  0  0  0  0  0  0  0  0  0
   46.9480   31.5882   47.4609 H   0  0  0  0  0  0  0  0  0  0  0  0
   50.6523   34.0899   41.8283 H   0  0  0  0  0  0  0  0  0  0  0  0
   50.0939   32.4009   40.0088 H   0  0  0  0  0  0  0  0  0  0  0  0
   48.0562   30.9450   40.2913 H   0  0  0  0  0  0  0  0  0  0  0  0
   46.6730   34.9502   42.8681 H   0  0  0  0  0  0  0  0  0  0  0  0
   44.1443   35.7701   44.5258 H   0  0  0  0  0  0  0  0  0  0  0  0
   45.6005   36.7095   44.4323 H   0  0  0  0  0  0  0  0  0  0  0  0
   43.7355   37.4313   42.6652 H   0  0  0  0  0  0  0  0  0  0  0  0
   45.2061   37.0723   41.8564 H   0  0  0  0  0  0  0  0  0  0  0  0
   43.6693   35.3884   40.8855 H   0  0  0  0  0  0  0  0  0  0  0  0
   42.7664   35.2049   42.3895 H   0  0  0  0  0  0  0  0  0  0  0  0
   44.1337   33.4008   42.8428 H   0  0  0  0  0  0  0  0  0  0  0  0
   45.2170   33.8054   41.4867 H   0  0  0  0  0  0  0  0  0  0  0  0
  1  2  1  0
  1  6  2  0
  2  3  2  0
  3  4  1  0
  5  4  2  0
  6  5  1  0
  7 12  2  0
  8  9  2  0
  8  7  1  0
  9 10  1  0
 10 11  2  0
 11  1  1  0
 12 11  1  0
 13 14  1  0
 13  2  1  0
 15 14  1  0
 16 17  1  0
 16 15  1  0
 17 13  1  0
  3 18  1  0
  4 19  1  0
  5 20  1  0
  7 21  1  0
  8 22  1  0
  9 23  1  0
 13 24  1  0
 14 25  1  0
 14 26  1  0
 15 27  1  0
 15 28  1  0
 16 29  1  0
 16 30  1  0
 17 31  1  0
 17 32  1  0
M  ISO  8  18  14  19  14  20  14  21  14  22  14  23  14  24  13  25  13
M  ISO  7  26  13  27  13  28  13  29  13  30  13  31  13  32  13
M  END
>  <minimizedAffinity>  (1) 
-4.10831928

>  <minimizedRMSD>  (1) 
4.93861818

$$$$
