
     RDKit          3D

 32 35  0  0  0  0  0  0  0  0999 V2000
   43.6280   34.3930   41.5820 N   0  0  0  0  0  0  0  0  0  0  0  0
   43.4940   35.4070   40.7020 C   0  0  0  0  0  0  0  0  0  0  0  0
   42.7910   34.9740   39.6490 N   0  0  0  0  0  0  0  0  0  0  0  0
   42.4760   33.6870   39.8550 C   0  0  0  0  0  0  0  0  0  0  0  0
   43.0050   33.3770   41.0420 N   0  0  0  0  0  0  0  0  0  0  0  0
   41.7430   32.6200   39.1400 C   0  0  0  0  0  0  0  0  0  0  0  0
   42.2340   31.3180   38.9780 C   0  0  0  0  0  0  0  0  0  0  0  0
   41.5430   30.3530   38.3170 C   0  0  0  0  0  0  0  0  0  0  0  0
   40.3230   30.5950   37.7670 C   0  0  0  0  0  0  0  0  0  0  0  0
   39.7980   31.8590   37.9000 C   0  0  0  0  0  0  0  0  0  0  0  0
   38.5610   32.0760   37.3340 C   0  0  0  0  0  0  0  0  0  0  0  0
   37.9640   33.2930   37.4140 C   0  0  0  0  0  0  0  0  0  0  0  0
   38.6550   34.3040   38.0900 C   0  0  0  0  0  0  0  0  0  0  0  0
   39.8910   34.0310   38.6380 C   0  0  0  0  0  0  0  0  0  0  0  0
   40.5160   32.8250   38.5750 C   0  0  0  0  0  0  0  0  0  0  0  0
   44.2060   35.4660   43.6670 C   0  0  0  0  0  0  0  0  0  0  0  0
   44.2790   34.3100   42.8580 C   0  0  0  0  0  0  0  0  0  0  0  0
   44.9570   33.1910   43.3240 C   0  0  0  0  0  0  0  0  0  0  0  0
   45.5230   33.2630   44.5540 N   0  0  0  0  0  0  0  0  0  0  0  0
   45.4390   34.3870   45.3160 C   0  0  0  0  0  0  0  0  0  0  0  0
   44.7830   35.4670   44.8590 N   0  0  0  0  0  0  0  0  0  0  0  0
   43.8965   36.4228   40.8293 H   0  0  0  0  0  0  0  0  0  0  0  0
   43.2173   31.0673   39.4025 H   0  0  0  0  0  0  0  0  0  0  0  0
   41.9822   29.3488   38.2242 H   0  0  0  0  0  0  0  0  0  0  0  0
   39.7740   29.8053   37.2331 H   0  0  0  0  0  0  0  0  0  0  0  0
   38.0508   31.2537   36.8110 H   0  0  0  0  0  0  0  0  0  0  0  0
   36.9766   33.4764   36.9652 H   0  0  0  0  0  0  0  0  0  0  0  0
   38.2164   35.3084   38.1838 H   0  0  0  0  0  0  0  0  0  0  0  0
   40.4081   34.8473   39.1636 H   0  0  0  0  0  0  0  0  0  0  0  0
   43.6733   36.3594   43.3091 H   0  0  0  0  0  0  0  0  0  0  0  0
   45.0322   32.2775   42.7159 H   0  0  0  0  0  0  0  0  0  0  0  0
   45.9098   34.4117   46.3098 H   0  0  0  0  0  0  0  0  0  0  0  0
  1 17  1  0
  2  1  1  0
  3  4  1  0
  3  2  2  0
  4  5  2  0
  5  1  1  0
  6  4  1  0
  7  6  2  0
  8  7  1  0
  9 10  1  0
  9  8  2  0
 10 15  2  0
 11 12  2  0
 11 10  1  0
 12 13  1  0
 13 14  2  0
 15 14  1  0
 15  6  1  0
 16 21  2  0
 17 18  2  0
 17 16  1  0
 18 19  1  0
 19 20  2  0
 21 20  1  0
  2 22  1  0
  7 23  1  0
  8 24  1  0
  9 25  1  0
 11 26  1  0
 12 27  1  0
 13 28  1  0
 14 29  1  0
 16 30  1  0
 18 31  1  0
 20 32  1  0
M  ISO  8  22  14  23  14  24  14  25  14  26  14  27  14  28  14  29  14
M  ISO  3  30  14  31  14  32  14
M  END
>  <minimizedAffinity>  (1) 
-5.49754906

>  <minimizedRMSD>  (1) 
2.55103016

$$$$
