
     RDKit          3D

 21 22  0  0  0  0  0  0  0  0999 V2000
   46.0480   33.0220   46.2700 C   0  0  0  0  0  0  0  0  0  0  0  0
   45.3910   33.0050   47.4770 C   0  0  0  0  0  0  0  0  0  0  0  0
   45.6160   32.1060   48.4950 C   0  0  0  0  0  0  0  0  0  0  0  0
   46.5910   31.1920   48.1880 C   0  0  0  0  0  0  0  0  0  0  0  0
   47.2990   31.1360   47.0020 C   0  0  0  0  0  0  0  0  0  0  0  0
   46.9770   32.0760   46.0940 N   0  0  0  0  0  0  0  0  0  0  0  0
   44.5600   35.8560   44.5560 C   0  0  0  0  0  0  0  0  0  0  0  0
   45.1940   35.8770   43.3000 C   0  0  0  0  0  0  0  0  0  0  0  0
   46.1430   34.8950   43.0560 C   0  0  0  0  0  0  0  0  0  0  0  0
   46.4080   33.9760   44.0330 N   0  0  0  0  0  0  0  0  0  0  0  0
   45.7610   33.9990   45.2420 C   0  0  0  0  0  0  0  0  0  0  0  0
   44.8340   34.9450   45.4990 N   0  0  0  0  0  0  0  0  0  0  0  0
   44.3900   34.0290   47.6580 N   0  0  0  0  0  0  0  0  0  0  0  0
   45.0725   32.1194   49.4512 H   0  0  0  0  0  0  0  0  0  0  0  0
   46.8306   30.4377   48.9519 H   0  0  0  0  0  0  0  0  0  0  0  0
   48.0717   30.3762   46.8134 H   0  0  0  0  0  0  0  0  0  0  0  0
   43.8034   36.6242   44.7738 H   0  0  0  0  0  0  0  0  0  0  0  0
   44.9480   36.6383   42.5451 H   0  0  0  0  0  0  0  0  0  0  0  0
   46.6732   34.8564   42.0930 H   0  0  0  0  0  0  0  0  0  0  0  0
   43.8569   34.0782   48.5379 H   0  0  0  0  0  0  0  0  0  0  0  0
   44.2088   34.7105   46.9072 H   0  0  0  0  0  0  0  0  0  0  0  0
  1  2  2  0
  2 13  1  0
  2  3  1  0
  4  3  2  0
  5  4  1  0
  6  1  1  0
  6  5  2  0
  7 12  2  0
  8  7  1  0
  9  8  2  0
  9 10  1  0
 10 11  2  0
 11 12  1  0
 11  1  1  0
  3 14  1  0
  4 15  1  0
  5 16  1  0
  7 17  1  0
  8 18  1  0
  9 19  1  0
 13 20  1  0
 13 21  1  0
M  ISO  6  14  14  15  14  16  14  17  14  18  14  19  14
M  END
>  <minimizedAffinity>  (1) 
-5.27777529

>  <minimizedRMSD>  (1) 
0.752714932

$$$$
