
     RDKit          3D

 30 33  0  0  0  0  0  0  0  0999 V2000
   44.0310   34.4290   42.1260 N   0  0  0  0  0  0  0  0  0  0  0  0
   43.8230   35.6270   41.5450 C   0  0  0  0  0  0  0  0  0  0  0  0
   43.1650   35.4430   40.3960 N   0  0  0  0  0  0  0  0  0  0  0  0
   42.9500   34.1280   40.2400 C   0  0  0  0  0  0  0  0  0  0  0  0
   43.4950   33.5490   41.3190 N   0  0  0  0  0  0  0  0  0  0  0  0
   42.3160   33.2140   39.2650 C   0  0  0  0  0  0  0  0  0  0  0  0
   42.9900   32.2790   38.5300 N   0  0  0  0  0  0  0  0  0  0  0  0
   42.3870   31.4740   37.6610 C   0  0  0  0  0  0  0  0  0  0  0  0
   41.0590   31.5160   37.4360 N   0  0  0  0  0  0  0  0  0  0  0  0
   40.3080   32.4190   38.1260 C   0  0  0  0  0  0  0  0  0  0  0  0
   38.9620   32.4500   37.8870 C   0  0  0  0  0  0  0  0  0  0  0  0
   38.1600   33.3470   38.5610 C   0  0  0  0  0  0  0  0  0  0  0  0
   38.7740   34.1880   39.4650 C   0  0  0  0  0  0  0  0  0  0  0  0
   40.1340   34.1090   39.6620 C   0  0  0  0  0  0  0  0  0  0  0  0
   40.9620   33.2350   39.0140 C   0  0  0  0  0  0  0  0  0  0  0  0
   44.6670   35.0250   44.3710 C   0  0  0  0  0  0  0  0  0  0  0  0
   44.6760   34.0570   43.3490 C   0  0  0  0  0  0  0  0  0  0  0  0
   45.2990   32.8190   43.5800 C   0  0  0  0  0  0  0  0  0  0  0  0
   45.8670   32.6130   44.7870 N   0  0  0  0  0  0  0  0  0  0  0  0
   45.8510   33.5590   45.7660 C   0  0  0  0  0  0  0  0  0  0  0  0
   45.2500   34.7530   45.5440 N   0  0  0  0  0  0  0  0  0  0  0  0
   44.1427   36.5984   41.9503 H   0  0  0  0  0  0  0  0  0  0  0  0
   42.9951   30.7458   37.1043 H   0  0  0  0  0  0  0  0  0  0  0  0
   38.5181   31.7583   37.1559 H   0  0  0  0  0  0  0  0  0  0  0  0
   37.0751   33.3898   38.3847 H   0  0  0  0  0  0  0  0  0  0  0  0
   38.1777   34.9211   40.0280 H   0  0  0  0  0  0  0  0  0  0  0  0
   40.5862   34.7969   40.3916 H   0  0  0  0  0  0  0  0  0  0  0  0
   44.1835   35.9992   44.2061 H   0  0  0  0  0  0  0  0  0  0  0  0
   45.3231   32.0421   42.8017 H   0  0  0  0  0  0  0  0  0  0  0  0
   46.3258   33.3541   46.7369 H   0  0  0  0  0  0  0  0  0  0  0  0
  1 17  1  0
  2  1  1  0
  3  2  2  0
  4  3  1  0
  4  5  2  0
  5  1  1  0
  6  4  1  0
  7  6  2  0
  8  7  1  0
  9  8  2  0
  9 10  1  0
 10 15  2  0
 11 10  1  0
 11 12  2  0
 12 13  1  0
 13 14  2  0
 15  6  1  0
 15 14  1  0
 16 21  2  0
 17 18  2  0
 17 16  1  0
 18 19  1  0
 19 20  2  0
 21 20  1  0
  2 22  1  0
  8 23  1  0
 11 24  1  0
 12 25  1  0
 13 26  1  0
 14 27  1  0
 16 28  1  0
 18 29  1  0
 20 30  1  0
M  ISO  8  22  14  23  14  24  14  25  14  26  14  27  14  28  14  29  14
M  ISO  1  30  14
M  END
>  <minimizedAffinity>  (1) 
-5.3797884

>  <minimizedRMSD>  (1) 
1.73946249

$$$$
