
     RDKit          3D

 37 40  0  0  0  0  0  0  0  0999 V2000
   44.6770   35.6410   44.5790 C   0  0  0  0  0  0  0  0  0  0  0  0
   45.3880   35.6080   43.3610 C   0  0  0  0  0  0  0  0  0  0  0  0
   46.3560   34.6400   43.2030 C   0  0  0  0  0  0  0  0  0  0  0  0
   46.5410   33.8070   44.2310 N   0  0  0  0  0  0  0  0  0  0  0  0
   45.8610   33.8370   45.4000 C   0  0  0  0  0  0  0  0  0  0  0  0
   44.9160   34.7700   45.5680 N   0  0  0  0  0  0  0  0  0  0  0  0
   47.0310   34.6630   41.9390 C   0  0  0  0  0  0  0  0  0  0  0  0
   48.1570   35.4070   41.7130 C   0  0  0  0  0  0  0  0  0  0  0  0
   48.8480   35.4770   40.5260 C   0  0  0  0  0  0  0  0  0  0  0  0
   48.4310   34.7700   39.4380 C   0  0  0  0  0  0  0  0  0  0  0  0
   47.3050   33.9950   39.5850 C   0  0  0  0  0  0  0  0  0  0  0  0
   46.8790   33.2830   38.4890 C   0  0  0  0  0  0  0  0  0  0  0  0
   45.7550   32.4900   38.5680 C   0  0  0  0  0  0  0  0  0  0  0  0
   45.0720   32.4310   39.7660 C   0  0  0  0  0  0  0  0  0  0  0  0
   45.5540   33.1710   40.8220 C   0  0  0  0  0  0  0  0  0  0  0  0
   46.6670   33.9770   40.8060 C   0  0  0  0  0  0  0  0  0  0  0  0
   46.1320   32.8870   46.4580 C   0  0  0  0  0  0  0  0  0  0  0  0
   45.4100   32.9210   47.6410 C   0  0  0  0  0  0  0  0  0  0  0  0
   45.6070   32.0540   48.6950 C   0  0  0  0  0  0  0  0  0  0  0  0
   46.5920   31.1410   48.4700 C   0  0  0  0  0  0  0  0  0  0  0  0
   47.3480   31.0480   47.3210 C   0  0  0  0  0  0  0  0  0  0  0  0
   47.0630   31.9470   46.3670 N   0  0  0  0  0  0  0  0  0  0  0  0
   44.3920   33.9510   47.7380 N   0  0  0  0  0  0  0  0  0  0  0  0
   43.9008   36.4073   44.7212 H   0  0  0  0  0  0  0  0  0  0  0  0
   45.1761   36.3331   42.5615 H   0  0  0  0  0  0  0  0  0  0  0  0
   48.5433   36.0011   42.5544 H   0  0  0  0  0  0  0  0  0  0  0  0
   49.7453   36.1093   40.4541 H   0  0  0  0  0  0  0  0  0  0  0  0
   48.9729   34.8175   38.4819 H   0  0  0  0  0  0  0  0  0  0  0  0
   47.4384   33.3467   37.5440 H   0  0  0  0  0  0  0  0  0  0  0  0
   45.4095   31.9164   37.6953 H   0  0  0  0  0  0  0  0  0  0  0  0
   44.1696   31.8113   39.8737 H   0  0  0  0  0  0  0  0  0  0  0  0
   44.9956   33.1116   41.7679 H   0  0  0  0  0  0  0  0  0  0  0  0
   45.0248   32.0958   49.6274 H   0  0  0  0  0  0  0  0  0  0  0  0
   46.8018   30.4176   49.2717 H   0  0  0  0  0  0  0  0  0  0  0  0
   48.1326   30.2874   47.1949 H   0  0  0  0  0  0  0  0  0  0  0  0
   43.8198   34.0309   48.5907 H   0  0  0  0  0  0  0  0  0  0  0  0
   44.2417   34.6020   46.9541 H   0  0  0  0  0  0  0  0  0  0  0  0
  1  6  2  0
  2  1  1  0
  3  2  2  0
  3  4  1  0
  4  5  2  0
  5  6  1  0
  5 17  1  0
  7  3  1  0
  8  7  2  0
  9  8  1  0
 10 11  1  0
 10  9  2  0
 11 16  2  0
 12 13  2  0
 12 11  1  0
 13 14  1  0
 14 15  2  0
 16 15  1  0
 16  7  1  0
 17 18  2  0
 18 23  1  0
 18 19  1  0
 20 19  2  0
 21 20  1  0
 22 17  1  0
 22 21  2  0
  1 24  1  0
  2 25  1  0
  8 26  1  0
  9 27  1  0
 10 28  1  0
 12 29  1  0
 13 30  1  0
 14 31  1  0
 15 32  1  0
 19 33  1  0
 20 34  1  0
 21 35  1  0
 23 36  1  0
 23 37  1  0
M  ISO  8  24  14  25  14  26  14  27  14  28  14  29  14  30  14  31  14
M  ISO  4  32  14  33  14  34  14  35  14
M  END
>  <minimizedAffinity>  (1) 
-7.74429369

>  <minimizedRMSD>  (1) 
1.06555903

$$$$
