
     RDKit          3D

 29 31  0  0  0  0  0  0  0  0999 V2000
   44.4280   34.1680   42.5840 N   0  0  0  0  0  0  0  0  0  0  0  0
   44.6930   35.3750   42.0350 C   0  0  0  0  0  0  0  0  0  0  0  0
   43.8450   35.5990   41.0070 N   0  0  0  0  0  0  0  0  0  0  0  0
   43.0400   34.5220   40.9110 C   0  0  0  0  0  0  0  0  0  0  0  0
   43.4140   33.6650   41.8810 N   0  0  0  0  0  0  0  0  0  0  0  0
   41.9550   34.1230   40.0640 N   0  0  0  0  0  0  0  0  0  0  0  0
   40.7660   33.8830   40.6600 C   0  0  0  0  0  0  0  0  0  0  0  0
   39.7090   33.4960   39.8450 C   0  0  0  0  0  0  0  0  0  0  0  0
   38.3510   33.2020   40.3760 C   0  0  0  0  0  0  0  0  0  0  0  0
   39.9200   33.3780   38.4950 C   0  0  0  0  0  0  0  0  0  0  0  0
   39.0060   33.0320   37.7080 O   0  0  0  0  0  0  0  0  0  0  0  0
   41.1050   33.6170   37.9010 N   0  0  0  0  0  0  0  0  0  0  0  0
   42.1230   33.9950   38.7220 C   0  0  0  0  0  0  0  0  0  0  0  0
   43.2690   34.2470   38.3010 O   0  0  0  0  0  0  0  0  0  0  0  0
   45.3190   34.2200   44.8200 C   0  0  0  0  0  0  0  0  0  0  0  0
   45.0290   33.4810   43.6710 C   0  0  0  0  0  0  0  0  0  0  0  0
   45.3500   32.1250   43.6730 C   0  0  0  0  0  0  0  0  0  0  0  0
   45.9230   31.5920   44.7820 N   0  0  0  0  0  0  0  0  0  0  0  0
   46.1900   32.3250   45.8730 C   0  0  0  0  0  0  0  0  0  0  0  0
   45.8850   33.6350   45.8820 N   0  0  0  0  0  0  0  0  0  0  0  0
   45.4778   36.0677   42.3731 H   0  0  0  0  0  0  0  0  0  0  0  0
   40.6399   33.9898   41.7475 H   0  0  0  0  0  0  0  0  0  0  0  0
   38.3781   33.2079   41.4757 H   0  0  0  0  0  0  0  0  0  0  0  0
   37.6453   33.9682   40.0225 H   0  0  0  0  0  0  0  0  0  0  0  0
   38.0254   32.2126   40.0225 H   0  0  0  0  0  0  0  0  0  0  0  0
   41.2336   33.5194   36.8837 H   0  0  0  0  0  0  0  0  0  0  0  0
   45.0798   35.2932   44.8523 H   0  0  0  0  0  0  0  0  0  0  0  0
   45.1430   31.4986   42.7928 H   0  0  0  0  0  0  0  0  0  0  0  0
   46.6550   31.8583   46.7539 H   0  0  0  0  0  0  0  0  0  0  0  0
  1 16  1  0
  2  1  1  0
  3  2  2  0
  4  3  1  0
  4  5  2  0
  5  1  1  0
  6  7  1  0
  6  4  1  0
  8  9  1  0
  8  7  2  0
 10  8  1  0
 11 10  2  0
 12 10  1  0
 12 13  1  0
 13  6  1  0
 14 13  2  0
 15 20  2  0
 16 17  2  0
 16 15  1  0
 17 18  1  0
 18 19  2  0
 19 20  1  0
  2 21  1  0
  7 22  1  0
  9 23  1  0
  9 24  1  0
  9 25  1  0
 12 26  1  0
 15 27  1  0
 17 28  1  0
 19 29  1  0
M  ISO  8  21  14  22  14  23   8  24   8  25   8  26   9  27  14  28  14
M  ISO  1  29  14
M  END
>  <minimizedAffinity>  (1) 
-5.33959675

>  <minimizedRMSD>  (1) 
2.91981483

$$$$
