
     RDKit          3D

 28 30  0  0  0  0  0  0  0  0999 V2000
   44.5520   35.8020   44.5720 C   0  0  0  0  0  0  0  0  0  0  0  0
   45.2380   35.8520   43.3360 C   0  0  0  0  0  0  0  0  0  0  0  0
   46.2140   34.9060   43.1250 C   0  0  0  0  0  0  0  0  0  0  0  0
   46.4580   33.9930   44.1010 N   0  0  0  0  0  0  0  0  0  0  0  0
   45.7810   33.9690   45.2830 C   0  0  0  0  0  0  0  0  0  0  0  0
   44.8260   34.8860   45.5020 N   0  0  0  0  0  0  0  0  0  0  0  0
   46.0530   32.9880   46.3160 C   0  0  0  0  0  0  0  0  0  0  0  0
   45.3920   32.9770   47.5090 C   0  0  0  0  0  0  0  0  0  0  0  0
   45.6160   32.0660   48.5180 C   0  0  0  0  0  0  0  0  0  0  0  0
   46.5780   31.1470   48.2270 C   0  0  0  0  0  0  0  0  0  0  0  0
   47.2900   31.0990   47.0350 C   0  0  0  0  0  0  0  0  0  0  0  0
   46.9830   32.0390   46.1280 N   0  0  0  0  0  0  0  0  0  0  0  0
   44.4020   34.0010   47.6850 N   0  0  0  0  0  0  0  0  0  0  0  0
   47.0150   34.8140   41.9090 C   0  0  0  0  0  0  0  0  0  0  0  0
   48.2260   35.4610   41.7830 C   0  0  0  0  0  0  0  0  0  0  0  0
   48.6970   35.1490   40.5050 C   0  0  0  0  0  0  0  0  0  0  0  0
   47.7410   34.3320   39.9390 C   0  0  0  0  0  0  0  0  0  0  0  0
   46.7620   34.1570   40.8000 O   0  0  0  0  0  0  0  0  0  0  0  0
   43.7654   36.5442   44.7732 H   0  0  0  0  0  0  0  0  0  0  0  0
   45.0016   36.6131   42.5778 H   0  0  0  0  0  0  0  0  0  0  0  0
   45.0679   32.0797   49.4716 H   0  0  0  0  0  0  0  0  0  0  0  0
   46.8076   30.3887   48.9901 H   0  0  0  0  0  0  0  0  0  0  0  0
   48.0595   30.3360   46.8460 H   0  0  0  0  0  0  0  0  0  0  0  0
   43.8644   34.0523   48.5621 H   0  0  0  0  0  0  0  0  0  0  0  0
   44.2291   34.6846   46.9342 H   0  0  0  0  0  0  0  0  0  0  0  0
   48.7204   36.0936   42.5350 H   0  0  0  0  0  0  0  0  0  0  0  0
   49.6375   35.4860   40.0447 H   0  0  0  0  0  0  0  0  0  0  0  0
   47.7893   33.8967   38.9299 H   0  0  0  0  0  0  0  0  0  0  0  0
  1  6  2  0
  2  1  1  0
  3  2  2  0
  3  4  1  0
  4  5  2  0
  5  6  1  0
  5  7  1  0
  7  8  2  0
  8 13  1  0
  8  9  1  0
 10  9  2  0
 11 10  1  0
 12  7  1  0
 12 11  2  0
 14  3  1  0
 15 14  2  0
 16 15  1  0
 17 16  2  0
 17 18  1  0
 18 14  1  0
  1 19  1  0
  2 20  1  0
  9 21  1  0
 10 22  1  0
 11 23  1  0
 13 24  1  0
 13 25  1  0
 15 26  1  0
 16 27  1  0
 17 28  1  0
M  ISO  8  19  14  20  14  21  14  22  14  23  14  26  14  27  14  28  14
M  END
>  <minimizedAffinity>  (1) 
-6.81648731

>  <minimizedRMSD>  (1) 
0.290679306

$$$$
