
     RDKit          3D

 28 30  0  0  0  0  0  0  0  0999 V2000
   44.5380   35.8410   44.6640 C   0  0  0  0  0  0  0  0  0  0  0  0
   45.1570   35.9000   43.4130 C   0  0  0  0  0  0  0  0  0  0  0  0
   46.0990   34.9360   43.1420 C   0  0  0  0  0  0  0  0  0  0  0  0
   46.3780   33.9990   44.0780 N   0  0  0  0  0  0  0  0  0  0  0  0
   45.7490   33.9770   45.2920 C   0  0  0  0  0  0  0  0  0  0  0  0
   44.8300   34.9110   45.5670 N   0  0  0  0  0  0  0  0  0  0  0  0
   46.0390   32.9810   46.3010 C   0  0  0  0  0  0  0  0  0  0  0  0
   45.4040   32.9350   47.5110 C   0  0  0  0  0  0  0  0  0  0  0  0
   45.6570   32.0010   48.4910 C   0  0  0  0  0  0  0  0  0  0  0  0
   46.6190   31.0990   48.1430 C   0  0  0  0  0  0  0  0  0  0  0  0
   47.3080   31.0780   46.9360 C   0  0  0  0  0  0  0  0  0  0  0  0
   46.9690   32.0400   46.0720 N   0  0  0  0  0  0  0  0  0  0  0  0
   44.4140   33.9560   47.7270 N   0  0  0  0  0  0  0  0  0  0  0  0
   46.8840   34.7860   41.9030 C   0  0  0  0  0  0  0  0  0  0  0  0
   48.1230   35.3940   41.6490 C   0  0  0  0  0  0  0  0  0  0  0  0
   48.6860   35.1220   40.4290 C   0  0  0  0  0  0  0  0  0  0  0  0
   48.0960   34.3060   39.4930 C   0  0  0  0  0  0  0  0  0  0  0  0
   46.4930   33.8280   40.4430 S   0  0  0  0  0  0  0  0  0  0  0  0
   43.7772   36.5959   44.9118 H   0  0  0  0  0  0  0  0  0  0  0  0
   44.9030   36.6801   42.6802 H   0  0  0  0  0  0  0  0  0  0  0  0
   45.1347   31.9842   49.4589 H   0  0  0  0  0  0  0  0  0  0  0  0
   46.8710   30.3223   48.8800 H   0  0  0  0  0  0  0  0  0  0  0  0
   48.0764   30.3245   46.7083 H   0  0  0  0  0  0  0  0  0  0  0  0
   43.8923   33.9879   48.6145 H   0  0  0  0  0  0  0  0  0  0  0  0
   44.2268   34.6551   46.9941 H   0  0  0  0  0  0  0  0  0  0  0  0
   48.6128   36.0492   42.3844 H   0  0  0  0  0  0  0  0  0  0  0  0
   49.6570   35.5788   40.1872 H   0  0  0  0  0  0  0  0  0  0  0  0
   48.4408   34.0116   38.4908 H   0  0  0  0  0  0  0  0  0  0  0  0
  1  6  2  0
  2  1  1  0
  3  2  2  0
  3  4  1  0
  4  5  2  0
  5  6  1  0
  5  7  1  0
  7  8  2  0
  8 13  1  0
  8  9  1  0
 10  9  2  0
 11 10  1  0
 12  7  1  0
 12 11  2  0
 14  3  1  0
 15 14  2  0
 16 15  1  0
 17 16  2  0
 17 18  1  0
 18 14  1  0
  1 19  1  0
  2 20  1  0
  9 21  1  0
 10 22  1  0
 11 23  1  0
 13 24  1  0
 13 25  1  0
 15 26  1  0
 16 27  1  0
 17 28  1  0
M  ISO  8  19  14  20  14  21  14  22  14  23  14  26  14  27  14  28  14
M  END
>  <minimizedAffinity>  (1) 
-6.76636744

>  <minimizedRMSD>  (1) 
0.690351963

$$$$
