
     RDKit          3D

 29 31  0  0  0  0  0  0  0  0999 V2000
   44.5960   35.7790   44.5710 C   0  0  0  0  0  0  0  0  0  0  0  0
   45.2470   35.7750   43.3210 C   0  0  0  0  0  0  0  0  0  0  0  0
   46.1980   34.7980   43.1230 C   0  0  0  0  0  0  0  0  0  0  0  0
   46.4550   33.9070   44.1140 N   0  0  0  0  0  0  0  0  0  0  0  0
   45.7900   33.9500   45.3220 C   0  0  0  0  0  0  0  0  0  0  0  0
   44.8600   34.8920   45.5430 N   0  0  0  0  0  0  0  0  0  0  0  0
   46.0780   32.9910   46.3700 C   0  0  0  0  0  0  0  0  0  0  0  0
   45.3840   32.9960   47.5620 C   0  0  0  0  0  0  0  0  0  0  0  0
   45.6130   32.1100   48.5960 C   0  0  0  0  0  0  0  0  0  0  0  0
   46.6020   31.2120   48.3270 C   0  0  0  0  0  0  0  0  0  0  0  0
   47.3320   31.1470   47.1650 C   0  0  0  0  0  0  0  0  0  0  0  0
   47.0250   32.0590   46.2260 N   0  0  0  0  0  0  0  0  0  0  0  0
   44.3690   34.0030   47.7010 N   0  0  0  0  0  0  0  0  0  0  0  0
   46.9220   34.7150   41.8640 C   0  0  0  0  0  0  0  0  0  0  0  0
   48.1160   35.3890   41.7110 C   0  0  0  0  0  0  0  0  0  0  0  0
   48.7010   35.2280   40.4730 C   0  0  0  0  0  0  0  0  0  0  0  0
   48.2040   34.4950   39.4610 N   0  0  0  0  0  0  0  0  0  0  0  0
   47.0190   33.8530   39.6720 C   0  0  0  0  0  0  0  0  0  0  0  0
   46.4070   33.9770   40.8650 N   0  0  0  0  0  0  0  0  0  0  0  0
   43.8327   36.5483   44.7596 H   0  0  0  0  0  0  0  0  0  0  0  0
   45.0079   36.5146   42.5427 H   0  0  0  0  0  0  0  0  0  0  0  0
   45.0529   32.1273   49.5426 H   0  0  0  0  0  0  0  0  0  0  0  0
   46.8364   30.4745   49.1088 H   0  0  0  0  0  0  0  0  0  0  0  0
   48.1197   30.3946   47.0121 H   0  0  0  0  0  0  0  0  0  0  0  0
   43.8151   34.0598   48.5676 H   0  0  0  0  0  0  0  0  0  0  0  0
   44.1951   34.6682   46.9341 H   0  0  0  0  0  0  0  0  0  0  0  0
   48.5626   36.0018   42.5078 H   0  0  0  0  0  0  0  0  0  0  0  0
   49.6568   35.7436   40.2979 H   0  0  0  0  0  0  0  0  0  0  0  0
   46.5686   33.2410   38.8767 H   0  0  0  0  0  0  0  0  0  0  0  0
  1  6  2  0
  2  1  1  0
  3  2  2  0
  3  4  1  0
  4  5  2  0
  5  6  1  0
  5  7  1  0
  7  8  2  0
  8 13  1  0
  8  9  1  0
 10  9  2  0
 11 10  1  0
 12  7  1  0
 12 11  2  0
 14  3  1  0
 15 14  2  0
 16 15  1  0
 17 18  1  0
 17 16  2  0
 18 19  2  0
 19 14  1  0
  1 20  1  0
  2 21  1  0
  9 22  1  0
 10 23  1  0
 11 24  1  0
 13 25  1  0
 13 26  1  0
 15 27  1  0
 16 28  1  0
 18 29  1  0
M  ISO  8  20  14  21  14  22  14  23  14  24  14  27  14  28  14  29  14
M  END
>  <minimizedAffinity>  (1) 
-6.77299118

>  <minimizedRMSD>  (1) 
0.197387129

$$$$
