
     RDKit          3D

 28 30  0  0  0  0  0  0  0  0999 V2000
   44.5840   35.7620   44.5530 C   0  0  0  0  0  0  0  0  0  0  0  0
   45.2740   35.8030   43.3340 C   0  0  0  0  0  0  0  0  0  0  0  0
   46.2580   34.8580   43.1420 C   0  0  0  0  0  0  0  0  0  0  0  0
   46.4910   33.9580   44.1370 N   0  0  0  0  0  0  0  0  0  0  0  0
   45.7980   33.9490   45.3090 C   0  0  0  0  0  0  0  0  0  0  0  0
   44.8290   34.8690   45.5190 N   0  0  0  0  0  0  0  0  0  0  0  0
   46.0690   32.9850   46.3420 C   0  0  0  0  0  0  0  0  0  0  0  0
   45.3790   32.9880   47.5420 C   0  0  0  0  0  0  0  0  0  0  0  0
   45.5920   32.0930   48.5660 C   0  0  0  0  0  0  0  0  0  0  0  0
   46.5650   31.1800   48.2920 C   0  0  0  0  0  0  0  0  0  0  0  0
   47.2910   31.1140   47.1260 C   0  0  0  0  0  0  0  0  0  0  0  0
   47.0020   32.0370   46.1920 N   0  0  0  0  0  0  0  0  0  0  0  0
   44.3820   34.0090   47.6890 N   0  0  0  0  0  0  0  0  0  0  0  0
   47.0340   34.8130   41.9120 C   0  0  0  0  0  0  0  0  0  0  0  0
   46.6800   34.1350   40.7700 C   0  0  0  0  0  0  0  0  0  0  0  0
   47.6650   34.3530   39.8760 N   0  0  0  0  0  0  0  0  0  0  0  0
   48.5820   35.1400   40.4690 C   0  0  0  0  0  0  0  0  0  0  0  0
   48.2230   35.4430   41.7310 N   0  0  0  0  0  0  0  0  0  0  0  0
   43.7943   36.5080   44.7260 H   0  0  0  0  0  0  0  0  0  0  0  0
   45.0407   36.5550   42.5658 H   0  0  0  0  0  0  0  0  0  0  0  0
   45.0316   32.1131   49.5123 H   0  0  0  0  0  0  0  0  0  0  0  0
   46.7887   30.4333   49.0681 H   0  0  0  0  0  0  0  0  0  0  0  0
   48.0650   30.3488   46.9663 H   0  0  0  0  0  0  0  0  0  0  0  0
   43.8308   34.0694   48.5570 H   0  0  0  0  0  0  0  0  0  0  0  0
   44.2174   34.6816   46.9265 H   0  0  0  0  0  0  0  0  0  0  0  0
   45.7721   33.5333   40.6160 H   0  0  0  0  0  0  0  0  0  0  0  0
   49.5056   35.4904   39.9851 H   0  0  0  0  0  0  0  0  0  0  0  0
   48.7367   36.0240   42.4089 H   0  0  0  0  0  0  0  0  0  0  0  0
  1  6  2  0
  2  1  1  0
  3  2  2  0
  3  4  1  0
  4  5  2  0
  5  6  1  0
  5  7  1  0
  7  8  2  0
  8 13  1  0
  8  9  1  0
 10  9  2  0
 11 10  1  0
 12  7  1  0
 12 11  2  0
 14  3  1  0
 15 14  2  0
 16 17  2  0
 16 15  1  0
 17 18  1  0
 18 14  1  0
  1 19  1  0
  2 20  1  0
  9 21  1  0
 10 22  1  0
 11 23  1  0
 13 24  1  0
 13 25  1  0
 15 26  1  0
 17 27  1  0
 18 28  1  0
M  ISO  8  19  14  20  14  21  14  22  14  23  14  26  14  27  14  28   9
M  END
>  <minimizedAffinity>  (1) 
-6.47453213

>  <minimizedRMSD>  (1) 
0.507732213

$$$$
