
     RDKit          3D

 34 36  0  0  0  0  0  0  0  0999 V2000
   44.7800   35.3850   44.4690 C   0  0  0  0  0  0  0  0  0  0  0  0
   45.5930   35.3890   43.3340 C   0  0  0  0  0  0  0  0  0  0  0  0
   46.6290   34.4810   43.2980 C   0  0  0  0  0  0  0  0  0  0  0  0
   46.7940   33.6480   44.3570 N   0  0  0  0  0  0  0  0  0  0  0  0
   45.9800   33.6750   45.4450 C   0  0  0  0  0  0  0  0  0  0  0  0
   44.9700   34.5540   45.4900 N   0  0  0  0  0  0  0  0  0  0  0  0
   46.1750   32.7760   46.5650 C   0  0  0  0  0  0  0  0  0  0  0  0
   45.4320   32.8620   47.7150 C   0  0  0  0  0  0  0  0  0  0  0  0
   45.5710   32.0400   48.8080 C   0  0  0  0  0  0  0  0  0  0  0  0
   46.5410   31.0950   48.6510 C   0  0  0  0  0  0  0  0  0  0  0  0
   47.3260   30.9430   47.5290 C   0  0  0  0  0  0  0  0  0  0  0  0
   47.0960   31.8130   46.5190 N   0  0  0  0  0  0  0  0  0  0  0  0
   44.4340   33.9180   47.7440 N   0  0  0  0  0  0  0  0  0  0  0  0
   47.5860   34.2910   42.2630 N   0  0  0  0  0  0  0  0  0  0  0  0
   47.3020   34.2720   40.8380 C   0  0  0  0  0  0  0  0  0  0  0  0
   48.4260   35.0170   40.1470 C   0  0  0  0  0  0  0  0  0  0  0  0
   49.0520   35.9390   40.9570 O   0  0  0  0  0  0  0  0  0  0  0  0
   49.6170   35.4420   42.1060 C   0  0  0  0  0  0  0  0  0  0  0  0
   49.0070   34.0840   42.4850 C   0  0  0  0  0  0  0  0  0  0  0  0
   43.9459   36.1003   44.5211 H   0  0  0  0  0  0  0  0  0  0  0  0
   45.4141   36.0876   42.5034 H   0  0  0  0  0  0  0  0  0  0  0  0
   44.9607   32.1352   49.7182 H   0  0  0  0  0  0  0  0  0  0  0  0
   46.7102   30.3991   49.4859 H   0  0  0  0  0  0  0  0  0  0  0  0
   48.0951   30.1597   47.4586 H   0  0  0  0  0  0  0  0  0  0  0  0
   43.8393   34.0419   48.5758 H   0  0  0  0  0  0  0  0  0  0  0  0
   44.3214   34.5426   46.9328 H   0  0  0  0  0  0  0  0  0  0  0  0
   47.2594   33.2341   40.4760 H   0  0  0  0  0  0  0  0  0  0  0  0
   46.3319   34.7457   40.6269 H   0  0  0  0  0  0  0  0  0  0  0  0
   49.1742   34.2844   39.8101 H   0  0  0  0  0  0  0  0  0  0  0  0
   47.9797   35.5721   39.3087 H   0  0  0  0  0  0  0  0  0  0  0  0
   50.6986   35.3178   41.9489 H   0  0  0  0  0  0  0  0  0  0  0  0
   49.4218   36.1510   42.9240 H   0  0  0  0  0  0  0  0  0  0  0  0
   49.2112   33.8388   43.5377 H   0  0  0  0  0  0  0  0  0  0  0  0
   49.4192   33.2461   41.9036 H   0  0  0  0  0  0  0  0  0  0  0  0
  1  6  2  0
  2  1  1  0
  3  2  2  0
  3  4  1  0
  4  5  2  0
  5  6  1  0
  5  7  1  0
  7  8  2  0
  8 13  1  0
  8  9  1  0
 10  9  2  0
 11 10  1  0
 12  7  1  0
 12 11  2  0
 14 19  1  0
 14  3  1  0
 15 14  1  0
 16 15  1  0
 16 17  1  0
 17 18  1  0
 18 19  1  0
  1 20  1  0
  2 21  1  0
  9 22  1  0
 10 23  1  0
 11 24  1  0
 13 25  1  0
 13 26  1  0
 15 27  1  0
 15 28  1  0
 16 29  1  0
 16 30  1  0
 18 31  1  0
 18 32  1  0
 19 33  1  0
 19 34  1  0
M  ISO  8  20  14  21  14  22  14  23  14  24  14  27  13  28  13  29  13
M  ISO  5  30  13  31  13  32  13  33  13  34  13
M  END
>  <minimizedAffinity>  (1) 
-6.66206789

>  <minimizedRMSD>  (1) 
0.835943639

$$$$
