
     RDKit          3D

 29 31  0  0  0  0  0  0  0  0999 V2000
   44.5530   35.8540   44.6480 C   0  0  0  0  0  0  0  0  0  0  0  0
   45.1540   35.8580   43.3860 C   0  0  0  0  0  0  0  0  0  0  0  0
   46.0780   34.8740   43.1120 C   0  0  0  0  0  0  0  0  0  0  0  0
   46.3500   33.9600   44.0810 N   0  0  0  0  0  0  0  0  0  0  0  0
   45.7460   33.9830   45.3010 C   0  0  0  0  0  0  0  0  0  0  0  0
   44.8420   34.9420   45.5790 N   0  0  0  0  0  0  0  0  0  0  0  0
   46.0530   32.9950   46.3210 C   0  0  0  0  0  0  0  0  0  0  0  0
   45.3880   32.9760   47.5300 C   0  0  0  0  0  0  0  0  0  0  0  0
   45.6400   32.0600   48.5350 C   0  0  0  0  0  0  0  0  0  0  0  0
   46.6210   31.1630   48.2190 C   0  0  0  0  0  0  0  0  0  0  0  0
   47.3230   31.1240   47.0370 C   0  0  0  0  0  0  0  0  0  0  0  0
   46.9910   32.0660   46.1350 N   0  0  0  0  0  0  0  0  0  0  0  0
   44.3820   33.9800   47.7210 N   0  0  0  0  0  0  0  0  0  0  0  0
   46.8020   34.7220   41.8550 C   0  0  0  0  0  0  0  0  0  0  0  0
   48.0130   35.3360   41.6140 C   0  0  0  0  0  0  0  0  0  0  0  0
   48.7240   35.2160   40.4400 C   0  0  0  0  0  0  0  0  0  0  0  0
   48.2320   34.4600   39.4480 N   0  0  0  0  0  0  0  0  0  0  0  0
   47.0340   33.8490   39.6810 C   0  0  0  0  0  0  0  0  0  0  0  0
   46.3460   33.9730   40.8300 N   0  0  0  0  0  0  0  0  0  0  0  0
   43.8128   36.6330   44.8832 H   0  0  0  0  0  0  0  0  0  0  0  0
   44.8976   36.6215   42.6368 H   0  0  0  0  0  0  0  0  0  0  0  0
   45.1031   32.0541   49.4950 H   0  0  0  0  0  0  0  0  0  0  0  0
   46.8713   30.4056   48.9764 H   0  0  0  0  0  0  0  0  0  0  0  0
   48.1032   30.3735   46.8420 H   0  0  0  0  0  0  0  0  0  0  0  0
   43.8517   34.0164   48.6033 H   0  0  0  0  0  0  0  0  0  0  0  0
   44.1897   34.6647   46.9759 H   0  0  0  0  0  0  0  0  0  0  0  0
   48.4392   35.9626   42.4113 H   0  0  0  0  0  0  0  0  0  0  0  0
   49.6859   35.7354   40.3177 H   0  0  0  0  0  0  0  0  0  0  0  0
   46.6077   33.2205   38.8852 H   0  0  0  0  0  0  0  0  0  0  0  0
  1  6  2  0
  2  1  1  0
  3  2  2  0
  3  4  1  0
  4  5  2  0
  5  6  1  0
  5  7  1  0
  7  8  2  0
  8 13  1  0
  8  9  1  0
 10  9  2  0
 11 10  1  0
 12  7  1  0
 12 11  2  0
 14  3  1  0
 15 14  2  0
 16 15  1  0
 17 18  1  0
 17 16  2  0
 18 19  2  0
 19 14  1  0
  1 20  1  0
  2 21  1  0
  9 22  1  0
 10 23  1  0
 11 24  1  0
 13 25  1  0
 13 26  1  0
 15 27  1  0
 16 28  1  0
 18 29  1  0
M  ISO  8  20  14  21  14  22  14  23  14  24  14  27  14  28  14  29  14
M  END
>  <minimizedAffinity>  (1) 
-6.68655539

>  <minimizedRMSD>  (1) 
0.100220807

$$$$
