
     RDKit          3D

 28 30  0  0  0  0  0  0  0  0999 V2000
   46.0760   33.0290   46.1800 C   0  0  0  0  0  0  0  0  0  0  0  0
   45.3980   33.0710   47.3860 C   0  0  0  0  0  0  0  0  0  0  0  0
   45.5880   32.1950   48.4190 C   0  0  0  0  0  0  0  0  0  0  0  0
   46.5320   31.2490   48.1490 C   0  0  0  0  0  0  0  0  0  0  0  0
   47.2600   31.1310   46.9710 C   0  0  0  0  0  0  0  0  0  0  0  0
   46.9820   32.0550   46.0260 N   0  0  0  0  0  0  0  0  0  0  0  0
   44.6300   35.7880   44.3380 C   0  0  0  0  0  0  0  0  0  0  0  0
   45.3360   35.8230   43.1310 C   0  0  0  0  0  0  0  0  0  0  0  0
   46.3230   34.8780   42.9580 C   0  0  0  0  0  0  0  0  0  0  0  0
   46.5460   33.9840   43.9560 N   0  0  0  0  0  0  0  0  0  0  0  0
   45.8340   33.9830   45.1220 C   0  0  0  0  0  0  0  0  0  0  0  0
   44.8640   34.9030   45.3060 N   0  0  0  0  0  0  0  0  0  0  0  0
   47.1440   34.8000   41.7350 C   0  0  0  0  0  0  0  0  0  0  0  0
   48.4210   34.0390   41.6890 C   0  0  0  0  0  0  0  0  0  0  0  0
   48.4880   35.5110   41.7440 C   0  0  0  0  0  0  0  0  0  0  0  0
   44.4350   34.1260   47.5180 N   0  0  0  0  0  0  0  0  0  0  0  0
   45.0364   32.2482   49.3692 H   0  0  0  0  0  0  0  0  0  0  0  0
   46.7366   30.5098   48.9375 H   0  0  0  0  0  0  0  0  0  0  0  0
   48.0098   30.3407   46.8190 H   0  0  0  0  0  0  0  0  0  0  0  0
   43.8367   36.5333   44.4970 H   0  0  0  0  0  0  0  0  0  0  0  0
   45.1132   36.5708   42.3557 H   0  0  0  0  0  0  0  0  0  0  0  0
   46.2336   34.7932   41.1177 H   0  0  0  0  0  0  0  0  0  0  0  0
   48.7339   33.4462   42.5612 H   0  0  0  0  0  0  0  0  0  0  0  0
   48.8360   33.2768   41.0131 H   0  0  0  0  0  0  0  0  0  0  0  0
   48.8159   36.0813   40.8624 H   0  0  0  0  0  0  0  0  0  0  0  0
   48.9778   36.2462   42.3994 H   0  0  0  0  0  0  0  0  0  0  0  0
   43.8913   34.2211   48.3876 H   0  0  0  0  0  0  0  0  0  0  0  0
   44.2873   34.7884   46.7432 H   0  0  0  0  0  0  0  0  0  0  0  0
  1  2  2  0
  2 16  1  0
  2  3  1  0
  4  3  2  0
  5  4  1  0
  6  1  1  0
  6  5  2  0
  7 12  2  0
  8  7  1  0
  9  8  2  0
  9 10  1  0
 10 11  2  0
 11 12  1  0
 11  1  1  0
 13 15  1  0
 13  9  1  0
 14 13  1  0
 14 15  1  0
  3 17  1  0
  4 18  1  0
  5 19  1  0
  7 20  1  0
  8 21  1  0
 13 22  1  0
 14 23  1  0
 14 24  1  0
 15 25  1  0
 15 26  1  0
 16 27  1  0
 16 28  1  0
M  ISO  8  17  14  18  14  19  14  20  14  21  14  22  13  23  13  24  13
M  ISO  2  25  13  26  13
M  END
>  <minimizedAffinity>  (1) 
-6.18203115

>  <minimizedRMSD>  (1) 
0.580039203

$$$$
