
     RDKit          3D

 24 25  0  0  0  0  0  0  0  0999 V2000
   46.0380   33.0390   46.2250 C   0  0  0  0  0  0  0  0  0  0  0  0
   45.3790   33.0390   47.4420 C   0  0  0  0  0  0  0  0  0  0  0  0
   45.6300   32.1320   48.4410 C   0  0  0  0  0  0  0  0  0  0  0  0
   46.5960   31.2230   48.1270 C   0  0  0  0  0  0  0  0  0  0  0  0
   47.2890   31.1630   46.9420 C   0  0  0  0  0  0  0  0  0  0  0  0
   46.9630   32.0960   46.0390 N   0  0  0  0  0  0  0  0  0  0  0  0
   44.5480   35.8880   44.5380 C   0  0  0  0  0  0  0  0  0  0  0  0
   45.1560   35.8790   43.2710 C   0  0  0  0  0  0  0  0  0  0  0  0
   46.0780   34.8910   43.0010 C   0  0  0  0  0  0  0  0  0  0  0  0
   46.3560   33.9760   43.9660 N   0  0  0  0  0  0  0  0  0  0  0  0
   45.7430   34.0130   45.1930 C   0  0  0  0  0  0  0  0  0  0  0  0
   44.8370   34.9800   45.4690 N   0  0  0  0  0  0  0  0  0  0  0  0
   46.7330   34.8440   41.6990 C   0  0  0  0  0  0  0  0  0  0  0  0
   47.9380   35.2040   41.6530 O   0  0  0  0  0  0  0  0  0  0  0  0
   46.0300   34.4170   40.5810 O   0  0  0  0  0  0  0  0  0  0  0  0
   44.3880   34.0560   47.6280 N   0  0  0  0  0  0  0  0  0  0  0  0
   45.1009   32.1380   49.4053 H   0  0  0  0  0  0  0  0  0  0  0  0
   46.8428   30.4704   48.8903 H   0  0  0  0  0  0  0  0  0  0  0  0
   48.0584   30.4010   46.7487 H   0  0  0  0  0  0  0  0  0  0  0  0
   43.8096   36.6701   44.7684 H   0  0  0  0  0  0  0  0  0  0  0  0
   44.9033   36.6386   42.5166 H   0  0  0  0  0  0  0  0  0  0  0  0
   46.4762   34.3857   39.6978 H   0  0  0  0  0  0  0  0  0  0  0  0
   43.8633   34.1081   48.5128 H   0  0  0  0  0  0  0  0  0  0  0  0
   44.2000   34.7353   46.8770 H   0  0  0  0  0  0  0  0  0  0  0  0
  1  2  2  0
  2 16  1  0
  2  3  1  0
  4  3  2  0
  5  4  1  0
  6  1  1  0
  6  5  2  0
  7 12  2  0
  8  7  1  0
  9  8  2  0
  9 10  1  0
 10 11  2  0
 11 12  1  0
 11  1  1  0
 13  9  1  0
 14 13  2  0
 15 13  1  0
  3 17  1  0
  4 18  1  0
  5 19  1  0
  7 20  1  0
  8 21  1  0
 15 22  1  0
 16 23  1  0
 16 24  1  0
M  ISO  6  17  14  18  14  19  14  20  14  21  14  22   3
M  END
>  <minimizedAffinity>  (1) 
-5.93289375

>  <minimizedRMSD>  (1) 
0.0764968619

$$$$
