
     RDKit          3D

 23 25  0  0  0  0  0  0  0  0999 V2000
   46.1280   33.5410   45.3100 N   0  0  0  0  0  0  0  0  0  0  0  0
   45.2140   34.4880   44.9840 C   0  0  0  0  0  0  0  0  0  0  0  0
   45.5440   35.0160   43.7840 N   0  0  0  0  0  0  0  0  0  0  0  0
   46.6640   34.3950   43.3660 C   0  0  0  0  0  0  0  0  0  0  0  0
   46.9990   33.5010   44.3150 N   0  0  0  0  0  0  0  0  0  0  0  0
   45.3330   32.9220   47.4970 C   0  0  0  0  0  0  0  0  0  0  0  0
   46.2350   32.6990   46.4570 C   0  0  0  0  0  0  0  0  0  0  0  0
   47.1650   31.6830   46.6110 C   0  0  0  0  0  0  0  0  0  0  0  0
   47.1440   30.9670   47.7580 N   0  0  0  0  0  0  0  0  0  0  0  0
   46.2670   31.1980   48.7470 C   0  0  0  0  0  0  0  0  0  0  0  0
   45.3620   32.1810   48.6060 N   0  0  0  0  0  0  0  0  0  0  0  0
   47.3830   34.6400   42.1210 C   0  0  0  0  0  0  0  0  0  0  0  0
   47.1220   34.0260   40.9130 C   0  0  0  0  0  0  0  0  0  0  0  0
   48.0420   34.5620   40.0180 C   0  0  0  0  0  0  0  0  0  0  0  0
   48.8130   35.4560   40.6770 N   0  0  0  0  0  0  0  0  0  0  0  0
   48.4050   35.4950   41.9500 N   0  0  0  0  0  0  0  0  0  0  0  0
   44.3469   34.7787   45.5952 H   0  0  0  0  0  0  0  0  0  0  0  0
   44.5848   33.7226   47.4013 H   0  0  0  0  0  0  0  0  0  0  0  0
   47.8999   31.4651   45.8220 H   0  0  0  0  0  0  0  0  0  0  0  0
   46.2888   30.5893   49.6630 H   0  0  0  0  0  0  0  0  0  0  0  0
   46.3494   33.2718   40.7023 H   0  0  0  0  0  0  0  0  0  0  0  0
   48.1279   34.3021   38.9526 H   0  0  0  0  0  0  0  0  0  0  0  0
   49.5801   36.0099   40.2700 H   0  0  0  0  0  0  0  0  0  0  0  0
  1  7  1  0
  2  1  1  0
  3  2  2  0
  4  3  1  0
  4  5  2  0
  5  1  1  0
  6 11  2  0
  7  8  2  0
  7  6  1  0
  8  9  1  0
  9 10  2  0
 11 10  1  0
 12  4  1  0
 13 12  1  0
 14 15  1  0
 14 13  2  0
 15 16  1  0
 16 12  2  0
  2 17  1  0
  6 18  1  0
  8 19  1  0
 10 20  1  0
 13 21  1  0
 14 22  1  0
 15 23  1  0
M  ISO  7  17  14  18  14  19  14  20  14  21  14  22  14  23   9
M  END
>  <minimizedAffinity>  (1) 
-5.0243969

>  <minimizedRMSD>  (1) 
5.0590744

$$$$
