
     RDKit          3D

 41 44  0  0  0  0  0  0  0  0999 V2000
   44.5630   35.8380   44.5440 C   0  0  0  0  0  0  0  0  0  0  0  0
   45.2220   35.8440   43.3050 C   0  0  0  0  0  0  0  0  0  0  0  0
   46.1810   34.8700   43.0750 C   0  0  0  0  0  0  0  0  0  0  0  0
   46.4490   33.9480   44.0520 N   0  0  0  0  0  0  0  0  0  0  0  0
   45.7910   33.9770   45.2350 C   0  0  0  0  0  0  0  0  0  0  0  0
   44.8500   34.9250   45.4730 N   0  0  0  0  0  0  0  0  0  0  0  0
   46.0660   32.9950   46.2630 C   0  0  0  0  0  0  0  0  0  0  0  0
   45.3670   33.0150   47.4700 C   0  0  0  0  0  0  0  0  0  0  0  0
   45.5670   32.1140   48.4790 C   0  0  0  0  0  0  0  0  0  0  0  0
   46.5170   31.1900   48.1920 C   0  0  0  0  0  0  0  0  0  0  0  0
   47.2430   31.1030   47.0380 C   0  0  0  0  0  0  0  0  0  0  0  0
   46.9660   32.0450   46.1020 N   0  0  0  0  0  0  0  0  0  0  0  0
   44.3890   34.0470   47.6450 N   0  0  0  0  0  0  0  0  0  0  0  0
   46.8820   34.8680   41.7710 C   0  0  0  0  0  0  0  0  0  0  0  0
   47.3200   33.4870   41.3750 C   0  0  0  0  0  0  0  0  0  0  0  0
   47.2420   33.4150   39.9360 N   0  0  0  0  0  0  0  0  0  0  0  0
   48.2030   33.5290   39.0030 C   0  0  0  0  0  0  0  0  0  0  0  0
   47.6000   33.3830   37.7980 N   0  0  0  0  0  0  0  0  0  0  0  0
   46.2750   33.1790   37.9810 C   0  0  0  0  0  0  0  0  0  0  0  0
   45.2520   32.9780   37.0720 C   0  0  0  0  0  0  0  0  0  0  0  0
   45.4090   32.9510   35.8400 O   0  0  0  0  0  0  0  0  0  0  0  0
   43.9890   32.7940   37.5250 N   0  0  0  0  0  0  0  0  0  0  0  0
   43.7820   32.8170   38.8620 C   0  0  0  0  0  0  0  0  0  0  0  0
   42.5390   32.6470   39.5380 N   0  0  0  0  0  0  0  0  0  0  0  0
   44.7960   33.0160   39.7330 N   0  0  0  0  0  0  0  0  0  0  0  0
   46.0620   33.2010   39.3280 C   0  0  0  0  0  0  0  0  0  0  0  0
   43.7968   36.5992   44.7525 H   0  0  0  0  0  0  0  0  0  0  0  0
   44.9849   36.5982   42.5402 H   0  0  0  0  0  0  0  0  0  0  0  0
   45.0125   32.1365   49.4288 H   0  0  0  0  0  0  0  0  0  0  0  0
   46.7237   30.4354   48.9653 H   0  0  0  0  0  0  0  0  0  0  0  0
   48.0009   30.3219   46.8786 H   0  0  0  0  0  0  0  0  0  0  0  0
   43.8484   34.1012   48.5201 H   0  0  0  0  0  0  0  0  0  0  0  0
   44.2264   34.7348   46.8958 H   0  0  0  0  0  0  0  0  0  0  0  0
   46.2019   35.2604   41.0006 H   0  0  0  0  0  0  0  0  0  0  0  0
   47.7792   35.4975   41.8643 H   0  0  0  0  0  0  0  0  0  0  0  0
   48.3537   33.3091   41.7065 H   0  0  0  0  0  0  0  0  0  0  0  0
   46.6795   32.7238   41.8411 H   0  0  0  0  0  0  0  0  0  0  0  0
   49.2735   33.7067   39.1830 H   0  0  0  0  0  0  0  0  0  0  0  0
   43.2085   32.6410   36.8706 H   0  0  0  0  0  0  0  0  0  0  0  0
   42.5029   32.6843   40.5667 H   0  0  0  0  0  0  0  0  0  0  0  0
   41.6767   32.4868   38.9979 H   0  0  0  0  0  0  0  0  0  0  0  0
  1  6  2  0
  2  1  1  0
  3  2  2  0
  3  4  1  0
  4  5  2  0
  5  6  1  0
  5  7  1  0
  7  8  2  0
  8 13  1  0
  8  9  1  0
 10  9  2  0
 11 10  1  0
 12  7  1  0
 12 11  2  0
 14  3  1  0
 15 14  1  0
 16 15  1  0
 17 16  1  0
 18 19  1  0
 18 17  2  0
 19 26  2  0
 20 22  1  0
 20 19  1  0
 21 20  2  0
 22 23  1  0
 23 24  1  0
 23 25  2  0
 26 25  1  0
 26 16  1  0
  1 27  1  0
  2 28  1  0
  9 29  1  0
 10 30  1  0
 11 31  1  0
 13 32  1  0
 13 33  1  0
 14 34  1  0
 14 35  1  0
 15 36  1  0
 15 37  1  0
 17 38  1  0
 22 39  1  0
 24 40  1  0
 24 41  1  0
M  ISO  8  27  14  28  14  29  14  30  14  31  14  34   8  35   8  36   8
M  ISO  3  37   8  38  14  39   9
M  END
>  <minimizedAffinity>  (1) 
-6.86246777

>  <minimizedRMSD>  (1) 
2.8434813

$$$$
