
     RDKit          3D

 24 26  0  0  0  0  0  0  0  0999 V2000
   46.8790   31.7350   47.8550 N   0  0  0  0  0  0  0  0  0  0  0  0
   45.6810   32.1060   48.3960 C   0  0  0  0  0  0  0  0  0  0  0  0
   45.1060   32.9970   47.5780 N   0  0  0  0  0  0  0  0  0  0  0  0
   45.9310   33.1900   46.5250 C   0  0  0  0  0  0  0  0  0  0  0  0
   47.0100   32.4070   46.7170 N   0  0  0  0  0  0  0  0  0  0  0  0
   48.6410   31.2280   49.4150 C   0  0  0  0  0  0  0  0  0  0  0  0
   47.8660   30.8250   48.3220 C   0  0  0  0  0  0  0  0  0  0  0  0
   48.1150   29.5670   47.7720 C   0  0  0  0  0  0  0  0  0  0  0  0
   49.0860   28.7950   48.3120 N   0  0  0  0  0  0  0  0  0  0  0  0
   49.8190   29.2170   49.3730 C   0  0  0  0  0  0  0  0  0  0  0  0
   49.5860   30.4190   49.9030 N   0  0  0  0  0  0  0  0  0  0  0  0
   45.6660   34.0980   45.3960 C   0  0  0  0  0  0  0  0  0  0  0  0
   44.7230   35.0960   45.5530 C   0  0  0  0  0  0  0  0  0  0  0  0
   44.5130   35.9180   44.4700 C   0  0  0  0  0  0  0  0  0  0  0  0
   45.2040   35.7300   43.3360 N   0  0  0  0  0  0  0  0  0  0  0  0
   46.1220   34.7590   43.1820 C   0  0  0  0  0  0  0  0  0  0  0  0
   46.3280   33.9480   44.2560 N   0  0  0  0  0  0  0  0  0  0  0  0
   45.2601   31.7359   49.3425 H   0  0  0  0  0  0  0  0  0  0  0  0
   48.4719   32.2134   49.8738 H   0  0  0  0  0  0  0  0  0  0  0  0
   47.5304   29.2082   46.9120 H   0  0  0  0  0  0  0  0  0  0  0  0
   50.6026   28.5703   49.7947 H   0  0  0  0  0  0  0  0  0  0  0  0
   44.1693   35.2263   46.4945 H   0  0  0  0  0  0  0  0  0  0  0  0
   43.7760   36.7320   44.5343 H   0  0  0  0  0  0  0  0  0  0  0  0
   46.6756   34.6275   42.2406 H   0  0  0  0  0  0  0  0  0  0  0  0
  1  7  1  0
  1  2  1  0
  3  2  2  0
  4  5  2  0
  4  3  1  0
  5  1  1  0
  6 11  2  0
  7  6  1  0
  8  9  1  0
  8  7  2  0
  9 10  2  0
 10 11  1  0
 12 13  2  0
 12  4  1  0
 14 13  1  0
 15 14  2  0
 16 15  1  0
 16 17  2  0
 17 12  1  0
  2 18  1  0
  6 19  1  0
  8 20  1  0
 10 21  1  0
 13 22  1  0
 14 23  1  0
 16 24  1  0
M  ISO  7  18  14  19  14  20  14  21  14  22  14  23  14  24  14
M  END
>  <minimizedAffinity>  (1) 
-5.01489735

>  <minimizedRMSD>  (1) 
7.51052094

$$$$
