
     RDKit          3D

 42 44  0  0  0  0  0  0  0  0999 V2000
   44.5440   35.8200   44.6060 C   0  0  0  0  0  0  0  0  0  0  0  0
   45.2130   35.8530   43.3750 C   0  0  0  0  0  0  0  0  0  0  0  0
   46.1890   34.8950   43.1340 C   0  0  0  0  0  0  0  0  0  0  0  0
   46.4520   33.9680   44.1050 N   0  0  0  0  0  0  0  0  0  0  0  0
   45.7850   33.9670   45.2850 C   0  0  0  0  0  0  0  0  0  0  0  0
   44.8310   34.9000   45.5240 N   0  0  0  0  0  0  0  0  0  0  0  0
   46.0730   32.9780   46.2970 C   0  0  0  0  0  0  0  0  0  0  0  0
   45.3830   32.9770   47.5100 C   0  0  0  0  0  0  0  0  0  0  0  0
   45.5910   32.0730   48.5210 C   0  0  0  0  0  0  0  0  0  0  0  0
   46.5510   31.1610   48.2270 C   0  0  0  0  0  0  0  0  0  0  0  0
   47.2760   31.0940   47.0570 C   0  0  0  0  0  0  0  0  0  0  0  0
   46.9830   32.0400   46.1290 N   0  0  0  0  0  0  0  0  0  0  0  0
   44.3900   34.0010   47.6960 N   0  0  0  0  0  0  0  0  0  0  0  0
   46.8950   34.9250   41.8400 C   0  0  0  0  0  0  0  0  0  0  0  0
   48.3910   34.8630   41.9960 C   0  0  0  0  0  0  0  0  0  0  0  0
   48.9100   33.5280   41.9640 N   0  0  0  0  0  0  0  0  0  0  0  0
   50.3510   33.6270   42.1420 C   0  0  0  0  0  0  0  0  0  0  0  0
   50.9860   32.2860   42.3680 C   0  0  0  0  0  0  0  0  0  0  0  0
   50.4710   31.3360   41.3280 C   0  0  0  0  0  0  0  0  0  0  0  0
   49.7910   32.0730   40.1960 C   0  0  0  0  0  0  0  0  0  0  0  0
   48.6500   32.9370   40.6830 C   0  0  0  0  0  0  0  0  0  0  0  0
   43.7666   36.5690   44.8176 H   0  0  0  0  0  0  0  0  0  0  0  0
   44.9717   36.6164   42.6207 H   0  0  0  0  0  0  0  0  0  0  0  0
   45.0369   32.0865   49.4711 H   0  0  0  0  0  0  0  0  0  0  0  0
   46.7714   30.4041   48.9942 H   0  0  0  0  0  0  0  0  0  0  0  0
   48.0425   30.3237   46.8863 H   0  0  0  0  0  0  0  0  0  0  0  0
   43.8528   34.0441   48.5737 H   0  0  0  0  0  0  0  0  0  0  0  0
   44.2162   34.6912   46.9514 H   0  0  0  0  0  0  0  0  0  0  0  0
   46.6335   35.8569   41.3174 H   0  0  0  0  0  0  0  0  0  0  0  0
   46.5822   34.0385   41.2688 H   0  0  0  0  0  0  0  0  0  0  0  0
   48.8513   35.4361   41.1776 H   0  0  0  0  0  0  0  0  0  0  0  0
   48.6329   35.2826   42.9836 H   0  0  0  0  0  0  0  0  0  0  0  0
   50.7894   34.0795   41.2403 H   0  0  0  0  0  0  0  0  0  0  0  0
   50.5404   34.2455   43.0317 H   0  0  0  0  0  0  0  0  0  0  0  0
   52.0791   32.3736   42.2822 H   0  0  0  0  0  0  0  0  0  0  0  0
   50.7381   31.9155   43.3736 H   0  0  0  0  0  0  0  0  0  0  0  0
   51.3142   30.7573   40.9229 H   0  0  0  0  0  0  0  0  0  0  0  0
   49.7331   30.6714   41.8011 H   0  0  0  0  0  0  0  0  0  0  0  0
   49.3975   31.3369   39.4795 H   0  0  0  0  0  0  0  0  0  0  0  0
   50.5361   32.7307   39.7246 H   0  0  0  0  0  0  0  0  0  0  0  0
   48.4812   33.7416   39.9521 H   0  0  0  0  0  0  0  0  0  0  0  0
   47.7660   32.2909   40.7887 H   0  0  0  0  0  0  0  0  0  0  0  0
  1  6  2  0
  2  1  1  0
  3  2  2  0
  3  4  1  0
  4  5  2  0
  5  6  1  0
  5  7  1  0
  7  8  2  0
  8 13  1  0
  8  9  1  0
 10  9  2  0
 11 10  1  0
 12  7  1  0
 12 11  2  0
 14 15  1  0
 14  3  1  0
 16 15  1  0
 16 17  1  0
 17 18  1  0
 19 18  1  0
 20 21  1  0
 20 19  1  0
 21 16  1  0
  1 22  1  0
  2 23  1  0
  9 24  1  0
 10 25  1  0
 11 26  1  0
 13 27  1  0
 13 28  1  0
 14 29  1  0
 14 30  1  0
 15 31  1  0
 15 32  1  0
 17 33  1  0
 17 34  1  0
 18 35  1  0
 18 36  1  0
 19 37  1  0
 19 38  1  0
 20 39  1  0
 20 40  1  0
 21 41  1  0
 21 42  1  0
M  ISO  8  22  14  23  14  24  14  25  14  26  14  29   8  30   8  31   8
M  ISO  8  32   8  33  13  34  13  35  13  36  13  37  13  38  13  39  13
M  ISO  3  40  13  41  13  42  13
M  END
>  <minimizedAffinity>  (1) 
-6.27026892

>  <minimizedRMSD>  (1) 
1.17720914

$$$$
