
     RDKit          3D

 28 29  0  0  0  0  0  0  0  0999 V2000
   44.5970   35.9860   44.3690 C   0  0  0  0  0  0  0  0  0  0  0  0
   45.1220   35.8450   43.0900 C   0  0  0  0  0  0  0  0  0  0  0  0
   45.9580   34.7780   42.8560 C   0  0  0  0  0  0  0  0  0  0  0  0
   46.2300   33.9180   43.8790 N   0  0  0  0  0  0  0  0  0  0  0  0
   45.6980   34.0890   45.1190 C   0  0  0  0  0  0  0  0  0  0  0  0
   44.8730   35.1380   45.3550 N   0  0  0  0  0  0  0  0  0  0  0  0
   45.9880   33.1800   46.2050 C   0  0  0  0  0  0  0  0  0  0  0  0
   45.2890   33.2290   47.3870 C   0  0  0  0  0  0  0  0  0  0  0  0
   45.5320   32.3880   48.4500 C   0  0  0  0  0  0  0  0  0  0  0  0
   46.5340   31.4960   48.2210 C   0  0  0  0  0  0  0  0  0  0  0  0
   47.2700   31.3840   47.0840 C   0  0  0  0  0  0  0  0  0  0  0  0
   46.9330   32.2640   46.1240 N   0  0  0  0  0  0  0  0  0  0  0  0
   44.2610   34.2050   47.5040 N   0  0  0  0  0  0  0  0  0  0  0  0
   46.5240   34.6160   41.4980 C   0  0  0  0  0  0  0  0  0  0  0  0
   47.9660   34.1570   41.5410 C   0  0  0  0  0  0  0  0  0  0  0  0
   48.9830   35.6660   41.6160 S   0  0  0  0  0  0  0  0  0  0  0  0
   43.9261   36.8333   44.5738 H   0  0  0  0  0  0  0  0  0  0  0  0
   44.8775   36.5619   42.2923 H   0  0  0  0  0  0  0  0  0  0  0  0
   44.9697   32.4329   49.3944 H   0  0  0  0  0  0  0  0  0  0  0  0
   46.7715   30.7969   49.0364 H   0  0  0  0  0  0  0  0  0  0  0  0
   48.0704   30.6397   46.9597 H   0  0  0  0  0  0  0  0  0  0  0  0
   43.7135   34.2746   48.3737 H   0  0  0  0  0  0  0  0  0  0  0  0
   44.0640   34.8421   46.7190 H   0  0  0  0  0  0  0  0  0  0  0  0
   46.4732   35.5816   40.9736 H   0  0  0  0  0  0  0  0  0  0  0  0
   45.9366   33.8490   40.9720 H   0  0  0  0  0  0  0  0  0  0  0  0
   48.1411   33.5354   42.4315 H   0  0  0  0  0  0  0  0  0  0  0  0
   48.2179   33.5494   40.6593 H   0  0  0  0  0  0  0  0  0  0  0  0
   49.2083   36.0003   42.9254 H   0  0  0  0  0  0  0  0  0  0  0  0
  1  6  2  0
  2  1  1  0
  3  2  2  0
  3  4  1  0
  4  5  2  0
  5  6  1  0
  5  7  1  0
  7  8  2  0
  8 13  1  0
  8  9  1  0
 10  9  2  0
 11 10  1  0
 12  7  1  0
 12 11  2  0
 14 15  1  0
 14  3  1  0
 15 16  1  0
  1 17  1  0
  2 18  1  0
  9 19  1  0
 10 20  1  0
 11 21  1  0
 13 22  1  0
 13 23  1  0
 14 24  1  0
 14 25  1  0
 15 26  1  0
 15 27  1  0
 16 28  1  0
M  ISO  8  17  14  18  14  19  14  20  14  21  14  24   8  25   8  26   8
M  ISO  2  27   8  28  11
M  END
>  <minimizedAffinity>  (1) 
-5.57428741

>  <minimizedRMSD>  (1) 
0.598141909

$$$$
