
     RDKit          3D

 40 43  0  0  0  0  0  0  0  0999 V2000
   44.5750   35.8200   44.5450 C   0  0  0  0  0  0  0  0  0  0  0  0
   45.1680   35.7550   43.2850 C   0  0  0  0  0  0  0  0  0  0  0  0
   46.0800   34.7510   43.0380 C   0  0  0  0  0  0  0  0  0  0  0  0
   46.3660   33.8640   44.0410 N   0  0  0  0  0  0  0  0  0  0  0  0
   45.7700   33.9530   45.2610 C   0  0  0  0  0  0  0  0  0  0  0  0
   44.8720   34.9400   45.5050 N   0  0  0  0  0  0  0  0  0  0  0  0
   46.0930   32.9990   46.3010 C   0  0  0  0  0  0  0  0  0  0  0  0
   45.3970   33.0310   47.5060 C   0  0  0  0  0  0  0  0  0  0  0  0
   45.6390   32.1550   48.5570 C   0  0  0  0  0  0  0  0  0  0  0  0
   46.6190   31.2650   48.2950 C   0  0  0  0  0  0  0  0  0  0  0  0
   47.3490   31.1780   47.1200 C   0  0  0  0  0  0  0  0  0  0  0  0
   47.0330   32.0790   46.1610 N   0  0  0  0  0  0  0  0  0  0  0  0
   44.3820   34.0150   47.6700 N   0  0  0  0  0  0  0  0  0  0  0  0
   46.7210   34.6690   41.7000 C   0  0  0  0  0  0  0  0  0  0  0  0
   48.0640   35.3750   41.6780 C   0  0  0  0  0  0  0  0  0  0  0  0
   49.1860   34.4310   41.8230 C   0  0  0  0  0  0  0  0  0  0  0  0
   50.2410   34.6940   42.5980 N   0  0  0  0  0  0  0  0  0  0  0  0
   51.0600   33.6890   42.5270 O   0  0  0  0  0  0  0  0  0  0  0  0
   50.5740   32.7660   41.7240 C   0  0  0  0  0  0  0  0  0  0  0  0
   49.3930   33.2270   41.2750 N   0  0  0  0  0  0  0  0  0  0  0  0
   51.2570   31.5120   41.4340 C   0  0  0  0  0  0  0  0  0  0  0  0
   52.2420   31.5230   40.4690 C   0  0  0  0  0  0  0  0  0  0  0  0
   52.9030   30.3350   40.1810 C   0  0  0  0  0  0  0  0  0  0  0  0
   52.5910   29.1840   40.8320 N   0  0  0  0  0  0  0  0  0  0  0  0
   51.6200   29.2240   41.7680 C   0  0  0  0  0  0  0  0  0  0  0  0
   50.9490   30.3730   42.0770 N   0  0  0  0  0  0  0  0  0  0  0  0
   43.8446   36.6155   44.7538 H   0  0  0  0  0  0  0  0  0  0  0  0
   44.9140   36.4883   42.5054 H   0  0  0  0  0  0  0  0  0  0  0  0
   45.0868   32.1840   49.5079 H   0  0  0  0  0  0  0  0  0  0  0  0
   46.8609   30.5415   49.0875 H   0  0  0  0  0  0  0  0  0  0  0  0
   48.1363   30.4234   46.9759 H   0  0  0  0  0  0  0  0  0  0  0  0
   43.8495   34.0639   48.5503 H   0  0  0  0  0  0  0  0  0  0  0  0
   44.1799   34.6783   46.9083 H   0  0  0  0  0  0  0  0  0  0  0  0
   46.8702   33.6106   41.4402 H   0  0  0  0  0  0  0  0  0  0  0  0
   46.0610   35.1638   40.9722 H   0  0  0  0  0  0  0  0  0  0  0  0
   48.1695   35.9079   40.7215 H   0  0  0  0  0  0  0  0  0  0  0  0
   48.0951   36.0729   42.5277 H   0  0  0  0  0  0  0  0  0  0  0  0
   52.4989   32.4519   39.9388 H   0  0  0  0  0  0  0  0  0  0  0  0
   53.6913   30.3264   39.4138 H   0  0  0  0  0  0  0  0  0  0  0  0
   51.3593   28.2980   42.3015 H   0  0  0  0  0  0  0  0  0  0  0  0
  1  6  2  0
  2  1  1  0
  3  2  2  0
  3  4  1  0
  4  5  2  0
  5  6  1  0
  5  7  1  0
  7  8  2  0
  8 13  1  0
  8  9  1  0
 10  9  2  0
 11 10  1  0
 12  7  1  0
 12 11  2  0
 14  3  1  0
 15 14  1  0
 15 16  1  0
 16 17  2  0
 18 17  1  0
 19 18  1  0
 20 19  2  0
 20 16  1  0
 21 19  1  0
 21 26  1  0
 22 21  2  0
 23 22  1  0
 23 24  2  0
 24 25  1  0
 25 26  2  0
  1 27  1  0
  2 28  1  0
  9 29  1  0
 10 30  1  0
 11 31  1  0
 13 32  1  0
 13 33  1  0
 14 34  1  0
 14 35  1  0
 15 36  1  0
 15 37  1  0
 22 38  1  0
 23 39  1  0
 25 40  1  0
M  ISO  8  27  14  28  14  29  14  30  14  31  14  34   8  35   8  36   8
M  ISO  4  37   8  38  14  39  14  40  14
M  END
>  <minimizedAffinity>  (1) 
-6.97057199

>  <minimizedRMSD>  (1) 
0.267348379

$$$$
