
     RDKit          3D

 41 43  0  0  0  0  0  0  0  0999 V2000
   44.5710   35.8460   44.5410 C   0  0  0  0  0  0  0  0  0  0  0  0
   45.1760   35.7970   43.2890 C   0  0  0  0  0  0  0  0  0  0  0  0
   46.1020   34.7990   43.0360 C   0  0  0  0  0  0  0  0  0  0  0  0
   46.3790   33.9030   44.0360 N   0  0  0  0  0  0  0  0  0  0  0  0
   45.7740   33.9740   45.2500 C   0  0  0  0  0  0  0  0  0  0  0  0
   44.8670   34.9520   45.4960 N   0  0  0  0  0  0  0  0  0  0  0  0
   46.0860   33.0150   46.2880 C   0  0  0  0  0  0  0  0  0  0  0  0
   45.3880   33.0440   47.4920 C   0  0  0  0  0  0  0  0  0  0  0  0
   45.6300   32.1630   48.5260 C   0  0  0  0  0  0  0  0  0  0  0  0
   46.6160   31.2580   48.2620 C   0  0  0  0  0  0  0  0  0  0  0  0
   47.3380   31.1880   47.0850 C   0  0  0  0  0  0  0  0  0  0  0  0
   47.0270   32.0900   46.1370 N   0  0  0  0  0  0  0  0  0  0  0  0
   44.3790   34.0350   47.6530 N   0  0  0  0  0  0  0  0  0  0  0  0
   46.7540   34.7360   41.7060 C   0  0  0  0  0  0  0  0  0  0  0  0
   48.1160   35.3960   41.7220 C   0  0  0  0  0  0  0  0  0  0  0  0
   49.2120   34.4110   41.8480 C   0  0  0  0  0  0  0  0  0  0  0  0
   50.3030   34.6460   42.5710 N   0  0  0  0  0  0  0  0  0  0  0  0
   51.0780   33.6120   42.4930 O   0  0  0  0  0  0  0  0  0  0  0  0
   50.5340   32.6830   41.7360 C   0  0  0  0  0  0  0  0  0  0  0  0
   49.3500   33.1900   41.3260 N   0  0  0  0  0  0  0  0  0  0  0  0
   51.0590   31.3330   41.3650 C   0  0  0  0  0  0  0  0  0  0  0  0
   52.2050   31.5310   40.3970 C   0  0  0  0  0  0  0  0  0  0  0  0
   51.4290   30.5310   42.5800 C   0  0  0  0  0  0  0  0  0  0  0  0
   43.8341   36.6349   44.7521 H   0  0  0  0  0  0  0  0  0  0  0  0
   44.9236   36.5368   42.5151 H   0  0  0  0  0  0  0  0  0  0  0  0
   45.0779   32.1881   49.4771 H   0  0  0  0  0  0  0  0  0  0  0  0
   46.8555   30.5262   49.0475 H   0  0  0  0  0  0  0  0  0  0  0  0
   48.1249   30.4347   46.9320 H   0  0  0  0  0  0  0  0  0  0  0  0
   43.8425   34.0859   48.5308 H   0  0  0  0  0  0  0  0  0  0  0  0
   44.1853   34.7012   46.8917 H   0  0  0  0  0  0  0  0  0  0  0  0
   46.1168   35.2499   40.9712 H   0  0  0  0  0  0  0  0  0  0  0  0
   46.8874   33.6776   41.4377 H   0  0  0  0  0  0  0  0  0  0  0  0
   48.2492   35.9564   40.7849 H   0  0  0  0  0  0  0  0  0  0  0  0
   48.1584   36.0624   42.5961 H   0  0  0  0  0  0  0  0  0  0  0  0
   50.2803   30.7366   40.8671 H   0  0  0  0  0  0  0  0  0  0  0  0
   53.1365   31.6919   40.9595 H   0  0  0  0  0  0  0  0  0  0  0  0
   52.3087   30.6375   39.7639 H   0  0  0  0  0  0  0  0  0  0  0  0
   52.0029   32.4075   39.7639 H   0  0  0  0  0  0  0  0  0  0  0  0
   51.1679   31.0969   43.4864 H   0  0  0  0  0  0  0  0  0  0  0  0
   50.8795   29.5781   42.5717 H   0  0  0  0  0  0  0  0  0  0  0  0
   52.5106   30.3306   42.5717 H   0  0  0  0  0  0  0  0  0  0  0  0
  1  6  2  0
  2  1  1  0
  3  2  2  0
  3  4  1  0
  4  5  2  0
  5  6  1  0
  5  7  1  0
  7  8  2  0
  8 13  1  0
  8  9  1  0
 10  9  2  0
 11 10  1  0
 12  7  1  0
 12 11  2  0
 14 15  1  0
 14  3  1  0
 15 16  1  0
 16 17  2  0
 18 17  1  0
 19 18  1  0
 20 19  2  0
 20 16  1  0
 21 19  1  0
 21 23  1  0
 22 21  1  0
  1 24  1  0
  2 25  1  0
  9 26  1  0
 10 27  1  0
 11 28  1  0
 13 29  1  0
 13 30  1  0
 14 31  1  0
 14 32  1  0
 15 33  1  0
 15 34  1  0
 21 35  1  0
 22 36  1  0
 22 37  1  0
 22 38  1  0
 23 39  1  0
 23 40  1  0
 23 41  1  0
M  ISO  8  24  14  25  14  26  14  27  14  28  14  31   8  32   8  33   8
M  ISO  8  34   8  35   8  36   8  37   8  38   8  39   8  40   8  41   8
M  END
>  <minimizedAffinity>  (1) 
-6.83900261

>  <minimizedRMSD>  (1) 
0.305028349

$$$$
