
     RDKit          3D

 31 33  0  0  0  0  0  0  0  0999 V2000
   44.9770   34.3460   43.3910 N   0  0  0  0  0  0  0  0  0  0  0  0
   45.0190   35.6970   43.1680 C   0  0  0  0  0  0  0  0  0  0  0  0
   44.1320   36.0140   42.2150 N   0  0  0  0  0  0  0  0  0  0  0  0
   43.5280   34.8500   41.8370 C   0  0  0  0  0  0  0  0  0  0  0  0
   44.0640   33.8590   42.5700 N   0  0  0  0  0  0  0  0  0  0  0  0
   42.5060   34.6960   40.8400 N   0  0  0  0  0  0  0  0  0  0  0  0
   41.3840   35.6380   40.8230 C   0  0  0  0  0  0  0  0  0  0  0  0
   40.6850   35.7240   39.5150 C   0  0  0  0  0  0  0  0  0  0  0  0
   41.5960   35.2860   38.4170 C   0  0  0  0  0  0  0  0  0  0  0  0
   41.8960   33.8210   38.6270 C   0  0  0  0  0  0  0  0  0  0  0  0
   42.6540   33.5870   39.8840 C   0  0  0  0  0  0  0  0  0  0  0  0
   45.5570   33.8010   45.6610 C   0  0  0  0  0  0  0  0  0  0  0  0
   45.7090   33.5280   44.2900 C   0  0  0  0  0  0  0  0  0  0  0  0
   46.5570   32.4890   43.9140 C   0  0  0  0  0  0  0  0  0  0  0  0
   47.1910   31.7940   44.8870 N   0  0  0  0  0  0  0  0  0  0  0  0
   47.0320   32.0720   46.1960 C   0  0  0  0  0  0  0  0  0  0  0  0
   46.2180   33.0710   46.5640 N   0  0  0  0  0  0  0  0  0  0  0  0
   45.6766   36.4087   43.6887 H   0  0  0  0  0  0  0  0  0  0  0  0
   40.6555   35.3215   41.5840 H   0  0  0  0  0  0  0  0  0  0  0  0
   41.8031   36.6347   41.0252 H   0  0  0  0  0  0  0  0  0  0  0  0
   39.7980   35.0737   39.5330 H   0  0  0  0  0  0  0  0  0  0  0  0
   40.3814   36.7662   39.3368 H   0  0  0  0  0  0  0  0  0  0  0  0
   42.5289   35.8680   38.4495 H   0  0  0  0  0  0  0  0  0  0  0  0
   41.1231   35.4460   37.4368 H   0  0  0  0  0  0  0  0  0  0  0  0
   40.9471   33.2666   38.6751 H   0  0  0  0  0  0  0  0  0  0  0  0
   42.5142   33.4748   37.7856 H   0  0  0  0  0  0  0  0  0  0  0  0
   42.2841   32.6635   40.3534 H   0  0  0  0  0  0  0  0  0  0  0  0
   43.7199   33.5065   39.6243 H   0  0  0  0  0  0  0  0  0  0  0  0
   44.8943   34.6151   45.9899 H   0  0  0  0  0  0  0  0  0  0  0  0
   46.7076   32.2397   42.8533 H   0  0  0  0  0  0  0  0  0  0  0  0
   47.5662   31.4835   46.9565 H   0  0  0  0  0  0  0  0  0  0  0  0
  1 13  1  0
  2  1  1  0
  3  2  2  0
  4  3  1  0
  4  5  2  0
  5  1  1  0
  6  4  1  0
  7  6  1  0
  8  7  1  0
  9 10  1  0
  9  8  1  0
 10 11  1  0
 11  6  1  0
 12 17  2  0
 13 12  1  0
 14 13  2  0
 14 15  1  0
 15 16  2  0
 16 17  1  0
  2 18  1  0
  7 19  1  0
  7 20  1  0
  8 21  1  0
  8 22  1  0
  9 23  1  0
  9 24  1  0
 10 25  1  0
 10 26  1  0
 11 27  1  0
 11 28  1  0
 12 29  1  0
 14 30  1  0
 16 31  1  0
M  ISO  8  18  14  19  13  20  13  21  13  22  13  23  13  24  13  25  13
M  ISO  6  26  13  27  13  28  13  29  14  30  14  31  14
M  END
>  <minimizedAffinity>  (1) 
-4.730937

>  <minimizedRMSD>  (1) 
2.83844519

$$$$
