
     RDKit          3D

 39 42  0  0  0  0  0  0  0  0999 V2000
   44.6000   35.7840   44.5490 C   0  0  0  0  0  0  0  0  0  0  0  0
   45.1430   35.6650   43.2630 C   0  0  0  0  0  0  0  0  0  0  0  0
   46.0060   34.6280   43.0080 C   0  0  0  0  0  0  0  0  0  0  0  0
   46.2920   33.7610   44.0240 N   0  0  0  0  0  0  0  0  0  0  0  0
   45.7590   33.8900   45.2610 C   0  0  0  0  0  0  0  0  0  0  0  0
   44.9050   34.9160   45.5150 N   0  0  0  0  0  0  0  0  0  0  0  0
   46.0720   32.9650   46.3290 C   0  0  0  0  0  0  0  0  0  0  0  0
   45.3880   33.0170   47.5320 C   0  0  0  0  0  0  0  0  0  0  0  0
   45.6420   32.1590   48.5880 C   0  0  0  0  0  0  0  0  0  0  0  0
   46.6280   31.2560   48.3380 C   0  0  0  0  0  0  0  0  0  0  0  0
   47.3520   31.1530   47.1500 C   0  0  0  0  0  0  0  0  0  0  0  0
   47.0100   32.0420   46.2040 N   0  0  0  0  0  0  0  0  0  0  0  0
   44.3760   34.0050   47.6810 N   0  0  0  0  0  0  0  0  0  0  0  0
   46.5880   34.4890   41.6550 C   0  0  0  0  0  0  0  0  0  0  0  0
   47.8700   35.2780   41.4990 C   0  0  0  0  0  0  0  0  0  0  0  0
   49.0690   34.4590   41.7600 C   0  0  0  0  0  0  0  0  0  0  0  0
   50.0290   34.8400   42.5960 N   0  0  0  0  0  0  0  0  0  0  0  0
   50.9450   33.9280   42.6230 O   0  0  0  0  0  0  0  0  0  0  0  0
   50.6120   32.9330   41.8130 C   0  0  0  0  0  0  0  0  0  0  0  0
   49.4210   33.2640   41.2620 N   0  0  0  0  0  0  0  0  0  0  0  0
   51.2610   31.6730   41.4630 C   0  0  0  0  0  0  0  0  0  0  0  0
   51.0440   30.3810   41.8940 C   0  0  0  0  0  0  0  0  0  0  0  0
   51.9650   29.6060   41.2100 C   0  0  0  0  0  0  0  0  0  0  0  0
   52.6970   30.4730   40.3960 C   0  0  0  0  0  0  0  0  0  0  0  0
   52.2510   31.7000   40.5710 O   0  0  0  0  0  0  0  0  0  0  0  0
   43.9076   36.6105   44.7667 H   0  0  0  0  0  0  0  0  0  0  0  0
   44.8835   36.3868   42.4746 H   0  0  0  0  0  0  0  0  0  0  0  0
   45.0964   32.2033   49.5421 H   0  0  0  0  0  0  0  0  0  0  0  0
   46.8757   30.5463   49.1412 H   0  0  0  0  0  0  0  0  0  0  0  0
   48.1415   30.4019   47.0001 H   0  0  0  0  0  0  0  0  0  0  0  0
   43.8475   34.0720   48.5625 H   0  0  0  0  0  0  0  0  0  0  0  0
   44.1716   34.6536   46.9074 H   0  0  0  0  0  0  0  0  0  0  0  0
   46.8016   33.4261   41.4690 H   0  0  0  0  0  0  0  0  0  0  0  0
   45.8590   34.8839   40.9322 H   0  0  0  0  0  0  0  0  0  0  0  0
   47.9236   35.6654   40.4709 H   0  0  0  0  0  0  0  0  0  0  0  0
   47.8538   36.0940   42.2365 H   0  0  0  0  0  0  0  0  0  0  0  0
   50.2975   30.0389   42.6259 H   0  0  0  0  0  0  0  0  0  0  0  0
   52.0951   28.5168   41.2920 H   0  0  0  0  0  0  0  0  0  0  0  0
   53.5128   30.1792   39.7192 H   0  0  0  0  0  0  0  0  0  0  0  0
  1  6  2  0
  2  1  1  0
  3  2  2  0
  3  4  1  0
  4  5  2  0
  5  6  1  0
  5  7  1  0
  7  8  2  0
  8 13  1  0
  8  9  1  0
 10  9  2  0
 11 10  1  0
 12  7  1  0
 12 11  2  0
 14  3  1  0
 15 14  1  0
 15 16  1  0
 16 17  2  0
 17 18  1  0
 19 18  1  0
 20 16  1  0
 20 19  2  0
 21 19  1  0
 21 22  2  0
 23 22  1  0
 24 25  1  0
 24 23  2  0
 25 21  1  0
  1 26  1  0
  2 27  1  0
  9 28  1  0
 10 29  1  0
 11 30  1  0
 13 31  1  0
 13 32  1  0
 14 33  1  0
 14 34  1  0
 15 35  1  0
 15 36  1  0
 22 37  1  0
 23 38  1  0
 24 39  1  0
M  ISO  8  26  14  27  14  28  14  29  14  30  14  33   8  34   8  35   8
M  ISO  4  36   8  37  14  38  14  39  14
M  END
>  <minimizedAffinity>  (1) 
-6.82469368

>  <minimizedRMSD>  (1) 
0.499645859

$$$$
