
     RDKit          3D

 22 24  0  0  0  0  0  0  0  0999 V2000
   46.0740   33.4430   45.6860 N   0  0  0  0  0  0  0  0  0  0  0  0
   45.1500   34.3840   45.4010 C   0  0  0  0  0  0  0  0  0  0  0  0
   45.4230   34.9430   44.2080 N   0  0  0  0  0  0  0  0  0  0  0  0
   46.5480   34.3360   43.7300 C   0  0  0  0  0  0  0  0  0  0  0  0
   46.9180   33.4290   44.6530 N   0  0  0  0  0  0  0  0  0  0  0  0
   45.3220   32.6930   47.8430 C   0  0  0  0  0  0  0  0  0  0  0  0
   46.2410   32.5790   46.7960 C   0  0  0  0  0  0  0  0  0  0  0  0
   47.2460   31.6200   46.9360 C   0  0  0  0  0  0  0  0  0  0  0  0
   47.2780   30.8640   48.0580 N   0  0  0  0  0  0  0  0  0  0  0  0
   46.3760   31.0060   49.0430 C   0  0  0  0  0  0  0  0  0  0  0  0
   45.4050   31.9180   48.9290 N   0  0  0  0  0  0  0  0  0  0  0  0
   47.2700   34.5790   42.4590 C   0  0  0  0  0  0  0  0  0  0  0  0
   46.7480   33.7260   41.4900 C   0  0  0  0  0  0  0  0  0  0  0  0
   47.7290   34.1260   39.9490 S   0  0  0  0  0  0  0  0  0  0  0  0
   48.6960   35.4230   40.9560 C   0  0  0  0  0  0  0  0  0  0  0  0
   48.2310   35.3360   41.9720 N   0  0  0  0  0  0  0  0  0  0  0  0
   44.3013   34.6536   46.0468 H   0  0  0  0  0  0  0  0  0  0  0  0
   44.5138   33.4358   47.7718 H   0  0  0  0  0  0  0  0  0  0  0  0
   47.9997   31.4812   46.1469 H   0  0  0  0  0  0  0  0  0  0  0  0
   46.4360   30.3737   49.9411 H   0  0  0  0  0  0  0  0  0  0  0  0
   45.9424   32.9858   41.6048 H   0  0  0  0  0  0  0  0  0  0  0  0
   49.5061   36.0890   40.6239 H   0  0  0  0  0  0  0  0  0  0  0  0
  1  7  1  0
  2  1  1  0
  3  2  2  0
  4  3  1  0
  4  5  2  0
  5  1  1  0
  6 11  2  0
  7  8  2  0
  7  6  1  0
  8  9  1  0
  9 10  2  0
 11 10  1  0
 12  4  1  0
 13 12  2  0
 14 15  1  0
 14 13  1  0
 15 16  2  0
 16 12  1  0
  2 17  1  0
  6 18  1  0
  8 19  1  0
 10 20  1  0
 13 21  1  0
 15 22  1  0
M  ISO  6  17  14  18  14  19  14  20  14  21  14  22  14
M  END
>  <minimizedAffinity>  (1) 
-4.7256918

>  <minimizedRMSD>  (1) 
5.18581343

$$$$
