
     RDKit          3D

 40 43  0  0  0  0  0  0  0  0999 V2000
   44.5690   35.8370   44.5730 C   0  0  0  0  0  0  0  0  0  0  0  0
   45.1560   35.7710   43.2930 C   0  0  0  0  0  0  0  0  0  0  0  0
   46.0560   34.7650   43.0350 C   0  0  0  0  0  0  0  0  0  0  0  0
   46.3380   33.8810   44.0230 N   0  0  0  0  0  0  0  0  0  0  0  0
   45.7620   33.9550   45.2620 C   0  0  0  0  0  0  0  0  0  0  0  0
   44.8690   34.9520   45.5210 N   0  0  0  0  0  0  0  0  0  0  0  0
   46.0760   33.0020   46.3010 C   0  0  0  0  0  0  0  0  0  0  0  0
   45.3830   33.0380   47.5040 C   0  0  0  0  0  0  0  0  0  0  0  0
   45.6370   32.1500   48.5440 C   0  0  0  0  0  0  0  0  0  0  0  0
   46.6200   31.2560   48.2690 C   0  0  0  0  0  0  0  0  0  0  0  0
   47.3410   31.1780   47.0840 C   0  0  0  0  0  0  0  0  0  0  0  0
   47.0160   32.0840   46.1430 N   0  0  0  0  0  0  0  0  0  0  0  0
   44.3820   34.0210   47.6620 N   0  0  0  0  0  0  0  0  0  0  0  0
   46.6860   34.6790   41.6920 C   0  0  0  0  0  0  0  0  0  0  0  0
   48.0470   35.3640   41.6710 C   0  0  0  0  0  0  0  0  0  0  0  0
   49.1460   34.4070   41.8880 C   0  0  0  0  0  0  0  0  0  0  0  0
   50.3040   34.7470   42.4740 N   0  0  0  0  0  0  0  0  0  0  0  0
   51.0650   33.6990   42.5210 O   0  0  0  0  0  0  0  0  0  0  0  0
   50.4400   32.6670   41.9810 C   0  0  0  0  0  0  0  0  0  0  0  0
   49.2290   33.1020   41.5790 N   0  0  0  0  0  0  0  0  0  0  0  0
   51.0770   31.4030   41.9200 N   0  0  0  0  0  0  0  0  0  0  0  0
   51.0360   30.3060   42.6840 N   0  0  0  0  0  0  0  0  0  0  0  0
   51.8460   29.3610   42.1800 C   0  0  0  0  0  0  0  0  0  0  0  0
   52.4330   29.8920   41.0330 C   0  0  0  0  0  0  0  0  0  0  0  0
   51.9210   31.1860   40.9030 C   0  0  0  0  0  0  0  0  0  0  0  0
   52.3240   32.0030   39.8280 O   0  0  0  0  0  0  0  0  0  0  0  0
   43.8472   36.6374   44.7932 H   0  0  0  0  0  0  0  0  0  0  0  0
   44.8994   36.5083   42.5180 H   0  0  0  0  0  0  0  0  0  0  0  0
   45.0923   32.1705   49.4994 H   0  0  0  0  0  0  0  0  0  0  0  0
   46.8683   30.5276   49.0549 H   0  0  0  0  0  0  0  0  0  0  0  0
   48.1266   30.4246   46.9250 H   0  0  0  0  0  0  0  0  0  0  0  0
   43.8486   34.0761   48.5414 H   0  0  0  0  0  0  0  0  0  0  0  0
   44.1851   34.6830   46.8979 H   0  0  0  0  0  0  0  0  0  0  0  0
   46.8143   33.6199   41.4241 H   0  0  0  0  0  0  0  0  0  0  0  0
   46.0312   35.1880   40.9694 H   0  0  0  0  0  0  0  0  0  0  0  0
   48.1859   35.8497   40.6938 H   0  0  0  0  0  0  0  0  0  0  0  0
   48.0706   36.1016   42.4868 H   0  0  0  0  0  0  0  0  0  0  0  0
   52.0146   28.3562   42.5947 H   0  0  0  0  0  0  0  0  0  0  0  0
   53.1524   29.3943   40.3661 H   0  0  0  0  0  0  0  0  0  0  0  0
   51.9595   32.9191   39.7388 H   0  0  0  0  0  0  0  0  0  0  0  0
  1  6  2  0
  2  1  1  0
  3  2  2  0
  3  4  1  0
  4  5  2  0
  5  6  1  0
  5  7  1  0
  7  8  2  0
  8 13  1  0
  8  9  1  0
 10  9  2  0
 11 10  1  0
 12  7  1  0
 12 11  2  0
 14  3  1  0
 15 14  1  0
 15 16  1  0
 16 17  2  0
 17 18  1  0
 19 18  1  0
 20 16  1  0
 20 19  2  0
 21 19  1  0
 21 22  1  0
 23 22  2  0
 24 23  1  0
 25 24  2  0
 25 21  1  0
 26 25  1  0
  1 27  1  0
  2 28  1  0
  9 29  1  0
 10 30  1  0
 11 31  1  0
 13 32  1  0
 13 33  1  0
 14 34  1  0
 14 35  1  0
 15 36  1  0
 15 37  1  0
 23 38  1  0
 24 39  1  0
 26 40  1  0
M  ISO  8  27  14  28  14  29  14  30  14  31  14  34   8  35   8  36   8
M  ISO  4  37   8  38  14  39  14  40   3
M  END
>  <minimizedAffinity>  (1) 
-7.543643

>  <minimizedRMSD>  (1) 
0.359748095

$$$$
