
     RDKit          3D

 28 30  0  0  0  0  0  0  0  0999 V2000
   44.5000   34.3750   42.7450 N   0  0  0  0  0  0  0  0  0  0  0  0
   44.4790   35.6850   42.3700 C   0  0  0  0  0  0  0  0  0  0  0  0
   43.5080   35.8670   41.4460 N   0  0  0  0  0  0  0  0  0  0  0  0
   42.9320   34.6650   41.2530 C   0  0  0  0  0  0  0  0  0  0  0  0
   43.5480   33.7720   42.0510 N   0  0  0  0  0  0  0  0  0  0  0  0
   41.8600   34.4360   40.3480 N   0  0  0  0  0  0  0  0  0  0  0  0
   42.0250   34.3790   38.9090 C   0  0  0  0  0  0  0  0  0  0  0  0
   40.6570   34.3380   38.3120 C   0  0  0  0  0  0  0  0  0  0  0  0
   39.7770   34.8600   39.4260 C   0  0  0  0  0  0  0  0  0  0  0  0
   40.4580   34.2240   40.6440 C   0  0  0  0  0  0  0  0  0  0  0  0
   45.3370   34.1630   44.9910 C   0  0  0  0  0  0  0  0  0  0  0  0
   45.3220   33.6860   43.6750 C   0  0  0  0  0  0  0  0  0  0  0  0
   46.1110   32.5780   43.3790 C   0  0  0  0  0  0  0  0  0  0  0  0
   46.8490   32.0180   44.3690 N   0  0  0  0  0  0  0  0  0  0  0  0
   46.8470   32.4940   45.6240 C   0  0  0  0  0  0  0  0  0  0  0  0
   46.0890   33.5620   45.9180 N   0  0  0  0  0  0  0  0  0  0  0  0
   45.1457   36.4696   42.7572 H   0  0  0  0  0  0  0  0  0  0  0  0
   42.5645   35.2700   38.5554 H   0  0  0  0  0  0  0  0  0  0  0  0
   42.6069   33.4926   38.6162 H   0  0  0  0  0  0  0  0  0  0  0  0
   40.5946   34.9847   37.4243 H   0  0  0  0  0  0  0  0  0  0  0  0
   40.3668   33.3343   37.9678 H   0  0  0  0  0  0  0  0  0  0  0  0
   39.7967   35.9586   39.4777 H   0  0  0  0  0  0  0  0  0  0  0  0
   38.7098   34.6157   39.3189 H   0  0  0  0  0  0  0  0  0  0  0  0
   40.2228   33.1521   40.7194 H   0  0  0  0  0  0  0  0  0  0  0  0
   40.1375   34.6514   41.6056 H   0  0  0  0  0  0  0  0  0  0  0  0
   44.7268   35.0368   45.2634 H   0  0  0  0  0  0  0  0  0  0  0  0
   46.1353   32.1642   42.3601 H   0  0  0  0  0  0  0  0  0  0  0  0
   47.4591   32.0147   46.4021 H   0  0  0  0  0  0  0  0  0  0  0  0
  1 12  1  0
  2  1  1  0
  3  2  2  0
  4  3  1  0
  4  5  2  0
  5  1  1  0
  6 10  1  0
  6  4  1  0
  7  6  1  0
  8  7  1  0
  8  9  1  0
  9 10  1  0
 11 16  2  0
 12 11  1  0
 13 12  2  0
 13 14  1  0
 14 15  2  0
 15 16  1  0
  2 17  1  0
  7 18  1  0
  7 19  1  0
  8 20  1  0
  8 21  1  0
  9 22  1  0
  9 23  1  0
 10 24  1  0
 10 25  1  0
 11 26  1  0
 13 27  1  0
 15 28  1  0
M  ISO  8  17  14  18  13  19  13  20  13  21  13  22  13  23  13  24  13
M  ISO  4  25  13  26  14  27  14  28  14
M  END
>  <minimizedAffinity>  (1) 
-4.53213739

>  <minimizedRMSD>  (1) 
2.33187366

$$$$
