
     RDKit          3D

 36 37  0  0  0  0  0  0  0  0999 V2000
   50.8780   32.9580   42.0570 C   0  0  0  0  0  0  0  0  0  0  0  0
   50.9060   31.5450   42.0390 C   0  0  0  0  0  0  0  0  0  0  0  0
   49.7990   30.8760   42.5300 C   0  0  0  0  0  0  0  0  0  0  0  0
   48.7270   31.5910   43.0110 N   0  0  0  0  0  0  0  0  0  0  0  0
   48.7480   32.9510   43.0060 C   0  0  0  0  0  0  0  0  0  0  0  0
   49.8040   33.6070   42.5390 N   0  0  0  0  0  0  0  0  0  0  0  0
   47.5740   33.5600   43.5310 N   0  0  0  0  0  0  0  0  0  0  0  0
   47.1990   33.1230   44.7540 C   0  0  0  0  0  0  0  0  0  0  0  0
   46.0570   33.6450   45.3780 C   0  0  0  0  0  0  0  0  0  0  0  0
   45.3340   34.6040   44.7210 C   0  0  0  0  0  0  0  0  0  0  0  0
   44.3060   35.0960   45.2470 O   0  0  0  0  0  0  0  0  0  0  0  0
   45.7320   35.0230   43.4990 N   0  0  0  0  0  0  0  0  0  0  0  0
   46.8410   34.5000   42.9170 C   0  0  0  0  0  0  0  0  0  0  0  0
   47.2390   34.8700   41.7760 O   0  0  0  0  0  0  0  0  0  0  0  0
   45.6700   33.1370   46.7340 C   0  0  0  0  0  0  0  0  0  0  0  0
   44.9640   36.0350   42.8100 C   0  0  0  0  0  0  0  0  0  0  0  0
   44.0990   35.3560   41.7850 C   0  0  0  0  0  0  0  0  0  0  0  0
   42.7990   36.0420   41.8320 N   0  0  0  0  0  0  0  0  0  0  0  0
   41.6420   35.2870   41.5160 C   0  0  0  0  0  0  0  0  0  0  0  0
   41.6110   34.0250   41.6450 N   0  0  0  0  0  0  0  0  0  0  0  0
   40.4770   35.9320   41.0390 N   0  0  0  0  0  0  0  0  0  0  0  0
   40.7880   33.4290   41.4260 H   0  0  0  0  0  0  0  0  0  0  0  0
   51.7377   33.5284   41.6754 H   0  0  0  0  0  0  0  0  0  0  0  0
   51.7764   30.9971   41.6488 H   0  0  0  0  0  0  0  0  0  0  0  0
   49.7763   29.7762   42.5357 H   0  0  0  0  0  0  0  0  0  0  0  0
   47.7947   32.3515   45.2639 H   0  0  0  0  0  0  0  0  0  0  0  0
   46.1439   33.7591   47.5076 H   0  0  0  0  0  0  0  0  0  0  0  0
   44.5766   33.1838   46.8448 H   0  0  0  0  0  0  0  0  0  0  0  0
   46.0055   32.0953   46.8448 H   0  0  0  0  0  0  0  0  0  0  0  0
   44.3324   36.5765   43.5296 H   0  0  0  0  0  0  0  0  0  0  0  0
   45.6377   36.7538   42.3206 H   0  0  0  0  0  0  0  0  0  0  0  0
   43.9781   34.2910   42.0322 H   0  0  0  0  0  0  0  0  0  0  0  0
   44.5464   35.4095   40.7815 H   0  0  0  0  0  0  0  0  0  0  0  0
   42.7316   37.0379   42.0861 H   0  0  0  0  0  0  0  0  0  0  0  0
   40.4662   36.9553   40.9219 H   0  0  0  0  0  0  0  0  0  0  0  0
   39.6395   35.3784   40.8088 H   0  0  0  0  0  0  0  0  0  0  0  0
  1  6  2  0
  2  1  1  0
  2  3  2  0
  3  4  1  0
  5  4  2  0
  5  7  1  0
  6  5  1  0
  7  8  1  0
  8  9  2  0
  9 15  1  0
 10 11  2  0
 10  9  1  0
 12 10  1  0
 13 12  1  0
 13  7  1  0
 14 13  2  0
 16 12  1  0
 17 18  1  0
 17 16  1  0
 19 20  2  0
 19 18  1  0
 21 19  1  0
 22 20  1  0
  1 23  1  0
  2 24  1  0
  3 25  1  0
  8 26  1  0
 15 27  1  0
 15 28  1  0
 15 29  1  0
 16 30  1  0
 16 31  1  0
 17 32  1  0
 17 33  1  0
 18 34  1  0
 21 35  1  0
 21 36  1  0
M  ISO  8  23  14  24  14  25  14  26  14  27   8  28   8  29   8  30   8
M  ISO  3  31   8  32   8  33   8
M  END
>  <minimizedAffinity>  (1) 
-5.58364344

>  <minimizedRMSD>  (1) 
0.758590519

$$$$
