
     RDKit          3D

 41 43  0  0  0  0  0  0  0  0999 V2000
   50.3230   33.7470   42.6220 C   0  0  0  0  0  0  0  0  0  0  0  0
   50.9810   32.8040   41.8000 C   0  0  0  0  0  0  0  0  0  0  0  0
   50.1990   31.9000   41.1050 C   0  0  0  0  0  0  0  0  0  0  0  0
   48.8440   31.9690   41.2520 N   0  0  0  0  0  0  0  0  0  0  0  0
   48.2430   32.8880   42.0510 C   0  0  0  0  0  0  0  0  0  0  0  0
   48.9840   33.7480   42.7130 N   0  0  0  0  0  0  0  0  0  0  0  0
   46.8260   32.8010   42.0770 N   0  0  0  0  0  0  0  0  0  0  0  0
   46.3090   31.5890   42.3500 C   0  0  0  0  0  0  0  0  0  0  0  0
   44.9270   31.4060   42.3990 C   0  0  0  0  0  0  0  0  0  0  0  0
   44.1120   32.4700   42.1660 C   0  0  0  0  0  0  0  0  0  0  0  0
   42.8660   32.3260   42.2050 O   0  0  0  0  0  0  0  0  0  0  0  0
   44.6410   33.6800   41.8920 N   0  0  0  0  0  0  0  0  0  0  0  0
   45.9940   33.8560   41.8450 C   0  0  0  0  0  0  0  0  0  0  0  0
   46.5260   34.9700   41.5940 O   0  0  0  0  0  0  0  0  0  0  0  0
   44.4010   30.0340   42.7180 C   0  0  0  0  0  0  0  0  0  0  0  0
   43.7750   34.8180   41.6460 C   0  0  0  0  0  0  0  0  0  0  0  0
   43.3520   34.7590   40.2000 C   0  0  0  0  0  0  0  0  0  0  0  0
   42.0440   35.2750   39.9760 N   0  0  0  0  0  0  0  0  0  0  0  0
   41.3060   35.6680   41.1370 C   0  0  0  0  0  0  0  0  0  0  0  0
   39.9470   36.0020   40.5040 C   0  0  0  0  0  0  0  0  0  0  0  0
   39.7840   34.8340   39.5310 C   0  0  0  0  0  0  0  0  0  0  0  0
   41.1820   34.2050   39.4570 C   0  0  0  0  0  0  0  0  0  0  0  0
   50.9110   34.4833   43.1896 H   0  0  0  0  0  0  0  0  0  0  0  0
   52.0777   32.7898   41.7161 H   0  0  0  0  0  0  0  0  0  0  0  0
   50.6574   31.1443   40.4502 H   0  0  0  0  0  0  0  0  0  0  0  0
   46.9802   30.7375   42.5356 H   0  0  0  0  0  0  0  0  0  0  0  0
   44.3515   29.9049   43.8093 H   0  0  0  0  0  0  0  0  0  0  0  0
   43.3947   29.9182   42.2891 H   0  0  0  0  0  0  0  0  0  0  0  0
   45.0720   29.2752   42.2891 H   0  0  0  0  0  0  0  0  0  0  0  0
   42.8911   34.7657   42.2987 H   0  0  0  0  0  0  0  0  0  0  0  0
   44.3020   35.7599   41.8582 H   0  0  0  0  0  0  0  0  0  0  0  0
   44.0659   35.3452   39.6028 H   0  0  0  0  0  0  0  0  0  0  0  0
   43.3396   33.6990   39.9064 H   0  0  0  0  0  0  0  0  0  0  0  0
   41.2246   34.8465   41.8640 H   0  0  0  0  0  0  0  0  0  0  0  0
   41.7585   36.4894   41.7119 H   0  0  0  0  0  0  0  0  0  0  0  0
   39.1439   36.0169   41.2556 H   0  0  0  0  0  0  0  0  0  0  0  0
   39.8976   36.9949   40.0332 H   0  0  0  0  0  0  0  0  0  0  0  0
   39.0500   34.1088   39.9121 H   0  0  0  0  0  0  0  0  0  0  0  0
   39.4149   35.1556   38.5460 H   0  0  0  0  0  0  0  0  0  0  0  0
   41.2457   33.3042   40.0852 H   0  0  0  0  0  0  0  0  0  0  0  0
   41.4587   33.8728   38.4455 H   0  0  0  0  0  0  0  0  0  0  0  0
  1  6  2  0
  2  1  1  0
  3  4  1  0
  3  2  2  0
  4  5  2  0
  5  7  1  0
  5  6  1  0
  7  8  1  0
  8  9  2  0
  9 15  1  0
 10 11  2  0
 10  9  1  0
 12 10  1  0
 13 12  1  0
 13  7  1  0
 14 13  2  0
 16 12  1  0
 17 16  1  0
 18 17  1  0
 18 19  1  0
 20 19  1  0
 21 20  1  0
 22 21  1  0
 22 18  1  0
  1 23  1  0
  2 24  1  0
  3 25  1  0
  8 26  1  0
 15 27  1  0
 15 28  1  0
 15 29  1  0
 16 30  1  0
 16 31  1  0
 17 32  1  0
 17 33  1  0
 19 34  1  0
 19 35  1  0
 20 36  1  0
 20 37  1  0
 21 38  1  0
 21 39  1  0
 22 40  1  0
 22 41  1  0
M  ISO  8  23  14  24  14  25  14  26  14  27   8  28   8  29   8  30   8
M  ISO  8  31   8  32   8  33   8  34  13  35  13  36  13  37  13  38  13
M  ISO  3  39  13  40  13  41  13
M  END
>  <minimizedAffinity>  (1) 
-4.74135828

>  <minimizedRMSD>  (1) 
2.64378738

$$$$
