
     RDKit          3D

 41 43  0  0  0  0  0  0  0  0999 V2000
   50.7760   32.9470   41.9950 C   0  0  0  0  0  0  0  0  0  0  0  0
   50.7410   31.5480   41.8440 C   0  0  0  0  0  0  0  0  0  0  0  0
   49.6130   30.8710   42.3080 C   0  0  0  0  0  0  0  0  0  0  0  0
   48.5990   31.5930   42.8840 N   0  0  0  0  0  0  0  0  0  0  0  0
   48.6800   32.9590   43.0100 C   0  0  0  0  0  0  0  0  0  0  0  0
   49.7480   33.5690   42.5670 N   0  0  0  0  0  0  0  0  0  0  0  0
   47.5570   33.5470   43.6230 N   0  0  0  0  0  0  0  0  0  0  0  0
   47.1770   33.0260   44.8050 C   0  0  0  0  0  0  0  0  0  0  0  0
   46.0760   33.5310   45.5030 C   0  0  0  0  0  0  0  0  0  0  0  0
   45.3870   34.5790   44.9490 C   0  0  0  0  0  0  0  0  0  0  0  0
   44.3990   35.0650   45.5330 O   0  0  0  0  0  0  0  0  0  0  0  0
   45.7790   35.1020   43.7520 N   0  0  0  0  0  0  0  0  0  0  0  0
   46.8460   34.5950   43.0980 C   0  0  0  0  0  0  0  0  0  0  0  0
   47.2460   35.0420   41.9910 O   0  0  0  0  0  0  0  0  0  0  0  0
   45.6880   32.9270   46.8080 C   0  0  0  0  0  0  0  0  0  0  0  0
   45.0380   36.2060   43.1880 C   0  0  0  0  0  0  0  0  0  0  0  0
   44.2210   35.6660   42.0390 C   0  0  0  0  0  0  0  0  0  0  0  0
   42.8330   35.5540   42.3280 N   0  0  0  0  0  0  0  0  0  0  0  0
   41.9710   35.3930   41.1840 C   0  0  0  0  0  0  0  0  0  0  0  0
   40.5990   35.4930   41.3230 C   0  0  0  0  0  0  0  0  0  0  0  0
   39.7770   35.3380   40.2260 C   0  0  0  0  0  0  0  0  0  0  0  0
   40.2890   35.0770   38.9560 C   0  0  0  0  0  0  0  0  0  0  0  0
   41.6720   34.9730   38.8100 C   0  0  0  0  0  0  0  0  0  0  0  0
   42.4680   35.1340   39.9250 C   0  0  0  0  0  0  0  0  0  0  0  0
   51.6457   33.5213   41.6432 H   0  0  0  0  0  0  0  0  0  0  0  0
   51.5758   31.0062   41.3754 H   0  0  0  0  0  0  0  0  0  0  0  0
   49.5381   29.7776   42.2136 H   0  0  0  0  0  0  0  0  0  0  0  0
   47.7448   32.1854   45.2304 H   0  0  0  0  0  0  0  0  0  0  0  0
   46.0836   33.5428   47.6291 H   0  0  0  0  0  0  0  0  0  0  0  0
   44.5913   32.8815   46.8793 H   0  0  0  0  0  0  0  0  0  0  0  0
   46.1026   31.9106   46.8793 H   0  0  0  0  0  0  0  0  0  0  0  0
   44.3736   36.6401   43.9496 H   0  0  0  0  0  0  0  0  0  0  0  0
   45.7224   36.9935   42.8396 H   0  0  0  0  0  0  0  0  0  0  0  0
   44.6035   34.6678   41.7797 H   0  0  0  0  0  0  0  0  0  0  0  0
   44.3201   36.3816   41.2095 H   0  0  0  0  0  0  0  0  0  0  0  0
   42.4680   35.5858   43.2906 H   0  0  0  0  0  0  0  0  0  0  0  0
   40.1615   35.6968   42.3115 H   0  0  0  0  0  0  0  0  0  0  0  0
   38.6881   35.4227   40.3570 H   0  0  0  0  0  0  0  0  0  0  0  0
   39.6196   34.9562   38.0915 H   0  0  0  0  0  0  0  0  0  0  0  0
   42.1188   34.7669   37.8262 H   0  0  0  0  0  0  0  0  0  0  0  0
   43.5580   35.0512   39.8026 H   0  0  0  0  0  0  0  0  0  0  0  0
  1  6  2  0
  2  1  1  0
  2  3  2  0
  3  4  1  0
  4  5  2  0
  5  7  1  0
  6  5  1  0
  7  8  1  0
  8  9  2  0
  9 15  1  0
 10  9  1  0
 10 11  2  0
 12 10  1  0
 13  7  1  0
 13 12  1  0
 14 13  2  0
 16 12  1  0
 17 18  1  0
 17 16  1  0
 19 20  2  0
 19 18  1  0
 21 20  1  0
 22 21  2  0
 23 22  1  0
 23 24  2  0
 24 19  1  0
  1 25  1  0
  2 26  1  0
  3 27  1  0
  8 28  1  0
 15 29  1  0
 15 30  1  0
 15 31  1  0
 16 32  1  0
 16 33  1  0
 17 34  1  0
 17 35  1  0
 18 36  1  0
 20 37  1  0
 21 38  1  0
 22 39  1  0
 23 40  1  0
 24 41  1  0
M  ISO  8  25  14  26  14  27  14  28  14  29   8  30   8  31   8  32   8
M  ISO  8  33   8  34   8  35   8  37  14  38  14  39  14  40  14  41  14
M  END
>  <minimizedAffinity>  (1) 
-6.74953318

>  <minimizedRMSD>  (1) 
0.812257528

$$$$
