
     RDKit          3D

 38 40  0  0  0  0  0  0  0  0999 V2000
   50.8240   32.9850   42.0180 C   0  0  0  0  0  0  0  0  0  0  0  0
   50.8080   31.5720   41.9230 C   0  0  0  0  0  0  0  0  0  0  0  0
   49.6740   30.9000   42.3860 C   0  0  0  0  0  0  0  0  0  0  0  0
   48.6570   31.6500   42.8970 N   0  0  0  0  0  0  0  0  0  0  0  0
   48.7000   33.0050   42.9740 C   0  0  0  0  0  0  0  0  0  0  0  0
   49.7750   33.6320   42.5360 N   0  0  0  0  0  0  0  0  0  0  0  0
   47.5590   33.6070   43.5320 N   0  0  0  0  0  0  0  0  0  0  0  0
   47.1610   33.1250   44.7290 C   0  0  0  0  0  0  0  0  0  0  0  0
   46.0410   33.6470   45.3780 C   0  0  0  0  0  0  0  0  0  0  0  0
   45.3430   34.6620   44.7830 C   0  0  0  0  0  0  0  0  0  0  0  0
   44.3440   35.1440   45.3390 O   0  0  0  0  0  0  0  0  0  0  0  0
   45.7600   35.1330   43.5780 N   0  0  0  0  0  0  0  0  0  0  0  0
   46.8470   34.6110   42.9680 C   0  0  0  0  0  0  0  0  0  0  0  0
   47.2580   35.0300   41.8460 O   0  0  0  0  0  0  0  0  0  0  0  0
   45.6410   33.0760   46.7100 C   0  0  0  0  0  0  0  0  0  0  0  0
   45.0100   36.2100   42.9540 C   0  0  0  0  0  0  0  0  0  0  0  0
   43.9840   35.5860   42.0560 C   0  0  0  0  0  0  0  0  0  0  0  0
   42.6650   35.6310   42.5850 N   0  0  0  0  0  0  0  0  0  0  0  0
   41.5720   35.3140   41.6980 C   0  0  0  0  0  0  0  0  0  0  0  0
   40.7520   36.1910   40.9850 C   0  0  0  0  0  0  0  0  0  0  0  0
   39.8340   35.4710   40.2590 C   0  0  0  0  0  0  0  0  0  0  0  0
   40.1210   34.1730   40.5520 C   0  0  0  0  0  0  0  0  0  0  0  0
   41.1210   34.1050   41.3790 O   0  0  0  0  0  0  0  0  0  0  0  0
   51.6995   33.5501   41.6656 H   0  0  0  0  0  0  0  0  0  0  0  0
   51.6606   31.0216   41.4985 H   0  0  0  0  0  0  0  0  0  0  0  0
   49.6043   29.8032   42.3397 H   0  0  0  0  0  0  0  0  0  0  0  0
   47.7282   32.3085   45.1998 H   0  0  0  0  0  0  0  0  0  0  0  0
   46.0706   33.6893   47.5158 H   0  0  0  0  0  0  0  0  0  0  0  0
   44.5442   33.0758   46.7944 H   0  0  0  0  0  0  0  0  0  0  0  0
   46.0155   32.0451   46.7944 H   0  0  0  0  0  0  0  0  0  0  0  0
   44.5139   36.8176   43.7252 H   0  0  0  0  0  0  0  0  0  0  0  0
   45.6805   36.8650   42.3783 H   0  0  0  0  0  0  0  0  0  0  0  0
   44.2581   34.5332   41.8930 H   0  0  0  0  0  0  0  0  0  0  0  0
   43.9775   36.1649   41.1207 H   0  0  0  0  0  0  0  0  0  0  0  0
   42.4952   35.8818   43.5695 H   0  0  0  0  0  0  0  0  0  0  0  0
   40.8290   37.2882   41.0019 H   0  0  0  0  0  0  0  0  0  0  0  0
   39.0472   35.8555   39.5933 H   0  0  0  0  0  0  0  0  0  0  0  0
   39.5823   33.3041   40.1459 H   0  0  0  0  0  0  0  0  0  0  0  0
  1  6  2  0
  2  1  1  0
  2  3  2  0
  3  4  1  0
  4  5  2  0
  5  7  1  0
  6  5  1  0
  7  8  1  0
  8  9  2  0
  9 15  1  0
 10 11  2  0
 10  9  1  0
 12 10  1  0
 13  7  1  0
 13 12  1  0
 14 13  2  0
 16 12  1  0
 17 18  1  0
 17 16  1  0
 19 18  1  0
 20 19  2  0
 21 22  2  0
 21 20  1  0
 22 23  1  0
 23 19  1  0
  1 24  1  0
  2 25  1  0
  3 26  1  0
  8 27  1  0
 15 28  1  0
 15 29  1  0
 15 30  1  0
 16 31  1  0
 16 32  1  0
 17 33  1  0
 17 34  1  0
 18 35  1  0
 20 36  1  0
 21 37  1  0
 22 38  1  0
M  ISO  8  24  14  25  14  26  14  27  14  28   8  29   8  30   8  31   8
M  ISO  6  32   8  33   8  34   8  36  14  37  14  38  14
M  END
>  <minimizedAffinity>  (1) 
-6.33862209

>  <minimizedRMSD>  (1) 
0.42470172

$$$$
