
     RDKit          3D

 34 35  0  0  0  0  0  0  0  0999 V2000
   50.7560   32.8530   41.9530 C   0  0  0  0  0  0  0  0  0  0  0  0
   50.6830   31.4370   41.8170 C   0  0  0  0  0  0  0  0  0  0  0  0
   49.5490   30.8030   42.2820 C   0  0  0  0  0  0  0  0  0  0  0  0
   48.5580   31.5530   42.8460 N   0  0  0  0  0  0  0  0  0  0  0  0
   48.6680   32.9230   42.9580 C   0  0  0  0  0  0  0  0  0  0  0  0
   49.7420   33.5190   42.5160 N   0  0  0  0  0  0  0  0  0  0  0  0
   47.5500   33.5360   43.5650 N   0  0  0  0  0  0  0  0  0  0  0  0
   47.1620   33.0280   44.7590 C   0  0  0  0  0  0  0  0  0  0  0  0
   46.0720   33.5600   45.4400 C   0  0  0  0  0  0  0  0  0  0  0  0
   45.3930   34.6100   44.8870 C   0  0  0  0  0  0  0  0  0  0  0  0
   44.4130   35.1060   45.4750 O   0  0  0  0  0  0  0  0  0  0  0  0
   45.7970   35.1100   43.6830 N   0  0  0  0  0  0  0  0  0  0  0  0
   46.8500   34.5790   43.0470 C   0  0  0  0  0  0  0  0  0  0  0  0
   47.2580   35.0120   41.9250 O   0  0  0  0  0  0  0  0  0  0  0  0
   45.6790   32.9650   46.7620 C   0  0  0  0  0  0  0  0  0  0  0  0
   45.0640   36.2240   43.1070 C   0  0  0  0  0  0  0  0  0  0  0  0
   44.0640   35.6620   42.1410 C   0  0  0  0  0  0  0  0  0  0  0  0
   42.7720   35.4440   42.7160 N   0  0  0  0  0  0  0  0  0  0  0  0
   41.6850   35.3520   41.7740 C   0  0  0  0  0  0  0  0  0  0  0  0
   41.3030   34.2660   41.2490 O   0  0  0  0  0  0  0  0  0  0  0  0
   40.9610   36.4540   41.3600 O   0  0  0  0  0  0  0  0  0  0  0  0
   51.6432   33.3968   41.5963 H   0  0  0  0  0  0  0  0  0  0  0  0
   51.5037   30.8675   41.3564 H   0  0  0  0  0  0  0  0  0  0  0  0
   49.4454   29.7110   42.1995 H   0  0  0  0  0  0  0  0  0  0  0  0
   47.7159   32.1840   45.1958 H   0  0  0  0  0  0  0  0  0  0  0  0
   46.0861   33.5814   47.5771 H   0  0  0  0  0  0  0  0  0  0  0  0
   44.5821   32.9339   46.8385 H   0  0  0  0  0  0  0  0  0  0  0  0
   46.0810   31.9439   46.8385 H   0  0  0  0  0  0  0  0  0  0  0  0
   44.5454   36.7816   43.9008 H   0  0  0  0  0  0  0  0  0  0  0  0
   45.7511   36.9123   42.5930 H   0  0  0  0  0  0  0  0  0  0  0  0
   44.4447   34.7003   41.7665 H   0  0  0  0  0  0  0  0  0  0  0  0
   43.9389   36.4036   41.3383 H   0  0  0  0  0  0  0  0  0  0  0  0
   42.6287   35.3587   43.7324 H   0  0  0  0  0  0  0  0  0  0  0  0
   40.2216   36.3451   40.7107 H   0  0  0  0  0  0  0  0  0  0  0  0
  1  6  2  0
  2  1  1  0
  2  3  2  0
  3  4  1  0
  4  5  2  0
  5  7  1  0
  6  5  1  0
  7  8  1  0
  8  9  2  0
  9 15  1  0
 10  9  1  0
 10 11  2  0
 12 10  1  0
 13  7  1  0
 13 12  1  0
 14 13  2  0
 16 12  1  0
 17 18  1  0
 17 16  1  0
 19 18  1  0
 20 19  2  0
 21 19  1  0
  1 22  1  0
  2 23  1  0
  3 24  1  0
  8 25  1  0
 15 26  1  0
 15 27  1  0
 15 28  1  0
 16 29  1  0
 16 30  1  0
 17 31  1  0
 17 32  1  0
 18 33  1  0
 21 34  1  0
M  ISO  8  22  14  23  14  24  14  25  14  26   8  27   8  28   8  29   8
M  ISO  4  30   8  31   8  32   8  34   3
M  END
>  <minimizedAffinity>  (1) 
-5.89690161

>  <minimizedRMSD>  (1) 
0.264291525

$$$$
