
     RDKit          3D

 40 41  0  0  0  0  0  0  0  0999 V2000
   50.8250   33.0040   42.0420 C   0  0  0  0  0  0  0  0  0  0  0  0
   50.8020   31.6050   41.9270 C   0  0  0  0  0  0  0  0  0  0  0  0
   49.6790   30.9450   42.3690 C   0  0  0  0  0  0  0  0  0  0  0  0
   48.6420   31.6660   42.8960 N   0  0  0  0  0  0  0  0  0  0  0  0
   48.6950   33.0300   42.9920 C   0  0  0  0  0  0  0  0  0  0  0  0
   49.7840   33.6490   42.5620 N   0  0  0  0  0  0  0  0  0  0  0  0
   47.5550   33.6160   43.5550 N   0  0  0  0  0  0  0  0  0  0  0  0
   47.1400   33.1320   44.7370 C   0  0  0  0  0  0  0  0  0  0  0  0
   46.0250   33.6520   45.3720 C   0  0  0  0  0  0  0  0  0  0  0  0
   45.3390   34.6740   44.7810 C   0  0  0  0  0  0  0  0  0  0  0  0
   44.3270   35.1630   45.3300 O   0  0  0  0  0  0  0  0  0  0  0  0
   45.7670   35.1600   43.5810 N   0  0  0  0  0  0  0  0  0  0  0  0
   46.8480   34.6450   42.9820 C   0  0  0  0  0  0  0  0  0  0  0  0
   47.2770   35.0730   41.8640 O   0  0  0  0  0  0  0  0  0  0  0  0
   45.6240   33.0740   46.7000 C   0  0  0  0  0  0  0  0  0  0  0  0
   45.0330   36.2410   42.9690 C   0  0  0  0  0  0  0  0  0  0  0  0
   44.0910   35.6300   41.9410 C   0  0  0  0  0  0  0  0  0  0  0  0
   42.7660   35.5330   42.4220 N   0  0  0  0  0  0  0  0  0  0  0  0
   41.8280   35.0430   41.4120 C   0  0  0  0  0  0  0  0  0  0  0  0
   40.7590   36.1050   41.1300 C   0  0  0  0  0  0  0  0  0  0  0  0
   42.5590   34.8100   40.0940 C   0  0  0  0  0  0  0  0  0  0  0  0
   51.7057   33.5682   41.7014 H   0  0  0  0  0  0  0  0  0  0  0  0
   51.6529   31.0554   41.4981 H   0  0  0  0  0  0  0  0  0  0  0  0
   49.6151   29.8491   42.2996 H   0  0  0  0  0  0  0  0  0  0  0  0
   47.6956   32.3082   45.2088 H   0  0  0  0  0  0  0  0  0  0  0  0
   46.0486   33.6860   47.5095 H   0  0  0  0  0  0  0  0  0  0  0  0
   44.5270   33.0684   46.7813 H   0  0  0  0  0  0  0  0  0  0  0  0
   46.0029   32.0445   46.7813 H   0  0  0  0  0  0  0  0  0  0  0  0
   44.4554   36.7825   43.7327 H   0  0  0  0  0  0  0  0  0  0  0  0
   45.7204   36.9534   42.4895 H   0  0  0  0  0  0  0  0  0  0  0  0
   44.4501   34.6219   41.6866 H   0  0  0  0  0  0  0  0  0  0  0  0
   44.0825   36.2867   41.0586 H   0  0  0  0  0  0  0  0  0  0  0  0
   42.7538   34.8859   43.2232 H   0  0  0  0  0  0  0  0  0  0  0  0
   41.3785   34.1137   41.7920 H   0  0  0  0  0  0  0  0  0  0  0  0
   40.3680   36.4935   42.0819 H   0  0  0  0  0  0  0  0  0  0  0  0
   41.2040   36.9290   40.5529 H   0  0  0  0  0  0  0  0  0  0  0  0
   39.9380   35.6546   40.5529 H   0  0  0  0  0  0  0  0  0  0  0  0
   43.5887   34.4818   40.2989 H   0  0  0  0  0  0  0  0  0  0  0  0
   42.0350   34.0343   39.5162 H   0  0  0  0  0  0  0  0  0  0  0  0
   42.5805   35.7458   39.5162 H   0  0  0  0  0  0  0  0  0  0  0  0
  1  6  2  0
  2  1  1  0
  2  3  2  0
  3  4  1  0
  4  5  2  0
  5  7  1  0
  6  5  1  0
  7  8  1  0
  8  9  2  0
  9 15  1  0
 10 11  2  0
 10  9  1  0
 12 10  1  0
 13  7  1  0
 13 12  1  0
 14 13  2  0
 16 12  1  0
 17 18  1  0
 17 16  1  0
 19 18  1  0
 20 19  1  0
 21 19  1  0
  1 22  1  0
  2 23  1  0
  3 24  1  0
  8 25  1  0
 15 26  1  0
 15 27  1  0
 15 28  1  0
 16 29  1  0
 16 30  1  0
 17 31  1  0
 17 32  1  0
 18 33  1  0
 19 34  1  0
 20 35  1  0
 20 36  1  0
 20 37  1  0
 21 38  1  0
 21 39  1  0
 21 40  1  0
M  ISO  8  22  14  23  14  24  14  25  14  26   8  27   8  28   8  29   8
M  ISO  8  30   8  31   8  32   8  33   5  34   8  35   8  36   8  37   8
M  ISO  3  38   8  39   8  40   8
M  END
>  <minimizedAffinity>  (1) 
-5.64695263

>  <minimizedRMSD>  (1) 
0.435683846

$$$$
