
     RDKit          3D

 34 35  0  0  0  0  0  0  0  0999 V2000
   50.8220   32.9700   42.0070 C   0  0  0  0  0  0  0  0  0  0  0  0
   50.7930   31.5490   41.9140 C   0  0  0  0  0  0  0  0  0  0  0  0
   49.6740   30.8930   42.3810 C   0  0  0  0  0  0  0  0  0  0  0  0
   48.6530   31.6290   42.9070 N   0  0  0  0  0  0  0  0  0  0  0  0
   48.6990   32.9840   42.9870 C   0  0  0  0  0  0  0  0  0  0  0  0
   49.7770   33.6030   42.5360 N   0  0  0  0  0  0  0  0  0  0  0  0
   47.5640   33.5870   43.5520 N   0  0  0  0  0  0  0  0  0  0  0  0
   47.1610   33.1060   44.7460 C   0  0  0  0  0  0  0  0  0  0  0  0
   46.0530   33.6200   45.4000 C   0  0  0  0  0  0  0  0  0  0  0  0
   45.3550   34.6500   44.8020 C   0  0  0  0  0  0  0  0  0  0  0  0
   44.3520   35.1340   45.3650 O   0  0  0  0  0  0  0  0  0  0  0  0
   45.7800   35.1310   43.5810 N   0  0  0  0  0  0  0  0  0  0  0  0
   46.8540   34.5990   42.9950 C   0  0  0  0  0  0  0  0  0  0  0  0
   47.2720   35.0200   41.8660 O   0  0  0  0  0  0  0  0  0  0  0  0
   45.6540   33.0520   46.7210 C   0  0  0  0  0  0  0  0  0  0  0  0
   45.0300   36.1980   42.9900 C   0  0  0  0  0  0  0  0  0  0  0  0
   44.0050   35.6090   42.0680 C   0  0  0  0  0  0  0  0  0  0  0  0
   42.6910   35.6060   42.6200 N   0  0  0  0  0  0  0  0  0  0  0  0
   41.6550   35.3670   41.6680 C   0  0  0  0  0  0  0  0  0  0  0  0
   51.6942   33.5356   41.6474 H   0  0  0  0  0  0  0  0  0  0  0  0
   51.6378   30.9919   41.4827 H   0  0  0  0  0  0  0  0  0  0  0  0
   49.6057   29.7963   42.3304 H   0  0  0  0  0  0  0  0  0  0  0  0
   47.7260   32.2853   45.2120 H   0  0  0  0  0  0  0  0  0  0  0  0
   46.0837   33.6637   47.5280 H   0  0  0  0  0  0  0  0  0  0  0  0
   44.5572   33.0531   46.8044 H   0  0  0  0  0  0  0  0  0  0  0  0
   46.0270   32.0206   46.8044 H   0  0  0  0  0  0  0  0  0  0  0  0
   44.5290   36.7795   43.7779 H   0  0  0  0  0  0  0  0  0  0  0  0
   45.7021   36.8636   42.4285 H   0  0  0  0  0  0  0  0  0  0  0  0
   44.2922   34.5713   41.8427 H   0  0  0  0  0  0  0  0  0  0  0  0
   43.9791   36.2353   41.1641 H   0  0  0  0  0  0  0  0  0  0  0  0
   42.6447   34.8698   43.3389 H   0  0  0  0  0  0  0  0  0  0  0  0
   40.7147   35.1501   42.1960 H   0  0  0  0  0  0  0  0  0  0  0  0
   41.5240   36.2585   41.0371 H   0  0  0  0  0  0  0  0  0  0  0  0
   41.9278   34.5082   41.0371 H   0  0  0  0  0  0  0  0  0  0  0  0
  1  6  2  0
  2  1  1  0
  2  3  2  0
  3  4  1  0
  4  5  2  0
  5  7  1  0
  6  5  1  0
  7  8  1  0
  8  9  2  0
  9 15  1  0
 10 11  2  0
 10  9  1  0
 12 10  1  0
 13  7  1  0
 13 12  1  0
 14 13  2  0
 16 12  1  0
 17 18  1  0
 17 16  1  0
 19 18  1  0
  1 20  1  0
  2 21  1  0
  3 22  1  0
  8 23  1  0
 15 24  1  0
 15 25  1  0
 15 26  1  0
 16 27  1  0
 16 28  1  0
 17 29  1  0
 17 30  1  0
 18 31  1  0
 19 32  1  0
 19 33  1  0
 19 34  1  0
M  ISO  8  20  14  21  14  22  14  23  14  24   8  25   8  26   8  27   8
M  ISO  7  28   8  29   8  30   8  31   5  32   8  33   8  34   8
M  END
>  <minimizedAffinity>  (1) 
-5.19209528

>  <minimizedRMSD>  (1) 
0.511096954

$$$$
