
     RDKit          3D

 21 23  0  0  0  0  0  0  0  0999 V2000
   45.1700   34.5780   43.6250 N   0  0  0  0  0  0  0  0  0  0  0  0
   45.2800   35.9180   43.5030 C   0  0  0  0  0  0  0  0  0  0  0  0
   44.4670   36.3280   42.5130 N   0  0  0  0  0  0  0  0  0  0  0  0
   43.8470   35.2370   42.0130 C   0  0  0  0  0  0  0  0  0  0  0  0
   44.2900   34.1750   42.7060 N   0  0  0  0  0  0  0  0  0  0  0  0
   45.5190   33.7860   45.8780 C   0  0  0  0  0  0  0  0  0  0  0  0
   45.8140   33.6580   44.5180 C   0  0  0  0  0  0  0  0  0  0  0  0
   46.6960   32.6700   44.1090 C   0  0  0  0  0  0  0  0  0  0  0  0
   47.2250   31.8770   45.0670 N   0  0  0  0  0  0  0  0  0  0  0  0
   46.9380   32.0040   46.3730 C   0  0  0  0  0  0  0  0  0  0  0  0
   46.0860   32.9590   46.7620 N   0  0  0  0  0  0  0  0  0  0  0  0
   42.8730   35.1460   40.9290 C   0  0  0  0  0  0  0  0  0  0  0  0
   41.6000   35.5950   40.9730 N   0  0  0  0  0  0  0  0  0  0  0  0
   40.9900   35.3680   39.8610 O   0  0  0  0  0  0  0  0  0  0  0  0
   41.8250   34.7670   39.0400 C   0  0  0  0  0  0  0  0  0  0  0  0
   43.0060   34.6200   39.6930 N   0  0  0  0  0  0  0  0  0  0  0  0
   45.9269   36.5666   44.1119 H   0  0  0  0  0  0  0  0  0  0  0  0
   44.8221   34.5652   46.2201 H   0  0  0  0  0  0  0  0  0  0  0  0
   46.9548   32.5369   43.0482 H   0  0  0  0  0  0  0  0  0  0  0  0
   47.3974   31.3318   47.1126 H   0  0  0  0  0  0  0  0  0  0  0  0
   41.6058   34.4429   38.0120 H   0  0  0  0  0  0  0  0  0  0  0  0
  1  7  1  0
  2  1  1  0
  3  2  2  0
  4  3  1  0
  4  5  2  0
  5  1  1  0
  6 11  2  0
  7  6  1  0
  8  7  2  0
  8  9  1  0
  9 10  2  0
 10 11  1  0
 12 13  2  0
 12  4  1  0
 14 13  1  0
 15 16  2  0
 15 14  1  0
 16 12  1  0
  2 17  1  0
  6 18  1  0
  8 19  1  0
 10 20  1  0
 15 21  1  0
M  ISO  5  17  14  18  14  19  14  20  14  21  14
M  END
>  <minimizedAffinity>  (1) 
-4.07812214

>  <minimizedRMSD>  (1) 
2.97984719

$$$$
