
     RDKit          3D

 22 24  0  0  0  0  0  0  0  0999 V2000
   43.7760   34.5080   42.0170 N   0  0  0  0  0  0  0  0  0  0  0  0
   43.7690   35.6130   41.2330 C   0  0  0  0  0  0  0  0  0  0  0  0
   42.9380   35.4080   40.1850 N   0  0  0  0  0  0  0  0  0  0  0  0
   42.4260   34.1680   40.3190 C   0  0  0  0  0  0  0  0  0  0  0  0
   42.9500   33.6420   41.4400 N   0  0  0  0  0  0  0  0  0  0  0  0
   41.5040   33.5400   39.4370 N   0  0  0  0  0  0  0  0  0  0  0  0
   40.6140   34.1840   38.6570 C   0  0  0  0  0  0  0  0  0  0  0  0
   39.9390   33.2490   37.9840 N   0  0  0  0  0  0  0  0  0  0  0  0
   40.3950   32.0130   38.3300 C   0  0  0  0  0  0  0  0  0  0  0  0
   41.3780   32.2420   39.2460 N   0  0  0  0  0  0  0  0  0  0  0  0
   44.4680   35.1790   44.2170 C   0  0  0  0  0  0  0  0  0  0  0  0
   44.4640   34.1980   43.2220 C   0  0  0  0  0  0  0  0  0  0  0  0
   45.1250   33.0090   43.4860 C   0  0  0  0  0  0  0  0  0  0  0  0
   45.7380   32.8510   44.6790 N   0  0  0  0  0  0  0  0  0  0  0  0
   45.7280   33.8190   45.6260 C   0  0  0  0  0  0  0  0  0  0  0  0
   45.0880   34.9740   45.3760 N   0  0  0  0  0  0  0  0  0  0  0  0
   44.3467   36.5304   41.4188 H   0  0  0  0  0  0  0  0  0  0  0  0
   40.4708   35.2724   38.5878 H   0  0  0  0  0  0  0  0  0  0  0  0
   40.0457   31.0408   37.9521 H   0  0  0  0  0  0  0  0  0  0  0  0
   43.9514   36.1338   44.0395 H   0  0  0  0  0  0  0  0  0  0  0  0
   45.1500   32.2057   42.7349 H   0  0  0  0  0  0  0  0  0  0  0  0
   46.2375   33.6618   46.5881 H   0  0  0  0  0  0  0  0  0  0  0  0
  1 12  1  0
  2  1  1  0
  3  4  1  0
  3  2  2  0
  4  5  2  0
  5  1  1  0
  6  4  1  0
  7  6  1  0
  8  9  1  0
  8  7  2  0
  9 10  2  0
 10  6  1  0
 11 16  2  0
 12 13  2  0
 12 11  1  0
 13 14  1  0
 14 15  2  0
 16 15  1  0
  2 17  1  0
  7 18  1  0
  9 19  1  0
 11 20  1  0
 13 21  1  0
 15 22  1  0
M  ISO  6  17  14  18  14  19  14  20  14  21  14  22  14
M  END
>  <minimizedAffinity>  (1) 
-3.97279596

>  <minimizedRMSD>  (1) 
1.60855985

$$$$
