
     RDKit          3D

 26 28  0  0  0  0  0  0  0  0999 V2000
   43.8240   34.5060   41.4460 N   0  0  0  0  0  0  0  0  0  0  0  0
   42.9870   35.3670   40.8280 C   0  0  0  0  0  0  0  0  0  0  0  0
   42.7900   34.9780   39.5630 N   0  0  0  0  0  0  0  0  0  0  0  0
   43.5110   33.8510   39.3710 C   0  0  0  0  0  0  0  0  0  0  0  0
   44.1370   33.5820   40.5400 N   0  0  0  0  0  0  0  0  0  0  0  0
   44.1910   35.6410   43.5430 C   0  0  0  0  0  0  0  0  0  0  0  0
   44.3350   34.4850   42.7750 C   0  0  0  0  0  0  0  0  0  0  0  0
   44.9660   33.3900   43.3530 C   0  0  0  0  0  0  0  0  0  0  0  0
   45.4170   33.4860   44.6400 N   0  0  0  0  0  0  0  0  0  0  0  0
   45.2580   34.6220   45.3500 C   0  0  0  0  0  0  0  0  0  0  0  0
   44.6510   35.6760   44.7930 N   0  0  0  0  0  0  0  0  0  0  0  0
   43.7530   32.9170   38.2570 C   0  0  0  0  0  0  0  0  0  0  0  0
   44.8670   32.7980   37.4530 C   0  0  0  0  0  0  0  0  0  0  0  0
   44.8760   31.8480   36.4660 C   0  0  0  0  0  0  0  0  0  0  0  0
   43.7880   31.0080   36.2620 C   0  0  0  0  0  0  0  0  0  0  0  0
   42.6560   31.1170   37.0660 C   0  0  0  0  0  0  0  0  0  0  0  0
   42.6600   32.0840   38.0640 C   0  0  0  0  0  0  0  0  0  0  0  0
   42.5351   36.2548   41.2945 H   0  0  0  0  0  0  0  0  0  0  0  0
   43.6965   36.5257   43.1154 H   0  0  0  0  0  0  0  0  0  0  0  0
   45.1007   32.4590   42.7829 H   0  0  0  0  0  0  0  0  0  0  0  0
   45.6267   34.6815   46.3847 H   0  0  0  0  0  0  0  0  0  0  0  0
   45.7357   33.4562   37.6020 H   0  0  0  0  0  0  0  0  0  0  0  0
   45.7622   31.7481   35.8221 H   0  0  0  0  0  0  0  0  0  0  0  0
   43.8209   30.2537   35.4620 H   0  0  0  0  0  0  0  0  0  0  0  0
   41.7872   30.4592   36.9159 H   0  0  0  0  0  0  0  0  0  0  0  0
   41.7791   32.1913   38.7140 H   0  0  0  0  0  0  0  0  0  0  0  0
  1  7  1  0
  2  1  1  0
  3  2  2  0
  4  3  1  0
  4  5  2  0
  5  1  1  0
  6 11  2  0
  7  8  2  0
  7  6  1  0
  8  9  1  0
  9 10  2  0
 11 10  1  0
 12  4  1  0
 13 12  2  0
 14 13  1  0
 15 14  2  0
 15 16  1  0
 16 17  2  0
 17 12  1  0
  2 18  1  0
  6 19  1  0
  8 20  1  0
 10 21  1  0
 13 22  1  0
 14 23  1  0
 15 24  1  0
 16 25  1  0
 17 26  1  0
M  ISO  8  18  14  19  14  20  14  21  14  22  14  23  14  24  14  25  14
M  ISO  1  26  14
M  END
>  <minimizedAffinity>  (1) 
-3.96308064

>  <minimizedRMSD>  (1) 
0.590829968

$$$$
