
     RDKit          3D

 40 42  0  0  0  0  0  0  0  0999 V2000
   50.6990   33.0900   42.0490 C   0  0  0  0  0  0  0  0  0  0  0  0
   50.7760   31.6990   42.0920 C   0  0  0  0  0  0  0  0  0  0  0  0
   49.6820   31.0290   42.6180 C   0  0  0  0  0  0  0  0  0  0  0  0
   48.6090   31.7580   43.0570 N   0  0  0  0  0  0  0  0  0  0  0  0
   48.5820   33.1010   42.9940 C   0  0  0  0  0  0  0  0  0  0  0  0
   49.6120   33.7330   42.4980 N   0  0  0  0  0  0  0  0  0  0  0  0
   47.4010   33.7000   43.4930 N   0  0  0  0  0  0  0  0  0  0  0  0
   47.0230   33.3240   44.7380 C   0  0  0  0  0  0  0  0  0  0  0  0
   45.8870   33.8450   45.3330 C   0  0  0  0  0  0  0  0  0  0  0  0
   45.1330   34.7690   44.6260 C   0  0  0  0  0  0  0  0  0  0  0  0
   44.0980   35.2640   45.1310 O   0  0  0  0  0  0  0  0  0  0  0  0
   45.5300   35.1320   43.3810 N   0  0  0  0  0  0  0  0  0  0  0  0
   46.6390   34.6030   42.8380 C   0  0  0  0  0  0  0  0  0  0  0  0
   47.0350   34.9200   41.6830 O   0  0  0  0  0  0  0  0  0  0  0  0
   45.5100   33.4080   46.7180 C   0  0  0  0  0  0  0  0  0  0  0  0
   44.7190   36.0950   42.6870 C   0  0  0  0  0  0  0  0  0  0  0  0
   43.6560   35.4040   41.9410 C   0  0  0  0  0  0  0  0  0  0  0  0
   42.3180   35.4410   42.4840 N   0  0  0  0  0  0  0  0  0  0  0  0
   41.1890   35.5300   41.6610 C   0  0  0  0  0  0  0  0  0  0  0  0
   40.8040   36.5990   41.0090 O   0  0  0  0  0  0  0  0  0  0  0  0
   40.2080   34.4110   41.3890 C   0  0  0  0  0  0  0  0  0  0  0  0
   39.3950   34.3910   40.2800 C   0  0  0  0  0  0  0  0  0  0  0  0
   38.6020   33.2380   40.3280 C   0  0  0  0  0  0  0  0  0  0  0  0
   38.9600   32.6070   41.4520 N   0  0  0  0  0  0  0  0  0  0  0  0
   39.8930   33.2940   42.0650 N   0  0  0  0  0  0  0  0  0  0  0  0
   51.5415   33.6678   41.6412 H   0  0  0  0  0  0  0  0  0  0  0  0
   51.6618   31.1589   41.7263 H   0  0  0  0  0  0  0  0  0  0  0  0
   49.6760   29.9309   42.6816 H   0  0  0  0  0  0  0  0  0  0  0  0
   47.6309   32.5900   45.2873 H   0  0  0  0  0  0  0  0  0  0  0  0
   46.0432   34.0261   47.4554 H   0  0  0  0  0  0  0  0  0  0  0  0
   44.4252   33.5255   46.8570 H   0  0  0  0  0  0  0  0  0  0  0  0
   45.7853   32.3521   46.8570 H   0  0  0  0  0  0  0  0  0  0  0  0
   44.2659   36.7838   43.4152 H   0  0  0  0  0  0  0  0  0  0  0  0
   45.3478   36.6610   41.9840 H   0  0  0  0  0  0  0  0  0  0  0  0
   43.9474   34.3465   41.8587 H   0  0  0  0  0  0  0  0  0  0  0  0
   43.5840   35.9523   40.9901 H   0  0  0  0  0  0  0  0  0  0  0  0
   42.1910   35.4008   43.5053 H   0  0  0  0  0  0  0  0  0  0  0  0
   39.3716   35.1535   39.4875 H   0  0  0  0  0  0  0  0  0  0  0  0
   37.8451   32.9187   39.5965 H   0  0  0  0  0  0  0  0  0  0  0  0
   38.5629   31.7169   41.7850 H   0  0  0  0  0  0  0  0  0  0  0  0
  1  2  2  0
  1  6  1  0
  2  3  1  0
  3  4  2  0
  5  4  1  0
  5  7  1  0
  6  5  2  0
  7  8  1  0
  8  9  2  0
  9 15  1  0
 10 11  2  0
 10  9  1  0
 12 10  1  0
 13 12  1  0
 13  7  1  0
 14 13  2  0
 16 12  1  0
 17 18  1  0
 17 16  1  0
 19 18  1  0
 20 19  2  0
 21 19  1  0
 21 25  2  0
 22 23  2  0
 22 21  1  0
 23 24  1  0
 24 25  1  0
  1 26  1  0
  2 27  1  0
  3 28  1  0
  8 29  1  0
 15 30  1  0
 15 31  1  0
 15 32  1  0
 16 33  1  0
 16 34  1  0
 17 35  1  0
 17 36  1  0
 18 37  1  0
 22 38  1  0
 23 39  1  0
 24 40  1  0
M  ISO  8  26  14  27  14  28  14  29  14  30   8  31   8  32   8  33   8
M  ISO  6  34   8  35   8  36   8  38  14  39  14  40   9
M  END
>  <minimizedAffinity>  (1) 
-6.72443819

>  <minimizedRMSD>  (1) 
0.59972316

$$$$
