
     RDKit          3D

 40 42  0  0  0  0  0  0  0  0999 V2000
   50.7840   33.0500   42.0430 C   0  0  0  0  0  0  0  0  0  0  0  0
   50.7960   31.6580   41.9730 C   0  0  0  0  0  0  0  0  0  0  0  0
   49.6780   30.9860   42.4440 C   0  0  0  0  0  0  0  0  0  0  0  0
   48.6390   31.7230   42.9420 N   0  0  0  0  0  0  0  0  0  0  0  0
   48.6630   33.0660   42.9940 C   0  0  0  0  0  0  0  0  0  0  0  0
   49.7210   33.6920   42.5490 N   0  0  0  0  0  0  0  0  0  0  0  0
   47.5090   33.6670   43.5400 N   0  0  0  0  0  0  0  0  0  0  0  0
   47.1140   33.2020   44.7440 C   0  0  0  0  0  0  0  0  0  0  0  0
   46.0030   33.7150   45.3820 C   0  0  0  0  0  0  0  0  0  0  0  0
   45.2830   34.7310   44.7600 C   0  0  0  0  0  0  0  0  0  0  0  0
   44.2700   35.2260   45.3060 O   0  0  0  0  0  0  0  0  0  0  0  0
   45.6970   35.1840   43.5480 N   0  0  0  0  0  0  0  0  0  0  0  0
   46.7820   34.6610   42.9600 C   0  0  0  0  0  0  0  0  0  0  0  0
   47.1970   35.0530   41.8370 O   0  0  0  0  0  0  0  0  0  0  0  0
   45.5760   33.1760   46.7110 C   0  0  0  0  0  0  0  0  0  0  0  0
   44.9290   36.2320   42.9290 C   0  0  0  0  0  0  0  0  0  0  0  0
   43.9080   35.6430   42.0480 C   0  0  0  0  0  0  0  0  0  0  0  0
   42.5800   35.4590   42.5860 N   0  0  0  0  0  0  0  0  0  0  0  0
   41.4560   35.3970   41.7560 C   0  0  0  0  0  0  0  0  0  0  0  0
   40.9180   36.4040   41.1170 O   0  0  0  0  0  0  0  0  0  0  0  0
   40.6450   34.1650   41.4470 C   0  0  0  0  0  0  0  0  0  0  0  0
   40.5650   33.5690   40.2240 C   0  0  0  0  0  0  0  0  0  0  0  0
   39.7400   32.4870   40.2840 N   0  0  0  0  0  0  0  0  0  0  0  0
   39.2820   32.3730   41.5360 C   0  0  0  0  0  0  0  0  0  0  0  0
   39.8310   33.3830   42.2180 N   0  0  0  0  0  0  0  0  0  0  0  0
   51.6499   33.6242   41.6818 H   0  0  0  0  0  0  0  0  0  0  0  0
   51.6583   31.1138   41.5604 H   0  0  0  0  0  0  0  0  0  0  0  0
   49.6281   29.8874   42.4177 H   0  0  0  0  0  0  0  0  0  0  0  0
   47.6892   32.3980   45.2264 H   0  0  0  0  0  0  0  0  0  0  0  0
   46.0433   33.7659   47.5132 H   0  0  0  0  0  0  0  0  0  0  0  0
   44.4814   33.2406   46.7984 H   0  0  0  0  0  0  0  0  0  0  0  0
   45.8894   32.1252   46.7984 H   0  0  0  0  0  0  0  0  0  0  0  0
   44.4374   36.8339   43.7074 H   0  0  0  0  0  0  0  0  0  0  0  0
   45.5978   36.8723   42.3351 H   0  0  0  0  0  0  0  0  0  0  0  0
   44.2752   34.6545   41.7351 H   0  0  0  0  0  0  0  0  0  0  0  0
   43.7805   36.3790   41.2405 H   0  0  0  0  0  0  0  0  0  0  0  0
   42.4580   35.3714   43.6050 H   0  0  0  0  0  0  0  0  0  0  0  0
   41.0901   33.9118   39.3203 H   0  0  0  0  0  0  0  0  0  0  0  0
   38.5953   31.6062   41.9240 H   0  0  0  0  0  0  0  0  0  0  0  0
   39.6588   33.5540   43.2190 H   0  0  0  0  0  0  0  0  0  0  0  0
  1  6  2  0
  2  1  1  0
  2  3  2  0
  3  4  1  0
  4  5  2  0
  5  7  1  0
  6  5  1  0
  7  8  1  0
  8  9  2  0
  9 15  1  0
 10 11  2  0
 10  9  1  0
 12 10  1  0
 13  7  1  0
 13 12  1  0
 14 13  2  0
 16 12  1  0
 17 18  1  0
 17 16  1  0
 19 18  1  0
 20 19  2  0
 21 19  1  0
 21 25  1  0
 22 23  1  0
 22 21  2  0
 23 24  2  0
 24 25  1  0
  1 26  1  0
  2 27  1  0
  3 28  1  0
  8 29  1  0
 15 30  1  0
 15 31  1  0
 15 32  1  0
 16 33  1  0
 16 34  1  0
 17 35  1  0
 17 36  1  0
 18 37  1  0
 22 38  1  0
 24 39  1  0
 25 40  1  0
M  ISO  8  26  14  27  14  28  14  29  14  30   8  31   8  32   8  33   8
M  ISO  6  34   8  35   8  36   8  38  14  39  14  40   9
M  END
>  <minimizedAffinity>  (1) 
-6.73369169

>  <minimizedRMSD>  (1) 
0.185080588

$$$$
