
     RDKit          3D

 23 25  0  0  0  0  0  0  0  0999 V2000
   43.8900   34.4850   41.4930 N   0  0  0  0  0  0  0  0  0  0  0  0
   43.0470   35.3500   40.8570 C   0  0  0  0  0  0  0  0  0  0  0  0
   42.8860   34.9370   39.5770 N   0  0  0  0  0  0  0  0  0  0  0  0
   43.6260   33.8200   39.4210 C   0  0  0  0  0  0  0  0  0  0  0  0
   44.2230   33.5720   40.6050 N   0  0  0  0  0  0  0  0  0  0  0  0
   43.8840   32.9170   38.3430 N   0  0  0  0  0  0  0  0  0  0  0  0
   44.9180   33.1210   37.5460 N   0  0  0  0  0  0  0  0  0  0  0  0
   44.9720   32.1590   36.6060 C   0  0  0  0  0  0  0  0  0  0  0  0
   43.8870   31.3310   36.8750 C   0  0  0  0  0  0  0  0  0  0  0  0
   43.2070   31.8360   37.9890 C   0  0  0  0  0  0  0  0  0  0  0  0
   44.1970   35.6410   43.5870 C   0  0  0  0  0  0  0  0  0  0  0  0
   44.3740   34.4770   42.8380 C   0  0  0  0  0  0  0  0  0  0  0  0
   45.0060   33.3740   43.4270 C   0  0  0  0  0  0  0  0  0  0  0  0
   45.4200   33.4960   44.7150 N   0  0  0  0  0  0  0  0  0  0  0  0
   45.2390   34.6270   45.4170 C   0  0  0  0  0  0  0  0  0  0  0  0
   44.6370   35.6760   44.8540 N   0  0  0  0  0  0  0  0  0  0  0  0
   42.5764   36.2356   41.3090 H   0  0  0  0  0  0  0  0  0  0  0  0
   45.7130   32.0511   35.8003 H   0  0  0  0  0  0  0  0  0  0  0  0
   43.6100   30.4304   36.3073 H   0  0  0  0  0  0  0  0  0  0  0  0
   42.3058   31.4241   38.4667 H   0  0  0  0  0  0  0  0  0  0  0  0
   43.7031   36.5186   43.1444 H   0  0  0  0  0  0  0  0  0  0  0  0
   45.1617   32.4410   42.8655 H   0  0  0  0  0  0  0  0  0  0  0  0
   45.5880   34.6883   46.4584 H   0  0  0  0  0  0  0  0  0  0  0  0
  1 12  1  0
  2  1  1  0
  3  2  2  0
  4  3  1  0
  4  5  2  0
  5  1  1  0
  6  4  1  0
  7  6  1  0
  8  9  1  0
  8  7  2  0
  9 10  2  0
 10  6  1  0
 11 16  2  0
 12 13  2  0
 12 11  1  0
 13 14  1  0
 14 15  2  0
 16 15  1  0
  2 17  1  0
  8 18  1  0
  9 19  1  0
 10 20  1  0
 11 21  1  0
 13 22  1  0
 15 23  1  0
M  ISO  7  17  14  18  14  19  14  20  14  21  14  22  14  23  14
M  END
>  <minimizedAffinity>  (1) 
-3.89866829

>  <minimizedRMSD>  (1) 
0.543438196

$$$$
