
     RDKit          3D

 30 33  0  0  1  0  0  0  0  0999 V2000
   47.6120   34.6380   42.0920 C   0  0  1  0  0  0  0  0  0  0  0  0
   48.5260   35.6670   41.6420 C   0  0  0  0  0  0  0  0  0  0  0  0
   49.0640   34.5240   42.5130 C   0  0  2  0  0  0  0  0  0  0  0  0
   45.5710   34.1460   45.1070 C   0  0  0  0  0  0  0  0  0  0  0  0
   44.6310   35.2130   45.0520 C   0  0  0  0  0  0  0  0  0  0  0  0
   44.7130   36.0860   43.9770 C   0  0  0  0  0  0  0  0  0  0  0  0
   45.6800   35.8770   43.0390 N   0  0  0  0  0  0  0  0  0  0  0  0
   46.5690   34.8390   43.1230 C   0  0  0  0  0  0  0  0  0  0  0  0
   46.5170   33.9840   44.1430 N   0  0  0  0  0  0  0  0  0  0  0  0
   49.7770   33.4540   41.8580 N   0  0  0  0  0  0  0  0  0  0  0  0
   50.9910   33.0010   42.2020 C   0  0  0  0  0  0  0  0  0  0  0  0
   51.3750   31.9840   41.3800 N   0  0  0  0  0  0  0  0  0  0  0  0
   50.4040   31.7730   40.4950 C   0  0  0  0  0  0  0  0  0  0  0  0
   50.2260   30.8950   39.4390 C   0  0  0  0  0  0  0  0  0  0  0  0
   49.0820   30.9580   38.7280 N   0  0  0  0  0  0  0  0  0  0  0  0
   48.1110   31.8490   39.0170 C   0  0  0  0  0  0  0  0  0  0  0  0
   48.3070   32.6930   40.0480 N   0  0  0  0  0  0  0  0  0  0  0  0
   49.4110   32.6890   40.7950 C   0  0  0  0  0  0  0  0  0  0  0  0
   51.2330   29.9410   39.1080 N   0  0  0  0  0  0  0  0  0  0  0  0
   46.8903   34.0086   41.5506 H   0  0  0  0  0  0  0  0  0  0  0  0
   48.8059   35.7238   40.5797 H   0  0  0  0  0  0  0  0  0  0  0  0
   48.5464   36.7647   41.7103 H   0  0  0  0  0  0  0  0  0  0  0  0
   49.6474   34.4677   43.4439 H   0  0  0  0  0  0  0  0  0  0  0  0
   45.5318   33.4370   45.9471 H   0  0  0  0  0  0  0  0  0  0  0  0
   43.8673   35.3409   45.8333 H   0  0  0  0  0  0  0  0  0  0  0  0
   44.0126   36.9290   43.8834 H   0  0  0  0  0  0  0  0  0  0  0  0
   51.5940   33.3957   43.0330 H   0  0  0  0  0  0  0  0  0  0  0  0
   47.1838   31.8851   38.4262 H   0  0  0  0  0  0  0  0  0  0  0  0
   51.0895   29.2930   38.3204 H   0  0  0  0  0  0  0  0  0  0  0  0
   52.1038   29.9000   39.6566 H   0  0  0  0  0  0  0  0  0  0  0  0
  1  3  1  0
  1  8  1  0
  2  1  1  0
  2  3  1  0
  5  4  2  0
  6  5  1  0
  7  8  1  0
  7  6  2  0
  8  9  2  0
  9  4  1  0
 10 11  1  0
 10  3  1  0
 12 11  2  0
 13 18  2  0
 13 12  1  0
 14 13  1  0
 15 16  1  0
 15 14  2  0
 16 17  2  0
 17 18  1  0
 18 10  1  0
 19 14  1  0
  1 20  1  6
  2 21  1  0
  2 22  1  0
  3 23  1  1
  4 24  1  0
  5 25  1  0
  6 26  1  0
 11 27  1  0
 16 28  1  0
 19 29  1  0
 19 30  1  0
M  ISO  8  20  13  21  13  22  13  23  13  24  14  25  14  26  14  27  14
M  ISO  1  28  14
M  END
>  <minimizedAffinity>  (1) 
-5.09089375

>  <minimizedRMSD>  (1) 
1.70166302

$$$$
