
     RDKit          3D

 20 21  0  0  1  0  0  0  0  0999 V2000
   47.6450   34.4280   42.2140 C   0  0  1  0  0  0  0  0  0  0  0  0
   48.5270   35.4160   41.6220 C   0  0  0  0  0  0  0  0  0  0  0  0
   49.0840   34.4600   42.6630 C   0  0  2  0  0  0  0  0  0  0  0  0
   45.4020   34.2780   45.1230 C   0  0  0  0  0  0  0  0  0  0  0  0
   44.5540   35.4070   44.9470 C   0  0  0  0  0  0  0  0  0  0  0  0
   44.7710   36.2040   43.8220 C   0  0  0  0  0  0  0  0  0  0  0  0
   45.7710   35.8580   42.9690 N   0  0  0  0  0  0  0  0  0  0  0  0
   46.5670   34.7600   43.1740 C   0  0  0  0  0  0  0  0  0  0  0  0
   46.3790   33.9840   44.2390 N   0  0  0  0  0  0  0  0  0  0  0  0
   50.0000   33.4070   42.1040 C   0  0  0  0  0  0  0  0  0  0  0  0
   49.6340   33.1230   40.8030 F   0  0  0  0  0  0  0  0  0  0  0  0
   51.3310   33.7450   42.2080 F   0  0  0  0  0  0  0  0  0  0  0  0
   49.8650   32.2210   42.8010 F   0  0  0  0  0  0  0  0  0  0  0  0
   46.9690   33.6776   41.7783 H   0  0  0  0  0  0  0  0  0  0  0  0
   48.8315   35.3172   40.5696 H   0  0  0  0  0  0  0  0  0  0  0  0
   48.4992   36.5105   41.5152 H   0  0  0  0  0  0  0  0  0  0  0  0
   49.5947   34.5262   43.6350 H   0  0  0  0  0  0  0  0  0  0  0  0
   45.2581   33.6296   45.9999 H   0  0  0  0  0  0  0  0  0  0  0  0
   43.7585   35.6424   45.6694 H   0  0  0  0  0  0  0  0  0  0  0  0
   44.1481   37.0902   43.6304 H   0  0  0  0  0  0  0  0  0  0  0  0
  1  3  1  0
  1  8  1  0
  2  1  1  0
  2  3  1  0
  5  4  2  0
  6  5  1  0
  7  8  1  0
  7  6  2  0
  8  9  2  0
  9  4  1  0
 10 12  1  0
 10  3  1  0
 10 13  1  0
 11 10  1  0
  1 14  1  6
  2 15  1  0
  2 16  1  0
  3 17  1  1
  4 18  1  0
  5 19  1  0
  6 20  1  0
M  ISO  7  14  13  15  13  16  13  17  13  18  14  19  14  20  14
M  END
>  <minimizedAffinity>  (1) 
-4.56111479

>  <minimizedRMSD>  (1) 
0.958084643

$$$$
