
     RDKit          3D

 24 26  0  0  1  0  0  0  0  0999 V2000
   47.5550   34.5390   42.1180 C   0  0  1  0  0  0  0  0  0  0  0  0
   48.5170   35.5220   41.6630 C   0  0  0  0  0  0  0  0  0  0  0  0
   49.0020   34.3470   42.5260 C   0  0  2  0  0  0  0  0  0  0  0  0
   45.5270   34.1760   45.1580 C   0  0  0  0  0  0  0  0  0  0  0  0
   44.6180   35.2720   45.0960 C   0  0  0  0  0  0  0  0  0  0  0  0
   44.7310   36.1240   43.9800 C   0  0  0  0  0  0  0  0  0  0  0  0
   45.6920   35.8500   43.0430 N   0  0  0  0  0  0  0  0  0  0  0  0
   46.5290   34.7910   43.1580 C   0  0  0  0  0  0  0  0  0  0  0  0
   46.4490   33.9620   44.2030 N   0  0  0  0  0  0  0  0  0  0  0  0
   49.7360   33.3190   41.8160 N   0  0  0  0  0  0  0  0  0  0  0  0
   50.9980   32.9240   42.0590 C   0  0  0  0  0  0  0  0  0  0  0  0
   51.3540   31.9220   41.1770 C   0  0  0  0  0  0  0  0  0  0  0  0
   50.2930   31.7010   40.3820 N   0  0  0  0  0  0  0  0  0  0  0  0
   49.3080   32.5580   40.7760 C   0  0  0  0  0  0  0  0  0  0  0  0
   46.7975   33.9490   41.5813 H   0  0  0  0  0  0  0  0  0  0  0  0
   48.7902   35.5686   40.5985 H   0  0  0  0  0  0  0  0  0  0  0  0
   48.5952   36.6169   41.7349 H   0  0  0  0  0  0  0  0  0  0  0  0
   49.5488   34.2167   43.4715 H   0  0  0  0  0  0  0  0  0  0  0  0
   45.4727   33.4850   46.0121 H   0  0  0  0  0  0  0  0  0  0  0  0
   43.8660   35.4439   45.8802 H   0  0  0  0  0  0  0  0  0  0  0  0
   44.0626   36.9899   43.8635 H   0  0  0  0  0  0  0  0  0  0  0  0
   51.6497   33.3370   42.8430 H   0  0  0  0  0  0  0  0  0  0  0  0
   52.3229   31.4030   41.1336 H   0  0  0  0  0  0  0  0  0  0  0  0
   48.3103   32.6234   40.3173 H   0  0  0  0  0  0  0  0  0  0  0  0
  1  3  1  0
  1  8  1  0
  2  1  1  0
  2  3  1  0
  5  4  2  0
  6  5  1  0
  7  8  1  0
  7  6  2  0
  8  9  2  0
  9  4  1  0
 10 11  1  0
 10  3  1  0
 12 11  2  0
 13 14  2  0
 13 12  1  0
 14 10  1  0
  1 15  1  6
  2 16  1  0
  2 17  1  0
  3 18  1  1
  4 19  1  0
  5 20  1  0
  6 21  1  0
 11 22  1  0
 12 23  1  0
 14 24  1  0
M  ISO  8  15  13  16  13  17  13  18  13  19  14  20  14  21  14  22  14
M  ISO  2  23  14  24  14
M  END
>  <minimizedAffinity>  (1) 
-4.54864883

>  <minimizedRMSD>  (1) 
1.23821759

$$$$
