
     RDKit          3D

 25 26  0  0  0  0  0  0  0  0999 V2000
   44.2330   35.4280   43.4530 C   0  0  0  0  0  0  0  0  0  0  0  0
   44.0310   34.3380   42.6000 C   0  0  0  0  0  0  0  0  0  0  0  0
   44.6290   33.1390   42.9570 C   0  0  0  0  0  0  0  0  0  0  0  0
   45.3670   33.0820   44.0930 N   0  0  0  0  0  0  0  0  0  0  0  0
   45.5400   34.1510   44.8900 C   0  0  0  0  0  0  0  0  0  0  0  0
   44.9680   35.3070   44.5540 N   0  0  0  0  0  0  0  0  0  0  0  0
   43.2350   34.5390   41.4440 N   0  0  0  0  0  0  0  0  0  0  0  0
   43.4400   35.2980   40.3440 C   0  0  0  0  0  0  0  0  0  0  0  0
   42.4000   35.1680   39.5080 N   0  0  0  0  0  0  0  0  0  0  0  0
   41.5300   34.3140   40.0870 C   0  0  0  0  0  0  0  0  0  0  0  0
   42.0740   33.9530   41.2640 N   0  0  0  0  0  0  0  0  0  0  0  0
   40.2030   33.7940   39.6290 C   0  0  0  0  0  0  0  0  0  0  0  0
   40.2260   33.5600   38.1250 C   0  0  0  0  0  0  0  0  0  0  0  0
   39.1430   34.8290   39.9080 C   0  0  0  0  0  0  0  0  0  0  0  0
   43.7772   36.3990   43.2093 H   0  0  0  0  0  0  0  0  0  0  0  0
   44.5063   32.2458   42.3269 H   0  0  0  0  0  0  0  0  0  0  0  0
   46.1446   34.0727   45.8056 H   0  0  0  0  0  0  0  0  0  0  0  0
   44.3247   35.9261   40.1627 H   0  0  0  0  0  0  0  0  0  0  0  0
   39.9911   32.8541   40.1597 H   0  0  0  0  0  0  0  0  0  0  0  0
   40.3318   32.4839   37.9229 H   0  0  0  0  0  0  0  0  0  0  0  0
   39.2876   33.9256   37.6826 H   0  0  0  0  0  0  0  0  0  0  0  0
   41.0753   34.1014   37.6826 H   0  0  0  0  0  0  0  0  0  0  0  0
   39.0225   34.9466   40.9950 H   0  0  0  0  0  0  0  0  0  0  0  0
   39.4440   35.7904   39.4663 H   0  0  0  0  0  0  0  0  0  0  0  0
   38.1891   34.5052   39.4663 H   0  0  0  0  0  0  0  0  0  0  0  0
  1  6  2  0
  2  3  2  0
  2  1  1  0
  3  4  1  0
  4  5  2  0
  6  5  1  0
  7  2  1  0
  8  7  1  0
  9 10  1  0
  9  8  2  0
 10 11  2  0
 11  7  1  0
 12 14  1  0
 12 10  1  0
 13 12  1  0
  1 15  1  0
  3 16  1  0
  5 17  1  0
  8 18  1  0
 12 19  1  0
 13 20  1  0
 13 21  1  0
 13 22  1  0
 14 23  1  0
 14 24  1  0
 14 25  1  0
M  ISO  8  15  14  16  14  17  14  18  14  19   8  20   8  21   8  22   8
M  ISO  3  23   8  24   8  25   8
M  END
>  <minimizedAffinity>  (1) 
-3.82528973

>  <minimizedRMSD>  (1) 
1.98850822

$$$$
