
     RDKit          3D

 22 24  0  0  1  0  0  0  0  0999 V2000
   47.5640   34.5070   42.1460 C   0  0  1  0  0  0  0  0  0  0  0  0
   48.4960   35.4970   41.6420 C   0  0  0  0  0  0  0  0  0  0  0  0
   49.0140   34.3720   42.5460 C   0  0  2  0  0  0  0  0  0  0  0  0
   45.5130   34.1830   45.1770 C   0  0  0  0  0  0  0  0  0  0  0  0
   44.6100   35.2830   45.0910 C   0  0  0  0  0  0  0  0  0  0  0  0
   44.7360   36.1230   43.9690 C   0  0  0  0  0  0  0  0  0  0  0  0
   45.7050   35.8380   43.0370 N   0  0  0  0  0  0  0  0  0  0  0  0
   46.5330   34.7770   43.1740 C   0  0  0  0  0  0  0  0  0  0  0  0
   46.4530   33.9520   44.2190 N   0  0  0  0  0  0  0  0  0  0  0  0
   49.7780   33.3270   41.8190 C   0  0  0  0  0  0  0  0  0  0  0  0
   51.0820   33.0450   42.0610 N   0  0  0  0  0  0  0  0  0  0  0  0
   51.5190   32.1050   41.3070 O   0  0  0  0  0  0  0  0  0  0  0  0
   50.5240   31.7450   40.5540 C   0  0  0  0  0  0  0  0  0  0  0  0
   49.4190   32.4790   40.8380 N   0  0  0  0  0  0  0  0  0  0  0  0
   46.8202   33.8706   41.6443 H   0  0  0  0  0  0  0  0  0  0  0  0
   48.7601   35.5074   40.5742 H   0  0  0  0  0  0  0  0  0  0  0  0
   48.5466   36.5955   41.6682 H   0  0  0  0  0  0  0  0  0  0  0  0
   49.5663   34.2879   43.4936 H   0  0  0  0  0  0  0  0  0  0  0  0
   45.4488   33.5033   46.0395 H   0  0  0  0  0  0  0  0  0  0  0  0
   43.8505   35.4664   45.8653 H   0  0  0  0  0  0  0  0  0  0  0  0
   44.0720   36.9906   43.8405 H   0  0  0  0  0  0  0  0  0  0  0  0
   50.5708   30.9539   39.7911 H   0  0  0  0  0  0  0  0  0  0  0  0
  1  3  1  0
  1  8  1  0
  2  1  1  0
  2  3  1  0
  5  4  2  0
  6  5  1  0
  7  8  1  0
  7  6  2  0
  8  9  2  0
  9  4  1  0
 10 11  2  0
 10  3  1  0
 12 11  1  0
 13 14  2  0
 13 12  1  0
 14 10  1  0
  1 15  1  6
  2 16  1  0
  2 17  1  0
  3 18  1  1
  4 19  1  0
  5 20  1  0
  6 21  1  0
 13 22  1  0
M  ISO  8  15  13  16  13  17  13  18  13  19  14  20  14  21  14  22  14
M  END
>  <minimizedAffinity>  (1) 
-4.65546513

>  <minimizedRMSD>  (1) 
1.38561654

$$$$
