
     RDKit          3D

 33 36  0  0  0  0  0  0  0  0999 V2000
   47.5745   34.5035   42.1580 C   0  0  1  0  0  0  0  0  0  0  0  0
   48.4734   35.4860   41.6135 C   0  0  0  0  0  0  0  0  0  0  0  0
   49.0155   34.3805   42.5494 C   0  0  2  0  0  0  0  0  0  0  0  0
   45.5085   34.1788   45.1631 C   0  0  0  0  0  0  0  0  0  0  0  0
   44.6087   35.2803   45.0865 C   0  0  0  0  0  0  0  0  0  0  0  0
   44.7413   36.1224   43.9793 C   0  0  0  0  0  0  0  0  0  0  0  0
   45.7150   35.8429   43.0459 N   0  0  0  0  0  0  0  0  0  0  0  0
   46.5367   34.7772   43.1818 C   0  0  0  0  0  0  0  0  0  0  0  0
   46.4481   33.9525   44.2136 N   0  0  0  0  0  0  0  0  0  0  0  0
   49.7929   33.3336   41.8209 C   0  0  0  0  0  0  0  0  0  0  0  0
   51.0832   33.0461   42.0680 N   0  0  0  0  0  0  0  0  0  0  0  0
   51.5152   32.1011   41.3155 O   0  0  0  0  0  0  0  0  0  0  0  0
   50.5182   31.7416   40.5523 C   0  0  0  0  0  0  0  0  0  0  0  0
   49.4149   32.4866   40.8323 N   0  0  0  0  0  0  0  0  0  0  0  0
   47.1965   33.7007   41.4487 H   0  0  0  0  0  0  0  0  0  0  0  0
   48.7519   35.4499   40.5483 H   0  0  0  0  0  0  0  0  0  0  0  0
   48.4661   36.5044   42.0458 H   0  0  0  0  0  0  0  0  0  0  0  0
   49.4318   34.7227   43.4928 H   0  0  0  0  0  0  0  0  0  0  0  0
   45.4071   33.5248   46.0214 H   0  0  0  0  0  0  0  0  0  0  0  0
   43.8698   35.4324   45.8615 H   0  0  0  0  0  0  0  0  0  0  0  0
   44.0882   36.9674   43.8730 H   0  0  0  0  0  0  0  0  0  0  0  0
   50.3671   30.7564   39.5207 N   0  0  0  0  0  0  0  0  0  0  0  0
   49.2224   30.0407   39.5681 C   0  0  0  0  0  0  0  0  0  0  0  0
   49.0007   29.0618   38.5982 C   0  0  0  0  0  0  0  0  0  0  0  0
   49.9936   28.9037   37.6493 C   0  0  0  0  0  0  0  0  0  0  0  0
   49.9501   27.9603   36.5836 N   0  0  0  0  0  0  0  0  0  0  0  0
   51.1421   29.6322   37.6140 N   0  0  0  0  0  0  0  0  0  0  0  0
   51.3340   30.5833   38.5746 C   0  0  0  0  0  0  0  0  0  0  0  0
   52.3295   31.3399   38.6896 O   0  0  0  0  0  0  0  0  0  0  0  0
   48.4741   30.1859   40.3134 H   0  0  0  0  0  0  0  0  0  0  0  0
   48.1403   28.4367   38.5323 H   0  0  0  0  0  0  0  0  0  0  0  0
   49.4100   27.6451   35.7462 H   0  0  0  0  0  0  0  0  0  0  0  0
   49.0855   28.1814   36.0319 H   0  0  0  0  0  0  0  0  0  0  0  0
  1  3  1  0
  1  8  1  0
  2  1  1  0
  2  3  1  0
  5  4  2  0
  6  5  1  0
  7  8  1  0
  7  6  2  0
  8  9  2  0
  9  4  1  0
 10 11  2  0
 10  3  1  0
 12 11  1  0
 13 14  2  0
 13 12  1  0
 14 10  1  0
  1 15  1  6
  2 16  1  0
  2 17  1  0
  3 18  1  1
  4 19  1  0
  5 20  1  0
  6 21  1  0
 22 23  1  0
 23 24  2  0
 24 25  1  0
 25 26  1  0
 25 27  2  0
 27 28  1  0
 28 29  2  0
 28 22  1  0
 23 30  1  0
 24 31  1  0
 26 32  1  0
 26 33  1  0
 13 22  1  0
M  END
>  <DihAtoms>  (1) 
13,12,21,22

>  <DihDeg>  (1) 
-133.20247317551045

$$$$
