
     RDKit          3D

 35 38  0  0  1  0  0  0  0  0999 V2000
   47.6240   34.5790   42.1700 C   0  0  1  0  0  0  0  0  0  0  0  0
   48.5400   35.5800   41.6880 C   0  0  0  0  0  0  0  0  0  0  0  0
   49.0580   34.4220   42.5750 C   0  0  2  0  0  0  0  0  0  0  0  0
   49.8390   33.4090   41.8140 C   0  0  0  0  0  0  0  0  0  0  0  0
   51.0750   32.9960   42.1350 N   0  0  0  0  0  0  0  0  0  0  0  0
   51.5270   32.1160   41.3240 O   0  0  0  0  0  0  0  0  0  0  0  0
   50.6070   31.9210   40.4430 C   0  0  0  0  0  0  0  0  0  0  0  0
   49.5160   32.7080   40.6990 N   0  0  0  0  0  0  0  0  0  0  0  0
   50.7000   31.0130   39.3490 N   0  0  0  0  0  0  0  0  0  0  0  0
   52.0100   30.7460   38.7830 C   0  0  0  0  0  0  0  0  0  0  0  0
   51.9200   31.0380   37.3020 C   0  0  0  0  0  0  0  0  0  0  0  0
   50.6890   30.7410   36.7600 O   0  0  0  0  0  0  0  0  0  0  0  0
   49.9760   29.7670   37.4490 C   0  0  0  0  0  0  0  0  0  0  0  0
   49.5440   30.3460   38.7790 C   0  0  0  0  0  0  0  0  0  0  0  0
   45.5310   34.1490   45.1450 C   0  0  0  0  0  0  0  0  0  0  0  0
   44.6060   35.2220   45.0700 C   0  0  0  0  0  0  0  0  0  0  0  0
   44.7280   36.0840   43.9780 C   0  0  0  0  0  0  0  0  0  0  0  0
   45.7180   35.8460   43.0570 N   0  0  0  0  0  0  0  0  0  0  0  0
   46.5670   34.8060   43.1850 C   0  0  0  0  0  0  0  0  0  0  0  0
   46.4940   33.9610   44.2000 N   0  0  0  0  0  0  0  0  0  0  0  0
   46.8839   33.9540   41.6488 H   0  0  0  0  0  0  0  0  0  0  0  0
   48.8039   35.6155   40.6207 H   0  0  0  0  0  0  0  0  0  0  0  0
   48.5879   36.6779   41.7366 H   0  0  0  0  0  0  0  0  0  0  0  0
   49.5967   34.3010   43.5264 H   0  0  0  0  0  0  0  0  0  0  0  0
   52.7634   31.3965   39.2511 H   0  0  0  0  0  0  0  0  0  0  0  0
   52.3085   29.7021   38.9597 H   0  0  0  0  0  0  0  0  0  0  0  0
   52.1214   32.1079   37.1446 H   0  0  0  0  0  0  0  0  0  0  0  0
   52.6595   30.3975   36.7991 H   0  0  0  0  0  0  0  0  0  0  0  0
   49.0907   29.4722   36.8665 H   0  0  0  0  0  0  0  0  0  0  0  0
   50.6049   28.8787   37.6087 H   0  0  0  0  0  0  0  0  0  0  0  0
   48.7276   31.0678   38.6291 H   0  0  0  0  0  0  0  0  0  0  0  0
   49.1775   29.5552   39.4501 H   0  0  0  0  0  0  0  0  0  0  0  0
   45.4688   33.4485   45.9908 H   0  0  0  0  0  0  0  0  0  0  0  0
   43.8297   35.3681   45.8355 H   0  0  0  0  0  0  0  0  0  0  0  0
   44.0441   36.9372   43.8581 H   0  0  0  0  0  0  0  0  0  0  0  0
  1  3  1  0
  1 19  1  0
  2  1  1  0
  2  3  1  0
  4  5  2  0
  4  3  1  0
  6  5  1  0
  7  8  2  0
  7  6  1  0
  8  4  1  0
  9  7  1  0
 10  9  1  0
 11 10  1  0
 12 11  1  0
 12 13  1  0
 13 14  1  0
 14  9  1  0
 16 15  2  0
 17 16  1  0
 18 19  1  0
 18 17  2  0
 19 20  2  0
 20 15  1  0
  1 21  1  6
  2 22  1  0
  2 23  1  0
  3 24  1  1
 10 25  1  0
 10 26  1  0
 11 27  1  0
 11 28  1  0
 13 29  1  0
 13 30  1  0
 14 31  1  0
 14 32  1  0
 15 33  1  0
 16 34  1  0
 17 35  1  0
M  ISO  8  21  13  22  13  23  13  24  13  25  13  26  13  27  13  28  13
M  ISO  7  29  13  30  13  31  13  32  13  33  14  34  14  35  14
M  END
>  <minimizedAffinity>  (1) 
-5.24404144

>  <minimizedRMSD>  (1) 
0.332570404

$$$$
