
     RDKit          3D

 36 39  0  0  1  0  0  0  0  0999 V2000
   47.6080   34.5810   42.1640 C   0  0  1  0  0  0  0  0  0  0  0  0
   48.5390   35.5750   41.7000 C   0  0  0  0  0  0  0  0  0  0  0  0
   49.0380   34.3980   42.5720 C   0  0  2  0  0  0  0  0  0  0  0  0
   49.8190   33.3920   41.8000 C   0  0  0  0  0  0  0  0  0  0  0  0
   51.0480   32.9630   42.1640 N   0  0  0  0  0  0  0  0  0  0  0  0
   51.5060   32.0970   41.3450 O   0  0  0  0  0  0  0  0  0  0  0  0
   50.5930   31.9310   40.4220 C   0  0  0  0  0  0  0  0  0  0  0  0
   49.5200   32.7300   40.6780 N   0  0  0  0  0  0  0  0  0  0  0  0
   50.7440   31.0410   39.3260 N   0  0  0  0  0  0  0  0  0  0  0  0
   49.7300   30.4000   38.5250 C   0  0  0  0  0  0  0  0  0  0  0  0
   50.4120   29.7130   37.3640 C   0  0  0  0  0  0  0  0  0  0  0  0
   51.3180   30.5740   36.6480 N   0  0  0  0  0  0  0  0  0  0  0  0
   52.1990   31.3360   37.4900 C   0  0  0  0  0  0  0  0  0  0  0  0
   52.1190   30.7350   38.9010 C   0  0  0  0  0  0  0  0  0  0  0  0
   45.5290   34.1430   45.1510 C   0  0  0  0  0  0  0  0  0  0  0  0
   44.6050   35.2340   45.0680 C   0  0  0  0  0  0  0  0  0  0  0  0
   44.7240   36.1050   43.9670 C   0  0  0  0  0  0  0  0  0  0  0  0
   45.7150   35.8430   43.0580 N   0  0  0  0  0  0  0  0  0  0  0  0
   46.5600   34.7970   43.1870 C   0  0  0  0  0  0  0  0  0  0  0  0
   46.4830   33.9510   44.2100 N   0  0  0  0  0  0  0  0  0  0  0  0
   46.8585   33.9816   41.6265 H   0  0  0  0  0  0  0  0  0  0  0  0
   48.8073   35.6219   40.6343 H   0  0  0  0  0  0  0  0  0  0  0  0
   48.6018   36.6713   41.7645 H   0  0  0  0  0  0  0  0  0  0  0  0
   49.5676   34.2522   43.5250 H   0  0  0  0  0  0  0  0  0  0  0  0
   49.1895   29.6584   39.1316 H   0  0  0  0  0  0  0  0  0  0  0  0
   49.0089   31.1445   38.1565 H   0  0  0  0  0  0  0  0  0  0  0  0
   50.9788   28.8531   37.7505 H   0  0  0  0  0  0  0  0  0  0  0  0
   49.6260   29.4062   36.6582 H   0  0  0  0  0  0  0  0  0  0  0  0
   51.8930   29.9900   36.0242 H   0  0  0  0  0  0  0  0  0  0  0  0
   53.2299   31.2715   37.1117 H   0  0  0  0  0  0  0  0  0  0  0  0
   51.9048   32.3959   37.5019 H   0  0  0  0  0  0  0  0  0  0  0  0
   52.2905   29.6487   38.8762 H   0  0  0  0  0  0  0  0  0  0  0  0
   52.8795   31.1414   39.5840 H   0  0  0  0  0  0  0  0  0  0  0  0
   45.4620   33.4452   45.9987 H   0  0  0  0  0  0  0  0  0  0  0  0
   43.8314   35.3862   45.8351 H   0  0  0  0  0  0  0  0  0  0  0  0
   44.0469   36.9629   43.8420 H   0  0  0  0  0  0  0  0  0  0  0  0
  1  3  1  0
  1 19  1  0
  2  1  1  0
  2  3  1  0
  4  5  2  0
  4  3  1  0
  6  5  1  0
  7  8  2  0
  7  6  1  0
  8  4  1  0
  9  7  1  0
 10  9  1  0
 11 10  1  0
 12 11  1  0
 12 13  1  0
 13 14  1  0
 14  9  1  0
 16 15  2  0
 17 16  1  0
 18 19  1  0
 18 17  2  0
 19 20  2  0
 20 15  1  0
  1 21  1  6
  2 22  1  0
  2 23  1  0
  3 24  1  1
 10 25  1  0
 10 26  1  0
 11 27  1  0
 11 28  1  0
 12 29  1  0
 13 30  1  0
 13 31  1  0
 14 32  1  0
 14 33  1  0
 15 34  1  0
 16 35  1  0
 17 36  1  0
M  ISO  8  21  13  22  13  23  13  24  13  25  13  26  13  27  13  28  13
M  ISO  8  29   5  30  13  31  13  32  13  33  13  34  14  35  14  36  14
M  END
>  <minimizedAffinity>  (1) 
-5.31427622

>  <minimizedRMSD>  (1) 
0.36644119

$$$$
