
     RDKit          3D

 27 30  0  0  1  0  0  0  0  0999 V2000
   47.5960   34.5340   42.1690 C   0  0  1  0  0  0  0  0  0  0  0  0
   48.4990   35.5280   41.6510 C   0  0  0  0  0  0  0  0  0  0  0  0
   49.0340   34.4020   42.5650 C   0  0  2  0  0  0  0  0  0  0  0  0
   45.5130   34.1740   45.1620 C   0  0  0  0  0  0  0  0  0  0  0  0
   44.6030   35.2540   45.0810 C   0  0  0  0  0  0  0  0  0  0  0  0
   44.7310   36.1020   43.9770 C   0  0  0  0  0  0  0  0  0  0  0  0
   45.7150   35.8380   43.0550 N   0  0  0  0  0  0  0  0  0  0  0  0
   46.5520   34.7920   43.1880 C   0  0  0  0  0  0  0  0  0  0  0  0
   46.4730   33.9620   44.2120 N   0  0  0  0  0  0  0  0  0  0  0  0
   49.8170   33.3710   41.8280 C   0  0  0  0  0  0  0  0  0  0  0  0
   51.0900   33.0410   42.1050 N   0  0  0  0  0  0  0  0  0  0  0  0
   51.5270   32.1130   41.3230 O   0  0  0  0  0  0  0  0  0  0  0  0
   50.5630   31.8140   40.5220 C   0  0  0  0  0  0  0  0  0  0  0  0
   49.4580   32.5740   40.7910 N   0  0  0  0  0  0  0  0  0  0  0  0
   50.5800   30.8170   39.4550 C   0  0  0  0  0  0  0  0  0  0  0  0
   50.7870   29.4900   39.5570 N   0  0  0  0  0  0  0  0  0  0  0  0
   50.7240   28.9360   38.3750 O   0  0  0  0  0  0  0  0  0  0  0  0
   50.4800   29.8350   37.4640 C   0  0  0  0  0  0  0  0  0  0  0  0
   50.3910   30.9970   38.1360 N   0  0  0  0  0  0  0  0  0  0  0  0
   46.8583   33.8852   41.6741 H   0  0  0  0  0  0  0  0  0  0  0  0
   48.7536   35.5351   40.5809 H   0  0  0  0  0  0  0  0  0  0  0  0
   48.5377   36.6272   41.6678 H   0  0  0  0  0  0  0  0  0  0  0  0
   49.5829   34.3145   43.5143 H   0  0  0  0  0  0  0  0  0  0  0  0
   45.4461   33.4835   46.0157 H   0  0  0  0  0  0  0  0  0  0  0  0
   43.8327   35.4184   45.8488 H   0  0  0  0  0  0  0  0  0  0  0  0
   44.0580   36.9627   43.8491 H   0  0  0  0  0  0  0  0  0  0  0  0
   50.3706   29.6780   36.3808 H   0  0  0  0  0  0  0  0  0  0  0  0
  1  3  1  0
  1  8  1  0
  2  1  1  0
  2  3  1  0
  5  4  2  0
  6  5  1  0
  7  8  1  0
  7  6  2  0
  8  9  2  0
  9  4  1  0
 10 11  2  0
 10  3  1  0
 12 11  1  0
 13 14  2  0
 13 12  1  0
 14 10  1  0
 15 16  2  0
 15 13  1  0
 17 16  1  0
 18 19  2  0
 18 17  1  0
 19 15  1  0
  1 20  1  6
  2 21  1  0
  2 22  1  0
  3 23  1  1
  4 24  1  0
  5 25  1  0
  6 26  1  0
 18 27  1  0
M  ISO  8  20  13  21  13  22  13  23  13  24  14  25  14  26  14  27  14
M  END
>  <minimizedAffinity>  (1) 
-4.79380941

>  <minimizedRMSD>  (1) 
0.119249128

$$$$
