
     RDKit          3D

 34 36  0  0  1  0  0  0  0  0999 V2000
   47.5770   34.5380   42.1780 C   0  0  1  0  0  0  0  0  0  0  0  0
   48.4880   35.5310   41.6680 C   0  0  0  0  0  0  0  0  0  0  0  0
   49.0130   34.3890   42.5680 C   0  0  2  0  0  0  0  0  0  0  0  0
   45.5180   34.1700   45.1810 C   0  0  0  0  0  0  0  0  0  0  0  0
   44.6000   35.2640   45.1060 C   0  0  0  0  0  0  0  0  0  0  0  0
   44.7230   36.1110   44.0000 C   0  0  0  0  0  0  0  0  0  0  0  0
   45.7020   35.8470   43.0650 N   0  0  0  0  0  0  0  0  0  0  0  0
   46.5360   34.7910   43.2030 C   0  0  0  0  0  0  0  0  0  0  0  0
   46.4600   33.9620   44.2320 N   0  0  0  0  0  0  0  0  0  0  0  0
   49.7950   33.3660   41.8250 C   0  0  0  0  0  0  0  0  0  0  0  0
   51.0710   33.0470   42.0940 N   0  0  0  0  0  0  0  0  0  0  0  0
   51.5090   32.1240   41.3150 O   0  0  0  0  0  0  0  0  0  0  0  0
   50.5240   31.8160   40.5130 C   0  0  0  0  0  0  0  0  0  0  0  0
   49.4280   32.5660   40.7920 N   0  0  0  0  0  0  0  0  0  0  0  0
   50.5220   30.7930   39.4170 C   0  0  0  0  0  0  0  0  0  0  0  0
   49.1040   30.4920   38.9960 C   0  0  0  0  0  0  0  0  0  0  0  0
   51.1580   29.4880   39.8560 C   0  0  0  0  0  0  0  0  0  0  0  0
   51.3160   31.3770   38.2480 C   0  0  0  0  0  0  0  0  0  0  0  0
   46.8320   33.9020   41.6775 H   0  0  0  0  0  0  0  0  0  0  0  0
   48.7403   35.5479   40.5975 H   0  0  0  0  0  0  0  0  0  0  0  0
   48.5372   36.6295   41.6968 H   0  0  0  0  0  0  0  0  0  0  0  0
   49.5597   34.2829   43.5166 H   0  0  0  0  0  0  0  0  0  0  0  0
   45.4567   33.4782   46.0340 H   0  0  0  0  0  0  0  0  0  0  0  0
   43.8357   35.4309   45.8793 H   0  0  0  0  0  0  0  0  0  0  0  0
   44.0506   36.9729   43.8779 H   0  0  0  0  0  0  0  0  0  0  0  0
   48.4766   30.3588   39.8897 H   0  0  0  0  0  0  0  0  0  0  0  0
   48.7145   31.3275   38.3958 H   0  0  0  0  0  0  0  0  0  0  0  0
   49.0875   29.5703   38.3958 H   0  0  0  0  0  0  0  0  0  0  0  0
   51.1802   29.4424   40.9548 H   0  0  0  0  0  0  0  0  0  0  0  0
   50.5701   28.6441   39.4658 H   0  0  0  0  0  0  0  0  0  0  0  0
   52.1849   29.4311   39.4658 H   0  0  0  0  0  0  0  0  0  0  0  0
   52.1451   31.9868   38.6362 H   0  0  0  0  0  0  0  0  0  0  0  0
   51.7192   30.5586   37.6334 H   0  0  0  0  0  0  0  0  0  0  0  0
   50.6549   32.0057   37.6334 H   0  0  0  0  0  0  0  0  0  0  0  0
  1  3  1  0
  1  8  1  0
  2  1  1  0
  2  3  1  0
  5  4  2  0
  6  5  1  0
  7  8  1  0
  7  6  2  0
  8  9  2  0
  9  4  1  0
 10 11  2  0
 10  3  1  0
 12 11  1  0
 13 14  2  0
 13 12  1  0
 14 10  1  0
 15 17  1  0
 15 13  1  0
 16 15  1  0
 18 15  1  0
  1 19  1  6
  2 20  1  0
  2 21  1  0
  3 22  1  1
  4 23  1  0
  5 24  1  0
  6 25  1  0
 16 26  1  0
 16 27  1  0
 16 28  1  0
 17 29  1  0
 17 30  1  0
 17 31  1  0
 18 32  1  0
 18 33  1  0
 18 34  1  0
M  ISO  8  19  13  20  13  21  13  22  13  23  14  24  14  25  14  26   8
M  ISO  8  27   8  28   8  29   8  30   8  31   8  32   8  33   8  34   8
M  END
>  <minimizedAffinity>  (1) 
-4.84025335

>  <minimizedRMSD>  (1) 
0.175360575

$$$$
