
     RDKit          3D

 29 32  0  0  1  0  0  0  0  0999 V2000
   47.6030   34.5590   42.1710 C   0  0  1  0  0  0  0  0  0  0  0  0
   48.5180   35.5560   41.6780 C   0  0  0  0  0  0  0  0  0  0  0  0
   49.0380   34.4050   42.5720 C   0  0  2  0  0  0  0  0  0  0  0  0
   45.5260   34.1590   45.1610 C   0  0  0  0  0  0  0  0  0  0  0  0
   44.6060   35.2380   45.0890 C   0  0  0  0  0  0  0  0  0  0  0  0
   44.7250   36.0940   43.9920 C   0  0  0  0  0  0  0  0  0  0  0  0
   45.7110   35.8510   43.0550 N   0  0  0  0  0  0  0  0  0  0  0  0
   46.5530   34.7980   43.1930 C   0  0  0  0  0  0  0  0  0  0  0  0
   46.4830   33.9520   44.2190 N   0  0  0  0  0  0  0  0  0  0  0  0
   49.8120   33.3810   41.8090 C   0  0  0  0  0  0  0  0  0  0  0  0
   51.0750   33.0200   42.1000 N   0  0  0  0  0  0  0  0  0  0  0  0
   51.5120   32.1190   41.3060 O   0  0  0  0  0  0  0  0  0  0  0  0
   50.5580   31.8650   40.4790 C   0  0  0  0  0  0  0  0  0  0  0  0
   49.4590   32.6260   40.7420 N   0  0  0  0  0  0  0  0  0  0  0  0
   50.6320   30.8950   39.4020 C   0  0  0  0  0  0  0  0  0  0  0  0
   50.4250   29.5740   39.4350 C   0  0  0  0  0  0  0  0  0  0  0  0
   50.5310   28.7930   38.3460 C   0  0  0  0  0  0  0  0  0  0  0  0
   50.8950   29.5550   37.1270 C   0  0  0  0  0  0  0  0  0  0  0  0
   51.0340   31.2890   37.7280 S   0  0  0  0  0  0  0  0  0  0  0  0
   46.8609   33.9305   41.6569 H   0  0  0  0  0  0  0  0  0  0  0  0
   48.7784   35.5830   40.6096 H   0  0  0  0  0  0  0  0  0  0  0  0
   48.5667   36.6542   41.7178 H   0  0  0  0  0  0  0  0  0  0  0  0
   49.5812   34.2923   43.5219 H   0  0  0  0  0  0  0  0  0  0  0  0
   45.4616   33.4644   46.0115 H   0  0  0  0  0  0  0  0  0  0  0  0
   43.8367   35.3923   45.8600 H   0  0  0  0  0  0  0  0  0  0  0  0
   44.0435   36.9495   43.8755 H   0  0  0  0  0  0  0  0  0  0  0  0
   50.1566   29.1068   40.3940 H   0  0  0  0  0  0  0  0  0  0  0  0
   50.3655   27.7056   38.3578 H   0  0  0  0  0  0  0  0  0  0  0  0
   51.0460   29.1743   36.1061 H   0  0  0  0  0  0  0  0  0  0  0  0
  1  3  1  0
  1  8  1  0
  2  1  1  0
  2  3  1  0
  5  4  2  0
  6  5  1  0
  7  8  1  0
  7  6  2  0
  8  9  2  0
  9  4  1  0
 10 11  2  0
 10  3  1  0
 12 11  1  0
 13 14  2  0
 13 12  1  0
 14 10  1  0
 15 16  2  0
 15 13  1  0
 17 16  1  0
 18 19  1  0
 18 17  2  0
 19 15  1  0
  1 20  1  6
  2 21  1  0
  2 22  1  0
  3 23  1  1
  4 24  1  0
  5 25  1  0
  6 26  1  0
 16 27  1  0
 17 28  1  0
 18 29  1  0
M  ISO  8  20  13  21  13  22  13  23  13  24  14  25  14  26  14  27  14
M  ISO  2  28  14  29  14
M  END
>  <minimizedAffinity>  (1) 
-4.85071564

>  <minimizedRMSD>  (1) 
0.240248203

$$$$
