
     RDKit          3D

 24 26  0  0  1  0  0  0  0  0999 V2000
   47.5880   34.5240   42.1690 C   0  0  1  0  0  0  0  0  0  0  0  0
   48.4960   35.5100   41.6420 C   0  0  0  0  0  0  0  0  0  0  0  0
   49.0270   34.3890   42.5670 C   0  0  2  0  0  0  0  0  0  0  0  0
   45.5130   34.1840   45.1680 C   0  0  0  0  0  0  0  0  0  0  0  0
   44.6020   35.2660   45.0900 C   0  0  0  0  0  0  0  0  0  0  0  0
   44.7340   36.1060   43.9790 C   0  0  0  0  0  0  0  0  0  0  0  0
   45.7140   35.8430   43.0440 N   0  0  0  0  0  0  0  0  0  0  0  0
   46.5450   34.7880   43.1900 C   0  0  0  0  0  0  0  0  0  0  0  0
   46.4600   33.9670   44.2240 N   0  0  0  0  0  0  0  0  0  0  0  0
   49.8030   33.3520   41.8320 C   0  0  0  0  0  0  0  0  0  0  0  0
   51.0890   33.0470   42.0800 N   0  0  0  0  0  0  0  0  0  0  0  0
   51.5180   32.1110   41.3110 O   0  0  0  0  0  0  0  0  0  0  0  0
   50.5260   31.7740   40.5380 C   0  0  0  0  0  0  0  0  0  0  0  0
   49.4360   32.5220   40.8270 N   0  0  0  0  0  0  0  0  0  0  0  0
   50.5910   30.7390   39.5110 C   0  0  0  0  0  0  0  0  0  0  0  0
   50.7460   31.1180   38.3010 O   0  0  0  0  0  0  0  0  0  0  0  0
   46.8460   33.8778   41.6772 H   0  0  0  0  0  0  0  0  0  0  0  0
   48.7507   35.5064   40.5719 H   0  0  0  0  0  0  0  0  0  0  0  0
   48.5393   36.6091   41.6491 H   0  0  0  0  0  0  0  0  0  0  0  0
   49.5747   34.3062   43.5173 H   0  0  0  0  0  0  0  0  0  0  0  0
   45.4492   33.4966   46.0244 H   0  0  0  0  0  0  0  0  0  0  0  0
   43.8344   35.4361   45.8593 H   0  0  0  0  0  0  0  0  0  0  0  0
   44.0627   36.9681   43.8521 H   0  0  0  0  0  0  0  0  0  0  0  0
   50.5096   29.6728   39.7692 H   0  0  0  0  0  0  0  0  0  0  0  0
  1  3  1  0
  1  8  1  0
  2  1  1  0
  2  3  1  0
  5  4  2  0
  6  5  1  0
  7  8  1  0
  7  6  2  0
  8  9  2  0
  9  4  1  0
 10 11  2  0
 10  3  1  0
 12 11  1  0
 13 14  2  0
 13 12  1  0
 14 10  1  0
 15 13  1  0
 16 15  2  0
  1 17  1  6
  2 18  1  0
  2 19  1  0
  3 20  1  1
  4 21  1  0
  5 22  1  0
  6 23  1  0
 15 24  1  0
M  ISO  8  17  13  18  13  19  13  20  13  21  14  22  14  23  14  24   6
M  END
>  <minimizedAffinity>  (1) 
-4.64274311

>  <minimizedRMSD>  (1) 
0.0364057794

$$$$
