
     RDKit          3D

 44 48  0  0  1  0  0  0  0  0999 V2000
   49.1270   33.1670   40.9580 C   0  0  0  0  0  0  0  0  0  0  0  0
   50.1960   32.3700   41.0000 N   0  0  0  0  0  0  0  0  0  0  0  0
   50.3390   31.7130   39.9000 O   0  0  0  0  0  0  0  0  0  0  0  0
   49.3650   32.0660   39.1130 C   0  0  0  0  0  0  0  0  0  0  0  0
   48.5690   32.9800   39.7250 N   0  0  0  0  0  0  0  0  0  0  0  0
   47.3750   34.7450   41.8810 C   0  0  1  0  0  0  0  0  0  0  0  0
   48.5460   35.5400   41.6560 C   0  0  0  0  0  0  0  0  0  0  0  0
   48.6710   34.0500   42.0720 C   0  0  2  0  0  0  0  0  0  0  0  0
   45.5750   34.1710   45.0090 C   0  0  0  0  0  0  0  0  0  0  0  0
   44.6710   35.2460   45.0990 C   0  0  0  0  0  0  0  0  0  0  0  0
   44.6970   36.1750   44.0530 C   0  0  0  0  0  0  0  0  0  0  0  0
   45.5900   35.9750   43.0260 N   0  0  0  0  0  0  0  0  0  0  0  0
   46.4210   34.9250   43.0110 C   0  0  0  0  0  0  0  0  0  0  0  0
   46.4350   34.0280   43.9680 N   0  0  0  0  0  0  0  0  0  0  0  0
   49.1420   31.5670   37.7670 C   0  0  0  0  0  0  0  0  0  0  0  0
   50.1080   31.1150   36.8940 C   0  0  0  0  0  0  0  0  0  0  0  0
   49.4750   30.7260   35.7320 C   0  0  0  0  0  0  0  0  0  0  0  0
   48.1690   30.9390   35.8960 N   0  0  0  0  0  0  0  0  0  0  0  0
   47.9610   31.4480   37.1230 N   0  0  0  0  0  0  0  0  0  0  0  0
   48.0760   31.3790   32.3730 N   0  0  0  0  0  0  0  0  0  0  0  0
   47.2440   30.2070   32.5240 C   0  0  0  0  0  0  0  0  0  0  0  0
   47.3720   29.6440   33.9450 C   0  0  0  0  0  0  0  0  0  0  0  0
   47.0730   30.6970   34.9710 C   0  0  0  0  0  0  0  0  0  0  0  0
   46.6210   31.9620   34.2650 C   0  0  0  0  0  0  0  0  0  0  0  0
   47.6320   32.4420   33.2490 C   0  0  0  0  0  0  0  0  0  0  0  0
   46.4833   34.5694   41.2612 H   0  0  0  0  0  0  0  0  0  0  0  0
   48.8132   35.8521   40.6356 H   0  0  0  0  0  0  0  0  0  0  0  0
   48.9289   36.4947   42.0458 H   0  0  0  0  0  0  0  0  0  0  0  0
   49.1291   33.4591   42.8788 H   0  0  0  0  0  0  0  0  0  0  0  0
   45.5852   33.4189   45.8116 H   0  0  0  0  0  0  0  0  0  0  0  0
   43.9795   35.3505   45.9481 H   0  0  0  0  0  0  0  0  0  0  0  0
   44.0209   37.0427   44.0520 H   0  0  0  0  0  0  0  0  0  0  0  0
   51.1897   31.0722   37.0890 H   0  0  0  0  0  0  0  0  0  0  0  0
   49.9592   30.3150   34.8339 H   0  0  0  0  0  0  0  0  0  0  0  0
   49.0491   31.1343   32.6055 H   0  0  0  0  0  0  0  0  0  0  0  0
   46.1952   30.4794   32.3345 H   0  0  0  0  0  0  0  0  0  0  0  0
   47.5698   29.4413   31.8046 H   0  0  0  0  0  0  0  0  0  0  0  0
   46.6632   28.8117   34.0671 H   0  0  0  0  0  0  0  0  0  0  0  0
   48.4051   29.2960   34.0917 H   0  0  0  0  0  0  0  0  0  0  0  0
   46.2578   30.3260   35.6096 H   0  0  0  0  0  0  0  0  0  0  0  0
   45.6702   31.7597   33.7502 H   0  0  0  0  0  0  0  0  0  0  0  0
   46.5059   32.7494   35.0244 H   0  0  0  0  0  0  0  0  0  0  0  0
   48.5040   32.8487   33.7822 H   0  0  0  0  0  0  0  0  0  0  0  0
   47.1474   33.2099   32.6282 H   0  0  0  0  0  0  0  0  0  0  0  0
  1  2  2  0
  1  8  1  0
  3  2  1  0
  4  5  2  0
  4  3  1  0
  5  1  1  0
  6  8  1  0
  6 13  1  0
  7  6  1  0
  7  8  1  0
  9 10  2  0
 11 10  1  0
 12 11  2  0
 13 12  1  0
 13 14  2  0
 14  9  1  0
 15  4  1  0
 16 15  1  0
 17 18  1  0
 17 16  2  0
 18 19  1  0
 19 15  2  0
 20 21  1  0
 20 25  1  0
 21 22  1  0
 22 23  1  0
 23 18  1  0
 24 23  1  0
 25 24  1  0
  6 26  1  6
  7 27  1  0
  7 28  1  0
  8 29  1  1
  9 30  1  0
 10 31  1  0
 11 32  1  0
 16 33  1  0
 17 34  1  0
 20 35  1  0
 21 36  1  0
 21 37  1  0
 22 38  1  0
 22 39  1  0
 23 40  1  0
 24 41  1  0
 24 42  1  0
 25 43  1  0
 25 44  1  0
M  ISO  8  26  13  27  13  28  13  29  13  30  14  31  14  32  14  33  14
M  ISO  8  34  14  35   5  36  13  37  13  38  13  39  13  40  13  41  13
M  ISO  3  42  13  43  13  44  13
M  END
>  <minimizedAffinity>  (1) 
-5.67542267

>  <minimizedRMSD>  (1) 
3.5331645

$$$$
