
     RDKit          3D

 41 45  0  0  1  0  0  0  0  0999 V2000
   49.7860   33.3390   41.7570 C   0  0  0  0  0  0  0  0  0  0  0  0
   51.0320   32.9390   42.0190 N   0  0  0  0  0  0  0  0  0  0  0  0
   51.4310   32.0520   41.1710 O   0  0  0  0  0  0  0  0  0  0  0  0
   50.4590   31.8470   40.3340 C   0  0  0  0  0  0  0  0  0  0  0  0
   49.4020   32.6350   40.6610 N   0  0  0  0  0  0  0  0  0  0  0  0
   47.6130   34.5730   42.1670 C   0  0  1  0  0  0  0  0  0  0  0  0
   48.5470   35.5550   41.7050 C   0  0  0  0  0  0  0  0  0  0  0  0
   49.0260   34.3440   42.5550 C   0  0  2  0  0  0  0  0  0  0  0  0
   45.5350   34.1540   45.1430 C   0  0  0  0  0  0  0  0  0  0  0  0
   44.6160   35.2190   45.0810 C   0  0  0  0  0  0  0  0  0  0  0  0
   44.7340   36.0810   43.9920 C   0  0  0  0  0  0  0  0  0  0  0  0
   45.7180   35.8470   43.0610 N   0  0  0  0  0  0  0  0  0  0  0  0
   46.5600   34.8000   43.1930 C   0  0  0  0  0  0  0  0  0  0  0  0
   46.4960   33.9570   44.1970 N   0  0  0  0  0  0  0  0  0  0  0  0
   50.4710   30.9250   39.2100 C   0  0  0  0  0  0  0  0  0  0  0  0
   50.7480   29.5850   39.2530 C   0  0  0  0  0  0  0  0  0  0  0  0
   50.6470   29.0880   37.9660 C   0  0  0  0  0  0  0  0  0  0  0  0
   50.3180   30.1020   37.1740 N   0  0  0  0  0  0  0  0  0  0  0  0
   50.2070   31.2210   37.9130 N   0  0  0  0  0  0  0  0  0  0  0  0
   49.0970   31.0590   35.3500 N   0  0  0  0  0  0  0  0  0  0  0  0
   49.5090   31.6810   34.1280 C   0  0  0  0  0  0  0  0  0  0  0  0
   50.7910   31.0100   33.6820 C   0  0  0  0  0  0  0  0  0  0  0  0
   51.3520   30.5200   34.9860 C   0  0  0  0  0  0  0  0  0  0  0  0
   50.0950   30.0850   35.7290 C   0  0  1  0  0  0  0  0  0  0  0  0
   46.8488   33.9904   41.6316 H   0  0  0  0  0  0  0  0  0  0  0  0
   48.8019   35.6144   40.6366 H   0  0  0  0  0  0  0  0  0  0  0  0
   48.6343   36.6487   41.7841 H   0  0  0  0  0  0  0  0  0  0  0  0
   49.5554   34.1613   43.5017 H   0  0  0  0  0  0  0  0  0  0  0  0
   45.4749   33.4531   45.9887 H   0  0  0  0  0  0  0  0  0  0  0  0
   43.8449   35.3633   45.8521 H   0  0  0  0  0  0  0  0  0  0  0  0
   44.0503   36.9353   43.8793 H   0  0  0  0  0  0  0  0  0  0  0  0
   51.0054   29.0059   40.1521 H   0  0  0  0  0  0  0  0  0  0  0  0
   50.8093   28.0452   37.6558 H   0  0  0  0  0  0  0  0  0  0  0  0
   48.1897   30.5912   35.2129 H   0  0  0  0  0  0  0  0  0  0  0  0
   48.7315   31.5518   33.3607 H   0  0  0  0  0  0  0  0  0  0  0  0
   49.6692   32.7589   34.2782 H   0  0  0  0  0  0  0  0  0  0  0  0
   50.5880   30.1755   32.9947 H   0  0  0  0  0  0  0  0  0  0  0  0
   51.4704   31.6730   33.1262 H   0  0  0  0  0  0  0  0  0  0  0  0
   52.0385   29.6743   34.8330 H   0  0  0  0  0  0  0  0  0  0  0  0
   51.9464   31.2733   35.5238 H   0  0  0  0  0  0  0  0  0  0  0  0
   49.7916   29.0581   35.4770 H   0  0  0  0  0  0  0  0  0  0  0  0
  1  2  2  0
  1  8  1  0
  3  2  1  0
  4  5  2  0
  4  3  1  0
  5  1  1  0
  6  8  1  0
  6 13  1  0
  7  6  1  0
  7  8  1  0
 10  9  2  0
 11 10  1  0
 12 13  1  0
 12 11  2  0
 13 14  2  0
 14  9  1  0
 15 16  1  0
 15  4  1  0
 17 16  2  0
 18 19  1  0
 18 17  1  0
 19 15  2  0
 20 24  1  0
 21 20  1  0
 22 21  1  0
 22 23  1  0
 24 23  1  0
 24 18  1  0
  6 25  1  6
  7 26  1  0
  7 27  1  0
  8 28  1  1
  9 29  1  0
 10 30  1  0
 11 31  1  0
 16 32  1  0
 17 33  1  0
 20 34  1  0
 21 35  1  0
 21 36  1  0
 22 37  1  0
 22 38  1  0
 23 39  1  0
 23 40  1  0
 24 41  1  6
M  ISO  8  25  13  26  13  27  13  28  13  29  14  30  14  31  14  32  14
M  ISO  8  33  14  34   5  35  13  36  13  37  13  38  13  39  13  40  13
M  ISO  1  41  13
M  END
>  <minimizedAffinity>  (1) 
-5.28524494

>  <minimizedRMSD>  (1) 
3.05006576

$$$$
