
     RDKit          3D

 43 48  0  0  1  0  0  0  0  0999 V2000
   49.7200   33.2980   41.7380 C   0  0  0  0  0  0  0  0  0  0  0  0
   50.8470   32.6740   42.0860 N   0  0  0  0  0  0  0  0  0  0  0  0
   51.2460   31.8600   41.1640 O   0  0  0  0  0  0  0  0  0  0  0  0
   50.4060   31.9250   40.2020 C   0  0  0  0  0  0  0  0  0  0  0  0
   49.4180   32.8190   40.5060 N   0  0  0  0  0  0  0  0  0  0  0  0
   47.5910   34.5930   42.1960 C   0  0  1  0  0  0  0  0  0  0  0  0
   48.5670   35.5590   41.7930 C   0  0  0  0  0  0  0  0  0  0  0  0
   48.9910   34.2860   42.5780 C   0  0  2  0  0  0  0  0  0  0  0  0
   45.5280   34.1440   45.1760 C   0  0  0  0  0  0  0  0  0  0  0  0
   44.6010   35.2110   45.1200 C   0  0  0  0  0  0  0  0  0  0  0  0
   44.7090   36.0740   44.0400 C   0  0  0  0  0  0  0  0  0  0  0  0
   45.6900   35.8430   43.1120 N   0  0  0  0  0  0  0  0  0  0  0  0
   46.5400   34.8070   43.2260 C   0  0  0  0  0  0  0  0  0  0  0  0
   46.4870   33.9560   44.2250 N   0  0  0  0  0  0  0  0  0  0  0  0
   50.4460   31.1790   38.9410 C   0  0  0  0  0  0  0  0  0  0  0  0
   50.2130   29.8390   38.7830 C   0  0  0  0  0  0  0  0  0  0  0  0
   50.3540   29.5450   37.4310 C   0  0  0  0  0  0  0  0  0  0  0  0
   50.6620   30.6790   36.8110 N   0  0  0  0  0  0  0  0  0  0  0  0
   50.7200   31.6670   37.7070 N   0  0  0  0  0  0  0  0  0  0  0  0
   50.8790   30.7360   35.3960 C   0  0  0  0  0  0  0  0  0  0  0  0
   51.8810   30.1750   34.6150 C   0  0  0  0  0  0  0  0  0  0  0  0
   51.6950   30.4830   33.3260 N   0  0  0  0  0  0  0  0  0  0  0  0
   50.5890   31.2420   33.2050 C   0  0  0  0  0  0  0  0  0  0  0  0
   49.9910   31.8050   32.0780 C   0  0  0  0  0  0  0  0  0  0  0  0
   48.8290   32.5550   32.2820 C   0  0  0  0  0  0  0  0  0  0  0  0
   48.2810   32.7450   33.5290 C   0  0  0  0  0  0  0  0  0  0  0  0
   48.9310   32.1550   34.6100 C   0  0  0  0  0  0  0  0  0  0  0  0
   50.0620   31.4130   34.4830 C   0  0  0  0  0  0  0  0  0  0  0  0
   46.8078   34.0715   41.6262 H   0  0  0  0  0  0  0  0  0  0  0  0
   48.8316   35.6657   40.7307 H   0  0  0  0  0  0  0  0  0  0  0  0
   48.6978   36.6423   41.9320 H   0  0  0  0  0  0  0  0  0  0  0  0
   49.5048   34.0302   43.5164 H   0  0  0  0  0  0  0  0  0  0  0  0
   45.4732   33.4391   46.0187 H   0  0  0  0  0  0  0  0  0  0  0  0
   43.8325   35.3493   45.8948 H   0  0  0  0  0  0  0  0  0  0  0  0
   44.0217   36.9259   43.9307 H   0  0  0  0  0  0  0  0  0  0  0  0
   49.9602   29.1248   39.5805 H   0  0  0  0  0  0  0  0  0  0  0  0
   50.2330   28.5573   36.9622 H   0  0  0  0  0  0  0  0  0  0  0  0
   52.7102   29.5640   35.0012 H   0  0  0  0  0  0  0  0  0  0  0  0
   52.3022   30.1863   32.5487 H   0  0  0  0  0  0  0  0  0  0  0  0
   50.4150   31.6651   31.0727 H   0  0  0  0  0  0  0  0  0  0  0  0
   48.3340   33.0106   31.4117 H   0  0  0  0  0  0  0  0  0  0  0  0
   47.3657   33.3393   33.6670 H   0  0  0  0  0  0  0  0  0  0  0  0
   48.5082   32.2966   35.6156 H   0  0  0  0  0  0  0  0  0  0  0  0
  1  2  2  0
  1  8  1  0
  3  2  1  0
  4  5  2  0
  4  3  1  0
  5  1  1  0
  6  8  1  0
  6 13  1  0
  7  6  1  0
  7  8  1  0
 10  9  2  0
 11 10  1  0
 12 13  1  0
 12 11  2  0
 13 14  2  0
 14  9  1  0
 15  4  1  0
 16 15  1  0
 17 16  2  0
 18 17  1  0
 18 19  1  0
 19 15  2  0
 20 18  1  0
 21 20  2  0
 22 21  1  0
 23 22  1  0
 23 28  2  0
 24 25  2  0
 24 23  1  0
 25 26  1  0
 26 27  2  0
 28 27  1  0
 28 20  1  0
  6 29  1  6
  7 30  1  0
  7 31  1  0
  8 32  1  1
  9 33  1  0
 10 34  1  0
 11 35  1  0
 16 36  1  0
 17 37  1  0
 21 38  1  0
 22 39  1  0
 24 40  1  0
 25 41  1  0
 26 42  1  0
 27 43  1  0
M  ISO  8  29  13  30  13  31  13  32  13  33  14  34  14  35  14  36  14
M  ISO  7  37  14  38  14  39   9  40  14  41  14  42  14  43  14
M  END
>  <minimizedAffinity>  (1) 
-6.27398443

>  <minimizedRMSD>  (1) 
4.68595886

$$$$
