
     RDKit          3D

 45 49  0  0  1  0  0  0  0  0999 V2000
   49.8930   33.3820   41.9390 C   0  0  0  0  0  0  0  0  0  0  0  0
   50.9640   32.7960   42.4780 N   0  0  0  0  0  0  0  0  0  0  0  0
   51.4920   31.9280   41.6820 O   0  0  0  0  0  0  0  0  0  0  0  0
   50.7920   31.9180   40.6140 C   0  0  0  0  0  0  0  0  0  0  0  0
   49.7660   32.8170   40.7160 N   0  0  0  0  0  0  0  0  0  0  0  0
   47.6280   34.4830   42.1930 C   0  0  1  0  0  0  0  0  0  0  0  0
   48.4900   35.4700   41.6130 C   0  0  0  0  0  0  0  0  0  0  0  0
   49.0510   34.4150   42.6040 C   0  0  2  0  0  0  0  0  0  0  0  0
   45.4860   34.1880   45.1360 C   0  0  0  0  0  0  0  0  0  0  0  0
   44.5820   35.2880   45.0120 C   0  0  0  0  0  0  0  0  0  0  0  0
   44.7400   36.1040   43.9030 C   0  0  0  0  0  0  0  0  0  0  0  0
   45.7340   35.8050   43.0180 N   0  0  0  0  0  0  0  0  0  0  0  0
   46.5540   34.7610   43.1850 C   0  0  0  0  0  0  0  0  0  0  0  0
   46.4570   33.9490   44.2120 N   0  0  0  0  0  0  0  0  0  0  0  0
   51.0070   31.0890   39.4240 C   0  0  0  0  0  0  0  0  0  0  0  0
   50.0430   30.6340   38.5630 C   0  0  0  0  0  0  0  0  0  0  0  0
   50.6550   29.8850   37.5760 C   0  0  0  0  0  0  0  0  0  0  0  0
   51.9590   29.9020   37.8530 N   0  0  0  0  0  0  0  0  0  0  0  0
   52.1820   30.6130   38.9480 N   0  0  0  0  0  0  0  0  0  0  0  0
   53.0880   29.2820   37.1590 C   0  0  0  0  0  0  0  0  0  0  0  0
   53.0680   29.6700   35.7170 C   0  0  0  0  0  0  0  0  0  0  0  0
   54.3870   29.5250   35.0310 C   0  0  0  0  0  0  0  0  0  0  0  0
   55.5470   30.0860   35.7960 C   0  0  0  0  0  0  0  0  0  0  0  0
   55.1570   30.6610   37.1230 C   0  0  0  0  0  0  0  0  0  0  0  0
   54.3710   29.5910   37.8750 C   0  0  0  0  0  0  0  0  0  0  0  0
   46.9163   33.7797   41.7361 H   0  0  0  0  0  0  0  0  0  0  0  0
   48.7496   35.4169   40.5454 H   0  0  0  0  0  0  0  0  0  0  0  0
   48.4932   36.5686   41.5567 H   0  0  0  0  0  0  0  0  0  0  0  0
   49.5846   34.3925   43.5657 H   0  0  0  0  0  0  0  0  0  0  0  0
   45.3948   33.5158   46.0020 H   0  0  0  0  0  0  0  0  0  0  0  0
   43.7987   35.4778   45.7606 H   0  0  0  0  0  0  0  0  0  0  0  0
   44.0813   36.9699   43.7407 H   0  0  0  0  0  0  0  0  0  0  0  0
   48.9639   30.8316   38.6438 H   0  0  0  0  0  0  0  0  0  0  0  0
   50.1651   29.3772   36.7321 H   0  0  0  0  0  0  0  0  0  0  0  0
   53.0023   28.1855   37.1767 H   0  0  0  0  0  0  0  0  0  0  0  0
   52.3361   29.0339   35.1977 H   0  0  0  0  0  0  0  0  0  0  0  0
   52.8043   30.7372   35.6780 H   0  0  0  0  0  0  0  0  0  0  0  0
   54.5715   28.4537   34.8628 H   0  0  0  0  0  0  0  0  0  0  0  0
   54.3197   30.1003   34.0958 H   0  0  0  0  0  0  0  0  0  0  0  0
   56.2766   29.2803   35.9651 H   0  0  0  0  0  0  0  0  0  0  0  0
   55.9681   30.9060   35.1958 H   0  0  0  0  0  0  0  0  0  0  0  0
   56.0573   30.9351   37.6925 H   0  0  0  0  0  0  0  0  0  0  0  0
   54.5466   31.5661   36.9881 H   0  0  0  0  0  0  0  0  0  0  0  0
   54.1422   29.9543   38.8877 H   0  0  0  0  0  0  0  0  0  0  0  0
   54.9781   28.6753   37.9294 H   0  0  0  0  0  0  0  0  0  0  0  0
  1  2  2  0
  1  8  1  0
  3  2  1  0
  4  5  2  0
  4  3  1  0
  5  1  1  0
  6  8  1  0
  6 13  1  0
  7  6  1  0
  7  8  1  0
 10  9  2  0
 11 10  1  0
 12 13  1  0
 12 11  2  0
 13 14  2  0
 14  9  1  0
 15  4  1  0
 16 15  1  0
 17 18  1  0
 17 16  2  0
 18 19  1  0
 19 15  2  0
 20 18  1  0
 20 25  1  0
 21 20  1  0
 22 21  1  0
 22 23  1  0
 23 24  1  0
 24 25  1  0
  6 26  1  6
  7 27  1  0
  7 28  1  0
  8 29  1  1
  9 30  1  0
 10 31  1  0
 11 32  1  0
 16 33  1  0
 17 34  1  0
 20 35  1  0
 21 36  1  0
 21 37  1  0
 22 38  1  0
 22 39  1  0
 23 40  1  0
 23 41  1  0
 24 42  1  0
 24 43  1  0
 25 44  1  0
 25 45  1  0
M  ISO  8  26  13  27  13  28  13  29  13  30  14  31  14  32  14  33  14
M  ISO  8  34  14  35  13  36  13  37  13  38  13  39  13  40  13  41  13
M  ISO  4  42  13  43  13  44  13  45  13
M  END
>  <minimizedAffinity>  (1) 
-5.32530642

>  <minimizedRMSD>  (1) 
2.79693031

$$$$
