
     RDKit          3D

 36 40  0  0  1  0  0  0  0  0999 V2000
   49.8220   33.3710   41.8400 C   0  0  0  0  0  0  0  0  0  0  0  0
   51.0890   33.0470   42.1070 N   0  0  0  0  0  0  0  0  0  0  0  0
   51.5170   32.1200   41.3160 O   0  0  0  0  0  0  0  0  0  0  0  0
   50.5450   31.8140   40.5110 C   0  0  0  0  0  0  0  0  0  0  0  0
   49.4560   32.5750   40.8020 N   0  0  0  0  0  0  0  0  0  0  0  0
   50.5800   30.8130   39.4490 C   0  0  0  0  0  0  0  0  0  0  0  0
   50.8760   31.0400   38.1320 C   0  0  0  0  0  0  0  0  0  0  0  0
   50.7950   29.8160   37.4710 C   0  0  0  0  0  0  0  0  0  0  0  0
   50.4620   28.8990   38.3740 N   0  0  0  0  0  0  0  0  0  0  0  0
   50.3270   29.4880   39.5790 N   0  0  0  0  0  0  0  0  0  0  0  0
   49.6150   25.4060   38.4130 N   0  0  0  0  0  0  0  0  0  0  0  0
   49.4800   26.6380   38.9230 N   0  0  0  0  0  0  0  0  0  0  0  0
   50.2490   27.4970   38.2370 C   0  0  0  0  0  0  0  0  0  0  0  0
   50.8860   26.7450   37.2580 C   0  0  0  0  0  0  0  0  0  0  0  0
   50.4900   25.4310   37.3660 C   0  0  0  0  0  0  0  0  0  0  0  0
   47.6020   34.5380   42.1880 C   0  0  1  0  0  0  0  0  0  0  0  0
   48.4900   35.5260   41.6540 C   0  0  0  0  0  0  0  0  0  0  0  0
   49.0260   34.3930   42.5750 C   0  0  2  0  0  0  0  0  0  0  0  0
   45.5080   34.1780   45.1620 C   0  0  0  0  0  0  0  0  0  0  0  0
   44.6010   35.2540   45.0790 C   0  0  0  0  0  0  0  0  0  0  0  0
   44.7300   36.0970   43.9860 C   0  0  0  0  0  0  0  0  0  0  0  0
   45.7160   35.8350   43.0670 N   0  0  0  0  0  0  0  0  0  0  0  0
   46.5480   34.7880   43.2080 C   0  0  0  0  0  0  0  0  0  0  0  0
   46.4730   33.9570   44.2230 N   0  0  0  0  0  0  0  0  0  0  0  0
   51.1307   32.0095   37.6791 H   0  0  0  0  0  0  0  0  0  0  0  0
   50.9736   29.6409   36.3998 H   0  0  0  0  0  0  0  0  0  0  0  0
   49.1306   24.5657   38.7596 H   0  0  0  0  0  0  0  0  0  0  0  0
   51.5948   27.1375   36.5140 H   0  0  0  0  0  0  0  0  0  0  0  0
   50.8101   24.5833   36.7424 H   0  0  0  0  0  0  0  0  0  0  0  0
   46.8591   33.8904   41.6995 H   0  0  0  0  0  0  0  0  0  0  0  0
   48.7337   35.5268   40.5813 H   0  0  0  0  0  0  0  0  0  0  0  0
   48.5319   36.6252   41.6618 H   0  0  0  0  0  0  0  0  0  0  0  0
   49.5701   34.2941   43.5259 H   0  0  0  0  0  0  0  0  0  0  0  0
   45.4349   33.4898   46.0170 H   0  0  0  0  0  0  0  0  0  0  0  0
   43.8281   35.4169   45.8446 H   0  0  0  0  0  0  0  0  0  0  0  0
   44.0568   36.9574   43.8577 H   0  0  0  0  0  0  0  0  0  0  0  0
  1  2  2  0
  1 18  1  0
  3  2  1  0
  4  5  2  0
  4  3  1  0
  5  1  1  0
  6 10  2  0
  6  4  1  0
  7  6  1  0
  8  7  2  0
  8  9  1  0
  9 10  1  0
 11 12  1  0
 13  9  1  0
 13 12  2  0
 14 15  2  0
 14 13  1  0
 15 11  1  0
 16 18  1  0
 16 23  1  0
 17 16  1  0
 17 18  1  0
 20 19  2  0
 21 20  1  0
 22 23  1  0
 22 21  2  0
 23 24  2  0
 24 19  1  0
  7 25  1  0
  8 26  1  0
 11 27  1  0
 14 28  1  0
 15 29  1  0
 16 30  1  6
 17 31  1  0
 17 32  1  0
 18 33  1  1
 19 34  1  0
 20 35  1  0
 21 36  1  0
M  ISO  8  25  14  26  14  27   9  28  14  29  14  30  13  31  13  32  13
M  ISO  4  33  13  34  14  35  14  36  14
M  END
>  <minimizedAffinity>  (1) 
-4.82444048

>  <minimizedRMSD>  (1) 
0.0142147979

$$$$
