
     RDKit          3D

 32 35  0  0  1  0  0  0  0  0999 V2000
   47.6060   34.5460   42.1910 C   0  0  1  0  0  0  0  0  0  0  0  0
   48.4880   35.5390   41.6590 C   0  0  0  0  0  0  0  0  0  0  0  0
   49.0310   34.4130   42.5800 C   0  0  2  0  0  0  0  0  0  0  0  0
   45.5160   34.1620   45.1660 C   0  0  0  0  0  0  0  0  0  0  0  0
   44.5970   35.2510   45.0840 C   0  0  0  0  0  0  0  0  0  0  0  0
   44.7300   36.0910   43.9900 C   0  0  0  0  0  0  0  0  0  0  0  0
   45.7100   35.8440   43.0660 N   0  0  0  0  0  0  0  0  0  0  0  0
   46.5480   34.7890   43.2110 C   0  0  0  0  0  0  0  0  0  0  0  0
   46.4780   33.9510   44.2250 N   0  0  0  0  0  0  0  0  0  0  0  0
   49.8340   33.3980   41.8460 C   0  0  0  0  0  0  0  0  0  0  0  0
   51.0930   33.0590   42.1360 N   0  0  0  0  0  0  0  0  0  0  0  0
   51.5370   32.1400   41.3420 O   0  0  0  0  0  0  0  0  0  0  0  0
   50.5990   31.8570   40.5220 C   0  0  0  0  0  0  0  0  0  0  0  0
   49.4960   32.6200   40.7920 N   0  0  0  0  0  0  0  0  0  0  0  0
   50.6380   30.8720   39.4400 C   0  0  0  0  0  0  0  0  0  0  0  0
   50.2390   31.0710   38.1460 C   0  0  0  0  0  0  0  0  0  0  0  0
   50.4330   29.8930   37.4400 C   0  0  0  0  0  0  0  0  0  0  0  0
   50.9360   29.0240   38.3100 N   0  0  0  0  0  0  0  0  0  0  0  0
   51.0640   29.5880   39.5010 N   0  0  0  0  0  0  0  0  0  0  0  0
   51.2950   27.6470   38.0020 C   0  0  0  0  0  0  0  0  0  0  0  0
   50.4720   27.1080   37.0390 F   0  0  0  0  0  0  0  0  0  0  0  0
   52.5860   27.5360   37.5020 F   0  0  0  0  0  0  0  0  0  0  0  0
   51.2100   26.8400   39.1040 F   0  0  0  0  0  0  0  0  0  0  0  0
   46.8684   33.8930   41.7016 H   0  0  0  0  0  0  0  0  0  0  0  0
   48.7337   35.5410   40.5868 H   0  0  0  0  0  0  0  0  0  0  0  0
   48.5217   36.6385   41.6666 H   0  0  0  0  0  0  0  0  0  0  0  0
   49.5748   34.3194   43.5316 H   0  0  0  0  0  0  0  0  0  0  0  0
   45.4450   33.4697   46.0179 H   0  0  0  0  0  0  0  0  0  0  0  0
   43.8238   35.4148   45.8491 H   0  0  0  0  0  0  0  0  0  0  0  0
   44.0537   36.9495   43.8648 H   0  0  0  0  0  0  0  0  0  0  0  0
   49.8330   32.0072   37.7352 H   0  0  0  0  0  0  0  0  0  0  0  0
   50.2149   29.7146   36.3767 H   0  0  0  0  0  0  0  0  0  0  0  0
  1  3  1  0
  1  8  1  0
  2  1  1  0
  2  3  1  0
  5  4  2  0
  6  5  1  0
  7  8  1  0
  7  6  2  0
  8  9  2  0
  9  4  1  0
 10 11  2  0
 10  3  1  0
 12 11  1  0
 13 14  2  0
 13 12  1  0
 14 10  1  0
 15 19  2  0
 15 13  1  0
 16 15  1  0
 17 16  2  0
 17 18  1  0
 18 19  1  0
 20 18  1  0
 20 23  1  0
 21 20  1  0
 22 20  1  0
  1 24  1  6
  2 25  1  0
  2 26  1  0
  3 27  1  1
  4 28  1  0
  5 29  1  0
  6 30  1  0
 16 31  1  0
 17 32  1  0
M  ISO  8  24  13  25  13  26  13  27  13  28  14  29  14  30  14  31  14
M  ISO  1  32  14
M  END
>  <minimizedAffinity>  (1) 
-4.64916325

>  <minimizedRMSD>  (1) 
0.693284512

$$$$
