
     RDKit          3D

 17 18  0  0  0  0  0  0  0  0999 V2000
   44.4280   35.2900   44.0920 C   0  0  0  0  0  0  0  0  0  0  0  0
   44.5720   34.2410   43.1710 C   0  0  0  0  0  0  0  0  0  0  0  0
   45.2160   33.0760   43.5570 C   0  0  0  0  0  0  0  0  0  0  0  0
   45.6750   33.0180   44.8300 N   0  0  0  0  0  0  0  0  0  0  0  0
   45.5290   34.0280   45.7000 C   0  0  0  0  0  0  0  0  0  0  0  0
   44.9100   35.1520   45.3320 N   0  0  0  0  0  0  0  0  0  0  0  0
   44.0280   34.4650   41.8640 N   0  0  0  0  0  0  0  0  0  0  0  0
   43.3010   35.4920   41.3660 C   0  0  0  0  0  0  0  0  0  0  0  0
   43.0130   35.2590   40.0720 N   0  0  0  0  0  0  0  0  0  0  0  0
   43.5710   34.0700   39.7660 C   0  0  0  0  0  0  0  0  0  0  0  0
   44.1850   33.5980   40.8650 N   0  0  0  0  0  0  0  0  0  0  0  0
   43.6420   33.2680   38.6120 O   0  0  0  0  0  0  0  0  0  0  0  0
   43.9216   36.2205   43.7958 H   0  0  0  0  0  0  0  0  0  0  0  0
   45.3485   32.2353   42.8601 H   0  0  0  0  0  0  0  0  0  0  0  0
   45.9216   33.9297   46.7228 H   0  0  0  0  0  0  0  0  0  0  0  0
   42.9921   36.3826   41.9330 H   0  0  0  0  0  0  0  0  0  0  0  0
   44.1268   32.4052   38.6379 H   0  0  0  0  0  0  0  0  0  0  0  0
  1  6  2  0
  2  3  2  0
  2  1  1  0
  3  4  1  0
  4  5  2  0
  6  5  1  0
  7  2  1  0
  8  7  1  0
  9  8  2  0
 10  9  1  0
 10 11  2  0
 11  7  1  0
 12 10  1  0
  1 13  1  0
  3 14  1  0
  5 15  1  0
  8 16  1  0
 12 17  1  0
M  ISO  5  13  14  14  14  15  14  16  14  17   3
M  END
>  <minimizedAffinity>  (1) 
-3.20097423

>  <minimizedRMSD>  (1) 
0.0981131718

$$$$
