
     RDKit          3D

 16 17  0  0  0  0  0  0  0  0999 V2000
   44.5130   35.8810   44.7090 C   0  0  0  0  0  0  0  0  0  0  0  0
   45.1630   35.8400   43.4630 C   0  0  0  0  0  0  0  0  0  0  0  0
   46.0880   34.8190   43.2210 C   0  0  0  0  0  0  0  0  0  0  0  0
   46.3090   33.9070   44.2220 N   0  0  0  0  0  0  0  0  0  0  0  0
   45.6670   33.9790   45.4030 C   0  0  0  0  0  0  0  0  0  0  0  0
   44.7750   34.9520   45.6540 N   0  0  0  0  0  0  0  0  0  0  0  0
   45.9190   32.9950   46.4560 C   0  0  0  0  0  0  0  0  0  0  0  0
   46.9650   32.0500   46.2480 C   0  0  0  0  0  0  0  0  0  0  0  0
   46.8540   31.0570   47.8650 S   0  0  0  0  0  0  0  0  0  0  0  0
   45.4150   32.1480   48.4580 C   0  0  0  0  0  0  0  0  0  0  0  0
   45.2630   32.8800   47.6180 N   0  0  0  0  0  0  0  0  0  0  0  0
   43.7836   36.6778   44.9165 H   0  0  0  0  0  0  0  0  0  0  0  0
   44.9483   36.5961   42.6934 H   0  0  0  0  0  0  0  0  0  0  0  0
   46.6202   34.7496   42.2608 H   0  0  0  0  0  0  0  0  0  0  0  0
   47.6455   31.9291   45.3922 H   0  0  0  0  0  0  0  0  0  0  0  0
   44.8590   32.0792   49.4047 H   0  0  0  0  0  0  0  0  0  0  0  0
  1  6  2  0
  2  1  1  0
  3  2  2  0
  3  4  1  0
  4  5  2  0
  5  6  1  0
  5  7  1  0
  7 11  1  0
  8  7  2  0
  8  9  1  0
  9 10  1  0
 11 10  2  0
  1 12  1  0
  2 13  1  0
  3 14  1  0
  8 15  1  0
 10 16  1  0
M  ISO  5  12  14  13  14  14  14  15  14  16  14
M  END
>  <minimizedAffinity>  (1) 
-4.00599289

>  <minimizedRMSD>  (1) 
0.757937193

$$$$
