
     RDKit          3D

 26 28  0  0  0  0  0  0  0  0999 V2000
   47.2180   31.5220   45.2870 C   0  0  0  0  0  0  0  0  0  0  0  0
   47.4890   30.2440   44.7560 C   0  0  0  0  0  0  0  0  0  0  0  0
   48.0920   30.7250   43.0430 S   0  0  0  0  0  0  0  0  0  0  0  0
   47.8470   32.5640   43.4060 C   0  0  0  0  0  0  0  0  0  0  0  0
   47.4670   32.5140   44.4480 N   0  0  0  0  0  0  0  0  0  0  0  0
   45.1960   32.6020   48.1430 C   0  0  0  0  0  0  0  0  0  0  0  0
   45.7450   31.8420   49.1800 C   0  0  0  0  0  0  0  0  0  0  0  0
   46.8070   30.9530   48.9220 C   0  0  0  0  0  0  0  0  0  0  0  0
   47.2620   30.8740   47.6420 N   0  0  0  0  0  0  0  0  0  0  0  0
   46.7080   31.6260   46.6570 C   0  0  0  0  0  0  0  0  0  0  0  0
   45.6870   32.4810   46.8960 N   0  0  0  0  0  0  0  0  0  0  0  0
   48.1570   33.5990   42.3980 C   0  0  0  0  0  0  0  0  0  0  0  0
   47.6220   33.5190   41.1300 C   0  0  0  0  0  0  0  0  0  0  0  0
   47.9610   34.5280   40.2510 C   0  0  0  0  0  0  0  0  0  0  0  0
   48.7880   35.5590   40.6200 C   0  0  0  0  0  0  0  0  0  0  0  0
   49.3210   35.6400   41.8850 C   0  0  0  0  0  0  0  0  0  0  0  0
   48.9920   34.6470   42.7620 C   0  0  0  0  0  0  0  0  0  0  0  0
   47.3788   29.2499   45.2138 H   0  0  0  0  0  0  0  0  0  0  0  0
   44.3666   33.2956   48.3454 H   0  0  0  0  0  0  0  0  0  0  0  0
   45.3465   31.9384   50.2007 H   0  0  0  0  0  0  0  0  0  0  0  0
   47.2514   30.3460   49.7245 H   0  0  0  0  0  0  0  0  0  0  0  0
   46.9586   32.6931   40.8337 H   0  0  0  0  0  0  0  0  0  0  0  0
   47.5576   34.5050   39.2279 H   0  0  0  0  0  0  0  0  0  0  0  0
   49.0308   36.3406   39.8851 H   0  0  0  0  0  0  0  0  0  0  0  0
   49.9832   36.4683   42.1773 H   0  0  0  0  0  0  0  0  0  0  0  0
   49.3989   34.6778   43.7835 H   0  0  0  0  0  0  0  0  0  0  0  0
  1 10  1  0
  2  1  2  0
  3  4  1  0
  3  2  1  0
  4  5  2  0
  5  1  1  0
  6  7  2  0
  8  7  1  0
  9  8  2  0
 10 11  2  0
 10  9  1  0
 11  6  1  0
 12 17  1  0
 12  4  1  0
 13 12  2  0
 14 15  2  0
 14 13  1  0
 15 16  1  0
 16 17  2  0
  2 18  1  0
  6 19  1  0
  7 20  1  0
  8 21  1  0
 13 22  1  0
 14 23  1  0
 15 24  1  0
 16 25  1  0
 17 26  1  0
M  ISO  8  18  14  19  14  20  14  21  14  22  14  23  14  24  14  25  14
M  ISO  1  26  14
M  END
>  <minimizedAffinity>  (1) 
-5.02235126

>  <minimizedRMSD>  (1) 
7.57939672

$$$$
