
     RDKit          3D

 23 25  0  0  0  0  0  0  0  0999 V2000
   45.7410   33.8530   45.6180 C   0  0  0  0  0  0  0  0  0  0  0  0
   44.7250   34.8240   45.7910 C   0  0  0  0  0  0  0  0  0  0  0  0
   44.7560   35.6880   44.1070 S   0  0  0  0  0  0  0  0  0  0  0  0
   46.1520   34.5380   43.5240 C   0  0  0  0  0  0  0  0  0  0  0  0
   46.3150   33.8910   44.4210 N   0  0  0  0  0  0  0  0  0  0  0  0
   46.8090   34.5400   42.2300 N   0  0  0  0  0  0  0  0  0  0  0  0
   48.0240   35.0820   42.2320 N   0  0  0  0  0  0  0  0  0  0  0  0
   48.5420   35.0370   41.0090 C   0  0  0  0  0  0  0  0  0  0  0  0
   47.5940   34.4350   40.2040 C   0  0  0  0  0  0  0  0  0  0  0  0
   46.5030   34.1240   40.9910 C   0  0  0  0  0  0  0  0  0  0  0  0
   47.4960   31.3810   47.6420 C   0  0  0  0  0  0  0  0  0  0  0  0
   46.6480   31.2460   48.7690 C   0  0  0  0  0  0  0  0  0  0  0  0
   45.4680   32.0120   48.8270 C   0  0  0  0  0  0  0  0  0  0  0  0
   45.2130   32.8520   47.7730 N   0  0  0  0  0  0  0  0  0  0  0  0
   46.0420   32.9460   46.7290 C   0  0  0  0  0  0  0  0  0  0  0  0
   47.1770   32.2320   46.6380 N   0  0  0  0  0  0  0  0  0  0  0  0
   44.0897   35.0225   46.6668 H   0  0  0  0  0  0  0  0  0  0  0  0
   49.5306   35.4062   40.6987 H   0  0  0  0  0  0  0  0  0  0  0  0
   47.6913   34.2382   39.1261 H   0  0  0  0  0  0  0  0  0  0  0  0
   45.5722   33.6347   40.6682 H   0  0  0  0  0  0  0  0  0  0  0  0
   48.4215   30.7895   47.5820 H   0  0  0  0  0  0  0  0  0  0  0  0
   46.9070   30.5547   49.5845 H   0  0  0  0  0  0  0  0  0  0  0  0
   44.7794   31.9398   49.6818 H   0  0  0  0  0  0  0  0  0  0  0  0
  1  2  2  0
  1 15  1  0
  3  2  1  0
  4  3  1  0
  4  5  2  0
  5  1  1  0
  6  7  1  0
  6  4  1  0
  8  7  2  0
  9 10  2  0
  9  8  1  0
 10  6  1  0
 11 12  2  0
 12 13  1  0
 14 13  2  0
 15 14  1  0
 16 15  2  0
 16 11  1  0
  2 17  1  0
  8 18  1  0
  9 19  1  0
 10 20  1  0
 11 21  1  0
 12 22  1  0
 13 23  1  0
M  ISO  7  17  14  18  14  19  14  20  14  21  14  22  14  23  14
M  END
>  <minimizedAffinity>  (1) 
-5.35706186

>  <minimizedRMSD>  (1) 
7.06720018

$$$$
