
     RDKit          3D

 23 25  0  0  0  0  0  0  0  0999 V2000
   44.5550   35.7720   44.8010 C   0  0  0  0  0  0  0  0  0  0  0  0
   44.9970   36.1700   43.5250 C   0  0  0  0  0  0  0  0  0  0  0  0
   45.9390   35.3770   42.8750 C   0  0  0  0  0  0  0  0  0  0  0  0
   46.3780   34.2520   43.5240 N   0  0  0  0  0  0  0  0  0  0  0  0
   45.9270   33.9070   44.7480 C   0  0  0  0  0  0  0  0  0  0  0  0
   45.0200   34.6520   45.3960 N   0  0  0  0  0  0  0  0  0  0  0  0
   46.4200   32.7050   45.4010 C   0  0  0  0  0  0  0  0  0  0  0  0
   47.1950   31.7830   44.6610 C   0  0  0  0  0  0  0  0  0  0  0  0
   47.5460   30.4640   45.9690 S   0  0  0  0  0  0  0  0  0  0  0  0
   46.5590   31.4460   47.2530 C   0  0  0  0  0  0  0  0  0  0  0  0
   46.2340   32.3300   46.6580 N   0  0  0  0  0  0  0  0  0  0  0  0
   46.3810   30.9830   48.6500 C   0  0  0  0  0  0  0  0  0  0  0  0
   45.1880   30.1850   49.0290 C   0  0  0  0  0  0  0  0  0  0  0  0
   45.1940   31.6140   49.4100 C   0  0  0  0  0  0  0  0  0  0  0  0
   43.8117   36.3891   45.3271 H   0  0  0  0  0  0  0  0  0  0  0  0
   44.6080   37.0844   43.0534 H   0  0  0  0  0  0  0  0  0  0  0  0
   46.3172   35.6435   41.8770 H   0  0  0  0  0  0  0  0  0  0  0  0
   47.5093   31.8224   43.6076 H   0  0  0  0  0  0  0  0  0  0  0  0
   47.4628   30.8464   48.7952 H   0  0  0  0  0  0  0  0  0  0  0  0
   44.4986   29.8356   48.2463 H   0  0  0  0  0  0  0  0  0  0  0  0
   45.0452   29.2489   49.5887 H   0  0  0  0  0  0  0  0  0  0  0  0
   45.3043   31.9049   50.4651 H   0  0  0  0  0  0  0  0  0  0  0  0
   44.5254   32.4724   49.2481 H   0  0  0  0  0  0  0  0  0  0  0  0
  1  6  2  0
  2  1  1  0
  3  4  1  0
  3  2  2  0
  4  5  2  0
  5  6  1  0
  5  7  1  0
  7 11  1  0
  8  7  2  0
  8  9  1  0
  9 10  1  0
 10 12  1  0
 11 10  2  0
 12 13  1  0
 12 14  1  0
 13 14  1  0
  1 15  1  0
  2 16  1  0
  3 17  1  0
  8 18  1  0
 12 19  1  0
 13 20  1  0
 13 21  1  0
 14 22  1  0
 14 23  1  0
M  ISO  8  15  14  16  14  17  14  18  14  19  13  20  13  21  13  22  13
M  ISO  1  23  13
M  END
>  <minimizedAffinity>  (1) 
-4.56448221

>  <minimizedRMSD>  (1) 
1.41960359

$$$$
