
     RDKit          3D

 23 25  0  0  0  0  0  0  0  0999 V2000
   46.4590   32.4900   44.6380 C   0  0  0  0  0  0  0  0  0  0  0  0
   47.6260   32.1630   43.9110 C   0  0  0  0  0  0  0  0  0  0  0  0
   47.9250   30.3960   44.5450 S   0  0  0  0  0  0  0  0  0  0  0  0
   46.3940   30.5080   45.6510 C   0  0  0  0  0  0  0  0  0  0  0  0
   46.0090   31.5340   45.4430 N   0  0  0  0  0  0  0  0  0  0  0  0
   44.5840   35.5640   45.3000 C   0  0  0  0  0  0  0  0  0  0  0  0
   44.7340   36.2790   44.1050 C   0  0  0  0  0  0  0  0  0  0  0  0
   45.4750   35.7100   43.0760 C   0  0  0  0  0  0  0  0  0  0  0  0
   46.0190   34.4790   43.2850 N   0  0  0  0  0  0  0  0  0  0  0  0
   45.8570   33.8150   44.4480 C   0  0  0  0  0  0  0  0  0  0  0  0
   45.1460   34.3520   45.4480 N   0  0  0  0  0  0  0  0  0  0  0  0
   46.0350   29.3570   46.4840 C   0  0  0  0  0  0  0  0  0  0  0  0
   44.9830   29.2750   47.3420 C   0  0  0  0  0  0  0  0  0  0  0  0
   44.9510   28.0420   47.9610 C   0  0  0  0  0  0  0  0  0  0  0  0
   46.0500   27.4020   47.4160 C   0  0  0  0  0  0  0  0  0  0  0  0
   46.6480   28.2020   46.5650 O   0  0  0  0  0  0  0  0  0  0  0  0
   48.1979   32.7603   43.1856 H   0  0  0  0  0  0  0  0  0  0  0  0
   44.0007   35.9985   46.1252 H   0  0  0  0  0  0  0  0  0  0  0  0
   44.2745   37.2710   43.9833 H   0  0  0  0  0  0  0  0  0  0  0  0
   45.6178   36.2379   42.1216 H   0  0  0  0  0  0  0  0  0  0  0  0
   44.2564   30.0818   47.5186 H   0  0  0  0  0  0  0  0  0  0  0  0
   44.2319   27.6629   48.7021 H   0  0  0  0  0  0  0  0  0  0  0  0
   46.3730   26.3790   47.6590 H   0  0  0  0  0  0  0  0  0  0  0  0
  1  5  1  0
  2  3  1  0
  2  1  2  0
  3  4  1  0
  4 12  1  0
  5  4  2  0
  6 11  2  0
  7  6  1  0
  8  9  1  0
  8  7  2  0
  9 10  2  0
 10  1  1  0
 10 11  1  0
 12 16  1  0
 12 13  2  0
 13 14  1  0
 15 14  2  0
 16 15  1  0
  2 17  1  0
  6 18  1  0
  7 19  1  0
  8 20  1  0
 13 21  1  0
 14 22  1  0
 15 23  1  0
M  ISO  7  17  14  18  14  19  14  20  14  21  14  22  14  23  14
M  END
>  <minimizedAffinity>  (1) 
-4.04654312

>  <minimizedRMSD>  (1) 
3.42075157

$$$$
