
     RDKit          3D

 29 32  0  0  0  0  0  0  0  0999 V2000
   46.0190   32.1170   45.1920 C   0  0  0  0  0  0  0  0  0  0  0  0
   47.0430   33.0580   44.9420 C   0  0  0  0  0  0  0  0  0  0  0  0
   46.8530   33.2430   43.0520 S   0  0  0  0  0  0  0  0  0  0  0  0
   45.4270   32.0010   43.0350 C   0  0  0  0  0  0  0  0  0  0  0  0
   45.3450   31.7280   44.1150 N   0  0  0  0  0  0  0  0  0  0  0  0
   44.6900   31.5740   41.8710 N   0  0  0  0  0  0  0  0  0  0  0  0
   45.2380   31.6360   40.6570 C   0  0  0  0  0  0  0  0  0  0  0  0
   44.3210   31.1760   39.7960 N   0  0  0  0  0  0  0  0  0  0  0  0
   43.2240   30.8380   40.4800 C   0  0  0  0  0  0  0  0  0  0  0  0
   41.9790   30.3190   40.1530 C   0  0  0  0  0  0  0  0  0  0  0  0
   41.0670   30.0890   41.1320 N   0  0  0  0  0  0  0  0  0  0  0  0
   41.3290   30.3510   42.4390 C   0  0  0  0  0  0  0  0  0  0  0  0
   42.5360   30.8610   42.8090 N   0  0  0  0  0  0  0  0  0  0  0  0
   43.4340   31.0830   41.8110 C   0  0  0  0  0  0  0  0  0  0  0  0
   45.2620   29.9400   48.0290 C   0  0  0  0  0  0  0  0  0  0  0  0
   45.4090   30.8080   49.1310 C   0  0  0  0  0  0  0  0  0  0  0  0
   45.7660   32.1330   48.9020 C   0  0  0  0  0  0  0  0  0  0  0  0
   45.9560   32.5210   47.6040 N   0  0  0  0  0  0  0  0  0  0  0  0
   45.8100   31.6780   46.5740 C   0  0  0  0  0  0  0  0  0  0  0  0
   45.4630   30.3860   46.7690 N   0  0  0  0  0  0  0  0  0  0  0  0
   41.6860   30.0370   38.7790 N   0  0  0  0  0  0  0  0  0  0  0  0
   47.7457   33.5431   45.6354 H   0  0  0  0  0  0  0  0  0  0  0  0
   46.2479   31.9954   40.4103 H   0  0  0  0  0  0  0  0  0  0  0  0
   40.5624   30.1502   43.2019 H   0  0  0  0  0  0  0  0  0  0  0  0
   44.9810   28.8898   48.1966 H   0  0  0  0  0  0  0  0  0  0  0  0
   45.2440   30.4430   50.1555 H   0  0  0  0  0  0  0  0  0  0  0  0
   45.8908   32.8422   49.7336 H   0  0  0  0  0  0  0  0  0  0  0  0
   40.7675   29.6515   38.5169 H   0  0  0  0  0  0  0  0  0  0  0  0
   42.3939   30.2198   38.0535 H   0  0  0  0  0  0  0  0  0  0  0  0
  1 19  1  0
  2  1  2  0
  3  2  1  0
  4  3  1  0
  4  5  2  0
  5  1  1  0
  6  4  1  0
  7  6  1  0
  8  9  1  0
  8  7  2  0
  9 14  2  0
 10  9  1  0
 10 11  2  0
 11 12  1  0
 12 13  2  0
 14  6  1  0
 14 13  1  0
 15 16  2  0
 17 16  1  0
 18 17  2  0
 19 20  2  0
 19 18  1  0
 20 15  1  0
 21 10  1  0
  2 22  1  0
  7 23  1  0
 12 24  1  0
 15 25  1  0
 16 26  1  0
 17 27  1  0
 21 28  1  0
 21 29  1  0
M  ISO  6  22  14  23  14  24  14  25  14  26  14  27  14
M  END
>  <minimizedAffinity>  (1) 
-3.81457424

>  <minimizedRMSD>  (1) 
7.93596029

$$$$
