
     RDKit          3D

 42 45  0  0  0  0  0  0  0  0999 V2000
   47.9800   33.7730   42.3830 C   0  0  0  0  0  0  0  0  0  0  0  0
   46.3060   33.2770   45.6200 C   0  0  0  0  0  0  0  0  0  0  0  0
   45.2500   34.2240   45.4890 C   0  0  0  0  0  0  0  0  0  0  0  0
   45.6230   34.9160   43.7730 S   0  0  0  0  0  0  0  0  0  0  0  0
   47.1330   33.7710   43.6010 C   0  0  0  0  0  0  0  0  0  0  0  0
   47.1030   33.2310   44.5710 N   0  0  0  0  0  0  0  0  0  0  0  0
   47.4350   30.8700   48.1010 C   0  0  0  0  0  0  0  0  0  0  0  0
   46.5170   31.0330   49.1530 C   0  0  0  0  0  0  0  0  0  0  0  0
   45.5140   31.9710   49.0090 C   0  0  0  0  0  0  0  0  0  0  0  0
   45.4950   32.6720   47.8400 N   0  0  0  0  0  0  0  0  0  0  0  0
   46.3700   32.5070   46.8520 C   0  0  0  0  0  0  0  0  0  0  0  0
   47.3490   31.6040   46.9750 N   0  0  0  0  0  0  0  0  0  0  0  0
   48.1380   32.4050   41.8860 C   0  0  0  0  0  0  0  0  0  0  0  0
   49.3710   34.3560   42.7730 C   0  0  0  0  0  0  0  0  0  0  0  0
   47.4490   34.7310   41.3500 C   0  0  0  0  0  0  0  0  0  0  0  0
   47.2070   34.1590   40.0310 C   0  0  0  0  0  0  0  0  0  0  0  0
   48.2910   34.1320   39.2000 N   0  0  0  0  0  0  0  0  0  0  0  0
   48.2430   33.5700   37.9740 C   0  0  0  0  0  0  0  0  0  0  0  0
   47.1240   32.9860   37.4680 N   0  0  0  0  0  0  0  0  0  0  0  0
   46.0330   32.9900   38.2480 C   0  0  0  0  0  0  0  0  0  0  0  0
   44.8380   32.4490   37.8320 C   0  0  0  0  0  0  0  0  0  0  0  0
   43.6940   32.4590   38.6080 C   0  0  0  0  0  0  0  0  0  0  0  0
   43.7980   33.0550   39.8620 C   0  0  0  0  0  0  0  0  0  0  0  0
   44.9830   33.6050   40.3030 C   0  0  0  0  0  0  0  0  0  0  0  0
   46.0840   33.5660   39.4980 C   0  0  0  0  0  0  0  0  0  0  0  0
   44.4431   34.4803   46.1913 H   0  0  0  0  0  0  0  0  0  0  0  0
   48.2405   30.1274   48.1995 H   0  0  0  0  0  0  0  0  0  0  0  0
   46.5957   30.4282   50.0684 H   0  0  0  0  0  0  0  0  0  0  0  0
   44.7675   32.1440   49.7982 H   0  0  0  0  0  0  0  0  0  0  0  0
   48.2180   31.7126   42.7370 H   0  0  0  0  0  0  0  0  0  0  0  0
   47.2652   32.1342   41.2738 H   0  0  0  0  0  0  0  0  0  0  0  0
   49.0496   32.3403   41.2738 H   0  0  0  0  0  0  0  0  0  0  0  0
   49.4589   34.3929   43.8689 H   0  0  0  0  0  0  0  0  0  0  0  0
   50.1653   33.7151   42.3628 H   0  0  0  0  0  0  0  0  0  0  0  0
   49.4710   35.3717   42.3628 H   0  0  0  0  0  0  0  0  0  0  0  0
   46.4977   35.1386   41.7227 H   0  0  0  0  0  0  0  0  0  0  0  0
   48.2321   35.4910   41.2112 H   0  0  0  0  0  0  0  0  0  0  0  0
   49.1520   33.5850   37.3547 H   0  0  0  0  0  0  0  0  0  0  0  0
   44.7909   31.9868   36.8349 H   0  0  0  0  0  0  0  0  0  0  0  0
   42.7504   32.0189   38.2531 H   0  0  0  0  0  0  0  0  0  0  0  0
   42.9142   33.0879   40.5161 H   0  0  0  0  0  0  0  0  0  0  0  0
   45.0404   34.0721   41.2972 H   0  0  0  0  0  0  0  0  0  0  0  0
  1 14  1  0
  1  5  1  0
  2 11  1  0
  3  2  2  0
  4  3  1  0
  5  4  1  0
  5  6  2  0
  6  2  1  0
  7  8  2  0
  9  8  1  0
 10  9  2  0
 11 12  2  0
 11 10  1  0
 12  7  1  0
 13  1  1  0
 15  1  1  0
 16 15  1  0
 17 16  2  0
 18 17  1  0
 19 18  2  0
 19 20  1  0
 20 25  2  0
 21 20  1  0
 21 22  2  0
 22 23  1  0
 23 24  2  0
 25 16  1  0
 25 24  1  0
  3 26  1  0
  7 27  1  0
  8 28  1  0
  9 29  1  0
 13 30  1  0
 13 31  1  0
 13 32  1  0
 14 33  1  0
 14 34  1  0
 14 35  1  0
 15 36  1  0
 15 37  1  0
 18 38  1  0
 21 39  1  0
 22 40  1  0
 23 41  1  0
 24 42  1  0
M  ISO  8  26  14  27  14  28  14  29  14  30   8  31   8  32   8  33   8
M  ISO  8  34   8  35   8  36   8  37   8  38  14  39  14  40  14  41  14
M  ISO  1  42  14
M  END
>  <minimizedAffinity>  (1) 
-5.73185587

>  <minimizedRMSD>  (1) 
3.19142127

$$$$
