
     RDKit          3D

 41 43  0  0  0  0  0  0  0  0999 V2000
   48.7160   34.2690   41.8420 C   0  0  0  0  0  0  0  0  0  0  0  0
   46.4630   33.5920   44.6830 C   0  0  0  0  0  0  0  0  0  0  0  0
   45.3670   34.4070   44.3100 C   0  0  0  0  0  0  0  0  0  0  0  0
   46.0040   35.1270   42.6910 S   0  0  0  0  0  0  0  0  0  0  0  0
   47.6370   34.1600   42.8650 C   0  0  0  0  0  0  0  0  0  0  0  0
   47.4650   33.6300   43.8210 N   0  0  0  0  0  0  0  0  0  0  0  0
   47.1130   31.0860   47.2420 C   0  0  0  0  0  0  0  0  0  0  0  0
   46.1800   31.4200   48.2400 C   0  0  0  0  0  0  0  0  0  0  0  0
   45.3350   32.4950   48.0440 C   0  0  0  0  0  0  0  0  0  0  0  0
   45.4750   33.1610   46.8700 N   0  0  0  0  0  0  0  0  0  0  0  0
   46.3630   32.8420   45.9220 C   0  0  0  0  0  0  0  0  0  0  0  0
   47.1890   31.8060   46.0920 N   0  0  0  0  0  0  0  0  0  0  0  0
   49.3320   32.9400   41.6740 C   0  0  0  0  0  0  0  0  0  0  0  0
   49.7420   35.3080   42.3270 C   0  0  0  0  0  0  0  0  0  0  0  0
   48.1760   34.8030   40.5450 C   0  0  0  0  0  0  0  0  0  0  0  0
   48.0410   33.8570   39.4370 C   0  0  0  0  0  0  0  0  0  0  0  0
   46.6950   33.3290   39.0920 C   0  0  0  0  0  0  0  0  0  0  0  0
   46.6120   33.3000   37.5650 C   0  0  0  0  0  0  0  0  0  0  0  0
   47.9530   33.7110   37.0340 C   0  0  0  0  0  0  0  0  0  0  0  0
   48.4780   34.6010   38.1570 C   0  0  0  0  0  0  0  0  0  0  0  0
   44.4087   34.5735   44.8238 H   0  0  0  0  0  0  0  0  0  0  0  0
   47.7892   30.2318   47.3941 H   0  0  0  0  0  0  0  0  0  0  0  0
   46.1237   30.8311   49.1674 H   0  0  0  0  0  0  0  0  0  0  0  0
   44.5909   32.7942   48.7968 H   0  0  0  0  0  0  0  0  0  0  0  0
   49.5349   32.5023   42.6626 H   0  0  0  0  0  0  0  0  0  0  0  0
   48.6455   32.2854   41.1171 H   0  0  0  0  0  0  0  0  0  0  0  0
   50.2752   33.0408   41.1171 H   0  0  0  0  0  0  0  0  0  0  0  0
   49.7568   35.3230   43.4268 H   0  0  0  0  0  0  0  0  0  0  0  0
   50.7404   35.0408   41.9505 H   0  0  0  0  0  0  0  0  0  0  0  0
   49.4623   36.3030   41.9505 H   0  0  0  0  0  0  0  0  0  0  0  0
   47.1783   35.2192   40.7483 H   0  0  0  0  0  0  0  0  0  0  0  0
   48.9253   35.5330   40.2049 H   0  0  0  0  0  0  0  0  0  0  0  0
   48.6327   32.9940   39.7763 H   0  0  0  0  0  0  0  0  0  0  0  0
   46.5705   32.3142   39.4977 H   0  0  0  0  0  0  0  0  0  0  0  0
   45.9014   33.9595   39.5193 H   0  0  0  0  0  0  0  0  0  0  0  0
   46.3669   32.2843   37.2212 H   0  0  0  0  0  0  0  0  0  0  0  0
   45.8270   33.9819   37.2061 H   0  0  0  0  0  0  0  0  0  0  0  0
   48.6051   32.8392   36.8766 H   0  0  0  0  0  0  0  0  0  0  0  0
   47.9089   34.2108   36.0551 H   0  0  0  0  0  0  0  0  0  0  0  0
   49.5732   34.6910   38.1085 H   0  0  0  0  0  0  0  0  0  0  0  0
   48.0924   35.6299   38.1055 H   0  0  0  0  0  0  0  0  0  0  0  0
  1 14  1  0
  1  5  1  0
  2 11  1  0
  3  2  2  0
  4  5  1  0
  4  3  1  0
  5  6  2  0
  6  2  1  0
  7  8  2  0
  9  8  1  0
 10  9  2  0
 11 12  2  0
 11 10  1  0
 12  7  1  0
 13  1  1  0
 15  1  1  0
 16 15  1  0
 17 16  1  0
 18 17  1  0
 19 18  1  0
 19 20  1  0
 20 16  1  0
  3 21  1  0
  7 22  1  0
  8 23  1  0
  9 24  1  0
 13 25  1  0
 13 26  1  0
 13 27  1  0
 14 28  1  0
 14 29  1  0
 14 30  1  0
 15 31  1  0
 15 32  1  0
 16 33  1  0
 17 34  1  0
 17 35  1  0
 18 36  1  0
 18 37  1  0
 19 38  1  0
 19 39  1  0
 20 40  1  0
 20 41  1  0
M  ISO  8  21  14  22  14  23  14  24  14  25   8  26   8  27   8  28   8
M  ISO  8  29   8  30   8  31   8  32   8  33  13  34  13  35  13  36  13
M  ISO  5  37  13  38  13  39  13  40  13  41  13
M  END
>  <minimizedAffinity>  (1) 
-5.52753353

>  <minimizedRMSD>  (1) 
1.66756094

$$$$
