
     RDKit          3D

 44 46  0  0  0  0  0  0  0  0999 V2000
   48.7410   34.4540   41.7890 C   0  0  0  0  0  0  0  0  0  0  0  0
   46.4620   33.6450   44.5840 C   0  0  0  0  0  0  0  0  0  0  0  0
   45.3450   34.4350   44.2060 C   0  0  0  0  0  0  0  0  0  0  0  0
   45.9830   35.2020   42.6120 S   0  0  0  0  0  0  0  0  0  0  0  0
   47.6380   34.2890   42.7900 C   0  0  0  0  0  0  0  0  0  0  0  0
   47.4820   33.7250   43.7380 N   0  0  0  0  0  0  0  0  0  0  0  0
   47.1090   31.0610   47.0590 C   0  0  0  0  0  0  0  0  0  0  0  0
   46.2080   31.4090   48.1090 C   0  0  0  0  0  0  0  0  0  0  0  0
   45.3980   32.5160   47.9550 C   0  0  0  0  0  0  0  0  0  0  0  0
   45.5250   33.2030   46.7900 N   0  0  0  0  0  0  0  0  0  0  0  0
   46.3720   32.8730   45.8090 C   0  0  0  0  0  0  0  0  0  0  0  0
   47.1600   31.8100   45.9380 N   0  0  0  0  0  0  0  0  0  0  0  0
   49.5070   33.1880   41.7450 C   0  0  0  0  0  0  0  0  0  0  0  0
   49.6140   35.6470   42.2220 C   0  0  0  0  0  0  0  0  0  0  0  0
   48.1850   34.8150   40.4510 C   0  0  0  0  0  0  0  0  0  0  0  0
   48.0330   33.8260   39.3960 C   0  0  0  0  0  0  0  0  0  0  0  0
   48.4180   34.5670   38.0970 C   0  0  0  0  0  0  0  0  0  0  0  0
   48.4310   33.6980   36.8990 C   0  0  0  0  0  0  0  0  0  0  0  0
   47.1410   32.9150   36.7340 C   0  0  0  0  0  0  0  0  0  0  0  0
   46.6510   32.3520   38.0120 C   0  0  0  0  0  0  0  0  0  0  0  0
   46.6510   33.3200   39.1900 C   0  0  0  0  0  0  0  0  0  0  0  0
   44.3742   34.5632   44.7071 H   0  0  0  0  0  0  0  0  0  0  0  0
   47.7621   30.1820   47.1634 H   0  0  0  0  0  0  0  0  0  0  0  0
   46.1596   30.8047   49.0268 H   0  0  0  0  0  0  0  0  0  0  0  0
   44.6868   32.8257   48.7349 H   0  0  0  0  0  0  0  0  0  0  0  0
   49.7127   32.8481   42.7707 H   0  0  0  0  0  0  0  0  0  0  0  0
   48.9203   32.4227   41.2158 H   0  0  0  0  0  0  0  0  0  0  0  0
   50.4572   33.3526   41.2158 H   0  0  0  0  0  0  0  0  0  0  0  0
   49.6496   35.6957   43.3203 H   0  0  0  0  0  0  0  0  0  0  0  0
   50.6327   35.5182   41.8274 H   0  0  0  0  0  0  0  0  0  0  0  0
   49.1831   36.5790   41.8274 H   0  0  0  0  0  0  0  0  0  0  0  0
   47.1825   35.2293   40.6338 H   0  0  0  0  0  0  0  0  0  0  0  0
   48.9644   35.4755   40.0432 H   0  0  0  0  0  0  0  0  0  0  0  0
   48.6462   32.9538   39.6666 H   0  0  0  0  0  0  0  0  0  0  0  0
   47.6924   35.3769   37.9309 H   0  0  0  0  0  0  0  0  0  0  0  0
   49.4426   34.9434   38.2327 H   0  0  0  0  0  0  0  0  0  0  0  0
   48.5781   34.3270   36.0087 H   0  0  0  0  0  0  0  0  0  0  0  0
   49.2487   32.9725   37.0216 H   0  0  0  0  0  0  0  0  0  0  0  0
   46.3709   33.5862   36.3262 H   0  0  0  0  0  0  0  0  0  0  0  0
   47.3457   32.0738   36.0554 H   0  0  0  0  0  0  0  0  0  0  0  0
   45.6189   32.0043   37.8572 H   0  0  0  0  0  0  0  0  0  0  0  0
   47.3507   31.5463   38.2789 H   0  0  0  0  0  0  0  0  0  0  0  0
   45.9772   34.1626   38.9757 H   0  0  0  0  0  0  0  0  0  0  0  0
   46.3036   32.8038   40.0971 H   0  0  0  0  0  0  0  0  0  0  0  0
  1 14  1  0
  1  5  1  0
  2 11  1  0
  3  2  2  0
  4  5  1  0
  4  3  1  0
  5  6  2  0
  6  2  1  0
  7  8  2  0
  9  8  1  0
 10  9  2  0
 11 12  2  0
 11 10  1  0
 12  7  1  0
 13  1  1  0
 15  1  1  0
 16 15  1  0
 17 16  1  0
 18 17  1  0
 19 18  1  0
 19 20  1  0
 20 21  1  0
 21 16  1  0
  3 22  1  0
  7 23  1  0
  8 24  1  0
  9 25  1  0
 13 26  1  0
 13 27  1  0
 13 28  1  0
 14 29  1  0
 14 30  1  0
 14 31  1  0
 15 32  1  0
 15 33  1  0
 16 34  1  0
 17 35  1  0
 17 36  1  0
 18 37  1  0
 18 38  1  0
 19 39  1  0
 19 40  1  0
 20 41  1  0
 20 42  1  0
 21 43  1  0
 21 44  1  0
M  ISO  8  22  14  23  14  24  14  25  14  26   8  27   8  28   8  29   8
M  ISO  8  30   8  31   8  32   8  33   8  34  13  35  13  36  13  37  13
M  ISO  7  38  13  39  13  40  13  41  13  42  13  43  13  44  13
M  END
>  <minimizedAffinity>  (1) 
-5.65599728

>  <minimizedRMSD>  (1) 
1.67829883

$$$$
