
     RDKit          3D

 36 38  0  0  0  0  0  0  0  0999 V2000
   48.7020   34.2000   41.9380 C   0  0  0  0  0  0  0  0  0  0  0  0
   46.4800   33.5230   44.7790 C   0  0  0  0  0  0  0  0  0  0  0  0
   45.4110   34.3760   44.4460 C   0  0  0  0  0  0  0  0  0  0  0  0
   46.0460   35.1260   42.8350 S   0  0  0  0  0  0  0  0  0  0  0  0
   47.6450   34.1090   42.9560 C   0  0  0  0  0  0  0  0  0  0  0  0
   47.4700   33.5520   43.9060 N   0  0  0  0  0  0  0  0  0  0  0  0
   47.1420   30.9240   47.2640 C   0  0  0  0  0  0  0  0  0  0  0  0
   46.2230   31.2470   48.2830 C   0  0  0  0  0  0  0  0  0  0  0  0
   45.3830   32.3440   48.1250 C   0  0  0  0  0  0  0  0  0  0  0  0
   45.5080   33.0520   46.9650 N   0  0  0  0  0  0  0  0  0  0  0  0
   46.3940   32.7240   46.0030 C   0  0  0  0  0  0  0  0  0  0  0  0
   47.1990   31.6810   46.1420 N   0  0  0  0  0  0  0  0  0  0  0  0
   49.0600   32.8430   41.4720 C   0  0  0  0  0  0  0  0  0  0  0  0
   49.9260   34.9220   42.5350 C   0  0  0  0  0  0  0  0  0  0  0  0
   48.2860   35.0560   40.7670 C   0  0  0  0  0  0  0  0  0  0  0  0
   47.7490   34.3150   39.6240 C   0  0  0  0  0  0  0  0  0  0  0  0
   46.6960   33.4330   39.5420 C   0  0  0  0  0  0  0  0  0  0  0  0
   46.3800   32.8520   38.3370 C   0  0  0  0  0  0  0  0  0  0  0  0
   47.0690   33.1160   37.2120 N   0  0  0  0  0  0  0  0  0  0  0  0
   48.0980   33.9850   37.3120 C   0  0  0  0  0  0  0  0  0  0  0  0
   48.4390   34.5720   38.4720 N   0  0  0  0  0  0  0  0  0  0  0  0
   44.4654   34.5559   44.9784 H   0  0  0  0  0  0  0  0  0  0  0  0
   47.8115   30.0589   47.3797 H   0  0  0  0  0  0  0  0  0  0  0  0
   46.1707   30.6360   49.1962 H   0  0  0  0  0  0  0  0  0  0  0  0
   44.6531   32.6273   48.8976 H   0  0  0  0  0  0  0  0  0  0  0  0
   49.2321   32.1905   42.3407 H   0  0  0  0  0  0  0  0  0  0  0  0
   48.2387   32.4354   40.8643 H   0  0  0  0  0  0  0  0  0  0  0  0
   49.9755   32.8936   40.8643 H   0  0  0  0  0  0  0  0  0  0  0  0
   49.8712   34.8897   43.6332 H   0  0  0  0  0  0  0  0  0  0  0  0
   50.8465   34.4222   42.1989 H   0  0  0  0  0  0  0  0  0  0  0  0
   49.9338   35.9694   42.1989 H   0  0  0  0  0  0  0  0  0  0  0  0
   47.5129   35.7575   41.1137 H   0  0  0  0  0  0  0  0  0  0  0  0
   49.1982   35.5565   40.4102 H   0  0  0  0  0  0  0  0  0  0  0  0
   46.1076   33.1931   40.4399 H   0  0  0  0  0  0  0  0  0  0  0  0
   45.5360   32.1480   38.2910 H   0  0  0  0  0  0  0  0  0  0  0  0
   48.6797   34.2216   36.4089 H   0  0  0  0  0  0  0  0  0  0  0  0
  1 14  1  0
  1  5  1  0
  2 11  1  0
  3  2  2  0
  4  5  1  0
  4  3  1  0
  5  6  2  0
  6  2  1  0
  7  8  2  0
  9  8  1  0
 10  9  2  0
 11 12  2  0
 11 10  1  0
 12  7  1  0
 13  1  1  0
 15  1  1  0
 16 15  1  0
 17 16  2  0
 18 17  1  0
 19 20  1  0
 19 18  2  0
 20 21  2  0
 21 16  1  0
  3 22  1  0
  7 23  1  0
  8 24  1  0
  9 25  1  0
 13 26  1  0
 13 27  1  0
 13 28  1  0
 14 29  1  0
 14 30  1  0
 14 31  1  0
 15 32  1  0
 15 33  1  0
 17 34  1  0
 18 35  1  0
 20 36  1  0
M  ISO  8  22  14  23  14  24  14  25  14  26   8  27   8  28   8  29   8
M  ISO  7  30   8  31   8  32   8  33   8  34  14  35  14  36  14
M  END
>  <minimizedAffinity>  (1) 
-5.57536221

>  <minimizedRMSD>  (1) 
0.84760505

$$$$
