
     RDKit          3D

 35 37  0  0  0  0  0  0  0  0999 V2000
   48.7950   34.1930   41.9710 C   0  0  0  0  0  0  0  0  0  0  0  0
   46.5170   33.5220   44.7660 C   0  0  0  0  0  0  0  0  0  0  0  0
   45.4510   34.3750   44.4130 C   0  0  0  0  0  0  0  0  0  0  0  0
   46.1170   35.1180   42.8170 S   0  0  0  0  0  0  0  0  0  0  0  0
   47.7130   34.1080   42.9630 C   0  0  0  0  0  0  0  0  0  0  0  0
   47.5210   33.5530   43.9090 N   0  0  0  0  0  0  0  0  0  0  0  0
   47.1100   30.9370   47.2750 C   0  0  0  0  0  0  0  0  0  0  0  0
   46.1840   31.2580   48.2830 C   0  0  0  0  0  0  0  0  0  0  0  0
   45.3650   32.3530   48.0970 C   0  0  0  0  0  0  0  0  0  0  0  0
   45.5060   33.0630   46.9390 N   0  0  0  0  0  0  0  0  0  0  0  0
   46.4050   32.7280   45.9900 C   0  0  0  0  0  0  0  0  0  0  0  0
   47.2070   31.6820   46.1400 N   0  0  0  0  0  0  0  0  0  0  0  0
   49.0500   32.8430   41.3820 C   0  0  0  0  0  0  0  0  0  0  0  0
   50.0500   34.7480   42.6270 C   0  0  0  0  0  0  0  0  0  0  0  0
   48.4350   35.1360   40.8340 C   0  0  0  0  0  0  0  0  0  0  0  0
   47.8050   34.4400   39.6860 C   0  0  0  0  0  0  0  0  0  0  0  0
   48.3750   34.4520   38.4080 C   0  0  0  0  0  0  0  0  0  0  0  0
   47.6190   33.7420   37.5000 C   0  0  0  0  0  0  0  0  0  0  0  0
   46.5890   33.2990   38.2430 N   0  0  0  0  0  0  0  0  0  0  0  0
   46.7000   33.7000   39.4870 N   0  0  0  0  0  0  0  0  0  0  0  0
   44.4957   34.5559   44.9274 H   0  0  0  0  0  0  0  0  0  0  0  0
   47.7693   30.0663   47.4062 H   0  0  0  0  0  0  0  0  0  0  0  0
   46.1140   30.6511   49.1977 H   0  0  0  0  0  0  0  0  0  0  0  0
   44.6237   32.6441   48.8558 H   0  0  0  0  0  0  0  0  0  0  0  0
   49.1884   32.1103   42.1907 H   0  0  0  0  0  0  0  0  0  0  0  0
   48.1921   32.5459   40.7609 H   0  0  0  0  0  0  0  0  0  0  0  0
   49.9572   32.8793   40.7609 H   0  0  0  0  0  0  0  0  0  0  0  0
   49.9435   34.7009   43.7208 H   0  0  0  0  0  0  0  0  0  0  0  0
   50.9203   34.1508   42.3173 H   0  0  0  0  0  0  0  0  0  0  0  0
   50.1938   35.7937   42.3173 H   0  0  0  0  0  0  0  0  0  0  0  0
   47.7329   35.8927   41.2142 H   0  0  0  0  0  0  0  0  0  0  0  0
   49.3694   35.5903   40.4728 H   0  0  0  0  0  0  0  0  0  0  0  0
   49.3144   34.9667   38.1578 H   0  0  0  0  0  0  0  0  0  0  0  0
   47.8111   33.5778   36.4294 H   0  0  0  0  0  0  0  0  0  0  0  0
   45.8158   32.7216   37.8830 H   0  0  0  0  0  0  0  0  0  0  0  0
  1 14  1  0
  1  5  1  0
  2 11  1  0
  3  2  2  0
  4  5  1  0
  4  3  1  0
  5  6  2  0
  6  2  1  0
  7  8  2  0
  9  8  1  0
 10  9  2  0
 11 12  2  0
 11 10  1  0
 12  7  1  0
 13  1  1  0
 15  1  1  0
 16 15  1  0
 17 16  1  0
 18 19  1  0
 18 17  2  0
 19 20  1  0
 20 16  2  0
  3 21  1  0
  7 22  1  0
  8 23  1  0
  9 24  1  0
 13 25  1  0
 13 26  1  0
 13 27  1  0
 14 28  1  0
 14 29  1  0
 14 30  1  0
 15 31  1  0
 15 32  1  0
 17 33  1  0
 18 34  1  0
 19 35  1  0
M  ISO  8  21  14  22  14  23  14  24  14  25   8  26   8  27   8  28   8
M  ISO  7  29   8  30   8  31   8  32   8  33  14  34  14  35   9
M  END
>  <minimizedAffinity>  (1) 
-5.43830872

>  <minimizedRMSD>  (1) 
0.748467326

$$$$
