
     RDKit          3D

 29 30  0  0  0  0  0  0  0  0999 V2000
   46.3840   33.7820   44.5560 C   0  0  0  0  0  0  0  0  0  0  0  0
   45.2710   34.5990   44.2390 C   0  0  0  0  0  0  0  0  0  0  0  0
   45.8560   35.3820   42.6340 S   0  0  0  0  0  0  0  0  0  0  0  0
   47.5040   34.4290   42.7280 C   0  0  0  0  0  0  0  0  0  0  0  0
   47.3610   33.8640   43.6660 N   0  0  0  0  0  0  0  0  0  0  0  0
   47.1300   31.1660   46.9830 C   0  0  0  0  0  0  0  0  0  0  0  0
   46.2390   31.4660   48.0340 C   0  0  0  0  0  0  0  0  0  0  0  0
   45.3900   32.5540   47.9180 C   0  0  0  0  0  0  0  0  0  0  0  0
   45.4870   33.2620   46.7640 N   0  0  0  0  0  0  0  0  0  0  0  0
   46.3280   32.9780   45.7720 C   0  0  0  0  0  0  0  0  0  0  0  0
   47.1610   31.9330   45.8590 N   0  0  0  0  0  0  0  0  0  0  0  0
   48.5390   34.5810   41.6900 C   0  0  0  0  0  0  0  0  0  0  0  0
   49.6390   33.6130   41.9610 C   0  0  0  0  0  0  0  0  0  0  0  0
   49.0530   36.0180   41.6980 C   0  0  0  0  0  0  0  0  0  0  0  0
   47.9880   34.3310   40.2950 C   0  0  0  0  0  0  0  0  0  0  0  0
   48.4500   32.7410   39.6240 S   0  0  0  0  0  0  0  0  0  0  0  0
   44.3248   34.7371   44.7827 H   0  0  0  0  0  0  0  0  0  0  0  0
   47.8068   30.3035   47.0724 H   0  0  0  0  0  0  0  0  0  0  0  0
   46.2185   30.8408   48.9388 H   0  0  0  0  0  0  0  0  0  0  0  0
   44.6803   32.8277   48.7126 H   0  0  0  0  0  0  0  0  0  0  0  0
   49.7681   33.4994   43.0475 H   0  0  0  0  0  0  0  0  0  0  0  0
   49.3871   32.6383   41.5178 H   0  0  0  0  0  0  0  0  0  0  0  0
   50.5738   33.9868   41.5178 H   0  0  0  0  0  0  0  0  0  0  0  0
   49.1747   36.3581   42.7370 H   0  0  0  0  0  0  0  0  0  0  0  0
   50.0231   36.0633   41.1814 H   0  0  0  0  0  0  0  0  0  0  0  0
   48.3317   36.6683   41.1814 H   0  0  0  0  0  0  0  0  0  0  0  0
   46.8902   34.3853   40.3388 H   0  0  0  0  0  0  0  0  0  0  0  0
   48.4163   35.0991   39.6343 H   0  0  0  0  0  0  0  0  0  0  0  0
   48.7035   31.8687   40.6496 H   0  0  0  0  0  0  0  0  0  0  0  0
  1 10  1  0
  2  1  2  0
  3  4  1  0
  3  2  1  0
  4  5  2  0
  5  1  1  0
  6  7  2  0
  8  7  1  0
  9  8  2  0
 10 11  2  0
 10  9  1  0
 11  6  1  0
 12 14  1  0
 12 13  1  0
 12  4  1  0
 15 12  1  0
 16 15  1  0
  2 17  1  0
  6 18  1  0
  7 19  1  0
  8 20  1  0
 13 21  1  0
 13 22  1  0
 13 23  1  0
 14 24  1  0
 14 25  1  0
 14 26  1  0
 15 27  1  0
 15 28  1  0
 16 29  1  0
M  ISO  8  17  14  18  14  19  14  20  14  21   8  22   8  23   8  24   8
M  ISO  5  25   8  26   8  27   8  28   8  29  11
M  END
>  <minimizedAffinity>  (1) 
-4.71974277

>  <minimizedRMSD>  (1) 
0.746325552

$$$$
