
     RDKit          3D

 33 34  0  0  0  0  0  0  0  0999 V2000
   48.3220   34.4240   41.6490 C   0  0  0  0  0  0  0  0  0  0  0  0
   46.3130   33.8010   44.6800 C   0  0  0  0  0  0  0  0  0  0  0  0
   45.2400   34.6670   44.4270 C   0  0  0  0  0  0  0  0  0  0  0  0
   45.7530   35.3970   42.7630 S   0  0  0  0  0  0  0  0  0  0  0  0
   47.3380   34.3610   42.7560 C   0  0  0  0  0  0  0  0  0  0  0  0
   47.2210   33.8170   43.7250 N   0  0  0  0  0  0  0  0  0  0  0  0
   47.2360   31.3110   47.1680 C   0  0  0  0  0  0  0  0  0  0  0  0
   46.2890   31.5450   48.2110 C   0  0  0  0  0  0  0  0  0  0  0  0
   45.3640   32.5430   48.0370 C   0  0  0  0  0  0  0  0  0  0  0  0
   45.4140   33.2460   46.8710 N   0  0  0  0  0  0  0  0  0  0  0  0
   46.2970   33.0300   45.8970 C   0  0  0  0  0  0  0  0  0  0  0  0
   47.2090   32.0590   46.0470 N   0  0  0  0  0  0  0  0  0  0  0  0
   49.3540   33.3890   41.8620 C   0  0  0  0  0  0  0  0  0  0  0  0
   48.9130   35.8140   41.5770 C   0  0  0  0  0  0  0  0  0  0  0  0
   47.6570   34.1570   40.3040 C   0  0  0  0  0  0  0  0  0  0  0  0
   48.2860   34.7960   39.2580 O   0  0  0  0  0  0  0  0  0  0  0  0
   48.5440   34.1910   38.0430 C   0  0  0  0  0  0  0  0  0  0  0  0
   49.4030   33.0780   38.0370 N   0  0  0  0  0  0  0  0  0  0  0  0
   48.0070   34.6590   37.0240 O   0  0  0  0  0  0  0  0  0  0  0  0
   44.3437   34.8667   45.0327 H   0  0  0  0  0  0  0  0  0  0  0  0
   47.9899   30.5178   47.2798 H   0  0  0  0  0  0  0  0  0  0  0  0
   46.3010   30.9407   49.1301 H   0  0  0  0  0  0  0  0  0  0  0  0
   44.6120   32.7667   48.8080 H   0  0  0  0  0  0  0  0  0  0  0  0
   49.5046   33.2380   42.9411 H   0  0  0  0  0  0  0  0  0  0  0  0
   49.0270   32.4449   41.4018 H   0  0  0  0  0  0  0  0  0  0  0  0
   50.2990   33.7133   41.4018 H   0  0  0  0  0  0  0  0  0  0  0  0
   49.0756   36.1965   42.5955 H   0  0  0  0  0  0  0  0  0  0  0  0
   49.8732   35.7769   41.0416 H   0  0  0  0  0  0  0  0  0  0  0  0
   48.2201   36.4798   41.0416 H   0  0  0  0  0  0  0  0  0  0  0  0
   47.6727   33.0737   40.1138 H   0  0  0  0  0  0  0  0  0  0  0  0
   46.6305   34.5483   40.3602 H   0  0  0  0  0  0  0  0  0  0  0  0
   49.6199   32.5996   37.1510 H   0  0  0  0  0  0  0  0  0  0  0  0
   49.8154   32.7410   38.9186 H   0  0  0  0  0  0  0  0  0  0  0  0
  1 13  1  0
  1  5  1  0
  2 11  1  0
  3  2  2  0
  4  3  1  0
  5  4  1  0
  5  6  2  0
  6  2  1  0
  7  8  2  0
  9  8  1  0
 10  9  2  0
 11 12  2  0
 11 10  1  0
 12  7  1  0
 14  1  1  0
 15  1  1  0
 16 15  1  0
 17 16  1  0
 18 17  1  0
 19 17  2  0
  3 20  1  0
  7 21  1  0
  8 22  1  0
  9 23  1  0
 13 24  1  0
 13 25  1  0
 13 26  1  0
 14 27  1  0
 14 28  1  0
 14 29  1  0
 15 30  1  0
 15 31  1  0
 18 32  1  0
 18 33  1  0
M  ISO  8  20  14  21  14  22  14  23  14  24   8  25   8  26   8  27   8
M  ISO  4  28   8  29   8  30   8  31   8
M  END
>  <minimizedAffinity>  (1) 
-5.17486477

>  <minimizedRMSD>  (1) 
1.3478868

$$$$
