
     RDKit          3D

 50 54  0  0  1  0  0  0  0  0999 V2000
   47.3580   34.1690   40.1750 C   0  0  0  0  0  0  0  0  0  0  0  0
   48.0680   34.3810   41.4770 C   0  0  0  0  0  0  0  0  0  0  0  0
   46.2580   33.8080   44.6190 C   0  0  0  0  0  0  0  0  0  0  0  0
   45.2140   34.7470   44.4330 C   0  0  0  0  0  0  0  0  0  0  0  0
   45.6700   35.4520   42.7590 S   0  0  0  0  0  0  0  0  0  0  0  0
   47.1940   34.3270   42.6460 C   0  0  0  0  0  0  0  0  0  0  0  0
   47.1180   33.7740   43.6120 N   0  0  0  0  0  0  0  0  0  0  0  0
   47.1920   31.2860   47.0510 C   0  0  0  0  0  0  0  0  0  0  0  0
   46.3000   31.5230   48.1250 C   0  0  0  0  0  0  0  0  0  0  0  0
   45.3990   32.5420   47.9950 C   0  0  0  0  0  0  0  0  0  0  0  0
   45.4260   33.2580   46.8370 N   0  0  0  0  0  0  0  0  0  0  0  0
   46.2710   33.0290   45.8280 C   0  0  0  0  0  0  0  0  0  0  0  0
   47.1680   32.0390   45.9220 N   0  0  0  0  0  0  0  0  0  0  0  0
   49.0680   33.2480   41.5920 C   0  0  0  0  0  0  0  0  0  0  0  0
   48.7990   35.6940   41.4360 C   0  0  0  0  0  0  0  0  0  0  0  0
   48.1340   34.4640   39.0720 O   0  0  0  0  0  0  0  0  0  0  0  0
   48.1470   33.4440   38.1570 C   0  0  2  0  0  0  0  0  0  0  0  0
   49.4870   33.0000   37.6140 C   0  0  0  0  0  0  0  0  0  0  0  0
   48.4330   33.5560   36.7390 C   0  0  1  0  0  0  0  0  0  0  0  0
   47.8080   32.5500   35.8710 N   0  0  0  0  0  0  0  0  0  0  0  0
   46.9030   31.6320   36.3140 C   0  0  0  0  0  0  0  0  0  0  0  0
   46.4800   30.8240   35.3260 N   0  0  0  0  0  0  0  0  0  0  0  0
   47.1290   31.2270   34.2150 C   0  0  0  0  0  0  0  0  0  0  0  0
   47.1080   30.7860   32.9060 C   0  0  0  0  0  0  0  0  0  0  0  0
   46.3650   29.8310   32.6370 O   0  0  0  0  0  0  0  0  0  0  0  0
   47.9070   31.4380   32.0240 N   0  0  0  0  0  0  0  0  0  0  0  0
   48.6990   32.4730   32.3720 C   0  0  0  0  0  0  0  0  0  0  0  0
   49.4350   32.9810   31.2660 N   0  0  0  0  0  0  0  0  0  0  0  0
   48.7140   32.9020   33.6600 N   0  0  0  0  0  0  0  0  0  0  0  0
   47.9390   32.2870   34.5680 C   0  0  0  0  0  0  0  0  0  0  0  0
   47.0510   33.1145   40.1131 H   0  0  0  0  0  0  0  0  0  0  0  0
   46.4980   34.8546   40.1592 H   0  0  0  0  0  0  0  0  0  0  0  0
   44.3679   34.9942   45.0910 H   0  0  0  0  0  0  0  0  0  0  0  0
   47.9243   30.4694   47.1340 H   0  0  0  0  0  0  0  0  0  0  0  0
   46.3314   30.9062   49.0353 H   0  0  0  0  0  0  0  0  0  0  0  0
   44.6801   32.7748   48.7944 H   0  0  0  0  0  0  0  0  0  0  0  0
   49.2579   33.0329   42.6539 H   0  0  0  0  0  0  0  0  0  0  0  0
   48.6626   32.3501   41.1028 H   0  0  0  0  0  0  0  0  0  0  0  0
   50.0094   33.5387   41.1028 H   0  0  0  0  0  0  0  0  0  0  0  0
   48.9910   36.0390   42.4627 H   0  0  0  0  0  0  0  0  0  0  0  0
   49.7551   35.5650   40.9076 H   0  0  0  0  0  0  0  0  0  0  0  0
   48.1857   36.4388   40.9076 H   0  0  0  0  0  0  0  0  0  0  0  0
   47.2853   33.0202   38.6936 H   0  0  0  0  0  0  0  0  0  0  0  0
   50.3945   33.5830   37.8297 H   0  0  0  0  0  0  0  0  0  0  0  0
   50.0831   32.0760   37.6423 H   0  0  0  0  0  0  0  0  0  0  0  0
   48.3670   34.3889   36.0235 H   0  0  0  0  0  0  0  0  0  0  0  0
   46.5594   31.5606   37.3565 H   0  0  0  0  0  0  0  0  0  0  0  0
   47.9088   31.1278   31.0418 H   0  0  0  0  0  0  0  0  0  0  0  0
   50.0790   33.7742   31.3966 H   0  0  0  0  0  0  0  0  0  0  0  0
   49.3240   32.5557   30.3345 H   0  0  0  0  0  0  0  0  0  0  0  0
  1  2  1  0
  2 14  1  0
  2  6  1  0
  3 12  1  0
  4  3  2  0
  5  4  1  0
  6  5  1  0
  6  7  2  0
  7  3  1  0
  8  9  2  0
 10  9  1  0
 11 10  2  0
 12 13  2  0
 12 11  1  0
 13  8  1  0
 15  2  1  0
 16  1  1  0
 17 16  1  0
 18 17  1  0
 19 18  1  0
 19 17  1  0
 20 21  1  0
 20 19  1  0
 22 21  2  0
 23 30  2  0
 23 22  1  0
 24 23  1  0
 25 24  2  0
 26 27  1  0
 26 24  1  0
 27 29  2  0
 28 27  1  0
 29 30  1  0
 30 20  1  0
  1 31  1  0
  1 32  1  0
  4 33  1  0
  8 34  1  0
  9 35  1  0
 10 36  1  0
 14 37  1  0
 14 38  1  0
 14 39  1  0
 15 40  1  0
 15 41  1  0
 15 42  1  0
 17 43  1  6
 18 44  1  0
 18 45  1  0
 19 46  1  6
 21 47  1  0
 26 48  1  0
 28 49  1  0
 28 50  1  0
M  ISO  8  31   8  32   8  33  14  34  14  35  14  36  14  37   8  38   8
M  ISO  8  39   8  40   8  41   8  42   8  43  13  44  13  45  13  46  13
M  ISO  2  47  14  48   9
M  END
>  <minimizedAffinity>  (1) 
-6.8127985

>  <minimizedRMSD>  (1) 
1.58914542

$$$$
