
     RDKit          3D

 46 49  0  0  1  0  0  0  0  0999 V2000
   48.1020   34.4900   41.6960 C   0  0  0  0  0  0  0  0  0  0  0  0
   46.2120   33.8730   44.7810 C   0  0  0  0  0  0  0  0  0  0  0  0
   45.1250   34.7550   44.5530 C   0  0  0  0  0  0  0  0  0  0  0  0
   45.6070   35.4670   42.8690 S   0  0  0  0  0  0  0  0  0  0  0  0
   47.1850   34.4140   42.8320 C   0  0  0  0  0  0  0  0  0  0  0  0
   47.0940   33.8740   43.8050 N   0  0  0  0  0  0  0  0  0  0  0  0
   47.2290   31.4670   47.3100 C   0  0  0  0  0  0  0  0  0  0  0  0
   46.2570   31.6370   48.3180 C   0  0  0  0  0  0  0  0  0  0  0  0
   45.2680   32.5770   48.1140 C   0  0  0  0  0  0  0  0  0  0  0  0
   45.3000   33.2730   46.9550 N   0  0  0  0  0  0  0  0  0  0  0  0
   46.2210   33.1100   46.0020 C   0  0  0  0  0  0  0  0  0  0  0  0
   47.2030   32.2040   46.1600 N   0  0  0  0  0  0  0  0  0  0  0  0
   49.1090   33.3650   41.8200 C   0  0  0  0  0  0  0  0  0  0  0  0
   48.8280   35.8090   41.6980 C   0  0  0  0  0  0  0  0  0  0  0  0
   47.4380   34.3030   40.3670 C   0  0  0  0  0  0  0  0  0  0  0  0
   48.2820   34.5050   39.2930 O   0  0  0  0  0  0  0  0  0  0  0  0
   48.1740   33.5120   38.3560 C   0  0  2  0  0  0  0  0  0  0  0  0
   49.3370   32.5590   38.1920 C   0  0  0  0  0  0  0  0  0  0  0  0
   48.8870   33.4390   37.0930 C   0  0  1  0  0  0  0  0  0  0  0  0
   48.1040   32.8440   35.9510 C   0  0  0  0  0  0  0  0  0  0  0  0
   48.6820   32.6700   34.7090 C   0  0  0  0  0  0  0  0  0  0  0  0
   48.0330   32.1340   33.6170 C   0  0  0  0  0  0  0  0  0  0  0  0
   46.7210   31.7440   33.7690 C   0  0  0  0  0  0  0  0  0  0  0  0
   46.1000   31.9000   34.9970 C   0  0  0  0  0  0  0  0  0  0  0  0
   46.7920   32.4370   36.0440 C   0  0  0  0  0  0  0  0  0  0  0  0
   44.2466   34.9660   45.1807 H   0  0  0  0  0  0  0  0  0  0  0  0
   48.0268   30.7234   47.4533 H   0  0  0  0  0  0  0  0  0  0  0  0
   46.2867   31.0376   49.2398 H   0  0  0  0  0  0  0  0  0  0  0  0
   44.4838   32.7535   48.8650 H   0  0  0  0  0  0  0  0  0  0  0  0
   49.2961   33.1560   42.8836 H   0  0  0  0  0  0  0  0  0  0  0  0
   48.7118   32.4621   41.3332 H   0  0  0  0  0  0  0  0  0  0  0  0
   50.0502   33.6601   41.3332 H   0  0  0  0  0  0  0  0  0  0  0  0
   49.0041   36.1290   42.7356 H   0  0  0  0  0  0  0  0  0  0  0  0
   49.7920   35.6977   41.1799 H   0  0  0  0  0  0  0  0  0  0  0  0
   48.2183   36.5639   41.1799 H   0  0  0  0  0  0  0  0  0  0  0  0
   47.0486   33.2756   40.3146 H   0  0  0  0  0  0  0  0  0  0  0  0
   46.6406   35.0574   40.2964 H   0  0  0  0  0  0  0  0  0  0  0  0
   47.1002   33.4761   38.5918 H   0  0  0  0  0  0  0  0  0  0  0  0
   50.2909   32.7537   38.7041 H   0  0  0  0  0  0  0  0  0  0  0  0
   49.4959   31.4784   38.3227 H   0  0  0  0  0  0  0  0  0  0  0  0
   49.4212   34.1501   36.4457 H   0  0  0  0  0  0  0  0  0  0  0  0
   49.7299   32.9796   34.5825 H   0  0  0  0  0  0  0  0  0  0  0  0
   48.5485   32.0211   32.6518 H   0  0  0  0  0  0  0  0  0  0  0  0
   46.1700   31.3115   32.9208 H   0  0  0  0  0  0  0  0  0  0  0  0
   45.0522   31.5921   35.1283 H   0  0  0  0  0  0  0  0  0  0  0  0
   46.2763   32.5501   37.0090 H   0  0  0  0  0  0  0  0  0  0  0  0
  1 14  1  0
  1 13  1  0
  1  5  1  0
  2 11  1  0
  3  2  2  0
  4  3  1  0
  5  4  1  0
  5  6  2  0
  6  2  1  0
  7  8  2  0
  9  8  1  0
 10  9  2  0
 11 12  2  0
 11 10  1  0
 12  7  1  0
 15  1  1  0
 16 15  1  0
 17 16  1  0
 18 17  1  0
 19 18  1  0
 19 17  1  0
 20 25  1  0
 20 19  1  0
 21 20  2  0
 22 23  2  0
 22 21  1  0
 23 24  1  0
 24 25  2  0
  3 26  1  0
  7 27  1  0
  8 28  1  0
  9 29  1  0
 13 30  1  0
 13 31  1  0
 13 32  1  0
 14 33  1  0
 14 34  1  0
 14 35  1  0
 15 36  1  0
 15 37  1  0
 17 38  1  6
 18 39  1  0
 18 40  1  0
 19 41  1  6
 21 42  1  0
 22 43  1  0
 23 44  1  0
 24 45  1  0
 25 46  1  0
M  ISO  8  26  14  27  14  28  14  29  14  30   8  31   8  32   8  33   8
M  ISO  8  34   8  35   8  36   8  37   8  38  13  39  13  40  13  41  13
M  ISO  5  42  14  43  14  44  14  45  14  46  14
M  END
>  <minimizedAffinity>  (1) 
-5.67755699

>  <minimizedRMSD>  (1) 
1.4113636

$$$$
