
     RDKit          3D

 43 46  0  0  1  0  0  0  0  0999 V2000
   47.9770   34.0780   42.1260 C   0  0  0  0  0  0  0  0  0  0  0  0
   46.2530   33.4930   45.3110 C   0  0  0  0  0  0  0  0  0  0  0  0
   45.1800   34.3970   45.1510 C   0  0  0  0  0  0  0  0  0  0  0  0
   45.5690   35.1100   43.4480 S   0  0  0  0  0  0  0  0  0  0  0  0
   47.1250   34.0180   43.3120 C   0  0  0  0  0  0  0  0  0  0  0  0
   47.0840   33.4750   44.2810 N   0  0  0  0  0  0  0  0  0  0  0  0
   47.4280   31.1160   47.8020 C   0  0  0  0  0  0  0  0  0  0  0  0
   46.4920   31.2520   48.8440 C   0  0  0  0  0  0  0  0  0  0  0  0
   45.4640   32.1600   48.6770 C   0  0  0  0  0  0  0  0  0  0  0  0
   45.4300   32.8600   47.5110 N   0  0  0  0  0  0  0  0  0  0  0  0
   46.3180   32.7300   46.5240 C   0  0  0  0  0  0  0  0  0  0  0  0
   47.3380   31.8490   46.6560 N   0  0  0  0  0  0  0  0  0  0  0  0
   48.7910   32.8170   42.0410 C   0  0  0  0  0  0  0  0  0  0  0  0
   48.9050   35.2770   42.2250 C   0  0  0  0  0  0  0  0  0  0  0  0
   47.2070   34.1930   40.8380 C   0  0  0  0  0  0  0  0  0  0  0  0
   48.0160   34.4160   39.7390 O   0  0  0  0  0  0  0  0  0  0  0  0
   47.8560   33.4660   38.7650 C   0  0  2  0  0  0  0  0  0  0  0  0
   49.0760   32.7010   38.2950 C   0  0  0  0  0  0  0  0  0  0  0  0
   48.2950   33.5730   37.3880 C   0  0  1  0  0  0  0  0  0  0  0  0
   47.5340   32.9300   36.2960 C   0  0  0  0  0  0  0  0  0  0  0  0
   46.2440   32.4970   35.9570 C   0  0  0  0  0  0  0  0  0  0  0  0
   46.0410   31.9220   34.7430 C   0  0  0  0  0  0  0  0  0  0  0  0
   47.1670   31.7660   33.8070 C   0  0  0  0  0  0  0  0  0  0  0  0
   48.5810   32.5030   34.7790 S   0  0  0  0  0  0  0  0  0  0  0  0
   44.3464   34.6233   45.8321 H   0  0  0  0  0  0  0  0  0  0  0  0
   48.2545   30.3990   47.9152 H   0  0  0  0  0  0  0  0  0  0  0  0
   46.5762   30.6538   49.7633 H   0  0  0  0  0  0  0  0  0  0  0  0
   44.7027   32.3110   49.4565 H   0  0  0  0  0  0  0  0  0  0  0  0
   49.0213   32.4602   43.0557 H   0  0  0  0  0  0  0  0  0  0  0  0
   48.2191   32.0470   41.5026 H   0  0  0  0  0  0  0  0  0  0  0  0
   49.7282   33.0212   41.5026 H   0  0  0  0  0  0  0  0  0  0  0  0
   49.0876   35.5129   43.2838 H   0  0  0  0  0  0  0  0  0  0  0  0
   49.8599   35.0433   41.7314 H   0  0  0  0  0  0  0  0  0  0  0  0
   48.4394   36.1428   41.7314 H   0  0  0  0  0  0  0  0  0  0  0  0
   46.6503   33.2578   40.6786 H   0  0  0  0  0  0  0  0  0  0  0  0
   46.5375   35.0606   40.9331 H   0  0  0  0  0  0  0  0  0  0  0  0
   46.8709   33.2551   39.2068 H   0  0  0  0  0  0  0  0  0  0  0  0
   50.0815   33.0010   38.6252 H   0  0  0  0  0  0  0  0  0  0  0  0
   49.3983   31.6493   38.2966 H   0  0  0  0  0  0  0  0  0  0  0  0
   48.5227   34.4337   36.7420 H   0  0  0  0  0  0  0  0  0  0  0  0
   45.4096   32.6210   36.6630 H   0  0  0  0  0  0  0  0  0  0  0  0
   45.0369   31.5735   34.4596 H   0  0  0  0  0  0  0  0  0  0  0  0
   47.1735   31.3289   32.7976 H   0  0  0  0  0  0  0  0  0  0  0  0
  1 14  1  0
  1  5  1  0
  2 11  1  0
  3  2  2  0
  4  3  1  0
  5  4  1  0
  5  6  2  0
  6  2  1  0
  7  8  2  0
  9  8  1  0
 10  9  2  0
 11 12  2  0
 11 10  1  0
 12  7  1  0
 13  1  1  0
 15  1  1  0
 16 15  1  0
 17 16  1  0
 18 17  1  0
 19 18  1  0
 19 17  1  0
 20 19  1  0
 21 20  2  0
 22 21  1  0
 23 22  2  0
 23 24  1  0
 24 20  1  0
  3 25  1  0
  7 26  1  0
  8 27  1  0
  9 28  1  0
 13 29  1  0
 13 30  1  0
 13 31  1  0
 14 32  1  0
 14 33  1  0
 14 34  1  0
 15 35  1  0
 15 36  1  0
 17 37  1  6
 18 38  1  0
 18 39  1  0
 19 40  1  6
 21 41  1  0
 22 42  1  0
 23 43  1  0
M  ISO  8  25  14  26  14  27  14  28  14  29   8  30   8  31   8  32   8
M  ISO  8  33   8  34   8  35   8  36   8  37  13  38  13  39  13  40  13
M  ISO  3  41  14  42  14  43  14
M  END
>  <minimizedAffinity>  (1) 
-5.30340338

>  <minimizedRMSD>  (1) 
1.01067352

$$$$
