
     RDKit          3D

 48 51  0  0  1  0  0  0  0  0999 V2000
   48.1080   34.4380   41.5990 C   0  0  0  0  0  0  0  0  0  0  0  0
   46.2300   33.8360   44.7010 C   0  0  0  0  0  0  0  0  0  0  0  0
   45.1740   34.7410   44.4990 C   0  0  0  0  0  0  0  0  0  0  0  0
   45.6510   35.4560   42.8300 S   0  0  0  0  0  0  0  0  0  0  0  0
   47.2030   34.3690   42.7450 C   0  0  0  0  0  0  0  0  0  0  0  0
   47.1120   33.8210   43.7100 N   0  0  0  0  0  0  0  0  0  0  0  0
   47.2340   31.3610   47.1750 C   0  0  0  0  0  0  0  0  0  0  0  0
   46.3230   31.5730   48.2290 C   0  0  0  0  0  0  0  0  0  0  0  0
   45.3870   32.5500   48.0700 C   0  0  0  0  0  0  0  0  0  0  0  0
   45.3820   33.2680   46.9040 N   0  0  0  0  0  0  0  0  0  0  0  0
   46.2580   33.0530   45.9090 C   0  0  0  0  0  0  0  0  0  0  0  0
   47.1950   32.1000   46.0260 N   0  0  0  0  0  0  0  0  0  0  0  0
   49.1190   33.3320   41.7120 C   0  0  0  0  0  0  0  0  0  0  0  0
   48.8140   35.7780   41.5830 C   0  0  0  0  0  0  0  0  0  0  0  0
   47.4120   34.2660   40.2740 C   0  0  0  0  0  0  0  0  0  0  0  0
   48.2550   34.4270   39.1920 O   0  0  0  0  0  0  0  0  0  0  0  0
   48.1160   33.4220   38.2710 C   0  0  2  0  0  0  0  0  0  0  0  0
   49.3030   32.5370   37.9640 C   0  0  0  0  0  0  0  0  0  0  0  0
   48.6980   33.4030   36.9390 C   0  0  1  0  0  0  0  0  0  0  0  0
   47.8490   32.9250   35.8790 N   0  0  0  0  0  0  0  0  0  0  0  0
   48.6600   32.6820   34.7260 C   0  0  0  0  0  0  0  0  0  0  0  0
   48.7870   31.1840   34.5750 C   0  0  0  0  0  0  0  0  0  0  0  0
   47.6410   30.6190   35.3740 C   0  0  0  0  0  0  0  0  0  0  0  0
   47.0830   31.7640   36.1880 C   0  0  0  0  0  0  0  0  0  0  0  0
   44.3092   34.9673   45.1400 H   0  0  0  0  0  0  0  0  0  0  0  0
   47.9990   30.5776   47.2801 H   0  0  0  0  0  0  0  0  0  0  0  0
   46.3662   30.9705   49.1483 H   0  0  0  0  0  0  0  0  0  0  0  0
   44.6513   32.7576   48.8610 H   0  0  0  0  0  0  0  0  0  0  0  0
   49.3131   33.1197   42.7737 H   0  0  0  0  0  0  0  0  0  0  0  0
   48.7291   32.4274   41.2225 H   0  0  0  0  0  0  0  0  0  0  0  0
   50.0549   33.6393   41.2225 H   0  0  0  0  0  0  0  0  0  0  0  0
   48.9900   36.1121   42.6162 H   0  0  0  0  0  0  0  0  0  0  0  0
   49.7770   35.6789   41.0606 H   0  0  0  0  0  0  0  0  0  0  0  0
   48.1877   36.5162   41.0606 H   0  0  0  0  0  0  0  0  0  0  0  0
   46.9811   33.2547   40.2341 H   0  0  0  0  0  0  0  0  0  0  0  0
   46.6402   35.0468   40.2062 H   0  0  0  0  0  0  0  0  0  0  0  0
   47.0820   33.3134   38.6303 H   0  0  0  0  0  0  0  0  0  0  0  0
   50.2942   32.7755   38.3770 H   0  0  0  0  0  0  0  0  0  0  0  0
   49.5304   31.4646   38.0549 H   0  0  0  0  0  0  0  0  0  0  0  0
   49.1569   34.1220   36.2444 H   0  0  0  0  0  0  0  0  0  0  0  0
   48.1830   33.1115   33.8327 H   0  0  0  0  0  0  0  0  0  0  0  0
   49.6500   33.1477   34.8405 H   0  0  0  0  0  0  0  0  0  0  0  0
   48.7033   30.8925   33.5176 H   0  0  0  0  0  0  0  0  0  0  0  0
   49.7611   30.8121   34.9253 H   0  0  0  0  0  0  0  0  0  0  0  0
   46.8686   30.2189   34.7007 H   0  0  0  0  0  0  0  0  0  0  0  0
   47.9744   29.7946   36.0215 H   0  0  0  0  0  0  0  0  0  0  0  0
   47.1638   31.5358   37.2610 H   0  0  0  0  0  0  0  0  0  0  0  0
   46.0215   31.9265   35.9496 H   0  0  0  0  0  0  0  0  0  0  0  0
  1 13  1  0
  1  5  1  0
  2 11  1  0
  3  2  2  0
  4  3  1  0
  5  4  1  0
  5  6  2  0
  6  2  1  0
  7  8  2  0
  9  8  1  0
 10  9  2  0
 11 12  2  0
 11 10  1  0
 12  7  1  0
 14  1  1  0
 15  1  1  0
 16 15  1  0
 17 16  1  0
 18 17  1  0
 19 18  1  0
 19 17  1  0
 20 21  1  0
 20 24  1  0
 20 19  1  0
 22 21  1  0
 22 23  1  0
 23 24  1  0
  3 25  1  0
  7 26  1  0
  8 27  1  0
  9 28  1  0
 13 29  1  0
 13 30  1  0
 13 31  1  0
 14 32  1  0
 14 33  1  0
 14 34  1  0
 15 35  1  0
 15 36  1  0
 17 37  1  6
 18 38  1  0
 18 39  1  0
 19 40  1  6
 21 41  1  0
 21 42  1  0
 22 43  1  0
 22 44  1  0
 23 45  1  0
 23 46  1  0
 24 47  1  0
 24 48  1  0
M  ISO  8  25  14  26  14  27  14  28  14  29   8  30   8  31   8  32   8
M  ISO  8  33   8  34   8  35   8  36   8  37  13  38  13  39  13  40  13
M  ISO  8  41  13  42  13  43  13  44  13  45  13  46  13  47  13  48  13
M  END
>  <minimizedAffinity>  (1) 
-5.3772316

>  <minimizedRMSD>  (1) 
1.46171451

$$$$
