
     RDKit          3D

 42 45  0  0  1  0  0  0  0  0999 V2000
   47.7950   34.0440   42.1690 C   0  0  0  0  0  0  0  0  0  0  0  0
   46.1900   33.5220   45.4280 C   0  0  0  0  0  0  0  0  0  0  0  0
   45.1300   34.4590   45.3010 C   0  0  0  0  0  0  0  0  0  0  0  0
   45.4720   35.1470   43.5750 S   0  0  0  0  0  0  0  0  0  0  0  0
   46.9860   34.0190   43.3840 C   0  0  0  0  0  0  0  0  0  0  0  0
   46.9760   33.4750   44.3680 N   0  0  0  0  0  0  0  0  0  0  0  0
   47.4760   31.2520   47.9570 C   0  0  0  0  0  0  0  0  0  0  0  0
   46.4880   31.2920   48.9570 C   0  0  0  0  0  0  0  0  0  0  0  0
   45.4010   32.0940   48.7520 C   0  0  0  0  0  0  0  0  0  0  0  0
   45.3490   32.8000   47.5890 N   0  0  0  0  0  0  0  0  0  0  0  0
   46.2820   32.7640   46.6410 C   0  0  0  0  0  0  0  0  0  0  0  0
   47.3670   31.9840   46.8120 N   0  0  0  0  0  0  0  0  0  0  0  0
   48.4010   32.6800   41.9590 C   0  0  0  0  0  0  0  0  0  0  0  0
   48.8920   35.0750   42.3020 C   0  0  0  0  0  0  0  0  0  0  0  0
   47.0030   34.3620   40.9300 C   0  0  0  0  0  0  0  0  0  0  0  0
   46.2210   33.3040   40.5080 O   0  0  0  0  0  0  0  0  0  0  0  0
   46.1470   33.2170   39.1410 C   0  0  2  0  0  0  0  0  0  0  0  0
   44.9940   32.4300   38.5440 C   0  0  0  0  0  0  0  0  0  0  0  0
   46.4110   32.0280   38.3560 C   0  0  1  0  0  0  0  0  0  0  0  0
   46.9860   32.1350   36.9660 C   0  0  0  0  0  0  0  0  0  0  0  0
   46.2490   31.4260   35.7840 C   0  0  0  0  0  0  0  0  0  0  0  0
   47.3680   31.8970   34.4240 S   0  0  0  0  0  0  0  0  0  0  0  0
   48.5460   32.8830   35.5390 C   0  0  0  0  0  0  0  0  0  0  0  0
   48.0990   32.8140   36.7100 N   0  0  0  0  0  0  0  0  0  0  0  0
   44.3302   34.7139   46.0119 H   0  0  0  0  0  0  0  0  0  0  0  0
   48.3598   30.6134   48.1024 H   0  0  0  0  0  0  0  0  0  0  0  0
   46.5873   30.6958   49.8761 H   0  0  0  0  0  0  0  0  0  0  0  0
   44.5972   32.1666   49.4994 H   0  0  0  0  0  0  0  0  0  0  0  0
   48.6071   32.2161   42.9349 H   0  0  0  0  0  0  0  0  0  0  0  0
   47.6983   32.0495   41.3944 H   0  0  0  0  0  0  0  0  0  0  0  0
   49.3399   32.7789   41.3944 H   0  0  0  0  0  0  0  0  0  0  0  0
   49.0916   35.2626   43.3673 H   0  0  0  0  0  0  0  0  0  0  0  0
   49.8065   34.7019   41.8177 H   0  0  0  0  0  0  0  0  0  0  0  0
   48.5763   36.0109   41.8177 H   0  0  0  0  0  0  0  0  0  0  0  0
   46.3484   35.2202   41.1420 H   0  0  0  0  0  0  0  0  0  0  0  0
   47.7205   34.5846   40.1265 H   0  0  0  0  0  0  0  0  0  0  0  0
   46.5641   34.2337   39.0919 H   0  0  0  0  0  0  0  0  0  0  0  0
   44.3294   31.8393   39.1915 H   0  0  0  0  0  0  0  0  0  0  0  0
   44.1408   32.6525   37.8863 H   0  0  0  0  0  0  0  0  0  0  0  0
   47.0006   31.1207   38.5538 H   0  0  0  0  0  0  0  0  0  0  0  0
   45.3293   30.8227   35.7753 H   0  0  0  0  0  0  0  0  0  0  0  0
   49.4530   33.4164   35.2182 H   0  0  0  0  0  0  0  0  0  0  0  0
  1 14  1  0
  1  5  1  0
  2 11  1  0
  3  2  2  0
  4  3  1  0
  5  4  1  0
  5  6  2  0
  6  2  1  0
  7  8  2  0
  9  8  1  0
 10  9  2  0
 11 12  2  0
 11 10  1  0
 12  7  1  0
 13  1  1  0
 15  1  1  0
 16 15  1  0
 17 16  1  0
 18 17  1  0
 19 18  1  0
 19 17  1  0
 20 19  1  0
 21 20  2  0
 22 23  1  0
 22 21  1  0
 23 24  2  0
 24 20  1  0
  3 25  1  0
  7 26  1  0
  8 27  1  0
  9 28  1  0
 13 29  1  0
 13 30  1  0
 13 31  1  0
 14 32  1  0
 14 33  1  0
 14 34  1  0
 15 35  1  0
 15 36  1  0
 17 37  1  6
 18 38  1  0
 18 39  1  0
 19 40  1  1
 21 41  1  0
 23 42  1  0
M  ISO  8  25  14  26  14  27  14  28  14  29   8  30   8  31   8  32   8
M  ISO  8  33   8  34   8  35   8  36   8  37  13  38  13  39  13  40  13
M  ISO  2  41  14  42  14
M  END
>  <minimizedAffinity>  (1) 
-4.96063662

>  <minimizedRMSD>  (1) 
1.82785845

$$$$
