
     RDKit          3D

 42 44  0  0  1  0  0  0  0  0999 V2000
   48.7900   34.2700   41.9890 C   0  0  0  0  0  0  0  0  0  0  0  0
   46.4550   33.5470   44.7450 C   0  0  0  0  0  0  0  0  0  0  0  0
   45.3660   34.3280   44.3450 C   0  0  0  0  0  0  0  0  0  0  0  0
   46.0320   35.0730   42.7420 S   0  0  0  0  0  0  0  0  0  0  0  0
   47.6870   34.1450   42.9610 C   0  0  0  0  0  0  0  0  0  0  0  0
   47.4850   33.6070   43.9180 N   0  0  0  0  0  0  0  0  0  0  0  0
   47.0980   31.0440   47.3080 C   0  0  0  0  0  0  0  0  0  0  0  0
   46.1790   31.3710   48.3230 C   0  0  0  0  0  0  0  0  0  0  0  0
   45.3450   32.4500   48.1070 C   0  0  0  0  0  0  0  0  0  0  0  0
   45.4650   33.1260   46.9260 N   0  0  0  0  0  0  0  0  0  0  0  0
   46.3510   32.7960   45.9710 C   0  0  0  0  0  0  0  0  0  0  0  0
   47.1890   31.7430   46.1420 N   0  0  0  0  0  0  0  0  0  0  0  0
   49.4080   32.9210   41.7830 C   0  0  0  0  0  0  0  0  0  0  0  0
   49.7560   35.2970   42.4530 C   0  0  0  0  0  0  0  0  0  0  0  0
   48.2370   34.6930   40.5960 C   0  0  0  0  0  0  0  0  0  0  0  0
   48.3110   33.6050   39.7250 O   0  0  0  0  0  0  0  0  0  0  0  0
   47.2480   33.5940   38.8650 C   0  0  2  0  0  0  0  0  0  0  0  0
   46.9740   32.3210   38.0870 C   0  0  0  0  0  0  0  0  0  0  0  0
   47.3000   33.5980   37.4170 C   0  0  2  0  0  0  0  0  0  0  0  0
   48.5900   33.6240   36.6400 C   0  0  0  0  0  0  0  0  0  0  0  0
   48.5400   32.7490   35.3930 C   0  0  0  0  0  0  0  0  0  0  0  0
   44.3893   34.4696   44.8307 H   0  0  0  0  0  0  0  0  0  0  0  0
   47.7711   30.1879   47.4628 H   0  0  0  0  0  0  0  0  0  0  0  0
   46.1272   30.7881   49.2544 H   0  0  0  0  0  0  0  0  0  0  0  0
   44.6066   32.7559   48.8627 H   0  0  0  0  0  0  0  0  0  0  0  0
   49.6187   32.4612   42.7598 H   0  0  0  0  0  0  0  0  0  0  0  0
   48.7130   32.2816   41.2190 H   0  0  0  0  0  0  0  0  0  0  0  0
   50.3461   33.0297   41.2190 H   0  0  0  0  0  0  0  0  0  0  0  0
   49.7725   35.3145   43.5527 H   0  0  0  0  0  0  0  0  0  0  0  0
   50.7599   35.0534   42.0751 H   0  0  0  0  0  0  0  0  0  0  0  0
   49.4515   36.2841   42.0751 H   0  0  0  0  0  0  0  0  0  0  0  0
   47.1895   35.0130   40.6974 H   0  0  0  0  0  0  0  0  0  0  0  0
   48.8339   35.5270   40.1983 H   0  0  0  0  0  0  0  0  0  0  0  0
   46.7386   34.2610   39.5761 H   0  0  0  0  0  0  0  0  0  0  0  0
   47.7019   31.4964   38.0961 H   0  0  0  0  0  0  0  0  0  0  0  0
   46.1560   31.5874   38.0346 H   0  0  0  0  0  0  0  0  0  0  0  0
   46.8283   34.2655   36.6808 H   0  0  0  0  0  0  0  0  0  0  0  0
   48.7970   34.6605   36.3352 H   0  0  0  0  0  0  0  0  0  0  0  0
   49.3811   33.2280   37.2937 H   0  0  0  0  0  0  0  0  0  0  0  0
   48.4796   31.6914   35.6894 H   0  0  0  0  0  0  0  0  0  0  0  0
   47.6555   33.0133   34.7948 H   0  0  0  0  0  0  0  0  0  0  0  0
   49.4489   32.9108   34.7948 H   0  0  0  0  0  0  0  0  0  0  0  0
  1 14  1  0
  1  5  1  0
  2 11  1  0
  3  2  2  0
  4  5  1  0
  4  3  1  0
  5  6  2  0
  6  2  1  0
  7  8  2  0
  9  8  1  0
 10  9  2  0
 11 12  2  0
 11 10  1  0
 12  7  1  0
 13  1  1  0
 15  1  1  0
 16 15  1  0
 17 16  1  0
 18 17  1  0
 19 18  1  0
 19 17  1  0
 20 19  1  0
 21 20  1  0
  3 22  1  0
  7 23  1  0
  8 24  1  0
  9 25  1  0
 13 26  1  0
 13 27  1  0
 13 28  1  0
 14 29  1  0
 14 30  1  0
 14 31  1  0
 15 32  1  0
 15 33  1  0
 17 34  1  1
 18 35  1  0
 18 36  1  0
 19 37  1  6
 20 38  1  0
 20 39  1  0
 21 40  1  0
 21 41  1  0
 21 42  1  0
M  ISO  8  22  14  23  14  24  14  25  14  26   8  27   8  28   8  29   8
M  ISO  8  30   8  31   8  32   8  33   8  34  13  35  13  36  13  37  13
M  ISO  5  38   8  39   8  40   8  41   8  42   8
M  END
>  <minimizedAffinity>  (1) 
-4.88812542

>  <minimizedRMSD>  (1) 
1.14157259

$$$$
