
     RDKit          3D

 48 50  0  0  1  0  0  0  0  0999 V2000
   47.3780   34.1830   41.8930 C   0  0  0  0  0  0  0  0  0  0  0  0
   46.0230   33.6980   45.2690 C   0  0  0  0  0  0  0  0  0  0  0  0
   45.0320   34.6960   45.2530 C   0  0  0  0  0  0  0  0  0  0  0  0
   45.2720   35.3930   43.5320 S   0  0  0  0  0  0  0  0  0  0  0  0
   46.6840   34.1770   43.1780 C   0  0  0  0  0  0  0  0  0  0  0  0
   46.7080   33.6280   44.1430 N   0  0  0  0  0  0  0  0  0  0  0  0
   47.4300   31.3410   47.6660 C   0  0  0  0  0  0  0  0  0  0  0  0
   46.5030   31.3800   48.7320 C   0  0  0  0  0  0  0  0  0  0  0  0
   45.4220   32.2070   48.6080 C   0  0  0  0  0  0  0  0  0  0  0  0
   45.3060   32.9410   47.4650 N   0  0  0  0  0  0  0  0  0  0  0  0
   46.1870   32.8990   46.4570 C   0  0  0  0  0  0  0  0  0  0  0  0
   47.2620   32.0980   46.5430 N   0  0  0  0  0  0  0  0  0  0  0  0
   48.2420   32.9490   41.8100 C   0  0  0  0  0  0  0  0  0  0  0  0
   48.2350   35.4180   41.7790 C   0  0  0  0  0  0  0  0  0  0  0  0
   46.4530   34.1330   40.7080 C   0  0  0  0  0  0  0  0  0  0  0  0
   46.5990   32.9900   39.9500 O   0  0  0  0  0  0  0  0  0  0  0  0
   45.9610   33.0690   38.7430 C   0  0  2  0  0  0  0  0  0  0  0  0
   45.9750   31.8550   37.8470 C   0  0  0  0  0  0  0  0  0  0  0  0
   46.5930   33.1340   37.4370 C   0  0  2  0  0  0  0  0  0  0  0  0
   48.0720   33.2770   37.2570 C   0  0  0  0  0  0  0  0  0  0  0  0
   48.5500   34.6490   37.6870 C   0  0  0  0  0  0  0  0  0  0  0  0
   48.5170   32.9870   35.8230 C   0  0  0  0  0  0  0  0  0  0  0  0
   48.8520   32.2720   38.1150 C   0  0  0  0  0  0  0  0  0  0  0  0
   44.3148   34.9865   46.0348 H   0  0  0  0  0  0  0  0  0  0  0  0
   48.3089   30.6841   47.7434 H   0  0  0  0  0  0  0  0  0  0  0  0
   46.6469   30.7647   49.6324 H   0  0  0  0  0  0  0  0  0  0  0  0
   44.6684   32.2782   49.4062 H   0  0  0  0  0  0  0  0  0  0  0  0
   48.4847   32.6024   42.8253 H   0  0  0  0  0  0  0  0  0  0  0  0
   47.6999   32.1573   41.2721 H   0  0  0  0  0  0  0  0  0  0  0  0
   49.1714   33.1876   41.2721 H   0  0  0  0  0  0  0  0  0  0  0  0
   48.4881   35.7828   42.7854 H   0  0  0  0  0  0  0  0  0  0  0  0
   49.1590   35.1741   41.2342 H   0  0  0  0  0  0  0  0  0  0  0  0
   47.6832   36.1982   41.2342 H   0  0  0  0  0  0  0  0  0  0  0  0
   45.4161   34.1804   41.0722 H   0  0  0  0  0  0  0  0  0  0  0  0
   46.7047   34.9869   40.0619 H   0  0  0  0  0  0  0  0  0  0  0  0
   45.2284   33.7265   39.2339 H   0  0  0  0  0  0  0  0  0  0  0  0
   46.6054   30.9886   38.0960 H   0  0  0  0  0  0  0  0  0  0  0  0
   45.2182   31.1751   37.4286 H   0  0  0  0  0  0  0  0  0  0  0  0
   46.4822   33.8022   36.5702 H   0  0  0  0  0  0  0  0  0  0  0  0
   48.5688   34.7031   38.7855 H   0  0  0  0  0  0  0  0  0  0  0  0
   49.5622   34.8245   37.2938 H   0  0  0  0  0  0  0  0  0  0  0  0
   47.8659   35.4155   37.2938 H   0  0  0  0  0  0  0  0  0  0  0  0
   49.4385   32.3865   35.8394 H   0  0  0  0  0  0  0  0  0  0  0  0
   47.7259   32.4305   35.2990 H   0  0  0  0  0  0  0  0  0  0  0  0
   48.7067   33.9354   35.2990 H   0  0  0  0  0  0  0  0  0  0  0  0
   48.6828   32.4900   39.1798 H   0  0  0  0  0  0  0  0  0  0  0  0
   48.5066   31.2521   37.8901 H   0  0  0  0  0  0  0  0  0  0  0  0
   49.9257   32.3535   37.8901 H   0  0  0  0  0  0  0  0  0  0  0  0
  1  5  1  0
  2 11  1  0
  3  2  2  0
  4  3  1  0
  5  4  1  0
  5  6  2  0
  6  2  1  0
  7  8  2  0
  9  8  1  0
 10  9  2  0
 11 12  2  0
 11 10  1  0
 12  7  1  0
 13  1  1  0
 14  1  1  0
 15  1  1  0
 16 15  1  0
 17 16  1  0
 18 17  1  0
 19 18  1  0
 19 17  1  0
 20 19  1  0
 20 21  1  0
 20 23  1  0
 22 20  1  0
  3 24  1  0
  7 25  1  0
  8 26  1  0
  9 27  1  0
 13 28  1  0
 13 29  1  0
 13 30  1  0
 14 31  1  0
 14 32  1  0
 14 33  1  0
 15 34  1  0
 15 35  1  0
 17 36  1  1
 18 37  1  0
 18 38  1  0
 19 39  1  6
 21 40  1  0
 21 41  1  0
 21 42  1  0
 22 43  1  0
 22 44  1  0
 22 45  1  0
 23 46  1  0
 23 47  1  0
 23 48  1  0
M  ISO  8  24  14  25  14  26  14  27  14  28   8  29   8  30   8  31   8
M  ISO  8  32   8  33   8  34   8  35   8  36  13  37  13  38  13  39  13
M  ISO  8  40   8  41   8  42   8  43   8  44   8  45   8  46   8  47   8
M  ISO  1  48   8
M  END
>  <minimizedAffinity>  (1) 
-5.21414566

>  <minimizedRMSD>  (1) 
1.71781027

$$$$
