
     RDKit          3D

 42 44  0  0  1  0  0  0  0  0999 V2000
   48.7240   34.4130   41.8250 C   0  0  0  0  0  0  0  0  0  0  0  0
   46.4970   33.6510   44.6390 C   0  0  0  0  0  0  0  0  0  0  0  0
   45.4040   34.4750   44.2550 C   0  0  0  0  0  0  0  0  0  0  0  0
   46.0890   35.2080   42.6570 S   0  0  0  0  0  0  0  0  0  0  0  0
   47.7060   34.2510   42.8400 C   0  0  0  0  0  0  0  0  0  0  0  0
   47.5120   33.7040   43.7920 N   0  0  0  0  0  0  0  0  0  0  0  0
   47.0870   31.0590   47.1120 C   0  0  0  0  0  0  0  0  0  0  0  0
   46.1660   31.3950   48.1490 C   0  0  0  0  0  0  0  0  0  0  0  0
   45.3660   32.5070   47.9800 C   0  0  0  0  0  0  0  0  0  0  0  0
   45.5180   33.2160   46.8070 N   0  0  0  0  0  0  0  0  0  0  0  0
   46.3960   32.8720   45.8490 C   0  0  0  0  0  0  0  0  0  0  0  0
   47.1770   31.8050   45.9910 N   0  0  0  0  0  0  0  0  0  0  0  0
   50.0520   33.8590   42.4250 C   0  0  0  0  0  0  0  0  0  0  0  0
   48.9680   35.8610   41.5360 C   0  0  0  0  0  0  0  0  0  0  0  0
   48.5700   33.6230   40.6020 C   0  0  0  0  0  0  0  0  0  0  0  0
   47.8500   34.2300   39.6000 O   0  0  0  0  0  0  0  0  0  0  0  0
   48.1170   33.6510   38.3760 C   0  0  2  0  0  0  0  0  0  0  0  0
   48.3940   34.5710   37.2360 C   0  0  0  0  0  0  0  0  0  0  0  0
   47.1960   33.7480   37.2240 C   0  0  1  0  0  0  0  0  0  0  0  0
   47.2620   32.6030   36.2280 C   0  0  0  0  0  0  0  0  0  0  0  0
   48.3810   32.1560   35.7480 O   0  0  0  0  0  0  0  0  0  0  0  0
   46.0990   31.9700   35.7880 O   0  0  0  0  0  0  0  0  0  0  0  0
   45.8360   31.9530   34.4070 C   0  0  0  0  0  0  0  0  0  0  0  0
   46.2730   31.0370   33.6500 O   0  0  0  0  0  0  0  0  0  0  0  0
   45.0640   33.0130   33.9380 O   0  0  0  0  0  0  0  0  0  0  0  0
   44.4348   34.6387   44.7489 H   0  0  0  0  0  0  0  0  0  0  0  0
   47.7343   30.1773   47.2283 H   0  0  0  0  0  0  0  0  0  0  0  0
   46.0954   30.7830   49.0603 H   0  0  0  0  0  0  0  0  0  0  0  0
   44.6395   32.8140   48.7468 H   0  0  0  0  0  0  0  0  0  0  0  0
   49.9960   33.8824   43.5233 H   0  0  0  0  0  0  0  0  0  0  0  0
   50.2027   32.8230   42.0875 H   0  0  0  0  0  0  0  0  0  0  0  0
   50.8943   34.4808   42.0875 H   0  0  0  0  0  0  0  0  0  0  0  0
   49.0611   36.4132   42.4828 H   0  0  0  0  0  0  0  0  0  0  0  0
   49.8968   35.9678   40.9564 H   0  0  0  0  0  0  0  0  0  0  0  0
   48.1255   36.2663   40.9564 H   0  0  0  0  0  0  0  0  0  0  0  0
   49.5741   33.3998   40.2123 H   0  0  0  0  0  0  0  0  0  0  0  0
   48.0002   32.7264   40.8873 H   0  0  0  0  0  0  0  0  0  0  0  0
   48.6022   32.8031   38.8815 H   0  0  0  0  0  0  0  0  0  0  0  0
   48.3116   35.6590   37.3756 H   0  0  0  0  0  0  0  0  0  0  0  0
   49.2389   34.7223   36.5481 H   0  0  0  0  0  0  0  0  0  0  0  0
   46.1156   33.9315   37.1284 H   0  0  0  0  0  0  0  0  0  0  0  0
   44.8357   33.0717   32.9765 H   0  0  0  0  0  0  0  0  0  0  0  0
  1 13  1  0
  1  5  1  0
  2 11  1  0
  3  2  2  0
  4  5  1  0
  4  3  1  0
  5  6  2  0
  6  2  1  0
  7  8  2  0
  9  8  1  0
 10  9  2  0
 11 12  2  0
 11 10  1  0
 12  7  1  0
 14  1  1  0
 15  1  1  0
 16 15  1  0
 17 16  1  0
 18 17  1  0
 19 18  1  0
 19 17  1  0
 20 19  1  0
 21 20  2  0
 22 20  1  0
 23 22  1  0
 24 23  2  0
 25 23  1  0
  3 26  1  0
  7 27  1  0
  8 28  1  0
  9 29  1  0
 13 30  1  0
 13 31  1  0
 13 32  1  0
 14 33  1  0
 14 34  1  0
 14 35  1  0
 15 36  1  0
 15 37  1  0
 17 38  1  1
 18 39  1  0
 18 40  1  0
 19 41  1  1
 25 42  1  0
M  ISO  8  26  14  27  14  28  14  29  14  30   8  31   8  32   8  33   8
M  ISO  8  34   8  35   8  36   8  37   8  38  13  39  13  40  13  41  13
M  ISO  1  42   3
M  END
>  <minimizedAffinity>  (1) 
-6.32218218

>  <minimizedRMSD>  (1) 
1.26531243

$$$$
