
     RDKit          3D

 55 58  0  0  1  0  0  0  0  0999 V2000
   48.7580   34.4280   41.8420 C   0  0  0  0  0  0  0  0  0  0  0  0
   46.5000   33.6550   44.6260 C   0  0  0  0  0  0  0  0  0  0  0  0
   45.4060   34.4670   44.2320 C   0  0  0  0  0  0  0  0  0  0  0  0
   46.0990   35.2090   42.6370 S   0  0  0  0  0  0  0  0  0  0  0  0
   47.7220   34.2650   42.8400 C   0  0  0  0  0  0  0  0  0  0  0  0
   47.5200   33.7160   43.7910 N   0  0  0  0  0  0  0  0  0  0  0  0
   47.0620   31.0620   47.1140 C   0  0  0  0  0  0  0  0  0  0  0  0
   46.1490   31.4110   48.1360 C   0  0  0  0  0  0  0  0  0  0  0  0
   45.3620   32.5160   47.9690 C   0  0  0  0  0  0  0  0  0  0  0  0
   45.5100   33.2270   46.7990 N   0  0  0  0  0  0  0  0  0  0  0  0
   46.3830   32.8870   45.8310 C   0  0  0  0  0  0  0  0  0  0  0  0
   47.1670   31.8010   45.9790 N   0  0  0  0  0  0  0  0  0  0  0  0
   50.0920   33.9520   42.4770 C   0  0  0  0  0  0  0  0  0  0  0  0
   48.9460   35.8720   41.4940 C   0  0  0  0  0  0  0  0  0  0  0  0
   48.6400   33.5900   40.6390 C   0  0  0  0  0  0  0  0  0  0  0  0
   48.0200   34.1900   39.5710 O   0  0  0  0  0  0  0  0  0  0  0  0
   48.3870   33.6030   38.3770 C   0  0  2  0  0  0  0  0  0  0  0  0
   48.3060   34.4480   37.1520 C   0  0  0  0  0  0  0  0  0  0  0  0
   47.4200   33.3040   37.3000 C   0  0  1  0  0  0  0  0  0  0  0  0
   47.7820   32.1400   36.3960 C   0  0  0  0  0  0  0  0  0  0  0  0
   48.7620   31.3360   36.6490 O   0  0  0  0  0  0  0  0  0  0  0  0
   47.0650   31.8720   35.2390 O   0  0  0  0  0  0  0  0  0  0  0  0
   47.4770   32.1610   33.9430 C   0  0  0  0  0  0  0  0  0  0  0  0
   47.6360   30.8000   33.2850 C   0  0  0  0  0  0  0  0  0  0  0  0
   48.1680   30.8400   31.8970 C   0  0  0  0  0  0  0  0  0  0  0  0
   49.2360   31.8540   31.6510 C   0  0  0  0  0  0  0  0  0  0  0  0
   48.9520   33.1770   32.3220 C   0  0  0  0  0  0  0  0  0  0  0  0
   48.7720   32.8730   33.8140 C   0  0  0  0  0  0  0  0  0  0  0  0
   44.4308   34.6213   44.7169 H   0  0  0  0  0  0  0  0  0  0  0  0
   47.6997   30.1747   47.2406 H   0  0  0  0  0  0  0  0  0  0  0  0
   46.0735   30.8035   49.0499 H   0  0  0  0  0  0  0  0  0  0  0  0
   44.6392   32.8250   48.7385 H   0  0  0  0  0  0  0  0  0  0  0  0
   50.0075   33.9821   43.5733 H   0  0  0  0  0  0  0  0  0  0  0  0
   50.3051   32.9224   42.1538 H   0  0  0  0  0  0  0  0  0  0  0  0
   50.9088   34.6142   42.1538 H   0  0  0  0  0  0  0  0  0  0  0  0
   49.0232   36.4647   42.4175 H   0  0  0  0  0  0  0  0  0  0  0  0
   49.8671   35.9902   40.9044 H   0  0  0  0  0  0  0  0  0  0  0  0
   48.0859   36.2221   40.9044 H   0  0  0  0  0  0  0  0  0  0  0  0
   49.6534   33.2989   40.3255 H   0  0  0  0  0  0  0  0  0  0  0  0
   48.0070   32.7357   40.9210 H   0  0  0  0  0  0  0  0  0  0  0  0
   49.1369   32.9952   38.9045 H   0  0  0  0  0  0  0  0  0  0  0  0
   49.1188   34.4211   36.4114 H   0  0  0  0  0  0  0  0  0  0  0  0
   48.1626   35.5210   36.9570 H   0  0  0  0  0  0  0  0  0  0  0  0
   46.3320   33.1433   37.2773 H   0  0  0  0  0  0  0  0  0  0  0  0
   46.7360   32.8390   33.4945 H   0  0  0  0  0  0  0  0  0  0  0  0
   48.3246   30.2008   33.8989 H   0  0  0  0  0  0  0  0  0  0  0  0
   46.6271   30.3667   33.2190 H   0  0  0  0  0  0  0  0  0  0  0  0
   48.5813   29.8478   31.6629 H   0  0  0  0  0  0  0  0  0  0  0  0
   47.3220   31.1282   31.2557 H   0  0  0  0  0  0  0  0  0  0  0  0
   50.1887   31.4617   32.0364 H   0  0  0  0  0  0  0  0  0  0  0  0
   49.2781   32.0346   30.5667 H   0  0  0  0  0  0  0  0  0  0  0  0
   49.7946   33.8682   32.1731 H   0  0  0  0  0  0  0  0  0  0  0  0
   48.0554   33.6548   31.9003 H   0  0  0  0  0  0  0  0  0  0  0  0
   49.5936   32.2366   34.1744 H   0  0  0  0  0  0  0  0  0  0  0  0
   48.7813   33.7956   34.4129 H   0  0  0  0  0  0  0  0  0  0  0  0
  1 13  1  0
  1  5  1  0
  2 11  1  0
  3  2  2  0
  4  5  1  0
  4  3  1  0
  5  6  2  0
  6  2  1  0
  7  8  2  0
  9  8  1  0
 10  9  2  0
 11 12  2  0
 11 10  1  0
 12  7  1  0
 14  1  1  0
 15  1  1  0
 16 15  1  0
 17 16  1  0
 18 19  1  0
 18 17  1  0
 19 17  1  0
 20 21  2  0
 20 19  1  0
 22 20  1  0
 23 22  1  0
 24 23  1  0
 25 24  1  0
 26 25  1  0
 26 27  1  0
 27 28  1  0
 28 23  1  0
  3 29  1  0
  7 30  1  0
  8 31  1  0
  9 32  1  0
 13 33  1  0
 13 34  1  0
 13 35  1  0
 14 36  1  0
 14 37  1  0
 14 38  1  0
 15 39  1  0
 15 40  1  0
 17 41  1  1
 18 42  1  0
 18 43  1  0
 19 44  1  1
 23 45  1  0
 24 46  1  0
 24 47  1  0
 25 48  1  0
 25 49  1  0
 26 50  1  0
 26 51  1  0
 27 52  1  0
 27 53  1  0
 28 54  1  0
 28 55  1  0
M  ISO  8  29  14  30  14  31  14  32  14  33   8  34   8  35   8  36   8
M  ISO  8  37   8  38   8  39   8  40   8  41  13  42  13  43  13  44  13
M  ISO  8  45  13  46  13  47  13  48  13  49  13  50  13  51  13  52  13
M  ISO  3  53  13  54  13  55  13
M  END
>  <minimizedAffinity>  (1) 
-6.24677849

>  <minimizedRMSD>  (1) 
2.91632247

$$$$
