
     RDKit          3D

 43 45  0  0  0  0  0  0  0  0999 V2000
   47.8743   34.1161   42.1603 C   0  0  0  0  0  0  0  0  0  0  0  0
   46.2217   33.5179   45.3812 C   0  0  0  0  0  0  0  0  0  0  0  0
   45.1357   34.4342   45.2171 C   0  0  0  0  0  0  0  0  0  0  0  0
   45.5325   35.1205   43.4984 S   0  0  0  0  0  0  0  0  0  0  0  0
   47.0704   34.0354   43.3608 C   0  0  0  0  0  0  0  0  0  0  0  0
   47.0354   33.4985   44.3423 N   0  0  0  0  0  0  0  0  0  0  0  0
   47.4801   31.2751   47.9297 C   0  0  0  0  0  0  0  0  0  0  0  0
   46.4742   31.3242   48.9402 C   0  0  0  0  0  0  0  0  0  0  0  0
   45.3728   32.1349   48.7094 C   0  0  0  0  0  0  0  0  0  0  0  0
   45.3357   32.8327   47.5179 N   0  0  0  0  0  0  0  0  0  0  0  0
   46.3106   32.7556   46.5929 C   0  0  0  0  0  0  0  0  0  0  0  0
   47.3810   31.9864   46.7829 N   0  0  0  0  0  0  0  0  0  0  0  0
   48.6326   32.7612   42.0242 C   0  0  0  0  0  0  0  0  0  0  0  0
   48.9283   35.1722   42.2854 C   0  0  0  0  0  0  0  0  0  0  0  0
   47.1470   34.2164   40.8930 C   0  0  0  0  0  0  0  0  0  0  0  0
   47.9305   34.4091   39.7820 O   0  0  0  0  0  0  0  0  0  0  0  0
   47.6205   33.5101   38.7847 C   0  0  2  0  0  0  0  0  0  0  0  0
   48.6848   33.2049   37.7852 C   0  0  0  0  0  0  0  0  0  0  0  0
   47.4738   33.8904   37.3653 C   0  0  1  0  0  0  0  0  0  0  0  0
   46.5420   33.0238   36.5405 C   0  0  0  0  0  0  0  0  0  0  0  0
   46.8443   31.8125   36.1906 O   0  0  0  0  0  0  0  0  0  0  0  0
   45.2989   33.4990   36.1221 O   0  0  0  0  0  0  0  0  0  0  0  0
   44.3379   34.6900   45.8232 H   0  0  0  0  0  0  0  0  0  0  0  0
   48.3245   30.6351   48.1378 H   0  0  0  0  0  0  0  0  0  0  0  0
   46.5500   30.7670   49.8419 H   0  0  0  0  0  0  0  0  0  0  0  0
   44.5542   32.2441   49.4087 H   0  0  0  0  0  0  0  0  0  0  0  0
   49.3775   32.8470   41.2249 H   0  0  0  0  0  0  0  0  0  0  0  0
   49.0443   32.4757   43.0143 H   0  0  0  0  0  0  0  0  0  0  0  0
   47.8471   32.0393   41.7209 H   0  0  0  0  0  0  0  0  0  0  0  0
   49.5933   35.1580   41.3767 H   0  0  0  0  0  0  0  0  0  0  0  0
   49.5407   35.0165   43.2011 H   0  0  0  0  0  0  0  0  0  0  0  0
   48.4609   36.1713   42.3926 H   0  0  0  0  0  0  0  0  0  0  0  0
   46.1729   34.6607   40.8170 H   0  0  0  0  0  0  0  0  0  0  0  0
   46.8443   33.0303   40.7148 H   0  0  0  0  0  0  0  0  0  0  0  0
   46.9137   32.7251   39.0804 H   0  0  0  0  0  0  0  0  0  0  0  0
   49.6142   33.8261   37.8511 H   0  0  0  0  0  0  0  0  0  0  0  0
   48.8816   32.1746   37.4601 H   0  0  0  0  0  0  0  0  0  0  0  0
   47.2346   34.9600   37.2716 H   0  0  0  0  0  0  0  0  0  0  0  0
   44.4495   32.6955   35.3711 C   0  0  0  0  0  0  0  0  0  0  0  0
   44.1466   33.2557   34.1059 N   0  0  0  0  0  0  0  0  0  0  0  0
   44.0547   31.6082   35.8624 O   0  0  0  0  0  0  0  0  0  0  0  0
   43.2300   33.6988   34.3106 H   0  0  0  0  0  0  0  0  0  0  0  0
   43.4325   33.8070   33.6015 H   0  0  0  0  0  0  0  0  0  0  0  0
  1 14  1  0
  1  5  1  0
  2 11  1  0
  3  2  2  0
  4  3  1  0
  5  4  1  0
  5  6  2  0
  6  2  1  0
  7  8  2  0
  9  8  1  0
 10  9  2  0
 11 12  2  0
 11 10  1  0
 12  7  1  0
 13  1  1  0
 15  1  1  0
 16 15  1  0
 17 16  1  0
 18 17  1  0
 19 18  1  0
 19 17  1  0
 20 19  1  0
 21 20  2  0
 22 20  1  0
  3 23  1  0
  7 24  1  0
  8 25  1  0
  9 26  1  0
 13 27  1  0
 13 28  1  0
 13 29  1  0
 14 30  1  0
 14 31  1  0
 14 32  1  0
 15 33  1  0
 15 34  1  0
 17 35  1  1
 18 36  1  0
 18 37  1  0
 19 38  1  1
 39 40  1  0
 39 41  2  0
 40 42  1  0
 40 43  1  0
 22 39  1  0
M  END
>  <DihAtoms>  (1) 
19,21,38,39

>  <DihDeg>  (1) 
-179.99984571013633

$$$$
