
     RDKit          3D

 45 48  0  0  1  0  0  0  0  0999 V2000
   48.7990   34.3820   41.8320 C   0  0  0  0  0  0  0  0  0  0  0  0
   46.5150   33.6470   44.6080 C   0  0  0  0  0  0  0  0  0  0  0  0
   45.4200   34.4570   44.2210 C   0  0  0  0  0  0  0  0  0  0  0  0
   46.1090   35.1930   42.6170 S   0  0  0  0  0  0  0  0  0  0  0  0
   47.7380   34.2410   42.8230 C   0  0  0  0  0  0  0  0  0  0  0  0
   47.5250   33.7040   43.7750 N   0  0  0  0  0  0  0  0  0  0  0  0
   47.0430   31.0600   47.1090 C   0  0  0  0  0  0  0  0  0  0  0  0
   46.1420   31.4010   48.1350 C   0  0  0  0  0  0  0  0  0  0  0  0
   45.3730   32.5160   47.9460 C   0  0  0  0  0  0  0  0  0  0  0  0
   45.5150   33.2270   46.7970 N   0  0  0  0  0  0  0  0  0  0  0  0
   46.3850   32.8840   45.8240 C   0  0  0  0  0  0  0  0  0  0  0  0
   47.1660   31.7950   45.9600 N   0  0  0  0  0  0  0  0  0  0  0  0
   50.1230   33.9740   42.5060 C   0  0  0  0  0  0  0  0  0  0  0  0
   48.9000   35.7730   41.3620 C   0  0  0  0  0  0  0  0  0  0  0  0
   48.6840   33.3950   40.6910 C   0  0  0  0  0  0  0  0  0  0  0  0
   47.8950   33.9190   39.6590 O   0  0  0  0  0  0  0  0  0  0  0  0
   48.4610   33.5710   38.4410 C   0  0  2  0  0  0  0  0  0  0  0  0
   48.4700   34.6280   37.3930 C   0  0  0  0  0  0  0  0  0  0  0  0
   47.6930   33.4290   37.1830 C   0  0  1  0  0  0  0  0  0  0  0  0
   48.2730   32.4860   36.1480 C   0  0  0  0  0  0  0  0  0  0  0  0
   49.1410   31.5720   36.4560 O   0  0  0  0  0  0  0  0  0  0  0  0
   47.8920   32.5510   34.8100 O   0  0  0  0  0  0  0  0  0  0  0  0
   46.7680   31.7790   34.4320 C   0  0  0  0  0  0  0  0  0  0  0  0
   45.2400   31.8110   34.7870 C   0  0  0  0  0  0  0  0  0  0  0  0
   44.6710   30.4140   33.7880 S   0  0  0  0  0  0  0  0  0  0  0  0
   46.3960   30.0220   33.1030 C   0  0  0  0  0  0  0  0  0  0  0  0
   47.1620   30.8240   33.5820 N   0  0  0  0  0  0  0  0  0  0  0  0
   44.4479   34.6140   44.7112 H   0  0  0  0  0  0  0  0  0  0  0  0
   47.6736   30.1675   47.2350 H   0  0  0  0  0  0  0  0  0  0  0  0
   46.0598   30.7963   49.0502 H   0  0  0  0  0  0  0  0  0  0  0  0
   44.6504   32.8324   48.7127 H   0  0  0  0  0  0  0  0  0  0  0  0
   50.0045   34.0105   43.5990 H   0  0  0  0  0  0  0  0  0  0  0  0
   50.3904   32.9518   42.2001 H   0  0  0  0  0  0  0  0  0  0  0  0
   50.9194   34.6684   42.2001 H   0  0  0  0  0  0  0  0  0  0  0  0
   48.9491   36.4499   42.2277 H   0  0  0  0  0  0  0  0  0  0  0  0
   49.8090   35.8893   40.7535 H   0  0  0  0  0  0  0  0  0  0  0  0
   48.0174   36.0194   40.7535 H   0  0  0  0  0  0  0  0  0  0  0  0
   49.6889   33.1755   40.3011 H   0  0  0  0  0  0  0  0  0  0  0  0
   48.2101   32.4758   41.0658 H   0  0  0  0  0  0  0  0  0  0  0  0
   49.1678   32.9068   38.9599 H   0  0  0  0  0  0  0  0  0  0  0  0
   47.9613   35.5859   37.5761 H   0  0  0  0  0  0  0  0  0  0  0  0
   49.2554   35.1504   36.8272 H   0  0  0  0  0  0  0  0  0  0  0  0
   46.6402   33.2067   36.9547 H   0  0  0  0  0  0  0  0  0  0  0  0
   44.6785   32.4859   35.4498 H   0  0  0  0  0  0  0  0  0  0  0  0
   46.6512   29.2149   32.4006 H   0  0  0  0  0  0  0  0  0  0  0  0
  1 13  1  0
  1  5  1  0
  2 11  1  0
  3  2  2  0
  4  5  1  0
  4  3  1  0
  5  6  2  0
  6  2  1  0
  7  8  2  0
  9  8  1  0
 10  9  2  0
 11 12  2  0
 11 10  1  0
 12  7  1  0
 14  1  1  0
 15  1  1  0
 16 15  1  0
 17 16  1  0
 18 17  1  0
 19 18  1  0
 19 17  1  0
 20 21  2  0
 20 19  1  0
 22 20  1  0
 23 24  2  0
 23 22  1  0
 25 24  1  0
 26 27  2  0
 26 25  1  0
 27 23  1  0
  3 28  1  0
  7 29  1  0
  8 30  1  0
  9 31  1  0
 13 32  1  0
 13 33  1  0
 13 34  1  0
 14 35  1  0
 14 36  1  0
 14 37  1  0
 15 38  1  0
 15 39  1  0
 17 40  1  1
 18 41  1  0
 18 42  1  0
 19 43  1  1
 24 44  1  0
 26 45  1  0
M  ISO  8  28  14  29  14  30  14  31  14  32   8  33   8  34   8  35   8
M  ISO  8  36   8  37   8  38   8  39   8  40  13  41  13  42  13  43  13
M  ISO  2  44  14  45  14
M  END
>  <minimizedAffinity>  (1) 
-5.76777649

>  <minimizedRMSD>  (1) 
1.54904127

$$$$
