
     RDKit          3D

 46 49  0  0  1  0  0  0  0  0999 V2000
   48.7550   34.4440   41.8740 C   0  0  0  0  0  0  0  0  0  0  0  0
   46.5030   33.6430   44.6550 C   0  0  0  0  0  0  0  0  0  0  0  0
   45.4010   34.4650   44.2600 C   0  0  0  0  0  0  0  0  0  0  0  0
   46.0990   35.2140   42.6740 S   0  0  0  0  0  0  0  0  0  0  0  0
   47.7220   34.2700   42.8710 C   0  0  0  0  0  0  0  0  0  0  0  0
   47.5270   33.7120   43.8200 N   0  0  0  0  0  0  0  0  0  0  0  0
   47.0660   31.0500   47.1270 C   0  0  0  0  0  0  0  0  0  0  0  0
   46.1450   31.3900   48.1630 C   0  0  0  0  0  0  0  0  0  0  0  0
   45.3540   32.5020   47.9860 C   0  0  0  0  0  0  0  0  0  0  0  0
   45.5070   33.2130   46.8160 N   0  0  0  0  0  0  0  0  0  0  0  0
   46.3810   32.8720   45.8570 C   0  0  0  0  0  0  0  0  0  0  0  0
   47.1680   31.7940   45.9950 N   0  0  0  0  0  0  0  0  0  0  0  0
   50.0820   33.9170   42.4940 C   0  0  0  0  0  0  0  0  0  0  0  0
   48.9770   35.8950   41.5730 C   0  0  0  0  0  0  0  0  0  0  0  0
   48.6230   33.6470   40.6500 C   0  0  0  0  0  0  0  0  0  0  0  0
   47.9970   34.2860   39.6040 O   0  0  0  0  0  0  0  0  0  0  0  0
   48.2630   33.6530   38.4060 C   0  0  2  0  0  0  0  0  0  0  0  0
   48.3270   34.5290   37.1970 C   0  0  0  0  0  0  0  0  0  0  0  0
   47.2740   33.5350   37.3120 C   0  0  1  0  0  0  0  0  0  0  0  0
   47.4620   32.3480   36.3880 C   0  0  0  0  0  0  0  0  0  0  0  0
   47.8860   31.2000   36.8120 O   0  0  0  0  0  0  0  0  0  0  0  0
   47.1690   32.4550   35.0250 O   0  0  0  0  0  0  0  0  0  0  0  0
   46.3550   31.4930   34.3960 C   0  0  0  0  0  0  0  0  0  0  0  0
   44.9740   31.3120   34.4710 C   0  0  0  0  0  0  0  0  0  0  0  0
   44.4050   30.3110   33.7740 C   0  0  0  0  0  0  0  0  0  0  0  0
   45.1970   29.4400   32.9660 C   0  0  0  0  0  0  0  0  0  0  0  0
   46.9440   30.1530   33.2520 S   0  0  0  0  0  0  0  0  0  0  0  0
   44.4245   34.6173   44.7430 H   0  0  0  0  0  0  0  0  0  0  0  0
   47.7081   30.1651   47.2480 H   0  0  0  0  0  0  0  0  0  0  0  0
   46.0697   30.7811   49.0760 H   0  0  0  0  0  0  0  0  0  0  0  0
   44.6263   32.8118   48.7506 H   0  0  0  0  0  0  0  0  0  0  0  0
   50.0107   33.9453   43.5913 H   0  0  0  0  0  0  0  0  0  0  0  0
   50.2550   32.8819   42.1644 H   0  0  0  0  0  0  0  0  0  0  0  0
   50.9180   34.5514   42.1644 H   0  0  0  0  0  0  0  0  0  0  0  0
   49.0628   36.4560   42.5153 H   0  0  0  0  0  0  0  0  0  0  0  0
   49.9034   36.0113   40.9914 H   0  0  0  0  0  0  0  0  0  0  0  0
   48.1278   36.2829   40.9914 H   0  0  0  0  0  0  0  0  0  0  0  0
   49.6321   33.3597   40.3195 H   0  0  0  0  0  0  0  0  0  0  0  0
   47.9872   32.7878   40.9099 H   0  0  0  0  0  0  0  0  0  0  0  0
   48.8895   32.9143   38.9273 H   0  0  0  0  0  0  0  0  0  0  0  0
   49.1336   34.3922   36.4616 H   0  0  0  0  0  0  0  0  0  0  0  0
   48.3539   35.6153   37.0259 H   0  0  0  0  0  0  0  0  0  0  0  0
   46.1747   33.5487   37.2752 H   0  0  0  0  0  0  0  0  0  0  0  0
   44.3578   31.9789   35.0919 H   0  0  0  0  0  0  0  0  0  0  0  0
   43.3164   30.1621   33.8275 H   0  0  0  0  0  0  0  0  0  0  0  0
   44.8843   28.5873   32.3455 H   0  0  0  0  0  0  0  0  0  0  0  0
  1 13  1  0
  1  5  1  0
  2 11  1  0
  3  2  2  0
  4  5  1  0
  4  3  1  0
  5  6  2  0
  6  2  1  0
  7  8  2  0
  9  8  1  0
 10  9  2  0
 11 12  2  0
 11 10  1  0
 12  7  1  0
 14  1  1  0
 15  1  1  0
 16 15  1  0
 17 16  1  0
 18 19  1  0
 18 17  1  0
 19 17  1  0
 20 21  2  0
 20 19  1  0
 22 20  1  0
 23 24  2  0
 23 22  1  0
 25 24  1  0
 26 27  1  0
 26 25  2  0
 27 23  1  0
  3 28  1  0
  7 29  1  0
  8 30  1  0
  9 31  1  0
 13 32  1  0
 13 33  1  0
 13 34  1  0
 14 35  1  0
 14 36  1  0
 14 37  1  0
 15 38  1  0
 15 39  1  0
 17 40  1  1
 18 41  1  0
 18 42  1  0
 19 43  1  1
 24 44  1  0
 25 45  1  0
 26 46  1  0
M  ISO  8  28  14  29  14  30  14  31  14  32   8  33   8  34   8  35   8
M  ISO  8  36   8  37   8  38   8  39   8  40  13  41  13  42  13  43  13
M  ISO  3  44  14  45  14  46  14
M  END
>  <minimizedAffinity>  (1) 
-5.82883549

>  <minimizedRMSD>  (1) 
1.48223901

$$$$
