
     RDKit          3D

 42 44  0  0  1  0  0  0  0  0999 V2000
   48.7390   34.4500   41.8310 C   0  0  0  0  0  0  0  0  0  0  0  0
   46.4970   33.6650   44.6240 C   0  0  0  0  0  0  0  0  0  0  0  0
   45.3960   34.4710   44.2310 C   0  0  0  0  0  0  0  0  0  0  0  0
   46.0840   35.2120   42.6290 S   0  0  0  0  0  0  0  0  0  0  0  0
   47.7110   34.2770   42.8330 C   0  0  0  0  0  0  0  0  0  0  0  0
   47.5200   33.7260   43.7890 N   0  0  0  0  0  0  0  0  0  0  0  0
   47.0580   31.0570   47.0840 C   0  0  0  0  0  0  0  0  0  0  0  0
   46.1470   31.3870   48.1310 C   0  0  0  0  0  0  0  0  0  0  0  0
   45.3630   32.5170   47.9540 C   0  0  0  0  0  0  0  0  0  0  0  0
   45.5210   33.2280   46.7930 N   0  0  0  0  0  0  0  0  0  0  0  0
   46.3840   32.8860   45.8370 C   0  0  0  0  0  0  0  0  0  0  0  0
   47.1640   31.8030   45.9640 N   0  0  0  0  0  0  0  0  0  0  0  0
   50.0700   33.9200   42.4470 C   0  0  0  0  0  0  0  0  0  0  0  0
   48.9680   35.8980   41.5350 C   0  0  0  0  0  0  0  0  0  0  0  0
   48.6070   33.6510   40.6090 C   0  0  0  0  0  0  0  0  0  0  0  0
   48.0670   34.3110   39.5330 O   0  0  0  0  0  0  0  0  0  0  0  0
   48.2710   33.6110   38.3610 C   0  0  2  0  0  0  0  0  0  0  0  0
   48.2910   34.4130   37.1030 C   0  0  0  0  0  0  0  0  0  0  0  0
   47.2300   33.4460   37.3240 C   0  0  1  0  0  0  0  0  0  0  0  0
   47.3560   32.2030   36.4620 C   0  0  0  0  0  0  0  0  0  0  0  0
   48.4720   31.5520   36.3360 O   0  0  0  0  0  0  0  0  0  0  0  0
   46.2550   31.7040   35.7650 O   0  0  0  0  0  0  0  0  0  0  0  0
   46.2310   31.9720   34.3590 C   0  0  0  0  0  0  0  0  0  0  0  0
   46.1670   30.8190   33.6130 F   0  0  0  0  0  0  0  0  0  0  0  0
   45.1360   32.7640   34.0770 F   0  0  0  0  0  0  0  0  0  0  0  0
   47.3770   32.6470   33.9680 F   0  0  0  0  0  0  0  0  0  0  0  0
   44.4213   34.6221   44.7180 H   0  0  0  0  0  0  0  0  0  0  0  0
   47.6943   30.1663   47.1928 H   0  0  0  0  0  0  0  0  0  0  0  0
   46.0698   30.7717   49.0395 H   0  0  0  0  0  0  0  0  0  0  0  0
   44.6387   32.8321   48.7196 H   0  0  0  0  0  0  0  0  0  0  0  0
   50.0024   33.9469   43.5446 H   0  0  0  0  0  0  0  0  0  0  0  0
   50.2410   32.8852   42.1155 H   0  0  0  0  0  0  0  0  0  0  0  0
   50.9055   34.5540   42.1155 H   0  0  0  0  0  0  0  0  0  0  0  0
   49.0562   36.4557   42.4790 H   0  0  0  0  0  0  0  0  0  0  0  0
   49.8952   36.0113   40.9541 H   0  0  0  0  0  0  0  0  0  0  0  0
   48.1210   36.2919   40.9541 H   0  0  0  0  0  0  0  0  0  0  0  0
   49.6090   33.2981   40.3236 H   0  0  0  0  0  0  0  0  0  0  0  0
   47.9064   32.8382   40.8507 H   0  0  0  0  0  0  0  0  0  0  0  0
   48.9140   32.8954   38.8943 H   0  0  0  0  0  0  0  0  0  0  0  0
   49.0601   34.2199   36.3407 H   0  0  0  0  0  0  0  0  0  0  0  0
   48.3258   35.4869   36.8676 H   0  0  0  0  0  0  0  0  0  0  0  0
   46.1305   33.4761   37.3376 H   0  0  0  0  0  0  0  0  0  0  0  0
  1 13  1  0
  1  5  1  0
  2 11  1  0
  3  2  2  0
  4  5  1  0
  4  3  1  0
  5  6  2  0
  6  2  1  0
  7  8  2  0
  9  8  1  0
 10  9  2  0
 11 12  2  0
 11 10  1  0
 12  7  1  0
 14  1  1  0
 15  1  1  0
 16 15  1  0
 17 16  1  0
 18 19  1  0
 18 17  1  0
 19 17  1  0
 20 19  1  0
 21 20  2  0
 22 20  1  0
 23 22  1  0
 24 23  1  0
 25 23  1  0
 26 23  1  0
  3 27  1  0
  7 28  1  0
  8 29  1  0
  9 30  1  0
 13 31  1  0
 13 32  1  0
 13 33  1  0
 14 34  1  0
 14 35  1  0
 14 36  1  0
 15 37  1  0
 15 38  1  0
 17 39  1  1
 18 40  1  0
 18 41  1  0
 19 42  1  1
M  ISO  8  27  14  28  14  29  14  30  14  31   8  32   8  33   8  34   8
M  ISO  8  35   8  36   8  37   8  38   8  39  13  40  13  41  13  42  13
M  END
>  <minimizedAffinity>  (1) 
-5.63744307

>  <minimizedRMSD>  (1) 
1.43190873

$$$$
