
     RDKit          3D

 36 39  0  0  0  0  0  0  0  0999 V2000
   44.6830   35.3970   41.9130 C   0  0  0  0  0  0  0  0  0  0  0  0
   46.5700   34.2480   42.9990 C   0  0  0  0  0  0  0  0  0  0  0  0
   45.2810   34.7750   43.0910 C   0  0  0  0  0  0  0  0  0  0  0  0
   44.6530   34.6660   44.3240 C   0  0  0  0  0  0  0  0  0  0  0  0
   45.2940   34.0680   45.3630 N   0  0  0  0  0  0  0  0  0  0  0  0
   46.5380   33.5700   45.2350 C   0  0  0  0  0  0  0  0  0  0  0  0
   47.1630   33.6660   44.0510 N   0  0  0  0  0  0  0  0  0  0  0  0
   47.2420   34.3430   41.7480 N   0  0  0  0  0  0  0  0  0  0  0  0
   48.1170   35.3760   41.6450 C   0  0  0  0  0  0  0  0  0  0  0  0
   48.6870   35.3620   40.4250 N   0  0  0  0  0  0  0  0  0  0  0  0
   48.1400   34.2940   39.7850 C   0  0  0  0  0  0  0  0  0  0  0  0
   47.2620   33.6780   40.5960 N   0  0  0  0  0  0  0  0  0  0  0  0
   43.8730   34.3380   41.1840 C   0  0  0  0  0  0  0  0  0  0  0  0
   42.4950   34.7730   40.8710 C   0  0  0  0  0  0  0  0  0  0  0  0
   41.9600   35.8210   41.5240 N   0  0  0  0  0  0  0  0  0  0  0  0
   40.7200   36.2520   41.2350 C   0  0  0  0  0  0  0  0  0  0  0  0
   39.9120   35.6850   40.2870 N   0  0  0  0  0  0  0  0  0  0  0  0
   40.4350   34.6380   39.6310 C   0  0  0  0  0  0  0  0  0  0  0  0
   39.7020   33.9740   38.6530 C   0  0  0  0  0  0  0  0  0  0  0  0
   40.1650   32.8700   37.9290 C   0  0  0  0  0  0  0  0  0  0  0  0
   41.4570   32.4250   38.2330 C   0  0  0  0  0  0  0  0  0  0  0  0
   42.2000   33.0780   39.2070 C   0  0  0  0  0  0  0  0  0  0  0  0
   41.7190   34.1510   39.8910 C   0  0  0  0  0  0  0  0  0  0  0  0
   44.0259   36.2239   42.2203 H   0  0  0  0  0  0  0  0  0  0  0  0
   45.4662   35.8002   41.2542 H   0  0  0  0  0  0  0  0  0  0  0  0
   43.6365   35.0636   44.4604 H   0  0  0  0  0  0  0  0  0  0  0  0
   47.0363   33.0902   46.0903 H   0  0  0  0  0  0  0  0  0  0  0  0
   48.3278   36.1109   42.4359 H   0  0  0  0  0  0  0  0  0  0  0  0
   48.3798   33.9811   38.7581 H   0  0  0  0  0  0  0  0  0  0  0  0
   44.3850   34.0931   40.2417 H   0  0  0  0  0  0  0  0  0  0  0  0
   43.7976   33.4667   41.8512 H   0  0  0  0  0  0  0  0  0  0  0  0
   40.3303   37.1145   41.7956 H   0  0  0  0  0  0  0  0  0  0  0  0
   38.6889   34.3421   38.4338 H   0  0  0  0  0  0  0  0  0  0  0  0
   39.5475   32.3785   37.1627 H   0  0  0  0  0  0  0  0  0  0  0  0
   41.8821   31.5607   37.7018 H   0  0  0  0  0  0  0  0  0  0  0  0
   43.2133   32.7150   39.4337 H   0  0  0  0  0  0  0  0  0  0  0  0
  1  3  1  0
  2  3  1  0
  2  7  2  0
  3  4  2  0
  4  5  1  0
  6  5  2  0
  7  6  1  0
  8  2  1  0
  9  8  1  0
 10  9  2  0
 11 10  1  0
 11 12  2  0
 12  8  1  0
 13  1  1  0
 14 13  1  0
 14 15  2  0
 16 15  1  0
 17 16  2  0
 18 23  2  0
 18 17  1  0
 19 18  1  0
 20 21  1  0
 20 19  2  0
 21 22  2  0
 22 23  1  0
 23 14  1  0
  1 24  1  0
  1 25  1  0
  4 26  1  0
  6 27  1  0
  9 28  1  0
 11 29  1  0
 13 30  1  0
 13 31  1  0
 16 32  1  0
 19 33  1  0
 20 34  1  0
 21 35  1  0
 22 36  1  0
M  ISO  8  24   8  25   8  26  14  27  14  28  14  29  14  30   8  31   8
M  ISO  5  32  14  33  14  34  14  35  14  36  14
M  END
>  <minimizedAffinity>  (1) 
-5.74854183

>  <minimizedRMSD>  (1) 
2.48207188

$$$$
