
     RDKit          3D

 35 38  0  0  0  0  0  0  0  0999 V2000
   44.8810   35.8730   42.7930 C   0  0  0  0  0  0  0  0  0  0  0  0
   46.5490   34.1700   43.4330 C   0  0  0  0  0  0  0  0  0  0  0  0
   45.4420   34.9530   43.7740 C   0  0  0  0  0  0  0  0  0  0  0  0
   44.9370   34.7970   45.0610 C   0  0  0  0  0  0  0  0  0  0  0  0
   45.5330   33.9070   45.9160 N   0  0  0  0  0  0  0  0  0  0  0  0
   46.5860   33.1830   45.5490 C   0  0  0  0  0  0  0  0  0  0  0  0
   47.0810   33.3190   44.3210 N   0  0  0  0  0  0  0  0  0  0  0  0
   47.0830   34.3130   42.1220 N   0  0  0  0  0  0  0  0  0  0  0  0
   48.1600   35.1450   42.0470 C   0  0  0  0  0  0  0  0  0  0  0  0
   48.5840   35.2080   40.7680 N   0  0  0  0  0  0  0  0  0  0  0  0
   47.7400   34.3950   40.0750 C   0  0  0  0  0  0  0  0  0  0  0  0
   46.8280   33.8540   40.9170 N   0  0  0  0  0  0  0  0  0  0  0  0
   43.4240   35.5040   42.5880 C   0  0  0  0  0  0  0  0  0  0  0  0
   43.1520   34.9360   41.2950 N   0  0  0  0  0  0  0  0  0  0  0  0
   42.7640   35.6210   40.1820 C   0  0  0  0  0  0  0  0  0  0  0  0
   42.6130   34.7120   39.1760 N   0  0  0  0  0  0  0  0  0  0  0  0
   42.9040   33.5220   39.6810 C   0  0  0  0  0  0  0  0  0  0  0  0
   42.8800   32.3200   39.0030 C   0  0  0  0  0  0  0  0  0  0  0  0
   43.2120   31.2010   39.6990 N   0  0  0  0  0  0  0  0  0  0  0  0
   43.5470   31.3220   41.0080 C   0  0  0  0  0  0  0  0  0  0  0  0
   43.5700   32.4860   41.6600 N   0  0  0  0  0  0  0  0  0  0  0  0
   43.2510   33.6040   41.0140 C   0  0  0  0  0  0  0  0  0  0  0  0
   42.5250   32.1940   37.6170 N   0  0  0  0  0  0  0  0  0  0  0  0
   44.9564   36.9060   43.1634 H   0  0  0  0  0  0  0  0  0  0  0  0
   45.4314   35.8030   41.8432 H   0  0  0  0  0  0  0  0  0  0  0  0
   44.0663   35.3833   45.3897 H   0  0  0  0  0  0  0  0  0  0  0  0
   47.0452   32.4761   46.2557 H   0  0  0  0  0  0  0  0  0  0  0  0
   48.6119   35.6803   42.8951 H   0  0  0  0  0  0  0  0  0  0  0  0
   47.7913   34.2059   38.9926 H   0  0  0  0  0  0  0  0  0  0  0  0
   43.1390   34.7710   43.3571 H   0  0  0  0  0  0  0  0  0  0  0  0
   42.8414   36.4342   42.6616 H   0  0  0  0  0  0  0  0  0  0  0  0
   42.6025   36.7066   40.1086 H   0  0  0  0  0  0  0  0  0  0  0  0
   43.8144   30.4104   41.5625 H   0  0  0  0  0  0  0  0  0  0  0  0
   42.5261   31.2674   37.1673 H   0  0  0  0  0  0  0  0  0  0  0  0
   42.2694   33.0303   37.0728 H   0  0  0  0  0  0  0  0  0  0  0  0
  1  3  1  0
  2  3  1  0
  2  7  2  0
  3  4  2  0
  4  5  1  0
  6  5  2  0
  7  6  1  0
  8  2  1  0
  9  8  1  0
 10  9  2  0
 11 10  1  0
 11 12  2  0
 12  8  1  0
 13  1  1  0
 14 13  1  0
 15 14  1  0
 16 17  1  0
 16 15  2  0
 17 22  2  0
 18 17  1  0
 18 19  2  0
 19 20  1  0
 20 21  2  0
 22 14  1  0
 22 21  1  0
 23 18  1  0
  1 24  1  0
  1 25  1  0
  4 26  1  0
  6 27  1  0
  9 28  1  0
 11 29  1  0
 13 30  1  0
 13 31  1  0
 15 32  1  0
 20 33  1  0
 23 34  1  0
 23 35  1  0
M  ISO  8  24   8  25   8  26  14  27  14  28  14  29  14  30   8  31   8
M  ISO  2  32  14  33  14
M  END
>  <minimizedAffinity>  (1) 
-5.21836042

>  <minimizedRMSD>  (1) 
3.58748794

$$$$
