
     RDKit          3D

 36 38  0  0  0  0  0  0  0  0999 V2000
   46.3300   34.2850   43.3640 C   0  0  0  0  0  0  0  0  0  0  0  0
   45.1730   35.0320   43.5650 C   0  0  0  0  0  0  0  0  0  0  0  0
   44.6450   35.0130   44.8670 C   0  0  0  0  0  0  0  0  0  0  0  0
   45.2710   34.2900   45.8270 N   0  0  0  0  0  0  0  0  0  0  0  0
   46.3770   33.5890   45.5900 C   0  0  0  0  0  0  0  0  0  0  0  0
   46.8890   33.5990   44.3610 N   0  0  0  0  0  0  0  0  0  0  0  0
   46.8870   34.2890   42.0510 N   0  0  0  0  0  0  0  0  0  0  0  0
   47.9170   35.1700   41.8900 C   0  0  0  0  0  0  0  0  0  0  0  0
   48.3720   35.0980   40.6220 N   0  0  0  0  0  0  0  0  0  0  0  0
   47.5950   34.1540   40.0200 C   0  0  0  0  0  0  0  0  0  0  0  0
   46.6840   33.6620   40.9060 N   0  0  0  0  0  0  0  0  0  0  0  0
   44.5740   35.7780   42.4640 C   0  0  0  0  0  0  0  0  0  0  0  0
   43.3870   34.9750   41.9580 C   0  0  0  0  0  0  0  0  0  0  0  0
   42.6490   35.6090   40.9150 N   0  0  0  0  0  0  0  0  0  0  0  0
   42.8020   34.7500   39.7330 C   0  0  0  0  0  0  0  0  0  0  0  0
   42.1330   35.3630   38.5300 C   0  0  0  0  0  0  0  0  0  0  0  0
   40.7260   35.5160   38.8250 N   0  0  0  0  0  0  0  0  0  0  0  0
   40.3550   35.1890   40.1640 C   0  0  0  0  0  0  0  0  0  0  0  0
   41.2480   35.7990   41.2260 C   0  0  0  0  0  0  0  0  0  0  0  0
   43.7325   35.5794   45.1046 H   0  0  0  0  0  0  0  0  0  0  0  0
   46.8587   33.0127   46.3936 H   0  0  0  0  0  0  0  0  0  0  0  0
   48.3139   35.8345   42.6716 H   0  0  0  0  0  0  0  0  0  0  0  0
   47.6895   33.8355   38.9714 H   0  0  0  0  0  0  0  0  0  0  0  0
   44.2369   36.7634   42.8180 H   0  0  0  0  0  0  0  0  0  0  0  0
   45.3069   35.9339   41.6587 H   0  0  0  0  0  0  0  0  0  0  0  0
   43.7594   34.0116   41.5795 H   0  0  0  0  0  0  0  0  0  0  0  0
   42.6976   34.8639   42.8079 H   0  0  0  0  0  0  0  0  0  0  0  0
   43.8732   34.6178   39.5206 H   0  0  0  0  0  0  0  0  0  0  0  0
   42.3279   33.7795   39.9412 H   0  0  0  0  0  0  0  0  0  0  0  0
   42.2612   34.7058   37.6573 H   0  0  0  0  0  0  0  0  0  0  0  0
   42.5822   36.3410   38.3024 H   0  0  0  0  0  0  0  0  0  0  0  0
   40.4674   36.4979   38.6518 H   0  0  0  0  0  0  0  0  0  0  0  0
   39.3275   35.5434   40.3330 H   0  0  0  0  0  0  0  0  0  0  0  0
   40.4523   34.0975   40.2599 H   0  0  0  0  0  0  0  0  0  0  0  0
   41.0290   35.3233   42.1934 H   0  0  0  0  0  0  0  0  0  0  0  0
   41.0472   36.8798   41.2664 H   0  0  0  0  0  0  0  0  0  0  0  0
  1  2  1  0
  1  6  2  0
  2  3  2  0
  3  4  1  0
  5  4  2  0
  6  5  1  0
  7  1  1  0
  8  7  1  0
  9  8  2  0
 10  9  1  0
 10 11  2  0
 11  7  1  0
 12  2  1  0
 13 12  1  0
 14 19  1  0
 14 13  1  0
 15 14  1  0
 16 17  1  0
 16 15  1  0
 17 18  1  0
 18 19  1  0
  3 20  1  0
  5 21  1  0
  8 22  1  0
 10 23  1  0
 12 24  1  0
 12 25  1  0
 13 26  1  0
 13 27  1  0
 15 28  1  0
 15 29  1  0
 16 30  1  0
 16 31  1  0
 17 32  1  0
 18 33  1  0
 18 34  1  0
 19 35  1  0
 19 36  1  0
M  ISO  8  20  14  21  14  22  14  23  14  24   8  25   8  26   8  27   8
M  ISO  8  28  13  29  13  30  13  31  13  32   5  33  13  34  13  35  13
M  ISO  1  36  13
M  END
>  <minimizedAffinity>  (1) 
-5.27850771

>  <minimizedRMSD>  (1) 
0.839738786

$$$$
