
     RDKit          3D

 34 38  0  0  1  0  0  0  0  0999 V2000
   48.3210   34.1230   39.1050 C   0  0  2  0  0  0  0  0  0  0  0  0
   48.1360   34.3460   37.5890 C   0  0  0  0  0  0  0  0  0  0  0  0
   48.6680   33.0180   38.1530 C   0  0  2  0  0  0  0  0  0  0  0  0
   47.7850   31.8800   38.0040 N   0  0  0  0  0  0  0  0  0  0  0  0
   47.4350   30.8410   38.7920 C   0  0  0  0  0  0  0  0  0  0  0  0
   46.5540   30.0520   38.1490 N   0  0  0  0  0  0  0  0  0  0  0  0
   46.3170   30.5790   36.9160 C   0  0  0  0  0  0  0  0  0  0  0  0
   45.5050   30.1590   35.8840 C   0  0  0  0  0  0  0  0  0  0  0  0
   45.4470   30.8780   34.7360 N   0  0  0  0  0  0  0  0  0  0  0  0
   46.2080   31.9960   34.6670 C   0  0  0  0  0  0  0  0  0  0  0  0
   47.0080   32.4150   35.6760 N   0  0  0  0  0  0  0  0  0  0  0  0
   47.0980   31.7250   36.8460 C   0  0  0  0  0  0  0  0  0  0  0  0
   45.7970   34.1940   41.6870 N   0  0  0  0  0  0  0  0  0  0  0  0
   45.0500   33.7530   40.6390 C   0  0  0  0  0  0  0  0  0  0  0  0
   45.8220   33.6510   39.5480 N   0  0  0  0  0  0  0  0  0  0  0  0
   47.0730   34.0330   39.9140 C   0  0  0  0  0  0  0  0  0  0  0  0
   47.0130   34.3520   41.2080 N   0  0  0  0  0  0  0  0  0  0  0  0
   44.8310   35.7160   43.2870 C   0  0  0  0  0  0  0  0  0  0  0  0
   45.4610   34.4660   43.0410 C   0  0  0  0  0  0  0  0  0  0  0  0
   45.6930   33.6310   44.1090 C   0  0  0  0  0  0  0  0  0  0  0  0
   45.3020   34.0600   45.3390 N   0  0  0  0  0  0  0  0  0  0  0  0
   44.7130   35.2360   45.5480 C   0  0  0  0  0  0  0  0  0  0  0  0
   44.4810   36.0590   44.5270 N   0  0  0  0  0  0  0  0  0  0  0  0
   48.8711   34.6178   39.9190 H   0  0  0  0  0  0  0  0  0  0  0  0
   48.8068   35.0249   37.0421 H   0  0  0  0  0  0  0  0  0  0  0  0
   47.3067   34.6474   36.9322 H   0  0  0  0  0  0  0  0  0  0  0  0
   49.5690   32.3996   38.0275 H   0  0  0  0  0  0  0  0  0  0  0  0
   47.8140   30.6651   39.8096 H   0  0  0  0  0  0  0  0  0  0  0  0
   44.9057   29.2429   35.9917 H   0  0  0  0  0  0  0  0  0  0  0  0
   46.1746   32.5942   33.7445 H   0  0  0  0  0  0  0  0  0  0  0  0
   43.9766   33.5163   40.6806 H   0  0  0  0  0  0  0  0  0  0  0  0
   44.6314   36.4030   42.4514 H   0  0  0  0  0  0  0  0  0  0  0  0
   46.1769   32.6525   43.9734 H   0  0  0  0  0  0  0  0  0  0  0  0
   44.4174   35.5283   46.5664 H   0  0  0  0  0  0  0  0  0  0  0  0
  1 16  1  0
  2  3  1  0
  2  1  1  0
  3  1  1  0
  4  3  1  0
  4  5  1  0
  6  5  2  0
  7  6  1  0
  8  7  2  0
  9  8  1  0
 10  9  2  0
 10 11  1  0
 11 12  2  0
 12  7  1  0
 12  4  1  0
 13 19  1  0
 14 13  1  0
 15 16  1  0
 15 14  2  0
 16 17  2  0
 17 13  1  0
 18 23  2  0
 19 18  1  0
 19 20  2  0
 20 21  1  0
 21 22  2  0
 23 22  1  0
  1 24  1  1
  2 25  1  0
  2 26  1  0
  3 27  1  6
  5 28  1  0
  8 29  1  0
 10 30  1  0
 14 31  1  0
 18 32  1  0
 20 33  1  0
 22 34  1  0
M  ISO  8  24  13  25  13  26  13  27  13  28  14  29  14  30  14  31  14
M  ISO  3  32  14  33  14  34  14
M  END
>  <minimizedAffinity>  (1) 
-4.80022144

>  <minimizedRMSD>  (1) 
1.25359595

$$$$
