
     RDKit          3D

 32 35  0  0  1  0  0  0  0  0999 V2000
   45.7400   34.1200   41.4800 N   0  0  0  0  0  0  0  0  0  0  0  0
   44.9270   33.7050   40.4450 C   0  0  0  0  0  0  0  0  0  0  0  0
   45.6920   33.4400   39.3740 N   0  0  0  0  0  0  0  0  0  0  0  0
   46.9750   33.6890   39.7430 C   0  0  0  0  0  0  0  0  0  0  0  0
   46.9660   34.0960   41.0150 N   0  0  0  0  0  0  0  0  0  0  0  0
   44.9180   35.8360   42.9700 C   0  0  0  0  0  0  0  0  0  0  0  0
   45.4110   34.5140   42.8020 C   0  0  0  0  0  0  0  0  0  0  0  0
   45.5320   33.7090   43.9120 C   0  0  0  0  0  0  0  0  0  0  0  0
   45.1650   34.2460   45.1150 N   0  0  0  0  0  0  0  0  0  0  0  0
   44.7060   35.4880   45.2520 C   0  0  0  0  0  0  0  0  0  0  0  0
   44.5870   36.2680   44.1850 N   0  0  0  0  0  0  0  0  0  0  0  0
   48.2280   33.5660   38.9430 C   0  0  2  0  0  0  0  0  0  0  0  0
   48.3450   34.4830   37.7080 C   0  0  0  0  0  0  0  0  0  0  0  0
   48.1880   32.9590   37.5740 C   0  0  1  0  0  0  0  0  0  0  0  0
   49.3490   32.1810   37.0900 C   0  0  0  0  0  0  0  0  0  0  0  0
   49.2800   31.6300   35.8150 C   0  0  0  0  0  0  0  0  0  0  0  0
   50.3590   30.8920   35.3330 C   0  0  0  0  0  0  0  0  0  0  0  0
   51.4720   30.7230   36.1310 C   0  0  0  0  0  0  0  0  0  0  0  0
   51.5120   31.2770   37.3850 C   0  0  0  0  0  0  0  0  0  0  0  0
   50.4480   31.9810   37.8100 N   0  0  0  0  0  0  0  0  0  0  0  0
   43.8323   33.6074   40.4901 H   0  0  0  0  0  0  0  0  0  0  0  0
   44.8103   36.4999   42.0996 H   0  0  0  0  0  0  0  0  0  0  0  0
   45.9077   32.6781   43.8347 H   0  0  0  0  0  0  0  0  0  0  0  0
   44.4263   35.8665   46.2462 H   0  0  0  0  0  0  0  0  0  0  0  0
   48.8301   33.3591   39.8400 H   0  0  0  0  0  0  0  0  0  0  0  0
   47.5165   35.1525   37.4334 H   0  0  0  0  0  0  0  0  0  0  0  0
   49.0628   35.2360   37.3504 H   0  0  0  0  0  0  0  0  0  0  0  0
   47.4853   32.2899   37.0559 H   0  0  0  0  0  0  0  0  0  0  0  0
   48.3837   31.7752   35.1941 H   0  0  0  0  0  0  0  0  0  0  0  0
   50.3240   30.4487   34.3269 H   0  0  0  0  0  0  0  0  0  0  0  0
   52.3296   30.1423   35.7603 H   0  0  0  0  0  0  0  0  0  0  0  0
   52.3947   31.1483   38.0287 H   0  0  0  0  0  0  0  0  0  0  0  0
  1  7  1  0
  2  1  1  0
  3  4  1  0
  3  2  2  0
  4  5  2  0
  5  1  1  0
  6 11  2  0
  7  6  1  0
  7  8  2  0
  8  9  1  0
  9 10  2  0
 11 10  1  0
 12  4  1  0
 13 12  1  0
 14 13  1  0
 14 12  1  0
 15 14  1  0
 15 20  1  0
 16 15  2  0
 17 16  1  0
 17 18  2  0
 18 19  1  0
 19 20  2  0
  2 21  1  0
  6 22  1  0
  8 23  1  0
 10 24  1  0
 12 25  1  1
 13 26  1  0
 13 27  1  0
 14 28  1  6
 16 29  1  0
 17 30  1  0
 18 31  1  0
 19 32  1  0
M  ISO  8  21  14  22  14  23  14  24  14  25  13  26  13  27  13  28  13
M  ISO  4  29  14  30  14  31  14  32  14
M  END
>  <minimizedAffinity>  (1) 
-4.70788145

>  <minimizedRMSD>  (1) 
0.135724932

$$$$
