
     RDKit          3D

 49 53  0  0  1  0  0  0  0  0999 V2000
   42.1730   35.6200   40.7010 C   0  0  2  0  0  0  0  0  0  0  0  0
   40.8620   36.2290   41.0930 C   0  0  0  0  0  0  0  0  0  0  0  0
   39.8420   35.5940   40.2100 C   0  0  0  0  0  0  0  0  0  0  0  0
   40.6260   35.2150   38.9910 C   0  0  0  0  0  0  0  0  0  0  0  0
   41.9130   34.6860   39.5990 C   0  0  2  0  0  0  0  0  0  0  0  0
   41.8270   33.2560   39.9250 C   0  0  0  0  0  0  0  0  0  0  0  0
   42.7550   32.2250   39.9720 C   0  0  0  0  0  0  0  0  0  0  0  0
   42.2320   31.0550   40.3390 N   0  0  0  0  0  0  0  0  0  0  0  0
   40.9330   31.2730   40.5480 C   0  0  0  0  0  0  0  0  0  0  0  0
   39.9060   30.4250   40.9420 C   0  0  0  0  0  0  0  0  0  0  0  0
   38.6180   30.9360   41.0840 C   0  0  0  0  0  0  0  0  0  0  0  0
   38.3260   32.2670   40.8430 C   0  0  0  0  0  0  0  0  0  0  0  0
   39.3520   33.0710   40.4590 C   0  0  0  0  0  0  0  0  0  0  0  0
   40.6490   32.5960   40.3070 C   0  0  0  0  0  0  0  0  0  0  0  0
   42.9390   35.0380   41.8490 C   0  0  0  0  0  0  0  0  0  0  0  0
   44.2530   35.7670   42.1320 C   0  0  0  0  0  0  0  0  0  0  0  0
   45.9580   34.3220   43.1730 C   0  0  0  0  0  0  0  0  0  0  0  0
   44.8520   35.1590   43.3130 C   0  0  0  0  0  0  0  0  0  0  0  0
   44.3860   35.3580   44.6020 C   0  0  0  0  0  0  0  0  0  0  0  0
   45.0140   34.7440   45.6410 N   0  0  0  0  0  0  0  0  0  0  0  0
   46.0760   33.9460   45.4770 C   0  0  0  0  0  0  0  0  0  0  0  0
   46.5380   33.7420   44.2370 N   0  0  0  0  0  0  0  0  0  0  0  0
   46.4610   34.0990   41.8590 N   0  0  0  0  0  0  0  0  0  0  0  0
   47.5280   34.8610   41.5160 C   0  0  0  0  0  0  0  0  0  0  0  0
   47.9090   34.5600   40.2600 N   0  0  0  0  0  0  0  0  0  0  0  0
   47.0530   33.5990   39.8440 C   0  0  0  0  0  0  0  0  0  0  0  0
   46.1800   33.3290   40.8240 N   0  0  0  0  0  0  0  0  0  0  0  0
   42.8593   36.4043   40.3491 H   0  0  0  0  0  0  0  0  0  0  0  0
   40.6408   36.0161   42.1493 H   0  0  0  0  0  0  0  0  0  0  0  0
   40.8725   37.3231   40.9796 H   0  0  0  0  0  0  0  0  0  0  0  0
   39.4051   34.7054   40.6890 H   0  0  0  0  0  0  0  0  0  0  0  0
   38.9943   36.2583   39.9861 H   0  0  0  0  0  0  0  0  0  0  0  0
   40.8158   36.0883   38.3497 H   0  0  0  0  0  0  0  0  0  0  0  0
   40.1127   34.4931   38.3388 H   0  0  0  0  0  0  0  0  0  0  0  0
   42.7781   34.6725   38.9198 H   0  0  0  0  0  0  0  0  0  0  0  0
   43.8194   32.3603   39.7298 H   0  0  0  0  0  0  0  0  0  0  0  0
   42.7319   30.1602   40.4409 H   0  0  0  0  0  0  0  0  0  0  0  0
   40.1075   29.3618   41.1397 H   0  0  0  0  0  0  0  0  0  0  0  0
   37.8081   30.2608   41.3973 H   0  0  0  0  0  0  0  0  0  0  0  0
   37.3044   32.6585   40.9577 H   0  0  0  0  0  0  0  0  0  0  0  0
   39.1489   34.1340   40.2618 H   0  0  0  0  0  0  0  0  0  0  0  0
   42.3102   35.0896   42.7501 H   0  0  0  0  0  0  0  0  0  0  0  0
   43.1930   34.0023   41.5791 H   0  0  0  0  0  0  0  0  0  0  0  0
   44.9315   35.6634   41.2724 H   0  0  0  0  0  0  0  0  0  0  0  0
   44.0702   36.8384   42.3012 H   0  0  0  0  0  0  0  0  0  0  0  0
   43.5163   36.0064   44.7840 H   0  0  0  0  0  0  0  0  0  0  0  0
   46.5588   33.4681   46.3422 H   0  0  0  0  0  0  0  0  0  0  0  0
   48.0084   35.6094   42.1634 H   0  0  0  0  0  0  0  0  0  0  0  0
   47.0707   33.1151   38.8563 H   0  0  0  0  0  0  0  0  0  0  0  0
  1  2  1  0
  1 15  1  0
  3  2  1  0
  4  5  1  0
  4  3  1  0
  5  6  1  0
  5  1  1  0
  6  7  2  0
  6 14  1  0
  7  8  1  0
  8  9  1  0
  9 10  2  0
 10 11  1  0
 12 11  2  0
 13 12  1  0
 14 13  2  0
 14  9  1  0
 15 16  1  0
 16 18  1  0
 17 18  1  0
 17 22  2  0
 18 19  2  0
 19 20  1  0
 21 20  2  0
 22 21  1  0
 23 17  1  0
 24 23  1  0
 25 24  2  0
 26 25  1  0
 26 27  2  0
 27 23  1  0
  1 28  1  6
  2 29  1  0
  2 30  1  0
  3 31  1  0
  3 32  1  0
  4 33  1  0
  4 34  1  0
  5 35  1  6
  7 36  1  0
  8 37  1  0
 10 38  1  0
 11 39  1  0
 12 40  1  0
 13 41  1  0
 15 42  1  0
 15 43  1  0
 16 44  1  0
 16 45  1  0
 19 46  1  0
 21 47  1  0
 24 48  1  0
 26 49  1  0
M  ISO  8  28  13  29  13  30  13  31  13  32  13  33  13  34  13  35  13
M  ISO  8  36  14  37   9  38  14  39  14  40  14  41  14  42   8  43   8
M  ISO  6  44   8  45   8  46  14  47  14  48  14  49  14
M  END
>  <minimizedAffinity>  (1) 
-6.69883394

>  <minimizedRMSD>  (1) 
1.75869453

$$$$
