
     RDKit          3D

 42 45  0  0  1  0  0  0  0  0999 V2000
   43.4160   34.8980   41.5180 C   0  0  0  0  0  0  0  0  0  0  0  0
   42.2490   35.6480   40.9360 C   0  0  2  0  0  0  0  0  0  0  0  0
   40.9630   35.3890   41.6330 C   0  0  0  0  0  0  0  0  0  0  0  0
   40.0070   34.8830   40.5770 C   0  0  0  0  0  0  0  0  0  0  0  0
   40.5200   35.5750   39.3280 C   0  0  0  0  0  0  0  0  0  0  0  0
   42.0160   35.3660   39.4910 C   0  0  2  0  0  0  0  0  0  0  0  0
   42.4690   34.0510   39.0480 C   0  0  0  0  0  0  0  0  0  0  0  0
   41.6990   32.8820   39.0470 C   0  0  0  0  0  0  0  0  0  0  0  0
   42.5140   31.8700   38.5490 C   0  0  0  0  0  0  0  0  0  0  0  0
   43.7190   32.4350   38.2710 N   0  0  0  0  0  0  0  0  0  0  0  0
   43.7020   33.7250   38.5630 N   0  0  0  0  0  0  0  0  0  0  0  0
   44.4640   35.8220   42.1270 C   0  0  0  0  0  0  0  0  0  0  0  0
   46.1530   34.4190   43.2250 C   0  0  0  0  0  0  0  0  0  0  0  0
   44.9990   35.1850   43.3140 C   0  0  0  0  0  0  0  0  0  0  0  0
   44.4280   35.2840   44.5680 C   0  0  0  0  0  0  0  0  0  0  0  0
   45.0120   34.6420   45.6240 N   0  0  0  0  0  0  0  0  0  0  0  0
   46.1180   33.9160   45.5070 C   0  0  0  0  0  0  0  0  0  0  0  0
   46.6780   33.8150   44.2970 N   0  0  0  0  0  0  0  0  0  0  0  0
   46.7720   34.2950   41.9350 N   0  0  0  0  0  0  0  0  0  0  0  0
   47.8220   35.1420   41.7360 C   0  0  0  0  0  0  0  0  0  0  0  0
   48.3180   34.9380   40.5040 N   0  0  0  0  0  0  0  0  0  0  0  0
   47.5460   33.9470   39.9600 C   0  0  0  0  0  0  0  0  0  0  0  0
   46.6030   33.5630   40.8510 N   0  0  0  0  0  0  0  0  0  0  0  0
   43.8888   34.3077   40.7192 H   0  0  0  0  0  0  0  0  0  0  0  0
   43.0302   34.2563   42.3238 H   0  0  0  0  0  0  0  0  0  0  0  0
   42.5488   36.6973   41.0740 H   0  0  0  0  0  0  0  0  0  0  0  0
   41.1004   34.6309   42.4181 H   0  0  0  0  0  0  0  0  0  0  0  0
   40.5796   36.2983   42.1190 H   0  0  0  0  0  0  0  0  0  0  0  0
   40.0627   33.7888   40.4790 H   0  0  0  0  0  0  0  0  0  0  0  0
   38.9503   35.0940   40.7982 H   0  0  0  0  0  0  0  0  0  0  0  0
   40.2577   36.6432   39.3187 H   0  0  0  0  0  0  0  0  0  0  0  0
   40.1030   35.1893   38.3860 H   0  0  0  0  0  0  0  0  0  0  0  0
   42.6133   36.0280   38.8468 H   0  0  0  0  0  0  0  0  0  0  0  0
   40.6539   32.7828   39.3756 H   0  0  0  0  0  0  0  0  0  0  0  0
   42.2365   30.8150   38.4074 H   0  0  0  0  0  0  0  0  0  0  0  0
   44.5305   31.9299   37.8872 H   0  0  0  0  0  0  0  0  0  0  0  0
   45.2727   35.9960   41.4019 H   0  0  0  0  0  0  0  0  0  0  0  0
   44.0100   36.7892   42.3884 H   0  0  0  0  0  0  0  0  0  0  0  0
   43.5115   35.8742   44.7154 H   0  0  0  0  0  0  0  0  0  0  0  0
   46.5601   33.4128   46.3795 H   0  0  0  0  0  0  0  0  0  0  0  0
   48.2012   35.8731   42.4652 H   0  0  0  0  0  0  0  0  0  0  0  0
   47.6731   33.5266   38.9515 H   0  0  0  0  0  0  0  0  0  0  0  0
  1 12  1  0
  2  1  1  0
  2  3  1  0
  4  3  1  0
  5  6  1  0
  5  4  1  0
  6  2  1  0
  7  6  1  0
  8  7  1  0
  9  8  2  0
 10  9  1  0
 10 11  1  0
 11  7  2  0
 12 14  1  0
 13 14  1  0
 13 18  2  0
 14 15  2  0
 15 16  1  0
 17 16  2  0
 18 17  1  0
 19 13  1  0
 20 19  1  0
 21 20  2  0
 22 21  1  0
 22 23  2  0
 23 19  1  0
  1 24  1  0
  1 25  1  0
  2 26  1  6
  3 27  1  0
  3 28  1  0
  4 29  1  0
  4 30  1  0
  5 31  1  0
  5 32  1  0
  6 33  1  6
  8 34  1  0
  9 35  1  0
 10 36  1  0
 12 37  1  0
 12 38  1  0
 15 39  1  0
 17 40  1  0
 20 41  1  0
 22 42  1  0
M  ISO  8  24   8  25   8  26  13  27  13  28  13  29  13  30  13  31  13
M  ISO  8  32  13  33  13  34  14  35  14  36   9  37   8  38   8  39  14
M  ISO  3  40  14  41  14  42  14
M  END
>  <minimizedAffinity>  (1) 
-5.82889223

>  <minimizedRMSD>  (1) 
0.595808148

$$$$
