
     RDKit          3D

 49 53  0  0  1  0  0  0  0  0999 V2000
   42.2270   35.5900   40.6680 C   0  0  2  0  0  0  0  0  0  0  0  0
   40.9130   36.2760   40.9460 C   0  0  0  0  0  0  0  0  0  0  0  0
   39.8380   35.4830   40.2510 C   0  0  0  0  0  0  0  0  0  0  0  0
   40.5980   34.7980   39.1310 C   0  0  0  0  0  0  0  0  0  0  0  0
   41.8460   34.4480   39.8570 C   0  0  1  0  0  0  0  0  0  0  0  0
   42.7760   33.4870   39.3030 C   0  0  0  0  0  0  0  0  0  0  0  0
   43.6240   33.6840   38.2410 N   0  0  0  0  0  0  0  0  0  0  0  0
   44.4470   32.7750   37.7470 C   0  0  0  0  0  0  0  0  0  0  0  0
   44.5400   31.5310   38.2480 N   0  0  0  0  0  0  0  0  0  0  0  0
   43.7540   31.2170   39.2970 C   0  0  0  0  0  0  0  0  0  0  0  0
   43.8400   29.9490   39.8300 C   0  0  0  0  0  0  0  0  0  0  0  0
   43.0620   29.5950   40.9030 C   0  0  0  0  0  0  0  0  0  0  0  0
   42.1970   30.5260   41.4370 C   0  0  0  0  0  0  0  0  0  0  0  0
   42.1580   31.7610   40.8660 C   0  0  0  0  0  0  0  0  0  0  0  0
   42.9160   32.1880   39.7790 C   0  0  0  0  0  0  0  0  0  0  0  0
   42.8740   35.1590   41.9840 C   0  0  0  0  0  0  0  0  0  0  0  0
   44.2820   35.6900   42.1360 C   0  0  0  0  0  0  0  0  0  0  0  0
   46.0310   34.3500   43.1890 C   0  0  0  0  0  0  0  0  0  0  0  0
   44.8840   35.1200   43.3210 C   0  0  0  0  0  0  0  0  0  0  0  0
   44.3960   35.2870   44.5990 C   0  0  0  0  0  0  0  0  0  0  0  0
   45.0380   34.7070   45.6440 N   0  0  0  0  0  0  0  0  0  0  0  0
   46.1470   33.9670   45.4810 C   0  0  0  0  0  0  0  0  0  0  0  0
   46.6330   33.7960   44.2580 N   0  0  0  0  0  0  0  0  0  0  0  0
   46.5680   34.1540   41.8730 N   0  0  0  0  0  0  0  0  0  0  0  0
   47.6000   34.9660   41.5480 C   0  0  0  0  0  0  0  0  0  0  0  0
   48.0020   34.6750   40.2920 N   0  0  0  0  0  0  0  0  0  0  0  0
   47.1930   33.6750   39.8690 C   0  0  0  0  0  0  0  0  0  0  0  0
   46.3280   33.3720   40.8430 N   0  0  0  0  0  0  0  0  0  0  0  0
   42.9660   36.2285   40.1618 H   0  0  0  0  0  0  0  0  0  0  0  0
   40.7225   36.2998   42.0291 H   0  0  0  0  0  0  0  0  0  0  0  0
   40.9301   37.3132   40.5799 H   0  0  0  0  0  0  0  0  0  0  0  0
   39.3860   34.7465   40.9316 H   0  0  0  0  0  0  0  0  0  0  0  0
   39.0011   36.1018   39.8950 H   0  0  0  0  0  0  0  0  0  0  0  0
   40.7907   35.4797   38.2895 H   0  0  0  0  0  0  0  0  0  0  0  0
   40.0765   33.9504   38.6624 H   0  0  0  0  0  0  0  0  0  0  0  0
   41.6973   33.6267   40.5735 H   0  0  0  0  0  0  0  0  0  0  0  0
   45.0817   33.0477   36.8910 H   0  0  0  0  0  0  0  0  0  0  0  0
   44.5356   29.2175   39.3931 H   0  0  0  0  0  0  0  0  0  0  0  0
   43.1274   28.5837   41.3307 H   0  0  0  0  0  0  0  0  0  0  0  0
   41.5582   30.2786   42.2977 H   0  0  0  0  0  0  0  0  0  0  0  0
   41.4617   32.4908   41.3049 H   0  0  0  0  0  0  0  0  0  0  0  0
   42.2629   35.5350   42.8178 H   0  0  0  0  0  0  0  0  0  0  0  0
   42.9280   34.0603   41.9869 H   0  0  0  0  0  0  0  0  0  0  0  0
   44.8762   35.4130   41.2527 H   0  0  0  0  0  0  0  0  0  0  0  0
   44.2539   36.7858   42.2284 H   0  0  0  0  0  0  0  0  0  0  0  0
   43.4906   35.8875   44.7709 H   0  0  0  0  0  0  0  0  0  0  0  0
   46.6451   33.5094   46.3485 H   0  0  0  0  0  0  0  0  0  0  0  0
   48.0392   35.7361   42.1992 H   0  0  0  0  0  0  0  0  0  0  0  0
   47.2397   33.1899   38.8829 H   0  0  0  0  0  0  0  0  0  0  0  0
  1  2  1  0
  1 16  1  0
  3  2  1  0
  4  5  1  0
  4  3  1  0
  5  1  1  0
  6 15  1  0
  6  5  1  0
  7  6  2  0
  8  7  1  0
  8  9  2  0
  9 10  1  0
 10 15  2  0
 10 11  1  0
 11 12  2  0
 12 13  1  0
 14 13  2  0
 15 14  1  0
 16 17  1  0
 17 19  1  0
 18 19  1  0
 18 23  2  0
 19 20  2  0
 20 21  1  0
 22 21  2  0
 23 22  1  0
 24 18  1  0
 25 24  1  0
 26 25  2  0
 27 26  1  0
 27 28  2  0
 28 24  1  0
  1 29  1  6
  2 30  1  0
  2 31  1  0
  3 32  1  0
  3 33  1  0
  4 34  1  0
  4 35  1  0
  5 36  1  1
  8 37  1  0
 11 38  1  0
 12 39  1  0
 13 40  1  0
 14 41  1  0
 16 42  1  0
 16 43  1  0
 17 44  1  0
 17 45  1  0
 20 46  1  0
 22 47  1  0
 25 48  1  0
 27 49  1  0
M  ISO  8  29  13  30  13  31  13  32  13  33  13  34  13  35  13  36  13
M  ISO  8  37  14  38  14  39  14  40  14  41  14  42   8  43   8  44   8
M  ISO  5  45   8  46  14  47  14  48  14  49  14
M  END
>  <minimizedAffinity>  (1) 
-5.83517265

>  <minimizedRMSD>  (1) 
1.96379721

$$$$
