
     RDKit          3D

 41 44  0  0  1  0  0  0  0  0999 V2000
   43.2350   34.9800   41.6990 C   0  0  0  0  0  0  0  0  0  0  0  0
   42.2960   35.7350   40.8090 C   0  0  2  0  0  0  0  0  0  0  0  0
   40.9290   35.9130   41.3750 C   0  0  0  0  0  0  0  0  0  0  0  0
   39.9910   35.4220   40.3230 C   0  0  0  0  0  0  0  0  0  0  0  0
   40.7520   35.6860   39.0490 C   0  0  0  0  0  0  0  0  0  0  0  0
   42.1430   35.1770   39.4520 C   0  0  2  0  0  0  0  0  0  0  0  0
   42.1770   33.7220   39.3780 N   0  0  0  0  0  0  0  0  0  0  0  0
   42.6740   32.8150   40.2490 C   0  0  0  0  0  0  0  0  0  0  0  0
   42.4920   31.5650   39.7810 N   0  0  0  0  0  0  0  0  0  0  0  0
   41.8700   31.7330   38.5950 C   0  0  0  0  0  0  0  0  0  0  0  0
   41.6720   33.0380   38.3390 N   0  0  0  0  0  0  0  0  0  0  0  0
   44.4240   35.8200   42.1650 C   0  0  0  0  0  0  0  0  0  0  0  0
   46.1170   34.3910   43.2360 C   0  0  0  0  0  0  0  0  0  0  0  0
   44.9750   35.1760   43.3480 C   0  0  0  0  0  0  0  0  0  0  0  0
   44.4320   35.2860   44.6190 C   0  0  0  0  0  0  0  0  0  0  0  0
   45.0230   34.6420   45.6640 N   0  0  0  0  0  0  0  0  0  0  0  0
   46.1210   33.8970   45.5140 C   0  0  0  0  0  0  0  0  0  0  0  0
   46.6610   33.7770   44.3010 N   0  0  0  0  0  0  0  0  0  0  0  0
   46.7020   34.2570   41.9340 N   0  0  0  0  0  0  0  0  0  0  0  0
   47.7550   35.0900   41.7050 C   0  0  0  0  0  0  0  0  0  0  0  0
   48.2180   34.8720   40.4550 N   0  0  0  0  0  0  0  0  0  0  0  0
   47.4240   33.8980   39.9430 C   0  0  0  0  0  0  0  0  0  0  0  0
   46.5020   33.5270   40.8480 N   0  0  0  0  0  0  0  0  0  0  0  0
   43.6168   34.1087   41.1466 H   0  0  0  0  0  0  0  0  0  0  0  0
   42.6708   34.6838   42.5956 H   0  0  0  0  0  0  0  0  0  0  0  0
   42.8000   36.7103   40.7399 H   0  0  0  0  0  0  0  0  0  0  0  0
   40.8152   35.3230   42.2964 H   0  0  0  0  0  0  0  0  0  0  0  0
   40.7314   36.9626   41.6383 H   0  0  0  0  0  0  0  0  0  0  0  0
   39.7842   34.3486   40.4460 H   0  0  0  0  0  0  0  0  0  0  0  0
   39.0071   35.9129   40.3527 H   0  0  0  0  0  0  0  0  0  0  0  0
   40.7671   36.7569   38.7981 H   0  0  0  0  0  0  0  0  0  0  0  0
   40.3289   35.2101   38.1521 H   0  0  0  0  0  0  0  0  0  0  0  0
   42.9761   35.4856   38.8034 H   0  0  0  0  0  0  0  0  0  0  0  0
   43.1586   33.0629   41.2049 H   0  0  0  0  0  0  0  0  0  0  0  0
   41.5661   30.9129   37.9279 H   0  0  0  0  0  0  0  0  0  0  0  0
   45.1856   35.8656   41.3726 H   0  0  0  0  0  0  0  0  0  0  0  0
   44.1070   36.8480   42.3946 H   0  0  0  0  0  0  0  0  0  0  0  0
   43.5279   35.8907   44.7829 H   0  0  0  0  0  0  0  0  0  0  0  0
   46.5734   33.3896   46.3788 H   0  0  0  0  0  0  0  0  0  0  0  0
   48.1615   35.8201   42.4203 H   0  0  0  0  0  0  0  0  0  0  0  0
   47.5209   33.4733   38.9329 H   0  0  0  0  0  0  0  0  0  0  0  0
  1 12  1  0
  2  3  1  0
  2  1  1  0
  4  3  1  0
  5  6  1  0
  5  4  1  0
  6  2  1  0
  7  6  1  0
  7  8  1  0
  9  8  2  0
 10  9  1  0
 11 10  2  0
 11  7  1  0
 12 14  1  0
 13 14  1  0
 13 18  2  0
 14 15  2  0
 15 16  1  0
 17 16  2  0
 18 17  1  0
 19 13  1  0
 20 19  1  0
 21 20  2  0
 22 21  1  0
 22 23  2  0
 23 19  1  0
  1 24  1  0
  1 25  1  0
  2 26  1  6
  3 27  1  0
  3 28  1  0
  4 29  1  0
  4 30  1  0
  5 31  1  0
  5 32  1  0
  6 33  1  6
  8 34  1  0
 10 35  1  0
 12 36  1  0
 12 37  1  0
 15 38  1  0
 17 39  1  0
 20 40  1  0
 22 41  1  0
M  ISO  8  24   8  25   8  26  13  27  13  28  13  29  13  30  13  31  13
M  ISO  8  32  13  33  13  34  14  35  14  36   8  37   8  38  14  39  14
M  ISO  2  40  14  41  14
M  END
>  <minimizedAffinity>  (1) 
-5.79992628

>  <minimizedRMSD>  (1) 
0.386490405

$$$$
