
     RDKit          3D

 42 45  0  0  1  0  0  0  0  0999 V2000
   43.3660   34.8900   41.5480 C   0  0  0  0  0  0  0  0  0  0  0  0
   42.2540   35.6330   40.8600 C   0  0  2  0  0  0  0  0  0  0  0  0
   40.9440   35.5120   41.5450 C   0  0  0  0  0  0  0  0  0  0  0  0
   39.9940   34.9300   40.5010 C   0  0  0  0  0  0  0  0  0  0  0  0
   40.5710   35.4710   39.2330 C   0  0  0  0  0  0  0  0  0  0  0  0
   42.0690   35.2940   39.4400 C   0  0  2  0  0  0  0  0  0  0  0  0
   42.5190   33.9840   39.0620 N   0  0  0  0  0  0  0  0  0  0  0  0
   43.7010   33.7330   38.4990 N   0  0  0  0  0  0  0  0  0  0  0  0
   43.8170   32.4120   38.2690 C   0  0  0  0  0  0  0  0  0  0  0  0
   42.6630   31.7610   38.6960 C   0  0  0  0  0  0  0  0  0  0  0  0
   41.8830   32.7930   39.1840 C   0  0  0  0  0  0  0  0  0  0  0  0
   44.4310   35.8040   42.1310 C   0  0  0  0  0  0  0  0  0  0  0  0
   46.1410   34.4050   43.2010 C   0  0  0  0  0  0  0  0  0  0  0  0
   44.9860   35.1710   43.3050 C   0  0  0  0  0  0  0  0  0  0  0  0
   44.4300   35.2790   44.5810 C   0  0  0  0  0  0  0  0  0  0  0  0
   45.0300   34.6460   45.6190 N   0  0  0  0  0  0  0  0  0  0  0  0
   46.1310   33.9220   45.4860 C   0  0  0  0  0  0  0  0  0  0  0  0
   46.6890   33.8000   44.2760 N   0  0  0  0  0  0  0  0  0  0  0  0
   46.7420   34.2730   41.9050 N   0  0  0  0  0  0  0  0  0  0  0  0
   47.7830   35.1020   41.6740 C   0  0  0  0  0  0  0  0  0  0  0  0
   48.2550   34.8810   40.4340 N   0  0  0  0  0  0  0  0  0  0  0  0
   47.4720   33.9000   39.9270 C   0  0  0  0  0  0  0  0  0  0  0  0
   46.5500   33.5330   40.8290 N   0  0  0  0  0  0  0  0  0  0  0  0
   43.8429   34.2206   40.8169 H   0  0  0  0  0  0  0  0  0  0  0  0
   42.9175   34.3371   42.3865 H   0  0  0  0  0  0  0  0  0  0  0  0
   42.6024   36.6747   40.9190 H   0  0  0  0  0  0  0  0  0  0  0  0
   41.0232   34.8388   42.4113 H   0  0  0  0  0  0  0  0  0  0  0  0
   40.5899   36.4814   41.9257 H   0  0  0  0  0  0  0  0  0  0  0  0
   40.0107   33.8302   40.5122 H   0  0  0  0  0  0  0  0  0  0  0  0
   38.9383   35.1947   40.6604 H   0  0  0  0  0  0  0  0  0  0  0  0
   40.3121   36.5319   39.1011 H   0  0  0  0  0  0  0  0  0  0  0  0
   40.1935   34.9645   38.3325 H   0  0  0  0  0  0  0  0  0  0  0  0
   42.6881   35.9370   38.7971 H   0  0  0  0  0  0  0  0  0  0  0  0
   44.6900   31.9218   37.8134 H   0  0  0  0  0  0  0  0  0  0  0  0
   42.4287   30.6870   38.6551 H   0  0  0  0  0  0  0  0  0  0  0  0
   40.8789   32.6646   39.6144 H   0  0  0  0  0  0  0  0  0  0  0  0
   45.2252   35.9693   41.3881 H   0  0  0  0  0  0  0  0  0  0  0  0
   43.9886   36.7746   42.3998 H   0  0  0  0  0  0  0  0  0  0  0  0
   43.5165   35.8703   44.7422 H   0  0  0  0  0  0  0  0  0  0  0  0
   46.5810   33.4272   46.3593 H   0  0  0  0  0  0  0  0  0  0  0  0
   48.1811   35.8399   42.3861 H   0  0  0  0  0  0  0  0  0  0  0  0
   47.5768   33.4668   38.9213 H   0  0  0  0  0  0  0  0  0  0  0  0
  1 12  1  0
  2  3  1  0
  2  1  1  0
  4  3  1  0
  5  6  1  0
  5  4  1  0
  6  2  1  0
  7 11  1  0
  7  6  1  0
  8  7  1  0
  9  8  2  0
  9 10  1  0
 10 11  2  0
 12 14  1  0
 13 14  1  0
 13 18  2  0
 14 15  2  0
 15 16  1  0
 17 16  2  0
 18 17  1  0
 19 13  1  0
 20 19  1  0
 21 20  2  0
 22 21  1  0
 22 23  2  0
 23 19  1  0
  1 24  1  0
  1 25  1  0
  2 26  1  6
  3 27  1  0
  3 28  1  0
  4 29  1  0
  4 30  1  0
  5 31  1  0
  5 32  1  0
  6 33  1  6
  9 34  1  0
 10 35  1  0
 11 36  1  0
 12 37  1  0
 12 38  1  0
 15 39  1  0
 17 40  1  0
 20 41  1  0
 22 42  1  0
M  ISO  8  24   8  25   8  26  13  27  13  28  13  29  13  30  13  31  13
M  ISO  8  32  13  33  13  34  14  35  14  36  14  37   8  38   8  39  14
M  ISO  3  40  14  41  14  42  14
M  END
>  <minimizedAffinity>  (1) 
-5.74571371

>  <minimizedRMSD>  (1) 
0.685207605

$$$$
