
     RDKit          3D

 33 36  0  0  1  0  0  0  0  0999 V2000
   48.2410   33.5680   38.8260 C   0  0  2  0  0  0  0  0  0  0  0  0
   48.3650   34.5800   37.6670 C   0  0  0  0  0  0  0  0  0  0  0  0
   48.1560   33.0860   37.4060 C   0  0  1  0  0  0  0  0  0  0  0  0
   49.2670   32.2520   36.9550 C   0  0  0  0  0  0  0  0  0  0  0  0
   49.2670   31.6950   35.6900 C   0  0  0  0  0  0  0  0  0  0  0  0
   50.2780   30.9050   35.2080 C   0  0  0  0  0  0  0  0  0  0  0  0
   51.3610   30.6460   36.0240 C   0  0  0  0  0  0  0  0  0  0  0  0
   51.3820   31.1920   37.2900 C   0  0  0  0  0  0  0  0  0  0  0  0
   50.3340   31.9940   37.7500 C   0  0  0  0  0  0  0  0  0  0  0  0
   45.7390   34.0490   41.3900 N   0  0  0  0  0  0  0  0  0  0  0  0
   44.9610   33.5910   40.3760 C   0  0  0  0  0  0  0  0  0  0  0  0
   45.7170   33.3420   39.2990 N   0  0  0  0  0  0  0  0  0  0  0  0
   46.9960   33.6470   39.6390 C   0  0  0  0  0  0  0  0  0  0  0  0
   46.9560   34.0680   40.9030 N   0  0  0  0  0  0  0  0  0  0  0  0
   44.9770   35.7860   42.8840 C   0  0  0  0  0  0  0  0  0  0  0  0
   45.4270   34.4480   42.7120 C   0  0  0  0  0  0  0  0  0  0  0  0
   45.5250   33.6470   43.8270 C   0  0  0  0  0  0  0  0  0  0  0  0
   45.1810   34.1910   45.0330 N   0  0  0  0  0  0  0  0  0  0  0  0
   44.7620   35.4510   45.1660 C   0  0  0  0  0  0  0  0  0  0  0  0
   44.6660   36.2290   44.0940 N   0  0  0  0  0  0  0  0  0  0  0  0
   48.8528   33.2760   39.6923 H   0  0  0  0  0  0  0  0  0  0  0  0
   47.5542   35.2961   37.4675 H   0  0  0  0  0  0  0  0  0  0  0  0
   49.1014   35.3369   37.3590 H   0  0  0  0  0  0  0  0  0  0  0  0
   47.4299   32.5335   36.7916 H   0  0  0  0  0  0  0  0  0  0  0  0
   48.4078   31.8970   35.0336 H   0  0  0  0  0  0  0  0  0  0  0  0
   50.2275   30.4861   34.1921 H   0  0  0  0  0  0  0  0  0  0  0  0
   52.1910   30.0163   35.6711 H   0  0  0  0  0  0  0  0  0  0  0  0
   52.2392   30.9927   37.9499 H   0  0  0  0  0  0  0  0  0  0  0  0
   50.3753   32.4186   38.7639 H   0  0  0  0  0  0  0  0  0  0  0  0
   43.8720   33.4460   40.4309 H   0  0  0  0  0  0  0  0  0  0  0  0
   44.8871   36.4527   42.0137 H   0  0  0  0  0  0  0  0  0  0  0  0
   45.8684   32.6048   43.7503 H   0  0  0  0  0  0  0  0  0  0  0  0
   44.4974   35.8434   46.1590 H   0  0  0  0  0  0  0  0  0  0  0  0
  1 13  1  0
  2  1  1  0
  3  2  1  0
  3  1  1  0
  4  3  1  0
  4  9  1  0
  5  4  2  0
  6  5  1  0
  6  7  2  0
  7  8  1  0
  8  9  2  0
 10 16  1  0
 11 10  1  0
 12 13  1  0
 12 11  2  0
 13 14  2  0
 14 10  1  0
 15 20  2  0
 16 15  1  0
 16 17  2  0
 17 18  1  0
 18 19  2  0
 20 19  1  0
  1 21  1  1
  2 22  1  0
  2 23  1  0
  3 24  1  1
  5 25  1  0
  6 26  1  0
  7 27  1  0
  8 28  1  0
  9 29  1  0
 11 30  1  0
 15 31  1  0
 17 32  1  0
 19 33  1  0
M  ISO  8  21  13  22  13  23  13  24  13  25  14  26  14  27  14  28  14
M  ISO  5  29  14  30  14  31  14  32  14  33  14
M  END
>  <minimizedAffinity>  (1) 
-4.68029261

>  <minimizedRMSD>  (1) 
0.415998846

$$$$
