
     RDKit          3D

 37 39  0  0  1  0  0  0  0  0999 V2000
   43.4770   34.8420   41.2320 C   0  0  0  0  0  0  0  0  0  0  0  0
   42.2000   35.4690   40.7470 C   0  0  2  0  0  0  0  0  0  0  0  0
   41.0950   35.4610   41.7530 C   0  0  0  0  0  0  0  0  0  0  0  0
   39.9530   34.7080   41.1010 C   0  0  0  0  0  0  0  0  0  0  0  0
   40.1590   35.1260   39.6490 C   0  0  0  0  0  0  0  0  0  0  0  0
   41.6510   34.8600   39.5110 C   0  0  1  0  0  0  0  0  0  0  0  0
   42.1250   35.5270   38.2740 C   0  0  0  0  0  0  0  0  0  0  0  0
   41.3810   36.2440   37.6090 O   0  0  0  0  0  0  0  0  0  0  0  0
   44.4360   35.8490   41.8580 C   0  0  0  0  0  0  0  0  0  0  0  0
   46.0940   34.5270   43.0970 C   0  0  0  0  0  0  0  0  0  0  0  0
   44.9260   35.2760   43.1030 C   0  0  0  0  0  0  0  0  0  0  0  0
   44.2900   35.4290   44.3320 C   0  0  0  0  0  0  0  0  0  0  0  0
   44.8290   34.8550   45.4290 N   0  0  0  0  0  0  0  0  0  0  0  0
   45.9610   34.1340   45.4000 C   0  0  0  0  0  0  0  0  0  0  0  0
   46.5850   33.9760   44.2280 N   0  0  0  0  0  0  0  0  0  0  0  0
   46.7730   34.3510   41.8440 N   0  0  0  0  0  0  0  0  0  0  0  0
   47.8100   35.2020   41.6540 C   0  0  0  0  0  0  0  0  0  0  0  0
   48.3660   34.9420   40.4490 N   0  0  0  0  0  0  0  0  0  0  0  0
   47.6390   33.9180   39.9230 C   0  0  0  0  0  0  0  0  0  0  0  0
   46.6760   33.5750   40.7870 N   0  0  0  0  0  0  0  0  0  0  0  0
   43.9791   34.3641   40.3779 H   0  0  0  0  0  0  0  0  0  0  0  0
   43.2100   34.1137   42.0119 H   0  0  0  0  0  0  0  0  0  0  0  0
   42.5221   36.5013   40.5456 H   0  0  0  0  0  0  0  0  0  0  0  0
   41.4167   34.9493   42.6721 H   0  0  0  0  0  0  0  0  0  0  0  0
   40.7983   36.4810   42.0386 H   0  0  0  0  0  0  0  0  0  0  0  0
   40.0534   33.6204   41.2314 H   0  0  0  0  0  0  0  0  0  0  0  0
   38.9566   34.9294   41.5111 H   0  0  0  0  0  0  0  0  0  0  0  0
   39.5677   34.5076   38.9576 H   0  0  0  0  0  0  0  0  0  0  0  0
   39.8461   36.1536   39.4122 H   0  0  0  0  0  0  0  0  0  0  0  0
   41.9474   33.8047   39.4193 H   0  0  0  0  0  0  0  0  0  0  0  0
   43.1639   35.3767   37.9451 H   0  0  0  0  0  0  0  0  0  0  0  0
   45.2778   36.0392   41.1759 H   0  0  0  0  0  0  0  0  0  0  0  0
   43.9235   36.8036   42.0478 H   0  0  0  0  0  0  0  0  0  0  0  0
   43.3595   36.0106   44.4085 H   0  0  0  0  0  0  0  0  0  0  0  0
   46.3656   33.6839   46.3185 H   0  0  0  0  0  0  0  0  0  0  0  0
   48.1439   35.9752   42.3616 H   0  0  0  0  0  0  0  0  0  0  0  0
   47.8150   33.4477   38.9443 H   0  0  0  0  0  0  0  0  0  0  0  0
  1  9  1  0
  2  1  1  0
  2  3  1  0
  4  3  1  0
  5  4  1  0
  6  5  1  0
  6  2  1  0
  7  6  1  0
  8  7  2  0
  9 11  1  0
 10 11  1  0
 10 15  2  0
 11 12  2  0
 12 13  1  0
 14 13  2  0
 15 14  1  0
 16 10  1  0
 17 16  1  0
 18 17  2  0
 19 18  1  0
 19 20  2  0
 20 16  1  0
  1 21  1  0
  1 22  1  0
  2 23  1  6
  3 24  1  0
  3 25  1  0
  4 26  1  0
  4 27  1  0
  5 28  1  0
  5 29  1  0
  6 30  1  6
  7 31  1  0
  9 32  1  0
  9 33  1  0
 12 34  1  0
 14 35  1  0
 17 36  1  0
 19 37  1  0
M  ISO  8  21   8  22   8  23  13  24  13  25  13  26  13  27  13  28  13
M  ISO  8  29  13  30  13  31   6  32   8  33   8  34  14  35  14  36  14
M  ISO  1  37  14
M  END
>  <minimizedAffinity>  (1) 
-5.50537825

>  <minimizedRMSD>  (1) 
0.792577684

$$$$
