
     RDKit          3D

 47 50  0  0  1  0  0  0  0  0999 V2000
   42.9390   35.0020   41.8760 C   0  0  0  0  0  0  0  0  0  0  0  0
   42.1780   35.5210   40.7050 C   0  0  2  0  0  0  0  0  0  0  0  0
   40.9360   36.2660   41.1090 C   0  0  0  0  0  0  0  0  0  0  0  0
   39.8190   35.6150   40.3100 C   0  0  0  0  0  0  0  0  0  0  0  0
   40.5560   35.1910   39.0760 C   0  0  0  0  0  0  0  0  0  0  0  0
   41.7910   34.5590   39.6730 C   0  0  2  0  0  0  0  0  0  0  0  0
   41.6680   33.1750   40.0120 N   0  0  0  0  0  0  0  0  0  0  0  0
   40.7450   32.4330   39.2070 C   0  0  0  0  0  0  0  0  0  0  0  0
   41.4650   32.2460   37.9100 C   0  0  0  0  0  0  0  0  0  0  0  0
   42.7600   31.6490   38.4920 C   0  0  0  0  0  0  0  0  0  0  0  0
   42.9300   32.4700   39.7210 C   0  0  0  0  0  0  0  0  0  0  0  0
   44.2680   35.7200   42.1030 C   0  0  0  0  0  0  0  0  0  0  0  0
   45.9960   34.3310   43.1690 C   0  0  0  0  0  0  0  0  0  0  0  0
   44.8660   35.1380   43.3070 C   0  0  0  0  0  0  0  0  0  0  0  0
   44.3910   35.3250   44.5920 C   0  0  0  0  0  0  0  0  0  0  0  0
   45.0330   34.7290   45.6330 N   0  0  0  0  0  0  0  0  0  0  0  0
   46.1100   33.9640   45.4700 C   0  0  0  0  0  0  0  0  0  0  0  0
   46.5870   33.7680   44.2460 N   0  0  0  0  0  0  0  0  0  0  0  0
   46.5080   34.1210   41.8620 N   0  0  0  0  0  0  0  0  0  0  0  0
   47.5540   34.9110   41.5120 C   0  0  0  0  0  0  0  0  0  0  0  0
   47.9550   34.6240   40.2630 N   0  0  0  0  0  0  0  0  0  0  0  0
   47.1230   33.6270   39.8500 C   0  0  0  0  0  0  0  0  0  0  0  0
   46.2610   33.3480   40.8410 N   0  0  0  0  0  0  0  0  0  0  0  0
   43.1434   33.9335   41.7131 H   0  0  0  0  0  0  0  0  0  0  0  0
   42.3197   35.1758   42.7684 H   0  0  0  0  0  0  0  0  0  0  0  0
   42.9303   36.1833   40.2518 H   0  0  0  0  0  0  0  0  0  0  0  0
   40.7537   36.1596   42.1886 H   0  0  0  0  0  0  0  0  0  0  0  0
   41.0150   37.3452   40.9112 H   0  0  0  0  0  0  0  0  0  0  0  0
   39.3926   34.7518   40.8419 H   0  0  0  0  0  0  0  0  0  0  0  0
   38.9573   36.2716   40.1191 H   0  0  0  0  0  0  0  0  0  0  0  0
   40.8108   36.0535   38.4426 H   0  0  0  0  0  0  0  0  0  0  0  0
   39.9828   34.5243   38.4151 H   0  0  0  0  0  0  0  0  0  0  0  0
   42.6198   34.4185   38.9635 H   0  0  0  0  0  0  0  0  0  0  0  0
   40.5151   31.4621   39.6701 H   0  0  0  0  0  0  0  0  0  0  0  0
   39.7806   32.9478   39.0853 H   0  0  0  0  0  0  0  0  0  0  0  0
   41.6397   33.1971   37.3857 H   0  0  0  0  0  0  0  0  0  0  0  0
   40.9495   31.6468   37.1450 H   0  0  0  0  0  0  0  0  0  0  0  0
   42.6394   30.5826   38.7331 H   0  0  0  0  0  0  0  0  0  0  0  0
   43.6194   31.6799   37.8061 H   0  0  0  0  0  0  0  0  0  0  0  0
   43.1898   31.8165   40.5669 H   0  0  0  0  0  0  0  0  0  0  0  0
   43.7356   33.2030   39.5671 H   0  0  0  0  0  0  0  0  0  0  0  0
   44.9323   35.5682   41.2395 H   0  0  0  0  0  0  0  0  0  0  0  0
   44.1150   36.8026   42.2233 H   0  0  0  0  0  0  0  0  0  0  0  0
   43.5031   35.9493   44.7708 H   0  0  0  0  0  0  0  0  0  0  0  0
   46.5993   33.4995   46.3388 H   0  0  0  0  0  0  0  0  0  0  0  0
   48.0082   35.6765   42.1584 H   0  0  0  0  0  0  0  0  0  0  0  0
   47.1526   33.1327   38.8677 H   0  0  0  0  0  0  0  0  0  0  0  0
  1 12  1  0
  2  3  1  0
  2  1  1  0
  4  3  1  0
  5  6  1  0
  5  4  1  0
  6  7  1  0
  6  2  1  0
  7  8  1  0
  9 10  1  0
  9  8  1  0
 10 11  1  0
 11  7  1  0
 12 14  1  0
 13 14  1  0
 13 18  2  0
 14 15  2  0
 15 16  1  0
 17 16  2  0
 18 17  1  0
 19 13  1  0
 20 19  1  0
 21 20  2  0
 22 21  1  0
 22 23  2  0
 23 19  1  0
  1 24  1  0
  1 25  1  0
  2 26  1  6
  3 27  1  0
  3 28  1  0
  4 29  1  0
  4 30  1  0
  5 31  1  0
  5 32  1  0
  6 33  1  6
  8 34  1  0
  8 35  1  0
  9 36  1  0
  9 37  1  0
 10 38  1  0
 10 39  1  0
 11 40  1  0
 11 41  1  0
 12 42  1  0
 12 43  1  0
 15 44  1  0
 17 45  1  0
 20 46  1  0
 22 47  1  0
M  ISO  8  24   8  25   8  26  13  27  13  28  13  29  13  30  13  31  13
M  ISO  8  32  13  33  13  34  13  35  13  36  13  37  13  38  13  39  13
M  ISO  8  40  13  41  13  42   8  43   8  44  14  45  14  46  14  47  14
M  END
>  <minimizedAffinity>  (1) 
-5.68780136

>  <minimizedRMSD>  (1) 
1.21192694

$$$$
