
     RDKit          3D

 37 40  0  0  1  0  0  0  0  0999 V2000
   45.3850   34.0420   41.6010 N   0  0  0  0  0  0  0  0  0  0  0  0
   44.4840   33.9040   40.5680 C   0  0  0  0  0  0  0  0  0  0  0  0
   45.1390   33.5690   39.4460 N   0  0  0  0  0  0  0  0  0  0  0  0
   46.4560   33.4920   39.7670 C   0  0  0  0  0  0  0  0  0  0  0  0
   46.5560   33.7840   41.0660 N   0  0  0  0  0  0  0  0  0  0  0  0
   44.6540   35.6620   43.2190 C   0  0  0  0  0  0  0  0  0  0  0  0
   45.1990   34.3800   42.9570 C   0  0  0  0  0  0  0  0  0  0  0  0
   45.5030   33.5700   44.0280 C   0  0  0  0  0  0  0  0  0  0  0  0
   45.2570   34.0600   45.2770 N   0  0  0  0  0  0  0  0  0  0  0  0
   44.7420   35.2700   45.4980 C   0  0  0  0  0  0  0  0  0  0  0  0
   44.4450   36.0590   44.4720 N   0  0  0  0  0  0  0  0  0  0  0  0
   47.6260   33.1650   38.9060 C   0  0  2  0  0  0  0  0  0  0  0  0
   48.1730   34.3190   38.0320 C   0  0  0  0  0  0  0  0  0  0  0  0
   47.4540   33.1080   37.4190 C   0  0  1  0  0  0  0  0  0  0  0  0
   48.2500   32.3090   36.5800 N   0  0  0  0  0  0  0  0  0  0  0  0
   49.0900   31.3360   37.1970 C   0  0  0  0  0  0  0  0  0  0  0  0
   50.4950   31.3200   36.6480 C   0  0  0  0  0  0  0  0  0  0  0  0
   50.5790   31.3270   35.2220 N   0  0  0  0  0  0  0  0  0  0  0  0
   49.3430   31.6560   34.5790 C   0  0  0  0  0  0  0  0  0  0  0  0
   48.6670   32.8050   35.3360 C   0  0  0  0  0  0  0  0  0  0  0  0
   43.3964   34.0464   40.6503 H   0  0  0  0  0  0  0  0  0  0  0  0
   44.4027   36.3316   42.3832 H   0  0  0  0  0  0  0  0  0  0  0  0
   45.9280   32.5660   43.8820 H   0  0  0  0  0  0  0  0  0  0  0  0
   44.5636   35.6137   46.5276 H   0  0  0  0  0  0  0  0  0  0  0  0
   48.0395   32.4641   39.6461 H   0  0  0  0  0  0  0  0  0  0  0  0
   47.6858   35.3051   38.0462 H   0  0  0  0  0  0  0  0  0  0  0  0
   49.1475   34.8104   37.8943 H   0  0  0  0  0  0  0  0  0  0  0  0
   46.5644   32.9082   36.8037 H   0  0  0  0  0  0  0  0  0  0  0  0
   49.1395   31.5516   38.2745 H   0  0  0  0  0  0  0  0  0  0  0  0
   48.6498   30.3496   36.9891 H   0  0  0  0  0  0  0  0  0  0  0  0
   51.0209   32.2089   37.0265 H   0  0  0  0  0  0  0  0  0  0  0  0
   50.9479   30.3745   36.9811 H   0  0  0  0  0  0  0  0  0  0  0  0
   51.2875   32.0196   34.9405 H   0  0  0  0  0  0  0  0  0  0  0  0
   49.5395   31.9650   33.5417 H   0  0  0  0  0  0  0  0  0  0  0  0
   48.6825   30.7763   34.5790 H   0  0  0  0  0  0  0  0  0  0  0  0
   49.3810   33.6291   35.4815 H   0  0  0  0  0  0  0  0  0  0  0  0
   47.8077   33.1887   34.7665 H   0  0  0  0  0  0  0  0  0  0  0  0
  1  7  1  0
  2  1  1  0
  3  4  1  0
  3  2  2  0
  4  5  2  0
  5  1  1  0
  6 11  2  0
  7  6  1  0
  7  8  2  0
  8  9  1  0
  9 10  2  0
 11 10  1  0
 12  4  1  0
 13 12  1  0
 14 13  1  0
 14 12  1  0
 15 16  1  0
 15 14  1  0
 17 16  1  0
 18 17  1  0
 19 18  1  0
 19 20  1  0
 20 15  1  0
  2 21  1  0
  6 22  1  0
  8 23  1  0
 10 24  1  0
 12 25  1  1
 13 26  1  0
 13 27  1  0
 14 28  1  1
 16 29  1  0
 16 30  1  0
 17 31  1  0
 17 32  1  0
 18 33  1  0
 19 34  1  0
 19 35  1  0
 20 36  1  0
 20 37  1  0
M  ISO  8  21  14  22  14  23  14  24  14  25  13  26  13  27  13  28  13
M  ISO  8  29  13  30  13  31  13  32  13  33   5  34  13  35  13  36  13
M  ISO  1  37  13
M  END
>  <minimizedAffinity>  (1) 
-4.66517544

>  <minimizedRMSD>  (1) 
0.979485333

$$$$
