
     RDKit          3D

 38 42  0  0  0  0  0  0  0  0999 V2000
   44.5980   35.8140   44.9750 C   0  0  0  0  0  0  0  0  0  0  0  0
   44.1550   35.7910   43.6140 C   0  0  0  0  0  0  0  0  0  0  0  0
   44.4150   34.6530   42.8670 C   0  0  0  0  0  0  0  0  0  0  0  0
   45.0740   33.6240   43.4620 N   0  0  0  0  0  0  0  0  0  0  0  0
   45.4860   33.6670   44.7560 C   0  0  0  0  0  0  0  0  0  0  0  0
   45.2460   34.7690   45.5160 N   0  0  0  0  0  0  0  0  0  0  0  0
   46.1890   32.5500   45.3690 C   0  0  0  0  0  0  0  0  0  0  0  0
   47.1070   31.6930   44.7500 C   0  0  0  0  0  0  0  0  0  0  0  0
   47.5020   30.8170   45.6870 N   0  0  0  0  0  0  0  0  0  0  0  0
   46.8800   31.0800   46.8530 C   0  0  0  0  0  0  0  0  0  0  0  0
   46.9750   30.4380   48.0970 C   0  0  0  0  0  0  0  0  0  0  0  0
   46.2320   30.8830   49.1820 C   0  0  0  0  0  0  0  0  0  0  0  0
   45.4070   31.9560   49.0220 C   0  0  0  0  0  0  0  0  0  0  0  0
   45.2950   32.6140   47.7890 C   0  0  0  0  0  0  0  0  0  0  0  0
   46.0370   32.1720   46.7020 C   0  0  0  0  0  0  0  0  0  0  0  0
   43.9960   34.5620   41.4870 C   0  0  0  0  0  0  0  0  0  0  0  0
   44.7500   34.0990   40.4300 C   0  0  0  0  0  0  0  0  0  0  0  0
   43.9650   34.1920   39.3310 N   0  0  0  0  0  0  0  0  0  0  0  0
   42.7410   34.6950   39.6400 C   0  0  0  0  0  0  0  0  0  0  0  0
   41.6390   34.9580   38.8450 C   0  0  0  0  0  0  0  0  0  0  0  0
   40.4960   35.4780   39.4240 C   0  0  0  0  0  0  0  0  0  0  0  0
   40.5000   35.7170   40.7800 C   0  0  0  0  0  0  0  0  0  0  0  0
   41.6000   35.4560   41.5790 C   0  0  0  0  0  0  0  0  0  0  0  0
   42.7590   34.9280   41.0000 C   0  0  0  0  0  0  0  0  0  0  0  0
   44.4040   36.7051   45.5901 H   0  0  0  0  0  0  0  0  0  0  0  0
   43.6251   36.6492   43.1751 H   0  0  0  0  0  0  0  0  0  0  0  0
   47.4391   31.7303   43.7020 H   0  0  0  0  0  0  0  0  0  0  0  0
   48.1801   30.0564   45.5370 H   0  0  0  0  0  0  0  0  0  0  0  0
   47.6449   29.5734   48.2137 H   0  0  0  0  0  0  0  0  0  0  0  0
   46.3080   30.3773   50.1559 H   0  0  0  0  0  0  0  0  0  0  0  0
   44.8164   32.3134   49.8785 H   0  0  0  0  0  0  0  0  0  0  0  0
   44.6216   33.4774   47.6833 H   0  0  0  0  0  0  0  0  0  0  0  0
   45.7846   33.7276   40.4713 H   0  0  0  0  0  0  0  0  0  0  0  0
   44.2578   33.9169   38.3826 H   0  0  0  0  0  0  0  0  0  0  0  0
   41.6721   34.7556   37.7643 H   0  0  0  0  0  0  0  0  0  0  0  0
   39.6053   35.6954   38.8162 H   0  0  0  0  0  0  0  0  0  0  0  0
   39.5941   36.1314   41.2465 H   0  0  0  0  0  0  0  0  0  0  0  0
   41.5631   35.6618   42.6589 H   0  0  0  0  0  0  0  0  0  0  0  0
  1  6  2  0
  2  1  1  0
  3  4  1  0
  3  2  2  0
  4  5  2  0
  5  7  1  0
  5  6  1  0
  7 15  1  0
  8  7  2  0
  8  9  1  0
  9 10  1  0
 10 11  2  0
 11 12  1  0
 13 12  2  0
 14 13  1  0
 15 10  1  0
 15 14  2  0
 16  3  1  0
 17 16  2  0
 18 19  1  0
 18 17  1  0
 19 24  2  0
 20 21  2  0
 20 19  1  0
 21 22  1  0
 22 23  2  0
 24 16  1  0
 24 23  1  0
  1 25  1  0
  2 26  1  0
  8 27  1  0
  9 28  1  0
 11 29  1  0
 12 30  1  0
 13 31  1  0
 14 32  1  0
 17 33  1  0
 18 34  1  0
 20 35  1  0
 21 36  1  0
 22 37  1  0
 23 38  1  0
M  ISO  8  25  14  26  14  27  14  28   9  29  14  30  14  31  14  32  14
M  ISO  6  33  14  34   9  35  14  36  14  37  14  38  14
M  END
>  <minimizedAffinity>  (1) 
-7.50636768

>  <minimizedRMSD>  (1) 
0.429000318

$$$$
