
     RDKit          3D

 32 35  0  0  0  0  0  0  0  0999 V2000
   46.2270   32.5250   45.3820 C   0  0  0  0  0  0  0  0  0  0  0  0
   47.1690   31.6780   44.7810 C   0  0  0  0  0  0  0  0  0  0  0  0
   47.5620   30.8170   45.7400 N   0  0  0  0  0  0  0  0  0  0  0  0
   46.9180   31.0860   46.8910 C   0  0  0  0  0  0  0  0  0  0  0  0
   47.0060   30.4570   48.1420 C   0  0  0  0  0  0  0  0  0  0  0  0
   46.2330   30.9110   49.2090 C   0  0  0  0  0  0  0  0  0  0  0  0
   45.3900   31.9720   49.0220 C   0  0  0  0  0  0  0  0  0  0  0  0
   45.2980   32.6040   47.7760 C   0  0  0  0  0  0  0  0  0  0  0  0
   46.0570   32.1630   46.7180 C   0  0  0  0  0  0  0  0  0  0  0  0
   44.6410   35.7790   44.8690 C   0  0  0  0  0  0  0  0  0  0  0  0
   44.1810   35.7100   43.5260 C   0  0  0  0  0  0  0  0  0  0  0  0
   44.4290   34.5400   42.8280 C   0  0  0  0  0  0  0  0  0  0  0  0
   45.0860   33.5450   43.4520 N   0  0  0  0  0  0  0  0  0  0  0  0
   45.5210   33.6210   44.7360 C   0  0  0  0  0  0  0  0  0  0  0  0
   45.2920   34.7510   45.4420 N   0  0  0  0  0  0  0  0  0  0  0  0
   43.9860   34.3990   41.4460 C   0  0  0  0  0  0  0  0  0  0  0  0
   42.9920   35.2330   40.9760 C   0  0  0  0  0  0  0  0  0  0  0  0
   42.6220   35.0450   39.6660 C   0  0  0  0  0  0  0  0  0  0  0  0
   43.1580   34.1260   38.8450 N   0  0  0  0  0  0  0  0  0  0  0  0
   44.1330   33.3350   39.3710 C   0  0  0  0  0  0  0  0  0  0  0  0
   44.5420   33.4730   40.6600 N   0  0  0  0  0  0  0  0  0  0  0  0
   47.5167   31.7100   43.7379 H   0  0  0  0  0  0  0  0  0  0  0  0
   48.2531   30.0642   45.6114 H   0  0  0  0  0  0  0  0  0  0  0  0
   47.6864   29.6039   48.2809 H   0  0  0  0  0  0  0  0  0  0  0  0
   46.3000   30.4211   50.1916 H   0  0  0  0  0  0  0  0  0  0  0  0
   44.7769   32.3331   49.8609 H   0  0  0  0  0  0  0  0  0  0  0  0
   44.6158   33.4566   47.6432 H   0  0  0  0  0  0  0  0  0  0  0  0
   44.4605   36.6936   45.4528 H   0  0  0  0  0  0  0  0  0  0  0  0
   43.6492   36.5524   43.0596 H   0  0  0  0  0  0  0  0  0  0  0  0
   42.5249   36.0006   41.6106 H   0  0  0  0  0  0  0  0  0  0  0  0
   41.8308   35.6928   39.2606 H   0  0  0  0  0  0  0  0  0  0  0  0
   44.6008   32.5663   38.7383 H   0  0  0  0  0  0  0  0  0  0  0  0
  1  9  1  0
  2  1  2  0
  2  3  1  0
  3  4  1  0
  4  5  2  0
  5  6  1  0
  7  6  2  0
  8  7  1  0
  9  4  1  0
  9  8  2  0
 10 15  2  0
 11 10  1  0
 12 13  1  0
 12 11  2  0
 13 14  2  0
 14  1  1  0
 14 15  1  0
 16 12  1  0
 17 16  2  0
 18 17  1  0
 19 20  1  0
 19 18  2  0
 20 21  2  0
 21 16  1  0
  2 22  1  0
  3 23  1  0
  5 24  1  0
  6 25  1  0
  7 26  1  0
  8 27  1  0
 10 28  1  0
 11 29  1  0
 17 30  1  0
 18 31  1  0
 20 32  1  0
M  ISO  8  22  14  23   9  24  14  25  14  26  14  27  14  28  14  29  14
M  ISO  3  30  14  31  14  32  14
M  END
>  <minimizedAffinity>  (1) 
-5.81390762

>  <minimizedRMSD>  (1) 
0.607381403

$$$$
