
     RDKit          3D

 34 37  0  0  0  0  0  0  0  0999 V2000
   44.7290   35.7570   44.8420 C   0  0  0  0  0  0  0  0  0  0  0  0
   44.1690   35.6240   43.5360 C   0  0  0  0  0  0  0  0  0  0  0  0
   44.3230   34.4110   42.8850 C   0  0  0  0  0  0  0  0  0  0  0  0
   44.9950   33.4210   43.5210 N   0  0  0  0  0  0  0  0  0  0  0  0
   45.5200   33.5520   44.7510 C   0  0  0  0  0  0  0  0  0  0  0  0
   45.3820   34.7260   45.4050 N   0  0  0  0  0  0  0  0  0  0  0  0
   46.2430   32.4720   45.4230 C   0  0  0  0  0  0  0  0  0  0  0  0
   47.2080   31.6400   44.8470 C   0  0  0  0  0  0  0  0  0  0  0  0
   47.6070   30.7960   45.8170 N   0  0  0  0  0  0  0  0  0  0  0  0
   46.9440   31.0570   46.9590 C   0  0  0  0  0  0  0  0  0  0  0  0
   47.0100   30.4610   48.2190 C   0  0  0  0  0  0  0  0  0  0  0  0
   46.2240   30.9000   49.2610 C   0  0  0  0  0  0  0  0  0  0  0  0
   45.3660   31.9350   49.0580 C   0  0  0  0  0  0  0  0  0  0  0  0
   45.2820   32.5480   47.8020 C   0  0  0  0  0  0  0  0  0  0  0  0
   46.0660   32.1130   46.7580 C   0  0  0  0  0  0  0  0  0  0  0  0
   43.8150   34.1520   41.5900 N   0  0  0  0  0  0  0  0  0  0  0  0
   42.5040   33.9220   41.4050 C   0  0  0  0  0  0  0  0  0  0  0  0
   41.9180   33.6610   40.1830 C   0  0  0  0  0  0  0  0  0  0  0  0
   42.7190   33.6320   39.0620 C   0  0  0  0  0  0  0  0  0  0  0  0
   42.2730   33.4030   37.9090 O   0  0  0  0  0  0  0  0  0  0  0  0
   44.0490   33.8660   39.2520 N   0  0  0  0  0  0  0  0  0  0  0  0
   44.5630   34.1150   40.4710 C   0  0  0  0  0  0  0  0  0  0  0  0
   45.8000   34.3240   40.5820 O   0  0  0  0  0  0  0  0  0  0  0  0
   44.6259   36.7057   45.3891 H   0  0  0  0  0  0  0  0  0  0  0  0
   43.6320   36.4585   43.0613 H   0  0  0  0  0  0  0  0  0  0  0  0
   47.5691   31.6693   43.8084 H   0  0  0  0  0  0  0  0  0  0  0  0
   48.3163   30.0580   45.7020 H   0  0  0  0  0  0  0  0  0  0  0  0
   47.7040   29.6235   48.3832 H   0  0  0  0  0  0  0  0  0  0  0  0
   46.2896   30.4182   50.2477 H   0  0  0  0  0  0  0  0  0  0  0  0
   44.7346   32.2926   49.8847 H   0  0  0  0  0  0  0  0  0  0  0  0
   44.5837   33.3840   47.6485 H   0  0  0  0  0  0  0  0  0  0  0  0
   41.8516   33.9433   42.2904 H   0  0  0  0  0  0  0  0  0  0  0  0
   40.8357   33.4802   40.1056 H   0  0  0  0  0  0  0  0  0  0  0  0
   44.6796   33.8518   38.4378 H   0  0  0  0  0  0  0  0  0  0  0  0
  1  6  2  0
  2  1  1  0
  3  4  1  0
  3  2  2  0
  4  5  2  0
  5  6  1  0
  5  7  1  0
  7 15  1  0
  8  7  2  0
  8  9  1  0
  9 10  1  0
 10 11  2  0
 11 12  1  0
 13 12  2  0
 14 13  1  0
 15 10  1  0
 15 14  2  0
 16  3  1  0
 17 16  1  0
 18 17  2  0
 19 21  1  0
 19 18  1  0
 20 19  2  0
 21 22  1  0
 22 23  2  0
 22 16  1  0
  1 24  1  0
  2 25  1  0
  8 26  1  0
  9 27  1  0
 11 28  1  0
 12 29  1  0
 13 30  1  0
 14 31  1  0
 17 32  1  0
 18 33  1  0
 21 34  1  0
M  ISO  8  24  14  25  14  26  14  27   9  28  14  29  14  30  14  31  14
M  ISO  3  32  14  33  14  34   9
M  END
>  <minimizedAffinity>  (1) 
-5.94727039

>  <minimizedRMSD>  (1) 
0.792977452

$$$$
