
     RDKit          3D

 36 39  0  0  1  0  0  0  0  0999 V2000
   45.1350   33.9660   41.6120 N   0  0  0  0  0  0  0  0  0  0  0  0
   44.1670   33.9040   40.6420 C   0  0  0  0  0  0  0  0  0  0  0  0
   44.7230   33.5490   39.4750 N   0  0  0  0  0  0  0  0  0  0  0  0
   46.0510   33.3850   39.7080 C   0  0  0  0  0  0  0  0  0  0  0  0
   46.2510   33.6450   41.0000 N   0  0  0  0  0  0  0  0  0  0  0  0
   44.4710   35.5450   43.3010 C   0  0  0  0  0  0  0  0  0  0  0  0
   45.0530   34.2910   42.9810 C   0  0  0  0  0  0  0  0  0  0  0  0
   45.4910   33.4910   44.0110 C   0  0  0  0  0  0  0  0  0  0  0  0
   45.3370   33.9550   45.2870 N   0  0  0  0  0  0  0  0  0  0  0  0
   44.7870   35.1360   45.5650 C   0  0  0  0  0  0  0  0  0  0  0  0
   44.3610   35.9150   44.5780 N   0  0  0  0  0  0  0  0  0  0  0  0
   47.1470   33.0040   38.7690 C   0  0  2  0  0  0  0  0  0  0  0  0
   48.0120   34.1690   38.2350 C   0  0  0  0  0  0  0  0  0  0  0  0
   47.0610   33.4200   37.3310 C   0  0  1  0  0  0  0  0  0  0  0  0
   47.4780   32.5950   36.2760 N   0  0  0  0  0  0  0  0  0  0  0  0
   48.6400   32.8890   35.5570 C   0  0  0  0  0  0  0  0  0  0  0  0
   48.6090   32.5530   34.0880 C   0  0  0  0  0  0  0  0  0  0  0  0
   47.7620   31.5250   33.7620 O   0  0  0  0  0  0  0  0  0  0  0  0
   46.4690   31.9270   34.1170 C   0  0  0  0  0  0  0  0  0  0  0  0
   46.4250   31.9090   35.6260 C   0  0  0  0  0  0  0  0  0  0  0  0
   43.0984   34.1135   40.7979 H   0  0  0  0  0  0  0  0  0  0  0  0
   44.1124   36.2085   42.5003 H   0  0  0  0  0  0  0  0  0  0  0  0
   45.9497   32.5108   43.8140 H   0  0  0  0  0  0  0  0  0  0  0  0
   44.6861   35.4649   46.6098 H   0  0  0  0  0  0  0  0  0  0  0  0
   47.3206   32.0423   39.2740 H   0  0  0  0  0  0  0  0  0  0  0  0
   47.7916   35.2043   38.5341 H   0  0  0  0  0  0  0  0  0  0  0  0
   49.0858   34.4071   38.2204 H   0  0  0  0  0  0  0  0  0  0  0  0
   46.2436   33.7272   36.6621 H   0  0  0  0  0  0  0  0  0  0  0  0
   48.8308   33.9682   35.6518 H   0  0  0  0  0  0  0  0  0  0  0  0
   49.4265   32.2539   35.9906 H   0  0  0  0  0  0  0  0  0  0  0  0
   48.2908   33.4498   33.5361 H   0  0  0  0  0  0  0  0  0  0  0  0
   49.6232   32.2229   33.8189 H   0  0  0  0  0  0  0  0  0  0  0  0
   46.2677   32.9410   33.7412 H   0  0  0  0  0  0  0  0  0  0  0  0
   45.7079   31.2609   33.6846 H   0  0  0  0  0  0  0  0  0  0  0  0
   45.4763   32.3671   35.9425 H   0  0  0  0  0  0  0  0  0  0  0  0
   46.5280   30.8534   35.9177 H   0  0  0  0  0  0  0  0  0  0  0  0
  1  7  1  0
  2  1  1  0
  3  4  1  0
  3  2  2  0
  4  5  2  0
  5  1  1  0
  6 11  2  0
  7  6  1  0
  7  8  2  0
  8  9  1  0
  9 10  2  0
 11 10  1  0
 12  4  1  0
 13 12  1  0
 14 13  1  0
 14 12  1  0
 15 14  1  0
 16 15  1  0
 17 16  1  0
 18 17  1  0
 18 19  1  0
 19 20  1  0
 20 15  1  0
  2 21  1  0
  6 22  1  0
  8 23  1  0
 10 24  1  0
 12 25  1  6
 13 26  1  0
 13 27  1  0
 14 28  1  6
 16 29  1  0
 16 30  1  0
 17 31  1  0
 17 32  1  0
 19 33  1  0
 19 34  1  0
 20 35  1  0
 20 36  1  0
M  ISO  8  21  14  22  14  23  14  24  14  25  13  26  13  27  13  28  13
M  ISO  8  29  13  30  13  31  13  32  13  33  13  34  13  35  13  36  13
M  END
>  <minimizedAffinity>  (1) 
-4.65279245

>  <minimizedRMSD>  (1) 
1.70637953

$$$$
