
     RDKit          3D

 31 34  0  0  0  0  0  0  0  0999 V2000
   46.2070   32.5430   45.3810 C   0  0  0  0  0  0  0  0  0  0  0  0
   47.1330   31.7020   44.7640 C   0  0  0  0  0  0  0  0  0  0  0  0
   47.5280   30.8330   45.7070 N   0  0  0  0  0  0  0  0  0  0  0  0
   46.9050   31.0850   46.8640 C   0  0  0  0  0  0  0  0  0  0  0  0
   46.9960   30.4460   48.1140 C   0  0  0  0  0  0  0  0  0  0  0  0
   46.2470   30.8820   49.1910 C   0  0  0  0  0  0  0  0  0  0  0  0
   45.4130   31.9450   49.0220 C   0  0  0  0  0  0  0  0  0  0  0  0
   45.2960   32.6040   47.7930 C   0  0  0  0  0  0  0  0  0  0  0  0
   46.0420   32.1690   46.7220 C   0  0  0  0  0  0  0  0  0  0  0  0
   44.6310   35.8180   44.9400 C   0  0  0  0  0  0  0  0  0  0  0  0
   44.1400   35.7560   43.5960 C   0  0  0  0  0  0  0  0  0  0  0  0
   44.3640   34.5920   42.8810 C   0  0  0  0  0  0  0  0  0  0  0  0
   45.0280   33.5920   43.4920 N   0  0  0  0  0  0  0  0  0  0  0  0
   45.4920   33.6540   44.7640 C   0  0  0  0  0  0  0  0  0  0  0  0
   45.2850   34.7840   45.4840 N   0  0  0  0  0  0  0  0  0  0  0  0
   43.8900   34.4650   41.5080 C   0  0  0  0  0  0  0  0  0  0  0  0
   42.9750   35.3040   40.9100 C   0  0  0  0  0  0  0  0  0  0  0  0
   42.8690   34.7590   39.6250 C   0  0  0  0  0  0  0  0  0  0  0  0
   43.7100   33.6450   39.5240 C   0  0  0  0  0  0  0  0  0  0  0  0
   44.2870   33.5270   40.6820 O   0  0  0  0  0  0  0  0  0  0  0  0
   47.4706   31.7428   43.7179 H   0  0  0  0  0  0  0  0  0  0  0  0
   48.2139   30.0786   45.5609 H   0  0  0  0  0  0  0  0  0  0  0  0
   47.6726   29.5874   48.2361 H   0  0  0  0  0  0  0  0  0  0  0  0
   46.3233   30.3795   50.1665 H   0  0  0  0  0  0  0  0  0  0  0  0
   44.8143   32.2956   49.8756 H   0  0  0  0  0  0  0  0  0  0  0  0
   44.6147   33.4608   47.6844 H   0  0  0  0  0  0  0  0  0  0  0  0
   44.4683   36.7291   45.5345 H   0  0  0  0  0  0  0  0  0  0  0  0
   43.6031   36.6046   43.1471 H   0  0  0  0  0  0  0  0  0  0  0  0
   42.4596   36.1784   41.3340 H   0  0  0  0  0  0  0  0  0  0  0  0
   42.2257   35.1456   38.8209 H   0  0  0  0  0  0  0  0  0  0  0  0
   43.8532   33.0009   38.6439 H   0  0  0  0  0  0  0  0  0  0  0  0
  1  9  1  0
  2  1  2  0
  2  3  1  0
  3  4  1  0
  4  5  2  0
  5  6  1  0
  7  6  2  0
  8  7  1  0
  9  4  1  0
  9  8  2  0
 10 15  2  0
 11 10  1  0
 12 13  1  0
 12 11  2  0
 13 14  2  0
 14  1  1  0
 14 15  1  0
 16 12  1  0
 17 16  2  0
 18 17  1  0
 19 18  2  0
 19 20  1  0
 20 16  1  0
  2 21  1  0
  3 22  1  0
  5 23  1  0
  6 24  1  0
  7 25  1  0
  8 26  1  0
 10 27  1  0
 11 28  1  0
 17 29  1  0
 18 30  1  0
 19 31  1  0
M  ISO  8  21  14  22   9  23  14  24  14  25  14  26  14  27  14  28  14
M  ISO  3  29  14  30  14  31  14
M  END
>  <minimizedAffinity>  (1) 
-5.62212276

>  <minimizedRMSD>  (1) 
0.474846482

$$$$
