
     RDKit          3D

 36 39  0  0  1  0  0  0  0  0999 V2000
   48.3290   33.7510   39.1640 C   0  0  2  0  0  0  0  0  0  0  0  0
   48.4050   34.5420   37.8420 C   0  0  0  0  0  0  0  0  0  0  0  0
   48.3720   33.0380   37.8320 C   0  0  2  0  0  0  0  0  0  0  0  0
   45.7880   34.1570   41.6760 N   0  0  0  0  0  0  0  0  0  0  0  0
   45.0230   33.8200   40.6050 C   0  0  0  0  0  0  0  0  0  0  0  0
   45.8180   33.6220   39.5520 N   0  0  0  0  0  0  0  0  0  0  0  0
   47.0790   33.8300   39.9400 C   0  0  0  0  0  0  0  0  0  0  0  0
   47.0220   34.1520   41.2310 N   0  0  0  0  0  0  0  0  0  0  0  0
   44.8250   35.7240   43.2470 C   0  0  0  0  0  0  0  0  0  0  0  0
   45.4480   34.4690   43.0230 C   0  0  0  0  0  0  0  0  0  0  0  0
   45.6770   33.6500   44.1060 C   0  0  0  0  0  0  0  0  0  0  0  0
   45.2930   34.0880   45.3300 N   0  0  0  0  0  0  0  0  0  0  0  0
   44.7010   35.2890   45.5160 C   0  0  0  0  0  0  0  0  0  0  0  0
   44.4770   36.0850   44.4770 N   0  0  0  0  0  0  0  0  0  0  0  0
   45.0160   30.7560   36.4000 C   0  0  0  0  0  0  0  0  0  0  0  0
   45.1720   32.0720   36.0000 C   0  0  0  0  0  0  0  0  0  0  0  0
   46.2440   32.8140   36.4460 C   0  0  0  0  0  0  0  0  0  0  0  0
   47.2150   32.3200   37.2990 C   0  0  0  0  0  0  0  0  0  0  0  0
   47.0280   31.0030   37.6790 C   0  0  0  0  0  0  0  0  0  0  0  0
   45.9730   30.2430   37.2520 C   0  0  0  0  0  0  0  0  0  0  0  0
   43.7000   29.7560   35.8880 S   0  0  0  0  0  0  0  0  0  0  0  0
   44.2120   28.4350   35.4560 O   0  0  0  0  0  0  0  0  0  0  0  0
   42.9740   30.5020   34.7830 O   0  0  0  0  0  0  0  0  0  0  0  0
   48.9181   33.6786   40.0902 H   0  0  0  0  0  0  0  0  0  0  0  0
   47.5340   35.1151   37.4914 H   0  0  0  0  0  0  0  0  0  0  0  0
   49.0745   35.3112   37.4296 H   0  0  0  0  0  0  0  0  0  0  0  0
   49.0134   32.2497   37.4111 H   0  0  0  0  0  0  0  0  0  0  0  0
   43.9270   33.7258   40.6059 H   0  0  0  0  0  0  0  0  0  0  0  0
   44.6299   36.3990   42.4007 H   0  0  0  0  0  0  0  0  0  0  0  0
   46.1577   32.6685   43.9815 H   0  0  0  0  0  0  0  0  0  0  0  0
   44.4052   35.6065   46.5268 H   0  0  0  0  0  0  0  0  0  0  0  0
   44.4357   32.5282   35.3220 H   0  0  0  0  0  0  0  0  0  0  0  0
   46.3327   33.8561   36.1053 H   0  0  0  0  0  0  0  0  0  0  0  0
   47.7628   30.5445   38.3571 H   0  0  0  0  0  0  0  0  0  0  0  0
   45.8859   29.2015   37.5950 H   0  0  0  0  0  0  0  0  0  0  0  0
   42.8171   29.5065   36.9054 H   0  0  0  0  0  0  0  0  0  0  0  0
  1  7  1  0
  2  1  1  0
  3  2  1  0
  3  1  1  0
  4 10  1  0
  5  4  1  0
  6  7  1  0
  6  5  2  0
  7  8  2  0
  8  4  1  0
  9 14  2  0
 10  9  1  0
 10 11  2  0
 11 12  1  0
 12 13  2  0
 14 13  1  0
 15 20  2  0
 16 15  1  0
 16 17  2  0
 17 18  1  0
 18 19  2  0
 18  3  1  0
 20 19  1  0
 21 15  1  0
 22 21  2  0
 23 21  2  0
  1 24  1  1
  2 25  1  0
  2 26  1  0
  3 27  1  1
  5 28  1  0
  9 29  1  0
 11 30  1  0
 13 31  1  0
 16 32  1  0
 17 33  1  0
 19 34  1  0
 20 35  1  0
 21 36  1  0
M  ISO  8  24  13  25  13  26  13  27  13  28  14  29  14  30  14  31  14
M  ISO  5  32  14  33  14  34  14  35  14  36  11
M  END
>  <minimizedAffinity>  (1) 
-4.58646631

>  <minimizedRMSD>  (1) 
0.567008138

$$$$
