
     RDKit          3D

 30 33  0  0  0  0  0  0  0  0999 V2000
   46.2330   32.5150   45.3800 C   0  0  0  0  0  0  0  0  0  0  0  0
   47.1740   31.6720   44.7890 C   0  0  0  0  0  0  0  0  0  0  0  0
   47.5680   30.8150   45.7430 N   0  0  0  0  0  0  0  0  0  0  0  0
   46.9210   31.0800   46.9030 C   0  0  0  0  0  0  0  0  0  0  0  0
   47.0050   30.4590   48.1550 C   0  0  0  0  0  0  0  0  0  0  0  0
   46.2340   30.9070   49.2150 C   0  0  0  0  0  0  0  0  0  0  0  0
   45.3890   31.9670   49.0220 C   0  0  0  0  0  0  0  0  0  0  0  0
   45.2880   32.6050   47.7780 C   0  0  0  0  0  0  0  0  0  0  0  0
   46.0580   32.1600   46.7100 C   0  0  0  0  0  0  0  0  0  0  0  0
   44.6380   35.7700   44.8810 C   0  0  0  0  0  0  0  0  0  0  0  0
   44.1820   35.7050   43.5330 C   0  0  0  0  0  0  0  0  0  0  0  0
   44.4370   34.5380   42.8310 C   0  0  0  0  0  0  0  0  0  0  0  0
   45.0980   33.5210   43.4400 N   0  0  0  0  0  0  0  0  0  0  0  0
   45.5270   33.6050   44.7330 C   0  0  0  0  0  0  0  0  0  0  0  0
   45.2890   34.7390   45.4470 N   0  0  0  0  0  0  0  0  0  0  0  0
   44.0170   34.3900   41.4790 N   0  0  0  0  0  0  0  0  0  0  0  0
   44.3040   33.6230   40.4130 C   0  0  0  0  0  0  0  0  0  0  0  0
   43.5150   34.0010   39.3790 N   0  0  0  0  0  0  0  0  0  0  0  0
   42.7340   35.0190   39.8320 C   0  0  0  0  0  0  0  0  0  0  0  0
   43.0520   35.2480   41.1200 N   0  0  0  0  0  0  0  0  0  0  0  0
   47.5239   31.7036   43.7466 H   0  0  0  0  0  0  0  0  0  0  0  0
   48.2615   30.0648   45.6123 H   0  0  0  0  0  0  0  0  0  0  0  0
   47.6884   29.6090   48.2980 H   0  0  0  0  0  0  0  0  0  0  0  0
   46.2997   30.4180   50.1981 H   0  0  0  0  0  0  0  0  0  0  0  0
   44.7758   32.3258   49.8618 H   0  0  0  0  0  0  0  0  0  0  0  0
   44.6018   33.4548   47.6475 H   0  0  0  0  0  0  0  0  0  0  0  0
   44.4540   36.6808   45.4697 H   0  0  0  0  0  0  0  0  0  0  0  0
   43.6489   36.5474   43.0681 H   0  0  0  0  0  0  0  0  0  0  0  0
   45.0558   32.8205   40.3850 H   0  0  0  0  0  0  0  0  0  0  0  0
   41.9753   35.5603   39.2478 H   0  0  0  0  0  0  0  0  0  0  0  0
  1  9  1  0
  2  1  2  0
  2  3  1  0
  3  4  1  0
  4  5  2  0
  5  6  1  0
  7  6  2  0
  8  7  1  0
  9  4  1  0
  9  8  2  0
 10 15  2  0
 11 10  1  0
 12 13  1  0
 12 11  2  0
 13 14  2  0
 14  1  1  0
 14 15  1  0
 16 12  1  0
 17 16  1  0
 18 19  1  0
 18 17  2  0
 19 20  2  0
 20 16  1  0
  2 21  1  0
  3 22  1  0
  5 23  1  0
  6 24  1  0
  7 25  1  0
  8 26  1  0
 10 27  1  0
 11 28  1  0
 17 29  1  0
 19 30  1  0
M  ISO  8  21  14  22   9  23  14  24  14  25  14  26  14  27  14  28  14
M  ISO  2  29  14  30  14
M  END
>  <minimizedAffinity>  (1) 
-5.58481264

>  <minimizedRMSD>  (1) 
0.392988354

$$$$
