
     RDKit          3D

 26 28  0  0  0  0  0  0  0  0999 V2000
   46.2810   32.5280   45.4080 C   0  0  0  0  0  0  0  0  0  0  0  0
   47.2010   31.6710   44.8170 C   0  0  0  0  0  0  0  0  0  0  0  0
   47.5660   30.7980   45.7640 N   0  0  0  0  0  0  0  0  0  0  0  0
   46.9190   31.0670   46.9150 C   0  0  0  0  0  0  0  0  0  0  0  0
   46.9800   30.4330   48.1510 C   0  0  0  0  0  0  0  0  0  0  0  0
   46.2210   30.8800   49.2110 C   0  0  0  0  0  0  0  0  0  0  0  0
   45.3980   31.9650   49.0390 C   0  0  0  0  0  0  0  0  0  0  0  0
   45.3170   32.6220   47.8040 C   0  0  0  0  0  0  0  0  0  0  0  0
   46.0760   32.1720   46.7470 C   0  0  0  0  0  0  0  0  0  0  0  0
   44.5350   35.7310   44.9800 C   0  0  0  0  0  0  0  0  0  0  0  0
   44.2850   35.7750   43.5860 C   0  0  0  0  0  0  0  0  0  0  0  0
   44.7240   34.7010   42.8270 C   0  0  0  0  0  0  0  0  0  0  0  0
   45.3570   33.6800   43.4390 N   0  0  0  0  0  0  0  0  0  0  0  0
   45.5880   33.6590   44.7810 C   0  0  0  0  0  0  0  0  0  0  0  0
   45.1690   34.6930   45.5410 N   0  0  0  0  0  0  0  0  0  0  0  0
   44.4980   34.6780   41.3690 C   0  0  0  0  0  0  0  0  0  0  0  0
   43.6860   35.4980   40.8720 O   0  0  0  0  0  0  0  0  0  0  0  0
   47.5586   31.7034   43.7772 H   0  0  0  0  0  0  0  0  0  0  0  0
   48.2425   30.0326   45.6321 H   0  0  0  0  0  0  0  0  0  0  0  0
   47.6418   29.5645   48.2843 H   0  0  0  0  0  0  0  0  0  0  0  0
   46.2742   30.3722   50.1853 H   0  0  0  0  0  0  0  0  0  0  0  0
   44.7925   32.3244   49.8841 H   0  0  0  0  0  0  0  0  0  0  0  0
   44.6527   33.4899   47.6800 H   0  0  0  0  0  0  0  0  0  0  0  0
   44.2018   36.5658   45.6141 H   0  0  0  0  0  0  0  0  0  0  0  0
   43.7637   36.6267   43.1247 H   0  0  0  0  0  0  0  0  0  0  0  0
   45.0297   33.9575   40.7301 H   0  0  0  0  0  0  0  0  0  0  0  0
  1  9  1  0
  2  1  2  0
  2  3  1  0
  3  4  1  0
  4  5  2  0
  5  6  1  0
  7  6  2  0
  8  7  1  0
  9  4  1  0
  9  8  2  0
 10 15  2  0
 11 10  1  0
 12 13  1  0
 12 11  2  0
 13 14  2  0
 14  1  1  0
 14 15  1  0
 16 12  1  0
 17 16  2  0
  2 18  1  0
  3 19  1  0
  5 20  1  0
  6 21  1  0
  7 22  1  0
  8 23  1  0
 10 24  1  0
 11 25  1  0
 16 26  1  0
M  ISO  8  18  14  19   9  20  14  21  14  22  14  23  14  24  14  25  14
M  ISO  1  26   6
M  END
>  <minimizedAffinity>  (1) 
-5.16176033

>  <minimizedRMSD>  (1) 
0.132843778

$$$$
