
     RDKit          3D

 27 29  0  0  0  0  0  0  0  0999 V2000
   46.3380   32.4890   45.3860 C   0  0  0  0  0  0  0  0  0  0  0  0
   47.2630   31.6000   44.8350 C   0  0  0  0  0  0  0  0  0  0  0  0
   47.5850   30.7460   45.8220 N   0  0  0  0  0  0  0  0  0  0  0  0
   46.9180   31.0540   46.9410 C   0  0  0  0  0  0  0  0  0  0  0  0
   46.9430   30.4420   48.1990 C   0  0  0  0  0  0  0  0  0  0  0  0
   46.1570   30.9380   49.2310 C   0  0  0  0  0  0  0  0  0  0  0  0
   45.3680   32.0210   49.0000 C   0  0  0  0  0  0  0  0  0  0  0  0
   45.3270   32.6470   47.7510 C   0  0  0  0  0  0  0  0  0  0  0  0
   46.1010   32.1630   46.7260 C   0  0  0  0  0  0  0  0  0  0  0  0
   44.5540   35.6560   44.8730 C   0  0  0  0  0  0  0  0  0  0  0  0
   44.4590   35.7360   43.4660 C   0  0  0  0  0  0  0  0  0  0  0  0
   45.0050   34.7080   42.7130 C   0  0  0  0  0  0  0  0  0  0  0  0
   45.6050   33.6740   43.3590 N   0  0  0  0  0  0  0  0  0  0  0  0
   45.6920   33.6050   44.7000 C   0  0  0  0  0  0  0  0  0  0  0  0
   45.1620   34.6020   45.4480 N   0  0  0  0  0  0  0  0  0  0  0  0
   44.9370   34.7390   41.2710 C   0  0  0  0  0  0  0  0  0  0  0  0
   45.8550   34.1950   40.6060 O   0  0  0  0  0  0  0  0  0  0  0  0
   43.8610   35.3680   40.6480 O   0  0  0  0  0  0  0  0  0  0  0  0
   47.6490   31.5987   43.8049 H   0  0  0  0  0  0  0  0  0  0  0  0
   48.2506   29.9653   45.7302 H   0  0  0  0  0  0  0  0  0  0  0  0
   47.5863   29.5665   48.3709 H   0  0  0  0  0  0  0  0  0  0  0  0
   46.1726   30.4610   50.2221 H   0  0  0  0  0  0  0  0  0  0  0  0
   44.7458   32.4147   49.8173 H   0  0  0  0  0  0  0  0  0  0  0  0
   44.6791   33.5213   47.5906 H   0  0  0  0  0  0  0  0  0  0  0  0
   44.1309   36.4555   45.4990 H   0  0  0  0  0  0  0  0  0  0  0  0
   43.9652   36.5908   42.9809 H   0  0  0  0  0  0  0  0  0  0  0  0
   43.8071   35.3935   39.6598 H   0  0  0  0  0  0  0  0  0  0  0  0
  1  9  1  0
  2  1  2  0
  2  3  1  0
  3  4  1  0
  4  5  2  0
  5  6  1  0
  7  6  2  0
  8  7  1  0
  9  4  1  0
  9  8  2  0
 10 15  2  0
 11 10  1  0
 12 13  1  0
 12 11  2  0
 13 14  2  0
 14  1  1  0
 14 15  1  0
 16 12  1  0
 17 16  2  0
 18 16  1  0
  2 19  1  0
  3 20  1  0
  5 21  1  0
  6 22  1  0
  7 23  1  0
  8 24  1  0
 10 25  1  0
 11 26  1  0
 18 27  1  0
M  ISO  8  19  14  20   9  21  14  22  14  23  14  24  14  25  14  26  14
M  ISO  1  27   3
M  END
>  <minimizedAffinity>  (1) 
-5.52734089

>  <minimizedRMSD>  (1) 
0.398309112

$$$$
