
     RDKit          3D

 30 33  0  0  1  0  0  0  0  0999 V2000
   45.7320   34.0900   41.4590 N   0  0  0  0  0  0  0  0  0  0  0  0
   44.9540   33.6550   40.4260 C   0  0  0  0  0  0  0  0  0  0  0  0
   45.7310   33.4090   39.3620 N   0  0  0  0  0  0  0  0  0  0  0  0
   47.0080   33.6910   39.7280 C   0  0  0  0  0  0  0  0  0  0  0  0
   46.9700   34.0980   40.9960 N   0  0  0  0  0  0  0  0  0  0  0  0
   44.9250   35.8060   42.9540 C   0  0  0  0  0  0  0  0  0  0  0  0
   45.4080   34.4800   42.7850 C   0  0  0  0  0  0  0  0  0  0  0  0
   45.5210   33.6880   43.9040 C   0  0  0  0  0  0  0  0  0  0  0  0
   45.1620   34.2340   45.1020 N   0  0  0  0  0  0  0  0  0  0  0  0
   44.7120   35.4800   45.2360 C   0  0  0  0  0  0  0  0  0  0  0  0
   44.5960   36.2660   44.1480 N   0  0  0  0  0  0  0  0  0  0  0  0
   48.2630   33.6000   38.9330 C   0  0  2  0  0  0  0  0  0  0  0  0
   48.3490   34.4970   37.6780 C   0  0  0  0  0  0  0  0  0  0  0  0
   48.2300   32.9730   37.5690 C   0  0  1  0  0  0  0  0  0  0  0  0
   49.3730   32.2030   37.1410 C   0  0  0  0  0  0  0  0  0  0  0  0
   50.5660   31.8390   37.6620 C   0  0  0  0  0  0  0  0  0  0  0  0
   51.4500   31.0820   36.9800 C   0  0  0  0  0  0  0  0  0  0  0  0
   51.0610   30.6850   35.6820 C   0  0  0  0  0  0  0  0  0  0  0  0
   49.3760   31.4590   35.5150 S   0  0  0  0  0  0  0  0  0  0  0  0
   43.8621   33.5265   40.4609 H   0  0  0  0  0  0  0  0  0  0  0  0
   44.8234   36.4604   42.0757 H   0  0  0  0  0  0  0  0  0  0  0  0
   45.8871   32.6530   43.8357 H   0  0  0  0  0  0  0  0  0  0  0  0
   44.4367   35.8652   46.2289 H   0  0  0  0  0  0  0  0  0  0  0  0
   48.8755   33.4304   39.8308 H   0  0  0  0  0  0  0  0  0  0  0  0
   47.5022   35.1406   37.3975 H   0  0  0  0  0  0  0  0  0  0  0  0
   49.0459   35.2609   37.3028 H   0  0  0  0  0  0  0  0  0  0  0  0
   47.5421   32.2953   37.0422 H   0  0  0  0  0  0  0  0  0  0  0  0
   50.8251   32.1718   38.6779 H   0  0  0  0  0  0  0  0  0  0  0  0
   52.4192   30.7904   37.4108 H   0  0  0  0  0  0  0  0  0  0  0  0
   51.6137   30.0732   34.9538 H   0  0  0  0  0  0  0  0  0  0  0  0
  1  7  1  0
  2  1  1  0
  3  4  1  0
  3  2  2  0
  4  5  2  0
  5  1  1  0
  6 11  2  0
  7  6  1  0
  7  8  2  0
  8  9  1  0
  9 10  2  0
 11 10  1  0
 12  4  1  0
 13 12  1  0
 14 13  1  0
 14 12  1  0
 15 14  1  0
 15 16  2  0
 17 16  1  0
 18 17  2  0
 19 18  1  0
 19 15  1  0
  2 20  1  0
  6 21  1  0
  8 22  1  0
 10 23  1  0
 12 24  1  1
 13 25  1  0
 13 26  1  0
 14 27  1  6
 16 28  1  0
 17 29  1  0
 18 30  1  0
M  ISO  8  20  14  21  14  22  14  23  14  24  13  25  13  26  13  27  13
M  ISO  3  28  14  29  14  30  14
M  END
>  <minimizedAffinity>  (1) 
-4.55446243

>  <minimizedRMSD>  (1) 
0.304727912

$$$$
