
     RDKit          3D

 42 46  0  0  0  0  0  0  0  0999 V2000
   46.2800   33.3690   45.1110 C   0  0  0  0  0  0  0  0  0  0  0  0
   45.1510   33.6900   44.3220 C   0  0  0  0  0  0  0  0  0  0  0  0
   45.3980   33.8880   42.9720 C   0  0  0  0  0  0  0  0  0  0  0  0
   46.6430   33.7740   42.4830 N   0  0  0  0  0  0  0  0  0  0  0  0
   47.7120   33.4630   43.2740 C   0  0  0  0  0  0  0  0  0  0  0  0
   47.5080   33.2600   44.6050 N   0  0  0  0  0  0  0  0  0  0  0  0
   49.0570   33.3490   42.7380 C   0  0  0  0  0  0  0  0  0  0  0  0
   50.0530   34.3080   42.7600 C   0  0  0  0  0  0  0  0  0  0  0  0
   51.1210   33.7800   42.1650 N   0  0  0  0  0  0  0  0  0  0  0  0
   50.8490   32.5260   41.7650 C   0  0  0  0  0  0  0  0  0  0  0  0
   51.6400   31.5780   41.1000 C   0  0  0  0  0  0  0  0  0  0  0  0
   51.1320   30.3150   40.7770 C   0  0  0  0  0  0  0  0  0  0  0  0
   49.8530   30.0380   41.1270 C   0  0  0  0  0  0  0  0  0  0  0  0
   49.0290   30.9370   41.7850 C   0  0  0  0  0  0  0  0  0  0  0  0
   49.5330   32.1880   42.1040 C   0  0  0  0  0  0  0  0  0  0  0  0
   44.2780   34.2060   42.1800 C   0  0  0  0  0  0  0  0  0  0  0  0
   43.8640   35.4680   41.8750 C   0  0  0  0  0  0  0  0  0  0  0  0
   42.7990   35.7890   41.0990 C   0  0  0  0  0  0  0  0  0  0  0  0
   42.1370   34.5370   40.6220 C   0  0  0  0  0  0  0  0  0  0  0  0
   43.1780   33.1150   41.3870 S   0  0  0  0  0  0  0  0  0  0  0  0
   41.0270   34.2890   39.8140 N   0  0  0  0  0  0  0  0  0  0  0  0
   41.2020   34.3230   38.4780 C   0  0  0  0  0  0  0  0  0  0  0  0
   40.0960   34.0750   37.6820 C   0  0  0  0  0  0  0  0  0  0  0  0
   38.8870   33.8120   38.2940 C   0  0  0  0  0  0  0  0  0  0  0  0
   37.6990   33.5460   37.5620 N   0  0  0  0  0  0  0  0  0  0  0  0
   38.7780   33.7920   39.6350 N   0  0  0  0  0  0  0  0  0  0  0  0
   39.8640   34.0340   40.4270 C   0  0  0  0  0  0  0  0  0  0  0  0
   39.7830   34.0210   41.6890 O   0  0  0  0  0  0  0  0  0  0  0  0
   46.1383   33.2021   46.1890 H   0  0  0  0  0  0  0  0  0  0  0  0
   44.1421   33.7770   44.7516 H   0  0  0  0  0  0  0  0  0  0  0  0
   49.9773   35.3181   43.1888 H   0  0  0  0  0  0  0  0  0  0  0  0
   52.0218   34.2612   42.0312 H   0  0  0  0  0  0  0  0  0  0  0  0
   52.6754   31.8312   40.8282 H   0  0  0  0  0  0  0  0  0  0  0  0
   51.7515   29.5706   40.2554 H   0  0  0  0  0  0  0  0  0  0  0  0
   49.4471   29.0470   40.8756 H   0  0  0  0  0  0  0  0  0  0  0  0
   47.9967   30.6635   42.0486 H   0  0  0  0  0  0  0  0  0  0  0  0
   44.4459   36.3012   42.2960 H   0  0  0  0  0  0  0  0  0  0  0  0
   42.4732   36.8117   40.8582 H   0  0  0  0  0  0  0  0  0  0  0  0
   42.1860   34.5395   38.0365 H   0  0  0  0  0  0  0  0  0  0  0  0
   40.1793   34.0874   36.5852 H   0  0  0  0  0  0  0  0  0  0  0  0
   36.8185   33.3548   38.0611 H   0  0  0  0  0  0  0  0  0  0  0  0
   37.7181   33.5444   36.5322 H   0  0  0  0  0  0  0  0  0  0  0  0
  2  1  2  0
  3  2  1  0
  4  3  2  0
  4  5  1  0
  5  6  2  0
  6  1  1  0
  7  8  2  0
  7  5  1  0
  9  8  1  0
 10 15  2  0
 10  9  1  0
 11 10  1  0
 12 11  2  0
 12 13  1  0
 13 14  2  0
 14 15  1  0
 15  7  1  0
 16  3  1  0
 17 16  2  0
 18 17  1  0
 19 18  2  0
 19 20  1  0
 20 16  1  0
 21 27  1  0
 21 19  1  0
 22 21  1  0
 23 24  1  0
 23 22  2  0
 24 26  2  0
 25 24  1  0
 26 27  1  0
 27 28  2  0
  1 29  1  0
  2 30  1  0
  8 31  1  0
  9 32  1  0
 11 33  1  0
 12 34  1  0
 13 35  1  0
 14 36  1  0
 17 37  1  0
 18 38  1  0
 22 39  1  0
 23 40  1  0
 25 41  1  0
 25 42  1  0
M  ISO  8  29  14  30  14  31  14  32   9  33  14  34  14  35  14  36  14
M  ISO  4  37  14  38  14  39  14  40  14
M  END
>  <minimizedAffinity>  (1) 
-6.46182775

>  <minimizedRMSD>  (1) 
4.87974501

$$$$
