
     RDKit          3D

 44 49  0  0  0  0  0  0  0  0999 V2000
   44.8200   35.2350   44.2050 C   0  0  0  0  0  0  0  0  0  0  0  0
   44.4450   34.9460   42.8780 C   0  0  0  0  0  0  0  0  0  0  0  0
   44.7590   33.6800   42.4220 C   0  0  0  0  0  0  0  0  0  0  0  0
   45.3820   32.7960   43.2080 N   0  0  0  0  0  0  0  0  0  0  0  0
   45.7390   33.0930   44.4940 C   0  0  0  0  0  0  0  0  0  0  0  0
   45.4450   34.3400   44.9840 N   0  0  0  0  0  0  0  0  0  0  0  0
   46.4180   32.1470   45.3480 C   0  0  0  0  0  0  0  0  0  0  0  0
   47.4360   31.2670   44.9920 C   0  0  0  0  0  0  0  0  0  0  0  0
   47.7700   30.5840   46.0790 N   0  0  0  0  0  0  0  0  0  0  0  0
   47.0110   30.9890   47.1090 C   0  0  0  0  0  0  0  0  0  0  0  0
   46.9970   30.5630   48.4510 C   0  0  0  0  0  0  0  0  0  0  0  0
   46.1230   31.1210   49.3600 C   0  0  0  0  0  0  0  0  0  0  0  0
   45.2710   32.0930   48.9380 C   0  0  0  0  0  0  0  0  0  0  0  0
   45.2510   32.5440   47.6180 C   0  0  0  0  0  0  0  0  0  0  0  0
   46.1290   31.9850   46.7040 C   0  0  0  0  0  0  0  0  0  0  0  0
   44.3940   33.4050   41.0950 C   0  0  0  0  0  0  0  0  0  0  0  0
   43.5750   34.1760   40.3120 C   0  0  0  0  0  0  0  0  0  0  0  0
   43.2350   33.9470   39.0350 C   0  0  0  0  0  0  0  0  0  0  0  0
   43.9190   32.6580   38.5750 C   0  0  0  0  0  0  0  0  0  0  0  0
   44.8900   32.0760   40.0830 S   0  0  0  0  0  0  0  0  0  0  0  0
   43.8970   31.9850   37.3560 N   0  0  0  0  0  0  0  0  0  0  0  0
   42.9550   31.2340   36.7360 C   0  0  0  0  0  0  0  0  0  0  0  0
   43.4270   30.8030   35.5640 N   0  0  0  0  0  0  0  0  0  0  0  0
   44.6870   31.2730   35.4150 C   0  0  0  0  0  0  0  0  0  0  0  0
   45.6080   31.1230   34.3980 C   0  0  0  0  0  0  0  0  0  0  0  0
   46.8060   31.7200   34.5320 N   0  0  0  0  0  0  0  0  0  0  0  0
   47.1200   32.4490   35.6160 C   0  0  0  0  0  0  0  0  0  0  0  0
   46.1990   32.5750   36.5890 N   0  0  0  0  0  0  0  0  0  0  0  0
   44.9750   32.0170   36.5490 C   0  0  0  0  0  0  0  0  0  0  0  0
   45.3440   30.3670   33.2220 N   0  0  0  0  0  0  0  0  0  0  0  0
   44.5922   36.2294   44.6164 H   0  0  0  0  0  0  0  0  0  0  0  0
   43.9329   35.6840   42.2430 H   0  0  0  0  0  0  0  0  0  0  0  0
   47.8819   31.1579   43.9923 H   0  0  0  0  0  0  0  0  0  0  0  0
   48.4979   29.8567   46.1253 H   0  0  0  0  0  0  0  0  0  0  0  0
   47.6917   29.7755   48.7783 H   0  0  0  0  0  0  0  0  0  0  0  0
   46.1152   30.7858   50.4077 H   0  0  0  0  0  0  0  0  0  0  0  0
   44.5735   32.5391   49.6623 H   0  0  0  0  0  0  0  0  0  0  0  0
   44.5486   33.3316   47.3077 H   0  0  0  0  0  0  0  0  0  0  0  0
   43.1521   35.0772   40.7800 H   0  0  0  0  0  0  0  0  0  0  0  0
   42.5758   34.5791   38.4219 H   0  0  0  0  0  0  0  0  0  0  0  0
   41.9547   31.0133   37.1369 H   0  0  0  0  0  0  0  0  0  0  0  0
   48.1049   32.9306   35.7059 H   0  0  0  0  0  0  0  0  0  0  0  0
   44.4324   29.9029   33.1020 H   0  0  0  0  0  0  0  0  0  0  0  0
   46.0645   30.2838   32.4907 H   0  0  0  0  0  0  0  0  0  0  0  0
  1  6  2  0
  2  1  1  0
  3  2  2  0
  3  4  1  0
  4  5  2  0
  5  6  1  0
  5  7  1  0
  7 15  1  0
  8  7  2  0
  8  9  1  0
  9 10  1  0
 10 11  2  0
 11 12  1  0
 13 12  2  0
 14 13  1  0
 15 10  1  0
 15 14  2  0
 16  3  1  0
 17 16  2  0
 18 17  1  0
 19 18  2  0
 19 20  1  0
 20 16  1  0
 21 19  1  0
 22 21  1  0
 23 22  2  0
 24 23  1  0
 24 29  2  0
 25 26  2  0
 25 24  1  0
 26 27  1  0
 27 28  2  0
 29 28  1  0
 29 21  1  0
 30 25  1  0
  1 31  1  0
  2 32  1  0
  8 33  1  0
  9 34  1  0
 11 35  1  0
 12 36  1  0
 13 37  1  0
 14 38  1  0
 17 39  1  0
 18 40  1  0
 22 41  1  0
 27 42  1  0
 30 43  1  0
 30 44  1  0
M  ISO  8  31  14  32  14  33  14  34   9  35  14  36  14  37  14  38  14
M  ISO  4  39  14  40  14  41  14  42  14
M  END
>  <minimizedAffinity>  (1) 
-6.21312475

>  <minimizedRMSD>  (1) 
1.25603008

$$$$
