
     RDKit          3D

 38 42  0  0  0  0  0  0  0  0999 V2000
   44.9240   35.8170   44.1680 C   0  0  0  0  0  0  0  0  0  0  0  0
   44.1490   35.6210   43.0070 C   0  0  0  0  0  0  0  0  0  0  0  0
   44.0690   34.3330   42.5400 C   0  0  0  0  0  0  0  0  0  0  0  0
   44.6980   33.3360   43.1680 N   0  0  0  0  0  0  0  0  0  0  0  0
   45.4460   33.5300   44.2910 C   0  0  0  0  0  0  0  0  0  0  0  0
   45.5510   34.7990   44.7870 N   0  0  0  0  0  0  0  0  0  0  0  0
   46.1310   32.4540   44.9710 C   0  0  0  0  0  0  0  0  0  0  0  0
   46.9810   31.5090   44.4020 C   0  0  0  0  0  0  0  0  0  0  0  0
   47.3910   30.7100   45.3750 N   0  0  0  0  0  0  0  0  0  0  0  0
   46.8410   31.1020   46.5380 C   0  0  0  0  0  0  0  0  0  0  0  0
   46.9730   30.5720   47.8380 C   0  0  0  0  0  0  0  0  0  0  0  0
   46.3070   31.1410   48.9030 C   0  0  0  0  0  0  0  0  0  0  0  0
   45.5140   32.2300   48.6820 C   0  0  0  0  0  0  0  0  0  0  0  0
   45.3650   32.7760   47.4030 C   0  0  0  0  0  0  0  0  0  0  0  0
   46.0300   32.2090   46.3370 C   0  0  0  0  0  0  0  0  0  0  0  0
   43.2980   34.1530   41.3760 C   0  0  0  0  0  0  0  0  0  0  0  0
   43.7820   34.0150   40.1090 C   0  0  0  0  0  0  0  0  0  0  0  0
   43.0650   33.8280   38.9850 C   0  0  0  0  0  0  0  0  0  0  0  0
   41.6100   33.7930   39.3400 C   0  0  0  0  0  0  0  0  0  0  0  0
   41.5550   34.0370   41.2310 S   0  0  0  0  0  0  0  0  0  0  0  0
   40.3900   33.6290   38.6090 C   0  0  0  0  0  0  0  0  0  0  0  0
   39.8830   32.3630   38.5270 C   0  0  0  0  0  0  0  0  0  0  0  0
   38.7030   32.4300   37.7780 C   0  0  0  0  0  0  0  0  0  0  0  0
   38.5930   33.7680   37.4610 C   0  0  0  0  0  0  0  0  0  0  0  0
   39.6140   34.4320   37.9760 O   0  0  0  0  0  0  0  0  0  0  0  0
   45.0194   36.8322   44.5807 H   0  0  0  0  0  0  0  0  0  0  0  0
   43.6368   36.4541   42.5033 H   0  0  0  0  0  0  0  0  0  0  0  0
   47.2602   31.4392   43.3403 H   0  0  0  0  0  0  0  0  0  0  0  0
   48.0318   29.9120   45.2592 H   0  0  0  0  0  0  0  0  0  0  0  0
   47.6148   29.6943   48.0045 H   0  0  0  0  0  0  0  0  0  0  0  0
   46.4131   30.7237   49.9152 H   0  0  0  0  0  0  0  0  0  0  0  0
   44.9807   32.6880   49.5281 H   0  0  0  0  0  0  0  0  0  0  0  0
   44.7202   33.6537   47.2485 H   0  0  0  0  0  0  0  0  0  0  0  0
   44.8749   34.0614   39.9927 H   0  0  0  0  0  0  0  0  0  0  0  0
   43.4796   33.7188   37.9720 H   0  0  0  0  0  0  0  0  0  0  0  0
   40.3222   31.4565   38.9691 H   0  0  0  0  0  0  0  0  0  0  0  0
   38.0232   31.6091   37.5060 H   0  0  0  0  0  0  0  0  0  0  0  0
   37.7799   34.2145   36.8699 H   0  0  0  0  0  0  0  0  0  0  0  0
  1  6  2  0
  2  1  1  0
  3  2  2  0
  3  4  1  0
  4  5  2  0
  5  6  1  0
  5  7  1  0
  7 15  1  0
  8  7  2  0
  8  9  1  0
  9 10  1  0
 10 11  2  0
 11 12  1  0
 13 12  2  0
 14 13  1  0
 15 10  1  0
 15 14  2  0
 16  3  1  0
 17 16  2  0
 18 19  2  0
 18 17  1  0
 19 20  1  0
 20 16  1  0
 21 19  1  0
 22 21  2  0
 23 22  1  0
 24 23  2  0
 24 25  1  0
 25 21  1  0
  1 26  1  0
  2 27  1  0
  8 28  1  0
  9 29  1  0
 11 30  1  0
 12 31  1  0
 13 32  1  0
 14 33  1  0
 17 34  1  0
 18 35  1  0
 22 36  1  0
 23 37  1  0
 24 38  1  0
M  ISO  8  26  14  27  14  28  14  29   9  30  14  31  14  32  14  33  14
M  ISO  5  34  14  35  14  36  14  37  14  38  14
M  END
>  <minimizedAffinity>  (1) 
-6.19241238

>  <minimizedRMSD>  (1) 
2.14935279

$$$$
