
     RDKit          3D

 39 43  0  0  0  0  0  0  0  0999 V2000
   44.8420   36.0040   44.0460 C   0  0  0  0  0  0  0  0  0  0  0  0
   44.0010   35.8050   42.9290 C   0  0  0  0  0  0  0  0  0  0  0  0
   43.9060   34.5130   42.4660 C   0  0  0  0  0  0  0  0  0  0  0  0
   44.5760   33.5230   43.0500 N   0  0  0  0  0  0  0  0  0  0  0  0
   45.3860   33.7200   44.1280 C   0  0  0  0  0  0  0  0  0  0  0  0
   45.5090   34.9940   44.6230 N   0  0  0  0  0  0  0  0  0  0  0  0
   46.1170   32.6450   44.7610 C   0  0  0  0  0  0  0  0  0  0  0  0
   46.9600   31.7240   44.1460 C   0  0  0  0  0  0  0  0  0  0  0  0
   47.4260   30.9150   45.0870 N   0  0  0  0  0  0  0  0  0  0  0  0
   46.9230   31.2740   46.2710 C   0  0  0  0  0  0  0  0  0  0  0  0
   47.1060   30.7380   47.5660 C   0  0  0  0  0  0  0  0  0  0  0  0
   46.4720   31.2830   48.6630 C   0  0  0  0  0  0  0  0  0  0  0  0
   45.6510   32.3600   48.4890 C   0  0  0  0  0  0  0  0  0  0  0  0
   45.4360   32.9260   47.2330 C   0  0  0  0  0  0  0  0  0  0  0  0
   46.0680   32.3840   46.1360 C   0  0  0  0  0  0  0  0  0  0  0  0
   43.0770   34.3380   41.3430 C   0  0  0  0  0  0  0  0  0  0  0  0
   43.2090   34.9700   40.1380 C   0  0  0  0  0  0  0  0  0  0  0  0
   42.4400   34.7970   39.0500 C   0  0  0  0  0  0  0  0  0  0  0  0
   41.3780   33.7810   39.3520 C   0  0  0  0  0  0  0  0  0  0  0  0
   41.7060   33.2730   41.1610 S   0  0  0  0  0  0  0  0  0  0  0  0
   40.3230   33.2280   38.5990 C   0  0  0  0  0  0  0  0  0  0  0  0
   40.4220   31.8940   38.3400 C   0  0  0  0  0  0  0  0  0  0  0  0
   39.3610   31.3610   37.5880 C   0  0  0  0  0  0  0  0  0  0  0  0
   38.3300   32.1380   37.1650 N   0  0  0  0  0  0  0  0  0  0  0  0
   38.2910   33.4490   37.4540 C   0  0  0  0  0  0  0  0  0  0  0  0
   39.3080   33.9940   38.1820 N   0  0  0  0  0  0  0  0  0  0  0  0
   44.9533   37.0189   44.4553 H   0  0  0  0  0  0  0  0  0  0  0  0
   43.4540   36.6344   42.4569 H   0  0  0  0  0  0  0  0  0  0  0  0
   47.1968   31.6761   43.0729 H   0  0  0  0  0  0  0  0  0  0  0  0
   48.0753   30.1311   44.9295 H   0  0  0  0  0  0  0  0  0  0  0  0
   47.7670   29.8692   47.7016 H   0  0  0  0  0  0  0  0  0  0  0  0
   46.6258   30.8556   49.6648 H   0  0  0  0  0  0  0  0  0  0  0  0
   45.1450   32.7933   49.3643 H   0  0  0  0  0  0  0  0  0  0  0  0
   44.7702   33.7942   47.1198 H   0  0  0  0  0  0  0  0  0  0  0  0
   44.0307   35.6960   40.0500 H   0  0  0  0  0  0  0  0  0  0  0  0
   42.5686   35.3178   38.0897 H   0  0  0  0  0  0  0  0  0  0  0  0
   41.2659   31.2823   38.6918 H   0  0  0  0  0  0  0  0  0  0  0  0
   39.3655   30.2902   37.3362 H   0  0  0  0  0  0  0  0  0  0  0  0
   37.4531   34.0729   37.1095 H   0  0  0  0  0  0  0  0  0  0  0  0
  1  6  2  0
  2  1  1  0
  3  2  2  0
  3  4  1  0
  4  5  2  0
  5  6  1  0
  5  7  1  0
  7 15  1  0
  8  7  2  0
  8  9  1  0
  9 10  1  0
 10 11  2  0
 11 12  1  0
 13 12  2  0
 14 13  1  0
 15 10  1  0
 15 14  2  0
 16  3  1  0
 17 16  2  0
 18 19  2  0
 18 17  1  0
 19 20  1  0
 20 16  1  0
 21 19  1  0
 22 21  2  0
 23 22  1  0
 24 25  1  0
 24 23  2  0
 25 26  2  0
 26 21  1  0
  1 27  1  0
  2 28  1  0
  8 29  1  0
  9 30  1  0
 11 31  1  0
 12 32  1  0
 13 33  1  0
 14 34  1  0
 17 35  1  0
 18 36  1  0
 22 37  1  0
 23 38  1  0
 25 39  1  0
M  ISO  8  27  14  28  14  29  14  30   9  31  14  32  14  33  14  34  14
M  ISO  5  35  14  36  14  37  14  38  14  39  14
M  END
>  <minimizedAffinity>  (1) 
-6.16198492

>  <minimizedRMSD>  (1) 
2.21749854

$$$$
