
     RDKit          3D

 43 47  0  0  0  0  0  0  0  0999 V2000
   44.7250   35.8410   44.6370 C   0  0  0  0  0  0  0  0  0  0  0  0
   44.0160   35.7150   43.4220 C   0  0  0  0  0  0  0  0  0  0  0  0
   44.0600   34.4820   42.8400 C   0  0  0  0  0  0  0  0  0  0  0  0
   44.7380   33.4780   43.4080 N   0  0  0  0  0  0  0  0  0  0  0  0
   45.4160   33.6110   44.5760 C   0  0  0  0  0  0  0  0  0  0  0  0
   45.3960   34.8330   45.1920 N   0  0  0  0  0  0  0  0  0  0  0  0
   46.1550   32.5240   45.1860 C   0  0  0  0  0  0  0  0  0  0  0  0
   47.0500   31.6640   44.5660 C   0  0  0  0  0  0  0  0  0  0  0  0
   47.5010   30.8150   45.4950 N   0  0  0  0  0  0  0  0  0  0  0  0
   46.9250   31.1050   46.6700 C   0  0  0  0  0  0  0  0  0  0  0  0
   47.0800   30.4970   47.9320 C   0  0  0  0  0  0  0  0  0  0  0  0
   46.3840   30.9620   49.0260 C   0  0  0  0  0  0  0  0  0  0  0  0
   45.5390   32.0230   48.8680 C   0  0  0  0  0  0  0  0  0  0  0  0
   45.3670   32.6440   47.6300 C   0  0  0  0  0  0  0  0  0  0  0  0
   46.0620   32.1810   46.5310 C   0  0  0  0  0  0  0  0  0  0  0  0
   43.3550   34.3420   41.6230 C   0  0  0  0  0  0  0  0  0  0  0  0
   43.3520   35.2350   40.5930 C   0  0  0  0  0  0  0  0  0  0  0  0
   42.7020   35.1440   39.4210 C   0  0  0  0  0  0  0  0  0  0  0  0
   41.9460   33.8450   39.4250 C   0  0  0  0  0  0  0  0  0  0  0  0
   42.3180   33.0170   41.1040 S   0  0  0  0  0  0  0  0  0  0  0  0
   41.0930   33.0930   38.6130 N   0  0  0  0  0  0  0  0  0  0  0  0
   39.7490   33.0580   38.0740 C   0  0  0  0  0  0  0  0  0  0  0  0
   39.3140   31.6980   38.6670 C   0  0  0  0  0  0  0  0  0  0  0  0
   40.6070   30.8690   38.6710 C   0  0  0  0  0  0  0  0  0  0  0  0
   41.5830   31.8460   38.0140 C   0  0  0  0  0  0  0  0  0  0  0  0
   44.7230   36.8152   45.1478 H   0  0  0  0  0  0  0  0  0  0  0  0
   43.4649   36.5554   42.9747 H   0  0  0  0  0  0  0  0  0  0  0  0
   47.3362   31.6782   43.5040 H   0  0  0  0  0  0  0  0  0  0  0  0
   48.1819   30.0592   45.3337 H   0  0  0  0  0  0  0  0  0  0  0  0
   47.7636   29.6426   48.0445 H   0  0  0  0  0  0  0  0  0  0  0  0
   46.5068   30.4866   50.0104 H   0  0  0  0  0  0  0  0  0  0  0  0
   44.9799   32.3976   49.7381 H   0  0  0  0  0  0  0  0  0  0  0  0
   44.6810   33.4981   47.5306 H   0  0  0  0  0  0  0  0  0  0  0  0
   43.9566   36.1422   40.7398 H   0  0  0  0  0  0  0  0  0  0  0  0
   42.7198   35.8843   38.6076 H   0  0  0  0  0  0  0  0  0  0  0  0
   39.1307   33.8899   38.4423 H   0  0  0  0  0  0  0  0  0  0  0  0
   39.6644   33.1573   36.9818 H   0  0  0  0  0  0  0  0  0  0  0  0
   38.9252   31.8224   39.6885 H   0  0  0  0  0  0  0  0  0  0  0  0
   38.5058   31.2224   38.0920 H   0  0  0  0  0  0  0  0  0  0  0  0
   40.9193   30.6129   39.6942 H   0  0  0  0  0  0  0  0  0  0  0  0
   40.5246   29.8984   38.1600 H   0  0  0  0  0  0  0  0  0  0  0  0
   41.4889   31.8494   36.9180 H   0  0  0  0  0  0  0  0  0  0  0  0
   42.6497   31.6302   38.1739 H   0  0  0  0  0  0  0  0  0  0  0  0
  1  6  2  0
  2  1  1  0
  3  4  1  0
  3  2  2  0
  4  5  2  0
  5  7  1  0
  5  6  1  0
  7 15  1  0
  8  7  2  0
  8  9  1  0
  9 10  1  0
 10 11  2  0
 11 12  1  0
 13 12  2  0
 14 13  1  0
 15 10  1  0
 15 14  2  0
 16  3  1  0
 17 16  2  0
 18 19  2  0
 18 17  1  0
 19 20  1  0
 20 16  1  0
 21 19  1  0
 22 21  1  0
 22 23  1  0
 23 24  1  0
 25 21  1  0
 25 24  1  0
  1 26  1  0
  2 27  1  0
  8 28  1  0
  9 29  1  0
 11 30  1  0
 12 31  1  0
 13 32  1  0
 14 33  1  0
 17 34  1  0
 18 35  1  0
 22 36  1  0
 22 37  1  0
 23 38  1  0
 23 39  1  0
 24 40  1  0
 24 41  1  0
 25 42  1  0
 25 43  1  0
M  ISO  8  26  14  27  14  28  14  29   9  30  14  31  14  32  14  33  14
M  ISO  8  34  14  35  14  36  13  37  13  38  13  39  13  40  13  41  13
M  ISO  2  42  13  43  13
M  END
>  <minimizedAffinity>  (1) 
-6.01540899

>  <minimizedRMSD>  (1) 
1.51841295

$$$$
