
     RDKit          3D

 32 35  0  0  0  0  0  0  0  0999 V2000
   44.6650   35.7310   44.7780 C   0  0  0  0  0  0  0  0  0  0  0  0
   44.1850   35.6370   43.4540 C   0  0  0  0  0  0  0  0  0  0  0  0
   44.4320   34.4420   42.8090 C   0  0  0  0  0  0  0  0  0  0  0  0
   45.0820   33.4550   43.4220 N   0  0  0  0  0  0  0  0  0  0  0  0
   45.5390   33.5580   44.7000 C   0  0  0  0  0  0  0  0  0  0  0  0
   45.3160   34.7310   45.3780 N   0  0  0  0  0  0  0  0  0  0  0  0
   46.2460   32.4890   45.3650 C   0  0  0  0  0  0  0  0  0  0  0  0
   47.2010   31.6410   44.8170 C   0  0  0  0  0  0  0  0  0  0  0  0
   47.5930   30.8150   45.7710 N   0  0  0  0  0  0  0  0  0  0  0  0
   46.9360   31.0890   46.9120 C   0  0  0  0  0  0  0  0  0  0  0  0
   47.0040   30.4960   48.1930 C   0  0  0  0  0  0  0  0  0  0  0  0
   46.2210   30.9510   49.2370 C   0  0  0  0  0  0  0  0  0  0  0  0
   45.3790   31.9910   49.0000 C   0  0  0  0  0  0  0  0  0  0  0  0
   45.2800   32.6040   47.7550 C   0  0  0  0  0  0  0  0  0  0  0  0
   46.0590   32.1520   46.7140 C   0  0  0  0  0  0  0  0  0  0  0  0
   43.9580   34.3620   41.4850 C   0  0  0  0  0  0  0  0  0  0  0  0
   43.0380   35.1910   40.9070 C   0  0  0  0  0  0  0  0  0  0  0  0
   42.5830   35.1370   39.6430 C   0  0  0  0  0  0  0  0  0  0  0  0
   43.2640   33.9860   38.9380 C   0  0  0  0  0  0  0  0  0  0  0  0
   44.4230   33.2100   40.2370 S   0  0  0  0  0  0  0  0  0  0  0  0
   43.1700   33.4970   37.6670 O   0  0  0  0  0  0  0  0  0  0  0  0
   44.4965   36.6633   45.3369 H   0  0  0  0  0  0  0  0  0  0  0  0
   43.6478   36.4641   42.9668 H   0  0  0  0  0  0  0  0  0  0  0  0
   47.5642   31.6549   43.7788 H   0  0  0  0  0  0  0  0  0  0  0  0
   48.2971   30.0718   45.6576 H   0  0  0  0  0  0  0  0  0  0  0  0
   47.6936   29.6559   48.3624 H   0  0  0  0  0  0  0  0  0  0  0  0
   46.2777   30.4845   50.2316 H   0  0  0  0  0  0  0  0  0  0  0  0
   44.7518   32.3623   49.8239 H   0  0  0  0  0  0  0  0  0  0  0  0
   44.5849   33.4430   47.6037 H   0  0  0  0  0  0  0  0  0  0  0  0
   42.6257   35.9875   41.5439 H   0  0  0  0  0  0  0  0  0  0  0  0
   41.8408   35.8155   39.1972 H   0  0  0  0  0  0  0  0  0  0  0  0
   43.7141   32.7157   37.3957 H   0  0  0  0  0  0  0  0  0  0  0  0
  1  6  2  0
  2  1  1  0
  3  4  1  0
  3  2  2  0
  4  5  2  0
  5  7  1  0
  5  6  1  0
  7 15  1  0
  8  7  2  0
  8  9  1  0
  9 10  1  0
 10 11  2  0
 11 12  1  0
 13 12  2  0
 14 13  1  0
 15 10  1  0
 15 14  2  0
 16  3  1  0
 17 16  2  0
 18 17  1  0
 19 18  2  0
 19 20  1  0
 20 16  1  0
 21 19  1  0
  1 22  1  0
  2 23  1  0
  8 24  1  0
  9 25  1  0
 11 26  1  0
 12 27  1  0
 13 28  1  0
 14 29  1  0
 17 30  1  0
 18 31  1  0
 21 32  1  0
M  ISO  8  22  14  23  14  24  14  25   9  26  14  27  14  28  14  29  14
M  ISO  3  30  14  31  14  32   3
M  END
>  <minimizedAffinity>  (1) 
-6.02108622

>  <minimizedRMSD>  (1) 
0.0282761846

$$$$
