
     RDKit          3D

 37 40  0  0  0  0  0  0  0  0999 V2000
   45.2720   36.0050   43.0350 C   0  0  0  0  0  0  0  0  0  0  0  0
   44.1730   36.0820   42.1550 C   0  0  0  0  0  0  0  0  0  0  0  0
   43.5610   34.9020   41.8480 C   0  0  0  0  0  0  0  0  0  0  0  0
   43.9920   33.7370   42.3610 N   0  0  0  0  0  0  0  0  0  0  0  0
   45.0560   33.6740   43.2120 C   0  0  0  0  0  0  0  0  0  0  0  0
   45.6980   34.8400   43.5450 N   0  0  0  0  0  0  0  0  0  0  0  0
   45.5310   32.4270   43.7700 C   0  0  0  0  0  0  0  0  0  0  0  0
   45.5300   31.1770   43.1520 C   0  0  0  0  0  0  0  0  0  0  0  0
   46.0550   30.3140   44.0210 N   0  0  0  0  0  0  0  0  0  0  0  0
   46.3820   30.9440   45.1390 C   0  0  0  0  0  0  0  0  0  0  0  0
   46.9590   30.4680   46.3260 C   0  0  0  0  0  0  0  0  0  0  0  0
   47.2210   31.3240   47.3950 C   0  0  0  0  0  0  0  0  0  0  0  0
   46.9090   32.6520   47.2830 C   0  0  0  0  0  0  0  0  0  0  0  0
   46.3300   33.1610   46.1060 C   0  0  0  0  0  0  0  0  0  0  0  0
   46.0710   32.2970   45.0390 C   0  0  0  0  0  0  0  0  0  0  0  0
   42.4730   34.9860   40.9600 C   0  0  0  0  0  0  0  0  0  0  0  0
   41.2870   35.6100   41.2050 C   0  0  0  0  0  0  0  0  0  0  0  0
   40.2350   35.7230   40.3730 C   0  0  0  0  0  0  0  0  0  0  0  0
   40.5730   35.0300   39.0830 C   0  0  0  0  0  0  0  0  0  0  0  0
   42.3400   34.3550   39.3240 S   0  0  0  0  0  0  0  0  0  0  0  0
   39.9400   34.7700   37.7880 C   0  0  0  0  0  0  0  0  0  0  0  0
   38.7050   33.9060   37.8700 C   0  0  0  0  0  0  0  0  0  0  0  0
   45.7972   36.9308   43.3124 H   0  0  0  0  0  0  0  0  0  0  0  0
   43.8283   37.0402   41.7391 H   0  0  0  0  0  0  0  0  0  0  0  0
   45.1653   30.9472   42.1400 H   0  0  0  0  0  0  0  0  0  0  0  0
   46.1868   29.3071   43.8488 H   0  0  0  0  0  0  0  0  0  0  0  0
   47.2091   29.4005   46.4149 H   0  0  0  0  0  0  0  0  0  0  0  0
   47.6740   30.9359   48.3192 H   0  0  0  0  0  0  0  0  0  0  0  0
   47.1137   33.3304   48.1244 H   0  0  0  0  0  0  0  0  0  0  0  0
   46.0834   34.2300   46.0266 H   0  0  0  0  0  0  0  0  0  0  0  0
   41.1765   36.0745   42.1960 H   0  0  0  0  0  0  0  0  0  0  0  0
   39.2884   36.2357   40.5989 H   0  0  0  0  0  0  0  0  0  0  0  0
   40.6723   34.2659   37.1402 H   0  0  0  0  0  0  0  0  0  0  0  0
   39.6207   35.7440   37.3889 H   0  0  0  0  0  0  0  0  0  0  0  0
   38.4512   33.7284   38.9255 H   0  0  0  0  0  0  0  0  0  0  0  0
   37.8671   34.4159   37.3721 H   0  0  0  0  0  0  0  0  0  0  0  0
   38.8968   32.9440   37.3721 H   0  0  0  0  0  0  0  0  0  0  0  0
  1  6  2  0
  2  1  1  0
  3  2  2  0
  3  4  1  0
  4  5  2  0
  5  6  1  0
  5  7  1  0
  7 15  1  0
  8  7  2  0
  8  9  1  0
  9 10  1  0
 10 11  2  0
 11 12  1  0
 13 12  2  0
 14 13  1  0
 15 10  1  0
 15 14  2  0
 16 17  2  0
 16  3  1  0
 18 17  1  0
 19 20  1  0
 19 18  2  0
 20 16  1  0
 21 22  1  0
 21 19  1  0
  1 23  1  0
  2 24  1  0
  8 25  1  0
  9 26  1  0
 11 27  1  0
 12 28  1  0
 13 29  1  0
 14 30  1  0
 17 31  1  0
 18 32  1  0
 21 33  1  0
 21 34  1  0
 22 35  1  0
 22 36  1  0
 22 37  1  0
M  ISO  8  23  14  24  14  25  14  26   9  27  14  28  14  29  14  30  14
M  ISO  7  31  14  32  14  33   8  34   8  35   8  36   8  37   8
M  END
>  <minimizedAffinity>  (1) 
-5.96856165

>  <minimizedRMSD>  (1) 
2.22231269

$$$$
