
     RDKit          3D

 38 42  0  0  0  0  0  0  0  0999 V2000
   44.7750   35.3150   44.4730 C   0  0  0  0  0  0  0  0  0  0  0  0
   44.4890   35.0960   43.1110 C   0  0  0  0  0  0  0  0  0  0  0  0
   44.8810   33.8810   42.5960 C   0  0  0  0  0  0  0  0  0  0  0  0
   45.4930   32.9790   43.3610 N   0  0  0  0  0  0  0  0  0  0  0  0
   45.7620   33.2150   44.6850 C   0  0  0  0  0  0  0  0  0  0  0  0
   45.3940   34.3970   45.2300 N   0  0  0  0  0  0  0  0  0  0  0  0
   46.4320   32.2180   45.5070 C   0  0  0  0  0  0  0  0  0  0  0  0
   47.4640   31.3750   45.1600 C   0  0  0  0  0  0  0  0  0  0  0  0
   47.7650   30.6330   46.2120 N   0  0  0  0  0  0  0  0  0  0  0  0
   46.9710   30.9600   47.2290 C   0  0  0  0  0  0  0  0  0  0  0  0
   46.8800   30.4770   48.5540 C   0  0  0  0  0  0  0  0  0  0  0  0
   45.9600   30.9750   49.4510 C   0  0  0  0  0  0  0  0  0  0  0  0
   45.1150   31.9640   49.0430 C   0  0  0  0  0  0  0  0  0  0  0  0
   45.1540   32.4840   47.7500 C   0  0  0  0  0  0  0  0  0  0  0  0
   46.0830   31.9800   46.8460 C   0  0  0  0  0  0  0  0  0  0  0  0
   44.6030   33.6920   41.2290 C   0  0  0  0  0  0  0  0  0  0  0  0
   43.5330   34.1830   40.5460 C   0  0  0  0  0  0  0  0  0  0  0  0
   43.2710   34.0210   39.2330 C   0  0  0  0  0  0  0  0  0  0  0  0
   44.3640   33.1950   38.6120 C   0  0  0  0  0  0  0  0  0  0  0  0
   45.5590   32.8110   40.0450 S   0  0  0  0  0  0  0  0  0  0  0  0
   44.6140   32.7160   37.3050 C   0  0  0  0  0  0  0  0  0  0  0  0
   44.2010   31.5340   36.7580 C   0  0  0  0  0  0  0  0  0  0  0  0
   44.7270   31.5890   35.4590 C   0  0  0  0  0  0  0  0  0  0  0  0
   45.4030   32.7670   35.3130 N   0  0  0  0  0  0  0  0  0  0  0  0
   45.3290   33.4620   36.4630 N   0  0  0  0  0  0  0  0  0  0  0  0
   44.4808   36.2709   44.9309 H   0  0  0  0  0  0  0  0  0  0  0  0
   43.9815   35.8525   42.4944 H   0  0  0  0  0  0  0  0  0  0  0  0
   47.9539   31.3271   44.1763 H   0  0  0  0  0  0  0  0  0  0  0  0
   48.5007   29.9127   46.2403 H   0  0  0  0  0  0  0  0  0  0  0  0
   47.5642   29.6794   48.8791 H   0  0  0  0  0  0  0  0  0  0  0  0
   45.9084   30.5819   50.4771 H   0  0  0  0  0  0  0  0  0  0  0  0
   44.3794   32.3642   49.7563 H   0  0  0  0  0  0  0  0  0  0  0  0
   44.4594   33.2821   47.4489 H   0  0  0  0  0  0  0  0  0  0  0  0
   42.8069   34.7729   41.1247 H   0  0  0  0  0  0  0  0  0  0  0  0
   42.3980   34.4277   38.7015 H   0  0  0  0  0  0  0  0  0  0  0  0
   43.6032   30.7358   37.2222 H   0  0  0  0  0  0  0  0  0  0  0  0
   44.6141   30.8135   34.6871 H   0  0  0  0  0  0  0  0  0  0  0  0
   45.8911   33.0741   34.4596 H   0  0  0  0  0  0  0  0  0  0  0  0
  1  6  2  0
  2  1  1  0
  3  2  2  0
  3  4  1  0
  4  5  2  0
  5  6  1  0
  5  7  1  0
  7 15  1  0
  8  7  2  0
  8  9  1  0
  9 10  1  0
 10 11  2  0
 11 12  1  0
 13 12  2  0
 14 13  1  0
 15 10  1  0
 15 14  2  0
 16  3  1  0
 17 16  2  0
 18 17  1  0
 19 18  2  0
 19 20  1  0
 20 16  1  0
 21 19  1  0
 22 21  1  0
 23 22  2  0
 24 23  1  0
 24 25  1  0
 25 21  2  0
  1 26  1  0
  2 27  1  0
  8 28  1  0
  9 29  1  0
 11 30  1  0
 12 31  1  0
 13 32  1  0
 14 33  1  0
 17 34  1  0
 18 35  1  0
 22 36  1  0
 23 37  1  0
 24 38  1  0
M  ISO  8  26  14  27  14  28  14  29   9  30  14  31  14  32  14  33  14
M  ISO  5  34  14  35  14  36  14  37  14  38   9
M  END
>  <minimizedAffinity>  (1) 
-5.71029568

>  <minimizedRMSD>  (1) 
1.05211806

$$$$
