
     RDKit          3D

 45 49  0  0  0  0  0  0  0  0999 V2000
   44.8010   35.3130   44.4190 C   0  0  0  0  0  0  0  0  0  0  0  0
   44.4550   35.0630   43.0760 C   0  0  0  0  0  0  0  0  0  0  0  0
   44.7930   33.8220   42.5700 C   0  0  0  0  0  0  0  0  0  0  0  0
   45.4190   32.9270   43.3550 N   0  0  0  0  0  0  0  0  0  0  0  0
   45.7470   33.1860   44.6580 C   0  0  0  0  0  0  0  0  0  0  0  0
   45.4240   34.4040   45.1810 N   0  0  0  0  0  0  0  0  0  0  0  0
   46.4180   32.2200   45.4930 C   0  0  0  0  0  0  0  0  0  0  0  0
   47.4620   31.3870   45.1350 C   0  0  0  0  0  0  0  0  0  0  0  0
   47.7710   30.6590   46.2120 N   0  0  0  0  0  0  0  0  0  0  0  0
   46.9810   30.9870   47.2250 C   0  0  0  0  0  0  0  0  0  0  0  0
   46.8960   30.5160   48.5560 C   0  0  0  0  0  0  0  0  0  0  0  0
   45.9750   31.0060   49.4560 C   0  0  0  0  0  0  0  0  0  0  0  0
   45.1240   31.9740   49.0370 C   0  0  0  0  0  0  0  0  0  0  0  0
   45.1440   32.4920   47.7410 C   0  0  0  0  0  0  0  0  0  0  0  0
   46.0840   31.9880   46.8340 C   0  0  0  0  0  0  0  0  0  0  0  0
   44.4480   33.5710   41.2330 C   0  0  0  0  0  0  0  0  0  0  0  0
   43.5370   34.2890   40.5150 C   0  0  0  0  0  0  0  0  0  0  0  0
   43.1860   34.0780   39.2210 C   0  0  0  0  0  0  0  0  0  0  0  0
   43.9750   32.9070   38.6960 C   0  0  0  0  0  0  0  0  0  0  0  0
   45.0690   32.3400   40.1740 S   0  0  0  0  0  0  0  0  0  0  0  0
   43.9670   32.2630   37.4600 N   0  0  0  0  0  0  0  0  0  0  0  0
   44.9990   32.0460   36.4670 C   0  0  0  0  0  0  0  0  0  0  0  0
   44.5010   31.6780   35.1250 C   0  0  0  0  0  0  0  0  0  0  0  0
   43.3530   30.8090   35.0900 N   0  0  0  0  0  0  0  0  0  0  0  0
   42.8660   30.4490   36.3910 C   0  0  0  0  0  0  0  0  0  0  0  0
   42.6410   31.7130   37.1490 C   0  0  0  0  0  0  0  0  0  0  0  0
   44.5504   36.2901   44.8577 H   0  0  0  0  0  0  0  0  0  0  0  0
   43.9419   35.8174   42.4615 H   0  0  0  0  0  0  0  0  0  0  0  0
   47.9469   31.3337   44.1491 H   0  0  0  0  0  0  0  0  0  0  0  0
   48.5143   29.9470   46.2497 H   0  0  0  0  0  0  0  0  0  0  0  0
   47.5910   29.7293   48.8848 H   0  0  0  0  0  0  0  0  0  0  0  0
   45.9316   30.6222   50.4860 H   0  0  0  0  0  0  0  0  0  0  0  0
   44.3850   32.3689   49.7497 H   0  0  0  0  0  0  0  0  0  0  0  0
   44.4370   33.2787   47.4390 H   0  0  0  0  0  0  0  0  0  0  0  0
   43.0383   35.1199   41.0355 H   0  0  0  0  0  0  0  0  0  0  0  0
   42.4493   34.6636   38.6514 H   0  0  0  0  0  0  0  0  0  0  0  0
   45.5833   32.9732   36.3727 H   0  0  0  0  0  0  0  0  0  0  0  0
   45.5944   31.1915   36.8211 H   0  0  0  0  0  0  0  0  0  0  0  0
   44.2352   32.6069   34.5991 H   0  0  0  0  0  0  0  0  0  0  0  0
   45.3160   31.1089   34.6539 H   0  0  0  0  0  0  0  0  0  0  0  0
   42.5971   31.2883   34.5803 H   0  0  0  0  0  0  0  0  0  0  0  0
   41.9213   29.8932   36.2982 H   0  0  0  0  0  0  0  0  0  0  0  0
   43.5911   29.8072   36.9130 H   0  0  0  0  0  0  0  0  0  0  0  0
   42.0697   32.4256   36.5360 H   0  0  0  0  0  0  0  0  0  0  0  0
   42.0661   31.5253   38.0678 H   0  0  0  0  0  0  0  0  0  0  0  0
  1  6  2  0
  2  1  1  0
  3  2  2  0
  3  4  1  0
  4  5  2  0
  5  6  1  0
  5  7  1  0
  7 15  1  0
  8  7  2  0
  8  9  1  0
  9 10  1  0
 10 11  2  0
 11 12  1  0
 13 12  2  0
 14 13  1  0
 15 10  1  0
 15 14  2  0
 16  3  1  0
 17 16  2  0
 18 17  1  0
 19 18  2  0
 19 20  1  0
 20 16  1  0
 21 19  1  0
 22 21  1  0
 23 22  1  0
 24 23  1  0
 24 25  1  0
 25 26  1  0
 26 21  1  0
  1 27  1  0
  2 28  1  0
  8 29  1  0
  9 30  1  0
 11 31  1  0
 12 32  1  0
 13 33  1  0
 14 34  1  0
 17 35  1  0
 18 36  1  0
 22 37  1  0
 22 38  1  0
 23 39  1  0
 23 40  1  0
 24 41  1  0
 25 42  1  0
 25 43  1  0
 26 44  1  0
 26 45  1  0
M  ISO  8  27  14  28  14  29  14  30   9  31  14  32  14  33  14  34  14
M  ISO  8  35  14  36  14  37  13  38  13  39  13  40  13  41   5  42  13
M  ISO  3  43  13  44  13  45  13
M  END
>  <minimizedAffinity>  (1) 
-5.33281994

>  <minimizedRMSD>  (1) 
1.05454946

$$$$
