
     RDKit          3D

 32 35  0  0  0  0  0  0  0  0999 V2000
   44.7680   35.8250   44.6060 C   0  0  0  0  0  0  0  0  0  0  0  0
   44.0640   35.6570   43.3970 C   0  0  0  0  0  0  0  0  0  0  0  0
   44.1120   34.3940   42.8380 C   0  0  0  0  0  0  0  0  0  0  0  0
   44.7930   33.4130   43.4290 N   0  0  0  0  0  0  0  0  0  0  0  0
   45.4720   33.5880   44.5990 C   0  0  0  0  0  0  0  0  0  0  0  0
   45.4490   34.8200   45.1850 N   0  0  0  0  0  0  0  0  0  0  0  0
   46.2120   32.5240   45.2380 C   0  0  0  0  0  0  0  0  0  0  0  0
   47.1420   31.6750   44.6460 C   0  0  0  0  0  0  0  0  0  0  0  0
   47.5800   30.8520   45.5790 N   0  0  0  0  0  0  0  0  0  0  0  0
   46.9760   31.1260   46.7490 C   0  0  0  0  0  0  0  0  0  0  0  0
   47.1070   30.5330   48.0200 C   0  0  0  0  0  0  0  0  0  0  0  0
   46.3730   30.9910   49.0940 C   0  0  0  0  0  0  0  0  0  0  0  0
   45.5100   32.0330   48.9080 C   0  0  0  0  0  0  0  0  0  0  0  0
   45.3580   32.6430   47.6620 C   0  0  0  0  0  0  0  0  0  0  0  0
   46.0900   32.1900   46.5860 C   0  0  0  0  0  0  0  0  0  0  0  0
   43.4090   34.2460   41.6270 C   0  0  0  0  0  0  0  0  0  0  0  0
   43.2980   35.1820   40.6440 C   0  0  0  0  0  0  0  0  0  0  0  0
   42.6430   35.0570   39.4750 C   0  0  0  0  0  0  0  0  0  0  0  0
   42.0270   33.6700   39.4210 C   0  0  0  0  0  0  0  0  0  0  0  0
   42.5210   32.8380   41.0670 S   0  0  0  0  0  0  0  0  0  0  0  0
   41.0560   32.8620   38.2040 S   0  0  0  0  0  0  0  0  0  0  0  0
   44.7604   36.8114   45.0927 H   0  0  0  0  0  0  0  0  0  0  0  0
   43.5093   36.4820   42.9262 H   0  0  0  0  0  0  0  0  0  0  0  0
   47.4550   31.6879   43.5916 H   0  0  0  0  0  0  0  0  0  0  0  0
   48.2799   30.1105   45.4334 H   0  0  0  0  0  0  0  0  0  0  0  0
   47.8041   29.6933   48.1577 H   0  0  0  0  0  0  0  0  0  0  0  0
   46.4809   30.5246   50.0844 H   0  0  0  0  0  0  0  0  0  0  0  0
   44.9204   32.4004   49.7609 H   0  0  0  0  0  0  0  0  0  0  0  0
   44.6569   33.4817   47.5394 H   0  0  0  0  0  0  0  0  0  0  0  0
   43.7981   36.1449   40.8252 H   0  0  0  0  0  0  0  0  0  0  0  0
   42.5669   35.8270   38.6932 H   0  0  0  0  0  0  0  0  0  0  0  0
   40.1144   32.0784   38.8174 H   0  0  0  0  0  0  0  0  0  0  0  0
  1  6  2  0
  2  1  1  0
  3  2  2  0
  3  4  1  0
  4  5  2  0
  5  6  1  0
  5  7  1  0
  7 15  1  0
  8  7  2  0
  8  9  1  0
  9 10  1  0
 10 11  2  0
 11 12  1  0
 13 12  2  0
 14 13  1  0
 15 10  1  0
 15 14  2  0
 16  3  1  0
 17 16  2  0
 18 17  1  0
 19 18  2  0
 19 20  1  0
 20 16  1  0
 21 19  1  0
  1 22  1  0
  2 23  1  0
  8 24  1  0
  9 25  1  0
 11 26  1  0
 12 27  1  0
 13 28  1  0
 14 29  1  0
 17 30  1  0
 18 31  1  0
 21 32  1  0
M  ISO  8  22  14  23  14  24  14  25   9  26  14  27  14  28  14  29  14
M  ISO  3  30  14  31  14  32  11
M  END
>  <minimizedAffinity>  (1) 
-5.65692806

>  <minimizedRMSD>  (1) 
0.77548182

$$$$
