
     RDKit          3D

 29 32  0  0  1  0  0  0  0  0999 V2000
   45.7400   34.1000   41.5740 N   0  0  0  0  0  0  0  0  0  0  0  0
   44.9290   33.7350   40.5200 C   0  0  0  0  0  0  0  0  0  0  0  0
   45.6910   33.4880   39.4480 N   0  0  0  0  0  0  0  0  0  0  0  0
   46.9800   33.6960   39.8260 C   0  0  0  0  0  0  0  0  0  0  0  0
   46.9720   34.0640   41.1100 N   0  0  0  0  0  0  0  0  0  0  0  0
   44.8540   35.7470   43.0990 C   0  0  0  0  0  0  0  0  0  0  0  0
   45.4190   34.4580   42.9070 C   0  0  0  0  0  0  0  0  0  0  0  0
   45.6080   33.6640   44.0160 C   0  0  0  0  0  0  0  0  0  0  0  0
   45.2420   34.1670   45.2270 N   0  0  0  0  0  0  0  0  0  0  0  0
   44.7130   35.3810   45.3790 C   0  0  0  0  0  0  0  0  0  0  0  0
   44.5260   36.1540   44.3170 N   0  0  0  0  0  0  0  0  0  0  0  0
   48.2300   33.5760   39.0270 C   0  0  2  0  0  0  0  0  0  0  0  0
   48.3220   34.4560   37.7590 C   0  0  0  0  0  0  0  0  0  0  0  0
   48.1930   32.9260   37.6770 C   0  0  1  0  0  0  0  0  0  0  0  0
   49.3040   32.1690   37.1740 N   0  0  0  0  0  0  0  0  0  0  0  0
   49.4280   31.6010   35.9610 C   0  0  0  0  0  0  0  0  0  0  0  0
   50.6410   31.0080   35.9680 N   0  0  0  0  0  0  0  0  0  0  0  0
   51.2260   31.2210   37.1630 C   0  0  0  0  0  0  0  0  0  0  0  0
   50.3790   31.9520   37.9140 N   0  0  0  0  0  0  0  0  0  0  0  0
   43.8322   33.6591   40.5549 H   0  0  0  0  0  0  0  0  0  0  0  0
   44.6885   36.4083   42.2357 H   0  0  0  0  0  0  0  0  0  0  0  0
   46.0404   32.6565   43.9264 H   0  0  0  0  0  0  0  0  0  0  0  0
   44.4328   35.7403   46.3802 H   0  0  0  0  0  0  0  0  0  0  0  0
   48.8416   33.4118   39.9265 H   0  0  0  0  0  0  0  0  0  0  0  0
   47.4793   35.1004   37.4683 H   0  0  0  0  0  0  0  0  0  0  0  0
   49.0230   35.2101   37.3717 H   0  0  0  0  0  0  0  0  0  0  0  0
   47.4988   32.2170   37.2022 H   0  0  0  0  0  0  0  0  0  0  0  0
   48.6973   31.6163   35.1389 H   0  0  0  0  0  0  0  0  0  0  0  0
   52.2191   30.8618   37.4709 H   0  0  0  0  0  0  0  0  0  0  0  0
  1  7  1  0
  2  1  1  0
  3  4  1  0
  3  2  2  0
  4  5  2  0
  5  1  1  0
  6 11  2  0
  7  6  1  0
  7  8  2  0
  8  9  1  0
  9 10  2  0
 11 10  1  0
 12  4  1  0
 13 12  1  0
 14 13  1  0
 14 12  1  0
 15 14  1  0
 15 19  1  0
 16 17  2  0
 16 15  1  0
 17 18  1  0
 18 19  2  0
  2 20  1  0
  6 21  1  0
  8 22  1  0
 10 23  1  0
 12 24  1  1
 13 25  1  0
 13 26  1  0
 14 27  1  6
 16 28  1  0
 18 29  1  0
M  ISO  8  20  14  21  14  22  14  23  14  24  13  25  13  26  13  27  13
M  ISO  2  28  14  29  14
M  END
>  <minimizedAffinity>  (1) 
-4.50174141

>  <minimizedRMSD>  (1) 
0.0878757909

$$$$
