
     RDKit          3D

 23 24  0  0  0  0  0  0  0  0999 V2000
   45.4940   35.2320   43.6460 C   0  0  0  0  0  0  0  0  0  0  0  0
   45.9920   34.6050   42.4930 C   0  0  0  0  0  0  0  0  0  0  0  0
   46.4610   33.2700   42.6290 C   0  0  0  0  0  0  0  0  0  0  0  0
   46.4070   32.6770   43.8400 N   0  0  0  0  0  0  0  0  0  0  0  0
   45.9080   33.3460   44.9270 C   0  0  0  0  0  0  0  0  0  0  0  0
   45.4590   34.6050   44.8210 N   0  0  0  0  0  0  0  0  0  0  0  0
   45.8390   32.7410   46.2180 N   0  0  0  0  0  0  0  0  0  0  0  0
   46.5370   31.6150   46.4090 C   0  0  0  0  0  0  0  0  0  0  0  0
   46.5580   30.9330   47.6040 C   0  0  0  0  0  0  0  0  0  0  0  0
   45.8190   31.4340   48.6650 C   0  0  0  0  0  0  0  0  0  0  0  0
   45.7480   30.9140   49.8090 O   0  0  0  0  0  0  0  0  0  0  0  0
   45.1250   32.5700   48.4440 N   0  0  0  0  0  0  0  0  0  0  0  0
   45.1230   33.2190   47.2620 C   0  0  0  0  0  0  0  0  0  0  0  0
   44.4780   34.2610   47.0850 O   0  0  0  0  0  0  0  0  0  0  0  0
   44.9820   36.6290   43.5920 C   0  0  0  0  0  0  0  0  0  0  0  0
   46.0182   35.1253   41.5242 H   0  0  0  0  0  0  0  0  0  0  0  0
   46.8621   32.7282   41.7598 H   0  0  0  0  0  0  0  0  0  0  0  0
   47.1232   31.2148   45.5686 H   0  0  0  0  0  0  0  0  0  0  0  0
   47.1478   30.0111   47.7151 H   0  0  0  0  0  0  0  0  0  0  0  0
   44.5686   32.9612   49.2174 H   0  0  0  0  0  0  0  0  0  0  0  0
   44.8430   37.0084   44.6151 H   0  0  0  0  0  0  0  0  0  0  0  0
   45.7057   37.2645   43.0605 H   0  0  0  0  0  0  0  0  0  0  0  0
   44.0191   36.6463   43.0605 H   0  0  0  0  0  0  0  0  0  0  0  0
  1  6  2  0
  2  3  2  0
  2  1  1  0
  3  4  1  0
  4  5  2  0
  5  7  1  0
  6  5  1  0
  7  8  1  0
  7 13  1  0
  8  9  2  0
  9 10  1  0
 10 11  2  0
 12 10  1  0
 13 12  1  0
 14 13  2  0
 15  1  1  0
  2 16  1  0
  3 17  1  0
  8 18  1  0
  9 19  1  0
 12 20  1  0
 15 21  1  0
 15 22  1  0
 15 23  1  0
M  ISO  8  16  14  17  14  18  14  19  14  20   9  21   8  22   8  23   8
M  END
>  <minimizedAffinity>  (1) 
-4.57286882

>  <minimizedRMSD>  (1) 
1.02983308

$$$$
