
     RDKit          3D

 21 22  0  0  0  0  0  0  0  0999 V2000
   45.4170   35.7230   43.0400 C   0  0  0  0  0  0  0  0  0  0  0  0
   46.0200   35.0640   41.9600 C   0  0  0  0  0  0  0  0  0  0  0  0
   46.5860   33.8100   42.2350 C   0  0  0  0  0  0  0  0  0  0  0  0
   46.5390   33.2910   43.4790 N   0  0  0  0  0  0  0  0  0  0  0  0
   45.9320   33.9880   44.4960 C   0  0  0  0  0  0  0  0  0  0  0  0
   45.3760   35.1960   44.2710 N   0  0  0  0  0  0  0  0  0  0  0  0
   45.8570   33.4810   45.8240 N   0  0  0  0  0  0  0  0  0  0  0  0
   46.6710   32.4590   46.1400 C   0  0  0  0  0  0  0  0  0  0  0  0
   46.7110   31.8670   47.3790 C   0  0  0  0  0  0  0  0  0  0  0  0
   45.8700   32.3440   48.3530 C   0  0  0  0  0  0  0  0  0  0  0  0
   45.7760   31.9190   49.5400 O   0  0  0  0  0  0  0  0  0  0  0  0
   45.0710   33.3660   48.0030 N   0  0  0  0  0  0  0  0  0  0  0  0
   45.0470   33.9320   46.7870 C   0  0  0  0  0  0  0  0  0  0  0  0
   44.2920   34.8760   46.5010 O   0  0  0  0  0  0  0  0  0  0  0  0
   44.8340   36.9720   42.8420 O   0  0  0  0  0  0  0  0  0  0  0  0
   46.0480   35.5054   40.9528 H   0  0  0  0  0  0  0  0  0  0  0  0
   47.0733   33.2441   41.4274 H   0  0  0  0  0  0  0  0  0  0  0  0
   47.3449   32.0740   45.3605 H   0  0  0  0  0  0  0  0  0  0  0  0
   47.3984   31.0333   47.5848 H   0  0  0  0  0  0  0  0  0  0  0  0
   44.4321   33.7412   48.7185 H   0  0  0  0  0  0  0  0  0  0  0  0
   44.8480   37.3880   41.9438 H   0  0  0  0  0  0  0  0  0  0  0  0
  1  6  2  0
  2  3  2  0
  2  1  1  0
  3  4  1  0
  4  5  2  0
  5  7  1  0
  6  5  1  0
  7  8  1  0
  7 13  1  0
  8  9  2  0
  9 10  1  0
 10 11  2  0
 12 10  1  0
 13 12  1  0
 14 13  2  0
 15  1  1  0
  2 16  1  0
  3 17  1  0
  8 18  1  0
  9 19  1  0
 12 20  1  0
 15 21  1  0
M  ISO  6  16  14  17  14  18  14  19  14  20   9  21   3
M  END
>  <minimizedAffinity>  (1) 
-5.33936071

>  <minimizedRMSD>  (1) 
1.00168717

$$$$
