
     RDKit          3D

 29 30  0  0  0  0  0  0  0  0999 V2000
   47.3440   33.6060   42.9550 C   0  0  0  0  0  0  0  0  0  0  0  0
   48.0710   32.5950   42.3090 C   0  0  0  0  0  0  0  0  0  0  0  0
   48.3220   31.3960   43.0250 C   0  0  0  0  0  0  0  0  0  0  0  0
   47.8480   31.2890   44.2910 N   0  0  0  0  0  0  0  0  0  0  0  0
   47.1410   32.3080   44.8770 C   0  0  0  0  0  0  0  0  0  0  0  0
   46.9090   33.4290   44.2040 N   0  0  0  0  0  0  0  0  0  0  0  0
   46.6380   32.2130   46.2050 N   0  0  0  0  0  0  0  0  0  0  0  0
   47.1140   31.2300   46.9800 C   0  0  0  0  0  0  0  0  0  0  0  0
   46.7100   31.0260   48.2860 C   0  0  0  0  0  0  0  0  0  0  0  0
   45.7680   31.8760   48.8210 C   0  0  0  0  0  0  0  0  0  0  0  0
   45.3150   31.8010   49.9940 O   0  0  0  0  0  0  0  0  0  0  0  0
   45.2960   32.8680   48.0190 N   0  0  0  0  0  0  0  0  0  0  0  0
   45.7110   33.0370   46.7550 C   0  0  0  0  0  0  0  0  0  0  0  0
   45.2720   33.9500   46.0260 O   0  0  0  0  0  0  0  0  0  0  0  0
   47.1310   34.8010   42.1510 C   0  0  0  0  0  0  0  0  0  0  0  0
   48.4130   35.5290   41.8000 C   0  0  0  0  0  0  0  0  0  0  0  0
   46.0930   35.7610   42.6540 C   0  0  0  0  0  0  0  0  0  0  0  0
   48.4351   32.7276   41.2795 H   0  0  0  0  0  0  0  0  0  0  0  0
   48.8876   30.5728   42.5641 H   0  0  0  0  0  0  0  0  0  0  0  0
   47.8661   30.5491   46.5548 H   0  0  0  0  0  0  0  0  0  0  0  0
   47.1310   30.2042   48.8838 H   0  0  0  0  0  0  0  0  0  0  0  0
   44.5908   33.5160   48.3981 H   0  0  0  0  0  0  0  0  0  0  0  0
   46.7077   34.3794   41.2274 H   0  0  0  0  0  0  0  0  0  0  0  0
   48.9320   35.8237   42.7240 H   0  0  0  0  0  0  0  0  0  0  0  0
   49.0622   34.8648   41.2106 H   0  0  0  0  0  0  0  0  0  0  0  0
   48.1752   36.4268   41.2106 H   0  0  0  0  0  0  0  0  0  0  0  0
   46.0946   35.7595   43.7540 H   0  0  0  0  0  0  0  0  0  0  0  0
   46.3216   36.7729   42.2884 H   0  0  0  0  0  0  0  0  0  0  0  0
   45.1020   35.4542   42.2884 H   0  0  0  0  0  0  0  0  0  0  0  0
  1  6  2  0
  2  1  1  0
  2  3  2  0
  3  4  1  0
  4  5  2  0
  5  7  1  0
  6  5  1  0
  7 13  1  0
  7  8  1  0
  8  9  2  0
  9 10  1  0
 10 11  2  0
 12 10  1  0
 13 12  1  0
 14 13  2  0
 15 17  1  0
 15  1  1  0
 16 15  1  0
  2 18  1  0
  3 19  1  0
  8 20  1  0
  9 21  1  0
 12 22  1  0
 15 23  1  0
 16 24  1  0
 16 25  1  0
 16 26  1  0
 17 27  1  0
 17 28  1  0
 17 29  1  0
M  ISO  8  18  14  19  14  20  14  21  14  22   9  23   8  24   8  25   8
M  ISO  4  26   8  27   8  28   8  29   8
M  END
>  <minimizedAffinity>  (1) 
-5.27097511

>  <minimizedRMSD>  (1) 
3.06191397

$$$$
