
     RDKit          3D

 45 48  0  0  1  0  0  0  0  0999 V2000
   48.0420   32.7870   43.1910 C   0  0  0  0  0  0  0  0  0  0  0  0
   48.4400   31.6040   42.5670 C   0  0  0  0  0  0  0  0  0  0  0  0
   48.2140   30.3850   43.2580 C   0  0  0  0  0  0  0  0  0  0  0  0
   47.6290   30.4300   44.4800 N   0  0  0  0  0  0  0  0  0  0  0  0
   47.2560   31.6150   45.0480 C   0  0  0  0  0  0  0  0  0  0  0  0
   47.4660   32.7550   44.4060 N   0  0  0  0  0  0  0  0  0  0  0  0
   46.6260   31.6780   46.3310 N   0  0  0  0  0  0  0  0  0  0  0  0
   46.6890   30.5890   47.1050 C   0  0  0  0  0  0  0  0  0  0  0  0
   46.1180   30.5280   48.3610 C   0  0  0  0  0  0  0  0  0  0  0  0
   45.4520   31.6420   48.8400 C   0  0  0  0  0  0  0  0  0  0  0  0
   44.8930   31.7090   49.9660 O   0  0  0  0  0  0  0  0  0  0  0  0
   45.4020   32.7350   48.0330 N   0  0  0  0  0  0  0  0  0  0  0  0
   45.9640   32.7660   46.8190 C   0  0  0  0  0  0  0  0  0  0  0  0
   45.9120   33.7700   46.0930 O   0  0  0  0  0  0  0  0  0  0  0  0
   48.2810   33.9940   42.4210 C   0  0  2  0  0  0  0  0  0  0  0  0
   49.7220   34.5040   42.5740 C   0  0  0  0  0  0  0  0  0  0  0  0
   47.3120   35.1040   42.5880 C   0  0  0  0  0  0  0  0  0  0  0  0
   45.9680   34.8510   42.0770 C   0  0  0  0  0  0  0  0  0  0  0  0
   44.8130   35.1850   42.7550 C   0  0  0  0  0  0  0  0  0  0  0  0
   43.5370   34.9510   42.2930 C   0  0  0  0  0  0  0  0  0  0  0  0
   43.3600   34.3450   41.0770 C   0  0  0  0  0  0  0  0  0  0  0  0
   44.4880   33.9950   40.3690 C   0  0  0  0  0  0  0  0  0  0  0  0
   44.3110   33.3830   39.1400 C   0  0  0  0  0  0  0  0  0  0  0  0
   45.3820   33.0010   38.3680 C   0  0  0  0  0  0  0  0  0  0  0  0
   46.6640   33.2300   38.8200 C   0  0  0  0  0  0  0  0  0  0  0  0
   46.8310   33.8430   40.0490 C   0  0  0  0  0  0  0  0  0  0  0  0
   45.7780   34.2390   40.8500 C   0  0  0  0  0  0  0  0  0  0  0  0
   48.9126   31.6158   41.5738 H   0  0  0  0  0  0  0  0  0  0  0  0
   48.5075   29.4236   42.8112 H   0  0  0  0  0  0  0  0  0  0  0  0
   47.2188   29.7032   46.7245 H   0  0  0  0  0  0  0  0  0  0  0  0
   46.1912   29.6133   48.9676 H   0  0  0  0  0  0  0  0  0  0  0  0
   44.9106   33.5750   48.3704 H   0  0  0  0  0  0  0  0  0  0  0  0
   48.1146   33.6484   41.3901 H   0  0  0  0  0  0  0  0  0  0  0  0
   49.9686   34.5913   43.6425 H   0  0  0  0  0  0  0  0  0  0  0  0
   50.4143   33.7963   42.0946 H   0  0  0  0  0  0  0  0  0  0  0  0
   49.8150   35.4896   42.0946 H   0  0  0  0  0  0  0  0  0  0  0  0
   47.2297   35.3224   43.6630 H   0  0  0  0  0  0  0  0  0  0  0  0
   47.7074   35.9404   41.9929 H   0  0  0  0  0  0  0  0  0  0  0  0
   44.9195   35.6733   43.7349 H   0  0  0  0  0  0  0  0  0  0  0  0
   42.6663   35.2484   42.8958 H   0  0  0  0  0  0  0  0  0  0  0  0
   42.3535   34.1453   40.6807 H   0  0  0  0  0  0  0  0  0  0  0  0
   43.2905   33.1983   38.7732 H   0  0  0  0  0  0  0  0  0  0  0  0
   45.2171   32.5153   37.3949 H   0  0  0  0  0  0  0  0  0  0  0  0
   47.5345   32.9321   38.2172 H   0  0  0  0  0  0  0  0  0  0  0  0
   47.8553   34.0243   40.4066 H   0  0  0  0  0  0  0  0  0  0  0  0
  1  6  1  0
  2  1  2  0
  2  3  1  0
  3  4  2  0
  4  5  1  0
  5  7  1  0
  6  5  2  0
  7 13  1  0
  7  8  1  0
  8  9  2  0
  9 10  1  0
 10 11  2  0
 12 10  1  0
 13 12  1  0
 14 13  2  0
 15 16  1  0
 15 17  1  0
 15  1  1  0
 18 17  1  0
 18 19  2  0
 20 19  1  0
 21 20  2  0
 22 27  2  0
 22 21  1  0
 23 22  1  0
 24 25  1  0
 24 23  2  0
 25 26  2  0
 26 27  1  0
 27 18  1  0
  2 28  1  0
  3 29  1  0
  8 30  1  0
  9 31  1  0
 12 32  1  0
 15 33  1  6
 16 34  1  0
 16 35  1  0
 16 36  1  0
 17 37  1  0
 17 38  1  0
 19 39  1  0
 20 40  1  0
 21 41  1  0
 23 42  1  0
 24 43  1  0
 25 44  1  0
 26 45  1  0
M  ISO  8  28  14  29  14  30  14  31  14  32   9  33   8  34   8  35   8
M  ISO  8  36   8  37   8  38   8  39  14  40  14  41  14  42  14  43  14
M  ISO  2  44  14  45  14
M  END
>  <minimizedAffinity>  (1) 
-6.63309288

>  <minimizedRMSD>  (1) 
1.57595861

$$$$
