
     RDKit          3D

 41 43  0  0  1  0  0  0  0  0999 V2000
   47.8110   33.1160   43.1190 C   0  0  0  0  0  0  0  0  0  0  0  0
   48.3920   32.0000   42.5150 C   0  0  0  0  0  0  0  0  0  0  0  0
   48.4120   30.7870   43.2420 C   0  0  0  0  0  0  0  0  0  0  0  0
   47.8670   30.7670   44.4860 N   0  0  0  0  0  0  0  0  0  0  0  0
   47.3010   31.8970   45.0450 C   0  0  0  0  0  0  0  0  0  0  0  0
   47.2920   33.0320   44.3450 N   0  0  0  0  0  0  0  0  0  0  0  0
   46.7050   31.8850   46.3300 N   0  0  0  0  0  0  0  0  0  0  0  0
   46.9880   30.8560   47.1400 C   0  0  0  0  0  0  0  0  0  0  0  0
   46.4580   30.7370   48.4140 C   0  0  0  0  0  0  0  0  0  0  0  0
   45.5990   31.7270   48.8700 C   0  0  0  0  0  0  0  0  0  0  0  0
   45.0720   31.7050   50.0100 O   0  0  0  0  0  0  0  0  0  0  0  0
   45.3320   32.7510   48.0330 N   0  0  0  0  0  0  0  0  0  0  0  0
   45.8560   32.8480   46.8000 C   0  0  0  0  0  0  0  0  0  0  0  0
   45.6050   33.7910   46.0350 O   0  0  0  0  0  0  0  0  0  0  0  0
   47.8030   34.3100   42.3040 C   0  0  2  0  0  0  0  0  0  0  0  0
   49.1430   35.0530   42.3260 C   0  0  0  0  0  0  0  0  0  0  0  0
   46.6690   35.2540   42.4840 C   0  0  0  0  0  0  0  0  0  0  0  0
   45.4090   34.8890   42.0390 N   0  0  0  0  0  0  0  0  0  0  0  0
   44.3110   35.7270   42.4080 C   0  0  0  0  0  0  0  0  0  0  0  0
   43.2120   35.5120   41.3670 C   0  0  0  0  0  0  0  0  0  0  0  0
   43.6010   34.1580   40.8150 C   0  0  0  0  0  0  0  0  0  0  0  0
   45.1310   34.2840   40.8340 C   0  0  0  0  0  0  0  0  0  0  0  0
   48.8214   32.0620   41.5042 H   0  0  0  0  0  0  0  0  0  0  0  0
   48.8591   29.8798   42.8095 H   0  0  0  0  0  0  0  0  0  0  0  0
   47.6701   30.0726   46.7779 H   0  0  0  0  0  0  0  0  0  0  0  0
   46.7123   29.8766   49.0505 H   0  0  0  0  0  0  0  0  0  0  0  0
   44.6957   33.4942   48.3550 H   0  0  0  0  0  0  0  0  0  0  0  0
   47.6352   33.8886   41.3019 H   0  0  0  0  0  0  0  0  0  0  0  0
   49.4506   35.2236   43.3682 H   0  0  0  0  0  0  0  0  0  0  0  0
   49.9057   34.4489   41.8128 H   0  0  0  0  0  0  0  0  0  0  0  0
   49.0346   36.0199   41.8128 H   0  0  0  0  0  0  0  0  0  0  0  0
   46.5840   35.4523   43.5626 H   0  0  0  0  0  0  0  0  0  0  0  0
   46.9353   36.1081   41.8440 H   0  0  0  0  0  0  0  0  0  0  0  0
   43.9438   35.4497   43.4072 H   0  0  0  0  0  0  0  0  0  0  0  0
   44.6180   36.7828   42.4410 H   0  0  0  0  0  0  0  0  0  0  0  0
   42.2148   35.4882   41.8308 H   0  0  0  0  0  0  0  0  0  0  0  0
   43.1409   36.3075   40.6106 H   0  0  0  0  0  0  0  0  0  0  0  0
   43.2175   34.0088   39.7949 H   0  0  0  0  0  0  0  0  0  0  0  0
   43.2024   33.2999   41.3761 H   0  0  0  0  0  0  0  0  0  0  0  0
   45.6041   33.2925   40.7778 H   0  0  0  0  0  0  0  0  0  0  0  0
   45.5155   34.8577   39.9778 H   0  0  0  0  0  0  0  0  0  0  0  0
  1  6  1  0
  2  1  2  0
  2  3  1  0
  3  4  2  0
  4  5  1  0
  5  7  1  0
  6  5  2  0
  7 13  1  0
  7  8  1  0
  8  9  2  0
  9 10  1  0
 10 11  2  0
 12 10  1  0
 13 12  1  0
 14 13  2  0
 15 16  1  0
 15 17  1  0
 15  1  1  0
 18 19  1  0
 18 17  1  0
 20 19  1  0
 21 22  1  0
 21 20  1  0
 22 18  1  0
  2 23  1  0
  3 24  1  0
  8 25  1  0
  9 26  1  0
 12 27  1  0
 15 28  1  6
 16 29  1  0
 16 30  1  0
 16 31  1  0
 17 32  1  0
 17 33  1  0
 19 34  1  0
 19 35  1  0
 20 36  1  0
 20 37  1  0
 21 38  1  0
 21 39  1  0
 22 40  1  0
 22 41  1  0
M  ISO  8  23  14  24  14  25  14  26  14  27   9  28   8  29   8  30   8
M  ISO  8  31   8  32   8  33   8  34  13  35  13  36  13  37  13  38  13
M  ISO  3  39  13  40  13  41  13
M  END
>  <minimizedAffinity>  (1) 
-5.7993803

>  <minimizedRMSD>  (1) 
0.99857837

$$$$
