
     RDKit          3D

 43 45  0  0  1  0  0  0  0  0999 V2000
   48.1250   32.6560   43.0480 C   0  0  0  0  0  0  0  0  0  0  0  0
   48.3870   31.4650   42.3610 C   0  0  0  0  0  0  0  0  0  0  0  0
   48.0870   30.2440   43.0200 C   0  0  0  0  0  0  0  0  0  0  0  0
   47.5660   30.2960   44.2740 N   0  0  0  0  0  0  0  0  0  0  0  0
   47.3290   31.4990   44.9000 C   0  0  0  0  0  0  0  0  0  0  0  0
   47.6090   32.6450   44.2840 N   0  0  0  0  0  0  0  0  0  0  0  0
   46.7760   31.5620   46.1970 N   0  0  0  0  0  0  0  0  0  0  0  0
   46.7780   30.4490   46.9500 C   0  0  0  0  0  0  0  0  0  0  0  0
   46.2640   30.3920   48.2320 C   0  0  0  0  0  0  0  0  0  0  0  0
   45.7190   31.5310   48.7770 C   0  0  0  0  0  0  0  0  0  0  0  0
   45.2230   31.5990   49.9280 O   0  0  0  0  0  0  0  0  0  0  0  0
   45.7240   32.6630   47.9930 N   0  0  0  0  0  0  0  0  0  0  0  0
   46.2290   32.6750   46.7620 C   0  0  0  0  0  0  0  0  0  0  0  0
   46.2180   33.7070   46.0800 O   0  0  0  0  0  0  0  0  0  0  0  0
   48.4350   33.8810   42.2980 C   0  0  2  0  0  0  0  0  0  0  0  0
   49.7670   34.4740   42.6800 C   0  0  0  0  0  0  0  0  0  0  0  0
   47.3460   34.8700   42.1750 C   0  0  0  0  0  0  0  0  0  0  0  0
   46.0370   34.5460   42.5450 N   0  0  0  0  0  0  0  0  0  0  0  0
   45.2070   34.5780   41.3280 C   0  0  0  0  0  0  0  0  0  0  0  0
   43.8330   35.0920   41.6060 C   0  0  0  0  0  0  0  0  0  0  0  0
   43.9680   36.4630   42.0510 N   0  0  0  0  0  0  0  0  0  0  0  0
   44.7920   36.5780   43.2290 C   0  0  0  0  0  0  0  0  0  0  0  0
   45.3960   35.2590   43.5870 C   0  0  0  0  0  0  0  0  0  0  0  0
   48.8106   31.4748   41.3459 H   0  0  0  0  0  0  0  0  0  0  0  0
   48.2720   29.2782   42.5270 H   0  0  0  0  0  0  0  0  0  0  0  0
   47.2124   29.5331   46.5229 H   0  0  0  0  0  0  0  0  0  0  0  0
   46.2904   29.4536   48.8053 H   0  0  0  0  0  0  0  0  0  0  0  0
   45.3223   33.5319   48.3732 H   0  0  0  0  0  0  0  0  0  0  0  0
   48.5341   33.5306   41.2600 H   0  0  0  0  0  0  0  0  0  0  0  0
   49.8509   34.5114   43.7762 H   0  0  0  0  0  0  0  0  0  0  0  0
   50.5764   33.8512   42.2713 H   0  0  0  0  0  0  0  0  0  0  0  0
   49.8458   35.4922   42.2713 H   0  0  0  0  0  0  0  0  0  0  0  0
   47.6390   35.7363   42.7863 H   0  0  0  0  0  0  0  0  0  0  0  0
   47.2641   35.0074   41.0867 H   0  0  0  0  0  0  0  0  0  0  0  0
   45.1302   33.5583   40.9227 H   0  0  0  0  0  0  0  0  0  0  0  0
   45.6856   35.2560   40.6060 H   0  0  0  0  0  0  0  0  0  0  0  0
   43.2237   35.0515   40.6911 H   0  0  0  0  0  0  0  0  0  0  0  0
   43.3364   34.4805   42.3738 H   0  0  0  0  0  0  0  0  0  0  0  0
   44.3937   37.0165   41.2938 H   0  0  0  0  0  0  0  0  0  0  0  0
   45.5970   37.3025   43.0363 H   0  0  0  0  0  0  0  0  0  0  0  0
   44.1637   36.9161   44.0662 H   0  0  0  0  0  0  0  0  0  0  0  0
   44.5915   34.6206   43.9810 H   0  0  0  0  0  0  0  0  0  0  0  0
   46.1932   35.4938   44.3076 H   0  0  0  0  0  0  0  0  0  0  0  0
  1  6  2  0
  2  3  2  0
  2  1  1  0
  3  4  1  0
  4  5  2  0
  5  7  1  0
  6  5  1  0
  7 13  1  0
  7  8  1  0
  8  9  2  0
  9 10  1  0
 10 11  2  0
 12 10  1  0
 13 12  1  0
 14 13  2  0
 15 16  1  0
 15  1  1  0
 17 15  1  0
 17 18  1  0
 18 23  1  0
 19 20  1  0
 19 18  1  0
 20 21  1  0
 21 22  1  0
 22 23  1  0
  2 24  1  0
  3 25  1  0
  8 26  1  0
  9 27  1  0
 12 28  1  0
 15 29  1  6
 16 30  1  0
 16 31  1  0
 16 32  1  0
 17 33  1  0
 17 34  1  0
 19 35  1  0
 19 36  1  0
 20 37  1  0
 20 38  1  0
 21 39  1  0
 22 40  1  0
 22 41  1  0
 23 42  1  0
 23 43  1  0
M  ISO  8  24  14  25  14  26  14  27  14  28   9  29   8  30   8  31   8
M  ISO  8  32   8  33   8  34   8  35  13  36  13  37  13  38  13  39   5
M  ISO  4  40  13  41  13  42  13  43  13
M  END
>  <minimizedAffinity>  (1) 
-5.71038628

>  <minimizedRMSD>  (1) 
1.87666774

$$$$
