
     RDKit          3D

 30 31  0  0  1  0  0  0  0  0999 V2000
   47.3140   33.6060   42.9440 C   0  0  0  0  0  0  0  0  0  0  0  0
   48.0080   32.5940   42.2860 C   0  0  0  0  0  0  0  0  0  0  0  0
   48.2560   31.3990   42.9890 C   0  0  0  0  0  0  0  0  0  0  0  0
   47.8080   31.2910   44.2770 N   0  0  0  0  0  0  0  0  0  0  0  0
   47.1270   32.3290   44.8730 C   0  0  0  0  0  0  0  0  0  0  0  0
   46.8970   33.4460   44.2120 N   0  0  0  0  0  0  0  0  0  0  0  0
   46.6450   32.2160   46.1960 N   0  0  0  0  0  0  0  0  0  0  0  0
   47.1120   31.2280   46.9680 C   0  0  0  0  0  0  0  0  0  0  0  0
   46.7050   31.0160   48.2730 C   0  0  0  0  0  0  0  0  0  0  0  0
   45.7600   31.8680   48.8190 C   0  0  0  0  0  0  0  0  0  0  0  0
   45.3040   31.7920   49.9820 O   0  0  0  0  0  0  0  0  0  0  0  0
   45.2900   32.8710   48.0260 N   0  0  0  0  0  0  0  0  0  0  0  0
   45.7130   33.0450   46.7550 C   0  0  0  0  0  0  0  0  0  0  0  0
   45.2730   33.9670   46.0430 O   0  0  0  0  0  0  0  0  0  0  0  0
   47.0740   34.8090   42.1440 C   0  0  2  0  0  0  0  0  0  0  0  0
   48.3910   35.5170   41.7850 C   0  0  0  0  0  0  0  0  0  0  0  0
   46.0810   35.7840   42.6610 C   0  0  0  0  0  0  0  0  0  0  0  0
   44.8250   35.1910   42.7890 O   0  0  0  0  0  0  0  0  0  0  0  0
   48.3519   32.7238   41.2492 H   0  0  0  0  0  0  0  0  0  0  0  0
   48.7988   30.5696   42.5121 H   0  0  0  0  0  0  0  0  0  0  0  0
   47.8618   30.5459   46.5409 H   0  0  0  0  0  0  0  0  0  0  0  0
   47.1232   30.1881   48.8644 H   0  0  0  0  0  0  0  0  0  0  0  0
   44.5874   33.5195   48.4090 H   0  0  0  0  0  0  0  0  0  0  0  0
   46.5937   34.4049   41.2407 H   0  0  0  0  0  0  0  0  0  0  0  0
   48.9183   35.8005   42.7078 H   0  0  0  0  0  0  0  0  0  0  0  0
   49.0237   34.8374   41.1952 H   0  0  0  0  0  0  0  0  0  0  0  0
   48.1731   36.4196   41.1952 H   0  0  0  0  0  0  0  0  0  0  0  0
   46.4106   36.1467   43.6458 H   0  0  0  0  0  0  0  0  0  0  0  0
   46.0053   36.6205   41.9507 H   0  0  0  0  0  0  0  0  0  0  0  0
   44.6053   35.0873   43.7487 H   0  0  0  0  0  0  0  0  0  0  0  0
  1  6  2  0
  2  1  1  0
  2  3  2  0
  3  4  1  0
  4  5  2  0
  5  7  1  0
  6  5  1  0
  7 13  1  0
  7  8  1  0
  8  9  2  0
  9 10  1  0
 10 11  2  0
 12 10  1  0
 13 12  1  0
 14 13  2  0
 15 17  1  0
 15  1  1  0
 16 15  1  0
 17 18  1  0
  2 19  1  0
  3 20  1  0
  8 21  1  0
  9 22  1  0
 12 23  1  0
 15 24  1  6
 16 25  1  0
 16 26  1  0
 16 27  1  0
 17 28  1  0
 17 29  1  0
 18 30  1  0
M  ISO  8  19  14  20  14  21  14  22  14  23   9  24   8  25   8  26   8
M  ISO  4  27   8  28   8  29   8  30   3
M  END
>  <minimizedAffinity>  (1) 
-5.14723015

>  <minimizedRMSD>  (1) 
0.531673193

$$$$
