
     RDKit          3D

 53 56  0  0  1  0  0  0  0  0999 V2000
   48.6680   34.0460   41.9720 C   0  0  2  0  0  0  0  0  0  0  0  0
   48.4230   32.8290   42.7670 C   0  0  0  0  0  0  0  0  0  0  0  0
   48.9560   31.6550   42.2200 C   0  0  0  0  0  0  0  0  0  0  0  0
   48.7530   30.4520   42.9320 C   0  0  0  0  0  0  0  0  0  0  0  0
   48.0620   30.5040   44.0910 N   0  0  0  0  0  0  0  0  0  0  0  0
   47.5640   31.6960   44.5770 C   0  0  0  0  0  0  0  0  0  0  0  0
   47.7470   32.8390   43.9140 N   0  0  0  0  0  0  0  0  0  0  0  0
   46.8440   31.7700   45.8090 N   0  0  0  0  0  0  0  0  0  0  0  0
   46.9040   30.6900   46.6090 C   0  0  0  0  0  0  0  0  0  0  0  0
   46.2440   30.6260   47.8140 C   0  0  0  0  0  0  0  0  0  0  0  0
   45.4950   31.7020   48.2180 C   0  0  0  0  0  0  0  0  0  0  0  0
   44.8250   31.8030   49.2950 O   0  0  0  0  0  0  0  0  0  0  0  0
   45.4440   32.7890   47.3990 N   0  0  0  0  0  0  0  0  0  0  0  0
   46.1040   32.8110   46.2310 C   0  0  0  0  0  0  0  0  0  0  0  0
   46.0670   33.7950   45.4790 O   0  0  0  0  0  0  0  0  0  0  0  0
   49.6090   35.0240   42.6300 C   0  0  0  0  0  0  0  0  0  0  0  0
   47.4770   34.6880   41.3760 C   0  0  0  0  0  0  0  0  0  0  0  0
   47.1870   34.2010   40.0420 C   0  0  0  0  0  0  0  0  0  0  0  0
   48.2740   34.5470   39.1760 C   0  0  0  0  0  0  0  0  0  0  0  0
   48.2960   34.1660   37.8820 C   0  0  0  0  0  0  0  0  0  0  0  0
   47.2790   33.4300   37.2870 C   0  0  0  0  0  0  0  0  0  0  0  0
   46.2270   33.0920   38.0720 C   0  0  0  0  0  0  0  0  0  0  0  0
   46.2200   33.4780   39.3850 C   0  0  0  0  0  0  0  0  0  0  0  0
   45.1840   33.2030   40.3650 N   0  0  0  0  0  0  0  0  0  0  0  0
   45.1510   32.1450   41.3860 C   0  0  0  0  0  0  0  0  0  0  0  0
   44.5750   32.8020   42.6260 C   0  0  0  0  0  0  0  0  0  0  0  0
   44.8750   34.2210   42.6090 N   0  0  0  0  0  0  0  0  0  0  0  0
   44.0840   34.9280   41.6210 C   0  0  0  0  0  0  0  0  0  0  0  0
   44.0000   34.0320   40.4070 C   0  0  0  0  0  0  0  0  0  0  0  0
   49.2013   33.6518   41.0944 H   0  0  0  0  0  0  0  0  0  0  0  0
   49.5121   31.6692   41.2710 H   0  0  0  0  0  0  0  0  0  0  0  0
   49.1474   29.4979   42.5523 H   0  0  0  0  0  0  0  0  0  0  0  0
   47.5035   29.8256   46.2873 H   0  0  0  0  0  0  0  0  0  0  0  0
   46.3156   29.7268   48.4435 H   0  0  0  0  0  0  0  0  0  0  0  0
   44.8886   33.6092   47.6814 H   0  0  0  0  0  0  0  0  0  0  0  0
   49.5241   34.9357   43.7232 H   0  0  0  0  0  0  0  0  0  0  0  0
   50.6418   34.8020   42.3234 H   0  0  0  0  0  0  0  0  0  0  0  0
   49.3474   36.0475   42.3234 H   0  0  0  0  0  0  0  0  0  0  0  0
   46.6089   34.4861   42.0207 H   0  0  0  0  0  0  0  0  0  0  0  0
   47.6846   35.7654   41.2983 H   0  0  0  0  0  0  0  0  0  0  0  0
   49.1114   35.1378   39.5757 H   0  0  0  0  0  0  0  0  0  0  0  0
   49.1623   34.4523   37.2675 H   0  0  0  0  0  0  0  0  0  0  0  0
   47.3253   33.1353   36.2282 H   0  0  0  0  0  0  0  0  0  0  0  0
   45.3878   32.5136   37.6582 H   0  0  0  0  0  0  0  0  0  0  0  0
   44.5104   31.3131   41.0580 H   0  0  0  0  0  0  0  0  0  0  0  0
   46.1500   31.7237   41.5720 H   0  0  0  0  0  0  0  0  0  0  0  0
   43.4845   32.6586   42.6432 H   0  0  0  0  0  0  0  0  0  0  0  0
   45.0208   32.3452   43.5219 H   0  0  0  0  0  0  0  0  0  0  0  0
   44.6754   34.6149   43.5395 H   0  0  0  0  0  0  0  0  0  0  0  0
   43.0765   35.1277   42.0148 H   0  0  0  0  0  0  0  0  0  0  0  0
   44.5422   35.8952   41.3669 H   0  0  0  0  0  0  0  0  0  0  0  0
   43.9446   34.6460   39.4960 H   0  0  0  0  0  0  0  0  0  0  0  0
   43.1006   33.4014   40.4658 H   0  0  0  0  0  0  0  0  0  0  0  0
  1 16  1  0
  1  2  1  0
  2  7  1  0
  3  2  2  0
  3  4  1  0
  4  5  2  0
  5  6  1  0
  6  8  1  0
  7  6  2  0
  8 14  1  0
  8  9  1  0
  9 10  2  0
 10 11  1  0
 11 12  2  0
 13 11  1  0
 14 13  1  0
 15 14  2  0
 17  1  1  0
 18 17  1  0
 19 18  2  0
 20 19  1  0
 21 20  2  0
 21 22  1  0
 22 23  2  0
 23 18  1  0
 23 24  1  0
 24 29  1  0
 24 25  1  0
 25 26  1  0
 27 26  1  0
 28 27  1  0
 29 28  1  0
  1 30  1  6
  3 31  1  0
  4 32  1  0
  9 33  1  0
 10 34  1  0
 13 35  1  0
 16 36  1  0
 16 37  1  0
 16 38  1  0
 17 39  1  0
 17 40  1  0
 19 41  1  0
 20 42  1  0
 21 43  1  0
 22 44  1  0
 25 45  1  0
 25 46  1  0
 26 47  1  0
 26 48  1  0
 27 49  1  0
 28 50  1  0
 28 51  1  0
 29 52  1  0
 29 53  1  0
M  ISO  8  30   8  31  14  32  14  33  14  34  14  35   9  36   8  37   8
M  ISO  8  38   8  39   8  40   8  41  14  42  14  43  14  44  14  45  13
M  ISO  8  46  13  47  13  48  13  49   5  50  13  51  13  52  13  53  13
M  END
>  <minimizedAffinity>  (1) 
-6.42624855

>  <minimizedRMSD>  (1) 
3.1135385

$$$$
