
     RDKit          3D

 41 43  0  0  1  0  0  0  0  0999 V2000
   48.2720   33.8260   42.4400 C   0  0  2  0  0  0  0  0  0  0  0  0
   48.0280   32.6100   43.2420 C   0  0  0  0  0  0  0  0  0  0  0  0
   48.4520   31.4190   42.6420 C   0  0  0  0  0  0  0  0  0  0  0  0
   48.2420   30.2150   43.3570 C   0  0  0  0  0  0  0  0  0  0  0  0
   47.6460   30.2870   44.5690 N   0  0  0  0  0  0  0  0  0  0  0  0
   47.2510   31.4970   45.1040 C   0  0  0  0  0  0  0  0  0  0  0  0
   47.4460   32.6360   44.4360 N   0  0  0  0  0  0  0  0  0  0  0  0
   46.6360   31.5930   46.3910 N   0  0  0  0  0  0  0  0  0  0  0  0
   46.6970   30.5010   47.1690 C   0  0  0  0  0  0  0  0  0  0  0  0
   46.1460   30.4600   48.4260 C   0  0  0  0  0  0  0  0  0  0  0  0
   45.5090   31.5680   48.9040 C   0  0  0  0  0  0  0  0  0  0  0  0
   44.9450   31.6990   50.0430 O   0  0  0  0  0  0  0  0  0  0  0  0
   45.4550   32.6640   48.1070 N   0  0  0  0  0  0  0  0  0  0  0  0
   46.0030   32.6770   46.8830 C   0  0  0  0  0  0  0  0  0  0  0  0
   45.9590   33.6790   46.1440 O   0  0  0  0  0  0  0  0  0  0  0  0
   49.7330   34.1350   42.2360 C   0  0  0  0  0  0  0  0  0  0  0  0
   47.4630   35.0150   42.7940 C   0  0  0  0  0  0  0  0  0  0  0  0
   46.1410   34.9850   42.1940 C   0  0  0  0  0  0  0  0  0  0  0  0
   46.1870   34.1940   41.0080 C   0  0  0  0  0  0  0  0  0  0  0  0
   45.0770   33.9510   40.2770 C   0  0  0  0  0  0  0  0  0  0  0  0
   43.8240   34.4560   40.6150 C   0  0  0  0  0  0  0  0  0  0  0  0
   43.7430   35.2200   41.7300 C   0  0  0  0  0  0  0  0  0  0  0  0
   44.8760   35.4460   42.4560 C   0  0  0  0  0  0  0  0  0  0  0  0
   44.9100   36.2490   43.6780 C   0  0  0  0  0  0  0  0  0  0  0  0
   44.2620   35.9510   44.6840 O   0  0  0  0  0  0  0  0  0  0  0  0
   47.8781   33.5442   41.4524 H   0  0  0  0  0  0  0  0  0  0  0  0
   48.9307   31.4182   41.6516 H   0  0  0  0  0  0  0  0  0  0  0  0
   48.5551   29.2473   42.9381 H   0  0  0  0  0  0  0  0  0  0  0  0
   47.2075   29.6054   46.7853 H   0  0  0  0  0  0  0  0  0  0  0  0
   46.2170   29.5486   49.0378 H   0  0  0  0  0  0  0  0  0  0  0  0
   44.9797   33.5103   48.4515 H   0  0  0  0  0  0  0  0  0  0  0  0
   50.2258   34.2392   43.2139 H   0  0  0  0  0  0  0  0  0  0  0  0
   50.2056   33.3169   41.6726 H   0  0  0  0  0  0  0  0  0  0  0  0
   49.8339   35.0744   41.6726 H   0  0  0  0  0  0  0  0  0  0  0  0
   47.3535   35.0546   43.8878 H   0  0  0  0  0  0  0  0  0  0  0  0
   47.9858   35.9027   42.4083 H   0  0  0  0  0  0  0  0  0  0  0  0
   47.1487   33.7719   40.6808 H   0  0  0  0  0  0  0  0  0  0  0  0
   45.1670   33.3271   39.3756 H   0  0  0  0  0  0  0  0  0  0  0  0
   42.9363   34.2430   40.0013 H   0  0  0  0  0  0  0  0  0  0  0  0
   42.7811   35.6507   42.0449 H   0  0  0  0  0  0  0  0  0  0  0  0
   45.5370   37.1525   43.7005 H   0  0  0  0  0  0  0  0  0  0  0  0
  1 17  1  0
  1  2  1  0
  2  7  1  0
  3  2  2  0
  3  4  1  0
  4  5  2  0
  5  6  1  0
  6  8  1  0
  7  6  2  0
  8 14  1  0
  8  9  1  0
  9 10  2  0
 10 11  1  0
 11 12  2  0
 13 11  1  0
 14 13  1  0
 15 14  2  0
 16  1  1  0
 18 23  1  0
 18 17  1  0
 19 18  2  0
 20 21  2  0
 20 19  1  0
 21 22  1  0
 22 23  2  0
 23 24  1  0
 24 25  2  0
  1 26  1  6
  3 27  1  0
  4 28  1  0
  9 29  1  0
 10 30  1  0
 13 31  1  0
 16 32  1  0
 16 33  1  0
 16 34  1  0
 17 35  1  0
 17 36  1  0
 19 37  1  0
 20 38  1  0
 21 39  1  0
 22 40  1  0
 24 41  1  0
M  ISO  8  26   8  27  14  28  14  29  14  30  14  31   9  32   8  33   8
M  ISO  8  34   8  35   8  36   8  37  14  38  14  39  14  40  14  41   6
M  END
>  <minimizedAffinity>  (1) 
-6.32067013

>  <minimizedRMSD>  (1) 
1.13675404

$$$$
