
     RDKit          3D

 46 49  0  0  1  0  0  0  0  0999 V2000
   48.9680   34.1120   41.9050 C   0  0  2  0  0  0  0  0  0  0  0  0
   48.6690   32.8680   42.6320 C   0  0  0  0  0  0  0  0  0  0  0  0
   49.2490   31.7150   42.0880 C   0  0  0  0  0  0  0  0  0  0  0  0
   48.9910   30.4850   42.7360 C   0  0  0  0  0  0  0  0  0  0  0  0
   48.2080   30.4900   43.8340 N   0  0  0  0  0  0  0  0  0  0  0  0
   47.6660   31.6600   44.3230 C   0  0  0  0  0  0  0  0  0  0  0  0
   47.9040   32.8250   43.7160 N   0  0  0  0  0  0  0  0  0  0  0  0
   46.8500   31.7000   45.5060 N   0  0  0  0  0  0  0  0  0  0  0  0
   46.8430   30.5970   46.2620 C   0  0  0  0  0  0  0  0  0  0  0  0
   46.1200   30.4940   47.4240 C   0  0  0  0  0  0  0  0  0  0  0  0
   45.3750   31.5660   47.8220 C   0  0  0  0  0  0  0  0  0  0  0  0
   44.6440   31.6490   48.8680 O   0  0  0  0  0  0  0  0  0  0  0  0
   45.3930   32.6750   47.0460 N   0  0  0  0  0  0  0  0  0  0  0  0
   46.1080   32.7470   45.9170 C   0  0  0  0  0  0  0  0  0  0  0  0
   46.1280   33.7640   45.1980 O   0  0  0  0  0  0  0  0  0  0  0  0
   49.9130   35.0300   42.6360 C   0  0  0  0  0  0  0  0  0  0  0  0
   47.8070   34.8210   41.3230 C   0  0  0  0  0  0  0  0  0  0  0  0
   47.3620   34.2410   40.0660 C   0  0  0  0  0  0  0  0  0  0  0  0
   48.2800   34.6180   39.0480 C   0  0  0  0  0  0  0  0  0  0  0  0
   48.1570   34.1690   37.7750 C   0  0  0  0  0  0  0  0  0  0  0  0
   47.1240   33.3210   37.3740 C   0  0  0  0  0  0  0  0  0  0  0  0
   46.2270   32.9490   38.3190 C   0  0  0  0  0  0  0  0  0  0  0  0
   46.3710   33.4100   39.6120 C   0  0  0  0  0  0  0  0  0  0  0  0
   45.5140   33.1170   40.7510 N   0  0  0  0  0  0  0  0  0  0  0  0
   44.6720   33.7340   41.5590 C   0  0  0  0  0  0  0  0  0  0  0  0
   44.2090   32.7620   42.4550 C   0  0  0  0  0  0  0  0  0  0  0  0
   44.8050   31.5740   42.1440 N   0  0  0  0  0  0  0  0  0  0  0  0
   45.6100   31.7990   41.0910 C   0  0  0  0  0  0  0  0  0  0  0  0
   49.5117   33.7455   41.0218 H   0  0  0  0  0  0  0  0  0  0  0  0
   49.8819   31.7645   41.1897 H   0  0  0  0  0  0  0  0  0  0  0  0
   49.4187   29.5465   42.3536 H   0  0  0  0  0  0  0  0  0  0  0  0
   47.4433   29.7340   45.9382 H   0  0  0  0  0  0  0  0  0  0  0  0
   46.1405   29.5698   48.0201 H   0  0  0  0  0  0  0  0  0  0  0  0
   44.8367   33.4924   47.3347 H   0  0  0  0  0  0  0  0  0  0  0  0
   49.7821   34.9028   43.7207 H   0  0  0  0  0  0  0  0  0  0  0  0
   50.9492   34.7845   42.3605 H   0  0  0  0  0  0  0  0  0  0  0  0
   49.6976   36.0729   42.3605 H   0  0  0  0  0  0  0  0  0  0  0  0
   46.9752   34.7815   42.0417 H   0  0  0  0  0  0  0  0  0  0  0  0
   48.1210   35.8549   41.1168 H   0  0  0  0  0  0  0  0  0  0  0  0
   49.1121   35.2919   39.3001 H   0  0  0  0  0  0  0  0  0  0  0  0
   48.9007   34.4855   37.0288 H   0  0  0  0  0  0  0  0  0  0  0  0
   47.0414   32.9695   36.3350 H   0  0  0  0  0  0  0  0  0  0  0  0
   45.3902   32.2845   38.0576 H   0  0  0  0  0  0  0  0  0  0  0  0
   44.3907   34.7971   41.5338 H   0  0  0  0  0  0  0  0  0  0  0  0
   43.4886   32.9276   43.2696 H   0  0  0  0  0  0  0  0  0  0  0  0
   46.2387   31.0487   40.5892 H   0  0  0  0  0  0  0  0  0  0  0  0
  1  2  1  0
  1 16  1  0
  2  7  1  0
  3  2  2  0
  3  4  1  0
  4  5  2  0
  5  6  1  0
  6  8  1  0
  7  6  2  0
  8 14  1  0
  8  9  1  0
  9 10  2  0
 10 11  1  0
 11 12  2  0
 13 11  1  0
 14 13  1  0
 15 14  2  0
 17  1  1  0
 18 17  1  0
 19 18  2  0
 20 19  1  0
 21 20  2  0
 21 22  1  0
 22 23  2  0
 23 18  1  0
 23 24  1  0
 24 28  1  0
 24 25  1  0
 25 26  2  0
 27 26  1  0
 28 27  2  0
  1 29  1  6
  3 30  1  0
  4 31  1  0
  9 32  1  0
 10 33  1  0
 13 34  1  0
 16 35  1  0
 16 36  1  0
 16 37  1  0
 17 38  1  0
 17 39  1  0
 19 40  1  0
 20 41  1  0
 21 42  1  0
 22 43  1  0
 25 44  1  0
 26 45  1  0
 28 46  1  0
M  ISO  8  29   8  30  14  31  14  32  14  33  14  34   9  35   8  36   8
M  ISO  8  37   8  38   8  39   8  40  14  41  14  42  14  43  14  44  14
M  ISO  2  45  14  46  14
M  END
>  <minimizedAffinity>  (1) 
-6.08701611

>  <minimizedRMSD>  (1) 
3.33966422

$$$$
