
     RDKit          3D

 51 54  0  0  1  0  0  0  0  0999 V2000
   48.6880   34.0440   41.9930 C   0  0  2  0  0  0  0  0  0  0  0  0
   48.4150   32.8220   42.7670 C   0  0  0  0  0  0  0  0  0  0  0  0
   48.8090   31.6290   42.1450 C   0  0  0  0  0  0  0  0  0  0  0  0
   48.5720   30.4250   42.8370 C   0  0  0  0  0  0  0  0  0  0  0  0
   47.9840   30.4870   44.0490 N   0  0  0  0  0  0  0  0  0  0  0  0
   47.6190   31.6910   44.6090 C   0  0  0  0  0  0  0  0  0  0  0  0
   47.8360   32.8400   43.9670 N   0  0  0  0  0  0  0  0  0  0  0  0
   47.0170   31.7810   45.9060 N   0  0  0  0  0  0  0  0  0  0  0  0
   47.0600   30.6710   46.6650 C   0  0  0  0  0  0  0  0  0  0  0  0
   46.5030   30.6180   47.9230 C   0  0  0  0  0  0  0  0  0  0  0  0
   45.8810   31.7430   48.4170 C   0  0  0  0  0  0  0  0  0  0  0  0
   45.3200   31.8490   49.5540 O   0  0  0  0  0  0  0  0  0  0  0  0
   45.8460   32.8570   47.6380 N   0  0  0  0  0  0  0  0  0  0  0  0
   46.4040   32.8630   46.4180 C   0  0  0  0  0  0  0  0  0  0  0  0
   46.3840   33.8720   45.7000 O   0  0  0  0  0  0  0  0  0  0  0  0
   49.6370   34.9960   42.6760 C   0  0  0  0  0  0  0  0  0  0  0  0
   47.5140   34.7210   41.4020 C   0  0  0  0  0  0  0  0  0  0  0  0
   47.1600   34.1950   40.1020 C   0  0  0  0  0  0  0  0  0  0  0  0
   48.2510   34.4120   39.1970 C   0  0  0  0  0  0  0  0  0  0  0  0
   48.2180   33.9680   37.9250 C   0  0  0  0  0  0  0  0  0  0  0  0
   47.1360   33.2830   37.3850 C   0  0  0  0  0  0  0  0  0  0  0  0
   46.0790   33.0670   38.2050 C   0  0  0  0  0  0  0  0  0  0  0  0
   46.1280   33.5170   39.4990 C   0  0  0  0  0  0  0  0  0  0  0  0
   45.0930   33.3720   40.5080 N   0  0  0  0  0  0  0  0  0  0  0  0
   44.8960   32.3620   41.5320 C   0  0  0  0  0  0  0  0  0  0  0  0
   44.6020   33.1030   42.8200 C   0  0  0  0  0  0  0  0  0  0  0  0
   44.1400   34.4480   42.2980 C   0  0  0  0  0  0  0  0  0  0  0  0
   43.9230   34.1540   40.8480 C   0  0  0  0  0  0  0  0  0  0  0  0
   49.2195   33.6506   41.1140 H   0  0  0  0  0  0  0  0  0  0  0  0
   49.2855   31.6329   41.1536 H   0  0  0  0  0  0  0  0  0  0  0  0
   48.8596   29.4577   42.3993 H   0  0  0  0  0  0  0  0  0  0  0  0
   47.5575   29.7745   46.2666 H   0  0  0  0  0  0  0  0  0  0  0  0
   46.5538   29.6962   48.5211 H   0  0  0  0  0  0  0  0  0  0  0  0
   45.3846   33.7081   47.9895 H   0  0  0  0  0  0  0  0  0  0  0  0
   49.5361   34.8948   43.7667 H   0  0  0  0  0  0  0  0  0  0  0  0
   50.6697   34.7598   42.3798 H   0  0  0  0  0  0  0  0  0  0  0  0
   49.3975   36.0279   42.3798 H   0  0  0  0  0  0  0  0  0  0  0  0
   46.6564   34.5924   42.0787 H   0  0  0  0  0  0  0  0  0  0  0  0
   47.7743   35.7817   41.2707 H   0  0  0  0  0  0  0  0  0  0  0  0
   49.1393   34.9558   39.5508 H   0  0  0  0  0  0  0  0  0  0  0  0
   49.0905   34.1571   37.2824 H   0  0  0  0  0  0  0  0  0  0  0  0
   47.1376   32.9330   36.3422 H   0  0  0  0  0  0  0  0  0  0  0  0
   45.1897   32.5354   37.8356 H   0  0  0  0  0  0  0  0  0  0  0  0
   44.0492   31.7122   41.2662 H   0  0  0  0  0  0  0  0  0  0  0  0
   45.7858   31.7237   41.6359 H   0  0  0  0  0  0  0  0  0  0  0  0
   43.8111   32.6037   43.3989 H   0  0  0  0  0  0  0  0  0  0  0  0
   45.4575   33.1599   43.5092 H   0  0  0  0  0  0  0  0  0  0  0  0
   43.2076   34.7684   42.7858 H   0  0  0  0  0  0  0  0  0  0  0  0
   44.8501   35.2669   42.4855 H   0  0  0  0  0  0  0  0  0  0  0  0
   43.8787   35.0806   40.2569 H   0  0  0  0  0  0  0  0  0  0  0  0
   42.9746   33.6358   40.6429 H   0  0  0  0  0  0  0  0  0  0  0  0
  1 16  1  0
  1  2  1  0
  2  7  1  0
  3  2  2  0
  3  4  1  0
  4  5  2  0
  5  6  1  0
  6  8  1  0
  7  6  2  0
  8 14  1  0
  8  9  1  0
  9 10  2  0
 10 11  1  0
 11 12  2  0
 13 11  1  0
 14 13  1  0
 15 14  2  0
 17  1  1  0
 18 17  1  0
 19 18  2  0
 20 19  1  0
 21 20  2  0
 21 22  1  0
 22 23  2  0
 23 18  1  0
 23 24  1  0
 24 28  1  0
 24 25  1  0
 25 26  1  0
 27 26  1  0
 28 27  1  0
  1 29  1  6
  3 30  1  0
  4 31  1  0
  9 32  1  0
 10 33  1  0
 13 34  1  0
 16 35  1  0
 16 36  1  0
 16 37  1  0
 17 38  1  0
 17 39  1  0
 19 40  1  0
 20 41  1  0
 21 42  1  0
 22 43  1  0
 25 44  1  0
 25 45  1  0
 26 46  1  0
 26 47  1  0
 27 48  1  0
 27 49  1  0
 28 50  1  0
 28 51  1  0
M  ISO  8  29   8  30  14  31  14  32  14  33  14  34   9  35   8  36   8
M  ISO  8  37   8  38   8  39   8  40  14  41  14  42  14  43  14  44  13
M  ISO  7  45  13  46  13  47  13  48  13  49  13  50  13  51  13
M  END
>  <minimizedAffinity>  (1) 
-6.25699759

>  <minimizedRMSD>  (1) 
2.99540091

$$$$
