
     RDKit          3D

 26 28  0  0  1  0  0  0  0  0999 V2000
   45.7720   34.0410   41.3670 N   0  0  0  0  0  0  0  0  0  0  0  0
   44.9780   33.5680   40.3540 C   0  0  0  0  0  0  0  0  0  0  0  0
   45.7350   33.3230   39.2760 N   0  0  0  0  0  0  0  0  0  0  0  0
   47.0120   33.6420   39.6080 C   0  0  0  0  0  0  0  0  0  0  0  0
   46.9860   34.0670   40.8730 N   0  0  0  0  0  0  0  0  0  0  0  0
   45.0160   35.7860   42.8540 C   0  0  0  0  0  0  0  0  0  0  0  0
   45.4480   34.4400   42.6890 C   0  0  0  0  0  0  0  0  0  0  0  0
   45.5220   33.6370   43.8040 C   0  0  0  0  0  0  0  0  0  0  0  0
   45.1750   34.1810   44.9900 N   0  0  0  0  0  0  0  0  0  0  0  0
   44.7690   35.4550   45.1250 C   0  0  0  0  0  0  0  0  0  0  0  0
   44.6930   36.2400   44.0590 N   0  0  0  0  0  0  0  0  0  0  0  0
   48.2490   33.5680   38.7870 C   0  0  2  0  0  0  0  0  0  0  0  0
   48.3920   34.6240   37.6690 C   0  0  0  0  0  0  0  0  0  0  0  0
   48.1770   33.1340   37.3560 C   0  0  2  0  0  0  0  0  0  0  0  0
   46.8790   32.7690   36.7140 C   0  0  0  0  0  0  0  0  0  0  0  0
   46.3800   31.6500   37.3950 F   0  0  0  0  0  0  0  0  0  0  0  0
   45.9040   33.7450   36.8430 F   0  0  0  0  0  0  0  0  0  0  0  0
   47.0230   32.3540   35.4040 F   0  0  0  0  0  0  0  0  0  0  0  0
   43.8906   33.4139   40.4166 H   0  0  0  0  0  0  0  0  0  0  0  0
   44.9496   36.4518   41.9809 H   0  0  0  0  0  0  0  0  0  0  0  0
   45.8518   32.5901   43.7317 H   0  0  0  0  0  0  0  0  0  0  0  0
   44.5003   35.8457   46.1176 H   0  0  0  0  0  0  0  0  0  0  0  0
   48.8486   33.2303   39.6452 H   0  0  0  0  0  0  0  0  0  0  0  0
   47.5873   35.3514   37.4862 H   0  0  0  0  0  0  0  0  0  0  0  0
   49.1348   35.3880   37.3961 H   0  0  0  0  0  0  0  0  0  0  0  0
   48.7035   32.3499   36.7922 H   0  0  0  0  0  0  0  0  0  0  0  0
  1  7  1  0
  2  1  1  0
  3  4  1  0
  3  2  2  0
  4  5  2  0
  5  1  1  0
  6 11  2  0
  7  6  1  0
  7  8  2  0
  8  9  1  0
  9 10  2  0
 11 10  1  0
 12  4  1  0
 13 12  1  0
 14 13  1  0
 14 12  1  0
 15 17  1  0
 15 14  1  0
 15 16  1  0
 18 15  1  0
  2 19  1  0
  6 20  1  0
  8 21  1  0
 10 22  1  0
 12 23  1  1
 13 24  1  0
 13 25  1  0
 14 26  1  6
M  ISO  8  19  14  20  14  21  14  22  14  23  13  24  13  25  13  26  13
M  END
>  <minimizedAffinity>  (1) 
-4.35714865

>  <minimizedRMSD>  (1) 
0.349921018

$$$$
