
     RDKit          3D

 22 23  0  0  0  0  0  0  0  0999 V2000
   44.4860   36.1290   44.7660 C   0  0  0  0  0  0  0  0  0  0  0  0
   45.1460   36.0490   43.5150 C   0  0  0  0  0  0  0  0  0  0  0  0
   45.9390   34.9340   43.2550 C   0  0  0  0  0  0  0  0  0  0  0  0
   46.0420   33.9840   44.2080 N   0  0  0  0  0  0  0  0  0  0  0  0
   45.3950   34.0970   45.3950 C   0  0  0  0  0  0  0  0  0  0  0  0
   44.6260   35.1480   45.6830 N   0  0  0  0  0  0  0  0  0  0  0  0
   45.5550   33.0740   46.3230 N   0  0  0  0  0  0  0  0  0  0  0  0
   46.6570   34.7420   42.0210 C   0  0  0  0  0  0  0  0  0  0  0  0
   47.8830   35.3570   41.8820 C   0  0  0  0  0  0  0  0  0  0  0  0
   48.6640   35.2420   40.7340 C   0  0  0  0  0  0  0  0  0  0  0  0
   48.1780   34.4700   39.6850 C   0  0  0  0  0  0  0  0  0  0  0  0
   46.9460   33.8420   39.8040 C   0  0  0  0  0  0  0  0  0  0  0  0
   46.2100   33.9860   40.9620 C   0  0  0  0  0  0  0  0  0  0  0  0
   43.8528   36.9995   44.9926 H   0  0  0  0  0  0  0  0  0  0  0  0
   45.0348   36.8481   42.7672 H   0  0  0  0  0  0  0  0  0  0  0  0
   45.0786   33.1265   47.2347 H   0  0  0  0  0  0  0  0  0  0  0  0
   46.1499   32.2637   46.0988 H   0  0  0  0  0  0  0  0  0  0  0  0
   48.2620   35.9664   42.7157 H   0  0  0  0  0  0  0  0  0  0  0  0
   49.6379   35.7479   40.6597 H   0  0  0  0  0  0  0  0  0  0  0  0
   48.7680   34.3572   38.7635 H   0  0  0  0  0  0  0  0  0  0  0  0
   46.5571   33.2305   38.9765 H   0  0  0  0  0  0  0  0  0  0  0  0
   45.2360   33.4809   41.0410 H   0  0  0  0  0  0  0  0  0  0  0  0
  1  6  2  0
  2  1  1  0
  3  2  2  0
  3  4  1  0
  4  5  2  0
  5  6  1  0
  5  7  1  0
  8  3  1  0
  9  8  2  0
 10  9  1  0
 11 12  1  0
 11 10  2  0
 12 13  2  0
 13  8  1  0
  1 14  1  0
  2 15  1  0
  7 16  1  0
  7 17  1  0
  9 18  1  0
 10 19  1  0
 11 20  1  0
 12 21  1  0
 13 22  1  0
M  ISO  7  14  14  15  14  18  14  19  14  20  14  21  14  22  14
M  END
>  <minimizedAffinity>  (1) 
-5.40548182

>  <minimizedRMSD>  (1) 
1.33442378

$$$$
