
     RDKit          3D

 25 26  0  0  0  0  0  0  0  0999 V2000
   44.4580   36.2780   44.7160 C   0  0  0  0  0  0  0  0  0  0  0  0
   45.0140   36.0320   43.4450 C   0  0  0  0  0  0  0  0  0  0  0  0
   45.7340   34.8600   43.2260 C   0  0  0  0  0  0  0  0  0  0  0  0
   45.8610   34.0070   44.2620 N   0  0  0  0  0  0  0  0  0  0  0  0
   45.3190   34.2590   45.4790 C   0  0  0  0  0  0  0  0  0  0  0  0
   44.6170   35.3820   45.7280 N   0  0  0  0  0  0  0  0  0  0  0  0
   45.5050   33.3170   46.4860 N   0  0  0  0  0  0  0  0  0  0  0  0
   47.6220   33.9670   39.5760 C   0  0  0  0  0  0  0  0  0  0  0  0
   48.2770   34.7320   40.5230 C   0  0  0  0  0  0  0  0  0  0  0  0
   47.6130   35.0060   41.7240 C   0  0  0  0  0  0  0  0  0  0  0  0
   46.3440   34.5230   41.9470 C   0  0  0  0  0  0  0  0  0  0  0  0
   45.7330   33.7760   40.9930 C   0  0  0  0  0  0  0  0  0  0  0  0
   46.3480   33.4790   39.7930 C   0  0  0  0  0  0  0  0  0  0  0  0
   48.4540   33.6210   38.0660 S   0  0  0  0  0  0  0  0  0  0  0  0
   48.2980   34.7850   37.1210 O   0  0  0  0  0  0  0  0  0  0  0  0
   47.8760   32.3650   37.4570 O   0  0  0  0  0  0  0  0  0  0  0  0
   43.8898   37.2033   44.8921 H   0  0  0  0  0  0  0  0  0  0  0  0
   44.8804   36.7603   42.6315 H   0  0  0  0  0  0  0  0  0  0  0  0
   45.1062   33.4781   47.4219 H   0  0  0  0  0  0  0  0  0  0  0  0
   46.0415   32.4586   46.2955 H   0  0  0  0  0  0  0  0  0  0  0  0
   49.2916   35.1146   40.3377 H   0  0  0  0  0  0  0  0  0  0  0  0
   48.1095   35.6123   42.4959 H   0  0  0  0  0  0  0  0  0  0  0  0
   44.7180   33.3960   41.1812 H   0  0  0  0  0  0  0  0  0  0  0  0
   45.8379   32.8710   39.0313 H   0  0  0  0  0  0  0  0  0  0  0  0
   49.7894   33.4294   38.3045 H   0  0  0  0  0  0  0  0  0  0  0  0
  1  6  2  0
  2  1  1  0
  3  2  2  0
  3  4  1  0
  4  5  2  0
  5  6  1  0
  5  7  1  0
  8 13  2  0
  8  9  1  0
  9 10  2  0
 10 11  1  0
 11  3  1  0
 12 11  2  0
 13 12  1  0
 14  8  1  0
 15 14  2  0
 16 14  2  0
  1 17  1  0
  2 18  1  0
  7 19  1  0
  7 20  1  0
  9 21  1  0
 10 22  1  0
 12 23  1  0
 13 24  1  0
 14 25  1  0
M  ISO  7  17  14  18  14  21  14  22  14  23  14  24  14  25  11
M  END
>  <minimizedAffinity>  (1) 
-5.42830038

>  <minimizedRMSD>  (1) 
1.69213879

$$$$
