
     RDKit          3D

 18 19  0  0  0  0  0  0  0  0999 V2000
   44.4120   36.1650   44.6260 C   0  0  0  0  0  0  0  0  0  0  0  0
   45.1760   36.0590   43.4560 C   0  0  0  0  0  0  0  0  0  0  0  0
   46.0780   35.0100   43.3050 C   0  0  0  0  0  0  0  0  0  0  0  0
   46.1490   34.1440   44.3350 N   0  0  0  0  0  0  0  0  0  0  0  0
   45.4200   34.2490   45.4470 C   0  0  0  0  0  0  0  0  0  0  0  0
   44.5520   35.2490   45.6030 N   0  0  0  0  0  0  0  0  0  0  0  0
   45.5890   33.2760   46.4500 N   0  0  0  0  0  0  0  0  0  0  0  0
   46.9120   34.8470   42.0960 C   0  0  0  0  0  0  0  0  0  0  0  0
   46.4900   34.0360   41.0920 C   0  0  0  0  0  0  0  0  0  0  0  0
   47.8630   34.1590   39.8160 S   0  0  0  0  0  0  0  0  0  0  0  0
   48.7800   35.3520   40.9760 C   0  0  0  0  0  0  0  0  0  0  0  0
   48.0710   35.4030   41.8410 N   0  0  0  0  0  0  0  0  0  0  0  0
   43.6996   36.9945   44.7460 H   0  0  0  0  0  0  0  0  0  0  0  0
   45.0626   36.8056   42.6562 H   0  0  0  0  0  0  0  0  0  0  0  0
   45.0395   33.3317   47.3194 H   0  0  0  0  0  0  0  0  0  0  0  0
   46.2622   32.5083   46.3146 H   0  0  0  0  0  0  0  0  0  0  0  0
   45.5630   33.4462   41.0385 H   0  0  0  0  0  0  0  0  0  0  0  0
   49.7472   35.8568   40.8355 H   0  0  0  0  0  0  0  0  0  0  0  0
  1  6  2  0
  2  1  1  0
  3  2  2  0
  3  4  1  0
  4  5  2  0
  5  6  1  0
  5  7  1  0
  8  3  1  0
  9  8  2  0
 10 11  1  0
 10  9  1  0
 11 12  2  0
 12  8  1  0
  1 13  1  0
  2 14  1  0
  7 15  1  0
  7 16  1  0
  9 17  1  0
 11 18  1  0
M  ISO  4  13  14  14  14  17  14  18  14
M  END
>  <minimizedAffinity>  (1) 
-4.47662449

>  <minimizedRMSD>  (1) 
1.51402438

$$$$
