
     RDKit          3D

 32 34  0  0  1  0  0  0  0  0999 V2000
   45.8130   34.1200   41.6490 N   0  0  0  0  0  0  0  0  0  0  0  0
   45.0560   33.6820   40.6070 C   0  0  0  0  0  0  0  0  0  0  0  0
   45.8280   33.4930   39.5270 N   0  0  0  0  0  0  0  0  0  0  0  0
   47.0920   33.8180   39.9010 C   0  0  0  0  0  0  0  0  0  0  0  0
   47.0390   34.1890   41.1840 N   0  0  0  0  0  0  0  0  0  0  0  0
   44.8730   35.7360   43.1740 C   0  0  0  0  0  0  0  0  0  0  0  0
   45.4640   34.4570   42.9800 C   0  0  0  0  0  0  0  0  0  0  0  0
   45.6480   33.6580   44.0840 C   0  0  0  0  0  0  0  0  0  0  0  0
   45.2530   34.1450   45.2890 N   0  0  0  0  0  0  0  0  0  0  0  0
   44.7020   35.3470   45.4470 C   0  0  0  0  0  0  0  0  0  0  0  0
   44.5120   36.1450   44.3810 N   0  0  0  0  0  0  0  0  0  0  0  0
   48.3570   33.8020   39.1030 C   0  0  2  0  0  0  0  0  0  0  0  0
   48.3200   34.5500   37.7550 C   0  0  0  0  0  0  0  0  0  0  0  0
   48.3980   33.0160   37.8240 C   0  0  1  0  0  0  0  0  0  0  0  0
   49.7080   32.3410   37.5160 C   0  0  0  0  0  0  0  0  0  0  0  0
   49.6120   31.4610   36.2920 C   0  0  0  0  0  0  0  0  0  0  0  0
   50.0260   31.4720   38.7380 C   0  0  0  0  0  0  0  0  0  0  0  0
   43.9704   33.5084   40.6448 H   0  0  0  0  0  0  0  0  0  0  0  0
   44.7132   36.3957   42.3084 H   0  0  0  0  0  0  0  0  0  0  0  0
   46.0995   32.6589   43.9944 H   0  0  0  0  0  0  0  0  0  0  0  0
   44.4023   35.6873   46.4492 H   0  0  0  0  0  0  0  0  0  0  0  0
   48.9916   33.8228   40.0012 H   0  0  0  0  0  0  0  0  0  0  0  0
   49.1898   35.1350   37.4214 H   0  0  0  0  0  0  0  0  0  0  0  0
   47.6523   35.2837   37.2799 H   0  0  0  0  0  0  0  0  0  0  0  0
   47.8025   32.2095   37.3713 H   0  0  0  0  0  0  0  0  0  0  0  0
   50.4855   33.0916   37.3110 H   0  0  0  0  0  0  0  0  0  0  0  0
   49.4976   30.4120   36.6027 H   0  0  0  0  0  0  0  0  0  0  0  0
   48.7414   31.7625   35.6910 H   0  0  0  0  0  0  0  0  0  0  0  0
   50.5271   31.5677   35.6910 H   0  0  0  0  0  0  0  0  0  0  0  0
   49.8179   32.0406   39.6564 H   0  0  0  0  0  0  0  0  0  0  0  0
   49.4007   30.5673   38.7173 H   0  0  0  0  0  0  0  0  0  0  0  0
   51.0876   31.1846   38.7173 H   0  0  0  0  0  0  0  0  0  0  0  0
  1  7  1  0
  2  1  1  0
  3  4  1  0
  3  2  2  0
  4  5  2  0
  5  1  1  0
  6 11  2  0
  7  6  1  0
  7  8  2  0
  8  9  1  0
  9 10  2  0
 11 10  1  0
 12  4  1  0
 13 14  1  0
 13 12  1  0
 14 12  1  0
 15 14  1  0
 15 17  1  0
 16 15  1  0
  2 18  1  0
  6 19  1  0
  8 20  1  0
 10 21  1  0
 12 22  1  1
 13 23  1  0
 13 24  1  0
 14 25  1  6
 15 26  1  0
 16 27  1  0
 16 28  1  0
 16 29  1  0
 17 30  1  0
 17 31  1  0
 17 32  1  0
M  ISO  8  18  14  19  14  20  14  21  14  22  13  23  13  24  13  25  13
M  ISO  7  26   8  27   8  28   8  29   8  30   8  31   8  32   8
M  END
>  <minimizedAffinity>  (1) 
-4.22535467

>  <minimizedRMSD>  (1) 
0.639562368

$$$$
