
     RDKit          3D

 19 19  0  0  0  0  0  0  0  0999 V2000
   44.6050   36.1310   44.4830 C   0  0  0  0  0  0  0  0  0  0  0  0
   45.3470   36.0850   43.2940 C   0  0  0  0  0  0  0  0  0  0  0  0
   46.1700   34.9870   43.0550 C   0  0  0  0  0  0  0  0  0  0  0  0
   46.2000   34.0240   44.0010 N   0  0  0  0  0  0  0  0  0  0  0  0
   45.4850   34.0850   45.1290 C   0  0  0  0  0  0  0  0  0  0  0  0
   44.6820   35.1350   45.3830 N   0  0  0  0  0  0  0  0  0  0  0  0
   45.5790   33.0430   46.0480 N   0  0  0  0  0  0  0  0  0  0  0  0
   46.9680   34.8480   41.8690 N   0  0  0  0  0  0  0  0  0  0  0  0
   48.4020   35.0080   41.9170 C   0  0  0  0  0  0  0  0  0  0  0  0
   48.9010   34.6510   43.0540 N   0  0  0  0  0  0  0  0  0  0  0  0
   48.9760   35.5290   40.7010 N   0  0  0  0  0  0  0  0  0  0  0  0
   49.9250   34.7370   43.1680 H   0  0  0  0  0  0  0  0  0  0  0  0
   43.9514   36.9931   44.6820 H   0  0  0  0  0  0  0  0  0  0  0  0
   45.2802   36.9031   42.5617 H   0  0  0  0  0  0  0  0  0  0  0  0
   45.0342   33.0760   46.9215 H   0  0  0  0  0  0  0  0  0  0  0  0
   46.1934   32.2393   45.8543 H   0  0  0  0  0  0  0  0  0  0  0  0
   46.5109   34.6312   40.9718 H   0  0  0  0  0  0  0  0  0  0  0  0
   49.9928   35.6796   40.6347 H   0  0  0  0  0  0  0  0  0  0  0  0
   48.3692   35.7506   39.8988 H   0  0  0  0  0  0  0  0  0  0  0  0
  1  6  2  0
  2  1  1  0
  3  2  2  0
  3  4  1  0
  4  5  2  0
  5  6  1  0
  5  7  1  0
  8  9  1  0
  8  3  1  0
  9 10  2  0
 10 12  1  0
 11  9  1  0
  1 13  1  0
  2 14  1  0
  7 15  1  0
  7 16  1  0
  8 17  1  0
 11 18  1  0
 11 19  1  0
M  ISO  2  13  14  14  14
M  END
>  <minimizedAffinity>  (1) 
-4.69261599

>  <minimizedRMSD>  (1) 
1.18161404

$$$$
