
     RDKit          3D

 29 31  0  0  0  0  0  0  0  0999 V2000
   47.5210   33.1850   43.7120 C   0  0  0  0  0  0  0  0  0  0  0  0
   47.3310   31.9920   44.0840 O   0  0  0  0  0  0  0  0  0  0  0  0
   45.0900   36.0200   43.2420 C   0  0  0  0  0  0  0  0  0  0  0  0
   46.1200   35.0960   42.9530 C   0  0  0  0  0  0  0  0  0  0  0  0
   46.4700   34.1650   43.9410 C   0  0  0  0  0  0  0  0  0  0  0  0
   45.8020   34.1970   45.1260 N   0  0  0  0  0  0  0  0  0  0  0  0
   44.8300   35.0990   45.3470 C   0  0  0  0  0  0  0  0  0  0  0  0
   44.4580   36.0140   44.4300 N   0  0  0  0  0  0  0  0  0  0  0  0
   44.1850   35.0820   46.5810 N   0  0  0  0  0  0  0  0  0  0  0  0
   48.6790   33.5640   43.1070 O   0  0  0  0  0  0  0  0  0  0  0  0
   49.0860   32.8560   41.9630 C   0  0  0  0  0  0  0  0  0  0  0  0
   49.8580   31.6880   42.0020 C   0  0  0  0  0  0  0  0  0  0  0  0
   50.0640   31.2760   40.7490 N   0  0  0  0  0  0  0  0  0  0  0  0
   49.4670   32.1140   39.8830 C   0  0  0  0  0  0  0  0  0  0  0  0
   49.3410   32.1920   38.4960 C   0  0  0  0  0  0  0  0  0  0  0  0
   48.6260   33.2320   37.9320 C   0  0  0  0  0  0  0  0  0  0  0  0
   48.0180   34.2140   38.7060 C   0  0  0  0  0  0  0  0  0  0  0  0
   48.1390   34.1420   40.0790 C   0  0  0  0  0  0  0  0  0  0  0  0
   48.8550   33.1000   40.6250 C   0  0  0  0  0  0  0  0  0  0  0  0
   44.7993   36.7587   42.4805 H   0  0  0  0  0  0  0  0  0  0  0  0
   46.6327   35.1072   41.9798 H   0  0  0  0  0  0  0  0  0  0  0  0
   43.4362   35.7606   46.7801 H   0  0  0  0  0  0  0  0  0  0  0  0
   44.4568   34.3908   47.2947 H   0  0  0  0  0  0  0  0  0  0  0  0
   50.2313   31.1939   42.9111 H   0  0  0  0  0  0  0  0  0  0  0  0
   50.6018   30.4384   40.4841 H   0  0  0  0  0  0  0  0  0  0  0  0
   49.8080   31.4301   37.8546 H   0  0  0  0  0  0  0  0  0  0  0  0
   48.5353   33.2843   36.8370 H   0  0  0  0  0  0  0  0  0  0  0  0
   47.4525   35.0310   38.2341 H   0  0  0  0  0  0  0  0  0  0  0  0
   47.6730   34.9015   40.7240 H   0  0  0  0  0  0  0  0  0  0  0  0
  1  5  1  0
  1  2  2  0
  3  8  2  0
  4  3  1  0
  4  5  2  0
  5  6  1  0
  6  7  2  0
  7  9  1  0
  8  7  1  0
 10  1  1  0
 11 12  2  0
 11 10  1  0
 13 12  1  0
 14 19  2  0
 14 13  1  0
 15 14  1  0
 16 15  2  0
 16 17  1  0
 17 18  2  0
 18 19  1  0
 19 11  1  0
  3 20  1  0
  4 21  1  0
  9 22  1  0
  9 23  1  0
 12 24  1  0
 13 25  1  0
 15 26  1  0
 16 27  1  0
 17 28  1  0
 18 29  1  0
M  ISO  8  20  14  21  14  24  14  25   9  26  14  27  14  28  14  29  14
M  END
>  <minimizedAffinity>  (1) 
-5.52865076

>  <minimizedRMSD>  (1) 
2.14803076

$$$$
