
     RDKit          3D

 26 28  0  0  0  0  0  0  0  0999 V2000
   46.9690   33.6390   41.7720 C   0  0  0  0  0  0  0  0  0  0  0  0
   47.9160   34.2370   42.3970 O   0  0  0  0  0  0  0  0  0  0  0  0
   46.1460   32.9710   38.1650 C   0  0  0  0  0  0  0  0  0  0  0  0
   46.0430   32.9550   39.5710 C   0  0  0  0  0  0  0  0  0  0  0  0
   47.0160   33.6180   40.3200 C   0  0  0  0  0  0  0  0  0  0  0  0
   47.9960   34.2330   39.6420 N   0  0  0  0  0  0  0  0  0  0  0  0
   48.0850   34.2430   38.3090 C   0  0  0  0  0  0  0  0  0  0  0  0
   47.1550   33.6070   37.5460 N   0  0  0  0  0  0  0  0  0  0  0  0
   49.1430   34.9120   37.6870 N   0  0  0  0  0  0  0  0  0  0  0  0
   45.9250   33.0270   42.4240 O   0  0  0  0  0  0  0  0  0  0  0  0
   44.5920   35.4280   46.1560 N   0  0  0  0  0  0  0  0  0  0  0  0
   44.3340   36.0940   45.0130 C   0  0  0  0  0  0  0  0  0  0  0  0
   44.7430   35.3500   43.9520 N   0  0  0  0  0  0  0  0  0  0  0  0
   45.2600   34.2050   44.4660 C   0  0  0  0  0  0  0  0  0  0  0  0
   45.8120   33.1170   43.8190 C   0  0  0  0  0  0  0  0  0  0  0  0
   46.2580   32.0930   44.6040 N   0  0  0  0  0  0  0  0  0  0  0  0
   46.1630   32.1480   45.9450 C   0  0  0  0  0  0  0  0  0  0  0  0
   45.6310   33.1960   46.6070 N   0  0  0  0  0  0  0  0  0  0  0  0
   45.1750   34.2370   45.8560 C   0  0  0  0  0  0  0  0  0  0  0  0
   45.3853   32.4526   37.5628 H   0  0  0  0  0  0  0  0  0  0  0  0
   45.2129   32.4308   40.0672 H   0  0  0  0  0  0  0  0  0  0  0  0
   49.2136   34.9210   36.6595 H   0  0  0  0  0  0  0  0  0  0  0  0
   49.8520   35.3960   38.2562 H   0  0  0  0  0  0  0  0  0  0  0  0
   44.3811   35.7673   47.1054 H   0  0  0  0  0  0  0  0  0  0  0  0
   43.8647   37.0868   44.9489 H   0  0  0  0  0  0  0  0  0  0  0  0
   46.5379   31.2958   46.5308 H   0  0  0  0  0  0  0  0  0  0  0  0
  1  2  2  0
  1 10  1  0
  3  4  2  0
  4  5  1  0
  5  1  1  0
  6  5  2  0
  7  6  1  0
  8  3  1  0
  8  7  2  0
  9  7  1  0
 10 15  1  0
 12 11  1  0
 13 14  1  0
 13 12  2  0
 14 19  2  0
 15 14  1  0
 15 16  2  0
 16 17  1  0
 17 18  2  0
 19 11  1  0
 19 18  1  0
  3 20  1  0
  4 21  1  0
  9 22  1  0
  9 23  1  0
 11 24  1  0
 12 25  1  0
 17 26  1  0
M  ISO  5  20  14  21  14  24   9  25  14  26  14
M  END
>  <minimizedAffinity>  (1) 
-5.26401377

>  <minimizedRMSD>  (1) 
6.77066565

$$$$
