
     RDKit          3D

 25 26  0  0  0  0  0  0  0  0999 V2000
   47.5980   33.4820   43.3640 C   0  0  0  0  0  0  0  0  0  0  0  0
   47.6370   32.2780   43.8000 O   0  0  0  0  0  0  0  0  0  0  0  0
   44.9020   36.1110   43.4300 C   0  0  0  0  0  0  0  0  0  0  0  0
   45.9800   35.3290   42.9680 C   0  0  0  0  0  0  0  0  0  0  0  0
   46.4820   34.3180   43.8010 C   0  0  0  0  0  0  0  0  0  0  0  0
   45.8920   34.1580   45.0060 N   0  0  0  0  0  0  0  0  0  0  0  0
   44.8730   34.9170   45.4120 C   0  0  0  0  0  0  0  0  0  0  0  0
   44.3590   35.9000   44.6440 N   0  0  0  0  0  0  0  0  0  0  0  0
   44.3180   34.6920   46.6660 N   0  0  0  0  0  0  0  0  0  0  0  0
   48.5540   33.9940   42.5200 O   0  0  0  0  0  0  0  0  0  0  0  0
   48.5770   33.6690   41.1550 C   0  0  0  0  0  0  0  0  0  0  0  0
   48.1160   34.5590   40.1970 C   0  0  0  0  0  0  0  0  0  0  0  0
   48.1370   34.2450   38.8540 C   0  0  0  0  0  0  0  0  0  0  0  0
   48.6120   33.0440   38.4120 C   0  0  0  0  0  0  0  0  0  0  0  0
   49.0800   32.1360   39.3590 C   0  0  0  0  0  0  0  0  0  0  0  0
   49.0540   32.4570   40.6950 C   0  0  0  0  0  0  0  0  0  0  0  0
   44.4975   36.9072   42.7878 H   0  0  0  0  0  0  0  0  0  0  0  0
   46.4184   35.5078   41.9751 H   0  0  0  0  0  0  0  0  0  0  0  0
   43.5308   35.2706   46.9921 H   0  0  0  0  0  0  0  0  0  0  0  0
   44.6939   33.9466   47.2693 H   0  0  0  0  0  0  0  0  0  0  0  0
   47.7250   35.5368   40.5149 H   0  0  0  0  0  0  0  0  0  0  0  0
   47.7631   34.9778   38.1238 H   0  0  0  0  0  0  0  0  0  0  0  0
   48.6248   32.8004   37.3394 H   0  0  0  0  0  0  0  0  0  0  0  0
   49.4713   31.1598   39.0367 H   0  0  0  0  0  0  0  0  0  0  0  0
   49.4264   31.7224   41.4242 H   0  0  0  0  0  0  0  0  0  0  0  0
  1  2  2  0
  1  5  1  0
  3  8  2  0
  4  3  1  0
  4  5  2  0
  5  6  1  0
  6  7  2  0
  7  9  1  0
  8  7  1  0
 10  1  1  0
 11 10  1  0
 12 11  2  0
 13 12  1  0
 14 13  2  0
 14 15  1  0
 15 16  2  0
 16 11  1  0
  3 17  1  0
  4 18  1  0
  9 19  1  0
  9 20  1  0
 12 21  1  0
 13 22  1  0
 14 23  1  0
 15 24  1  0
 16 25  1  0
M  ISO  7  17  14  18  14  21  14  22  14  23  14  24  14  25  14
M  END
>  <minimizedAffinity>  (1) 
-5.05050135

>  <minimizedRMSD>  (1) 
1.36914432

$$$$
