
     RDKit          3D

 25 27  0  0  1  0  0  0  0  0999 V2000
   45.8030   34.1280   41.6800 N   0  0  0  0  0  0  0  0  0  0  0  0
   45.0280   33.7260   40.6190 C   0  0  0  0  0  0  0  0  0  0  0  0
   45.8040   33.5330   39.5420 N   0  0  0  0  0  0  0  0  0  0  0  0
   47.0760   33.8160   39.9280 C   0  0  0  0  0  0  0  0  0  0  0  0
   47.0370   34.1680   41.2150 N   0  0  0  0  0  0  0  0  0  0  0  0
   44.8410   35.7160   43.2100 C   0  0  0  0  0  0  0  0  0  0  0  0
   45.4600   34.4540   43.0090 C   0  0  0  0  0  0  0  0  0  0  0  0
   45.6760   33.6530   44.1070 C   0  0  0  0  0  0  0  0  0  0  0  0
   45.2770   34.1320   45.3230 N   0  0  0  0  0  0  0  0  0  0  0  0
   44.6990   35.3190   45.4860 C   0  0  0  0  0  0  0  0  0  0  0  0
   44.4840   36.1070   44.4290 N   0  0  0  0  0  0  0  0  0  0  0  0
   48.3380   33.7780   39.1320 C   0  0  2  0  0  0  0  0  0  0  0  0
   48.3130   34.5130   37.7760 C   0  0  0  0  0  0  0  0  0  0  0  0
   48.3920   32.9790   37.8640 C   0  0  1  0  0  0  0  0  0  0  0  0
   49.6280   32.3100   37.4210 C   0  0  0  0  0  0  0  0  0  0  0  0
   50.4270   31.8720   38.2480 O   0  0  0  0  0  0  0  0  0  0  0  0
   43.9376   33.5841   40.6483 H   0  0  0  0  0  0  0  0  0  0  0  0
   44.6554   36.3756   42.3495 H   0  0  0  0  0  0  0  0  0  0  0  0
   46.1513   32.6658   44.0096 H   0  0  0  0  0  0  0  0  0  0  0  0
   44.3983   35.6514   46.4905 H   0  0  0  0  0  0  0  0  0  0  0  0
   48.9645   33.8014   40.0358 H   0  0  0  0  0  0  0  0  0  0  0  0
   49.1853   35.0953   37.4444 H   0  0  0  0  0  0  0  0  0  0  0  0
   47.6494   35.2410   37.2865 H   0  0  0  0  0  0  0  0  0  0  0  0
   47.8016   32.1337   37.4808 H   0  0  0  0  0  0  0  0  0  0  0  0
   49.8373   32.2017   36.3465 H   0  0  0  0  0  0  0  0  0  0  0  0
  1  7  1  0
  2  1  1  0
  3  4  1  0
  3  2  2  0
  4  5  2  0
  5  1  1  0
  6 11  2  0
  7  6  1  0
  7  8  2  0
  8  9  1  0
  9 10  2  0
 11 10  1  0
 12  4  1  0
 13 14  1  0
 13 12  1  0
 14 12  1  0
 15 14  1  0
 15 16  2  0
  2 17  1  0
  6 18  1  0
  8 19  1  0
 10 20  1  0
 12 21  1  1
 13 22  1  0
 13 23  1  0
 14 24  1  6
 15 25  1  0
M  ISO  8  17  14  18  14  19  14  20  14  21  13  22  13  23  13  24  13
M  ISO  1  25   6
M  END
>  <minimizedAffinity>  (1) 
-4.09301853

>  <minimizedRMSD>  (1) 
0.482378453

$$$$
