
     RDKit          3D

 18 18  0  0  0  0  0  0  0  0999 V2000
   44.6470   36.1090   44.2930 C   0  0  0  0  0  0  0  0  0  0  0  0
   45.4640   35.6780   43.2240 C   0  0  0  0  0  0  0  0  0  0  0  0
   46.2100   34.5000   43.3980 C   0  0  0  0  0  0  0  0  0  0  0  0
   46.1070   33.8390   44.5810 N   0  0  0  0  0  0  0  0  0  0  0  0
   45.3120   34.2980   45.5630 C   0  0  0  0  0  0  0  0  0  0  0  0
   44.5800   35.4160   45.4500 N   0  0  0  0  0  0  0  0  0  0  0  0
   45.2460   33.5830   46.7500 N   0  0  0  0  0  0  0  0  0  0  0  0
   47.0740   33.9940   42.3410 C   0  0  0  0  0  0  0  0  0  0  0  0
   47.5320   32.8180   42.4350 O   0  0  0  0  0  0  0  0  0  0  0  0
   47.3750   34.7890   41.2710 O   0  0  0  0  0  0  0  0  0  0  0  0
   48.6640   35.3740   41.1770 C   0  0  0  0  0  0  0  0  0  0  0  0
   48.7830   36.4990   42.0040 F   0  0  0  0  0  0  0  0  0  0  0  0
   48.8370   35.7430   39.8560 F   0  0  0  0  0  0  0  0  0  0  0  0
   49.6540   34.4760   41.5440 F   0  0  0  0  0  0  0  0  0  0  0  0
   44.0532   37.0281   44.1805 H   0  0  0  0  0  0  0  0  0  0  0  0
   45.5146   36.2473   42.2841 H   0  0  0  0  0  0  0  0  0  0  0  0
   44.6442   33.9138   47.5177 H   0  0  0  0  0  0  0  0  0  0  0  0
   45.7988   32.7213   46.8636 H   0  0  0  0  0  0  0  0  0  0  0  0
  1  6  2  0
  2  3  2  0
  2  1  1  0
  3  4  1  0
  4  5  2  0
  5  7  1  0
  6  5  1  0
  8  9  2  0
  8  3  1  0
 10  8  1  0
 11 10  1  0
 11 14  1  0
 11 12  1  0
 13 11  1  0
  1 15  1  0
  2 16  1  0
  7 17  1  0
  7 18  1  0
M  ISO  2  15  14  16  14
M  END
>  <minimizedAffinity>  (1) 
-5.10938597

>  <minimizedRMSD>  (1) 
1.17325544

$$$$
