
     RDKit          3D

 22 23  0  0  0  0  0  0  0  0999 V2000
   44.7900   35.7880   44.1590 C   0  0  0  0  0  0  0  0  0  0  0  0
   45.8160   35.0490   43.5440 C   0  0  0  0  0  0  0  0  0  0  0  0
   46.4070   34.0000   44.2530 C   0  0  0  0  0  0  0  0  0  0  0  0
   45.9590   33.7480   45.5020 N   0  0  0  0  0  0  0  0  0  0  0  0
   44.9790   34.4670   46.0650 C   0  0  0  0  0  0  0  0  0  0  0  0
   44.3830   35.4890   45.4120 N   0  0  0  0  0  0  0  0  0  0  0  0
   44.5670   34.1500   47.3580 N   0  0  0  0  0  0  0  0  0  0  0  0
   47.4780   33.2040   43.6530 C   0  0  0  0  0  0  0  0  0  0  0  0
   47.4560   31.9390   43.8400 O   0  0  0  0  0  0  0  0  0  0  0  0
   48.4600   33.8260   42.9200 O   0  0  0  0  0  0  0  0  0  0  0  0
   48.4100   33.6800   41.5370 C   0  0  0  0  0  0  0  0  0  0  0  0
   48.2690   34.8740   40.8180 C   0  0  0  0  0  0  0  0  0  0  0  0
   48.2390   34.5240   39.4760 C   0  0  0  0  0  0  0  0  0  0  0  0
   48.3640   33.1470   39.4600 C   0  0  0  0  0  0  0  0  0  0  0  0
   48.4610   32.7030   40.6780 O   0  0  0  0  0  0  0  0  0  0  0  0
   44.3143   36.6173   43.6149 H   0  0  0  0  0  0  0  0  0  0  0  0
   46.1473   35.2922   42.5236 H   0  0  0  0  0  0  0  0  0  0  0  0
   43.8148   34.6923   47.8064 H   0  0  0  0  0  0  0  0  0  0  0  0
   45.0147   33.3734   47.8653 H   0  0  0  0  0  0  0  0  0  0  0  0
   48.1964   35.8891   41.2354 H   0  0  0  0  0  0  0  0  0  0  0  0
   48.1377   35.1965   38.6115 H   0  0  0  0  0  0  0  0  0  0  0  0
   48.3791   32.5224   38.5546 H   0  0  0  0  0  0  0  0  0  0  0  0
  1  6  2  0
  2  1  1  0
  2  3  2  0
  3  4  1  0
  4  5  2  0
  5  7  1  0
  6  5  1  0
  8  9  2  0
  8  3  1  0
 10  8  1  0
 11 10  1  0
 12 11  2  0
 13 12  1  0
 14 13  2  0
 14 15  1  0
 15 11  1  0
  1 16  1  0
  2 17  1  0
  7 18  1  0
  7 19  1  0
 12 20  1  0
 13 21  1  0
 14 22  1  0
M  ISO  5  16  14  17  14  20  14  21  14  22  14
M  END
>  <minimizedAffinity>  (1) 
-4.84715414

>  <minimizedRMSD>  (1) 
1.3990227

$$$$
