
     RDKit          3D

 24 26  0  0  1  0  0  0  0  0999 V2000
   45.7550   34.0910   41.5690 N   0  0  0  0  0  0  0  0  0  0  0  0
   44.9340   33.7320   40.5190 C   0  0  0  0  0  0  0  0  0  0  0  0
   45.6950   33.4960   39.4430 N   0  0  0  0  0  0  0  0  0  0  0  0
   46.9830   33.7070   39.8150 C   0  0  0  0  0  0  0  0  0  0  0  0
   46.9810   34.0630   41.1010 N   0  0  0  0  0  0  0  0  0  0  0  0
   44.8700   35.7290   43.1090 C   0  0  0  0  0  0  0  0  0  0  0  0
   45.4310   34.4380   42.9080 C   0  0  0  0  0  0  0  0  0  0  0  0
   45.6170   33.6300   44.0060 C   0  0  0  0  0  0  0  0  0  0  0  0
   45.2480   34.1280   45.2150 N   0  0  0  0  0  0  0  0  0  0  0  0
   44.7230   35.3410   45.3870 C   0  0  0  0  0  0  0  0  0  0  0  0
   44.5380   36.1350   44.3310 N   0  0  0  0  0  0  0  0  0  0  0  0
   48.2250   33.5970   39.0070 C   0  0  2  0  0  0  0  0  0  0  0  0
   48.3280   34.5070   37.7630 C   0  0  0  0  0  0  0  0  0  0  0  0
   48.1840   32.9820   37.6400 C   0  0  2  0  0  0  0  0  0  0  0  0
   46.5820   32.5020   36.9290 S   0  0  0  0  0  0  0  0  0  0  0  0
   43.8376   33.6530   40.5595 H   0  0  0  0  0  0  0  0  0  0  0  0
   44.7097   36.3956   42.2488 H   0  0  0  0  0  0  0  0  0  0  0  0
   46.0468   32.6221   43.9090 H   0  0  0  0  0  0  0  0  0  0  0  0
   44.4439   35.6854   46.3937 H   0  0  0  0  0  0  0  0  0  0  0  0
   48.8333   33.4038   39.9029 H   0  0  0  0  0  0  0  0  0  0  0  0
   47.4923   35.1672   37.4878 H   0  0  0  0  0  0  0  0  0  0  0  0
   49.0375   35.2636   37.3967 H   0  0  0  0  0  0  0  0  0  0  0  0
   48.7436   32.1444   37.1982 H   0  0  0  0  0  0  0  0  0  0  0  0
   45.6953   32.2363   37.9390 H   0  0  0  0  0  0  0  0  0  0  0  0
  1  7  1  0
  2  1  1  0
  3  4  1  0
  3  2  2  0
  4  5  2  0
  5  1  1  0
  6 11  2  0
  7  6  1  0
  7  8  2  0
  8  9  1  0
  9 10  2  0
 11 10  1  0
 12  4  1  0
 13 12  1  0
 14 13  1  0
 14 12  1  0
 15 14  1  0
  2 16  1  0
  6 17  1  0
  8 18  1  0
 10 19  1  0
 12 20  1  1
 13 21  1  0
 13 22  1  0
 14 23  1  1
 15 24  1  0
M  ISO  8  16  14  17  14  18  14  19  14  20  13  21  13  22  13  23  13
M  ISO  1  24  11
M  END
>  <minimizedAffinity>  (1) 
-4.06575537

>  <minimizedRMSD>  (1) 
0.0273587443

$$$$
