
     RDKit          3D

 38 40  0  0  1  0  0  0  0  0999 V2000
   47.7120   34.6730   42.1360 C   0  0  2  0  0  0  0  0  0  0  0  0
   48.4470   35.7950   42.1220 C   0  0  0  0  0  0  0  0  0  0  0  0
   49.7960   35.1040   42.1880 C   0  0  0  0  0  0  0  0  0  0  0  0
   49.6800   33.7390   41.5990 C   0  0  0  0  0  0  0  0  0  0  0  0
   48.1630   33.4990   41.4280 C   0  0  2  0  0  0  0  0  0  0  0  0
   47.9310   33.4310   40.0010 N   0  0  0  0  0  0  0  0  0  0  0  0
   48.2720   34.3170   39.0770 C   0  0  0  0  0  0  0  0  0  0  0  0
   47.9730   34.0990   37.7470 C   0  0  0  0  0  0  0  0  0  0  0  0
   47.3120   32.9560   37.3350 C   0  0  0  0  0  0  0  0  0  0  0  0
   47.0400   32.7570   36.1270 O   0  0  0  0  0  0  0  0  0  0  0  0
   46.9890   32.0900   38.3130 N   0  0  0  0  0  0  0  0  0  0  0  0
   47.2780   32.2980   39.6120 C   0  0  0  0  0  0  0  0  0  0  0  0
   46.9120   31.3950   40.4170 O   0  0  0  0  0  0  0  0  0  0  0  0
   46.3560   34.8400   41.8140 O   0  0  0  0  0  0  0  0  0  0  0  0
   45.8090   35.2390   42.9680 C   0  0  0  0  0  0  0  0  0  0  0  0
   45.2800   36.3730   42.9490 O   0  0  0  0  0  0  0  0  0  0  0  0
   46.7130   32.6360   45.4690 C   0  0  0  0  0  0  0  0  0  0  0  0
   46.6670   33.3860   44.2720 C   0  0  0  0  0  0  0  0  0  0  0  0
   45.8080   34.4580   44.1700 C   0  0  0  0  0  0  0  0  0  0  0  0
   45.0460   34.7460   45.2090 N   0  0  0  0  0  0  0  0  0  0  0  0
   45.0870   34.0290   46.3540 C   0  0  0  0  0  0  0  0  0  0  0  0
   45.9040   32.9830   46.5040 N   0  0  0  0  0  0  0  0  0  0  0  0
   44.2380   34.4020   47.4000 N   0  0  0  0  0  0  0  0  0  0  0  0
   47.8666   34.4652   43.2051 H   0  0  0  0  0  0  0  0  0  0  0  0
   48.3135   36.3786   41.1992 H   0  0  0  0  0  0  0  0  0  0  0  0
   48.2301   36.5458   42.8961 H   0  0  0  0  0  0  0  0  0  0  0  0
   50.5358   35.6875   41.6204 H   0  0  0  0  0  0  0  0  0  0  0  0
   50.1194   35.0266   43.2365 H   0  0  0  0  0  0  0  0  0  0  0  0
   50.1897   33.6945   40.6253 H   0  0  0  0  0  0  0  0  0  0  0  0
   50.1478   32.9748   42.2371 H   0  0  0  0  0  0  0  0  0  0  0  0
   47.6637   32.5945   41.8055 H   0  0  0  0  0  0  0  0  0  0  0  0
   48.7990   35.2362   39.3727 H   0  0  0  0  0  0  0  0  0  0  0  0
   48.2667   34.8502   36.9991 H   0  0  0  0  0  0  0  0  0  0  0  0
   46.4954   31.2236   38.0550 H   0  0  0  0  0  0  0  0  0  0  0  0
   47.3971   31.7796   45.5618 H   0  0  0  0  0  0  0  0  0  0  0  0
   47.3146   33.1148   43.4252 H   0  0  0  0  0  0  0  0  0  0  0  0
   44.2475   33.8739   48.2843 H   0  0  0  0  0  0  0  0  0  0  0  0
   43.6029   35.2049   47.2864 H   0  0  0  0  0  0  0  0  0  0  0  0
  2  1  1  0
  2  3  1  0
  4  3  1  0
  5  4  1  0
  5  1  1  0
  6  5  1  0
  7  6  1  0
  8  7  2  0
  9  8  1  0
  9 11  1  0
 10  9  2  0
 11 12  1  0
 12  6  1  0
 12 13  2  0
 14  1  1  0
 14 15  1  0
 15 19  1  0
 16 15  2  0
 17 22  2  0
 18 17  1  0
 19 18  2  0
 19 20  1  0
 20 21  2  0
 21 22  1  0
 21 23  1  0
  1 24  1  1
  2 25  1  0
  2 26  1  0
  3 27  1  0
  3 28  1  0
  4 29  1  0
  4 30  1  0
  5 31  1  1
  7 32  1  0
  8 33  1  0
 11 34  1  0
 17 35  1  0
 18 36  1  0
 23 37  1  0
 23 38  1  0
M  ISO  8  24  13  25  13  26  13  27  13  28  13  29  13  30  13  31  13
M  ISO  5  32  14  33  14  34   9  35  14  36  14
M  END
>  <minimizedAffinity>  (1) 
-5.90711308

>  <minimizedRMSD>  (1) 
3.98482347

$$$$
