
     RDKit          3D

 28 29  0  0  0  0  0  0  0  0999 V2000
   44.7070   36.1880   44.0510 C   0  0  0  0  0  0  0  0  0  0  0  0
   45.6640   35.3950   43.3810 C   0  0  0  0  0  0  0  0  0  0  0  0
   46.1760   34.2660   44.0150 C   0  0  0  0  0  0  0  0  0  0  0  0
   45.7170   34.0030   45.2450 N   0  0  0  0  0  0  0  0  0  0  0  0
   44.8030   34.7700   45.8710 C   0  0  0  0  0  0  0  0  0  0  0  0
   44.2880   35.8650   45.2920 N   0  0  0  0  0  0  0  0  0  0  0  0
   44.3890   34.4060   47.1570 N   0  0  0  0  0  0  0  0  0  0  0  0
   47.1640   33.4240   43.3570 C   0  0  0  0  0  0  0  0  0  0  0  0
   46.8550   32.2100   43.1570 O   0  0  0  0  0  0  0  0  0  0  0  0
   48.3770   33.9350   42.9740 O   0  0  0  0  0  0  0  0  0  0  0  0
   48.6950   33.9860   41.6040 C   0  0  0  0  0  0  0  0  0  0  0  0
   49.0880   32.6990   40.9800 C   0  0  0  0  0  0  0  0  0  0  0  0
   48.7110   32.8210   39.5170 C   0  0  0  0  0  0  0  0  0  0  0  0
   48.1100   34.1980   39.3540 C   0  0  0  0  0  0  0  0  0  0  0  0
   47.5690   34.5000   40.7570 C   0  0  0  0  0  0  0  0  0  0  0  0
   44.2979   37.0804   43.5548 H   0  0  0  0  0  0  0  0  0  0  0  0
   46.0012   35.6660   42.3697 H   0  0  0  0  0  0  0  0  0  0  0  0
   43.6913   34.9775   47.6545 H   0  0  0  0  0  0  0  0  0  0  0  0
   44.7819   33.5665   47.6062 H   0  0  0  0  0  0  0  0  0  0  0  0
   49.5587   34.6670   41.6185 H   0  0  0  0  0  0  0  0  0  0  0  0
   50.1709   32.5367   41.0848 H   0  0  0  0  0  0  0  0  0  0  0  0
   48.5861   31.8454   41.4590 H   0  0  0  0  0  0  0  0  0  0  0  0
   49.6034   32.7161   38.8825 H   0  0  0  0  0  0  0  0  0  0  0  0
   48.0027   32.0347   39.2170 H   0  0  0  0  0  0  0  0  0  0  0  0
   48.8743   34.9315   39.0575 H   0  0  0  0  0  0  0  0  0  0  0  0
   47.3400   34.2474   38.5700 H   0  0  0  0  0  0  0  0  0  0  0  0
   47.4084   35.5779   40.9064 H   0  0  0  0  0  0  0  0  0  0  0  0
   46.5896   34.0496   40.9761 H   0  0  0  0  0  0  0  0  0  0  0  0
  1  6  2  0
  2  3  2  0
  2  1  1  0
  3  4  1  0
  4  5  2  0
  5  7  1  0
  6  5  1  0
  8  3  1  0
  9  8  2  0
 10  8  1  0
 11 10  1  0
 12 11  1  0
 13 12  1  0
 14 13  1  0
 14 15  1  0
 15 11  1  0
  1 16  1  0
  2 17  1  0
  7 18  1  0
  7 19  1  0
 11 20  1  0
 12 21  1  0
 12 22  1  0
 13 23  1  0
 13 24  1  0
 14 25  1  0
 14 26  1  0
 15 27  1  0
 15 28  1  0
M  ISO  8  16  14  17  14  20  13  21  13  22  13  23  13  24  13  25  13
M  ISO  3  26  13  27  13  28  13
M  END
>  <minimizedAffinity>  (1) 
-4.73398733

>  <minimizedRMSD>  (1) 
1.14086092

$$$$
