
     RDKit          3D

 38 40  0  0  1  0  0  0  0  0999 V2000
   46.3700   33.8110   41.0670 C   0  0  2  0  0  0  0  0  0  0  0  0
   47.3960   32.9270   41.1300 C   0  0  0  0  0  0  0  0  0  0  0  0
   48.4630   33.9600   41.3960 C   0  0  0  0  0  0  0  0  0  0  0  0
   47.8600   35.2260   41.8900 C   0  0  0  0  0  0  0  0  0  0  0  0
   46.3170   34.9390   41.9270 C   0  0  2  0  0  0  0  0  0  0  0  0
   46.0270   34.6290   43.3330 C   0  0  0  0  0  0  0  0  0  0  0  0
   46.6110   33.6610   44.1210 C   0  0  0  0  0  0  0  0  0  0  0  0
   46.3430   33.3600   45.4170 C   0  0  0  0  0  0  0  0  0  0  0  0
   45.3710   34.0890   46.0690 C   0  0  0  0  0  0  0  0  0  0  0  0
   44.7180   35.0880   45.3780 C   0  0  0  0  0  0  0  0  0  0  0  0
   45.0560   35.3220   44.0630 C   0  0  0  0  0  0  0  0  0  0  0  0
   45.0970   33.2410   41.1390 O   0  0  0  0  0  0  0  0  0  0  0  0
   44.5090   33.6270   39.9930 C   0  0  0  0  0  0  0  0  0  0  0  0
   45.1090   33.3260   38.9430 O   0  0  0  0  0  0  0  0  0  0  0  0
   41.5200   35.5520   41.0320 C   0  0  0  0  0  0  0  0  0  0  0  0
   42.7250   34.8410   41.0700 C   0  0  0  0  0  0  0  0  0  0  0  0
   43.2760   34.3430   39.9130 C   0  0  0  0  0  0  0  0  0  0  0  0
   42.6300   34.5640   38.7810 N   0  0  0  0  0  0  0  0  0  0  0  0
   41.4640   35.2540   38.7470 C   0  0  0  0  0  0  0  0  0  0  0  0
   40.9040   35.7470   39.8590 N   0  0  0  0  0  0  0  0  0  0  0  0
   40.8780   35.4710   37.5060 N   0  0  0  0  0  0  0  0  0  0  0  0
   46.6421   34.1871   40.0697 H   0  0  0  0  0  0  0  0  0  0  0  0
   47.2870   32.2046   41.9523 H   0  0  0  0  0  0  0  0  0  0  0  0
   47.5420   32.2592   40.2682 H   0  0  0  0  0  0  0  0  0  0  0  0
   49.1594   33.5723   42.1541 H   0  0  0  0  0  0  0  0  0  0  0  0
   48.9963   34.1664   40.4563 H   0  0  0  0  0  0  0  0  0  0  0  0
   48.2345   35.4685   42.8955 H   0  0  0  0  0  0  0  0  0  0  0  0
   48.1101   36.0855   41.2507 H   0  0  0  0  0  0  0  0  0  0  0  0
   45.5684   35.6878   41.6287 H   0  0  0  0  0  0  0  0  0  0  0  0
   47.3930   33.0560   43.6388 H   0  0  0  0  0  0  0  0  0  0  0  0
   46.8869   32.5556   45.9337 H   0  0  0  0  0  0  0  0  0  0  0  0
   45.1214   33.8779   47.1193 H   0  0  0  0  0  0  0  0  0  0  0  0
   43.9388   35.6891   45.8695 H   0  0  0  0  0  0  0  0  0  0  0  0
   44.5143   36.1247   43.5412 H   0  0  0  0  0  0  0  0  0  0  0  0
   41.0817   35.9482   41.9599 H   0  0  0  0  0  0  0  0  0  0  0  0
   43.2343   34.6797   42.0315 H   0  0  0  0  0  0  0  0  0  0  0  0
   39.9916   35.9912   37.4389 H   0  0  0  0  0  0  0  0  0  0  0  0
   41.3300   35.1117   36.6531 H   0  0  0  0  0  0  0  0  0  0  0  0
  1  2  1  0
  1 12  1  0
  1  5  1  0
  2  3  1  0
  3  4  1  0
  4  5  1  0
  5  6  1  0
  6 11  1  0
  6  7  2  0
  7  8  1  0
  8  9  2  0
 10  9  1  0
 11 10  2  0
 13 12  1  0
 14 13  2  0
 15 16  2  0
 17 13  1  0
 17 16  1  0
 18 17  2  0
 19 18  1  0
 19 20  2  0
 20 15  1  0
 21 19  1  0
  1 22  1  6
  2 23  1  0
  2 24  1  0
  3 25  1  0
  3 26  1  0
  4 27  1  0
  4 28  1  0
  5 29  1  6
  7 30  1  0
  8 31  1  0
  9 32  1  0
 10 33  1  0
 11 34  1  0
 15 35  1  0
 16 36  1  0
 21 37  1  0
 21 38  1  0
M  ISO  8  22  13  23  13  24  13  25  13  26  13  27  13  28  13  29  13
M  ISO  7  30  14  31  14  32  14  33  14  34  14  35  14  36  14
M  END
>  <minimizedAffinity>  (1) 
-5.70081139

>  <minimizedRMSD>  (1) 
5.45162201

$$$$
