
     RDKit          3D

 41 43  0  0  1  0  0  0  0  0999 V2000
   46.8310   33.0110   41.2470 C   0  0  2  0  0  0  0  0  0  0  0  0
   47.7230   32.2350   40.5970 C   0  0  0  0  0  0  0  0  0  0  0  0
   46.7940   31.9180   39.4390 C   0  0  0  0  0  0  0  0  0  0  0  0
   46.0530   33.2020   39.1580 C   0  0  0  0  0  0  0  0  0  0  0  0
   45.9090   33.8620   40.5300 C   0  0  1  0  0  0  0  0  0  0  0  0
   41.6250   34.0040   41.0500 C   0  0  0  0  0  0  0  0  0  0  0  0
   42.2850   32.8120   41.2590 C   0  0  0  0  0  0  0  0  0  0  0  0
   43.6500   32.7230   41.1130 C   0  0  0  0  0  0  0  0  0  0  0  0
   44.4480   33.7500   40.7660 C   0  0  0  0  0  0  0  0  0  0  0  0
   43.7490   34.9520   40.5610 C   0  0  0  0  0  0  0  0  0  0  0  0
   42.4050   35.0780   40.6950 C   0  0  0  0  0  0  0  0  0  0  0  0
   39.9040   34.1190   41.2340 S   0  0  0  0  0  0  0  0  0  0  0  0
   39.2470   34.8060   40.0650 O   0  0  0  0  0  0  0  0  0  0  0  0
   39.3440   32.7360   41.3670 O   0  0  0  0  0  0  0  0  0  0  0  0
   47.4660   33.7810   42.2510 O   0  0  0  0  0  0  0  0  0  0  0  0
   46.9090   33.3020   43.3710 C   0  0  0  0  0  0  0  0  0  0  0  0
   47.1570   32.1140   43.6470 O   0  0  0  0  0  0  0  0  0  0  0  0
   44.6500   36.0330   44.5140 C   0  0  0  0  0  0  0  0  0  0  0  0
   45.5270   35.2730   43.7190 C   0  0  0  0  0  0  0  0  0  0  0  0
   46.0610   34.1100   44.2160 C   0  0  0  0  0  0  0  0  0  0  0  0
   45.7140   33.7740   45.4390 N   0  0  0  0  0  0  0  0  0  0  0  0
   44.8830   34.4900   46.2070 C   0  0  0  0  0  0  0  0  0  0  0  0
   44.3400   35.6220   45.7620 N   0  0  0  0  0  0  0  0  0  0  0  0
   44.6080   33.9990   47.4900 N   0  0  0  0  0  0  0  0  0  0  0  0
   46.1643   32.2228   41.6268 H   0  0  0  0  0  0  0  0  0  0  0  0
   48.6248   32.7834   40.2872 H   0  0  0  0  0  0  0  0  0  0  0  0
   48.1654   31.3908   41.1462 H   0  0  0  0  0  0  0  0  0  0  0  0
   47.3715   31.6057   38.5564 H   0  0  0  0  0  0  0  0  0  0  0  0
   46.1072   31.0930   39.6790 H   0  0  0  0  0  0  0  0  0  0  0  0
   46.6296   33.8435   38.4754 H   0  0  0  0  0  0  0  0  0  0  0  0
   45.0823   33.0294   38.6703 H   0  0  0  0  0  0  0  0  0  0  0  0
   46.1502   34.9100   40.7614 H   0  0  0  0  0  0  0  0  0  0  0  0
   41.7116   31.9185   41.5469 H   0  0  0  0  0  0  0  0  0  0  0  0
   44.1217   31.7455   41.2921 H   0  0  0  0  0  0  0  0  0  0  0  0
   44.3261   35.8436   40.2749 H   0  0  0  0  0  0  0  0  0  0  0  0
   41.9323   36.0551   40.5167 H   0  0  0  0  0  0  0  0  0  0  0  0
   39.6474   34.8702   42.3506 H   0  0  0  0  0  0  0  0  0  0  0  0
   44.2163   36.9632   44.1183 H   0  0  0  0  0  0  0  0  0  0  0  0
   45.7838   35.6091   42.7036 H   0  0  0  0  0  0  0  0  0  0  0  0
   43.9742   34.5174   48.1149 H   0  0  0  0  0  0  0  0  0  0  0  0
   45.0396   33.1196   47.8084 H   0  0  0  0  0  0  0  0  0  0  0  0
  1 15  1  0
  2  1  1  0
  3  2  1  0
  4  3  1  0
  4  5  1  0
  5  9  1  0
  5  1  1  0
  6 12  1  0
  6  7  2  0
  8  7  1  0
  9  8  2  0
 10 11  2  0
 10  9  1  0
 11  6  1  0
 12 14  2  0
 13 12  2  0
 15 16  1  0
 16 17  2  0
 16 20  1  0
 18 23  2  0
 19 20  2  0
 19 18  1  0
 20 21  1  0
 21 22  2  0
 22 24  1  0
 23 22  1  0
  1 25  1  1
  2 26  1  0
  2 27  1  0
  3 28  1  0
  3 29  1  0
  4 30  1  0
  4 31  1  0
  5 32  1  6
  7 33  1  0
  8 34  1  0
 10 35  1  0
 11 36  1  0
 12 37  1  0
 18 38  1  0
 19 39  1  0
 24 40  1  0
 24 41  1  0
M  ISO  8  25  13  26  13  27  13  28  13  29  13  30  13  31  13  32  13
M  ISO  7  33  14  34  14  35  14  36  14  37  11  38  14  39  14
M  END
>  <minimizedAffinity>  (1) 
-5.68573046

>  <minimizedRMSD>  (1) 
1.90624797

$$$$
