
     RDKit          3D

 41 43  0  0  1  0  0  0  0  0999 V2000
   46.6600   32.3840   41.0330 C   0  0  2  0  0  0  0  0  0  0  0  0
   47.2700   31.4270   40.3090 C   0  0  0  0  0  0  0  0  0  0  0  0
   47.2380   32.1670   38.9920 C   0  0  0  0  0  0  0  0  0  0  0  0
   46.9840   33.6050   39.2100 C   0  0  0  0  0  0  0  0  0  0  0  0
   46.9460   33.7690   40.7700 C   0  0  2  0  0  0  0  0  0  0  0  0
   48.3810   34.1170   41.0820 C   0  0  0  0  0  0  0  0  0  0  0  0
   48.7950   35.4340   40.4660 C   0  0  0  0  0  0  0  0  0  0  0  0
   49.3170   36.2890   41.6020 C   0  0  0  0  0  0  0  0  0  0  0  0
   49.8390   35.2170   42.5570 C   0  0  0  0  0  0  0  0  0  0  0  0
   48.7390   34.1610   42.5220 C   0  0  0  0  0  0  0  0  0  0  0  0
   46.7580   32.2200   42.4210 O   0  0  0  0  0  0  0  0  0  0  0  0
   45.5210   32.5170   42.8500 C   0  0  0  0  0  0  0  0  0  0  0  0
   44.5920   31.8660   42.3140 O   0  0  0  0  0  0  0  0  0  0  0  0
   44.5800   35.7560   44.4150 C   0  0  0  0  0  0  0  0  0  0  0  0
   44.9000   34.7800   43.4460 C   0  0  0  0  0  0  0  0  0  0  0  0
   45.2300   33.5040   43.8470 C   0  0  0  0  0  0  0  0  0  0  0  0
   45.2360   33.2360   45.1390 N   0  0  0  0  0  0  0  0  0  0  0  0
   44.9300   34.1690   46.0700 C   0  0  0  0  0  0  0  0  0  0  0  0
   44.6030   35.4200   45.7350 N   0  0  0  0  0  0  0  0  0  0  0  0
   44.9710   33.7920   47.4170 N   0  0  0  0  0  0  0  0  0  0  0  0
   45.6451   32.1944   40.6534 H   0  0  0  0  0  0  0  0  0  0  0  0
   48.2939   31.2224   40.6549 H   0  0  0  0  0  0  0  0  0  0  0  0
   46.8187   30.4240   40.3281 H   0  0  0  0  0  0  0  0  0  0  0  0
   46.4382   31.7500   38.3624 H   0  0  0  0  0  0  0  0  0  0  0  0
   48.2128   32.0503   38.4958 H   0  0  0  0  0  0  0  0  0  0  0  0
   47.7918   34.2121   38.7754 H   0  0  0  0  0  0  0  0  0  0  0  0
   46.0515   33.9406   38.7327 H   0  0  0  0  0  0  0  0  0  0  0  0
   46.2849   34.4816   41.2849 H   0  0  0  0  0  0  0  0  0  0  0  0
   48.9288   33.2745   40.6347 H   0  0  0  0  0  0  0  0  0  0  0  0
   49.5842   35.2728   39.7169 H   0  0  0  0  0  0  0  0  0  0  0  0
   47.9504   35.9197   39.9554 H   0  0  0  0  0  0  0  0  0  0  0  0
   50.1229   36.9584   41.2666 H   0  0  0  0  0  0  0  0  0  0  0  0
   48.5685   36.9637   42.0429 H   0  0  0  0  0  0  0  0  0  0  0  0
   50.7950   34.8038   42.2030 H   0  0  0  0  0  0  0  0  0  0  0  0
   50.0411   35.5989   43.5686 H   0  0  0  0  0  0  0  0  0  0  0  0
   47.8782   34.4633   43.1365 H   0  0  0  0  0  0  0  0  0  0  0  0
   49.0533   33.1871   42.9255 H   0  0  0  0  0  0  0  0  0  0  0  0
   44.3146   36.7781   44.1069 H   0  0  0  0  0  0  0  0  0  0  0  0
   44.8859   35.0372   42.3766 H   0  0  0  0  0  0  0  0  0  0  0  0
   44.7436   34.4780   48.1509 H   0  0  0  0  0  0  0  0  0  0  0  0
   45.2285   32.8285   47.6745 H   0  0  0  0  0  0  0  0  0  0  0  0
  1 11  1  0
  2  1  1  0
  3  4  1  0
  3  2  1  0
  4  5  1  0
  5  1  1  0
  5  6  1  0
  6 10  1  0
  7  6  1  0
  7  8  1  0
  8  9  1  0
 10  9  1  0
 11 12  1  0
 12 16  1  0
 13 12  2  0
 14 19  2  0
 15 16  2  0
 15 14  1  0
 16 17  1  0
 17 18  2  0
 18 20  1  0
 19 18  1  0
  1 21  1  6
  2 22  1  0
  2 23  1  0
  3 24  1  0
  3 25  1  0
  4 26  1  0
  4 27  1  0
  5 28  1  6
  6 29  1  0
  7 30  1  0
  7 31  1  0
  8 32  1  0
  8 33  1  0
  9 34  1  0
  9 35  1  0
 10 36  1  0
 10 37  1  0
 14 38  1  0
 15 39  1  0
 20 40  1  0
 20 41  1  0
M  ISO  8  21  13  22  13  23  13  24  13  25  13  26  13  27  13  28  13
M  ISO  8  29  13  30  13  31  13  32  13  33  13  34  13  35  13  36  13
M  ISO  3  37  13  38  14  39  14
M  END
>  <minimizedAffinity>  (1) 
-5.27084684

>  <minimizedRMSD>  (1) 
1.89315856

$$$$
