
     RDKit          3D

 31 32  0  0  1  0  0  0  0  0999 V2000
   48.0510   33.4160   41.5460 C   0  0  2  0  0  0  0  0  0  0  0  0
   48.9910   32.6170   41.0250 C   0  0  0  0  0  0  0  0  0  0  0  0
   48.7360   32.9750   39.5780 C   0  0  0  0  0  0  0  0  0  0  0  0
   48.1180   34.3250   39.4980 C   0  0  0  0  0  0  0  0  0  0  0  0
   47.8160   34.7220   40.9660 C   0  0  2  0  0  0  0  0  0  0  0  0
   48.9210   35.6780   41.3370 C   0  0  0  0  0  0  0  0  0  0  0  0
   48.1480   33.6130   42.9290 O   0  0  0  0  0  0  0  0  0  0  0  0
   46.9460   33.2250   43.3780 C   0  0  0  0  0  0  0  0  0  0  0  0
   46.6000   32.0660   43.0490 O   0  0  0  0  0  0  0  0  0  0  0  0
   44.6660   35.9840   44.4010 C   0  0  0  0  0  0  0  0  0  0  0  0
   45.5490   35.1920   43.6300 C   0  0  0  0  0  0  0  0  0  0  0  0
   46.0810   34.0440   44.1770 C   0  0  0  0  0  0  0  0  0  0  0  0
   45.7480   33.7210   45.4130 N   0  0  0  0  0  0  0  0  0  0  0  0
   44.9010   34.4820   46.1510 C   0  0  0  0  0  0  0  0  0  0  0  0
   44.3580   35.6010   45.6690 N   0  0  0  0  0  0  0  0  0  0  0  0
   44.6090   34.0560   47.4510 N   0  0  0  0  0  0  0  0  0  0  0  0
   47.1926   32.7874   41.2667 H   0  0  0  0  0  0  0  0  0  0  0  0
   50.0053   32.8861   41.3549 H   0  0  0  0  0  0  0  0  0  0  0  0
   48.9400   31.5506   41.2900 H   0  0  0  0  0  0  0  0  0  0  0  0
   49.6886   32.9756   39.0280 H   0  0  0  0  0  0  0  0  0  0  0  0
   48.0540   32.2349   39.1340 H   0  0  0  0  0  0  0  0  0  0  0  0
   48.8155   35.0419   39.0403 H   0  0  0  0  0  0  0  0  0  0  0  0
   47.2100   34.3251   38.8772 H   0  0  0  0  0  0  0  0  0  0  0  0
   46.8537   35.1843   41.2310 H   0  0  0  0  0  0  0  0  0  0  0  0
   48.9967   35.7435   42.4324 H   0  0  0  0  0  0  0  0  0  0  0  0
   49.8739   35.3148   40.9246 H   0  0  0  0  0  0  0  0  0  0  0  0
   48.6986   36.6732   40.9246 H   0  0  0  0  0  0  0  0  0  0  0  0
   44.2321   36.9022   43.9783 H   0  0  0  0  0  0  0  0  0  0  0  0
   45.8087   35.4896   42.6033 H   0  0  0  0  0  0  0  0  0  0  0  0
   43.9704   34.6069   48.0422 H   0  0  0  0  0  0  0  0  0  0  0  0
   45.0326   33.1914   47.8170 H   0  0  0  0  0  0  0  0  0  0  0  0
  1  7  1  0
  2  1  1  0
  3  2  1  0
  4  3  1  0
  4  5  1  0
  5  6  1  0
  5  1  1  0
  7  8  1  0
  8 12  1  0
  9  8  2  0
 10 15  2  0
 11 12  2  0
 11 10  1  0
 12 13  1  0
 13 14  2  0
 14 16  1  0
 15 14  1  0
  1 17  1  1
  2 18  1  0
  2 19  1  0
  3 20  1  0
  3 21  1  0
  4 22  1  0
  4 23  1  0
  5 24  1  6
  6 25  1  0
  6 26  1  0
  6 27  1  0
 10 28  1  0
 11 29  1  0
 16 30  1  0
 16 31  1  0
M  ISO  8  17  13  18  13  19  13  20  13  21  13  22  13  23  13  24  13
M  ISO  5  25   8  26   8  27   8  28  14  29  14
M  END
>  <minimizedAffinity>  (1) 
-5.35035801

>  <minimizedRMSD>  (1) 
0.368048251

$$$$
