
     RDKit          3D

 26 28  0  0  1  0  0  0  0  0999 V2000
   45.8170   34.0710   41.4190 N   0  0  0  0  0  0  0  0  0  0  0  0
   45.0660   33.5620   40.4050 C   0  0  0  0  0  0  0  0  0  0  0  0
   45.8340   33.3370   39.3250 N   0  0  0  0  0  0  0  0  0  0  0  0
   47.0930   33.7130   39.6720 C   0  0  0  0  0  0  0  0  0  0  0  0
   47.0370   34.1470   40.9370 N   0  0  0  0  0  0  0  0  0  0  0  0
   45.0220   35.7980   42.9000 C   0  0  0  0  0  0  0  0  0  0  0  0
   45.4740   34.4660   42.7350 C   0  0  0  0  0  0  0  0  0  0  0  0
   45.5450   33.6640   43.8520 C   0  0  0  0  0  0  0  0  0  0  0  0
   45.1760   34.2020   45.0440 N   0  0  0  0  0  0  0  0  0  0  0  0
   44.7540   35.4590   45.1730 C   0  0  0  0  0  0  0  0  0  0  0  0
   44.6780   36.2560   44.0940 N   0  0  0  0  0  0  0  0  0  0  0  0
   48.3490   33.6890   38.8690 C   0  0  2  0  0  0  0  0  0  0  0  0
   48.3760   34.5940   37.6210 C   0  0  0  0  0  0  0  0  0  0  0  0
   48.3240   33.0680   37.5020 C   0  0  1  0  0  0  0  0  0  0  0  0
   49.5160   32.3210   37.1030 C   0  0  0  0  0  0  0  0  0  0  0  0
   49.3280   31.3370   36.3090 O   0  0  0  0  0  0  0  0  0  0  0  0
   50.7980   32.6320   37.5400 O   0  0  0  0  0  0  0  0  0  0  0  0
   43.9856   33.3632   40.4610 H   0  0  0  0  0  0  0  0  0  0  0  0
   44.9558   36.4610   42.0247 H   0  0  0  0  0  0  0  0  0  0  0  0
   45.8893   32.6216   43.7817 H   0  0  0  0  0  0  0  0  0  0  0  0
   44.4678   35.8443   46.1628 H   0  0  0  0  0  0  0  0  0  0  0  0
   48.9819   33.5465   39.7573 H   0  0  0  0  0  0  0  0  0  0  0  0
   47.4971   35.2006   37.3573 H   0  0  0  0  0  0  0  0  0  0  0  0
   49.0326   35.3906   37.2412 H   0  0  0  0  0  0  0  0  0  0  0  0
   47.6620   32.3805   36.9551 H   0  0  0  0  0  0  0  0  0  0  0  0
   51.5693   32.0906   37.2367 H   0  0  0  0  0  0  0  0  0  0  0  0
  1  7  1  0
  2  1  1  0
  3  4  1  0
  3  2  2  0
  4  5  2  0
  5  1  1  0
  6 11  2  0
  7  6  1  0
  7  8  2  0
  8  9  1  0
  9 10  2  0
 11 10  1  0
 12  4  1  0
 13 12  1  0
 14 13  1  0
 14 12  1  0
 15 14  1  0
 15 17  1  0
 16 15  2  0
  2 18  1  0
  6 19  1  0
  8 20  1  0
 10 21  1  0
 12 22  1  1
 13 23  1  0
 13 24  1  0
 14 25  1  1
 17 26  1  0
M  ISO  8  18  14  19  14  20  14  21  14  22  13  23  13  24  13  25  13
M  ISO  1  26   3
M  END
>  <minimizedAffinity>  (1) 
-4.56985474

>  <minimizedRMSD>  (1) 
0.241269112

$$$$
