
     RDKit          3D

 39 41  0  0  1  0  0  0  0  0999 V2000
   49.0620   32.6920   40.9520 C   0  0  2  0  0  0  0  0  0  0  0  0
   49.8450   31.9790   40.1190 C   0  0  0  0  0  0  0  0  0  0  0  0
   51.0790   32.0170   40.9910 C   0  0  0  0  0  0  0  0  0  0  0  0
   50.6850   32.2320   42.4140 C   0  0  0  0  0  0  0  0  0  0  0  0
   49.1770   32.5620   42.3770 C   0  0  2  0  0  0  0  0  0  0  0  0
   48.5220   31.4580   43.0480 N   0  0  0  0  0  0  0  0  0  0  0  0
   48.6830   30.1490   42.7830 C   0  0  0  0  0  0  0  0  0  0  0  0
   48.0040   29.1780   43.4900 C   0  0  0  0  0  0  0  0  0  0  0  0
   47.1310   29.5880   44.5030 C   0  0  0  0  0  0  0  0  0  0  0  0
   46.4420   28.5660   45.2170 N   0  0  0  0  0  0  0  0  0  0  0  0
   46.9990   30.9040   44.7360 N   0  0  0  0  0  0  0  0  0  0  0  0
   47.6730   31.8280   44.0320 C   0  0  0  0  0  0  0  0  0  0  0  0
   47.4540   33.0270   44.3550 O   0  0  0  0  0  0  0  0  0  0  0  0
   47.6940   32.6600   40.6400 O   0  0  0  0  0  0  0  0  0  0  0  0
   47.3540   33.9610   40.6090 C   0  0  0  0  0  0  0  0  0  0  0  0
   48.0940   34.7030   39.9240 O   0  0  0  0  0  0  0  0  0  0  0  0
   45.3310   35.8840   43.0720 C   0  0  0  0  0  0  0  0  0  0  0  0
   46.4360   35.3140   42.3980 C   0  0  0  0  0  0  0  0  0  0  0  0
   46.2230   34.4990   41.3090 C   0  0  0  0  0  0  0  0  0  0  0  0
   44.9790   34.2770   40.9320 N   0  0  0  0  0  0  0  0  0  0  0  0
   43.9220   34.8190   41.5730 C   0  0  0  0  0  0  0  0  0  0  0  0
   44.0710   35.6190   42.6340 N   0  0  0  0  0  0  0  0  0  0  0  0
   42.6380   34.5210   41.1030 N   0  0  0  0  0  0  0  0  0  0  0  0
   49.5337   33.6590   40.7231 H   0  0  0  0  0  0  0  0  0  0  0  0
   49.4717   30.9573   39.9552 H   0  0  0  0  0  0  0  0  0  0  0  0
   49.9476   32.3481   39.0878 H   0  0  0  0  0  0  0  0  0  0  0  0
   51.6190   31.0628   40.9016 H   0  0  0  0  0  0  0  0  0  0  0  0
   51.7291   32.8423   40.6651 H   0  0  0  0  0  0  0  0  0  0  0  0
   50.8653   31.3219   43.0049 H   0  0  0  0  0  0  0  0  0  0  0  0
   51.2686   33.0381   42.8826 H   0  0  0  0  0  0  0  0  0  0  0  0
   48.7375   33.4377   42.8770 H   0  0  0  0  0  0  0  0  0  0  0  0
   49.3734   29.8451   41.9824 H   0  0  0  0  0  0  0  0  0  0  0  0
   48.1453   28.1109   43.2633 H   0  0  0  0  0  0  0  0  0  0  0  0
   45.7880   28.8167   45.9722 H   0  0  0  0  0  0  0  0  0  0  0  0
   46.5977   27.5763   44.9781 H   0  0  0  0  0  0  0  0  0  0  0  0
   45.4894   36.5364   43.9434 H   0  0  0  0  0  0  0  0  0  0  0  0
   47.4602   35.5207   42.7420 H   0  0  0  0  0  0  0  0  0  0  0  0
   41.8124   34.9201   41.5720 H   0  0  0  0  0  0  0  0  0  0  0  0
   42.5186   33.9026   40.2880 H   0  0  0  0  0  0  0  0  0  0  0  0
  1  5  1  0
  2  1  1  0
  2  3  1  0
  3  4  1  0
  5  4  1  0
  5  6  1  0
  6 12  1  0
  7  6  1  0
  7  8  2  0
  8  9  1  0
  9 11  2  0
  9 10  1  0
 12 13  2  0
 12 11  1  0
 14  1  1  0
 15 14  1  0
 15 19  1  0
 16 15  2  0
 18 17  2  0
 19 18  1  0
 20 19  2  0
 20 21  1  0
 21 22  2  0
 22 17  1  0
 23 21  1  0
  1 24  1  1
  2 25  1  0
  2 26  1  0
  3 27  1  0
  3 28  1  0
  4 29  1  0
  4 30  1  0
  5 31  1  1
  7 32  1  0
  8 33  1  0
 10 34  1  0
 10 35  1  0
 17 36  1  0
 18 37  1  0
 23 38  1  0
 23 39  1  0
M  ISO  8  24  13  25  13  26  13  27  13  28  13  29  13  30  13  31  13
M  ISO  4  32  14  33  14  36  14  37  14
M  END
>  <minimizedAffinity>  (1) 
-4.35180473

>  <minimizedRMSD>  (1) 
5.37651253

$$$$
