
     RDKit          3D

 26 28  0  0  0  0  0  0  0  0999 V2000
   45.3610   36.1710   43.3660 C   0  0  0  0  0  0  0  0  0  0  0  0
   46.1020   34.9860   43.1680 C   0  0  0  0  0  0  0  0  0  0  0  0
   46.0410   33.9970   44.1400 C   0  0  0  0  0  0  0  0  0  0  0  0
   45.2530   34.2340   45.2470 N   0  0  0  0  0  0  0  0  0  0  0  0
   44.5580   35.3910   45.3930 C   0  0  0  0  0  0  0  0  0  0  0  0
   44.6220   36.3360   44.4560 N   0  0  0  0  0  0  0  0  0  0  0  0
   46.8950   34.8660   41.9560 C   0  0  0  0  0  0  0  0  0  0  0  0
   48.1290   35.3360   41.5710 C   0  0  0  0  0  0  0  0  0  0  0  0
   48.6380   35.0370   40.3270 C   0  0  0  0  0  0  0  0  0  0  0  0
   47.9930   34.2800   39.4010 C   0  0  0  0  0  0  0  0  0  0  0  0
   46.7570   33.7980   39.7580 C   0  0  0  0  0  0  0  0  0  0  0  0
   46.2140   34.0830   41.0110 C   0  0  0  0  0  0  0  0  0  0  0  0
   46.7230   32.7670   44.0720 N   0  0  0  0  0  0  0  0  0  0  0  0
   48.0020   32.3890   43.8480 C   0  0  0  0  0  0  0  0  0  0  0  0
   48.1180   31.0520   43.8840 N   0  0  0  0  0  0  0  0  0  0  0  0
   46.8910   30.5920   44.1370 C   0  0  0  0  0  0  0  0  0  0  0  0
   46.0350   31.6440   44.2520 N   0  0  0  0  0  0  0  0  0  0  0  0
   45.3965   36.9672   42.6078 H   0  0  0  0  0  0  0  0  0  0  0  0
   43.9394   35.5489   46.2887 H   0  0  0  0  0  0  0  0  0  0  0  0
   48.7153   35.9572   42.2641 H   0  0  0  0  0  0  0  0  0  0  0  0
   49.6293   35.4361   40.0663 H   0  0  0  0  0  0  0  0  0  0  0  0
   48.4369   34.0646   38.4179 H   0  0  0  0  0  0  0  0  0  0  0  0
   46.1887   33.1799   39.0473 H   0  0  0  0  0  0  0  0  0  0  0  0
   45.2220   33.6819   41.2661 H   0  0  0  0  0  0  0  0  0  0  0  0
   48.8347   33.0832   43.6615 H   0  0  0  0  0  0  0  0  0  0  0  0
   46.6154   29.5318   44.2367 H   0  0  0  0  0  0  0  0  0  0  0  0
  1  6  2  0
  2  1  1  0
  2  3  2  0
  3  4  1  0
  4  5  2  0
  6  5  1  0
  7  2  1  0
  8  7  2  0
  9  8  1  0
 10 11  1  0
 10  9  2  0
 11 12  2  0
 12  7  1  0
 13  3  1  0
 13 17  1  0
 14 15  2  0
 14 13  1  0
 15 16  1  0
 16 17  2  0
  1 18  1  0
  5 19  1  0
  8 20  1  0
  9 21  1  0
 10 22  1  0
 11 23  1  0
 12 24  1  0
 14 25  1  0
 16 26  1  0
M  ISO  8  18  14  19  14  20  14  21  14  22  14  23  14  24  14  25  14
M  ISO  1  26  14
M  END
>  <minimizedAffinity>  (1) 
-5.11771059

>  <minimizedRMSD>  (1) 
4.02617264

$$$$
