
     RDKit          3D

 22 23  0  0  0  0  0  0  0  0999 V2000
   44.8750   34.9470   44.9170 C   0  0  0  0  0  0  0  0  0  0  0  0
   45.4660   35.1880   43.6780 C   0  0  0  0  0  0  0  0  0  0  0  0
   46.5880   34.4700   43.2900 C   0  0  0  0  0  0  0  0  0  0  0  0
   47.0630   33.5390   44.1700 N   0  0  0  0  0  0  0  0  0  0  0  0
   46.4780   33.3150   45.3720 C   0  0  0  0  0  0  0  0  0  0  0  0
   45.4000   34.0130   45.7330 N   0  0  0  0  0  0  0  0  0  0  0  0
   47.2560   34.6270   42.0570 N   0  0  0  0  0  0  0  0  0  0  0  0
   47.1080   34.0850   40.8200 C   0  0  0  0  0  0  0  0  0  0  0  0
   48.0310   34.5790   39.9800 N   0  0  0  0  0  0  0  0  0  0  0  0
   48.7550   35.4350   40.7060 C   0  0  0  0  0  0  0  0  0  0  0  0
   48.2790   35.4660   41.9860 N   0  0  0  0  0  0  0  0  0  0  0  0
   44.8710   36.2150   42.8240 C   0  0  0  0  0  0  0  0  0  0  0  0
   43.8320   35.6080   41.9110 C   0  0  0  0  0  0  0  0  0  0  0  0
   43.9857   35.5158   45.2263 H   0  0  0  0  0  0  0  0  0  0  0  0
   46.8931   32.5559   46.0514 H   0  0  0  0  0  0  0  0  0  0  0  0
   46.3406   33.3461   40.5458 H   0  0  0  0  0  0  0  0  0  0  0  0
   49.6044   36.0246   40.3307 H   0  0  0  0  0  0  0  0  0  0  0  0
   44.3953   36.9798   43.4555 H   0  0  0  0  0  0  0  0  0  0  0  0
   45.6626   36.6688   42.2096 H   0  0  0  0  0  0  0  0  0  0  0  0
   43.0385   35.1444   42.5156 H   0  0  0  0  0  0  0  0  0  0  0  0
   43.3974   36.3943   41.2763 H   0  0  0  0  0  0  0  0  0  0  0  0
   44.3035   34.8433   41.2763 H   0  0  0  0  0  0  0  0  0  0  0  0
  1  6  2  0
  2  1  1  0
  3  2  2  0
  3  4  1  0
  4  5  2  0
  5  6  1  0
  7  3  1  0
  8  7  1  0
  9 10  1  0
  9  8  2  0
 10 11  2  0
 11  7  1  0
 12  2  1  0
 13 12  1  0
  1 14  1  0
  5 15  1  0
  8 16  1  0
 10 17  1  0
 12 18  1  0
 12 19  1  0
 13 20  1  0
 13 21  1  0
 13 22  1  0
M  ISO  8  14  14  15  14  16  14  17  14  18   8  19   8  20   8  21   8
M  ISO  1  22   8
M  END
>  <minimizedAffinity>  (1) 
-4.23453283

>  <minimizedRMSD>  (1) 
0.88697964

$$$$
