
     RDKit          3D

 29 31  0  0  0  0  0  0  0  0999 V2000
   44.5280   35.2300   44.1100 C   0  0  0  0  0  0  0  0  0  0  0  0
   44.8650   34.0880   43.3740 C   0  0  0  0  0  0  0  0  0  0  0  0
   45.4320   32.9940   44.0180 C   0  0  0  0  0  0  0  0  0  0  0  0
   45.6330   33.1000   45.3700 N   0  0  0  0  0  0  0  0  0  0  0  0
   45.2960   34.2210   46.0610 C   0  0  0  0  0  0  0  0  0  0  0  0
   44.7500   35.2670   45.4220 N   0  0  0  0  0  0  0  0  0  0  0  0
   44.6500   33.9950   41.9710 N   0  0  0  0  0  0  0  0  0  0  0  0
   43.3950   33.6080   41.6670 C   0  0  0  0  0  0  0  0  0  0  0  0
   42.9970   33.4600   40.3530 C   0  0  0  0  0  0  0  0  0  0  0  0
   41.6200   33.0350   39.9880 C   0  0  0  0  0  0  0  0  0  0  0  0
   43.9050   33.7170   39.3220 C   0  0  0  0  0  0  0  0  0  0  0  0
   43.6130   33.6050   38.1140 O   0  0  0  0  0  0  0  0  0  0  0  0
   45.1400   34.1000   39.6930 N   0  0  0  0  0  0  0  0  0  0  0  0
   45.5220   34.2410   40.9750 C   0  0  0  0  0  0  0  0  0  0  0  0
   46.6610   34.5950   41.3570 O   0  0  0  0  0  0  0  0  0  0  0  0
   45.8130   31.7930   43.3810 N   0  0  0  0  0  0  0  0  0  0  0  0
   45.1950   30.6610   43.0070 C   0  0  0  0  0  0  0  0  0  0  0  0
   46.0600   29.8200   42.4240 N   0  0  0  0  0  0  0  0  0  0  0  0
   47.2380   30.4440   42.4360 C   0  0  0  0  0  0  0  0  0  0  0  0
   47.1050   31.6610   43.0230 N   0  0  0  0  0  0  0  0  0  0  0  0
   44.0794   36.0975   43.6038 H   0  0  0  0  0  0  0  0  0  0  0  0
   45.4712   34.2708   47.1458 H   0  0  0  0  0  0  0  0  0  0  0  0
   42.6781   33.4073   42.4768 H   0  0  0  0  0  0  0  0  0  0  0  0
   41.0371   32.8551   40.9033 H   0  0  0  0  0  0  0  0  0  0  0  0
   41.1371   33.8259   39.3953 H   0  0  0  0  0  0  0  0  0  0  0  0
   41.6669   32.1095   39.3953 H   0  0  0  0  0  0  0  0  0  0  0  0
   45.8311   34.2961   38.9548 H   0  0  0  0  0  0  0  0  0  0  0  0
   44.1256   30.4527   43.1584 H   0  0  0  0  0  0  0  0  0  0  0  0
   48.1756   30.0349   42.0316 H   0  0  0  0  0  0  0  0  0  0  0  0
  1  6  2  0
  2  3  2  0
  2  1  1  0
  3  4  1  0
  4  5  2  0
  6  5  1  0
  7  2  1  0
  8  7  1  0
  9  8  2  0
 10  9  1  0
 11 13  1  0
 11  9  1  0
 12 11  2  0
 13 14  1  0
 14 15  2  0
 14  7  1  0
 16  3  1  0
 17 16  1  0
 18 19  1  0
 18 17  2  0
 19 20  2  0
 20 16  1  0
  1 21  1  0
  5 22  1  0
  8 23  1  0
 10 24  1  0
 10 25  1  0
 10 26  1  0
 13 27  1  0
 17 28  1  0
 19 29  1  0
M  ISO  8  21  14  22  14  23  14  24   8  25   8  26   8  27   9  28  14
M  ISO  1  29  14
M  END
>  <minimizedAffinity>  (1) 
-4.14683008

>  <minimizedRMSD>  (1) 
3.89078355

$$$$
