
     RDKit          3D

 19 20  0  0  0  0  0  0  0  0999 V2000
   44.6170   35.4790   45.0610 C   0  0  0  0  0  0  0  0  0  0  0  0
   45.2060   35.5640   43.8010 C   0  0  0  0  0  0  0  0  0  0  0  0
   46.1730   34.6360   43.4320 C   0  0  0  0  0  0  0  0  0  0  0  0
   46.5000   33.6700   44.3460 N   0  0  0  0  0  0  0  0  0  0  0  0
   45.9080   33.6100   45.5720 C   0  0  0  0  0  0  0  0  0  0  0  0
   44.9710   34.5210   45.9110 N   0  0  0  0  0  0  0  0  0  0  0  0
   46.8390   34.6220   42.1840 N   0  0  0  0  0  0  0  0  0  0  0  0
   46.5820   34.1050   40.9690 C   0  0  0  0  0  0  0  0  0  0  0  0
   47.5710   34.3920   40.1130 N   0  0  0  0  0  0  0  0  0  0  0  0
   48.4660   35.1070   40.8180 C   0  0  0  0  0  0  0  0  0  0  0  0
   48.0180   35.2520   42.0990 N   0  0  0  0  0  0  0  0  0  0  0  0
   44.8400   36.6150   42.8250 C   0  0  0  0  0  0  0  0  0  0  0  0
   43.8514   36.2122   45.3549 H   0  0  0  0  0  0  0  0  0  0  0  0
   46.1929   32.8212   46.2837 H   0  0  0  0  0  0  0  0  0  0  0  0
   45.6825   33.5257   40.7136 H   0  0  0  0  0  0  0  0  0  0  0  0
   49.4102   35.5112   40.4241 H   0  0  0  0  0  0  0  0  0  0  0  0
   44.5245   37.5211   43.3630 H   0  0  0  0  0  0  0  0  0  0  0  0
   45.7100   36.8478   42.1934 H   0  0  0  0  0  0  0  0  0  0  0  0
   44.0136   36.2571   42.1934 H   0  0  0  0  0  0  0  0  0  0  0  0
  1  6  2  0
  2  1  1  0
  3  2  2  0
  3  4  1  0
  4  5  2  0
  5  6  1  0
  7  3  1  0
  8  7  1  0
  9 10  1  0
  9  8  2  0
 10 11  2  0
 11  7  1  0
 12  2  1  0
  1 13  1  0
  5 14  1  0
  8 15  1  0
 10 16  1  0
 12 17  1  0
 12 18  1  0
 12 19  1  0
M  ISO  7  13  14  14  14  15  14  16  14  17   8  18   8  19   8
M  END
>  <minimizedAffinity>  (1) 
-4.05064011

>  <minimizedRMSD>  (1) 
0.491408318

$$$$
