
     RDKit          3D

 38 42  0  0  0  0  0  0  0  0999 V2000
   45.2750   34.2780   44.0390 C   0  0  0  0  0  0  0  0  0  0  0  0
   45.5510   35.6160   43.9270 C   0  0  0  0  0  0  0  0  0  0  0  0
   45.0580   36.4450   42.9390 C   0  0  0  0  0  0  0  0  0  0  0  0
   44.2420   35.9090   42.0050 N   0  0  0  0  0  0  0  0  0  0  0  0
   43.9660   34.5780   42.1150 C   0  0  0  0  0  0  0  0  0  0  0  0
   44.4590   33.7970   43.0850 N   0  0  0  0  0  0  0  0  0  0  0  0
   43.0820   34.0030   41.1000 C   0  0  0  0  0  0  0  0  0  0  0  0
   43.3280   32.8780   40.3400 C   0  0  0  0  0  0  0  0  0  0  0  0
   42.3100   32.6190   39.5000 N   0  0  0  0  0  0  0  0  0  0  0  0
   41.4020   33.5970   39.7320 C   0  0  0  0  0  0  0  0  0  0  0  0
   40.1720   33.8130   39.1450 C   0  0  0  0  0  0  0  0  0  0  0  0
   39.3510   34.8680   39.4930 C   0  0  0  0  0  0  0  0  0  0  0  0
   39.8170   35.7360   40.4840 C   0  0  0  0  0  0  0  0  0  0  0  0
   41.0630   35.5200   41.0810 C   0  0  0  0  0  0  0  0  0  0  0  0
   41.8440   34.4650   40.7090 C   0  0  0  0  0  0  0  0  0  0  0  0
   45.3580   33.4260   46.4140 C   0  0  0  0  0  0  0  0  0  0  0  0
   45.8190   33.4460   45.1010 C   0  0  0  0  0  0  0  0  0  0  0  0
   46.8810   32.6070   44.7640 C   0  0  0  0  0  0  0  0  0  0  0  0
   47.4180   31.8070   45.7390 N   0  0  0  0  0  0  0  0  0  0  0  0
   46.9280   31.8310   47.0040 C   0  0  0  0  0  0  0  0  0  0  0  0
   45.9070   32.6340   47.3320 N   0  0  0  0  0  0  0  0  0  0  0  0
   47.4580   32.5230   43.4520 N   0  0  0  0  0  0  0  0  0  0  0  0
   47.2790   31.7190   42.3920 C   0  0  0  0  0  0  0  0  0  0  0  0
   48.0990   32.0860   41.3860 N   0  0  0  0  0  0  0  0  0  0  0  0
   48.7910   33.1390   41.8550 C   0  0  0  0  0  0  0  0  0  0  0  0
   48.4000   33.4150   43.1330 N   0  0  0  0  0  0  0  0  0  0  0  0
   46.2154   36.0630   44.6812 H   0  0  0  0  0  0  0  0  0  0  0  0
   45.3223   37.5125   42.9130 H   0  0  0  0  0  0  0  0  0  0  0  0
   44.2416   32.2696   40.4120 H   0  0  0  0  0  0  0  0  0  0  0  0
   42.2367   31.8439   38.8256 H   0  0  0  0  0  0  0  0  0  0  0  0
   39.8306   33.1150   38.3664 H   0  0  0  0  0  0  0  0  0  0  0  0
   38.3736   35.0182   39.0113 H   0  0  0  0  0  0  0  0  0  0  0  0
   39.2013   36.5926   40.7957 H   0  0  0  0  0  0  0  0  0  0  0  0
   41.4181   36.2098   41.8608 H   0  0  0  0  0  0  0  0  0  0  0  0
   44.5207   34.0797   46.6996 H   0  0  0  0  0  0  0  0  0  0  0  0
   47.3754   31.1819   47.7712 H   0  0  0  0  0  0  0  0  0  0  0  0
   46.5666   30.8819   42.3500 H   0  0  0  0  0  0  0  0  0  0  0  0
   49.5567   33.6942   41.2934 H   0  0  0  0  0  0  0  0  0  0  0  0
  1 17  1  0
  2  1  2  0
  3  2  1  0
  4  5  1  0
  4  3  2  0
  5  6  2  0
  6  1  1  0
  7  5  1  0
  8  7  2  0
  9 10  1  0
  9  8  1  0
 10 15  2  0
 11 12  2  0
 11 10  1  0
 12 13  1  0
 13 14  2  0
 15 14  1  0
 15  7  1  0
 16 21  2  0
 17 16  1  0
 18 17  2  0
 18 19  1  0
 19 20  2  0
 20 21  1  0
 22 18  1  0
 23 22  1  0
 24 25  1  0
 24 23  2  0
 25 26  2  0
 26 22  1  0
  2 27  1  0
  3 28  1  0
  8 29  1  0
  9 30  1  0
 11 31  1  0
 12 32  1  0
 13 33  1  0
 14 34  1  0
 16 35  1  0
 20 36  1  0
 23 37  1  0
 25 38  1  0
M  ISO  8  27  14  28  14  29  14  30   9  31  14  32  14  33  14  34  14
M  ISO  4  35  14  36  14  37  14  38  14
M  END
>  <minimizedAffinity>  (1) 
-5.91877937

>  <minimizedRMSD>  (1) 
0.68582958

$$$$
