
     RDKit          3D

 37 41  0  0  0  0  0  0  0  0999 V2000
   45.3300   34.1580   44.0550 C   0  0  0  0  0  0  0  0  0  0  0  0
   45.6070   35.5000   43.9810 C   0  0  0  0  0  0  0  0  0  0  0  0
   45.0630   36.3650   43.0560 C   0  0  0  0  0  0  0  0  0  0  0  0
   44.1930   35.8650   42.1560 N   0  0  0  0  0  0  0  0  0  0  0  0
   43.9150   34.5390   42.2240 C   0  0  0  0  0  0  0  0  0  0  0  0
   44.4580   33.7070   43.1370 N   0  0  0  0  0  0  0  0  0  0  0  0
   42.9920   34.0240   41.2640 N   0  0  0  0  0  0  0  0  0  0  0  0
   43.2480   32.8070   40.7030 C   0  0  0  0  0  0  0  0  0  0  0  0
   42.2510   32.5080   39.8220 N   0  0  0  0  0  0  0  0  0  0  0  0
   41.3710   33.5220   39.8230 C   0  0  0  0  0  0  0  0  0  0  0  0
   40.1710   33.8500   39.1830 C   0  0  0  0  0  0  0  0  0  0  0  0
   39.5850   35.0220   39.4870 N   0  0  0  0  0  0  0  0  0  0  0  0
   40.0610   35.9080   40.3600 C   0  0  0  0  0  0  0  0  0  0  0  0
   41.2280   35.6340   41.0090 N   0  0  0  0  0  0  0  0  0  0  0  0
   41.8420   34.4570   40.7230 C   0  0  0  0  0  0  0  0  0  0  0  0
   45.5230   33.1790   46.3840 C   0  0  0  0  0  0  0  0  0  0  0  0
   45.9390   33.2780   45.0620 C   0  0  0  0  0  0  0  0  0  0  0  0
   47.0080   32.4960   44.6420 C   0  0  0  0  0  0  0  0  0  0  0  0
   47.6050   31.6590   45.5510 N   0  0  0  0  0  0  0  0  0  0  0  0
   47.1570   31.5990   46.8410 C   0  0  0  0  0  0  0  0  0  0  0  0
   46.1190   32.3620   47.2400 N   0  0  0  0  0  0  0  0  0  0  0  0
   47.5400   32.4970   43.3090 N   0  0  0  0  0  0  0  0  0  0  0  0
   47.3090   31.7860   42.1950 C   0  0  0  0  0  0  0  0  0  0  0  0
   48.1190   32.2210   41.1980 N   0  0  0  0  0  0  0  0  0  0  0  0
   48.8390   33.2020   41.7300 C   0  0  0  0  0  0  0  0  0  0  0  0
   48.4910   33.3770   43.0230 N   0  0  0  0  0  0  0  0  0  0  0  0
   39.6600   32.9050   38.2500 N   0  0  0  0  0  0  0  0  0  0  0  0
   46.3148   35.9157   44.7133 H   0  0  0  0  0  0  0  0  0  0  0  0
   45.3309   37.4319   43.0524 H   0  0  0  0  0  0  0  0  0  0  0  0
   44.1172   32.1705   40.9252 H   0  0  0  0  0  0  0  0  0  0  0  0
   39.5208   36.8463   40.5543 H   0  0  0  0  0  0  0  0  0  0  0  0
   44.6783   33.7938   46.7283 H   0  0  0  0  0  0  0  0  0  0  0  0
   47.6464   30.9239   47.5585 H   0  0  0  0  0  0  0  0  0  0  0  0
   46.5737   30.9730   42.1040 H   0  0  0  0  0  0  0  0  0  0  0  0
   49.6045   33.7850   41.1970 H   0  0  0  0  0  0  0  0  0  0  0  0
   40.1706   32.0282   38.0730 H   0  0  0  0  0  0  0  0  0  0  0  0
   38.7795   33.0978   37.7516 H   0  0  0  0  0  0  0  0  0  0  0  0
  1 17  1  0
  2  1  2  0
  3  2  1  0
  4  5  1  0
  4  3  2  0
  5  6  2  0
  6  1  1  0
  7  5  1  0
  8  7  1  0
  9 10  1  0
  9  8  2  0
 10 15  2  0
 11 12  2  0
 11 10  1  0
 12 13  1  0
 13 14  2  0
 15 14  1  0
 15  7  1  0
 16 21  2  0
 17 16  1  0
 18 17  2  0
 18 19  1  0
 19 20  2  0
 20 21  1  0
 22 18  1  0
 23 22  1  0
 24 25  1  0
 24 23  2  0
 25 26  2  0
 26 22  1  0
 27 11  1  0
  2 28  1  0
  3 29  1  0
  8 30  1  0
 13 31  1  0
 16 32  1  0
 20 33  1  0
 23 34  1  0
 25 35  1  0
 27 36  1  0
 27 37  1  0
M  ISO  8  28  14  29  14  30  14  31  14  32  14  33  14  34  14  35  14
M  END
>  <minimizedAffinity>  (1) 
-5.92118549

>  <minimizedRMSD>  (1) 
0.823104203

$$$$
