
     RDKit          3D

 40 44  0  0  1  0  0  0  0  0999 V2000
   47.9580   33.6800   38.9310 C   0  0  2  0  0  0  0  0  0  0  0  0
   46.6350   33.1160   38.3560 C   0  0  0  0  0  0  0  0  0  0  0  0
   47.9300   32.2890   38.4090 C   0  0  1  0  0  0  0  0  0  0  0  0
   47.2040   34.4430   42.3910 N   0  0  0  0  0  0  0  0  0  0  0  0
   48.5160   34.1380   42.4820 C   0  0  0  0  0  0  0  0  0  0  0  0
   49.0240   33.8150   41.2760 N   0  0  0  0  0  0  0  0  0  0  0  0
   47.9810   33.9250   40.3960 C   0  0  0  0  0  0  0  0  0  0  0  0
   46.9310   34.3000   41.1170 N   0  0  0  0  0  0  0  0  0  0  0  0
   46.1750   34.0170   44.5300 C   0  0  0  0  0  0  0  0  0  0  0  0
   46.2530   34.8310   43.3620 C   0  0  0  0  0  0  0  0  0  0  0  0
   45.4170   35.9090   43.2680 C   0  0  0  0  0  0  0  0  0  0  0  0
   44.5570   36.1370   44.3080 N   0  0  0  0  0  0  0  0  0  0  0  0
   44.5000   35.3690   45.3830 C   0  0  0  0  0  0  0  0  0  0  0  0
   45.3140   34.3040   45.4940 N   0  0  0  0  0  0  0  0  0  0  0  0
   48.6810   31.9980   37.2070 C   0  0  0  0  0  0  0  0  0  0  0  0
   49.8420   32.5420   37.1100 O   0  0  0  0  0  0  0  0  0  0  0  0
   48.1850   31.1760   36.1990 O   0  0  0  0  0  0  0  0  0  0  0  0
   47.8290   31.7810   34.9720 C   0  0  0  0  0  0  0  0  0  0  0  0
   46.6910   32.4610   34.5910 C   0  0  0  0  0  0  0  0  0  0  0  0
   46.8060   32.8580   33.3100 N   0  0  0  0  0  0  0  0  0  0  0  0
   47.9950   32.4570   32.8280 C   0  0  0  0  0  0  0  0  0  0  0  0
   48.6460   32.5730   31.6180 C   0  0  0  0  0  0  0  0  0  0  0  0
   49.8990   32.0730   31.3330 C   0  0  0  0  0  0  0  0  0  0  0  0
   50.4870   31.4090   32.4140 C   0  0  0  0  0  0  0  0  0  0  0  0
   49.9020   31.2510   33.6520 C   0  0  0  0  0  0  0  0  0  0  0  0
   48.6500   31.7870   33.8370 C   0  0  0  0  0  0  0  0  0  0  0  0
   48.6099   34.5431   38.7306 H   0  0  0  0  0  0  0  0  0  0  0  0
   46.2462   33.4804   37.3937 H   0  0  0  0  0  0  0  0  0  0  0  0
   45.6028   32.9950   38.7165 H   0  0  0  0  0  0  0  0  0  0  0  0
   48.1682   31.2932   38.8111 H   0  0  0  0  0  0  0  0  0  0  0  0
   49.0945   34.1513   43.4175 H   0  0  0  0  0  0  0  0  0  0  0  0
   46.8356   33.1433   44.6310 H   0  0  0  0  0  0  0  0  0  0  0  0
   45.4350   36.5691   42.3883 H   0  0  0  0  0  0  0  0  0  0  0  0
   43.7863   35.6013   46.1871 H   0  0  0  0  0  0  0  0  0  0  0  0
   45.8208   32.6503   35.2366 H   0  0  0  0  0  0  0  0  0  0  0  0
   46.0956   33.3854   32.7827 H   0  0  0  0  0  0  0  0  0  0  0  0
   48.1220   33.1091   30.8130 H   0  0  0  0  0  0  0  0  0  0  0  0
   50.3870   32.1852   30.3536 H   0  0  0  0  0  0  0  0  0  0  0  0
   51.4896   30.9815   32.2656 H   0  0  0  0  0  0  0  0  0  0  0  0
   50.4183   30.7155   34.4623 H   0  0  0  0  0  0  0  0  0  0  0  0
  1  7  1  0
  2  3  1  0
  2  1  1  0
  3  1  1  0
  4  5  1  0
  4 10  1  0
  6  5  2  0
  7  8  2  0
  7  6  1  0
  8  4  1  0
  9 14  2  0
 10  9  1  0
 11 10  2  0
 11 12  1  0
 12 13  2  0
 13 14  1  0
 15  3  1  0
 16 15  2  0
 17 15  1  0
 18 17  1  0
 19 18  2  0
 20 19  1  0
 21 20  1  0
 21 26  2  0
 22 21  1  0
 23 22  2  0
 23 24  1  0
 24 25  2  0
 25 26  1  0
 26 18  1  0
  1 27  1  6
  2 28  1  0
  2 29  1  0
  3 30  1  1
  5 31  1  0
  9 32  1  0
 11 33  1  0
 13 34  1  0
 19 35  1  0
 20 36  1  0
 22 37  1  0
 23 38  1  0
 24 39  1  0
 25 40  1  0
M  ISO  8  27  13  28  13  29  13  30  13  31  14  32  14  33  14  34  14
M  ISO  6  35  14  36   9  37  14  38  14  39  14  40  14
M  END
>  <minimizedAffinity>  (1) 
-5.85942459

>  <minimizedRMSD>  (1) 
3.65912747

$$$$
