
     RDKit          3D

 39 42  0  0  0  0  0  0  0  0999 V2000
   45.2910   33.5020   46.2360 C   0  0  0  0  0  0  0  0  0  0  0  0
   45.7870   33.5770   44.9370 C   0  0  0  0  0  0  0  0  0  0  0  0
   46.9140   32.8430   44.6190 C   0  0  0  0  0  0  0  0  0  0  0  0
   47.4930   32.0730   45.6020 N   0  0  0  0  0  0  0  0  0  0  0  0
   46.9690   32.0340   46.8570 C   0  0  0  0  0  0  0  0  0  0  0  0
   45.8710   32.7500   47.1630 N   0  0  0  0  0  0  0  0  0  0  0  0
   45.1960   34.3850   43.8690 C   0  0  0  0  0  0  0  0  0  0  0  0
   45.4110   35.7420   43.7500 C   0  0  0  0  0  0  0  0  0  0  0  0
   44.8670   36.5280   42.7540 C   0  0  0  0  0  0  0  0  0  0  0  0
   44.0660   35.9440   41.8250 N   0  0  0  0  0  0  0  0  0  0  0  0
   43.8620   34.6120   41.9500 C   0  0  0  0  0  0  0  0  0  0  0  0
   44.3990   33.8610   42.9260 N   0  0  0  0  0  0  0  0  0  0  0  0
   43.0180   34.0190   40.9640 N   0  0  0  0  0  0  0  0  0  0  0  0
   41.8020   33.3510   41.3320 C   0  0  0  0  0  0  0  0  0  0  0  0
   41.0530   32.9510   40.0660 C   0  0  0  0  0  0  0  0  0  0  0  0
   40.9130   34.1190   39.1190 C   0  0  0  0  0  0  0  0  0  0  0  0
   42.1910   34.8810   38.9240 C   0  0  0  0  0  0  0  0  0  0  0  0
   43.3140   34.0440   39.5440 C   0  0  0  0  0  0  0  0  0  0  0  0
   47.5280   32.8270   43.3280 N   0  0  0  0  0  0  0  0  0  0  0  0
   47.4090   32.0520   42.2360 C   0  0  0  0  0  0  0  0  0  0  0  0
   48.2520   32.4960   41.2690 N   0  0  0  0  0  0  0  0  0  0  0  0
   48.8800   33.5470   41.7950 C   0  0  0  0  0  0  0  0  0  0  0  0
   48.4360   33.7540   43.0630 N   0  0  0  0  0  0  0  0  0  0  0  0
   44.3944   34.0816   46.5009 H   0  0  0  0  0  0  0  0  0  0  0  0
   47.4468   31.4120   47.6283 H   0  0  0  0  0  0  0  0  0  0  0  0
   46.0567   36.2288   44.4957 H   0  0  0  0  0  0  0  0  0  0  0  0
   45.0781   37.6068   42.7133 H   0  0  0  0  0  0  0  0  0  0  0  0
   42.0385   32.4521   41.9202 H   0  0  0  0  0  0  0  0  0  0  0  0
   41.1766   34.0240   41.9369 H   0  0  0  0  0  0  0  0  0  0  0  0
   41.6065   32.1452   39.5617 H   0  0  0  0  0  0  0  0  0  0  0  0
   40.0459   32.6123   40.3508 H   0  0  0  0  0  0  0  0  0  0  0  0
   40.5807   33.7385   38.1419 H   0  0  0  0  0  0  0  0  0  0  0  0
   40.1841   34.8130   39.5629 H   0  0  0  0  0  0  0  0  0  0  0  0
   42.3808   35.0311   37.8509 H   0  0  0  0  0  0  0  0  0  0  0  0
   42.1327   35.8712   39.3996 H   0  0  0  0  0  0  0  0  0  0  0  0
   43.3115   33.0250   39.1298 H   0  0  0  0  0  0  0  0  0  0  0  0
   44.3087   34.4645   39.3349 H   0  0  0  0  0  0  0  0  0  0  0  0
   46.7322   31.1901   42.1406 H   0  0  0  0  0  0  0  0  0  0  0  0
   49.6407   34.1538   41.2820 H   0  0  0  0  0  0  0  0  0  0  0  0
  1  6  2  0
  2  1  1  0
  3  2  2  0
  3  4  1  0
  4  5  2  0
  5  6  1  0
  7  2  1  0
  8  7  2  0
  9  8  1  0
 10 11  1  0
 10  9  2  0
 11 12  2  0
 12  7  1  0
 13 14  1  0
 13 11  1  0
 15 14  1  0
 16 15  1  0
 17 16  1  0
 17 18  1  0
 18 13  1  0
 19  3  1  0
 20 19  1  0
 21 22  1  0
 21 20  2  0
 22 23  2  0
 23 19  1  0
  1 24  1  0
  5 25  1  0
  8 26  1  0
  9 27  1  0
 14 28  1  0
 14 29  1  0
 15 30  1  0
 15 31  1  0
 16 32  1  0
 16 33  1  0
 17 34  1  0
 17 35  1  0
 18 36  1  0
 18 37  1  0
 20 38  1  0
 22 39  1  0
M  ISO  8  24  14  25  14  26  14  27  14  28  13  29  13  30  13  31  13
M  ISO  8  32  13  33  13  34  13  35  13  36  13  37  13  38  14  39  14
M  END
>  <minimizedAffinity>  (1) 
-4.99176741

>  <minimizedRMSD>  (1) 
0.550852835

$$$$
