
     RDKit          3D

 34 37  0  0  0  0  0  0  0  0999 V2000
   45.2230   34.3010   43.9830 C   0  0  0  0  0  0  0  0  0  0  0  0
   45.4380   35.6540   43.8820 C   0  0  0  0  0  0  0  0  0  0  0  0
   44.9190   36.4590   42.8830 C   0  0  0  0  0  0  0  0  0  0  0  0
   44.1450   35.8860   41.9350 N   0  0  0  0  0  0  0  0  0  0  0  0
   43.9340   34.5480   42.0380 C   0  0  0  0  0  0  0  0  0  0  0  0
   44.4520   33.7870   43.0220 N   0  0  0  0  0  0  0  0  0  0  0  0
   43.1340   33.8210   41.1010 N   0  0  0  0  0  0  0  0  0  0  0  0
   42.8050   34.6420   40.0620 C   0  0  0  0  0  0  0  0  0  0  0  0
   42.0210   34.1630   39.0070 C   0  0  0  0  0  0  0  0  0  0  0  0
   41.6060   32.8490   39.0660 C   0  0  0  0  0  0  0  0  0  0  0  0
   40.8970   32.3780   38.1350 O   0  0  0  0  0  0  0  0  0  0  0  0
   41.9650   32.0860   40.1210 N   0  0  0  0  0  0  0  0  0  0  0  0
   42.7190   32.5660   41.1260 C   0  0  0  0  0  0  0  0  0  0  0  0
   43.0970   31.9320   42.1370 O   0  0  0  0  0  0  0  0  0  0  0  0
   45.3150   33.4810   46.3690 C   0  0  0  0  0  0  0  0  0  0  0  0
   45.7930   33.4820   45.0590 C   0  0  0  0  0  0  0  0  0  0  0  0
   46.8650   32.6690   44.7410 C   0  0  0  0  0  0  0  0  0  0  0  0
   47.4150   31.8970   45.7230 N   0  0  0  0  0  0  0  0  0  0  0  0
   46.9150   31.9250   46.9940 C   0  0  0  0  0  0  0  0  0  0  0  0
   45.8810   32.7080   47.3060 N   0  0  0  0  0  0  0  0  0  0  0  0
   47.4400   32.5840   43.4390 N   0  0  0  0  0  0  0  0  0  0  0  0
   47.2730   31.7690   42.3740 C   0  0  0  0  0  0  0  0  0  0  0  0
   48.0900   32.1370   41.3690 N   0  0  0  0  0  0  0  0  0  0  0  0
   48.7680   33.1940   41.8270 C   0  0  0  0  0  0  0  0  0  0  0  0
   48.3750   33.4780   43.1020 N   0  0  0  0  0  0  0  0  0  0  0  0
   46.0665   36.1308   44.6486 H   0  0  0  0  0  0  0  0  0  0  0  0
   45.1312   37.5381   42.8612 H   0  0  0  0  0  0  0  0  0  0  0  0
   43.1574   35.6840   40.0539 H   0  0  0  0  0  0  0  0  0  0  0  0
   41.7456   34.8105   38.1615 H   0  0  0  0  0  0  0  0  0  0  0  0
   41.6515   31.1055   40.1571 H   0  0  0  0  0  0  0  0  0  0  0  0
   44.4626   34.1228   46.6366 H   0  0  0  0  0  0  0  0  0  0  0  0
   47.3711   31.2934   47.7706 H   0  0  0  0  0  0  0  0  0  0  0  0
   46.5692   30.9245   42.3339 H   0  0  0  0  0  0  0  0  0  0  0  0
   49.5288   33.7512   41.2607 H   0  0  0  0  0  0  0  0  0  0  0  0
  1 16  1  0
  2  1  2  0
  3  2  1  0
  4  5  1  0
  4  3  2  0
  5  6  2  0
  6  1  1  0
  7 13  1  0
  7  5  1  0
  8  7  1  0
  9 10  1  0
  9  8  2  0
 10 12  1  0
 11 10  2  0
 12 13  1  0
 13 14  2  0
 15 20  2  0
 16 15  1  0
 17 16  2  0
 17 18  1  0
 18 19  2  0
 19 20  1  0
 21 17  1  0
 22 21  1  0
 23 24  1  0
 23 22  2  0
 24 25  2  0
 25 21  1  0
  2 26  1  0
  3 27  1  0
  8 28  1  0
  9 29  1  0
 12 30  1  0
 15 31  1  0
 19 32  1  0
 22 33  1  0
 24 34  1  0
M  ISO  8  26  14  27  14  28  14  29  14  30   9  31  14  32  14  33  14
M  ISO  1  34  14
M  END
>  <minimizedAffinity>  (1) 
-5.1847868

>  <minimizedRMSD>  (1) 
0.476405561

$$$$
