
     RDKit          3D

 37 40  0  0  0  0  0  0  0  0999 V2000
   45.2750   33.4740   46.3910 C   0  0  0  0  0  0  0  0  0  0  0  0
   45.7820   33.5040   45.1030 C   0  0  0  0  0  0  0  0  0  0  0  0
   46.8900   32.7210   44.8050 C   0  0  0  0  0  0  0  0  0  0  0  0
   47.4330   31.9500   45.8060 N   0  0  0  0  0  0  0  0  0  0  0  0
   46.8960   31.9570   47.0560 C   0  0  0  0  0  0  0  0  0  0  0  0
   45.8240   32.7180   47.3370 N   0  0  0  0  0  0  0  0  0  0  0  0
   45.2330   34.3100   44.0100 C   0  0  0  0  0  0  0  0  0  0  0  0
   45.3480   35.6740   43.9530 C   0  0  0  0  0  0  0  0  0  0  0  0
   44.8450   36.4710   42.9410 C   0  0  0  0  0  0  0  0  0  0  0  0
   44.1870   35.8730   41.9220 N   0  0  0  0  0  0  0  0  0  0  0  0
   44.0700   34.5250   41.9730 C   0  0  0  0  0  0  0  0  0  0  0  0
   44.5740   33.7730   42.9790 N   0  0  0  0  0  0  0  0  0  0  0  0
   43.3500   33.8200   40.8700 C   0  0  0  0  0  0  0  0  0  0  0  0
   42.7590   34.7970   39.8660 C   0  0  0  0  0  0  0  0  0  0  0  0
   41.8600   33.8270   39.0880 C   0  0  0  0  0  0  0  0  0  0  0  0
   41.0620   33.2570   40.2520 C   0  0  0  0  0  0  0  0  0  0  0  0
   42.1440   33.0620   41.3220 C   0  0  0  0  0  0  0  0  0  0  0  0
   47.5180   32.6560   43.5140 N   0  0  0  0  0  0  0  0  0  0  0  0
   47.4630   31.7920   42.4840 C   0  0  0  0  0  0  0  0  0  0  0  0
   48.2680   32.2100   41.4870 N   0  0  0  0  0  0  0  0  0  0  0  0
   48.8130   33.3440   41.9290 C   0  0  0  0  0  0  0  0  0  0  0  0
   48.3530   33.6220   43.1760 N   0  0  0  0  0  0  0  0  0  0  0  0
   44.3976   34.0900   46.6374 H   0  0  0  0  0  0  0  0  0  0  0  0
   47.3433   31.3339   47.8444 H   0  0  0  0  0  0  0  0  0  0  0  0
   45.8813   36.1735   44.7752 H   0  0  0  0  0  0  0  0  0  0  0  0
   44.9767   37.5628   42.9642 H   0  0  0  0  0  0  0  0  0  0  0  0
   44.1263   33.1596   40.4563 H   0  0  0  0  0  0  0  0  0  0  0  0
   42.1796   35.5928   40.3568 H   0  0  0  0  0  0  0  0  0  0  0  0
   43.4898   35.3535   39.2608 H   0  0  0  0  0  0  0  0  0  0  0  0
   41.2176   34.3502   38.3644 H   0  0  0  0  0  0  0  0  0  0  0  0
   42.3873   33.0868   38.4683 H   0  0  0  0  0  0  0  0  0  0  0  0
   40.2896   33.9635   40.5900 H   0  0  0  0  0  0  0  0  0  0  0  0
   40.5156   32.3352   40.0034 H   0  0  0  0  0  0  0  0  0  0  0  0
   42.3859   31.9938   41.4238 H   0  0  0  0  0  0  0  0  0  0  0  0
   41.7971   33.4252   42.3006 H   0  0  0  0  0  0  0  0  0  0  0  0
   46.8508   30.8784   42.4592 H   0  0  0  0  0  0  0  0  0  0  0  0
   49.5286   33.9622   41.3671 H   0  0  0  0  0  0  0  0  0  0  0  0
  1  6  2  0
  2  1  1  0
  3  2  2  0
  3  4  1  0
  4  5  2  0
  5  6  1  0
  7  2  1  0
  8  7  2  0
  9  8  1  0
 10 11  1  0
 10  9  2  0
 11 12  2  0
 12  7  1  0
 13 17  1  0
 13 11  1  0
 14 13  1  0
 15 14  1  0
 15 16  1  0
 16 17  1  0
 18  3  1  0
 19 18  1  0
 20 21  1  0
 20 19  2  0
 21 22  2  0
 22 18  1  0
  1 23  1  0
  5 24  1  0
  8 25  1  0
  9 26  1  0
 13 27  1  0
 14 28  1  0
 14 29  1  0
 15 30  1  0
 15 31  1  0
 16 32  1  0
 16 33  1  0
 17 34  1  0
 17 35  1  0
 19 36  1  0
 21 37  1  0
M  ISO  8  23  14  24  14  25  14  26  14  27  13  28  13  29  13  30  13
M  ISO  7  31  13  32  13  33  13  34  13  35  13  36  14  37  14
M  END
>  <minimizedAffinity>  (1) 
-4.62179661

>  <minimizedRMSD>  (1) 
0.372863531

$$$$
