
     RDKit          3D

 40 44  0  0  1  0  0  0  0  0999 V2000
   47.3710   34.2950   43.0430 C   0  0  2  0  0  0  0  0  0  0  0  0
   46.3710   35.3990   42.5890 C   0  0  0  0  0  0  0  0  0  0  0  0
   47.0740   34.4470   41.5960 C   0  0  1  0  0  0  0  0  0  0  0  0
   46.1050   32.0150   45.5470 N   0  0  0  0  0  0  0  0  0  0  0  0
   45.8520   31.3100   44.4220 C   0  0  0  0  0  0  0  0  0  0  0  0
   46.2590   31.9920   43.3380 N   0  0  0  0  0  0  0  0  0  0  0  0
   46.7860   33.1660   43.8030 C   0  0  0  0  0  0  0  0  0  0  0  0
   46.6620   33.1150   45.1240 N   0  0  0  0  0  0  0  0  0  0  0  0
   45.3920   30.4270   47.2100 C   0  0  0  0  0  0  0  0  0  0  0  0
   45.8650   31.7360   46.9150 C   0  0  0  0  0  0  0  0  0  0  0  0
   46.0460   32.6010   47.9580 C   0  0  0  0  0  0  0  0  0  0  0  0
   45.7580   32.1390   49.2080 N   0  0  0  0  0  0  0  0  0  0  0  0
   45.3180   30.9170   49.4600 C   0  0  0  0  0  0  0  0  0  0  0  0
   45.1340   30.0510   48.4510 N   0  0  0  0  0  0  0  0  0  0  0  0
   48.1280   34.9370   40.7320 C   0  0  0  0  0  0  0  0  0  0  0  0
   48.9760   35.7510   41.2550 O   0  0  0  0  0  0  0  0  0  0  0  0
   48.2430   34.5680   39.4100 O   0  0  0  0  0  0  0  0  0  0  0  0
   48.3440   33.2030   39.1260 C   0  0  0  0  0  0  0  0  0  0  0  0
   49.2190   32.4020   39.7600 N   0  0  0  0  0  0  0  0  0  0  0  0
   49.3100   31.0820   39.4790 C   0  0  0  0  0  0  0  0  0  0  0  0
   48.5200   30.4880   38.5370 N   0  0  0  0  0  0  0  0  0  0  0  0
   47.6230   31.2790   37.8790 C   0  0  0  0  0  0  0  0  0  0  0  0
   46.7790   30.7510   36.9040 C   0  0  0  0  0  0  0  0  0  0  0  0
   45.8630   31.5540   36.2320 C   0  0  0  0  0  0  0  0  0  0  0  0
   45.7820   32.9170   36.5340 C   0  0  0  0  0  0  0  0  0  0  0  0
   46.6240   33.4190   37.4990 C   0  0  0  0  0  0  0  0  0  0  0  0
   47.5200   32.6300   38.1570 C   0  0  0  0  0  0  0  0  0  0  0  0
   48.3101   34.2577   43.6146 H   0  0  0  0  0  0  0  0  0  0  0  0
   45.2953   35.2955   42.7942 H   0  0  0  0  0  0  0  0  0  0  0  0
   46.2795   36.4879   42.7154 H   0  0  0  0  0  0  0  0  0  0  0  0
   46.7055   33.7827   40.8004 H   0  0  0  0  0  0  0  0  0  0  0  0
   45.3792   30.3171   44.3972 H   0  0  0  0  0  0  0  0  0  0  0  0
   45.2377   29.7125   46.3880 H   0  0  0  0  0  0  0  0  0  0  0  0
   46.4088   33.6267   47.7956 H   0  0  0  0  0  0  0  0  0  0  0  0
   45.1033   30.6112   50.4946 H   0  0  0  0  0  0  0  0  0  0  0  0
   50.0419   30.4691   40.0254 H   0  0  0  0  0  0  0  0  0  0  0  0
   46.8381   29.6797   36.6612 H   0  0  0  0  0  0  0  0  0  0  0  0
   45.2048   31.1183   35.4659 H   0  0  0  0  0  0  0  0  0  0  0  0
   45.0649   33.5695   36.0144 H   0  0  0  0  0  0  0  0  0  0  0  0
   46.5728   34.4894   37.7472 H   0  0  0  0  0  0  0  0  0  0  0  0
  1  7  1  0
  2  1  1  0
  3  2  1  0
  3  1  1  0
  4 10  1  0
  5  4  1  0
  6  7  1  0
  6  5  2  0
  7  8  2  0
  8  4  1  0
  9 14  2  0
 10  9  1  0
 10 11  2  0
 11 12  1  0
 12 13  2  0
 14 13  1  0
 15 16  2  0
 15  3  1  0
 17 15  1  0
 18 17  1  0
 18 19  2  0
 20 19  1  0
 21 20  2  0
 22 27  2  0
 22 21  1  0
 23 22  1  0
 24 25  1  0
 24 23  2  0
 25 26  2  0
 26 27  1  0
 27 18  1  0
  1 28  1  6
  2 29  1  0
  2 30  1  0
  3 31  1  6
  5 32  1  0
  9 33  1  0
 11 34  1  0
 13 35  1  0
 20 36  1  0
 23 37  1  0
 24 38  1  0
 25 39  1  0
 26 40  1  0
M  ISO  8  28  13  29  13  30  13  31  13  32  14  33  14  34  14  35  14
M  ISO  5  36  14  37  14  38  14  39  14  40  14
M  END
>  <minimizedAffinity>  (1) 
-5.5776844

>  <minimizedRMSD>  (1) 
5.52205706

$$$$
