
     RDKit          3D

 30 33  0  0  0  0  0  0  0  0999 V2000
   45.3540   33.4360   46.3590 C   0  0  0  0  0  0  0  0  0  0  0  0
   45.8230   33.4770   45.0450 C   0  0  0  0  0  0  0  0  0  0  0  0
   46.9440   32.7190   44.7260 C   0  0  0  0  0  0  0  0  0  0  0  0
   47.5270   31.9720   45.7240 N   0  0  0  0  0  0  0  0  0  0  0  0
   47.0270   31.9720   46.9830 C   0  0  0  0  0  0  0  0  0  0  0  0
   45.9540   32.6970   47.2900 N   0  0  0  0  0  0  0  0  0  0  0  0
   45.2290   34.2540   43.9720 C   0  0  0  0  0  0  0  0  0  0  0  0
   45.4510   35.6110   43.8110 C   0  0  0  0  0  0  0  0  0  0  0  0
   44.9100   36.3890   42.8110 C   0  0  0  0  0  0  0  0  0  0  0  0
   44.1050   35.7950   41.9210 N   0  0  0  0  0  0  0  0  0  0  0  0
   43.8780   34.4630   42.0650 C   0  0  0  0  0  0  0  0  0  0  0  0
   44.4220   33.7320   43.0530 N   0  0  0  0  0  0  0  0  0  0  0  0
   42.9810   33.8780   41.0460 C   0  0  0  0  0  0  0  0  0  0  0  0
   42.9160   34.6250   39.7930 C   0  0  0  0  0  0  0  0  0  0  0  0
   41.8030   33.7540   38.7450 S   0  0  0  0  0  0  0  0  0  0  0  0
   41.5250   32.4460   40.1130 C   0  0  0  0  0  0  0  0  0  0  0  0
   42.2010   32.8360   40.9550 N   0  0  0  0  0  0  0  0  0  0  0  0
   47.5340   32.6620   43.4280 N   0  0  0  0  0  0  0  0  0  0  0  0
   47.3960   31.8570   42.3560 C   0  0  0  0  0  0  0  0  0  0  0  0
   48.2170   32.2710   41.3760 N   0  0  0  0  0  0  0  0  0  0  0  0
   48.8610   33.3400   41.8550 C   0  0  0  0  0  0  0  0  0  0  0  0
   48.4390   33.5760   43.1130 N   0  0  0  0  0  0  0  0  0  0  0  0
   44.4680   34.0281   46.6318 H   0  0  0  0  0  0  0  0  0  0  0  0
   47.5137   31.3655   47.7610 H   0  0  0  0  0  0  0  0  0  0  0  0
   46.1108   36.1067   44.5383 H   0  0  0  0  0  0  0  0  0  0  0  0
   45.1323   37.4643   42.7457 H   0  0  0  0  0  0  0  0  0  0  0  0
   43.4573   35.5516   39.5514 H   0  0  0  0  0  0  0  0  0  0  0  0
   40.8839   31.5523   40.0970 H   0  0  0  0  0  0  0  0  0  0  0  0
   46.7164   30.9944   42.2930 H   0  0  0  0  0  0  0  0  0  0  0  0
   49.6128   33.9307   41.3111 H   0  0  0  0  0  0  0  0  0  0  0  0
  1  6  2  0
  2  1  1  0
  3  2  2  0
  3  4  1  0
  4  5  2  0
  5  6  1  0
  7  2  1  0
  8  7  2  0
  9  8  1  0
 10 11  1  0
 10  9  2  0
 11 12  2  0
 12  7  1  0
 13 11  1  0
 14 13  2  0
 15 14  1  0
 15 16  1  0
 16 17  2  0
 17 13  1  0
 18  3  1  0
 19 18  1  0
 20 21  1  0
 20 19  2  0
 21 22  2  0
 22 18  1  0
  1 23  1  0
  5 24  1  0
  8 25  1  0
  9 26  1  0
 14 27  1  0
 16 28  1  0
 19 29  1  0
 21 30  1  0
M  ISO  8  23  14  24  14  25  14  26  14  27  14  28  14  29  14  30  14
M  END
>  <minimizedAffinity>  (1) 
-4.44927216

>  <minimizedRMSD>  (1) 
0.407765001

$$$$
