
     RDKit          3D

 34 37  0  0  1  0  0  0  0  0999 V2000
   47.7040   33.9370   42.3650 C   0  0  2  0  0  0  0  0  0  0  0  0
   48.1960   35.3530   41.9630 C   0  0  0  0  0  0  0  0  0  0  0  0
   47.1290   34.5910   41.1610 C   0  0  1  0  0  0  0  0  0  0  0  0
   46.3350   33.1650   45.6080 N   0  0  0  0  0  0  0  0  0  0  0  0
   45.4610   34.1370   45.2080 C   0  0  0  0  0  0  0  0  0  0  0  0
   45.8030   34.5700   43.9860 N   0  0  0  0  0  0  0  0  0  0  0  0
   46.9100   33.8530   43.6210 C   0  0  0  0  0  0  0  0  0  0  0  0
   47.1820   33.0310   44.6270 N   0  0  0  0  0  0  0  0  0  0  0  0
   45.3420   32.6400   47.7470 C   0  0  0  0  0  0  0  0  0  0  0  0
   46.3930   32.4110   46.8120 C   0  0  0  0  0  0  0  0  0  0  0  0
   47.3550   31.4990   47.1450 C   0  0  0  0  0  0  0  0  0  0  0  0
   47.2360   30.8790   48.3480 N   0  0  0  0  0  0  0  0  0  0  0  0
   46.2540   31.1050   49.2030 C   0  0  0  0  0  0  0  0  0  0  0  0
   45.3010   31.9900   48.9010 N   0  0  0  0  0  0  0  0  0  0  0  0
   47.4320   34.0120   39.8670 C   0  0  0  0  0  0  0  0  0  0  0  0
   48.2640   34.6530   39.1240 O   0  0  0  0  0  0  0  0  0  0  0  0
   46.8600   32.8250   39.4360 O   0  0  0  0  0  0  0  0  0  0  0  0
   46.7830   32.5030   38.0940 C   0  0  0  0  0  0  0  0  0  0  0  0
   45.6690   32.9630   37.4210 C   0  0  0  0  0  0  0  0  0  0  0  0
   45.5080   32.6910   36.0840 C   0  0  0  0  0  0  0  0  0  0  0  0
   46.4320   31.9680   35.3860 N   0  0  0  0  0  0  0  0  0  0  0  0
   47.5260   31.5230   36.0740 C   0  0  0  0  0  0  0  0  0  0  0  0
   47.6830   31.7910   37.3880 N   0  0  0  0  0  0  0  0  0  0  0  0
   48.1626   32.9520   42.5363 H   0  0  0  0  0  0  0  0  0  0  0  0
   47.9186   36.2307   42.5653 H   0  0  0  0  0  0  0  0  0  0  0  0
   49.1667   35.8219   41.7442 H   0  0  0  0  0  0  0  0  0  0  0  0
   46.1194   34.8600   40.8171 H   0  0  0  0  0  0  0  0  0  0  0  0
   44.6090   34.5067   45.7974 H   0  0  0  0  0  0  0  0  0  0  0  0
   44.5527   33.3676   47.5070 H   0  0  0  0  0  0  0  0  0  0  0  0
   48.1916   31.2760   46.4665 H   0  0  0  0  0  0  0  0  0  0  0  0
   46.2218   30.5654   50.1610 H   0  0  0  0  0  0  0  0  0  0  0  0
   44.9079   33.5491   37.9568 H   0  0  0  0  0  0  0  0  0  0  0  0
   44.6137   33.0645   35.5638 H   0  0  0  0  0  0  0  0  0  0  0  0
   48.2927   30.9357   35.5475 H   0  0  0  0  0  0  0  0  0  0  0  0
  1  7  1  0
  2  1  1  0
  3  2  1  0
  3  1  1  0
  4 10  1  0
  5  4  1  0
  6  5  2  0
  7  6  1  0
  7  8  2  0
  8  4  1  0
  9 14  2  0
 10 11  2  0
 10  9  1  0
 11 12  1  0
 12 13  2  0
 14 13  1  0
 15  3  1  0
 16 15  2  0
 17 15  1  0
 18 17  1  0
 19 18  2  0
 20 19  1  0
 21 22  1  0
 21 20  2  0
 22 23  2  0
 23 18  1  0
  1 24  1  6
  2 25  1  0
  2 26  1  0
  3 27  1  1
  5 28  1  0
  9 29  1  0
 11 30  1  0
 13 31  1  0
 19 32  1  0
 20 33  1  0
 22 34  1  0
M  ISO  8  24  13  25  13  26  13  27  13  28  14  29  14  30  14  31  14
M  ISO  3  32  14  33  14  34  14
M  END
>  <minimizedAffinity>  (1) 
-5.20172119

>  <minimizedRMSD>  (1) 
5.32599497

$$$$
