
     RDKit          3D

 27 29  0  0  0  0  0  0  0  0999 V2000
   45.3460   33.4880   46.3350 C   0  0  0  0  0  0  0  0  0  0  0  0
   45.7920   33.4950   45.0170 C   0  0  0  0  0  0  0  0  0  0  0  0
   46.9050   32.7170   44.6970 C   0  0  0  0  0  0  0  0  0  0  0  0
   47.5040   31.9840   45.6980 N   0  0  0  0  0  0  0  0  0  0  0  0
   47.0220   32.0190   46.9650 C   0  0  0  0  0  0  0  0  0  0  0  0
   45.9570   32.7630   47.2710 N   0  0  0  0  0  0  0  0  0  0  0  0
   45.1890   34.2550   43.9300 C   0  0  0  0  0  0  0  0  0  0  0  0
   45.4910   35.5820   43.6960 C   0  0  0  0  0  0  0  0  0  0  0  0
   44.9340   36.3260   42.6720 C   0  0  0  0  0  0  0  0  0  0  0  0
   44.0450   35.7450   41.8430 N   0  0  0  0  0  0  0  0  0  0  0  0
   43.7560   34.4350   42.0870 C   0  0  0  0  0  0  0  0  0  0  0  0
   44.3070   33.7330   43.0860 N   0  0  0  0  0  0  0  0  0  0  0  0
   42.8030   33.7220   41.2430 C   0  0  0  0  0  0  0  0  0  0  0  0
   42.9160   33.6180   39.9860 O   0  0  0  0  0  0  0  0  0  0  0  0
   41.6650   33.0720   41.6990 O   0  0  0  0  0  0  0  0  0  0  0  0
   47.4750   32.6250   43.3900 N   0  0  0  0  0  0  0  0  0  0  0  0
   47.2760   31.8550   42.3190 C   0  0  0  0  0  0  0  0  0  0  0  0
   48.1010   32.1920   41.3210 N   0  0  0  0  0  0  0  0  0  0  0  0
   48.8380   33.2090   41.7980 C   0  0  0  0  0  0  0  0  0  0  0  0
   48.4520   33.4770   43.0750 N   0  0  0  0  0  0  0  0  0  0  0  0
   44.4702   34.0940   46.6100 H   0  0  0  0  0  0  0  0  0  0  0  0
   47.5148   31.4269   47.7502 H   0  0  0  0  0  0  0  0  0  0  0  0
   46.2152   36.0748   44.3614 H   0  0  0  0  0  0  0  0  0  0  0  0
   45.2138   37.3811   42.5358 H   0  0  0  0  0  0  0  0  0  0  0  0
   41.0684   32.6101   41.0580 H   0  0  0  0  0  0  0  0  0  0  0  0
   46.5306   31.0480   42.2636 H   0  0  0  0  0  0  0  0  0  0  0  0
   49.6269   33.7399   41.2450 H   0  0  0  0  0  0  0  0  0  0  0  0
  1  6  2  0
  2  1  1  0
  3  2  2  0
  3  4  1  0
  4  5  2  0
  5  6  1  0
  7  2  1  0
  8  7  2  0
  9  8  1  0
 10 11  1  0
 10  9  2  0
 11 12  2  0
 12  7  1  0
 13 15  1  0
 13 11  1  0
 14 13  2  0
 16  3  1  0
 17 16  1  0
 18 19  1  0
 18 17  2  0
 19 20  2  0
 20 16  1  0
  1 21  1  0
  5 22  1  0
  8 23  1  0
  9 24  1  0
 15 25  1  0
 17 26  1  0
 19 27  1  0
M  ISO  7  21  14  22  14  23  14  24  14  25   3  26  14  27  14
M  END
>  <minimizedAffinity>  (1) 
-4.12981987

>  <minimizedRMSD>  (1) 
0.646906376

$$$$
