
     RDKit          3D

 42 45  0  0  1  0  0  0  0  0999 V2000
   47.9440   33.5900   39.1470 C   0  0  2  0  0  0  0  0  0  0  0  0
   48.6600   34.9140   38.7570 C   0  0  0  0  0  0  0  0  0  0  0  0
   47.9220   34.0320   37.7280 C   0  0  1  0  0  0  0  0  0  0  0  0
   45.5310   34.0970   41.7940 N   0  0  0  0  0  0  0  0  0  0  0  0
   44.7080   33.8550   40.7520 C   0  0  0  0  0  0  0  0  0  0  0  0
   45.4130   33.6280   39.6270 N   0  0  0  0  0  0  0  0  0  0  0  0
   46.7300   33.7330   39.9840 C   0  0  0  0  0  0  0  0  0  0  0  0
   46.7310   34.0120   41.2820 N   0  0  0  0  0  0  0  0  0  0  0  0
   44.6470   35.6320   43.4270 C   0  0  0  0  0  0  0  0  0  0  0  0
   45.2850   34.3860   43.1560 C   0  0  0  0  0  0  0  0  0  0  0  0
   45.5990   33.5930   44.2230 C   0  0  0  0  0  0  0  0  0  0  0  0
   45.2790   34.0490   45.4650 N   0  0  0  0  0  0  0  0  0  0  0  0
   44.6830   35.2160   45.6940 C   0  0  0  0  0  0  0  0  0  0  0  0
   44.3620   36.0150   44.6640 N   0  0  0  0  0  0  0  0  0  0  0  0
   48.6630   33.2470   36.7620 C   0  0  0  0  0  0  0  0  0  0  0  0
   49.6350   32.5400   37.2160 O   0  0  0  0  0  0  0  0  0  0  0  0
   48.3680   33.2400   35.4210 O   0  0  0  0  0  0  0  0  0  0  0  0
   48.8710   32.2580   34.5690 C   0  0  0  0  0  0  0  0  0  0  0  0
   48.0230   31.0430   34.4350 C   0  0  0  0  0  0  0  0  0  0  0  0
   47.6120   30.9070   32.9640 C   0  0  0  0  0  0  0  0  0  0  0  0
   48.9280   30.6130   32.2360 C   0  0  0  0  0  0  0  0  0  0  0  0
   49.8640   31.7770   32.3860 C   0  0  0  0  0  0  0  0  0  0  0  0
   49.2700   32.8650   33.2190 C   0  0  0  0  0  0  0  0  0  0  0  0
   48.2277   32.6449   39.6331 H   0  0  0  0  0  0  0  0  0  0  0  0
   48.2411   35.8846   39.0612 H   0  0  0  0  0  0  0  0  0  0  0  0
   49.6730   35.3291   38.8640 H   0  0  0  0  0  0  0  0  0  0  0  0
   47.1391   34.2406   36.9840 H   0  0  0  0  0  0  0  0  0  0  0  0
   43.6098   33.8446   40.8133 H   0  0  0  0  0  0  0  0  0  0  0  0
   44.3843   36.2929   42.5878 H   0  0  0  0  0  0  0  0  0  0  0  0
   46.0931   32.6202   44.0835 H   0  0  0  0  0  0  0  0  0  0  0  0
   44.4538   35.5255   46.7244 H   0  0  0  0  0  0  0  0  0  0  0  0
   49.7794   31.8737   35.0560 H   0  0  0  0  0  0  0  0  0  0  0  0
   48.5925   30.1549   34.7464 H   0  0  0  0  0  0  0  0  0  0  0  0
   47.1310   31.1293   35.0729 H   0  0  0  0  0  0  0  0  0  0  0  0
   46.8992   30.0796   32.8323 H   0  0  0  0  0  0  0  0  0  0  0  0
   47.1084   31.8067   32.5806 H   0  0  0  0  0  0  0  0  0  0  0  0
   48.7246   30.4434   31.1684 H   0  0  0  0  0  0  0  0  0  0  0  0
   49.3916   29.7160   32.6724 H   0  0  0  0  0  0  0  0  0  0  0  0
   50.7911   31.4285   32.8645 H   0  0  0  0  0  0  0  0  0  0  0  0
   50.0641   32.1850   31.3843 H   0  0  0  0  0  0  0  0  0  0  0  0
   50.0095   33.6647   33.3724 H   0  0  0  0  0  0  0  0  0  0  0  0
   48.3912   33.2963   32.7173 H   0  0  0  0  0  0  0  0  0  0  0  0
  1  7  1  0
  2  1  1  0
  3  2  1  0
  3  1  1  0
  4 10  1  0
  5  4  1  0
  6  7  1  0
  6  5  2  0
  7  8  2  0
  8  4  1  0
  9 14  2  0
 10  9  1  0
 10 11  2  0
 11 12  1  0
 12 13  2  0
 14 13  1  0
 15 16  2  0
 15  3  1  0
 17 15  1  0
 18 17  1  0
 19 18  1  0
 20 19  1  0
 21 22  1  0
 21 20  1  0
 22 23  1  0
 23 18  1  0
  1 24  1  6
  2 25  1  0
  2 26  1  0
  3 27  1  6
  5 28  1  0
  9 29  1  0
 11 30  1  0
 13 31  1  0
 18 32  1  0
 19 33  1  0
 19 34  1  0
 20 35  1  0
 20 36  1  0
 21 37  1  0
 21 38  1  0
 22 39  1  0
 22 40  1  0
 23 41  1  0
 23 42  1  0
M  ISO  8  24  13  25  13  26  13  27  13  28  14  29  14  30  14  31  14
M  ISO  8  32  13  33  13  34  13  35  13  36  13  37  13  38  13  39  13
M  ISO  3  40  13  41  13  42  13
M  END
>  <minimizedAffinity>  (1) 
-4.96970654

>  <minimizedRMSD>  (1) 
3.45605326

$$$$
