
     RDKit          3D

 32 35  0  0  0  0  0  0  0  0999 V2000
   45.3560   33.4390   46.4440 C   0  0  0  0  0  0  0  0  0  0  0  0
   45.8240   33.4220   45.1290 C   0  0  0  0  0  0  0  0  0  0  0  0
   46.8710   32.5860   44.8230 C   0  0  0  0  0  0  0  0  0  0  0  0
   47.4290   31.7980   45.7930 N   0  0  0  0  0  0  0  0  0  0  0  0
   46.9300   31.8520   47.0740 C   0  0  0  0  0  0  0  0  0  0  0  0
   45.9220   32.6540   47.3760 N   0  0  0  0  0  0  0  0  0  0  0  0
   45.2630   34.2440   44.0540 C   0  0  0  0  0  0  0  0  0  0  0  0
   45.5380   35.5730   43.9240 C   0  0  0  0  0  0  0  0  0  0  0  0
   45.0310   36.3850   42.9250 C   0  0  0  0  0  0  0  0  0  0  0  0
   44.1960   35.8240   42.0000 N   0  0  0  0  0  0  0  0  0  0  0  0
   43.9290   34.5030   42.1380 C   0  0  0  0  0  0  0  0  0  0  0  0
   44.4430   33.7380   43.1260 N   0  0  0  0  0  0  0  0  0  0  0  0
   43.0410   33.9040   41.1540 C   0  0  0  0  0  0  0  0  0  0  0  0
   42.8080   34.3480   39.8610 C   0  0  0  0  0  0  0  0  0  0  0  0
   41.8970   33.4720   39.3010 C   0  0  0  0  0  0  0  0  0  0  0  0
   41.5850   32.5380   40.2100 N   0  0  0  0  0  0  0  0  0  0  0  0
   42.2680   32.7980   41.3090 N   0  0  0  0  0  0  0  0  0  0  0  0
   47.4440   32.4770   43.5040 N   0  0  0  0  0  0  0  0  0  0  0  0
   47.2790   31.6780   42.4540 C   0  0  0  0  0  0  0  0  0  0  0  0
   48.0880   32.0210   41.4430 N   0  0  0  0  0  0  0  0  0  0  0  0
   48.7800   33.0790   41.8950 C   0  0  0  0  0  0  0  0  0  0  0  0
   48.3830   33.3610   43.1640 N   0  0  0  0  0  0  0  0  0  0  0  0
   49.7740   33.8690   41.2880 O   0  0  0  0  0  0  0  0  0  0  0  0
   44.5195   34.0985   46.7186 H   0  0  0  0  0  0  0  0  0  0  0  0
   47.3748   31.2203   47.8571 H   0  0  0  0  0  0  0  0  0  0  0  0
   46.2096   36.0316   44.6648 H   0  0  0  0  0  0  0  0  0  0  0  0
   45.2927   37.4523   42.8767 H   0  0  0  0  0  0  0  0  0  0  0  0
   43.2598   35.2258   39.3758 H   0  0  0  0  0  0  0  0  0  0  0  0
   41.4949   33.5317   38.2789 H   0  0  0  0  0  0  0  0  0  0  0  0
   40.9285   31.7559   40.0749 H   0  0  0  0  0  0  0  0  0  0  0  0
   46.5671   30.8401   42.4199 H   0  0  0  0  0  0  0  0  0  0  0  0
   50.1790   34.6233   41.7852 H   0  0  0  0  0  0  0  0  0  0  0  0
  1  6  2  0
  2  1  1  0
  3  2  2  0
  3  4  1  0
  4  5  2  0
  5  6  1  0
  7  2  1  0
  8  7  2  0
  9  8  1  0
 10 11  1  0
 10  9  2  0
 11 12  2  0
 12  7  1  0
 13 17  2  0
 13 11  1  0
 14 13  1  0
 15 14  2  0
 15 16  1  0
 16 17  1  0
 18  3  1  0
 19 18  1  0
 20 21  1  0
 20 19  2  0
 21 22  2  0
 22 18  1  0
 23 21  1  0
  1 24  1  0
  5 25  1  0
  8 26  1  0
  9 27  1  0
 14 28  1  0
 15 29  1  0
 16 30  1  0
 19 31  1  0
 23 32  1  0
M  ISO  8  24  14  25  14  26  14  27  14  28  14  29  14  30   9  31  14
M  ISO  1  32   3
M  END
>  <minimizedAffinity>  (1) 
-4.82706165

>  <minimizedRMSD>  (1) 
0.310192704

$$$$
