
     RDKit          3D

 35 37  0  0  1  0  0  0  0  0999 V2000
   46.0190   33.9640   45.2830 C   0  0  2  0  0  0  0  0  0  0  0  0
   44.8460   34.8990   45.4320 C   0  0  0  0  0  0  0  0  0  0  0  0
   44.5490   35.8140   44.3570 C   0  0  0  0  0  0  0  0  0  0  0  0
   45.3890   35.8020   43.1640 C   0  0  0  0  0  0  0  0  0  0  0  0
   46.5370   34.8820   43.1370 C   0  0  1  0  0  0  0  0  0  0  0  0
   46.2150   33.5970   43.8460 C   0  0  0  0  0  0  0  0  0  0  0  0
   46.7870   34.4980   41.7400 N   0  0  0  0  0  0  0  0  0  0  0  0
   45.8190   33.7960   41.1620 C   0  0  0  0  0  0  0  0  0  0  0  0
   46.0090   33.4090   39.8440 C   0  0  0  0  0  0  0  0  0  0  0  0
   47.1880   33.7830   39.2360 C   0  0  0  0  0  0  0  0  0  0  0  0
   47.5120   33.4570   37.8950 N   0  0  0  0  0  0  0  0  0  0  0  0
   48.1270   34.4970   39.8870 N   0  0  0  0  0  0  0  0  0  0  0  0
   47.9400   34.8770   41.1830 C   0  0  0  0  0  0  0  0  0  0  0  0
   48.7840   35.5400   41.8280 O   0  0  0  0  0  0  0  0  0  0  0  0
   45.2630   32.9890   47.4460 C   0  0  0  0  0  0  0  0  0  0  0  0
   45.8220   32.7880   46.1630 C   0  0  0  0  0  0  0  0  0  0  0  0
   46.1740   31.4630   45.7900 C   0  0  0  0  0  0  0  0  0  0  0  0
   45.9580   30.4640   46.6800 N   0  0  0  0  0  0  0  0  0  0  0  0
   45.4180   30.7030   47.9020 C   0  0  0  0  0  0  0  0  0  0  0  0
   45.0770   31.9590   48.2710 N   0  0  0  0  0  0  0  0  0  0  0  0
   46.9467   34.4618   45.6016 H   0  0  0  0  0  0  0  0  0  0  0  0
   44.2288   34.8839   46.3424 H   0  0  0  0  0  0  0  0  0  0  0  0
   43.7014   36.5108   44.4356 H   0  0  0  0  0  0  0  0  0  0  0  0
   44.7431   35.5443   42.3117 H   0  0  0  0  0  0  0  0  0  0  0  0
   45.8398   36.8050   43.1352 H   0  0  0  0  0  0  0  0  0  0  0  0
   47.3892   35.3897   43.6124 H   0  0  0  0  0  0  0  0  0  0  0  0
   45.2965   33.1524   43.4353 H   0  0  0  0  0  0  0  0  0  0  0  0
   47.0169   32.8542   43.7230 H   0  0  0  0  0  0  0  0  0  0  0  0
   44.9014   33.5316   41.7080 H   0  0  0  0  0  0  0  0  0  0  0  0
   45.2480   32.8260   39.3045 H   0  0  0  0  0  0  0  0  0  0  0  0
   48.4093   33.7637   37.4928 H   0  0  0  0  0  0  0  0  0  0  0  0
   46.8502   32.9134   37.3228 H   0  0  0  0  0  0  0  0  0  0  0  0
   44.9796   34.0027   47.7655 H   0  0  0  0  0  0  0  0  0  0  0  0
   46.6113   31.2531   44.8027 H   0  0  0  0  0  0  0  0  0  0  0  0
   45.2561   29.8675   48.5989 H   0  0  0  0  0  0  0  0  0  0  0  0
  1  2  1  0
  1 16  1  0
  3  2  2  0
  4  3  1  0
  5  4  1  0
  5  6  1  0
  6  1  1  0
  7  5  1  0
  8  7  1  0
  9  8  2  0
 10  9  1  0
 10 12  2  0
 11 10  1  0
 12 13  1  0
 13  7  1  0
 13 14  2  0
 15 20  2  0
 16 15  1  0
 17 16  2  0
 17 18  1  0
 18 19  2  0
 19 20  1  0
  1 21  1  1
  2 22  1  0
  3 23  1  0
  4 24  1  0
  4 25  1  0
  5 26  1  1
  6 27  1  0
  6 28  1  0
  8 29  1  0
  9 30  1  0
 11 31  1  0
 11 32  1  0
 15 33  1  0
 17 34  1  0
 19 35  1  0
M  ISO  8  21  13  22  13  23  13  24  13  25  13  26  13  27  13  28  13
M  ISO  5  29  14  30  14  33  14  34  14  35  14
M  END
>  <minimizedAffinity>  (1) 
-5.78358364

>  <minimizedRMSD>  (1) 
0.213959441

$$$$
