
     RDKit          3D

 38 41  0  0  1  0  0  0  0  0999 V2000
   45.9070   33.5980   45.4730 C   0  0  2  0  0  0  0  0  0  0  0  0
   44.9920   34.7300   45.8820 C   0  0  0  0  0  0  0  0  0  0  0  0
   44.4190   35.5360   44.8240 C   0  0  0  0  0  0  0  0  0  0  0  0
   44.7260   35.2410   43.4260 C   0  0  0  0  0  0  0  0  0  0  0  0
   45.7970   34.2320   43.1780 C   0  0  1  0  0  0  0  0  0  0  0  0
   45.5430   33.0550   44.1270 C   0  0  0  0  0  0  0  0  0  0  0  0
   45.5940   33.7030   41.8000 C   0  0  0  0  0  0  0  0  0  0  0  0
   44.4930   32.9670   41.4980 N   0  0  0  0  0  0  0  0  0  0  0  0
   44.2450   32.4580   40.2860 C   0  0  0  0  0  0  0  0  0  0  0  0
   45.1280   32.6690   39.2710 N   0  0  0  0  0  0  0  0  0  0  0  0
   46.2440   33.3880   39.4900 C   0  0  0  0  0  0  0  0  0  0  0  0
   47.1550   33.6130   38.4620 C   0  0  0  0  0  0  0  0  0  0  0  0
   48.2950   34.3530   38.6990 C   0  0  0  0  0  0  0  0  0  0  0  0
   48.5280   34.8720   39.9690 C   0  0  0  0  0  0  0  0  0  0  0  0
   47.5870   34.6160   40.9520 C   0  0  0  0  0  0  0  0  0  0  0  0
   46.4550   33.8910   40.7520 C   0  0  0  0  0  0  0  0  0  0  0  0
   45.2430   32.8310   47.7410 C   0  0  0  0  0  0  0  0  0  0  0  0
   45.9310   32.5880   46.5510 C   0  0  0  0  0  0  0  0  0  0  0  0
   46.6460   31.3640   46.4380 C   0  0  0  0  0  0  0  0  0  0  0  0
   46.6160   30.5060   47.4910 N   0  0  0  0  0  0  0  0  0  0  0  0
   45.9350   30.7800   48.6310 C   0  0  0  0  0  0  0  0  0  0  0  0
   45.2530   31.9460   48.7400 N   0  0  0  0  0  0  0  0  0  0  0  0
   46.9360   33.9662   45.3486 H   0  0  0  0  0  0  0  0  0  0  0  0
   44.7705   34.9331   46.9402 H   0  0  0  0  0  0  0  0  0  0  0  0
   43.7504   36.3731   45.0735 H   0  0  0  0  0  0  0  0  0  0  0  0
   43.8041   34.8732   42.9518 H   0  0  0  0  0  0  0  0  0  0  0  0
   45.1108   36.1827   43.0075 H   0  0  0  0  0  0  0  0  0  0  0  0
   46.7968   34.6699   43.3149 H   0  0  0  0  0  0  0  0  0  0  0  0
   44.4864   32.7504   44.0998 H   0  0  0  0  0  0  0  0  0  0  0  0
   46.1219   32.1590   43.8586 H   0  0  0  0  0  0  0  0  0  0  0  0
   43.3313   31.8713   40.1100 H   0  0  0  0  0  0  0  0  0  0  0  0
   46.9659   33.2005   37.4599 H   0  0  0  0  0  0  0  0  0  0  0  0
   49.0163   34.5319   37.8880 H   0  0  0  0  0  0  0  0  0  0  0  0
   49.4289   35.4653   40.1846 H   0  0  0  0  0  0  0  0  0  0  0  0
   47.7669   35.0248   41.9572 H   0  0  0  0  0  0  0  0  0  0  0  0
   44.6818   33.7699   47.8576 H   0  0  0  0  0  0  0  0  0  0  0  0
   47.2073   31.1189   45.5243 H   0  0  0  0  0  0  0  0  0  0  0  0
   45.9361   30.0600   49.4626 H   0  0  0  0  0  0  0  0  0  0  0  0
  1  2  1  0
  1 18  1  0
  3  2  2  0
  4  3  1  0
  5  4  1  0
  5  6  1  0
  6  1  1  0
  7  5  1  0
  8  7  2  0
  9  8  1  0
 10 11  1  0
 10  9  2  0
 11 16  2  0
 12 13  2  0
 12 11  1  0
 13 14  1  0
 14 15  2  0
 16 15  1  0
 16  7  1  0
 17 22  2  0
 18 17  1  0
 19 18  2  0
 19 20  1  0
 20 21  2  0
 21 22  1  0
  1 23  1  6
  2 24  1  0
  3 25  1  0
  4 26  1  0
  4 27  1  0
  5 28  1  6
  6 29  1  0
  6 30  1  0
  9 31  1  0
 12 32  1  0
 13 33  1  0
 14 34  1  0
 15 35  1  0
 17 36  1  0
 19 37  1  0
 21 38  1  0
M  ISO  8  23  13  24  13  25  13  26  13  27  13  28  13  29  13  30  13
M  ISO  8  31  14  32  14  33  14  34  14  35  14  36  14  37  14  38  14
M  END
>  <minimizedAffinity>  (1) 
-5.96262169

>  <minimizedRMSD>  (1) 
1.52833498

$$$$
