
     RDKit          3D

 37 40  0  0  1  0  0  0  0  0999 V2000
   46.0250   33.9410   45.2790 C   0  0  2  0  0  0  0  0  0  0  0  0
   44.8580   34.8910   45.4320 C   0  0  0  0  0  0  0  0  0  0  0  0
   44.5750   35.7780   44.3240 C   0  0  0  0  0  0  0  0  0  0  0  0
   45.3950   35.7500   43.1090 C   0  0  0  0  0  0  0  0  0  0  0  0
   46.5820   34.8520   43.1280 C   0  0  1  0  0  0  0  0  0  0  0  0
   46.2440   33.5800   43.8420 C   0  0  0  0  0  0  0  0  0  0  0  0
   45.2700   32.9820   47.4340 C   0  0  0  0  0  0  0  0  0  0  0  0
   45.8210   32.7700   46.1670 C   0  0  0  0  0  0  0  0  0  0  0  0
   46.1670   31.4430   45.7970 C   0  0  0  0  0  0  0  0  0  0  0  0
   45.9480   30.4510   46.6850 N   0  0  0  0  0  0  0  0  0  0  0  0
   45.4110   30.6880   47.9060 C   0  0  0  0  0  0  0  0  0  0  0  0
   45.0760   31.9490   48.2740 N   0  0  0  0  0  0  0  0  0  0  0  0
   46.9350   34.5300   41.7570 N   0  0  0  0  0  0  0  0  0  0  0  0
   48.0860   34.7700   41.1370 C   0  0  0  0  0  0  0  0  0  0  0  0
   48.0580   34.3310   39.8540 N   0  0  0  0  0  0  0  0  0  0  0  0
   46.8410   33.7870   39.6480 C   0  0  0  0  0  0  0  0  0  0  0  0
   46.2400   33.1880   38.5550 C   0  0  0  0  0  0  0  0  0  0  0  0
   44.9740   32.7540   38.7260 N   0  0  0  0  0  0  0  0  0  0  0  0
   44.3150   32.8880   39.8940 C   0  0  0  0  0  0  0  0  0  0  0  0
   44.8830   33.4730   40.9850 N   0  0  0  0  0  0  0  0  0  0  0  0
   46.1520   33.9160   40.8320 C   0  0  0  0  0  0  0  0  0  0  0  0
   46.9380   33.0450   37.3150 N   0  0  0  0  0  0  0  0  0  0  0  0
   46.9567   34.4322   45.5963 H   0  0  0  0  0  0  0  0  0  0  0  0
   44.2492   34.9071   46.3480 H   0  0  0  0  0  0  0  0  0  0  0  0
   43.7333   36.4827   44.3944 H   0  0  0  0  0  0  0  0  0  0  0  0
   45.7534   36.7734   42.9243 H   0  0  0  0  0  0  0  0  0  0  0  0
   44.7381   35.3467   42.3243 H   0  0  0  0  0  0  0  0  0  0  0  0
   47.4161   35.3525   43.6415 H   0  0  0  0  0  0  0  0  0  0  0  0
   45.3301   33.1382   43.4182 H   0  0  0  0  0  0  0  0  0  0  0  0
   47.0511   32.8399   43.7375 H   0  0  0  0  0  0  0  0  0  0  0  0
   44.9932   33.9998   47.7463 H   0  0  0  0  0  0  0  0  0  0  0  0
   46.6031   31.2292   44.8100 H   0  0  0  0  0  0  0  0  0  0  0  0
   45.2459   29.8528   48.6025 H   0  0  0  0  0  0  0  0  0  0  0  0
   48.9513   35.2621   41.6050 H   0  0  0  0  0  0  0  0  0  0  0  0
   43.2838   32.5123   39.9687 H   0  0  0  0  0  0  0  0  0  0  0  0
   47.9044   33.3899   37.2252 H   0  0  0  0  0  0  0  0  0  0  0  0
   46.4743   32.5971   36.5117 H   0  0  0  0  0  0  0  0  0  0  0  0
  1  2  1  0
  1  8  1  0
  3  2  2  0
  4  5  1  0
  4  3  1  0
  5  6  1  0
  6  1  1  0
  7 12  2  0
  8  7  1  0
  9  8  2  0
  9 10  1  0
 10 11  2  0
 11 12  1  0
 13  5  1  0
 14 13  1  0
 15 14  2  0
 16 15  1  0
 16 21  2  0
 17 18  2  0
 17 16  1  0
 18 19  1  0
 19 20  2  0
 21 20  1  0
 21 13  1  0
 22 17  1  0
  1 23  1  1
  2 24  1  0
  3 25  1  0
  4 26  1  0
  4 27  1  0
  5 28  1  1
  6 29  1  0
  6 30  1  0
  7 31  1  0
  9 32  1  0
 11 33  1  0
 14 34  1  0
 19 35  1  0
 22 36  1  0
 22 37  1  0
M  ISO  8  23  13  24  13  25  13  26  13  27  13  28  13  29  13  30  13
M  ISO  5  31  14  32  14  33  14  34  14  35  14
M  END
>  <minimizedAffinity>  (1) 
-5.84777308

>  <minimizedRMSD>  (1) 
0.799063683

$$$$
