
     RDKit          3D

 31 33  0  0  1  0  0  0  0  0999 V2000
   46.0810   33.8560   45.3240 C   0  0  2  0  0  0  0  0  0  0  0  0
   44.9030   34.7990   45.4290 C   0  0  0  0  0  0  0  0  0  0  0  0
   44.6450   35.6970   44.3230 C   0  0  0  0  0  0  0  0  0  0  0  0
   45.5120   35.6630   43.1580 C   0  0  0  0  0  0  0  0  0  0  0  0
   46.7030   34.7770   43.2110 C   0  0  1  0  0  0  0  0  0  0  0  0
   46.3480   33.4880   43.9020 C   0  0  0  0  0  0  0  0  0  0  0  0
   45.2840   32.9290   47.4900 C   0  0  0  0  0  0  0  0  0  0  0  0
   45.8580   32.6980   46.2270 C   0  0  0  0  0  0  0  0  0  0  0  0
   46.2110   31.3680   45.8700 C   0  0  0  0  0  0  0  0  0  0  0  0
   45.9740   30.3850   46.7800 N   0  0  0  0  0  0  0  0  0  0  0  0
   45.4180   30.6440   47.9910 C   0  0  0  0  0  0  0  0  0  0  0  0
   45.0810   31.9110   48.3300 N   0  0  0  0  0  0  0  0  0  0  0  0
   47.0780   34.5090   41.7630 C   0  0  0  0  0  0  0  0  0  0  0  0
   48.1940   34.9910   41.0400 C   0  0  0  0  0  0  0  0  0  0  0  0
   48.2470   34.5660   39.7500 C   0  0  0  0  0  0  0  0  0  0  0  0
   47.3130   33.7630   39.2300 C   0  0  0  0  0  0  0  0  0  0  0  0
   46.1670   33.4940   40.6050 S   0  0  0  0  0  0  0  0  0  0  0  0
   47.0032   34.3511   45.6623 H   0  0  0  0  0  0  0  0  0  0  0  0
   44.2598   34.8024   46.3214 H   0  0  0  0  0  0  0  0  0  0  0  0
   43.7994   36.3993   44.3646 H   0  0  0  0  0  0  0  0  0  0  0  0
   45.8721   36.6881   42.9861 H   0  0  0  0  0  0  0  0  0  0  0  0
   44.8865   35.2414   42.3574 H   0  0  0  0  0  0  0  0  0  0  0  0
   47.5339   35.2354   43.7672 H   0  0  0  0  0  0  0  0  0  0  0  0
   45.4519   33.0418   43.4459 H   0  0  0  0  0  0  0  0  0  0  0  0
   47.1550   32.7452   43.8181 H   0  0  0  0  0  0  0  0  0  0  0  0
   45.0018   33.9500   47.7864 H   0  0  0  0  0  0  0  0  0  0  0  0
   46.6602   31.1416   44.8918 H   0  0  0  0  0  0  0  0  0  0  0  0
   45.2405   29.8216   48.6996 H   0  0  0  0  0  0  0  0  0  0  0  0
   48.9531   35.6523   41.4832 H   0  0  0  0  0  0  0  0  0  0  0  0
   49.0835   34.8926   39.1147 H   0  0  0  0  0  0  0  0  0  0  0  0
   47.2548   33.3608   38.2078 H   0  0  0  0  0  0  0  0  0  0  0  0
  1  2  1  0
  1  8  1  0
  3  2  2  0
  4  5  1  0
  4  3  1  0
  5  6  1  0
  6  1  1  0
  7 12  2  0
  8  7  1  0
  9  8  2  0
  9 10  1  0
 10 11  2  0
 11 12  1  0
 13  5  1  0
 14 13  2  0
 15 14  1  0
 16 15  2  0
 16 17  1  0
 17 13  1  0
  1 18  1  1
  2 19  1  0
  3 20  1  0
  4 21  1  0
  4 22  1  0
  5 23  1  1
  6 24  1  0
  6 25  1  0
  7 26  1  0
  9 27  1  0
 11 28  1  0
 14 29  1  0
 15 30  1  0
 16 31  1  0
M  ISO  8  18  13  19  13  20  13  21  13  22  13  23  13  24  13  25  13
M  ISO  6  26  14  27  14  28  14  29  14  30  14  31  14
M  END
>  <minimizedAffinity>  (1) 
-5.44854116

>  <minimizedRMSD>  (1) 
0.301170975

$$$$
