
     RDKit          3D

 38 40  0  0  1  0  0  0  0  0999 V2000
   46.1160   33.3040   46.0350 C   0  0  2  0  0  0  0  0  0  0  0  0
   45.0070   34.3320   46.0400 C   0  0  0  0  0  0  0  0  0  0  0  0
   44.8530   35.1430   44.8550 C   0  0  0  0  0  0  0  0  0  0  0  0
   45.7450   34.9590   43.7120 C   0  0  0  0  0  0  0  0  0  0  0  0
   46.8280   33.9670   43.8370 C   0  0  1  0  0  0  0  0  0  0  0  0
   46.3850   32.7880   44.6560 C   0  0  0  0  0  0  0  0  0  0  0  0
   45.6620   32.6280   48.3650 C   0  0  0  0  0  0  0  0  0  0  0  0
   45.8280   32.2660   47.0290 C   0  0  0  0  0  0  0  0  0  0  0  0
   45.7180   30.8890   46.6990 C   0  0  0  0  0  0  0  0  0  0  0  0
   45.4620   30.0040   47.6850 N   0  0  0  0  0  0  0  0  0  0  0  0
   45.3060   30.3890   48.9760 C   0  0  0  0  0  0  0  0  0  0  0  0
   45.4060   31.6950   49.3130 N   0  0  0  0  0  0  0  0  0  0  0  0
   47.1810   33.5140   42.4830 N   0  0  0  0  0  0  0  0  0  0  0  0
   47.0400   34.6400   41.6000 C   0  0  0  0  0  0  0  0  0  0  0  0
   47.6330   34.3080   40.2400 C   0  0  0  0  0  0  0  0  0  0  0  0
   49.0760   34.1890   40.4730 N   0  0  0  0  0  0  0  0  0  0  0  0
   49.2510   32.9810   41.2440 C   0  0  0  0  0  0  0  0  0  0  0  0
   48.5010   32.9520   42.5350 C   0  0  0  0  0  0  0  0  0  0  0  0
   47.0629   33.7749   46.3378 H   0  0  0  0  0  0  0  0  0  0  0  0
   44.3453   34.4568   46.9098 H   0  0  0  0  0  0  0  0  0  0  0  0
   44.0596   35.9037   44.8124 H   0  0  0  0  0  0  0  0  0  0  0  0
   46.2139   35.9317   43.5021 H   0  0  0  0  0  0  0  0  0  0  0  0
   45.0970   34.5623   42.9165 H   0  0  0  0  0  0  0  0  0  0  0  0
   47.6916   34.4261   44.3404 H   0  0  0  0  0  0  0  0  0  0  0  0
   45.4704   32.3510   44.2289 H   0  0  0  0  0  0  0  0  0  0  0  0
   47.1542   32.0018   44.6690 H   0  0  0  0  0  0  0  0  0  0  0  0
   45.7400   33.6866   48.6535 H   0  0  0  0  0  0  0  0  0  0  0  0
   45.8392   30.5504   45.6595 H   0  0  0  0  0  0  0  0  0  0  0  0
   45.0975   29.6370   49.7512 H   0  0  0  0  0  0  0  0  0  0  0  0
   45.9731   34.8811   41.4838 H   0  0  0  0  0  0  0  0  0  0  0  0
   47.5718   35.5035   42.0262 H   0  0  0  0  0  0  0  0  0  0  0  0
   47.4228   35.1126   39.5199 H   0  0  0  0  0  0  0  0  0  0  0  0
   47.2058   33.3868   39.8171 H   0  0  0  0  0  0  0  0  0  0  0  0
   49.5795   34.1190   39.5772 H   0  0  0  0  0  0  0  0  0  0  0  0
   48.9131   32.1317   40.6320 H   0  0  0  0  0  0  0  0  0  0  0  0
   50.3188   32.9291   41.5032 H   0  0  0  0  0  0  0  0  0  0  0  0
   49.0824   33.5150   43.2800 H   0  0  0  0  0  0  0  0  0  0  0  0
   48.3729   31.8902   42.7921 H   0  0  0  0  0  0  0  0  0  0  0  0
  1  2  1  0
  1  8  1  0
  3  2  2  0
  4  5  1  0
  4  3  1  0
  5  6  1  0
  6  1  1  0
  7 12  2  0
  8  7  1  0
  9  8  2  0
  9 10  1  0
 10 11  2  0
 11 12  1  0
 13 18  1  0
 13  5  1  0
 14 13  1  0
 15 16  1  0
 15 14  1  0
 16 17  1  0
 17 18  1  0
  1 19  1  1
  2 20  1  0
  3 21  1  0
  4 22  1  0
  4 23  1  0
  5 24  1  1
  6 25  1  0
  6 26  1  0
  7 27  1  0
  9 28  1  0
 11 29  1  0
 14 30  1  0
 14 31  1  0
 15 32  1  0
 15 33  1  0
 16 34  1  0
 17 35  1  0
 17 36  1  0
 18 37  1  0
 18 38  1  0
M  ISO  8  19  13  20  13  21  13  22  13  23  13  24  13  25  13  26  13
M  ISO  8  27  14  28  14  29  14  30  13  31  13  32  13  33  13  34   5
M  ISO  4  35  13  36  13  37  13  38  13
M  END
>  <minimizedAffinity>  (1) 
-5.38068867

>  <minimizedRMSD>  (1) 
1.50493073

$$$$
