
     RDKit          3D

 27 28  0  0  1  0  0  0  0  0999 V2000
   45.9310   33.9760   45.1290 C   0  0  2  0  0  0  0  0  0  0  0  0
   44.8600   34.9880   45.4680 C   0  0  0  0  0  0  0  0  0  0  0  0
   44.4850   35.9410   44.4400 C   0  0  0  0  0  0  0  0  0  0  0  0
   45.1400   35.9070   43.1280 C   0  0  0  0  0  0  0  0  0  0  0  0
   46.2820   34.9570   42.9850 C   0  0  1  0  0  0  0  0  0  0  0  0
   45.8730   33.6520   43.6660 C   0  0  0  0  0  0  0  0  0  0  0  0
   45.3260   32.9910   47.3350 C   0  0  0  0  0  0  0  0  0  0  0  0
   45.8100   32.8320   46.0350 C   0  0  0  0  0  0  0  0  0  0  0  0
   46.1790   31.5260   45.6430 C   0  0  0  0  0  0  0  0  0  0  0  0
   46.0550   30.5000   46.5140 N   0  0  0  0  0  0  0  0  0  0  0  0
   45.5790   30.7040   47.7690 C   0  0  0  0  0  0  0  0  0  0  0  0
   45.2200   31.9500   48.1630 N   0  0  0  0  0  0  0  0  0  0  0  0
   46.5940   34.6760   41.5840 C   0  0  0  0  0  0  0  0  0  0  0  0
   47.7790   34.5740   41.1710 O   0  0  0  0  0  0  0  0  0  0  0  0
   45.5410   34.5210   40.6910 O   0  0  0  0  0  0  0  0  0  0  0  0
   46.9428   34.3760   45.2908 H   0  0  0  0  0  0  0  0  0  0  0  0
   44.3821   35.0013   46.4587 H   0  0  0  0  0  0  0  0  0  0  0  0
   43.7072   36.6912   44.6452 H   0  0  0  0  0  0  0  0  0  0  0  0
   44.3804   35.6333   42.3809 H   0  0  0  0  0  0  0  0  0  0  0  0
   45.5721   36.9090   42.9892 H   0  0  0  0  0  0  0  0  0  0  0  0
   47.1778   35.4048   43.4400 H   0  0  0  0  0  0  0  0  0  0  0  0
   44.8551   33.3583   43.3701 H   0  0  0  0  0  0  0  0  0  0  0  0
   46.5233   32.8082   43.3919 H   0  0  0  0  0  0  0  0  0  0  0  0
   45.0271   33.9910   47.6823 H   0  0  0  0  0  0  0  0  0  0  0  0
   46.5669   31.3442   44.6298 H   0  0  0  0  0  0  0  0  0  0  0  0
   45.4847   29.8581   48.4659 H   0  0  0  0  0  0  0  0  0  0  0  0
   45.7249   34.3302   39.7371 H   0  0  0  0  0  0  0  0  0  0  0  0
  1  2  1  0
  1  8  1  0
  3  2  2  0
  4  3  1  0
  5  4  1  0
  5  6  1  0
  6  1  1  0
  7 12  2  0
  8  7  1  0
  9  8  2  0
  9 10  1  0
 10 11  2  0
 11 12  1  0
 13  5  1  0
 14 13  2  0
 15 13  1  0
  1 16  1  6
  2 17  1  0
  3 18  1  0
  4 19  1  0
  4 20  1  0
  5 21  1  1
  6 22  1  0
  6 23  1  0
  7 24  1  0
  9 25  1  0
 11 26  1  0
 15 27  1  0
M  ISO  8  16  13  17  13  18  13  19  13  20  13  21  13  22  13  23  13
M  ISO  4  24  14  25  14  26  14  27   3
M  END
>  <minimizedAffinity>  (1) 
-4.81162453

>  <minimizedRMSD>  (1) 
0.312615365

$$$$
