
     RDKit          3D

 38 41  0  0  1  0  0  0  0  0999 V2000
   46.1220   34.0970   45.0450 C   0  0  2  0  0  0  0  0  0  0  0  0
   44.8180   34.8660   45.0350 C   0  0  0  0  0  0  0  0  0  0  0  0
   44.6050   35.7630   43.9160 C   0  0  0  0  0  0  0  0  0  0  0  0
   45.6150   35.9080   42.8620 C   0  0  0  0  0  0  0  0  0  0  0  0
   46.8730   35.1400   43.0250 C   0  0  1  0  0  0  0  0  0  0  0  0
   46.5740   33.8050   43.6480 C   0  0  0  0  0  0  0  0  0  0  0  0
   47.4270   34.8590   41.6730 C   0  0  0  0  0  0  0  0  0  0  0  0
   48.6820   35.2380   41.2160 C   0  0  0  0  0  0  0  0  0  0  0  0
   48.7270   34.7720   39.9630 N   0  0  0  0  0  0  0  0  0  0  0  0
   47.5940   34.1280   39.5960 C   0  0  0  0  0  0  0  0  0  0  0  0
   47.2920   33.5210   38.3750 C   0  0  0  0  0  0  0  0  0  0  0  0
   46.0400   32.9480   38.3260 C   0  0  0  0  0  0  0  0  0  0  0  0
   45.1270   32.9420   39.3580 C   0  0  0  0  0  0  0  0  0  0  0  0
   45.5280   33.5730   40.5230 C   0  0  0  0  0  0  0  0  0  0  0  0
   46.7590   34.1870   40.7030 C   0  0  0  0  0  0  0  0  0  0  0  0
   45.4160   33.0340   47.1690 C   0  0  0  0  0  0  0  0  0  0  0  0
   45.9740   32.8820   45.8870 C   0  0  0  0  0  0  0  0  0  0  0  0
   46.3810   31.5870   45.4580 C   0  0  0  0  0  0  0  0  0  0  0  0
   46.2050   30.5580   46.3250 N   0  0  0  0  0  0  0  0  0  0  0  0
   45.6670   30.7310   47.5480 C   0  0  0  0  0  0  0  0  0  0  0  0
   45.2760   31.9570   47.9680 N   0  0  0  0  0  0  0  0  0  0  0  0
   46.9185   34.7072   45.4958 H   0  0  0  0  0  0  0  0  0  0  0  0
   44.0715   34.7503   45.8346 H   0  0  0  0  0  0  0  0  0  0  0  0
   43.6724   36.3433   43.8565 H   0  0  0  0  0  0  0  0  0  0  0  0
   45.8820   36.9735   42.8025 H   0  0  0  0  0  0  0  0  0  0  0  0
   45.1444   35.4967   41.9568 H   0  0  0  0  0  0  0  0  0  0  0  0
   47.5705   35.7177   43.6493 H   0  0  0  0  0  0  0  0  0  0  0  0
   45.7790   33.2908   43.0881 H   0  0  0  0  0  0  0  0  0  0  0  0
   47.4558   33.1475   43.6376 H   0  0  0  0  0  0  0  0  0  0  0  0
   49.4604   35.7937   41.7594 H   0  0  0  0  0  0  0  0  0  0  0  0
   49.5397   34.8908   39.3415 H   0  0  0  0  0  0  0  0  0  0  0  0
   47.9922   33.5021   37.5269 H   0  0  0  0  0  0  0  0  0  0  0  0
   45.7456   32.4557   37.3874 H   0  0  0  0  0  0  0  0  0  0  0  0
   44.1404   32.4652   39.2620 H   0  0  0  0  0  0  0  0  0  0  0  0
   44.8208   33.5887   41.3654 H   0  0  0  0  0  0  0  0  0  0  0  0
   45.0954   34.0266   47.5181 H   0  0  0  0  0  0  0  0  0  0  0  0
   46.8210   31.4268   44.4626 H   0  0  0  0  0  0  0  0  0  0  0  0
   45.5438   29.8644   48.2142 H   0  0  0  0  0  0  0  0  0  0  0  0
  1 17  1  0
  2  1  1  0
  3  2  2  0
  4  5  1  0
  4  3  1  0
  5  6  1  0
  6  1  1  0
  7  5  1  0
  8  7  2  0
  9  8  1  0
 10  9  1  0
 10 15  2  0
 11 10  1  0
 12 11  2  0
 12 13  1  0
 13 14  2  0
 14 15  1  0
 15  7  1  0
 16 21  2  0
 17 16  1  0
 18 17  2  0
 18 19  1  0
 19 20  2  0
 20 21  1  0
  1 22  1  1
  2 23  1  0
  3 24  1  0
  4 25  1  0
  4 26  1  0
  5 27  1  1
  6 28  1  0
  6 29  1  0
  8 30  1  0
  9 31  1  0
 11 32  1  0
 12 33  1  0
 13 34  1  0
 14 35  1  0
 16 36  1  0
 18 37  1  0
 20 38  1  0
M  ISO  8  22  13  23  13  24  13  25  13  26  13  27  13  28  13  29  13
M  ISO  8  30  14  31   9  32  14  33  14  34  14  35  14  36  14  37  14
M  ISO  1  38  14
M  END
>  <minimizedAffinity>  (1) 
-6.14238119

>  <minimizedRMSD>  (1) 
1.11784041

$$$$
