
     RDKit          3D

 36 39  0  0  1  0  0  0  0  0999 V2000
   50.5310   32.5330   41.8980 C   0  0  2  0  0  0  0  0  0  0  0  0
   49.5430   31.6120   42.6670 C   0  0  0  0  0  0  0  0  0  0  0  0
   49.0990   32.9200   41.9880 C   0  0  1  0  0  0  0  0  0  0  0  0
   52.5570   31.1440   39.2360 N   0  0  0  0  0  0  0  0  0  0  0  0
   51.3400   31.2220   38.6100 C   0  0  0  0  0  0  0  0  0  0  0  0
   50.4120   31.7300   39.4440 N   0  0  0  0  0  0  0  0  0  0  0  0
   51.0650   31.9760   40.6210 C   0  0  0  0  0  0  0  0  0  0  0  0
   52.3270   31.6090   40.4320 N   0  0  0  0  0  0  0  0  0  0  0  0
   54.4620   29.7290   39.6140 C   0  0  0  0  0  0  0  0  0  0  0  0
   53.8090   30.6880   38.7860 C   0  0  0  0  0  0  0  0  0  0  0  0
   54.4400   31.0840   37.6390 C   0  0  0  0  0  0  0  0  0  0  0  0
   55.6590   30.5220   37.3760 N   0  0  0  0  0  0  0  0  0  0  0  0
   56.2460   29.6330   38.1590 C   0  0  0  0  0  0  0  0  0  0  0  0
   55.6420   29.2340   39.2860 N   0  0  0  0  0  0  0  0  0  0  0  0
   48.7590   34.0900   42.7670 C   0  0  0  0  0  0  0  0  0  0  0  0
   49.5890   35.0740   42.7340 O   0  0  0  0  0  0  0  0  0  0  0  0
   47.6050   34.1680   43.5190 O   0  0  0  0  0  0  0  0  0  0  0  0
   46.4060   34.5640   42.9560 C   0  0  0  0  0  0  0  0  0  0  0  0
   46.1310   34.2750   41.6300 C   0  0  0  0  0  0  0  0  0  0  0  0
   44.9090   34.6890   41.0880 C   0  0  0  0  0  0  0  0  0  0  0  0
   44.0130   35.3790   41.9130 C   0  0  0  0  0  0  0  0  0  0  0  0
   44.3100   35.6560   43.2370 C   0  0  0  0  0  0  0  0  0  0  0  0
   45.5150   35.2450   43.7590 C   0  0  0  0  0  0  0  0  0  0  0  0
   51.4668   33.0648   42.1246 H   0  0  0  0  0  0  0  0  0  0  0  0
   49.2478   30.6388   42.2479 H   0  0  0  0  0  0  0  0  0  0  0  0
   49.4825   31.1838   43.6784 H   0  0  0  0  0  0  0  0  0  0  0  0
   48.3020   33.1560   41.2676 H   0  0  0  0  0  0  0  0  0  0  0  0
   51.1480   30.9130   37.5719 H   0  0  0  0  0  0  0  0  0  0  0  0
   53.9749   29.3953   40.5421 H   0  0  0  0  0  0  0  0  0  0  0  0
   53.9878   31.8209   36.9590 H   0  0  0  0  0  0  0  0  0  0  0  0
   57.2288   29.2217   37.8854 H   0  0  0  0  0  0  0  0  0  0  0  0
   46.8604   33.7294   41.0133 H   0  0  0  0  0  0  0  0  0  0  0  0
   44.6584   34.4771   40.0381 H   0  0  0  0  0  0  0  0  0  0  0  0
   43.0488   35.7095   41.4993 H   0  0  0  0  0  0  0  0  0  0  0  0
   43.5893   36.1996   43.8656 H   0  0  0  0  0  0  0  0  0  0  0  0
   45.7658   35.4579   44.8087 H   0  0  0  0  0  0  0  0  0  0  0  0
  1  3  1  0
  1  2  1  0
  3  2  1  0
  3 15  1  0
  4  8  1  0
  5  4  1  0
  5  6  2  0
  6  7  1  0
  7  1  1  0
  8  7  2  0
 10  4  1  0
 10  9  2  0
 11 10  1  0
 12 11  2  0
 12 13  1  0
 13 14  2  0
 14  9  1  0
 15 17  1  0
 16 15  2  0
 18 17  1  0
 18 23  1  0
 19 18  2  0
 20 19  1  0
 20 21  2  0
 21 22  1  0
 22 23  2  0
  1 24  1  1
  2 25  1  0
  2 26  1  0
  3 27  1  6
  5 28  1  0
  9 29  1  0
 11 30  1  0
 13 31  1  0
 19 32  1  0
 20 33  1  0
 21 34  1  0
 22 35  1  0
 23 36  1  0
M  ISO  8  24  13  25  13  26  13  27  13  28  14  29  14  30  14  31  14
M  ISO  5  32  14  33  14  34  14  35  14  36  14
M  END
>  <minimizedAffinity>  (1) 
-4.77464485

>  <minimizedRMSD>  (1) 
9.36024666

$$$$
