
     RDKit          3D

 51 55  0  0  1  0  0  0  0  0999 V2000
   46.3940   33.6400   44.8980 C   0  0  2  0  0  0  0  0  0  0  0  0
   45.0230   34.3180   44.9690 C   0  0  0  0  0  0  0  0  0  0  0  0
   44.7810   35.3660   44.0040 C   0  0  0  0  0  0  0  0  0  0  0  0
   45.7920   35.7550   43.0210 C   0  0  0  0  0  0  0  0  0  0  0  0
   47.0560   34.9920   43.0460 C   0  0  1  0  0  0  0  0  0  0  0  0
   46.8990   33.6050   43.4940 C   0  0  0  0  0  0  0  0  0  0  0  0
   45.9070   32.2360   46.8870 C   0  0  0  0  0  0  0  0  0  0  0  0
   46.2810   32.3060   45.5430 C   0  0  0  0  0  0  0  0  0  0  0  0
   46.5530   31.0880   44.8350 C   0  0  0  0  0  0  0  0  0  0  0  0
   46.4280   29.9230   45.5300 N   0  0  0  0  0  0  0  0  0  0  0  0
   46.0670   29.9010   46.8150 C   0  0  0  0  0  0  0  0  0  0  0  0
   45.8040   31.0440   47.5060 N   0  0  0  0  0  0  0  0  0  0  0  0
   46.0030   28.5730   47.3260 N   0  0  0  0  0  0  0  0  0  0  0  0
   44.8520   27.9150   47.6130 C   0  0  0  0  0  0  0  0  0  0  0  0
   44.9060   26.6270   48.1040 C   0  0  0  0  0  0  0  0  0  0  0  0
   43.6440   25.9170   48.4160 C   0  0  0  0  0  0  0  0  0  0  0  0
   46.1420   26.0020   48.3030 C   0  0  0  0  0  0  0  0  0  0  0  0
   46.1790   24.8290   48.7510 O   0  0  0  0  0  0  0  0  0  0  0  0
   47.2450   26.7210   47.9930 N   0  0  0  0  0  0  0  0  0  0  0  0
   47.1970   27.9820   47.5130 C   0  0  0  0  0  0  0  0  0  0  0  0
   48.3350   28.4450   47.2990 O   0  0  0  0  0  0  0  0  0  0  0  0
   47.6500   34.9710   41.6880 C   0  0  0  0  0  0  0  0  0  0  0  0
   48.7990   35.6340   41.2680 C   0  0  0  0  0  0  0  0  0  0  0  0
   48.9170   35.2960   39.9810 N   0  0  0  0  0  0  0  0  0  0  0  0
   47.9370   34.4780   39.5630 C   0  0  0  0  0  0  0  0  0  0  0  0
   47.7450   33.9260   38.2960 C   0  0  0  0  0  0  0  0  0  0  0  0
   46.6330   33.1160   38.1970 C   0  0  0  0  0  0  0  0  0  0  0  0
   45.7560   32.8410   39.2250 C   0  0  0  0  0  0  0  0  0  0  0  0
   46.0410   33.4410   40.4420 C   0  0  0  0  0  0  0  0  0  0  0  0
   47.1180   34.2670   40.6650 C   0  0  0  0  0  0  0  0  0  0  0  0
   47.1532   34.2136   45.4500 H   0  0  0  0  0  0  0  0  0  0  0  0
   44.2663   34.0244   45.7114 H   0  0  0  0  0  0  0  0  0  0  0  0
   43.8111   35.8849   44.0087 H   0  0  0  0  0  0  0  0  0  0  0  0
   46.0361   36.8138   43.1923 H   0  0  0  0  0  0  0  0  0  0  0  0
   45.3424   35.5459   42.0391 H   0  0  0  0  0  0  0  0  0  0  0  0
   47.7057   35.5044   43.7708 H   0  0  0  0  0  0  0  0  0  0  0  0
   46.1781   33.0815   42.8488 H   0  0  0  0  0  0  0  0  0  0  0  0
   47.8590   33.0705   43.4414 H   0  0  0  0  0  0  0  0  0  0  0  0
   45.6951   33.1607   47.4438 H   0  0  0  0  0  0  0  0  0  0  0  0
   46.8499   31.0946   43.7758 H   0  0  0  0  0  0  0  0  0  0  0  0
   43.8804   28.4060   47.4550 H   0  0  0  0  0  0  0  0  0  0  0  0
   43.5220   25.8484   49.5071 H   0  0  0  0  0  0  0  0  0  0  0  0
   42.7960   26.4705   47.9863 H   0  0  0  0  0  0  0  0  0  0  0  0
   43.6768   24.9049   47.9863 H   0  0  0  0  0  0  0  0  0  0  0  0
   48.1679   26.2846   48.1300 H   0  0  0  0  0  0  0  0  0  0  0  0
   49.4583   36.2862   41.8595 H   0  0  0  0  0  0  0  0  0  0  0  0
   49.6794   35.6278   39.3731 H   0  0  0  0  0  0  0  0  0  0  0  0
   48.4212   34.1198   37.4503 H   0  0  0  0  0  0  0  0  0  0  0  0
   46.4296   32.6525   37.2204 H   0  0  0  0  0  0  0  0  0  0  0  0
   44.8834   32.1855   39.0878 H   0  0  0  0  0  0  0  0  0  0  0  0
   45.3615   33.2436   41.2842 H   0  0  0  0  0  0  0  0  0  0  0  0
  1  2  1  0
  1  8  1  0
  3  2  2  0
  4  5  1  0
  4  3  1  0
  5  6  1  0
  6  1  1  0
  7 12  2  0
  8  7  1  0
  9 10  1  0
  9  8  2  0
 10 11  2  0
 11 13  1  0
 11 12  1  0
 13 20  1  0
 13 14  1  0
 14 15  2  0
 15 17  1  0
 15 16  1  0
 17 18  2  0
 19 17  1  0
 20 19  1  0
 21 20  2  0
 22  5  1  0
 23 22  2  0
 24 23  1  0
 25 24  1  0
 25 30  2  0
 26 25  1  0
 27 26  2  0
 27 28  1  0
 28 29  2  0
 29 30  1  0
 30 22  1  0
  1 31  1  1
  2 32  1  0
  3 33  1  0
  4 34  1  0
  4 35  1  0
  5 36  1  1
  6 37  1  0
  6 38  1  0
  7 39  1  0
  9 40  1  0
 14 41  1  0
 16 42  1  0
 16 43  1  0
 16 44  1  0
 19 45  1  0
 23 46  1  0
 24 47  1  0
 26 48  1  0
 27 49  1  0
 28 50  1  0
 29 51  1  0
M  ISO  8  31  13  32  13  33  13  34  13  35  13  36  13  37  13  38  13
M  ISO  8  39  14  40  14  41  14  42   8  43   8  44   8  45   9  46  14
M  ISO  5  47   9  48  14  49  14  50  14  51  14
M  END
>  <minimizedAffinity>  (1) 
-7.69015169

>  <minimizedRMSD>  (1) 
1.08053756

$$$$
