
     RDKit          3D

 45 49  0  0  1  0  0  0  0  0999 V2000
   46.4800   33.5660   44.8690 C   0  0  2  0  0  0  0  0  0  0  0  0
   45.1060   34.2300   44.9710 C   0  0  0  0  0  0  0  0  0  0  0  0
   44.8500   35.2970   44.0280 C   0  0  0  0  0  0  0  0  0  0  0  0
   45.8530   35.7110   43.0430 C   0  0  0  0  0  0  0  0  0  0  0  0
   47.1190   34.9570   43.0400 C   0  0  1  0  0  0  0  0  0  0  0  0
   46.9780   33.5590   43.4670 C   0  0  0  0  0  0  0  0  0  0  0  0
   47.6910   34.9580   41.6760 C   0  0  0  0  0  0  0  0  0  0  0  0
   48.8250   35.6510   41.2460 C   0  0  0  0  0  0  0  0  0  0  0  0
   48.9320   35.3300   39.9540 N   0  0  0  0  0  0  0  0  0  0  0  0
   47.9640   34.4960   39.5390 C   0  0  0  0  0  0  0  0  0  0  0  0
   47.7620   33.9540   38.2690 C   0  0  0  0  0  0  0  0  0  0  0  0
   46.6680   33.1240   38.1760 C   0  0  0  0  0  0  0  0  0  0  0  0
   45.8090   32.8180   39.2130 C   0  0  0  0  0  0  0  0  0  0  0  0
   46.0990   33.4100   40.4330 C   0  0  0  0  0  0  0  0  0  0  0  0
   47.1620   34.2570   40.6590 C   0  0  0  0  0  0  0  0  0  0  0  0
   46.8450   32.0590   46.8060 C   0  0  0  0  0  0  0  0  0  0  0  0
   46.3910   32.2230   45.4970 C   0  0  0  0  0  0  0  0  0  0  0  0
   45.8640   31.0820   44.8010 C   0  0  0  0  0  0  0  0  0  0  0  0
   45.8400   29.8990   45.4670 N   0  0  0  0  0  0  0  0  0  0  0  0
   46.2840   29.7810   46.7210 C   0  0  0  0  0  0  0  0  0  0  0  0
   46.7850   30.8500   47.3940 N   0  0  0  0  0  0  0  0  0  0  0  0
   46.1650   28.4540   47.2240 N   0  0  0  0  0  0  0  0  0  0  0  0
   47.0290   27.4190   47.2610 C   0  0  0  0  0  0  0  0  0  0  0  0
   46.3690   26.3700   47.8680 C   0  0  0  0  0  0  0  0  0  0  0  0
   45.1060   26.7600   48.2000 N   0  0  0  0  0  0  0  0  0  0  0  0
   44.9910   28.0570   47.7940 C   0  0  0  0  0  0  0  0  0  0  0  0
   47.2378   34.1430   45.4193 H   0  0  0  0  0  0  0  0  0  0  0  0
   44.3590   33.9159   45.7149 H   0  0  0  0  0  0  0  0  0  0  0  0
   43.8776   35.8107   44.0510 H   0  0  0  0  0  0  0  0  0  0  0  0
   45.4022   35.6120   42.0445 H   0  0  0  0  0  0  0  0  0  0  0  0
   46.1265   36.7399   43.3195 H   0  0  0  0  0  0  0  0  0  0  0  0
   47.7736   35.4632   43.7648 H   0  0  0  0  0  0  0  0  0  0  0  0
   46.2599   33.0385   42.8163 H   0  0  0  0  0  0  0  0  0  0  0  0
   47.9433   33.0355   43.4020 H   0  0  0  0  0  0  0  0  0  0  0  0
   49.4794   36.3097   41.8358 H   0  0  0  0  0  0  0  0  0  0  0  0
   49.6788   35.6849   39.3398 H   0  0  0  0  0  0  0  0  0  0  0  0
   48.4207   34.1715   37.4153 H   0  0  0  0  0  0  0  0  0  0  0  0
   46.4613   32.6676   37.1967 H   0  0  0  0  0  0  0  0  0  0  0  0
   44.9481   32.1463   39.0796 H   0  0  0  0  0  0  0  0  0  0  0  0
   45.4334   33.1877   41.2801 H   0  0  0  0  0  0  0  0  0  0  0  0
   47.2524   32.9188   47.3580 H   0  0  0  0  0  0  0  0  0  0  0  0
   45.4942   31.1636   43.7683 H   0  0  0  0  0  0  0  0  0  0  0  0
   48.0611   27.4123   46.8806 H   0  0  0  0  0  0  0  0  0  0  0  0
   46.7960   25.3737   48.0549 H   0  0  0  0  0  0  0  0  0  0  0  0
   44.0940   28.6834   47.9081 H   0  0  0  0  0  0  0  0  0  0  0  0
  1  2  1  0
  1 17  1  0
  3  2  2  0
  4  3  1  0
  5  4  1  0
  5  6  1  0
  6  1  1  0
  7  5  1  0
  8  7  2  0
  9  8  1  0
 10  9  1  0
 10 15  2  0
 11 10  1  0
 12 11  2  0
 12 13  1  0
 13 14  2  0
 14 15  1  0
 15  7  1  0
 16 21  2  0
 17 16  1  0
 18 19  1  0
 18 17  2  0
 19 20  2  0
 20 22  1  0
 20 21  1  0
 22 23  1  0
 22 26  1  0
 23 24  2  0
 24 25  1  0
 26 25  2  0
  1 27  1  1
  2 28  1  0
  3 29  1  0
  4 30  1  0
  4 31  1  0
  5 32  1  1
  6 33  1  0
  6 34  1  0
  8 35  1  0
  9 36  1  0
 11 37  1  0
 12 38  1  0
 13 39  1  0
 14 40  1  0
 16 41  1  0
 18 42  1  0
 23 43  1  0
 24 44  1  0
 26 45  1  0
M  ISO  8  27  13  28  13  29  13  30  13  31  13  32  13  33  13  34  13
M  ISO  8  35  14  36   9  37  14  38  14  39  14  40  14  41  14  42  14
M  ISO  3  43  14  44  14  45  14
M  END
>  <minimizedAffinity>  (1) 
-6.76716518

>  <minimizedRMSD>  (1) 
1.12126946

$$$$
