
     RDKit          3D

 47 51  0  0  1  0  0  0  0  0999 V2000
   46.5080   33.4450   44.7970 C   0  0  2  0  0  0  0  0  0  0  0  0
   45.1510   34.1260   44.9330 C   0  0  0  0  0  0  0  0  0  0  0  0
   44.9150   35.2360   44.0340 C   0  0  0  0  0  0  0  0  0  0  0  0
   45.9210   35.6760   43.0640 C   0  0  0  0  0  0  0  0  0  0  0  0
   47.1760   34.9020   43.0300 C   0  0  1  0  0  0  0  0  0  0  0  0
   47.0090   33.4930   43.3970 C   0  0  0  0  0  0  0  0  0  0  0  0
   47.7540   34.9590   41.6660 C   0  0  0  0  0  0  0  0  0  0  0  0
   48.8650   35.6910   41.2580 C   0  0  0  0  0  0  0  0  0  0  0  0
   48.9850   35.4040   39.9590 N   0  0  0  0  0  0  0  0  0  0  0  0
   48.0390   34.5540   39.5230 C   0  0  0  0  0  0  0  0  0  0  0  0
   47.8490   34.0340   38.2360 C   0  0  0  0  0  0  0  0  0  0  0  0
   46.7840   33.1840   38.1220 C   0  0  0  0  0  0  0  0  0  0  0  0
   45.9340   32.8320   39.1470 C   0  0  0  0  0  0  0  0  0  0  0  0
   46.2050   33.3990   40.3820 C   0  0  0  0  0  0  0  0  0  0  0  0
   47.2420   34.2660   40.6300 C   0  0  0  0  0  0  0  0  0  0  0  0
   45.9240   31.9300   46.6650 C   0  0  0  0  0  0  0  0  0  0  0  0
   46.4050   32.0810   45.3650 C   0  0  0  0  0  0  0  0  0  0  0  0
   46.8110   30.9180   44.6370 C   0  0  0  0  0  0  0  0  0  0  0  0
   46.7050   29.7190   45.2590 N   0  0  0  0  0  0  0  0  0  0  0  0
   46.2360   29.6000   46.5220 C   0  0  0  0  0  0  0  0  0  0  0  0
   45.8520   30.6900   47.2100 N   0  0  0  0  0  0  0  0  0  0  0  0
   46.1340   28.2940   47.1660 C   0  0  0  0  0  0  0  0  0  0  0  0
   44.9070   27.9250   47.7280 C   0  0  0  0  0  0  0  0  0  0  0  0
   44.8180   26.6980   48.3300 C   0  0  0  0  0  0  0  0  0  0  0  0
   45.9330   25.8900   48.3550 C   0  0  0  0  0  0  0  0  0  0  0  0
   47.1630   26.2430   47.8000 C   0  0  0  0  0  0  0  0  0  0  0  0
   47.2010   27.4560   47.2200 N   0  0  0  0  0  0  0  0  0  0  0  0
   47.2729   33.9876   45.3720 H   0  0  0  0  0  0  0  0  0  0  0  0
   44.4003   33.7957   45.6661 H   0  0  0  0  0  0  0  0  0  0  0  0
   43.9516   35.7648   44.0806 H   0  0  0  0  0  0  0  0  0  0  0  0
   45.4674   35.6238   42.0632 H   0  0  0  0  0  0  0  0  0  0  0  0
   46.2092   36.6899   43.3786 H   0  0  0  0  0  0  0  0  0  0  0  0
   47.8400   35.3618   43.7767 H   0  0  0  0  0  0  0  0  0  0  0  0
   46.2834   33.0141   42.7231 H   0  0  0  0  0  0  0  0  0  0  0  0
   47.9661   32.9575   43.3124 H   0  0  0  0  0  0  0  0  0  0  0  0
   49.4987   36.3537   41.8656 H   0  0  0  0  0  0  0  0  0  0  0  0
   49.7237   35.7926   39.3555 H   0  0  0  0  0  0  0  0  0  0  0  0
   48.5020   34.2883   37.3881 H   0  0  0  0  0  0  0  0  0  0  0  0
   46.5905   32.7460   37.1317 H   0  0  0  0  0  0  0  0  0  0  0  0
   45.0908   32.1423   38.9944 H   0  0  0  0  0  0  0  0  0  0  0  0
   45.5445   33.1371   41.2218 H   0  0  0  0  0  0  0  0  0  0  0  0
   45.6055   32.8094   47.2439 H   0  0  0  0  0  0  0  0  0  0  0  0
   47.1954   30.9946   43.6092 H   0  0  0  0  0  0  0  0  0  0  0  0
   44.0396   28.6003   47.6876 H   0  0  0  0  0  0  0  0  0  0  0  0
   43.8738   26.3642   48.7849 H   0  0  0  0  0  0  0  0  0  0  0  0
   45.8485   24.9073   48.8419 H   0  0  0  0  0  0  0  0  0  0  0  0
   48.0384   25.5777   47.8342 H   0  0  0  0  0  0  0  0  0  0  0  0
  1  2  1  0
  1 17  1  0
  3  2  2  0
  4  3  1  0
  5  4  1  0
  5  6  1  0
  6  1  1  0
  7  5  1  0
  8  7  2  0
  9  8  1  0
 10  9  1  0
 10 15  2  0
 11 10  1  0
 12 11  2  0
 12 13  1  0
 13 14  2  0
 14 15  1  0
 15  7  1  0
 16 21  2  0
 17 16  1  0
 18 19  1  0
 18 17  2  0
 19 20  2  0
 20 22  1  0
 20 21  1  0
 22 27  1  0
 22 23  2  0
 23 24  1  0
 24 25  2  0
 26 25  1  0
 27 26  2  0
  1 28  1  1
  2 29  1  0
  3 30  1  0
  4 31  1  0
  4 32  1  0
  5 33  1  1
  6 34  1  0
  6 35  1  0
  8 36  1  0
  9 37  1  0
 11 38  1  0
 12 39  1  0
 13 40  1  0
 14 41  1  0
 16 42  1  0
 18 43  1  0
 23 44  1  0
 24 45  1  0
 25 46  1  0
 26 47  1  0
M  ISO  8  28  13  29  13  30  13  31  13  32  13  33  13  34  13  35  13
M  ISO  8  36  14  37   9  38  14  39  14  40  14  41  14  42  14  43  14
M  ISO  4  44  14  45  14  46  14  47  14
M  END
>  <minimizedAffinity>  (1) 
-6.60566664

>  <minimizedRMSD>  (1) 
1.34045148

$$$$
