
     RDKit          3D

 46 50  0  0  1  0  0  0  0  0999 V2000
   46.4560   33.4910   44.8250 C   0  0  2  0  0  0  0  0  0  0  0  0
   45.1050   34.1920   44.9560 C   0  0  0  0  0  0  0  0  0  0  0  0
   44.8840   35.2880   44.0440 C   0  0  0  0  0  0  0  0  0  0  0  0
   45.8910   35.7040   43.0670 C   0  0  0  0  0  0  0  0  0  0  0  0
   47.1330   34.9150   43.0380 C   0  0  1  0  0  0  0  0  0  0  0  0
   46.9530   33.5080   43.4220 C   0  0  0  0  0  0  0  0  0  0  0  0
   47.7070   34.9400   41.6720 C   0  0  0  0  0  0  0  0  0  0  0  0
   48.8290   35.6480   41.2490 C   0  0  0  0  0  0  0  0  0  0  0  0
   48.9380   35.3460   39.9510 N   0  0  0  0  0  0  0  0  0  0  0  0
   47.9760   34.5070   39.5320 C   0  0  0  0  0  0  0  0  0  0  0  0
   47.7770   33.9800   38.2550 C   0  0  0  0  0  0  0  0  0  0  0  0
   46.6920   33.1420   38.1510 C   0  0  0  0  0  0  0  0  0  0  0  0
   45.8390   32.8150   39.1860 C   0  0  0  0  0  0  0  0  0  0  0  0
   46.1260   33.3930   40.4120 C   0  0  0  0  0  0  0  0  0  0  0  0
   47.1790   34.2450   40.6440 C   0  0  0  0  0  0  0  0  0  0  0  0
   46.7460   31.9280   46.7310 C   0  0  0  0  0  0  0  0  0  0  0  0
   46.3340   32.1350   45.4160 C   0  0  0  0  0  0  0  0  0  0  0  0
   45.8220   31.0220   44.6720 C   0  0  0  0  0  0  0  0  0  0  0  0
   45.7670   29.8130   45.2980 N   0  0  0  0  0  0  0  0  0  0  0  0
   46.1720   29.6520   46.5640 C   0  0  0  0  0  0  0  0  0  0  0  0
   46.6530   30.6880   47.2710 N   0  0  0  0  0  0  0  0  0  0  0  0
   46.0950   28.3400   47.1970 C   0  0  0  0  0  0  0  0  0  0  0  0
   44.9040   27.9320   47.7920 C   0  0  0  0  0  0  0  0  0  0  0  0
   44.7730   26.7020   48.4060 C   0  0  0  0  0  0  0  0  0  0  0  0
   45.8610   25.8920   48.4120 N   0  0  0  0  0  0  0  0  0  0  0  0
   47.0200   26.2650   47.8460 C   0  0  0  0  0  0  0  0  0  0  0  0
   47.1180   27.4700   47.2530 N   0  0  0  0  0  0  0  0  0  0  0  0
   47.2306   34.0338   45.3865 H   0  0  0  0  0  0  0  0  0  0  0  0
   44.3518   33.8822   45.6954 H   0  0  0  0  0  0  0  0  0  0  0  0
   43.9270   35.8288   44.0844 H   0  0  0  0  0  0  0  0  0  0  0  0
   45.4335   35.6466   42.0683 H   0  0  0  0  0  0  0  0  0  0  0  0
   46.1931   36.7176   43.3690 H   0  0  0  0  0  0  0  0  0  0  0  0
   47.8009   35.3815   43.7771 H   0  0  0  0  0  0  0  0  0  0  0  0
   46.2200   33.0274   42.7574 H   0  0  0  0  0  0  0  0  0  0  0  0
   47.9018   32.9577   43.3388 H   0  0  0  0  0  0  0  0  0  0  0  0
   49.4776   36.3056   41.8463 H   0  0  0  0  0  0  0  0  0  0  0  0
   49.6790   35.7164   39.3389 H   0  0  0  0  0  0  0  0  0  0  0  0
   48.4328   34.2152   37.4038 H   0  0  0  0  0  0  0  0  0  0  0  0
   46.4876   32.6973   37.1659 H   0  0  0  0  0  0  0  0  0  0  0  0
   44.9840   32.1372   39.0459 H   0  0  0  0  0  0  0  0  0  0  0  0
   45.4653   33.1534   41.2582 H   0  0  0  0  0  0  0  0  0  0  0  0
   47.1433   32.7637   47.3258 H   0  0  0  0  0  0  0  0  0  0  0  0
   45.4851   31.1398   43.6315 H   0  0  0  0  0  0  0  0  0  0  0  0
   44.0393   28.6116   47.7723 H   0  0  0  0  0  0  0  0  0  0  0  0
   43.8255   26.3920   48.8710 H   0  0  0  0  0  0  0  0  0  0  0  0
   47.8869   25.5882   47.8666 H   0  0  0  0  0  0  0  0  0  0  0  0
  1  2  1  0
  1 17  1  0
  3  2  2  0
  4  3  1  0
  5  4  1  0
  5  6  1  0
  6  1  1  0
  7  5  1  0
  8  7  2  0
  9  8  1  0
 10  9  1  0
 10 15  2  0
 11 10  1  0
 12 11  2  0
 12 13  1  0
 13 14  2  0
 14 15  1  0
 15  7  1  0
 16 21  2  0
 17 16  1  0
 18 19  1  0
 18 17  2  0
 19 20  2  0
 20 22  1  0
 20 21  1  0
 22 27  1  0
 22 23  2  0
 23 24  1  0
 24 25  2  0
 26 25  1  0
 27 26  2  0
  1 28  1  1
  2 29  1  0
  3 30  1  0
  4 31  1  0
  4 32  1  0
  5 33  1  1
  6 34  1  0
  6 35  1  0
  8 36  1  0
  9 37  1  0
 11 38  1  0
 12 39  1  0
 13 40  1  0
 14 41  1  0
 16 42  1  0
 18 43  1  0
 23 44  1  0
 24 45  1  0
 26 46  1  0
M  ISO  8  28  13  29  13  30  13  31  13  32  13  33  13  34  13  35  13
M  ISO  8  36  14  37   9  38  14  39  14  40  14  41  14  42  14  43  14
M  ISO  3  44  14  45  14  46  14
M  END
>  <minimizedAffinity>  (1) 
-6.59156609

>  <minimizedRMSD>  (1) 
1.44204021

$$$$
