
     RDKit          3D

 44 48  0  0  1  0  0  0  0  0999 V2000
   46.4000   33.5990   44.8900 C   0  0  2  0  0  0  0  0  0  0  0  0
   45.0370   34.2960   44.9760 C   0  0  0  0  0  0  0  0  0  0  0  0
   44.8140   35.3600   44.0330 C   0  0  0  0  0  0  0  0  0  0  0  0
   45.8330   35.7560   43.0490 C   0  0  0  0  0  0  0  0  0  0  0  0
   47.0680   34.9670   43.0570 C   0  0  1  0  0  0  0  0  0  0  0  0
   46.8900   33.5730   43.4810 C   0  0  0  0  0  0  0  0  0  0  0  0
   47.6580   34.9580   41.6980 C   0  0  0  0  0  0  0  0  0  0  0  0
   48.8080   35.6330   41.2740 C   0  0  0  0  0  0  0  0  0  0  0  0
   48.9230   35.3040   39.9900 N   0  0  0  0  0  0  0  0  0  0  0  0
   47.9470   34.4820   39.5720 C   0  0  0  0  0  0  0  0  0  0  0  0
   47.7470   33.9300   38.2970 C   0  0  0  0  0  0  0  0  0  0  0  0
   46.6500   33.1210   38.1970 C   0  0  0  0  0  0  0  0  0  0  0  0
   45.7700   32.8300   39.2300 C   0  0  0  0  0  0  0  0  0  0  0  0
   46.0610   33.4300   40.4450 C   0  0  0  0  0  0  0  0  0  0  0  0
   47.1300   34.2610   40.6810 C   0  0  0  0  0  0  0  0  0  0  0  0
   46.5840   32.1220   46.8720 C   0  0  0  0  0  0  0  0  0  0  0  0
   46.2770   32.2670   45.5200 C   0  0  0  0  0  0  0  0  0  0  0  0
   45.8640   31.1060   44.7840 C   0  0  0  0  0  0  0  0  0  0  0  0
   45.7960   29.9240   45.4540 N   0  0  0  0  0  0  0  0  0  0  0  0
   46.0990   29.8270   46.7510 C   0  0  0  0  0  0  0  0  0  0  0  0
   46.4870   30.9030   47.4550 N   0  0  0  0  0  0  0  0  0  0  0  0
   45.9660   28.4720   47.2940 C   0  0  0  0  0  0  0  0  0  0  0  0
   47.0380   27.6750   47.1900 C   0  0  0  0  0  0  0  0  0  0  0  0
   46.4390   26.0560   47.9990 S   0  0  0  0  0  0  0  0  0  0  0  0
   44.7480   26.9000   48.3140 C   0  0  0  0  0  0  0  0  0  0  0  0
   44.9240   27.9180   47.8780 N   0  0  0  0  0  0  0  0  0  0  0  0
   47.1712   34.1545   45.4437 H   0  0  0  0  0  0  0  0  0  0  0  0
   44.2761   34.0008   45.7135 H   0  0  0  0  0  0  0  0  0  0  0  0
   43.8521   35.8934   44.0486 H   0  0  0  0  0  0  0  0  0  0  0  0
   46.1013   36.8047   43.2444 H   0  0  0  0  0  0  0  0  0  0  0  0
   45.3770   35.5872   42.0623 H   0  0  0  0  0  0  0  0  0  0  0  0
   47.7254   35.4520   43.7936 H   0  0  0  0  0  0  0  0  0  0  0  0
   46.1529   33.0739   42.8349 H   0  0  0  0  0  0  0  0  0  0  0  0
   47.8373   33.0187   43.4074 H   0  0  0  0  0  0  0  0  0  0  0  0
   49.4660   36.2858   41.8663 H   0  0  0  0  0  0  0  0  0  0  0  0
   49.6808   35.6440   39.3808 H   0  0  0  0  0  0  0  0  0  0  0  0
   48.4176   34.1318   37.4487 H   0  0  0  0  0  0  0  0  0  0  0  0
   46.4480   32.6630   37.2175 H   0  0  0  0  0  0  0  0  0  0  0  0
   44.9015   32.1688   39.0938 H   0  0  0  0  0  0  0  0  0  0  0  0
   45.3831   33.2250   41.2866 H   0  0  0  0  0  0  0  0  0  0  0  0
   46.9035   32.9932   47.4627 H   0  0  0  0  0  0  0  0  0  0  0  0
   45.6113   31.1698   43.7153 H   0  0  0  0  0  0  0  0  0  0  0  0
   48.0199   27.8992   46.7477 H   0  0  0  0  0  0  0  0  0  0  0  0
   43.8454   26.4942   48.7943 H   0  0  0  0  0  0  0  0  0  0  0  0
  1  2  1  0
  1 17  1  0
  3  2  2  0
  4  5  1  0
  4  3  1  0
  5  6  1  0
  6  1  1  0
  7  5  1  0
  8  7  2  0
  9  8  1  0
 10  9  1  0
 10 15  2  0
 11 10  1  0
 12 11  2  0
 12 13  1  0
 13 14  2  0
 14 15  1  0
 15  7  1  0
 16 21  2  0
 17 16  1  0
 18 19  1  0
 18 17  2  0
 19 20  2  0
 20 22  1  0
 20 21  1  0
 22 26  1  0
 23 22  2  0
 23 24  1  0
 24 25  1  0
 26 25  2  0
  1 27  1  1
  2 28  1  0
  3 29  1  0
  4 30  1  0
  4 31  1  0
  5 32  1  1
  6 33  1  0
  6 34  1  0
  8 35  1  0
  9 36  1  0
 11 37  1  0
 12 38  1  0
 13 39  1  0
 14 40  1  0
 16 41  1  0
 18 42  1  0
 23 43  1  0
 25 44  1  0
M  ISO  8  27  13  28  13  29  13  30  13  31  13  32  13  33  13  34  13
M  ISO  8  35  14  36   9  37  14  38  14  39  14  40  14  41  14  42  14
M  ISO  2  43  14  44  14
M  END
>  <minimizedAffinity>  (1) 
-6.46019554

>  <minimizedRMSD>  (1) 
1.09775758

$$$$
