
     RDKit          3D

 39 42  0  0  1  0  0  0  0  0999 V2000
   46.1550   34.0200   44.9620 C   0  0  2  0  0  0  0  0  0  0  0  0
   44.8330   34.7930   44.9650 C   0  0  0  0  0  0  0  0  0  0  0  0
   44.6720   35.7690   43.9100 C   0  0  0  0  0  0  0  0  0  0  0  0
   45.7150   36.0000   42.9090 C   0  0  0  0  0  0  0  0  0  0  0  0
   46.9160   35.1520   43.0050 C   0  0  1  0  0  0  0  0  0  0  0  0
   46.6540   33.8180   43.5690 C   0  0  0  0  0  0  0  0  0  0  0  0
   47.5060   34.9690   41.6610 C   0  0  0  0  0  0  0  0  0  0  0  0
   48.7250   35.4740   41.2070 C   0  0  0  0  0  0  0  0  0  0  0  0
   48.8200   35.0450   39.9550 N   0  0  0  0  0  0  0  0  0  0  0  0
   47.7510   34.3030   39.5820 C   0  0  0  0  0  0  0  0  0  0  0  0
   47.4900   33.6790   38.3520 C   0  0  0  0  0  0  0  0  0  0  0  0
   46.3080   32.9940   38.2970 C   0  0  0  0  0  0  0  0  0  0  0  0
   45.4000   32.8870   39.3320 C   0  0  0  0  0  0  0  0  0  0  0  0
   45.7450   33.5380   40.5070 C   0  0  0  0  0  0  0  0  0  0  0  0
   46.9050   34.2570   40.6830 C   0  0  0  0  0  0  0  0  0  0  0  0
   45.6170   32.8300   47.0770 C   0  0  0  0  0  0  0  0  0  0  0  0
   45.9380   32.7520   45.7180 C   0  0  0  0  0  0  0  0  0  0  0  0
   46.0500   31.4580   45.1050 C   0  0  0  0  0  0  0  0  0  0  0  0
   45.8340   30.3740   45.8940 N   0  0  0  0  0  0  0  0  0  0  0  0
   45.5280   30.4930   47.1890 C   0  0  0  0  0  0  0  0  0  0  0  0
   45.4180   31.6980   47.7840 N   0  0  0  0  0  0  0  0  0  0  0  0
   45.2420   29.0600   48.2270 S   0  0  0  0  0  0  0  0  0  0  0  0
   46.9525   34.5879   45.4635 H   0  0  0  0  0  0  0  0  0  0  0  0
   44.0547   34.6169   45.7221 H   0  0  0  0  0  0  0  0  0  0  0  0
   43.7414   36.3532   43.8583 H   0  0  0  0  0  0  0  0  0  0  0  0
   46.0375   37.0479   42.9978 H   0  0  0  0  0  0  0  0  0  0  0  0
   45.2542   35.7448   41.9434 H   0  0  0  0  0  0  0  0  0  0  0  0
   47.6018   35.6765   43.6866 H   0  0  0  0  0  0  0  0  0  0  0  0
   45.8943   33.2969   42.9680 H   0  0  0  0  0  0  0  0  0  0  0  0
   47.5676   33.2053   43.5656 H   0  0  0  0  0  0  0  0  0  0  0  0
   49.4465   36.0905   41.7632 H   0  0  0  0  0  0  0  0  0  0  0  0
   49.6171   35.2531   39.3368 H   0  0  0  0  0  0  0  0  0  0  0  0
   48.1823   33.7366   37.4991 H   0  0  0  0  0  0  0  0  0  0  0  0
   46.0604   32.4874   37.3525 H   0  0  0  0  0  0  0  0  0  0  0  0
   44.4622   32.3211   39.2308 H   0  0  0  0  0  0  0  0  0  0  0  0
   45.0456   33.4755   41.3537 H   0  0  0  0  0  0  0  0  0  0  0  0
   45.5271   33.8104   47.5677 H   0  0  0  0  0  0  0  0  0  0  0  0
   46.3006   31.3494   44.0395 H   0  0  0  0  0  0  0  0  0  0  0  0
   45.3155   29.4284   49.5445 H   0  0  0  0  0  0  0  0  0  0  0  0
  1  2  1  0
  1 17  1  0
  3  2  2  0
  4  5  1  0
  4  3  1  0
  5  6  1  0
  6  1  1  0
  7  5  1  0
  8  7  2  0
  9  8  1  0
 10  9  1  0
 10 15  2  0
 11 10  1  0
 12 11  2  0
 12 13  1  0
 13 14  2  0
 14 15  1  0
 15  7  1  0
 16 21  2  0
 17 16  1  0
 18 17  2  0
 18 19  1  0
 19 20  2  0
 20 21  1  0
 20 22  1  0
  1 23  1  1
  2 24  1  0
  3 25  1  0
  4 26  1  0
  4 27  1  0
  5 28  1  1
  6 29  1  0
  6 30  1  0
  8 31  1  0
  9 32  1  0
 11 33  1  0
 12 34  1  0
 13 35  1  0
 14 36  1  0
 16 37  1  0
 18 38  1  0
 22 39  1  0
M  ISO  8  23  13  24  13  25  13  26  13  27  13  28  13  29  13  30  13
M  ISO  8  31  14  32   9  33  14  34  14  35  14  36  14  37  14  38  14
M  ISO  1  39  11
M  END
>  <minimizedAffinity>  (1) 
-6.21193504

>  <minimizedRMSD>  (1) 
0.294075847

$$$$
