
     RDKit          3D

 20 21  0  0  0  0  0  0  0  0999 V2000
   44.3070   35.7920   44.2560 C   0  0  0  0  0  0  0  0  0  0  0  0
   44.5180   34.9880   43.1150 C   0  0  0  0  0  0  0  0  0  0  0  0
   45.1520   33.7490   43.2730 C   0  0  0  0  0  0  0  0  0  0  0  0
   45.5400   33.3710   44.5300 N   0  0  0  0  0  0  0  0  0  0  0  0
   45.3180   34.1730   45.5950 C   0  0  0  0  0  0  0  0  0  0  0  0
   44.7120   35.3690   45.4790 N   0  0  0  0  0  0  0  0  0  0  0  0
   44.0700   35.4760   41.8180 C   0  0  0  0  0  0  0  0  0  0  0  0
   42.8350   34.8140   41.2740 C   0  0  0  0  0  0  0  0  0  0  0  0
   42.5080   35.1670   39.8220 C   0  0  0  0  0  0  0  0  0  0  0  0
   41.6100   35.5550   40.9750 C   0  0  0  0  0  0  0  0  0  0  0  0
   43.8107   36.7682   44.1523 H   0  0  0  0  0  0  0  0  0  0  0  0
   45.3338   33.0952   42.4073 H   0  0  0  0  0  0  0  0  0  0  0  0
   45.6437   33.8367   46.5904 H   0  0  0  0  0  0  0  0  0  0  0  0
   43.8649   36.5526   41.9124 H   0  0  0  0  0  0  0  0  0  0  0  0
   44.8779   35.2416   41.1093 H   0  0  0  0  0  0  0  0  0  0  0  0
   43.0108   33.9128   41.8798 H   0  0  0  0  0  0  0  0  0  0  0  0
   42.1988   34.3835   39.1145 H   0  0  0  0  0  0  0  0  0  0  0  0
   43.0160   35.6943   39.0011 H   0  0  0  0  0  0  0  0  0  0  0  0
   41.5270   36.6117   41.2692 H   0  0  0  0  0  0  0  0  0  0  0  0
   40.5452   35.4000   41.2033 H   0  0  0  0  0  0  0  0  0  0  0  0
  1  6  2  0
  2  3  2  0
  2  1  1  0
  3  4  1  0
  4  5  2  0
  6  5  1  0
  7  2  1  0
  8  7  1  0
  9 10  1  0
  9  8  1  0
 10  8  1  0
  1 11  1  0
  3 12  1  0
  5 13  1  0
  7 14  1  0
  7 15  1  0
  8 16  1  0
  9 17  1  0
  9 18  1  0
 10 19  1  0
 10 20  1  0
M  ISO  8  11  14  12  14  13  14  14   8  15   8  16  13  17  13  18  13
M  ISO  2  19  13  20  13
M  END
>  <minimizedAffinity>  (1) 
-3.38953638

>  <minimizedRMSD>  (1) 
0.419421852

$$$$
