./init_pose/1_0.pdbqt
     RDKit          3D

 10 10  0  0  0  0  0  0  0  0999 V2000
   44.5750   35.9540   44.5110 C   0  0  0  0  0  0  0  0  0  0  0  0
   45.3340   35.6760   43.3540 C   0  0  0  0  0  0  0  0  0  0  0  0
   46.1720   34.5510   43.3750 C   0  0  0  0  0  0  0  0  0  0  0  0
   46.2070   33.7950   44.5120 N   0  0  0  0  0  0  0  0  0  0  0  0
   45.4640   34.0920   45.6020 C   0  0  0  0  0  0  0  0  0  0  0  0
   44.6510   35.1650   45.5970 N   0  0  0  0  0  0  0  0  0  0  0  0
   43.9104   36.8305   44.5245 H   0  0  0  0  0  0  0  0  0  0  0  0
   45.2706   36.3204   42.4648 H   0  0  0  0  0  0  0  0  0  0  0  0
   46.7837   34.2852   42.5003 H   0  0  0  0  0  0  0  0  0  0  0  0
   45.5241   33.4544   46.4963 H   0  0  0  0  0  0  0  0  0  0  0  0
  1  6  2  0
  2  3  2  0
  2  1  1  0
  3  4  1  0
  4  5  2  0
  6  5  1  0
  1  7  1  0
  2  8  1  0
  3  9  1  0
  5 10  1  0
M  ISO  4   7  14   8  14   9  14  10  14
M  END
>  <MODEL>  (1) 
1

>  <REMARK>  (1) 
 minimizedAffinity -2.61551571REMARK  Name = 7
  0 active torsions:
  status: ('A' for Active; 'I' for Inactive)
                            x       y       z     vdW  Elec       q    Type
                         _______ _______ _______ _____ _____    ______ ____

>  <TORSDO>  (1) 
F 0

$$$$
