
     RDKit          3D

 33 35  0  0  1  0  0  0  0  0999 V2000
   43.9720   35.5460   41.8380 C   0  0  0  0  0  0  0  0  0  0  0  0
   44.2930   35.8070   44.2700 C   0  0  0  0  0  0  0  0  0  0  0  0
   44.4580   35.0180   43.1120 C   0  0  0  0  0  0  0  0  0  0  0  0
   45.0740   33.7700   43.2270 C   0  0  0  0  0  0  0  0  0  0  0  0
   45.4910   33.3690   44.4570 N   0  0  0  0  0  0  0  0  0  0  0  0
   45.3160   34.1510   45.5440 C   0  0  0  0  0  0  0  0  0  0  0  0
   44.7240   35.3620   45.4670 N   0  0  0  0  0  0  0  0  0  0  0  0
   42.7500   34.8790   41.2890 C   0  0  2  0  0  0  0  0  0  0  0  0
   42.5070   35.0960   39.7970 C   0  0  0  0  0  0  0  0  0  0  0  0
   41.5820   35.6510   40.8640 C   0  0  1  0  0  0  0  0  0  0  0  0
   40.2050   35.0620   41.0110 C   0  0  0  0  0  0  0  0  0  0  0  0
   39.4600   34.9430   39.6960 C   0  0  0  0  0  0  0  0  0  0  0  0
   38.4710   33.7960   39.9260 C   0  0  0  0  0  0  0  0  0  0  0  0
   39.0600   32.9550   41.0120 C   0  0  0  0  0  0  0  0  0  0  0  0
   40.3670   33.5920   41.3670 C   0  0  0  0  0  0  0  0  0  0  0  0
   43.7419   36.6124   41.9787 H   0  0  0  0  0  0  0  0  0  0  0  0
   44.7728   35.3581   41.1077 H   0  0  0  0  0  0  0  0  0  0  0  0
   43.8093   36.7921   44.1954 H   0  0  0  0  0  0  0  0  0  0  0  0
   45.2180   33.1283   42.3453 H   0  0  0  0  0  0  0  0  0  0  0  0
   45.6666   33.7902   46.5222 H   0  0  0  0  0  0  0  0  0  0  0  0
   42.8575   34.0272   41.9767 H   0  0  0  0  0  0  0  0  0  0  0  0
   42.1829   34.2611   39.1583 H   0  0  0  0  0  0  0  0  0  0  0  0
   43.0794   35.5072   38.9524 H   0  0  0  0  0  0  0  0  0  0  0  0
   41.1979   36.6521   41.1095 H   0  0  0  0  0  0  0  0  0  0  0  0
   39.6819   35.7069   41.7324 H   0  0  0  0  0  0  0  0  0  0  0  0
   40.1524   34.7024   38.8759 H   0  0  0  0  0  0  0  0  0  0  0  0
   38.9593   35.8796   39.4095 H   0  0  0  0  0  0  0  0  0  0  0  0
   37.4928   34.1915   40.2370 H   0  0  0  0  0  0  0  0  0  0  0  0
   38.3102   33.2127   39.0074 H   0  0  0  0  0  0  0  0  0  0  0  0
   38.3931   32.9388   41.8866 H   0  0  0  0  0  0  0  0  0  0  0  0
   39.1960   31.9136   40.6850 H   0  0  0  0  0  0  0  0  0  0  0  0
   41.1855   33.1424   40.7857 H   0  0  0  0  0  0  0  0  0  0  0  0
   40.6173   33.4517   42.4289 H   0  0  0  0  0  0  0  0  0  0  0  0
  1  3  1  0
  2  7  2  0
  3  4  2  0
  3  2  1  0
  4  5  1  0
  5  6  2  0
  7  6  1  0
  8  1  1  0
  9 10  1  0
  9  8  1  0
 10 11  1  0
 10  8  1  0
 11 15  1  0
 12 13  1  0
 12 11  1  0
 13 14  1  0
 14 15  1  0
  1 16  1  0
  1 17  1  0
  2 18  1  0
  4 19  1  0
  6 20  1  0
  8 21  1  6
  9 22  1  0
  9 23  1  0
 10 24  1  1
 11 25  1  0
 12 26  1  0
 12 27  1  0
 13 28  1  0
 13 29  1  0
 14 30  1  0
 14 31  1  0
 15 32  1  0
 15 33  1  0
M  ISO  8  16   8  17   8  18  14  19  14  20  14  21  13  22  13  23  13
M  ISO  8  24  13  25  13  26  13  27  13  28  13  29  13  30  13  31  13
M  ISO  2  32  13  33  13
M  END
>  <minimizedAffinity>  (1) 
-5.24051142

>  <minimizedRMSD>  (1) 
0.596279204

$$$$
