
     RDKit          3D

 25 27  0  0  1  0  0  0  0  0999 V2000
   42.7650   34.8700   41.0310 C   0  0  2  0  0  0  0  0  0  0  0  0
   42.6610   35.1020   39.5270 C   0  0  0  0  0  0  0  0  0  0  0  0
   41.5440   35.4680   40.4640 C   0  0  1  0  0  0  0  0  0  0  0  0
   40.3320   34.6130   40.5240 C   0  0  0  0  0  0  0  0  0  0  0  0
   39.9320   33.6720   41.4160 N   0  0  0  0  0  0  0  0  0  0  0  0
   38.7890   33.1810   41.0560 O   0  0  0  0  0  0  0  0  0  0  0  0
   38.3980   33.7690   39.9320 C   0  0  0  0  0  0  0  0  0  0  0  0
   39.3420   34.6610   39.5870 N   0  0  0  0  0  0  0  0  0  0  0  0
   43.7890   35.6990   41.7420 C   0  0  0  0  0  0  0  0  0  0  0  0
   44.3130   35.8490   44.1630 C   0  0  0  0  0  0  0  0  0  0  0  0
   44.3400   35.1070   42.9590 C   0  0  0  0  0  0  0  0  0  0  0  0
   44.8970   33.8200   42.9680 C   0  0  0  0  0  0  0  0  0  0  0  0
   45.3930   33.3350   44.1520 N   0  0  0  0  0  0  0  0  0  0  0  0
   45.3430   34.0850   45.2740 C   0  0  0  0  0  0  0  0  0  0  0  0
   44.8180   35.3150   45.2920 N   0  0  0  0  0  0  0  0  0  0  0  0
   42.9274   34.0229   41.7137 H   0  0  0  0  0  0  0  0  0  0  0  0
   42.5524   34.2496   38.8402 H   0  0  0  0  0  0  0  0  0  0  0  0
   43.2574   35.6289   38.7676 H   0  0  0  0  0  0  0  0  0  0  0  0
   40.9721   36.3956   40.6139 H   0  0  0  0  0  0  0  0  0  0  0  0
   37.4681   33.5631   39.3817 H   0  0  0  0  0  0  0  0  0  0  0  0
   44.6213   35.8805   41.0461 H   0  0  0  0  0  0  0  0  0  0  0  0
   43.2698   36.6154   42.0591 H   0  0  0  0  0  0  0  0  0  0  0  0
   43.8804   36.8603   44.1774 H   0  0  0  0  0  0  0  0  0  0  0  0
   44.9353   33.2151   42.0500 H   0  0  0  0  0  0  0  0  0  0  0  0
   45.7491   33.6688   46.2077 H   0  0  0  0  0  0  0  0  0  0  0  0
  1  9  1  0
  2  3  1  0
  2  1  1  0
  3  4  1  0
  3  1  1  0
  4  5  2  0
  6  5  1  0
  7  6  1  0
  8  7  2  0
  8  4  1  0
  9 11  1  0
 10 15  2  0
 11 12  2  0
 11 10  1  0
 12 13  1  0
 13 14  2  0
 14 15  1  0
  1 16  1  6
  2 17  1  0
  2 18  1  0
  3 19  1  1
  7 20  1  0
  9 21  1  0
  9 22  1  0
 10 23  1  0
 12 24  1  0
 14 25  1  0
M  ISO  8  16  13  17  13  18  13  19  13  20  14  21   8  22   8  23  14
M  ISO  2  24  14  25  14
M  END
>  <minimizedAffinity>  (1) 
-4.67863274

>  <minimizedRMSD>  (1) 
0.944774449

$$$$
