
     RDKit          3D

 43 46  0  0  1  0  0  0  0  0999 V2000
   45.4990   33.9690   42.8020 C   0  0  2  0  0  0  0  0  0  0  0  0
   45.8530   34.4860   41.4060 C   0  0  0  0  0  0  0  0  0  0  0  0
   44.8380   35.1530   42.2690 C   0  0  1  0  0  0  0  0  0  0  0  0
   43.4030   35.1520   41.8370 C   0  0  2  0  0  0  0  0  0  0  0  0
   42.7260   33.8540   41.4770 C   0  0  0  0  0  0  0  0  0  0  0  0
   43.1480   34.8050   40.3890 C   0  0  1  0  0  0  0  0  0  0  0  0
   42.0120   35.4210   39.6270 C   0  0  0  0  0  0  0  0  0  0  0  0
   40.6870   34.8120   39.8920 C   0  0  0  0  0  0  0  0  0  0  0  0
   40.2370   34.0460   38.6710 C   0  0  0  0  0  0  0  0  0  0  0  0
   39.9950   34.9920   37.4940 C   0  0  0  0  0  0  0  0  0  0  0  0
   41.0320   36.1020   37.4980 C   0  0  0  0  0  0  0  0  0  0  0  0
   42.2720   35.4660   38.1430 C   0  0  0  0  0  0  0  0  0  0  0  0
   46.6220   34.0600   43.8010 C   0  0  0  0  0  0  0  0  0  0  0  0
   45.4800   33.8550   45.9910 C   0  0  0  0  0  0  0  0  0  0  0  0
   46.4010   33.3600   45.0510 C   0  0  0  0  0  0  0  0  0  0  0  0
   47.1010   32.1770   45.3430 C   0  0  0  0  0  0  0  0  0  0  0  0
   46.8670   31.5490   46.5250 N   0  0  0  0  0  0  0  0  0  0  0  0
   45.9660   32.0610   47.4110 C   0  0  0  0  0  0  0  0  0  0  0  0
   45.2770   33.2040   47.1470 N   0  0  0  0  0  0  0  0  0  0  0  0
   45.1034   33.0538   43.2666 H   0  0  0  0  0  0  0  0  0  0  0  0
   45.5417   33.9280   40.5106 H   0  0  0  0  0  0  0  0  0  0  0  0
   46.7723   34.7916   40.8850 H   0  0  0  0  0  0  0  0  0  0  0  0
   44.6955   36.1665   42.6722 H   0  0  0  0  0  0  0  0  0  0  0  0
   43.1470   35.9736   42.5222 H   0  0  0  0  0  0  0  0  0  0  0  0
   43.2586   32.9009   41.6108 H   0  0  0  0  0  0  0  0  0  0  0  0
   41.7812   33.3664   41.7591 H   0  0  0  0  0  0  0  0  0  0  0  0
   43.8026   34.7985   39.5050 H   0  0  0  0  0  0  0  0  0  0  0  0
   41.9655   36.4496   40.0140 H   0  0  0  0  0  0  0  0  0  0  0  0
   40.7624   34.1263   40.7488 H   0  0  0  0  0  0  0  0  0  0  0  0
   39.9571   35.6025   40.1210 H   0  0  0  0  0  0  0  0  0  0  0  0
   41.0147   33.3187   38.3949 H   0  0  0  0  0  0  0  0  0  0  0  0
   39.2951   33.5291   38.9069 H   0  0  0  0  0  0  0  0  0  0  0  0
   38.9904   35.4317   37.5806 H   0  0  0  0  0  0  0  0  0  0  0  0
   40.0749   34.4265   36.5539 H   0  0  0  0  0  0  0  0  0  0  0  0
   41.2530   36.4316   36.4721 H   0  0  0  0  0  0  0  0  0  0  0  0
   40.6882   36.9942   38.0419 H   0  0  0  0  0  0  0  0  0  0  0  0
   42.4225   34.4484   37.7533 H   0  0  0  0  0  0  0  0  0  0  0  0
   43.1782   36.0472   37.9171 H   0  0  0  0  0  0  0  0  0  0  0  0
   47.5263   33.6429   43.3338 H   0  0  0  0  0  0  0  0  0  0  0  0
   46.7099   35.1250   44.0617 H   0  0  0  0  0  0  0  0  0  0  0  0
   44.9235   34.7797   45.7781 H   0  0  0  0  0  0  0  0  0  0  0  0
   47.8269   31.7659   44.6260 H   0  0  0  0  0  0  0  0  0  0  0  0
   45.7919   31.5371   48.3625 H   0  0  0  0  0  0  0  0  0  0  0  0
  1 13  1  0
  2  3  1  0
  2  1  1  0
  3  1  1  0
  4  3  1  0
  5  4  1  0
  6  5  1  0
  6  4  1  0
  7  8  1  0
  7  6  1  0
  9  8  1  0
 10 11  1  0
 10  9  1  0
 11 12  1  0
 12  7  1  0
 13 15  1  0
 14 19  2  0
 15 16  2  0
 15 14  1  0
 16 17  1  0
 17 18  2  0
 19 18  1  0
  1 20  1  6
  2 21  1  0
  2 22  1  0
  3 23  1  1
  4 24  1  1
  5 25  1  0
  5 26  1  0
  6 27  1  6
  7 28  1  0
  8 29  1  0
  8 30  1  0
  9 31  1  0
  9 32  1  0
 10 33  1  0
 10 34  1  0
 11 35  1  0
 11 36  1  0
 12 37  1  0
 12 38  1  0
 13 39  1  0
 13 40  1  0
 14 41  1  0
 16 42  1  0
 18 43  1  0
M  ISO  8  20  13  21  13  22  13  23  13  24  13  25  13  26  13  27  13
M  ISO  8  28  13  29  13  30  13  31  13  32  13  33  13  34  13  35  13
M  ISO  8  36  13  37  13  38  13  39   8  40   8  41  14  42  14  43  14
M  END
>  <minimizedAffinity>  (1) 
-5.40388536

>  <minimizedRMSD>  (1) 
3.56459856

$$$$
