
     RDKit          3D

 36 39  0  0  1  0  0  0  0  0999 V2000
   43.9910   34.9180   42.1740 C   0  0  2  0  0  0  0  0  0  0  0  0
   44.2670   34.3700   40.7540 C   0  0  0  0  0  0  0  0  0  0  0  0
   43.4550   35.6200   40.9900 C   0  0  1  0  0  0  0  0  0  0  0  0
   42.0120   35.5750   40.6640 C   0  0  2  0  0  0  0  0  0  0  0  0
   40.9600   35.2750   41.7110 C   0  0  0  0  0  0  0  0  0  0  0  0
   41.3660   34.2030   40.7080 C   0  0  1  0  0  0  0  0  0  0  0  0
   40.3100   33.9710   39.6840 C   0  0  0  0  0  0  0  0  0  0  0  0
   40.1790   34.6690   38.4940 C   0  0  0  0  0  0  0  0  0  0  0  0
   39.1570   34.3650   37.6190 C   0  0  0  0  0  0  0  0  0  0  0  0
   38.2630   33.3740   37.9160 C   0  0  0  0  0  0  0  0  0  0  0  0
   38.4090   32.6830   39.1150 C   0  0  0  0  0  0  0  0  0  0  0  0
   39.4100   33.0100   39.9290 N   0  0  0  0  0  0  0  0  0  0  0  0
   45.2170   35.3990   42.9020 C   0  0  0  0  0  0  0  0  0  0  0  0
   45.0300   34.6160   45.2310 C   0  0  0  0  0  0  0  0  0  0  0  0
   45.6780   34.5570   43.9730 C   0  0  0  0  0  0  0  0  0  0  0  0
   46.7530   33.6680   43.8320 C   0  0  0  0  0  0  0  0  0  0  0  0
   47.1350   32.8990   44.8950 N   0  0  0  0  0  0  0  0  0  0  0  0
   46.4700   33.0000   46.0890 C   0  0  0  0  0  0  0  0  0  0  0  0
   45.4200   33.8530   46.2660 N   0  0  0  0  0  0  0  0  0  0  0  0
   43.5147   34.5850   43.1079 H   0  0  0  0  0  0  0  0  0  0  0  0
   43.7786   33.4464   40.4098 H   0  0  0  0  0  0  0  0  0  0  0  0
   45.1599   34.1062   40.1682 H   0  0  0  0  0  0  0  0  0  0  0  0
   43.5131   36.6666   40.6566 H   0  0  0  0  0  0  0  0  0  0  0  0
   42.1237   36.3975   39.9422 H   0  0  0  0  0  0  0  0  0  0  0  0
   41.2481   35.1768   42.7681 H   0  0  0  0  0  0  0  0  0  0  0  0
   40.0089   35.7376   42.0134 H   0  0  0  0  0  0  0  0  0  0  0  0
   41.7552   33.1750   40.7492 H   0  0  0  0  0  0  0  0  0  0  0  0
   40.8928   35.4685   38.2463 H   0  0  0  0  0  0  0  0  0  0  0  0
   39.0606   34.9234   36.6762 H   0  0  0  0  0  0  0  0  0  0  0  0
   37.4458   33.1282   37.2219 H   0  0  0  0  0  0  0  0  0  0  0  0
   37.7083   31.8794   39.3857 H   0  0  0  0  0  0  0  0  0  0  0  0
   46.0318   35.4891   42.1685 H   0  0  0  0  0  0  0  0  0  0  0  0
   44.9317   36.3518   43.3718 H   0  0  0  0  0  0  0  0  0  0  0  0
   44.1837   35.3058   45.3645 H   0  0  0  0  0  0  0  0  0  0  0  0
   47.2851   33.5901   42.8724 H   0  0  0  0  0  0  0  0  0  0  0  0
   46.7935   32.3726   46.9326 H   0  0  0  0  0  0  0  0  0  0  0  0
  1 13  1  0
  2  3  1  0
  2  1  1  0
  3  1  1  0
  4  6  1  0
  4  3  1  0
  4  5  1  0
  6  5  1  0
  7 12  1  0
  7  6  1  0
  8  7  2  0
  9 10  2  0
  9  8  1  0
 10 11  1  0
 11 12  2  0
 13 15  1  0
 14 19  2  0
 15 14  1  0
 16 15  2  0
 16 17  1  0
 17 18  2  0
 18 19  1  0
  1 20  1  1
  2 21  1  0
  2 22  1  0
  3 23  1  6
  4 24  1  6
  5 25  1  0
  5 26  1  0
  6 27  1  1
  8 28  1  0
  9 29  1  0
 10 30  1  0
 11 31  1  0
 13 32  1  0
 13 33  1  0
 14 34  1  0
 16 35  1  0
 18 36  1  0
M  ISO  8  20  13  21  13  22  13  23  13  24  13  25  13  26  13  27  13
M  ISO  8  28  14  29  14  30  14  31  14  32   8  33   8  34  14  35  14
M  ISO  1  36  14
M  END
>  <minimizedAffinity>  (1) 
-5.61651516

>  <minimizedRMSD>  (1) 
3.05805492

$$$$
