
     RDKit          3D

 41 45  0  0  1  0  0  0  0  0999 V2000
   43.4660   34.5510   40.5720 C   0  0  2  0  0  0  0  0  0  0  0  0
   42.7230   33.7610   41.6550 C   0  0  0  0  0  0  0  0  0  0  0  0
   43.6990   34.8320   42.0030 C   0  0  1  0  0  0  0  0  0  0  0  0
   44.9820   34.4280   42.6640 C   0  0  2  0  0  0  0  0  0  0  0  0
   45.8480   33.3650   42.0220 C   0  0  0  0  0  0  0  0  0  0  0  0
   45.0140   33.0380   43.2540 C   0  0  1  0  0  0  0  0  0  0  0  0
   45.6870   32.9090   44.5670 C   0  0  0  0  0  0  0  0  0  0  0  0
   45.6320   34.0380   45.3750 C   0  0  0  0  0  0  0  0  0  0  0  0
   46.2700   33.7510   46.5330 N   0  0  0  0  0  0  0  0  0  0  0  0
   46.7420   32.4940   46.5280 C   0  0  0  0  0  0  0  0  0  0  0  0
   47.4450   31.6370   47.3490 C   0  0  0  0  0  0  0  0  0  0  0  0
   47.7540   30.3350   46.9400 C   0  0  0  0  0  0  0  0  0  0  0  0
   47.3610   29.8620   45.6880 C   0  0  0  0  0  0  0  0  0  0  0  0
   46.6510   30.7040   44.8410 C   0  0  0  0  0  0  0  0  0  0  0  0
   46.3780   31.9730   45.3050 C   0  0  0  0  0  0  0  0  0  0  0  0
   42.6310   35.4200   39.6980 C   0  0  0  0  0  0  0  0  0  0  0  0
   41.1870   33.9380   38.3580 C   0  0  0  0  0  0  0  0  0  0  0  0
   41.3200   34.9180   39.3750 C   0  0  0  0  0  0  0  0  0  0  0  0
   40.1660   35.3670   40.0350 C   0  0  0  0  0  0  0  0  0  0  0  0
   38.9610   34.8310   39.6570 N   0  0  0  0  0  0  0  0  0  0  0  0
   38.8720   33.8980   38.6830 C   0  0  0  0  0  0  0  0  0  0  0  0
   39.9780   33.4530   38.0350 N   0  0  0  0  0  0  0  0  0  0  0  0
   44.1498   34.3519   39.7337 H   0  0  0  0  0  0  0  0  0  0  0  0
   41.6463   33.9188   41.8158 H   0  0  0  0  0  0  0  0  0  0  0  0
   42.5988   32.6976   41.9074 H   0  0  0  0  0  0  0  0  0  0  0  0
   43.6650   35.7555   42.5997 H   0  0  0  0  0  0  0  0  0  0  0  0
   45.1804   35.4490   43.0221 H   0  0  0  0  0  0  0  0  0  0  0  0
   45.5719   32.9467   41.0428 H   0  0  0  0  0  0  0  0  0  0  0  0
   46.9121   33.2818   41.7559 H   0  0  0  0  0  0  0  0  0  0  0  0
   44.2796   32.2533   43.4883 H   0  0  0  0  0  0  0  0  0  0  0  0
   45.1545   34.9952   45.1187 H   0  0  0  0  0  0  0  0  0  0  0  0
   46.3794   34.4108   47.3164 H   0  0  0  0  0  0  0  0  0  0  0  0
   47.7681   31.9829   48.3419 H   0  0  0  0  0  0  0  0  0  0  0  0
   48.3157   29.6740   47.6165 H   0  0  0  0  0  0  0  0  0  0  0  0
   47.6096   28.8370   45.3757 H   0  0  0  0  0  0  0  0  0  0  0  0
   46.3216   30.3729   43.8451 H   0  0  0  0  0  0  0  0  0  0  0  0
   42.5050   36.3871   40.2068 H   0  0  0  0  0  0  0  0  0  0  0  0
   43.1689   35.4815   38.7405 H   0  0  0  0  0  0  0  0  0  0  0  0
   42.0807   33.5732   37.8306 H   0  0  0  0  0  0  0  0  0  0  0  0
   40.2256   36.1247   40.8302 H   0  0  0  0  0  0  0  0  0  0  0  0
   37.8862   33.4926   38.4111 H   0  0  0  0  0  0  0  0  0  0  0  0
  1  2  1  0
  1  3  1  0
  2  3  1  0
  3  4  1  0
  4  6  1  0
  5  4  1  0
  5  6  1  0
  6  7  1  0
  7 15  1  0
  7  8  2  0
  8  9  1  0
 10  9  1  0
 10 11  2  0
 12 11  1  0
 13 12  2  0
 14 15  2  0
 14 13  1  0
 15 10  1  0
 16  1  1  0
 17 18  2  0
 18 16  1  0
 18 19  1  0
 20 19  2  0
 21 20  1  0
 22 17  1  0
 22 21  2  0
  1 23  1  6
  2 24  1  0
  2 25  1  0
  3 26  1  6
  4 27  1  1
  5 28  1  0
  5 29  1  0
  6 30  1  6
  8 31  1  0
  9 32  1  0
 11 33  1  0
 12 34  1  0
 13 35  1  0
 14 36  1  0
 16 37  1  0
 16 38  1  0
 17 39  1  0
 19 40  1  0
 21 41  1  0
M  ISO  8  23  13  24  13  25  13  26  13  27  13  28  13  29  13  30  13
M  ISO  8  31  14  32   9  33  14  34  14  35  14  36  14  37   8  38   8
M  ISO  3  39  14  40  14  41  14
M  END
>  <minimizedAffinity>  (1) 
-5.2795577

>  <minimizedRMSD>  (1) 
10.0067749

$$$$
