
     RDKit          3D

 43 47  0  0  1  0  0  0  0  0999 V2000
   45.9000   35.4410   42.2050 C   0  0  2  0  0  0  0  0  0  0  0  0
   44.9210   35.3550   43.3850 C   0  0  0  0  0  0  0  0  0  0  0  0
   44.7800   34.4770   42.1910 C   0  0  1  0  0  0  0  0  0  0  0  0
   43.6170   34.7020   41.2750 C   0  0  2  0  0  0  0  0  0  0  0  0
   42.2660   35.0700   41.8170 C   0  0  0  0  0  0  0  0  0  0  0  0
   42.5080   33.6670   41.3590 C   0  0  1  0  0  0  0  0  0  0  0  0
   42.0650   33.1460   40.0700 C   0  0  0  0  0  0  0  0  0  0  0  0
   42.8470   32.4550   39.1660 C   0  0  0  0  0  0  0  0  0  0  0  0
   42.4010   31.9750   37.9580 C   0  0  0  0  0  0  0  0  0  0  0  0
   41.0750   32.2000   37.6190 C   0  0  0  0  0  0  0  0  0  0  0  0
   40.2360   32.8920   38.4910 C   0  0  0  0  0  0  0  0  0  0  0  0
   38.9320   33.0770   38.0850 C   0  0  0  0  0  0  0  0  0  0  0  0
   38.0650   33.7610   38.9230 C   0  0  0  0  0  0  0  0  0  0  0  0
   38.5540   34.2260   40.1320 C   0  0  0  0  0  0  0  0  0  0  0  0
   39.8620   34.0280   40.5110 C   0  0  0  0  0  0  0  0  0  0  0  0
   40.7580   33.3470   39.6950 C   0  0  0  0  0  0  0  0  0  0  0  0
   47.3120   35.0220   42.4960 C   0  0  0  0  0  0  0  0  0  0  0  0
   48.9320   33.2900   41.9300 C   0  0  0  0  0  0  0  0  0  0  0  0
   47.9450   34.2010   41.5000 C   0  0  0  0  0  0  0  0  0  0  0  0
   47.6490   34.2420   40.1350 C   0  0  0  0  0  0  0  0  0  0  0  0
   48.3180   33.4120   39.2850 N   0  0  0  0  0  0  0  0  0  0  0  0
   49.2570   32.5530   39.7390 C   0  0  0  0  0  0  0  0  0  0  0  0
   49.5780   32.4770   41.0590 N   0  0  0  0  0  0  0  0  0  0  0  0
   46.2462   36.1924   41.4800 H   0  0  0  0  0  0  0  0  0  0  0  0
   45.2483   34.9338   44.3470 H   0  0  0  0  0  0  0  0  0  0  0  0
   44.2723   36.0626   43.9221 H   0  0  0  0  0  0  0  0  0  0  0  0
   44.7207   33.3897   42.0350 H   0  0  0  0  0  0  0  0  0  0  0  0
   44.2602   35.1442   40.4999 H   0  0  0  0  0  0  0  0  0  0  0  0
   42.1458   35.2827   42.8895 H   0  0  0  0  0  0  0  0  0  0  0  0
   41.5218   35.8435   41.5765 H   0  0  0  0  0  0  0  0  0  0  0  0
   42.3054   32.7004   41.8433 H   0  0  0  0  0  0  0  0  0  0  0  0
   43.8996   32.2764   39.4309 H   0  0  0  0  0  0  0  0  0  0  0  0
   43.0747   31.4293   37.2810 H   0  0  0  0  0  0  0  0  0  0  0  0
   40.6843   31.8313   36.6591 H   0  0  0  0  0  0  0  0  0  0  0  0
   38.5861   32.6896   37.1153 H   0  0  0  0  0  0  0  0  0  0  0  0
   37.0168   33.9298   38.6352 H   0  0  0  0  0  0  0  0  0  0  0  0
   37.8778   34.7690   40.8087 H   0  0  0  0  0  0  0  0  0  0  0  0
   40.2060   34.4170   41.4807 H   0  0  0  0  0  0  0  0  0  0  0  0
   47.9159   35.9338   42.6136 H   0  0  0  0  0  0  0  0  0  0  0  0
   47.2553   34.3990   43.4008 H   0  0  0  0  0  0  0  0  0  0  0  0
   49.1839   33.2380   42.9995 H   0  0  0  0  0  0  0  0  0  0  0  0
   46.8860   34.9351   39.7511 H   0  0  0  0  0  0  0  0  0  0  0  0
   49.7753   31.8983   39.0230 H   0  0  0  0  0  0  0  0  0  0  0  0
  1 17  1  0
  1  2  1  0
  3  1  1  0
  3  2  1  0
  4  6  1  0
  4  5  1  0
  4  3  1  0
  6  5  1  0
  7  6  1  0
  8  7  2  0
  9  8  1  0
 10  9  2  0
 10 11  1  0
 11 16  2  0
 12 11  1  0
 12 13  2  0
 13 14  1  0
 14 15  2  0
 16  7  1  0
 16 15  1  0
 19 18  2  0
 19 17  1  0
 20 19  1  0
 21 22  1  0
 21 20  2  0
 22 23  2  0
 23 18  1  0
  1 24  1  6
  2 25  1  0
  2 26  1  0
  3 27  1  1
  4 28  1  6
  5 29  1  0
  5 30  1  0
  6 31  1  1
  8 32  1  0
  9 33  1  0
 10 34  1  0
 12 35  1  0
 13 36  1  0
 14 37  1  0
 15 38  1  0
 17 39  1  0
 17 40  1  0
 18 41  1  0
 20 42  1  0
 22 43  1  0
M  ISO  8  24  13  25  13  26  13  27  13  28  13  29  13  30  13  31  13
M  ISO  8  32  14  33  14  34  14  35  14  36  14  37  14  38  14  39   8
M  ISO  4  40   8  41  14  42  14  43  14
M  END
>  <minimizedAffinity>  (1) 
-5.32924366

>  <minimizedRMSD>  (1) 
5.13039732

$$$$
