
     RDKit          3D

 39 41  0  0  1  0  0  0  0  0999 V2000
   44.3820   34.3300   41.9260 C   0  0  2  0  0  0  0  0  0  0  0  0
   45.0240   33.9640   40.5740 C   0  0  0  0  0  0  0  0  0  0  0  0
   43.8920   34.9280   40.6750 C   0  0  1  0  0  0  0  0  0  0  0  0
   42.5640   34.5420   40.1000 C   0  0  2  0  0  0  0  0  0  0  0  0
   42.4510   33.4060   39.1130 C   0  0  0  0  0  0  0  0  0  0  0  0
   42.3980   34.8270   38.6120 C   0  0  1  0  0  0  0  0  0  0  0  0
   41.0870   35.4770   38.2750 C   0  0  0  0  0  0  0  0  0  0  0  0
   41.2200   36.5640   37.2390 C   0  0  0  0  0  0  0  0  0  0  0  0
   40.5280   36.0200   39.5870 C   0  0  0  0  0  0  0  0  0  0  0  0
   40.0560   34.4930   37.7650 C   0  0  0  0  0  0  0  0  0  0  0  0
   45.2690   35.0600   42.8760 C   0  0  0  0  0  0  0  0  0  0  0  0
   45.0480   34.5410   45.2640 C   0  0  0  0  0  0  0  0  0  0  0  0
   45.7000   34.3260   44.0370 C   0  0  0  0  0  0  0  0  0  0  0  0
   46.7510   33.3980   43.9970 C   0  0  0  0  0  0  0  0  0  0  0  0
   47.0870   32.7510   45.1540 N   0  0  0  0  0  0  0  0  0  0  0  0
   46.4300   32.9920   46.3120 C   0  0  0  0  0  0  0  0  0  0  0  0
   45.4080   33.8850   46.3790 N   0  0  0  0  0  0  0  0  0  0  0  0
   43.8650   33.8281   42.7571 H   0  0  0  0  0  0  0  0  0  0  0  0
   44.8671   32.9670   40.1364 H   0  0  0  0  0  0  0  0  0  0  0  0
   46.0398   33.9809   40.1523 H   0  0  0  0  0  0  0  0  0  0  0  0
   43.7284   35.9687   40.3583 H   0  0  0  0  0  0  0  0  0  0  0  0
   42.0358   34.7735   41.0367 H   0  0  0  0  0  0  0  0  0  0  0  0
   43.3289   32.7803   38.8947 H   0  0  0  0  0  0  0  0  0  0  0  0
   41.7970   32.5268   39.0168 H   0  0  0  0  0  0  0  0  0  0  0  0
   42.9396   35.3446   37.8065 H   0  0  0  0  0  0  0  0  0  0  0  0
   41.3389   37.5358   37.7404 H   0  0  0  0  0  0  0  0  0  0  0  0
   42.1006   36.3656   36.6103 H   0  0  0  0  0  0  0  0  0  0  0  0
   40.3176   36.5837   36.6103 H   0  0  0  0  0  0  0  0  0  0  0  0
   41.0333   35.5292   40.4319 H   0  0  0  0  0  0  0  0  0  0  0  0
   40.6997   37.1053   39.6374 H   0  0  0  0  0  0  0  0  0  0  0  0
   39.4481   35.8169   39.6374 H   0  0  0  0  0  0  0  0  0  0  0  0
   39.5535   34.0134   38.6179 H   0  0  0  0  0  0  0  0  0  0  0  0
   39.3125   35.0250   37.1532 H   0  0  0  0  0  0  0  0  0  0  0  0
   40.5527   33.7255   37.1532 H   0  0  0  0  0  0  0  0  0  0  0  0
   46.1677   35.3716   42.3236 H   0  0  0  0  0  0  0  0  0  0  0  0
   44.6630   35.8925   43.2630 H   0  0  0  0  0  0  0  0  0  0  0  0
   44.2216   35.2654   45.3118 H   0  0  0  0  0  0  0  0  0  0  0  0
   47.2906   33.1960   43.0600 H   0  0  0  0  0  0  0  0  0  0  0  0
   46.7306   32.4516   47.2217 H   0  0  0  0  0  0  0  0  0  0  0  0
  1 11  1  0
  2  3  1  0
  2  1  1  0
  3  1  1  0
  4  3  1  0
  5  4  1  0
  6  5  1  0
  6  4  1  0
  7  6  1  0
  7  9  1  0
  8  7  1  0
 10  7  1  0
 11 13  1  0
 12 17  2  0
 13 12  1  0
 14 13  2  0
 14 15  1  0
 15 16  2  0
 16 17  1  0
  1 18  1  1
  2 19  1  0
  2 20  1  0
  3 21  1  1
  4 22  1  1
  5 23  1  0
  5 24  1  0
  6 25  1  6
  8 26  1  0
  8 27  1  0
  8 28  1  0
  9 29  1  0
  9 30  1  0
  9 31  1  0
 10 32  1  0
 10 33  1  0
 10 34  1  0
 11 35  1  0
 11 36  1  0
 12 37  1  0
 14 38  1  0
 16 39  1  0
M  ISO  8  18  13  19  13  20  13  21  13  22  13  23  13  24  13  25  13
M  ISO  8  26   8  27   8  28   8  29   8  30   8  31   8  32   8  33   8
M  ISO  6  34   8  35   8  36   8  37  14  38  14  39  14
M  END
>  <minimizedAffinity>  (1) 
-5.04476833

>  <minimizedRMSD>  (1) 
2.04050064

$$$$
