
     RDKit          3D

 41 44  0  0  1  0  0  0  0  0999 V2000
   45.4450   33.5560   44.5350 C   0  0  2  0  0  0  0  0  0  0  0  0
   46.5080   34.1870   43.6180 C   0  0  0  0  0  0  0  0  0  0  0  0
   45.0620   34.5830   43.5570 C   0  0  1  0  0  0  0  0  0  0  0  0
   44.2860   34.2680   42.3390 C   0  0  2  0  0  0  0  0  0  0  0  0
   44.8090   34.6080   40.9560 C   0  0  0  0  0  0  0  0  0  0  0  0
   43.7100   35.4360   41.5680 C   0  0  1  0  0  0  0  0  0  0  0  0
   42.4650   35.3290   40.9040 N   0  0  0  0  0  0  0  0  0  0  0  0
   42.4310   34.8810   39.5820 C   0  0  0  0  0  0  0  0  0  0  0  0
   41.1930   34.1400   39.1700 C   0  0  0  0  0  0  0  0  0  0  0  0
   40.6320   33.4660   40.2950 N   0  0  0  0  0  0  0  0  0  0  0  0
   40.1870   34.4590   41.2500 C   0  0  0  0  0  0  0  0  0  0  0  0
   41.2830   35.4090   41.6440 C   0  0  0  0  0  0  0  0  0  0  0  0
   45.6090   33.8540   45.9990 C   0  0  0  0  0  0  0  0  0  0  0  0
   45.2670   32.5190   48.0310 C   0  0  0  0  0  0  0  0  0  0  0  0
   45.9650   32.7300   46.8330 C   0  0  0  0  0  0  0  0  0  0  0  0
   46.9860   31.8380   46.4890 C   0  0  0  0  0  0  0  0  0  0  0  0
   47.2730   30.7970   47.3190 N   0  0  0  0  0  0  0  0  0  0  0  0
   46.5710   30.6280   48.4740 C   0  0  0  0  0  0  0  0  0  0  0  0
   45.5700   31.4800   48.8350 N   0  0  0  0  0  0  0  0  0  0  0  0
   45.0341   32.5594   44.7541 H   0  0  0  0  0  0  0  0  0  0  0  0
   47.2572   34.8793   44.0296 H   0  0  0  0  0  0  0  0  0  0  0  0
   47.2567   33.8152   42.9031 H   0  0  0  0  0  0  0  0  0  0  0  0
   44.5018   35.5250   43.6512 H   0  0  0  0  0  0  0  0  0  0  0  0
   43.9109   33.3408   42.7969 H   0  0  0  0  0  0  0  0  0  0  0  0
   44.5894   33.9443   40.1067 H   0  0  0  0  0  0  0  0  0  0  0  0
   45.8004   34.8240   40.5313 H   0  0  0  0  0  0  0  0  0  0  0  0
   43.5366   36.4868   41.8434 H   0  0  0  0  0  0  0  0  0  0  0  0
   42.5316   35.7587   38.9266 H   0  0  0  0  0  0  0  0  0  0  0  0
   43.2536   34.1562   39.4934 H   0  0  0  0  0  0  0  0  0  0  0  0
   40.4580   34.8532   38.7686 H   0  0  0  0  0  0  0  0  0  0  0  0
   41.4541   33.4004   38.3987 H   0  0  0  0  0  0  0  0  0  0  0  0
   39.8322   32.8917   39.9927 H   0  0  0  0  0  0  0  0  0  0  0  0
   39.3642   35.0356   40.8021 H   0  0  0  0  0  0  0  0  0  0  0  0
   39.8616   33.9287   42.1571 H   0  0  0  0  0  0  0  0  0  0  0  0
   41.5329   35.2145   42.6974 H   0  0  0  0  0  0  0  0  0  0  0  0
   40.8831   36.4155   41.4514 H   0  0  0  0  0  0  0  0  0  0  0  0
   46.3973   34.6141   46.1025 H   0  0  0  0  0  0  0  0  0  0  0  0
   44.6201   34.1846   46.3493 H   0  0  0  0  0  0  0  0  0  0  0  0
   44.4614   33.2106   48.3186 H   0  0  0  0  0  0  0  0  0  0  0  0
   47.5523   31.9761   45.5561 H   0  0  0  0  0  0  0  0  0  0  0  0
   46.8182   29.7822   49.1324 H   0  0  0  0  0  0  0  0  0  0  0  0
  1 13  1  0
  2  1  1  0
  3  2  1  0
  3  1  1  0
  4  3  1  0
  5  6  1  0
  5  4  1  0
  6  4  1  0
  7  6  1  0
  7 12  1  0
  8  7  1  0
  9  8  1  0
  9 10  1  0
 10 11  1  0
 11 12  1  0
 13 15  1  0
 14 19  2  0
 15 14  1  0
 16 15  2  0
 16 17  1  0
 17 18  2  0
 18 19  1  0
  1 20  1  1
  2 21  1  0
  2 22  1  0
  3 23  1  1
  4 24  1  6
  5 25  1  0
  5 26  1  0
  6 27  1  1
  8 28  1  0
  8 29  1  0
  9 30  1  0
  9 31  1  0
 10 32  1  0
 11 33  1  0
 11 34  1  0
 12 35  1  0
 12 36  1  0
 13 37  1  0
 13 38  1  0
 14 39  1  0
 16 40  1  0
 18 41  1  0
M  ISO  8  20  13  21  13  22  13  23  13  24  13  25  13  26  13  27  13
M  ISO  8  28  13  29  13  30  13  31  13  32   5  33  13  34  13  35  13
M  ISO  6  36  13  37   8  38   8  39  14  40  14  41  14
M  END
>  <minimizedAffinity>  (1) 
-4.98283482

>  <minimizedRMSD>  (1) 
5.11393452

$$$$
