
     RDKit          3D

 34 37  0  0  1  0  0  0  0  0999 V2000
   44.8210   34.3890   42.7090 C   0  0  2  0  0  0  0  0  0  0  0  0
   45.3200   34.5330   41.2680 C   0  0  0  0  0  0  0  0  0  0  0  0
   44.1760   35.3470   41.8140 C   0  0  1  0  0  0  0  0  0  0  0  0
   42.8180   35.1210   41.2410 C   0  0  2  0  0  0  0  0  0  0  0  0
   42.2340   33.7490   41.1220 C   0  0  0  0  0  0  0  0  0  0  0  0
   42.7960   34.3990   39.8880 C   0  0  1  0  0  0  0  0  0  0  0  0
   41.8710   34.8980   38.8560 C   0  0  0  0  0  0  0  0  0  0  0  0
   42.0000   35.9630   37.9940 C   0  0  0  0  0  0  0  0  0  0  0  0
   40.8610   36.0240   37.2150 C   0  0  0  0  0  0  0  0  0  0  0  0
   40.0670   34.9670   37.6450 C   0  0  0  0  0  0  0  0  0  0  0  0
   40.6900   34.3440   38.5930 O   0  0  0  0  0  0  0  0  0  0  0  0
   45.8070   34.7960   43.7570 C   0  0  0  0  0  0  0  0  0  0  0  0
   45.3840   33.9060   46.0190 C   0  0  0  0  0  0  0  0  0  0  0  0
   46.0590   33.8200   44.7900 C   0  0  0  0  0  0  0  0  0  0  0  0
   46.9780   32.7640   44.6000 C   0  0  0  0  0  0  0  0  0  0  0  0
   47.1750   31.8710   45.6100 N   0  0  0  0  0  0  0  0  0  0  0  0
   46.4880   32.0070   46.7870 C   0  0  0  0  0  0  0  0  0  0  0  0
   45.5990   33.0140   46.9950 N   0  0  0  0  0  0  0  0  0  0  0  0
   44.4050   33.6071   43.3613 H   0  0  0  0  0  0  0  0  0  0  0  0
   45.1353   33.7362   40.5325 H   0  0  0  0  0  0  0  0  0  0  0  0
   46.2827   34.7466   40.7805 H   0  0  0  0  0  0  0  0  0  0  0  0
   43.9456   36.4173   41.9205 H   0  0  0  0  0  0  0  0  0  0  0  0
   42.4356   36.0555   41.6774 H   0  0  0  0  0  0  0  0  0  0  0  0
   42.7560   32.8926   41.5737 H   0  0  0  0  0  0  0  0  0  0  0  0
   41.2631   33.3015   41.3810 H   0  0  0  0  0  0  0  0  0  0  0  0
   43.5417   34.1141   39.1312 H   0  0  0  0  0  0  0  0  0  0  0  0
   42.8600   36.6464   37.9356 H   0  0  0  0  0  0  0  0  0  0  0  0
   40.6314   36.7529   36.4238 H   0  0  0  0  0  0  0  0  0  0  0  0
   39.0759   34.7043   37.2465 H   0  0  0  0  0  0  0  0  0  0  0  0
   46.7622   35.0132   43.2566 H   0  0  0  0  0  0  0  0  0  0  0  0
   45.3634   35.6645   44.2659 H   0  0  0  0  0  0  0  0  0  0  0  0
   44.6647   34.7219   46.1831 H   0  0  0  0  0  0  0  0  0  0  0  0
   47.5260   32.6643   43.6514 H   0  0  0  0  0  0  0  0  0  0  0  0
   46.6615   31.2767   47.5911 H   0  0  0  0  0  0  0  0  0  0  0  0
  1 12  1  0
  2  3  1  0
  2  1  1  0
  3  1  1  0
  4  3  1  0
  5  4  1  0
  6  5  1  0
  6  4  1  0
  7  6  1  0
  8  7  2  0
  9 10  2  0
  9  8  1  0
 10 11  1  0
 11  7  1  0
 12 14  1  0
 13 18  2  0
 14 13  1  0
 15 14  2  0
 15 16  1  0
 16 17  2  0
 17 18  1  0
  1 19  1  1
  2 20  1  0
  2 21  1  0
  3 22  1  1
  4 23  1  6
  5 24  1  0
  5 25  1  0
  6 26  1  6
  8 27  1  0
  9 28  1  0
 10 29  1  0
 12 30  1  0
 12 31  1  0
 13 32  1  0
 15 33  1  0
 17 34  1  0
M  ISO  8  19  13  20  13  21  13  22  13  23  13  24  13  25  13  26  13
M  ISO  8  27  14  28  14  29  14  30   8  31   8  32  14  33  14  34  14
M  END
>  <minimizedAffinity>  (1) 
-4.85933208

>  <minimizedRMSD>  (1) 
2.88739228

$$$$
