
     RDKit          3D

 54 59  0  0  1  0  0  0  0  0999 V2000
   43.2080   34.8030   40.9350 C   0  0  2  0  0  0  0  0  0  0  0  0
   43.3410   34.1780   39.5290 C   0  0  0  0  0  0  0  0  0  0  0  0
   42.5770   35.3980   39.7540 C   0  0  1  0  0  0  0  0  0  0  0  0
   41.0890   35.4070   39.5890 C   0  0  2  0  0  0  0  0  0  0  0  0
   40.2000   35.4050   40.7840 C   0  0  0  0  0  0  0  0  0  0  0  0
   40.4320   34.1320   40.0040 C   0  0  1  0  0  0  0  0  0  0  0  0
   39.4600   33.4910   39.2200 N   0  0  0  0  0  0  0  0  0  0  0  0
   39.1500   34.0280   37.9600 C   0  0  0  0  0  0  0  0  0  0  0  0
   38.0370   33.2430   37.3140 C   0  0  0  0  0  0  0  0  0  0  0  0
   38.4120   31.8960   37.2790 O   0  0  0  0  0  0  0  0  0  0  0  0
   38.3800   31.4420   38.5930 C   0  0  0  0  0  0  0  0  0  0  0  0
   38.9270   32.2810   39.6450 C   0  0  0  0  0  0  0  0  0  0  0  0
   44.5100   35.2920   41.5020 C   0  0  0  0  0  0  0  0  0  0  0  0
   44.6250   33.1640   42.7820 C   0  0  0  0  0  0  0  0  0  0  0  0
   45.1510   34.4270   42.4580 C   0  0  0  0  0  0  0  0  0  0  0  0
   46.3470   34.8160   43.0780 C   0  0  0  0  0  0  0  0  0  0  0  0
   46.9580   33.9540   43.9700 N   0  0  0  0  0  0  0  0  0  0  0  0
   46.3990   32.7660   44.2260 C   0  0  0  0  0  0  0  0  0  0  0  0
   45.2580   32.3510   43.6610 N   0  0  0  0  0  0  0  0  0  0  0  0
   46.9070   31.7270   45.1370 C   0  0  0  0  0  0  0  0  0  0  0  0
   47.7840   30.7060   44.7530 C   0  0  0  0  0  0  0  0  0  0  0  0
   48.2790   29.7260   45.5610 C   0  0  0  0  0  0  0  0  0  0  0  0
   47.9080   29.7040   46.8710 C   0  0  0  0  0  0  0  0  0  0  0  0
   47.0470   30.6700   47.3360 C   0  0  0  0  0  0  0  0  0  0  0  0
   46.7130   30.5900   48.6690 C   0  0  0  0  0  0  0  0  0  0  0  0
   45.8550   31.5180   49.2180 C   0  0  0  0  0  0  0  0  0  0  0  0
   45.3570   32.5180   48.3730 C   0  0  0  0  0  0  0  0  0  0  0  0
   45.7460   32.5190   47.0540 C   0  0  0  0  0  0  0  0  0  0  0  0
   46.5850   31.6310   46.4680 C   0  0  0  0  0  0  0  0  0  0  0  0
   42.8182   34.5590   41.9342 H   0  0  0  0  0  0  0  0  0  0  0  0
   42.8247   33.2367   39.2895 H   0  0  0  0  0  0  0  0  0  0  0  0
   44.1741   33.8800   38.8754 H   0  0  0  0  0  0  0  0  0  0  0  0
   42.6086   36.4054   39.3133 H   0  0  0  0  0  0  0  0  0  0  0  0
   41.1212   36.0515   38.6982 H   0  0  0  0  0  0  0  0  0  0  0  0
   40.6293   35.5205   41.7902 H   0  0  0  0  0  0  0  0  0  0  0  0
   39.3141   35.9767   41.0977 H   0  0  0  0  0  0  0  0  0  0  0  0
   40.7645   33.1168   40.2662 H   0  0  0  0  0  0  0  0  0  0  0  0
   38.8332   35.0746   38.0799 H   0  0  0  0  0  0  0  0  0  0  0  0
   40.0428   33.9745   37.3197 H   0  0  0  0  0  0  0  0  0  0  0  0
   37.1131   33.3567   37.9000 H   0  0  0  0  0  0  0  0  0  0  0  0
   37.8556   33.6123   36.2939 H   0  0  0  0  0  0  0  0  0  0  0  0
   37.9460   30.4601   38.8327 H   0  0  0  0  0  0  0  0  0  0  0  0
   38.9196   31.9795   40.7029 H   0  0  0  0  0  0  0  0  0  0  0  0
   45.2066   35.4406   40.6637 H   0  0  0  0  0  0  0  0  0  0  0  0
   44.2643   36.2110   42.0544 H   0  0  0  0  0  0  0  0  0  0  0  0
   43.6862   32.8315   42.3150 H   0  0  0  0  0  0  0  0  0  0  0  0
   46.7944   35.7963   42.8572 H   0  0  0  0  0  0  0  0  0  0  0  0
   48.1038   30.6932   43.7006 H   0  0  0  0  0  0  0  0  0  0  0  0
   48.9665   28.9659   45.1615 H   0  0  0  0  0  0  0  0  0  0  0  0
   48.2912   28.9254   47.5469 H   0  0  0  0  0  0  0  0  0  0  0  0
   47.1301   29.7871   49.2946 H   0  0  0  0  0  0  0  0  0  0  0  0
   45.5718   31.4751   50.2800 H   0  0  0  0  0  0  0  0  0  0  0  0
   44.6693   33.2862   48.7564 H   0  0  0  0  0  0  0  0  0  0  0  0
   45.3377   33.3155   46.4146 H   0  0  0  0  0  0  0  0  0  0  0  0
  1 13  1  0
  2  3  1  0
  2  1  1  0
  3  1  1  0
  4  3  1  0
  4  6  1  0
  4  5  1  0
  6  5  1  0
  7 12  1  0
  7  6  1  0
  8  7  1  0
  9  8  1  0
 10  9  1  0
 10 11  1  0
 11 12  2  0
 13 15  1  0
 14 19  2  0
 15 14  1  0
 15 16  2  0
 16 17  1  0
 17 18  2  0
 18 20  1  0
 19 18  1  0
 20 29  1  0
 21 20  2  0
 21 22  1  0
 22 23  2  0
 23 24  1  0
 24 25  2  0
 25 26  1  0
 27 26  2  0
 28 27  1  0
 29 28  2  0
 29 24  1  0
  1 30  1  1
  2 31  1  0
  2 32  1  0
  3 33  1  6
  4 34  1  6
  5 35  1  0
  5 36  1  0
  6 37  1  1
  8 38  1  0
  8 39  1  0
  9 40  1  0
  9 41  1  0
 11 42  1  0
 12 43  1  0
 13 44  1  0
 13 45  1  0
 14 46  1  0
 16 47  1  0
 21 48  1  0
 22 49  1  0
 23 50  1  0
 25 51  1  0
 26 52  1  0
 27 53  1  0
 28 54  1  0
M  ISO  8  30  13  31  13  32  13  33  13  34  13  35  13  36  13  37  13
M  ISO  8  38  13  39  13  40  13  41  13  42  13  43  13  44   8  45   8
M  ISO  8  46  14  47  14  48  14  49  14  50  14  51  14  52  14  53  14
M  ISO  1  54  14
M  END
>  <minimizedAffinity>  (1) 
-6.71986389

>  <minimizedRMSD>  (1) 
2.67101645

$$$$
