
     RDKit          3D

 51 55  0  0  1  0  0  0  0  0999 V2000
   42.7290   34.9310   41.2150 C   0  0  2  0  0  0  0  0  0  0  0  0
   42.4040   35.5550   39.8420 C   0  0  0  0  0  0  0  0  0  0  0  0
   41.4700   35.6360   40.9570 C   0  0  1  0  0  0  0  0  0  0  0  0
   40.1650   34.9040   40.9090 C   0  0  2  0  0  0  0  0  0  0  0  0
   39.9280   33.7220   41.7830 C   0  0  0  0  0  0  0  0  0  0  0  0
   40.2600   33.5370   40.3210 C   0  0  1  0  0  0  0  0  0  0  0  0
   39.3580   33.0580   39.3580 N   0  0  0  0  0  0  0  0  0  0  0  0
   38.9800   33.9120   38.3100 C   0  0  0  0  0  0  0  0  0  0  0  0
   37.9580   33.2450   37.4280 C   0  0  0  0  0  0  0  0  0  0  0  0
   38.4740   32.0160   37.0050 O   0  0  0  0  0  0  0  0  0  0  0  0
   38.5050   31.1900   38.1190 C   0  0  0  0  0  0  0  0  0  0  0  0
   38.9640   31.7260   39.3860 C   0  0  0  0  0  0  0  0  0  0  0  0
   43.8950   35.5580   41.9150 C   0  0  0  0  0  0  0  0  0  0  0  0
   45.3630   33.9830   40.6700 C   0  0  0  0  0  0  0  0  0  0  0  0
   45.1730   34.9050   41.7240 C   0  0  0  0  0  0  0  0  0  0  0  0
   46.2540   35.1910   42.5820 C   0  0  0  0  0  0  0  0  0  0  0  0
   47.4620   34.5580   42.3590 N   0  0  0  0  0  0  0  0  0  0  0  0
   47.5660   33.6850   41.3250 C   0  0  0  0  0  0  0  0  0  0  0  0
   46.5570   33.3800   40.4770 N   0  0  0  0  0  0  0  0  0  0  0  0
   51.3130   31.7460   40.6360 C   0  0  0  0  0  0  0  0  0  0  0  0
   51.1120   32.5320   41.7600 C   0  0  0  0  0  0  0  0  0  0  0  0
   49.8970   33.1670   41.9930 C   0  0  0  0  0  0  0  0  0  0  0  0
   48.8560   33.0340   41.1140 C   0  0  0  0  0  0  0  0  0  0  0  0
   49.1000   32.2440   40.0100 C   0  0  0  0  0  0  0  0  0  0  0  0
   50.2810   31.5920   39.7270 C   0  0  0  0  0  0  0  0  0  0  0  0
   52.8530   30.9620   40.3730 S   0  0  0  0  0  0  0  0  0  0  0  0
   53.3740   31.4020   39.0260 O   0  0  0  0  0  0  0  0  0  0  0  0
   52.6480   29.4730   40.3720 O   0  0  0  0  0  0  0  0  0  0  0  0
   42.9476   33.9512   41.6647 H   0  0  0  0  0  0  0  0  0  0  0  0
   42.1821   34.9104   38.9787 H   0  0  0  0  0  0  0  0  0  0  0  0
   42.8919   36.2765   39.1701 H   0  0  0  0  0  0  0  0  0  0  0  0
   40.9595   36.4693   41.4620 H   0  0  0  0  0  0  0  0  0  0  0  0
   39.5820   35.8214   40.7403 H   0  0  0  0  0  0  0  0  0  0  0  0
   40.6641   33.4502   42.5539 H   0  0  0  0  0  0  0  0  0  0  0  0
   39.1143   33.3926   42.4459 H   0  0  0  0  0  0  0  0  0  0  0  0
   41.0189   32.9650   39.7669 H   0  0  0  0  0  0  0  0  0  0  0  0
   38.5493   34.8326   38.7308 H   0  0  0  0  0  0  0  0  0  0  0  0
   39.8688   34.1500   37.7071 H   0  0  0  0  0  0  0  0  0  0  0  0
   37.0286   33.0827   37.9936 H   0  0  0  0  0  0  0  0  0  0  0  0
   37.7368   33.8812   36.5583 H   0  0  0  0  0  0  0  0  0  0  0  0
   38.1851   30.1404   38.0423 H   0  0  0  0  0  0  0  0  0  0  0  0
   38.9978   31.1209   40.3040 H   0  0  0  0  0  0  0  0  0  0  0  0
   43.9880   36.5929   41.5540 H   0  0  0  0  0  0  0  0  0  0  0  0
   43.6763   35.4756   42.9899 H   0  0  0  0  0  0  0  0  0  0  0  0
   44.5252   33.7523   39.9955 H   0  0  0  0  0  0  0  0  0  0  0  0
   46.1385   35.9035   43.4121 H   0  0  0  0  0  0  0  0  0  0  0  0
   51.9314   32.6561   42.4833 H   0  0  0  0  0  0  0  0  0  0  0  0
   49.7708   33.7839   42.8949 H   0  0  0  0  0  0  0  0  0  0  0  0
   48.2773   32.1233   39.2899 H   0  0  0  0  0  0  0  0  0  0  0  0
   50.3976   30.9784   38.8215 H   0  0  0  0  0  0  0  0  0  0  0  0
   53.7451   31.2947   41.3581 H   0  0  0  0  0  0  0  0  0  0  0  0
  1 13  1  0
  2  3  1  0
  2  1  1  0
  3  1  1  0
  4  3  1  0
  4  5  1  0
  6  4  1  0
  6  5  1  0
  7 12  1  0
  7  6  1  0
  8  7  1  0
  9  8  1  0
 10  9  1  0
 10 11  1  0
 11 12  2  0
 14 15  2  0
 15 13  1  0
 15 16  1  0
 17 16  2  0
 18 17  1  0
 19 14  1  0
 19 18  2  0
 20 21  2  0
 21 22  1  0
 23 18  1  0
 23 22  2  0
 24 23  1  0
 25 24  2  0
 25 20  1  0
 26 20  1  0
 27 26  2  0
 28 26  2  0
  1 29  1  6
  2 30  1  0
  2 31  1  0
  3 32  1  1
  4 33  1  6
  5 34  1  0
  5 35  1  0
  6 36  1  1
  8 37  1  0
  8 38  1  0
  9 39  1  0
  9 40  1  0
 11 41  1  0
 12 42  1  0
 13 43  1  0
 13 44  1  0
 14 45  1  0
 16 46  1  0
 21 47  1  0
 22 48  1  0
 24 49  1  0
 25 50  1  0
 26 51  1  0
M  ISO  8  29  13  30  13  31  13  32  13  33  13  34  13  35  13  36  13
M  ISO  8  37  13  38  13  39  13  40  13  41  13  42  13  43   8  44   8
M  ISO  7  45  14  46  14  47  14  48  14  49  14  50  14  51  11
M  END
>  <minimizedAffinity>  (1) 
-5.80396557

>  <minimizedRMSD>  (1) 
2.43670154

$$$$
