
     RDKit          3D

 51 56  0  0  1  0  0  0  0  0999 V2000
   44.1520   35.2280   42.4940 C   0  0  2  0  0  0  0  0  0  0  0  0
   44.1740   34.2580   41.2930 C   0  0  0  0  0  0  0  0  0  0  0  0
   43.5570   35.5760   41.2030 C   0  0  1  0  0  0  0  0  0  0  0  0
   42.0730   35.7100   41.0430 C   0  0  2  0  0  0  0  0  0  0  0  0
   41.1530   35.2370   42.1120 C   0  0  0  0  0  0  0  0  0  0  0  0
   41.3620   34.4090   40.8720 C   0  0  1  0  0  0  0  0  0  0  0  0
   40.3910   34.2070   39.8760 N   0  0  0  0  0  0  0  0  0  0  0  0
   40.6650   34.6370   38.5660 C   0  0  0  0  0  0  0  0  0  0  0  0
   39.4750   34.3940   37.6740 C   0  0  0  0  0  0  0  0  0  0  0  0
   39.1220   33.0450   37.7710 O   0  0  0  0  0  0  0  0  0  0  0  0
   38.5880   32.8600   39.0390 C   0  0  0  0  0  0  0  0  0  0  0  0
   39.2480   33.4790   40.1730 C   0  0  0  0  0  0  0  0  0  0  0  0
   45.5060   35.6960   42.9310 C   0  0  0  0  0  0  0  0  0  0  0  0
   47.0630   33.8600   43.5150 C   0  0  0  0  0  0  0  0  0  0  0  0
   46.6190   34.8330   42.5960 C   0  0  0  0  0  0  0  0  0  0  0  0
   47.2770   34.9300   41.3750 C   0  0  0  0  0  0  0  0  0  0  0  0
   48.3270   34.0860   41.1030 N   0  0  0  0  0  0  0  0  0  0  0  0
   48.7090   33.1690   42.0300 C   0  0  0  0  0  0  0  0  0  0  0  0
   48.0930   33.0420   43.2360 N   0  0  0  0  0  0  0  0  0  0  0  0
   49.8000   32.3210   41.6980 N   0  0  0  0  0  0  0  0  0  0  0  0
   50.7330   31.7160   42.4500 C   0  0  0  0  0  0  0  0  0  0  0  0
   51.5720   31.0010   41.6480 N   0  0  0  0  0  0  0  0  0  0  0  0
   51.1720   31.1520   40.3810 C   0  0  0  0  0  0  0  0  0  0  0  0
   51.5640   30.7170   39.1440 C   0  0  0  0  0  0  0  0  0  0  0  0
   50.9760   31.0200   37.9860 N   0  0  0  0  0  0  0  0  0  0  0  0
   49.8830   31.8370   38.0420 C   0  0  0  0  0  0  0  0  0  0  0  0
   49.4670   32.2840   39.2390 N   0  0  0  0  0  0  0  0  0  0  0  0
   50.0560   31.9820   40.4100 C   0  0  0  0  0  0  0  0  0  0  0  0
   52.6910   29.8700   39.0450 N   0  0  0  0  0  0  0  0  0  0  0  0
   43.7672   35.2867   43.5228 H   0  0  0  0  0  0  0  0  0  0  0  0
   45.1165   34.0495   40.7655 H   0  0  0  0  0  0  0  0  0  0  0  0
   43.8506   33.2226   41.1105 H   0  0  0  0  0  0  0  0  0  0  0  0
   43.6874   36.4308   40.5230 H   0  0  0  0  0  0  0  0  0  0  0  0
   42.1514   36.6691   40.5100 H   0  0  0  0  0  0  0  0  0  0  0  0
   41.5583   34.8964   43.0762 H   0  0  0  0  0  0  0  0  0  0  0  0
   40.2782   35.6579   42.6293 H   0  0  0  0  0  0  0  0  0  0  0  0
   41.6508   33.3643   40.6843 H   0  0  0  0  0  0  0  0  0  0  0  0
   40.8953   35.7126   38.5782 H   0  0  0  0  0  0  0  0  0  0  0  0
   41.5243   34.0711   38.1769 H   0  0  0  0  0  0  0  0  0  0  0  0
   39.7348   34.6366   36.6330 H   0  0  0  0  0  0  0  0  0  0  0  0
   38.6325   35.0295   37.9845 H   0  0  0  0  0  0  0  0  0  0  0  0
   37.6805   32.2548   39.1814 H   0  0  0  0  0  0  0  0  0  0  0  0
   38.8674   33.3778   41.2001 H   0  0  0  0  0  0  0  0  0  0  0  0
   45.6889   36.6757   42.4655 H   0  0  0  0  0  0  0  0  0  0  0  0
   45.4699   35.7168   44.0302 H   0  0  0  0  0  0  0  0  0  0  0  0
   46.5534   33.7678   44.4855 H   0  0  0  0  0  0  0  0  0  0  0  0
   46.9595   35.6767   40.6323 H   0  0  0  0  0  0  0  0  0  0  0  0
   50.8089   31.7864   43.5451 H   0  0  0  0  0  0  0  0  0  0  0  0
   49.3520   32.1243   37.1225 H   0  0  0  0  0  0  0  0  0  0  0  0
   53.0018   29.5320   38.1230 H   0  0  0  0  0  0  0  0  0  0  0  0
   53.2016   29.5907   39.8948 H   0  0  0  0  0  0  0  0  0  0  0  0
  1 13  1  0
  2  1  1  0
  3  2  1  0
  3  1  1  0
  4  3  1  0
  4  5  1  0
  6  4  1  0
  6  5  1  0
  7 12  1  0
  7  6  1  0
  8  7  1  0
  9 10  1  0
  9  8  1  0
 10 11  1  0
 11 12  2  0
 15 13  1  0
 15 14  2  0
 16 15  1  0
 17 16  2  0
 17 18  1  0
 18 19  2  0
 19 14  1  0
 20 18  1  0
 20 21  1  0
 22 21  2  0
 23 28  2  0
 23 22  1  0
 24 23  1  0
 25 26  1  0
 25 24  2  0
 26 27  2  0
 27 28  1  0
 28 20  1  0
 29 24  1  0
  1 30  1  1
  2 31  1  0
  2 32  1  0
  3 33  1  6
  4 34  1  6
  5 35  1  0
  5 36  1  0
  6 37  1  1
  8 38  1  0
  8 39  1  0
  9 40  1  0
  9 41  1  0
 11 42  1  0
 12 43  1  0
 13 44  1  0
 13 45  1  0
 14 46  1  0
 16 47  1  0
 21 48  1  0
 26 49  1  0
 29 50  1  0
 29 51  1  0
M  ISO  8  30  13  31  13  32  13  33  13  34  13  35  13  36  13  37  13
M  ISO  8  38  13  39  13  40  13  41  13  42  13  43  13  44   8  45   8
M  ISO  4  46  14  47  14  48  14  49  14
M  END
>  <minimizedAffinity>  (1) 
-6.01916361

>  <minimizedRMSD>  (1) 
1.46885085

$$$$
