
     RDKit          3D

 49 53  0  0  1  0  0  0  0  0999 V2000
   42.7970   34.9020   41.5440 C   0  0  2  0  0  0  0  0  0  0  0  0
   42.6440   35.2640   40.0500 C   0  0  0  0  0  0  0  0  0  0  0  0
   41.6120   35.5920   41.0250 C   0  0  1  0  0  0  0  0  0  0  0  0
   40.2760   34.9180   40.9720 C   0  0  2  0  0  0  0  0  0  0  0  0
   39.9700   33.7830   41.8820 C   0  0  0  0  0  0  0  0  0  0  0  0
   40.3180   33.5260   40.4370 C   0  0  1  0  0  0  0  0  0  0  0  0
   39.4100   33.0600   39.4710 N   0  0  0  0  0  0  0  0  0  0  0  0
   39.0700   33.9050   38.4010 C   0  0  0  0  0  0  0  0  0  0  0  0
   38.0360   33.2470   37.5260 C   0  0  0  0  0  0  0  0  0  0  0  0
   38.5210   31.9950   37.1330 O   0  0  0  0  0  0  0  0  0  0  0  0
   38.5130   31.1910   38.2630 C   0  0  0  0  0  0  0  0  0  0  0  0
   38.9750   31.7390   39.5240 C   0  0  0  0  0  0  0  0  0  0  0  0
   43.9230   35.6110   42.2280 C   0  0  0  0  0  0  0  0  0  0  0  0
   45.5250   34.2920   43.5810 C   0  0  0  0  0  0  0  0  0  0  0  0
   45.1600   34.8690   42.3540 C   0  0  0  0  0  0  0  0  0  0  0  0
   46.0180   34.7060   41.2640 C   0  0  0  0  0  0  0  0  0  0  0  0
   47.1830   33.9910   41.4250 N   0  0  0  0  0  0  0  0  0  0  0  0
   47.4750   33.4590   42.6400 C   0  0  0  0  0  0  0  0  0  0  0  0
   46.6700   33.5930   43.7260 N   0  0  0  0  0  0  0  0  0  0  0  0
   48.7130   32.7580   42.6190 N   0  0  0  0  0  0  0  0  0  0  0  0
   48.6660   31.4510   42.9360 C   0  0  0  0  0  0  0  0  0  0  0  0
   49.8660   30.7700   42.9160 C   0  0  0  0  0  0  0  0  0  0  0  0
   51.0030   31.4760   42.5750 C   0  0  0  0  0  0  0  0  0  0  0  0
   52.2170   30.7500   42.5640 N   0  0  0  0  0  0  0  0  0  0  0  0
   50.9900   32.8040   42.2630 N   0  0  0  0  0  0  0  0  0  0  0  0
   49.8010   33.4710   42.2850 C   0  0  0  0  0  0  0  0  0  0  0  0
   49.7290   34.6930   42.0060 O   0  0  0  0  0  0  0  0  0  0  0  0
   42.9128   34.0197   42.1906 H   0  0  0  0  0  0  0  0  0  0  0  0
   42.4706   34.4751   39.3033 H   0  0  0  0  0  0  0  0  0  0  0  0
   43.2357   35.8245   39.3113 H   0  0  0  0  0  0  0  0  0  0  0  0
   41.1038   36.5249   41.3104 H   0  0  0  0  0  0  0  0  0  0  0  0
   39.7396   35.8536   40.7551 H   0  0  0  0  0  0  0  0  0  0  0  0
   40.6791   33.5076   42.6766 H   0  0  0  0  0  0  0  0  0  0  0  0
   39.1301   33.5167   42.5406 H   0  0  0  0  0  0  0  0  0  0  0  0
   41.0578   32.8950   39.9227 H   0  0  0  0  0  0  0  0  0  0  0  0
   38.6640   34.8474   38.7973 H   0  0  0  0  0  0  0  0  0  0  0  0
   39.9708   34.1060   37.8025 H   0  0  0  0  0  0  0  0  0  0  0  0
   37.0987   33.1224   38.0882 H   0  0  0  0  0  0  0  0  0  0  0  0
   37.8383   33.8700   36.6413 H   0  0  0  0  0  0  0  0  0  0  0  0
   38.1607   30.1506   38.2037 H   0  0  0  0  0  0  0  0  0  0  0  0
   38.9811   31.1529   40.4549 H   0  0  0  0  0  0  0  0  0  0  0  0
   44.1375   36.5280   41.6595 H   0  0  0  0  0  0  0  0  0  0  0  0
   43.5786   35.7883   43.2575 H   0  0  0  0  0  0  0  0  0  0  0  0
   44.8590   34.4132   44.4481 H   0  0  0  0  0  0  0  0  0  0  0  0
   45.7653   35.1444   40.2873 H   0  0  0  0  0  0  0  0  0  0  0  0
   47.7211   30.9520   43.1972 H   0  0  0  0  0  0  0  0  0  0  0  0
   49.9154   29.6994   43.1637 H   0  0  0  0  0  0  0  0  0  0  0  0
   53.0979   31.2233   42.3174 H   0  0  0  0  0  0  0  0  0  0  0  0
   52.2200   29.7480   42.8026 H   0  0  0  0  0  0  0  0  0  0  0  0
  1 13  1  0
  2  3  1  0
  2  1  1  0
  3  1  1  0
  4  3  1  0
  4  5  1  0
  6  4  1  0
  6  5  1  0
  7 12  1  0
  7  6  1  0
  8  7  1  0
  9  8  1  0
 10  9  1  0
 10 11  1  0
 11 12  2  0
 13 15  1  0
 14 19  2  0
 15 14  1  0
 16 17  1  0
 16 15  2  0
 17 18  2  0
 18 19  1  0
 20 18  1  0
 20 21  1  0
 22 21  2  0
 23 22  1  0
 24 23  1  0
 25 26  1  0
 25 23  2  0
 26 20  1  0
 27 26  2  0
  1 28  1  6
  2 29  1  0
  2 30  1  0
  3 31  1  1
  4 32  1  6
  5 33  1  0
  5 34  1  0
  6 35  1  1
  8 36  1  0
  8 37  1  0
  9 38  1  0
  9 39  1  0
 11 40  1  0
 12 41  1  0
 13 42  1  0
 13 43  1  0
 14 44  1  0
 16 45  1  0
 21 46  1  0
 22 47  1  0
 24 48  1  0
 24 49  1  0
M  ISO  8  28  13  29  13  30  13  31  13  32  13  33  13  34  13  35  13
M  ISO  8  36  13  37  13  38  13  39  13  40  13  41  13  42   8  43   8
M  ISO  4  44  14  45  14  46  14  47  14
M  END
>  <minimizedAffinity>  (1) 
-6.13520956

>  <minimizedRMSD>  (1) 
1.43375623

$$$$
