
     RDKit          3D

 52 56  0  0  1  0  0  0  0  0999 V2000
   43.9440   35.3050   42.3950 C   0  0  2  0  0  0  0  0  0  0  0  0
   43.9830   34.3270   41.2010 C   0  0  0  0  0  0  0  0  0  0  0  0
   43.3230   35.6230   41.1070 C   0  0  1  0  0  0  0  0  0  0  0  0
   41.8350   35.7040   40.9590 C   0  0  2  0  0  0  0  0  0  0  0  0
   40.9410   35.2080   42.0390 C   0  0  0  0  0  0  0  0  0  0  0  0
   41.1650   34.3810   40.7970 C   0  0  1  0  0  0  0  0  0  0  0  0
   40.1900   34.1440   39.8150 N   0  0  0  0  0  0  0  0  0  0  0  0
   40.4130   34.6230   38.5120 C   0  0  0  0  0  0  0  0  0  0  0  0
   39.2220   34.3330   37.6400 C   0  0  0  0  0  0  0  0  0  0  0  0
   38.9510   32.9640   37.7030 O   0  0  0  0  0  0  0  0  0  0  0  0
   38.4590   32.7100   38.9750 C   0  0  0  0  0  0  0  0  0  0  0  0
   39.0990   33.3360   40.1170 C   0  0  0  0  0  0  0  0  0  0  0  0
   45.2850   35.8210   42.8110 C   0  0  0  0  0  0  0  0  0  0  0  0
   46.7080   34.0070   43.7200 C   0  0  0  0  0  0  0  0  0  0  0  0
   46.3880   34.8890   42.6860 C   0  0  0  0  0  0  0  0  0  0  0  0
   47.1630   34.8400   41.5260 C   0  0  0  0  0  0  0  0  0  0  0  0
   48.1980   33.9540   41.4270 N   0  0  0  0  0  0  0  0  0  0  0  0
   48.4590   33.1170   42.4800 C   0  0  0  0  0  0  0  0  0  0  0  0
   47.7260   33.1340   43.6210 N   0  0  0  0  0  0  0  0  0  0  0  0
   49.5430   32.2090   42.3370 N   0  0  0  0  0  0  0  0  0  0  0  0
   50.8720   32.6860   42.1130 C   0  0  0  0  0  0  0  0  0  0  0  0
   51.6190   31.8710   41.0790 C   0  0  0  0  0  0  0  0  0  0  0  0
   51.3400   30.4670   41.1670 N   0  0  0  0  0  0  0  0  0  0  0  0
   49.9200   30.2080   41.1230 C   0  0  0  0  0  0  0  0  0  0  0  0
   49.3270   30.7840   42.4140 C   0  0  0  0  0  0  0  0  0  0  0  0
   43.5699   35.3587   43.4280 H   0  0  0  0  0  0  0  0  0  0  0  0
   44.9256   34.1445   40.6642 H   0  0  0  0  0  0  0  0  0  0  0  0
   43.6908   33.2803   41.0306 H   0  0  0  0  0  0  0  0  0  0  0  0
   43.4179   36.4775   40.4208 H   0  0  0  0  0  0  0  0  0  0  0  0
   41.8776   36.6622   40.4204 H   0  0  0  0  0  0  0  0  0  0  0  0
   41.3660   34.8841   43.0005 H   0  0  0  0  0  0  0  0  0  0  0  0
   40.0587   35.6034   42.5635 H   0  0  0  0  0  0  0  0  0  0  0  0
   41.4868   33.3464   40.6072 H   0  0  0  0  0  0  0  0  0  0  0  0
   40.5806   35.7095   38.5482 H   0  0  0  0  0  0  0  0  0  0  0  0
   41.2963   34.1201   38.0914 H   0  0  0  0  0  0  0  0  0  0  0  0
   39.4434   34.6203   36.6015 H   0  0  0  0  0  0  0  0  0  0  0  0
   38.3505   34.9067   37.9883 H   0  0  0  0  0  0  0  0  0  0  0  0
   37.5956   32.0432   39.1160 H   0  0  0  0  0  0  0  0  0  0  0  0
   38.7466   33.1825   41.1476 H   0  0  0  0  0  0  0  0  0  0  0  0
   45.5149   36.7004   42.1915 H   0  0  0  0  0  0  0  0  0  0  0  0
   45.1999   36.0394   43.8857 H   0  0  0  0  0  0  0  0  0  0  0  0
   46.1097   34.0268   44.6428 H   0  0  0  0  0  0  0  0  0  0  0  0
   46.9394   35.5173   40.6886 H   0  0  0  0  0  0  0  0  0  0  0  0
   50.8179   33.7288   41.7671 H   0  0  0  0  0  0  0  0  0  0  0  0
   51.4202   32.6002   43.0628 H   0  0  0  0  0  0  0  0  0  0  0  0
   52.6985   32.0241   41.2244 H   0  0  0  0  0  0  0  0  0  0  0  0
   51.2871   32.2120   40.0872 H   0  0  0  0  0  0  0  0  0  0  0  0
   51.7931   29.9852   40.3774 H   0  0  0  0  0  0  0  0  0  0  0  0
   49.4718   30.7003   40.2473 H   0  0  0  0  0  0  0  0  0  0  0  0
   49.7168   29.1301   41.0407 H   0  0  0  0  0  0  0  0  0  0  0  0
   49.8392   30.3647   43.2925 H   0  0  0  0  0  0  0  0  0  0  0  0
   48.2597   30.5386   42.5171 H   0  0  0  0  0  0  0  0  0  0  0  0
  1 13  1  0
  2  1  1  0
  3  2  1  0
  3  1  1  0
  4  3  1  0
  4  5  1  0
  6  4  1  0
  6  5  1  0
  7 12  1  0
  7  6  1  0
  8  7  1  0
  9 10  1  0
  9  8  1  0
 10 11  1  0
 11 12  2  0
 15 13  1  0
 15 14  2  0
 16 15  1  0
 17 16  2  0
 17 18  1  0
 18 19  2  0
 19 14  1  0
 20 25  1  0
 20 18  1  0
 21 20  1  0
 22 23  1  0
 22 21  1  0
 24 23  1  0
 24 25  1  0
  1 26  1  1
  2 27  1  0
  2 28  1  0
  3 29  1  6
  4 30  1  6
  5 31  1  0
  5 32  1  0
  6 33  1  1
  8 34  1  0
  8 35  1  0
  9 36  1  0
  9 37  1  0
 11 38  1  0
 12 39  1  0
 13 40  1  0
 13 41  1  0
 14 42  1  0
 16 43  1  0
 21 44  1  0
 21 45  1  0
 22 46  1  0
 22 47  1  0
 23 48  1  0
 24 49  1  0
 24 50  1  0
 25 51  1  0
 25 52  1  0
M  ISO  8  26  13  27  13  28  13  29  13  30  13  31  13  32  13  33  13
M  ISO  8  34  13  35  13  36  13  37  13  38  13  39  13  40   8  41   8
M  ISO  8  42  14  43  14  44  13  45  13  46  13  47  13  48   5  49  13
M  ISO  3  50  13  51  13  52  13
M  END
>  <minimizedAffinity>  (1) 
-5.66748142

>  <minimizedRMSD>  (1) 
0.779957056

$$$$
