
     RDKit          3D

 46 50  0  0  1  0  0  0  0  0999 V2000
   42.5940   34.9300   41.2730 C   0  0  2  0  0  0  0  0  0  0  0  0
   42.2290   35.5180   39.8970 C   0  0  0  0  0  0  0  0  0  0  0  0
   41.2790   35.5130   41.0040 C   0  0  1  0  0  0  0  0  0  0  0  0
   40.0470   34.6630   40.9450 C   0  0  2  0  0  0  0  0  0  0  0  0
   39.9480   33.4190   41.7570 C   0  0  0  0  0  0  0  0  0  0  0  0
   40.2600   33.3370   40.2870 C   0  0  1  0  0  0  0  0  0  0  0  0
   39.3820   32.8310   39.3130 N   0  0  0  0  0  0  0  0  0  0  0  0
   39.0100   33.6580   38.2400 C   0  0  0  0  0  0  0  0  0  0  0  0
   38.0150   32.9560   37.3520 C   0  0  0  0  0  0  0  0  0  0  0  0
   38.5590   31.7280   36.9680 O   0  0  0  0  0  0  0  0  0  0  0  0
   38.5790   30.9220   38.0990 C   0  0  0  0  0  0  0  0  0  0  0  0
   39.0090   31.5000   39.3590 C   0  0  0  0  0  0  0  0  0  0  0  0
   43.6940   35.6460   41.9820 C   0  0  0  0  0  0  0  0  0  0  0  0
   45.3160   34.1720   40.8480 C   0  0  0  0  0  0  0  0  0  0  0  0
   45.0110   35.0570   41.8820 C   0  0  0  0  0  0  0  0  0  0  0  0
   46.0050   35.3520   42.8090 C   0  0  0  0  0  0  0  0  0  0  0  0
   47.2430   34.7790   42.6920 N   0  0  0  0  0  0  0  0  0  0  0  0
   47.4860   33.9120   41.6490 C   0  0  0  0  0  0  0  0  0  0  0  0
   46.5310   33.6110   40.7340 N   0  0  0  0  0  0  0  0  0  0  0  0
   48.7980   33.2880   41.5010 C   0  0  0  0  0  0  0  0  0  0  0  0
   49.0320   32.3930   40.4760 C   0  0  0  0  0  0  0  0  0  0  0  0
   50.2590   31.7590   40.2750 C   0  0  0  0  0  0  0  0  0  0  0  0
   51.2420   32.0590   41.1440 N   0  0  0  0  0  0  0  0  0  0  0  0
   51.0240   32.9330   42.1520 C   0  0  0  0  0  0  0  0  0  0  0  0
   49.8280   33.5380   42.3310 N   0  0  0  0  0  0  0  0  0  0  0  0
   42.8956   33.9755   41.7289 H   0  0  0  0  0  0  0  0  0  0  0  0
   42.0772   34.8544   39.0330 H   0  0  0  0  0  0  0  0  0  0  0  0
   42.6550   36.2805   39.2284 H   0  0  0  0  0  0  0  0  0  0  0  0
   40.6880   36.2950   41.5032 H   0  0  0  0  0  0  0  0  0  0  0  0
   39.3748   35.5270   40.8367 H   0  0  0  0  0  0  0  0  0  0  0  0
   40.7254   33.1826   42.4985 H   0  0  0  0  0  0  0  0  0  0  0  0
   39.1856   32.9788   42.4164 H   0  0  0  0  0  0  0  0  0  0  0  0
   41.0565   32.8620   39.6954 H   0  0  0  0  0  0  0  0  0  0  0  0
   38.5565   34.5796   38.6337 H   0  0  0  0  0  0  0  0  0  0  0  0
   39.9062   33.8984   37.6491 H   0  0  0  0  0  0  0  0  0  0  0  0
   37.0769   32.7913   37.9022 H   0  0  0  0  0  0  0  0  0  0  0  0
   37.8006   33.5694   36.4645 H   0  0  0  0  0  0  0  0  0  0  0  0
   38.2749   29.8665   38.0409 H   0  0  0  0  0  0  0  0  0  0  0  0
   39.0365   30.9166   40.2911 H   0  0  0  0  0  0  0  0  0  0  0  0
   43.7504   36.6647   41.5708 H   0  0  0  0  0  0  0  0  0  0  0  0
   43.4329   35.6008   43.0496 H   0  0  0  0  0  0  0  0  0  0  0  0
   44.5412   33.9271   40.1065 H   0  0  0  0  0  0  0  0  0  0  0  0
   45.7964   36.0460   43.6366 H   0  0  0  0  0  0  0  0  0  0  0  0
   48.2088   32.1680   39.7819 H   0  0  0  0  0  0  0  0  0  0  0  0
   50.4147   31.0502   39.4484 H   0  0  0  0  0  0  0  0  0  0  0  0
   51.8451   33.1591   42.8482 H   0  0  0  0  0  0  0  0  0  0  0  0
  1 13  1  0
  2  3  1  0
  2  1  1  0
  3  1  1  0
  4  3  1  0
  4  5  1  0
  6  4  1  0
  6  5  1  0
  7 12  1  0
  7  6  1  0
  8  7  1  0
  9  8  1  0
 10  9  1  0
 10 11  1  0
 11 12  2  0
 14 15  2  0
 15 13  1  0
 15 16  1  0
 17 16  2  0
 18 17  1  0
 19 14  1  0
 19 18  2  0
 20 18  1  0
 20 25  1  0
 21 20  2  0
 22 21  1  0
 22 23  2  0
 23 24  1  0
 24 25  2  0
  1 26  1  6
  2 27  1  0
  2 28  1  0
  3 29  1  1
  4 30  1  6
  5 31  1  0
  5 32  1  0
  6 33  1  1
  8 34  1  0
  8 35  1  0
  9 36  1  0
  9 37  1  0
 11 38  1  0
 12 39  1  0
 13 40  1  0
 13 41  1  0
 14 42  1  0
 16 43  1  0
 21 44  1  0
 22 45  1  0
 24 46  1  0
M  ISO  8  26  13  27  13  28  13  29  13  30  13  31  13  32  13  33  13
M  ISO  8  34  13  35  13  36  13  37  13  38  13  39  13  40   8  41   8
M  ISO  5  42  14  43  14  44  14  45  14  46  14
M  END
>  <minimizedAffinity>  (1) 
-5.54250145

>  <minimizedRMSD>  (1) 
2.23345566

$$$$
