
     RDKit          3D

 49 54  0  0  1  0  0  0  0  0999 V2000
   44.2960   35.1470   42.4170 C   0  0  2  0  0  0  0  0  0  0  0  0
   44.3290   34.2840   41.1370 C   0  0  0  0  0  0  0  0  0  0  0  0
   43.6760   35.5860   41.1640 C   0  0  1  0  0  0  0  0  0  0  0  0
   42.1900   35.6940   41.0270 C   0  0  2  0  0  0  0  0  0  0  0  0
   41.2950   35.1940   42.1070 C   0  0  0  0  0  0  0  0  0  0  0  0
   41.5010   34.3820   40.8550 C   0  0  1  0  0  0  0  0  0  0  0  0
   40.5200   34.1660   39.8720 N   0  0  0  0  0  0  0  0  0  0  0  0
   40.7290   34.6810   38.5830 C   0  0  0  0  0  0  0  0  0  0  0  0
   39.5360   34.4080   37.7070 C   0  0  0  0  0  0  0  0  0  0  0  0
   39.2740   33.0350   37.7360 O   0  0  0  0  0  0  0  0  0  0  0  0
   38.7910   32.7460   39.0050 C   0  0  0  0  0  0  0  0  0  0  0  0
   39.4350   33.3440   40.1600 C   0  0  0  0  0  0  0  0  0  0  0  0
   45.6420   35.6230   42.8750 C   0  0  0  0  0  0  0  0  0  0  0  0
   47.1650   33.7170   43.3540 C   0  0  0  0  0  0  0  0  0  0  0  0
   46.7650   34.7810   42.5170 C   0  0  0  0  0  0  0  0  0  0  0  0
   47.4720   35.0040   41.3190 C   0  0  0  0  0  0  0  0  0  0  0  0
   48.5280   34.1760   41.0080 N   0  0  0  0  0  0  0  0  0  0  0  0
   48.8540   33.1730   41.8630 C   0  0  0  0  0  0  0  0  0  0  0  0
   48.2020   32.9220   43.0240 N   0  0  0  0  0  0  0  0  0  0  0  0
   49.9310   32.2670   41.6200 N   0  0  0  0  0  0  0  0  0  0  0  0
   50.8030   31.6950   42.4680 C   0  0  0  0  0  0  0  0  0  0  0  0
   51.6270   30.9150   41.7110 N   0  0  0  0  0  0  0  0  0  0  0  0
   51.2790   30.9960   40.4140 C   0  0  0  0  0  0  0  0  0  0  0  0
   51.7140   30.4630   39.2210 C   0  0  0  0  0  0  0  0  0  0  0  0
   51.1630   30.7240   38.0250 N   0  0  0  0  0  0  0  0  0  0  0  0
   50.1100   31.5680   38.0020 C   0  0  0  0  0  0  0  0  0  0  0  0
   49.6520   32.1120   39.1450 N   0  0  0  0  0  0  0  0  0  0  0  0
   50.2060   31.8530   40.3600 C   0  0  0  0  0  0  0  0  0  0  0  0
   43.9239   35.1034   43.4512 H   0  0  0  0  0  0  0  0  0  0  0  0
   43.7292   33.3641   41.0729 H   0  0  0  0  0  0  0  0  0  0  0  0
   45.1120   33.8084   40.5281 H   0  0  0  0  0  0  0  0  0  0  0  0
   43.7751   36.4984   40.5577 H   0  0  0  0  0  0  0  0  0  0  0  0
   42.2422   36.6588   40.5012 H   0  0  0  0  0  0  0  0  0  0  0  0
   41.7216   34.8521   43.0616 H   0  0  0  0  0  0  0  0  0  0  0  0
   40.4207   35.5933   42.6419 H   0  0  0  0  0  0  0  0  0  0  0  0
   41.8068   33.3449   40.6525 H   0  0  0  0  0  0  0  0  0  0  0  0
   40.8890   35.7673   38.6487 H   0  0  0  0  0  0  0  0  0  0  0  0
   41.6120   34.1937   38.1439 H   0  0  0  0  0  0  0  0  0  0  0  0
   39.7521   34.7236   36.6756 H   0  0  0  0  0  0  0  0  0  0  0  0
   38.6623   34.9679   38.0719 H   0  0  0  0  0  0  0  0  0  0  0  0
   37.9310   32.0723   39.1335 H   0  0  0  0  0  0  0  0  0  0  0  0
   39.0903   33.1607   41.1884 H   0  0  0  0  0  0  0  0  0  0  0  0
   45.8141   36.6181   42.4390 H   0  0  0  0  0  0  0  0  0  0  0  0
   45.6026   35.6161   43.9743 H   0  0  0  0  0  0  0  0  0  0  0  0
   46.6207   33.5335   44.2921 H   0  0  0  0  0  0  0  0  0  0  0  0
   47.1860   35.8243   40.6443 H   0  0  0  0  0  0  0  0  0  0  0  0
   50.8441   31.8296   43.5590 H   0  0  0  0  0  0  0  0  0  0  0  0
   52.5724   29.7758   39.2501 H   0  0  0  0  0  0  0  0  0  0  0  0
   49.6243   31.8122   37.0457 H   0  0  0  0  0  0  0  0  0  0  0  0
  1 13  1  0
  2  3  1  0
  2  1  1  0
  3  1  1  0
  4  3  1  0
  4  5  1  0
  6  4  1  0
  6  5  1  0
  7 12  1  0
  7  6  1  0
  8  7  1  0
  9 10  1  0
  9  8  1  0
 10 11  1  0
 11 12  2  0
 15 13  1  0
 15 14  2  0
 16 15  1  0
 17 16  2  0
 17 18  1  0
 18 19  2  0
 19 14  1  0
 20 18  1  0
 20 21  1  0
 22 21  2  0
 23 22  1  0
 24 23  2  0
 25 24  1  0
 26 25  2  0
 26 27  1  0
 27 28  2  0
 28 23  1  0
 28 20  1  0
  1 29  1  1
  2 30  1  0
  2 31  1  0
  3 32  1  6
  4 33  1  6
  5 34  1  0
  5 35  1  0
  6 36  1  1
  8 37  1  0
  8 38  1  0
  9 39  1  0
  9 40  1  0
 11 41  1  0
 12 42  1  0
 13 43  1  0
 13 44  1  0
 14 45  1  0
 16 46  1  0
 21 47  1  0
 24 48  1  0
 26 49  1  0
M  ISO  8  29  13  30  13  31  13  32  13  33  13  34  13  35  13  36  13
M  ISO  8  37  13  38  13  39  13  40  13  41  13  42  13  43   8  44   8
M  ISO  5  45  14  46  14  47  14  48  14  49  14
M  END
>  <minimizedAffinity>  (1) 
-5.78240824

>  <minimizedRMSD>  (1) 
1.52656579

$$$$
