
     RDKit          3D

 41 44  0  0  1  0  0  0  0  0999 V2000
   44.1630   35.1550   42.3940 C   0  0  2  0  0  0  0  0  0  0  0  0
   44.3480   34.5950   40.9660 C   0  0  0  0  0  0  0  0  0  0  0  0
   43.4900   35.7420   41.2310 C   0  0  1  0  0  0  0  0  0  0  0  0
   42.0050   35.6370   41.0560 C   0  0  2  0  0  0  0  0  0  0  0  0
   41.1540   35.1000   42.1480 C   0  0  0  0  0  0  0  0  0  0  0  0
   41.5050   34.2350   40.9640 C   0  0  1  0  0  0  0  0  0  0  0  0
   40.5890   33.8240   39.9800 N   0  0  0  0  0  0  0  0  0  0  0  0
   40.4720   34.5770   38.8020 C   0  0  0  0  0  0  0  0  0  0  0  0
   39.4090   34.0010   37.9080 C   0  0  0  0  0  0  0  0  0  0  0  0
   39.6790   32.6480   37.7020 O   0  0  0  0  0  0  0  0  0  0  0  0
   39.4480   32.0010   38.9100 C   0  0  0  0  0  0  0  0  0  0  0  0
   39.9190   32.6160   40.1390 C   0  0  0  0  0  0  0  0  0  0  0  0
   45.4120   35.7260   42.9880 C   0  0  0  0  0  0  0  0  0  0  0  0
   46.8880   33.7970   43.4960 C   0  0  0  0  0  0  0  0  0  0  0  0
   46.6280   34.9680   42.7620 C   0  0  0  0  0  0  0  0  0  0  0  0
   47.5680   35.3650   41.8190 C   0  0  0  0  0  0  0  0  0  0  0  0
   48.7030   34.6270   41.6280 N   0  0  0  0  0  0  0  0  0  0  0  0
   48.8990   33.4990   42.3720 C   0  0  0  0  0  0  0  0  0  0  0  0
   48.0080   33.0730   43.3030 N   0  0  0  0  0  0  0  0  0  0  0  0
   50.1400   32.7200   42.1420 C   0  0  0  0  0  0  0  0  0  0  0  0
   50.0650   31.5610   42.8900 F   0  0  0  0  0  0  0  0  0  0  0  0
   51.2790   33.4530   42.4840 F   0  0  0  0  0  0  0  0  0  0  0  0
   50.2640   32.4130   40.8130 F   0  0  0  0  0  0  0  0  0  0  0  0
   43.7926   34.8414   43.3811 H   0  0  0  0  0  0  0  0  0  0  0  0
   43.9079   33.6256   40.6893 H   0  0  0  0  0  0  0  0  0  0  0  0
   45.2036   34.3878   40.3065 H   0  0  0  0  0  0  0  0  0  0  0  0
   43.4434   36.7648   40.8289 H   0  0  0  0  0  0  0  0  0  0  0  0
   41.9432   36.5613   40.4628 H   0  0  0  0  0  0  0  0  0  0  0  0
   41.5926   34.8878   43.1342 H   0  0  0  0  0  0  0  0  0  0  0  0
   40.2181   35.4146   42.6329 H   0  0  0  0  0  0  0  0  0  0  0  0
   41.9533   33.2377   40.8440 H   0  0  0  0  0  0  0  0  0  0  0  0
   40.2050   35.6124   39.0600 H   0  0  0  0  0  0  0  0  0  0  0  0
   41.4341   34.5531   38.2693 H   0  0  0  0  0  0  0  0  0  0  0  0
   38.4242   34.1129   38.3851 H   0  0  0  0  0  0  0  0  0  0  0  0
   39.4033   34.5317   36.9445 H   0  0  0  0  0  0  0  0  0  0  0  0
   38.9168   31.0381   38.9352 H   0  0  0  0  0  0  0  0  0  0  0  0
   39.7570   32.1582   41.1260 H   0  0  0  0  0  0  0  0  0  0  0  0
   45.5578   36.7304   42.5637 H   0  0  0  0  0  0  0  0  0  0  0  0
   45.2542   35.7157   44.0766 H   0  0  0  0  0  0  0  0  0  0  0  0
   46.1576   33.4631   44.2477 H   0  0  0  0  0  0  0  0  0  0  0  0
   47.3987   36.2751   41.2248 H   0  0  0  0  0  0  0  0  0  0  0  0
  1 13  1  0
  2  3  1  0
  2  1  1  0
  3  1  1  0
  4  3  1  0
  4  5  1  0
  6  4  1  0
  6  5  1  0
  7 12  1  0
  7  6  1  0
  8  7  1  0
  9  8  1  0
 10  9  1  0
 10 11  1  0
 11 12  2  0
 15 13  1  0
 15 14  2  0
 16 15  1  0
 17 16  2  0
 17 18  1  0
 18 19  2  0
 19 14  1  0
 20 18  1  0
 20 22  1  0
 20 21  1  0
 23 20  1  0
  1 24  1  1
  2 25  1  0
  2 26  1  0
  3 27  1  6
  4 28  1  6
  5 29  1  0
  5 30  1  0
  6 31  1  1
  8 32  1  0
  8 33  1  0
  9 34  1  0
  9 35  1  0
 11 36  1  0
 12 37  1  0
 13 38  1  0
 13 39  1  0
 14 40  1  0
 16 41  1  0
M  ISO  8  24  13  25  13  26  13  27  13  28  13  29  13  30  13  31  13
M  ISO  8  32  13  33  13  34  13  35  13  36  13  37  13  38   8  39   8
M  ISO  2  40  14  41  14
M  END
>  <minimizedAffinity>  (1) 
-5.18587017

>  <minimizedRMSD>  (1) 
1.09895527

$$$$
