
     RDKit          3D

 43 47  0  0  1  0  0  0  0  0999 V2000
   43.8670   35.2870   42.3610 C   0  0  2  0  0  0  0  0  0  0  0  0
   43.9330   34.4040   41.0970 C   0  0  0  0  0  0  0  0  0  0  0  0
   43.2240   35.6810   41.1050 C   0  0  1  0  0  0  0  0  0  0  0  0
   41.7330   35.7180   40.9770 C   0  0  2  0  0  0  0  0  0  0  0  0
   40.8660   35.1570   42.0490 C   0  0  0  0  0  0  0  0  0  0  0  0
   41.1090   34.3800   40.7800 C   0  0  1  0  0  0  0  0  0  0  0  0
   40.1340   34.1350   39.7980 N   0  0  0  0  0  0  0  0  0  0  0  0
   40.3390   34.6450   38.5050 C   0  0  0  0  0  0  0  0  0  0  0  0
   39.1630   34.3260   37.6200 C   0  0  0  0  0  0  0  0  0  0  0  0
   38.9350   32.9480   37.6650 O   0  0  0  0  0  0  0  0  0  0  0  0
   38.4460   32.6660   38.9330 C   0  0  0  0  0  0  0  0  0  0  0  0
   39.0660   33.2960   40.0820 C   0  0  0  0  0  0  0  0  0  0  0  0
   45.1870   35.8190   42.8170 C   0  0  0  0  0  0  0  0  0  0  0  0
   46.4920   33.9280   43.7280 C   0  0  0  0  0  0  0  0  0  0  0  0
   46.3010   34.9000   42.7420 C   0  0  0  0  0  0  0  0  0  0  0  0
   47.2210   34.9470   41.6880 C   0  0  0  0  0  0  0  0  0  0  0  0
   48.2600   34.0660   41.6470 N   0  0  0  0  0  0  0  0  0  0  0  0
   48.3920   33.1350   42.6470 C   0  0  0  0  0  0  0  0  0  0  0  0
   47.5200   33.0590   43.6850 N   0  0  0  0  0  0  0  0  0  0  0  0
   49.5010   32.1870   42.6140 C   0  0  0  0  0  0  0  0  0  0  0  0
   50.7460   32.3900   42.1450 N   0  0  0  0  0  0  0  0  0  0  0  0
   51.4770   31.3210   42.2740 O   0  0  0  0  0  0  0  0  0  0  0  0
   50.7390   30.3650   42.8350 C   0  0  0  0  0  0  0  0  0  0  0  0
   49.5060   30.9130   43.0440 N   0  0  0  0  0  0  0  0  0  0  0  0
   43.4990   35.2471   43.3969 H   0  0  0  0  0  0  0  0  0  0  0  0
   43.3725   33.4587   41.0509 H   0  0  0  0  0  0  0  0  0  0  0  0
   44.7334   33.9512   40.4934 H   0  0  0  0  0  0  0  0  0  0  0  0
   43.2821   36.5872   40.4841 H   0  0  0  0  0  0  0  0  0  0  0  0
   41.7370   36.6947   40.4710 H   0  0  0  0  0  0  0  0  0  0  0  0
   41.3106   34.8181   42.9964 H   0  0  0  0  0  0  0  0  0  0  0  0
   39.9749   35.5037   42.5929 H   0  0  0  0  0  0  0  0  0  0  0  0
   41.4663   33.3644   40.5545 H   0  0  0  0  0  0  0  0  0  0  0  0
   40.4638   35.7364   38.5619 H   0  0  0  0  0  0  0  0  0  0  0  0
   41.2412   34.1820   38.0787 H   0  0  0  0  0  0  0  0  0  0  0  0
   39.3825   34.6322   36.5865 H   0  0  0  0  0  0  0  0  0  0  0  0
   38.2711   34.8671   37.9688 H   0  0  0  0  0  0  0  0  0  0  0  0
   37.6005   31.9747   39.0641 H   0  0  0  0  0  0  0  0  0  0  0  0
   38.7137   33.1208   41.1092 H   0  0  0  0  0  0  0  0  0  0  0  0
   45.4300   36.6938   42.1960 H   0  0  0  0  0  0  0  0  0  0  0  0
   45.0618   36.0466   43.8859 H   0  0  0  0  0  0  0  0  0  0  0  0
   45.7806   33.8710   44.5651 H   0  0  0  0  0  0  0  0  0  0  0  0
   47.1051   35.6965   40.8913 H   0  0  0  0  0  0  0  0  0  0  0  0
   51.0581   29.3413   43.0803 H   0  0  0  0  0  0  0  0  0  0  0  0
  1 13  1  0
  2  3  1  0
  2  1  1  0
  3  1  1  0
  4  3  1  0
  4  5  1  0
  6  4  1  0
  6  5  1  0
  7 12  1  0
  7  6  1  0
  8  7  1  0
  9 10  1  0
  9  8  1  0
 10 11  1  0
 11 12  2  0
 15 13  1  0
 15 14  2  0
 16 15  1  0
 17 16  2  0
 17 18  1  0
 18 19  2  0
 19 14  1  0
 20 18  1  0
 20 24  1  0
 21 22  1  0
 21 20  2  0
 22 23  1  0
 23 24  2  0
  1 25  1  1
  2 26  1  0
  2 27  1  0
  3 28  1  6
  4 29  1  6
  5 30  1  0
  5 31  1  0
  6 32  1  1
  8 33  1  0
  8 34  1  0
  9 35  1  0
  9 36  1  0
 11 37  1  0
 12 38  1  0
 13 39  1  0
 13 40  1  0
 14 41  1  0
 16 42  1  0
 23 43  1  0
M  ISO  8  25  13  26  13  27  13  28  13  29  13  30  13  31  13  32  13
M  ISO  8  33  13  34  13  35  13  36  13  37  13  38  13  39   8  40   8
M  ISO  3  41  14  42  14  43  14
M  END
>  <minimizedAffinity>  (1) 
-5.14916611

>  <minimizedRMSD>  (1) 
0.608267546

$$$$
