
     RDKit          3D

 39 42  0  0  1  0  0  0  0  0999 V2000
   43.7400   35.2070   42.2060 C   0  0  2  0  0  0  0  0  0  0  0  0
   43.8340   34.5050   40.8340 C   0  0  0  0  0  0  0  0  0  0  0  0
   43.0340   35.7110   41.0260 C   0  0  1  0  0  0  0  0  0  0  0  0
   41.5390   35.6500   40.9340 C   0  0  2  0  0  0  0  0  0  0  0  0
   40.7410   35.0180   42.0200 C   0  0  0  0  0  0  0  0  0  0  0  0
   41.0040   34.2720   40.7410 C   0  0  1  0  0  0  0  0  0  0  0  0
   40.0290   33.9660   39.7760 N   0  0  0  0  0  0  0  0  0  0  0  0
   40.0700   34.6280   38.5380 C   0  0  0  0  0  0  0  0  0  0  0  0
   38.9150   34.2020   37.6730 C   0  0  0  0  0  0  0  0  0  0  0  0
   38.9170   32.8080   37.5820 O   0  0  0  0  0  0  0  0  0  0  0  0
   38.5560   32.3220   38.8320 C   0  0  0  0  0  0  0  0  0  0  0  0
   39.1330   32.9330   40.0160 C   0  0  0  0  0  0  0  0  0  0  0  0
   45.0310   35.7750   42.7000 C   0  0  0  0  0  0  0  0  0  0  0  0
   46.1810   33.8170   43.6940 C   0  0  0  0  0  0  0  0  0  0  0  0
   46.1470   34.8550   42.7590 C   0  0  0  0  0  0  0  0  0  0  0  0
   47.2260   34.9740   41.8850 C   0  0  0  0  0  0  0  0  0  0  0  0
   48.2720   34.0930   41.9560 N   0  0  0  0  0  0  0  0  0  0  0  0
   48.2400   33.0980   42.8980 C   0  0  0  0  0  0  0  0  0  0  0  0
   47.2060   32.9530   43.7640 N   0  0  0  0  0  0  0  0  0  0  0  0
   49.3060   32.2210   42.9520 O   0  0  0  0  0  0  0  0  0  0  0  0
   43.4062   35.0038   43.2342 H   0  0  0  0  0  0  0  0  0  0  0  0
   43.3434   33.5337   40.6731 H   0  0  0  0  0  0  0  0  0  0  0  0
   44.6475   34.1983   40.1601 H   0  0  0  0  0  0  0  0  0  0  0  0
   43.0075   36.6922   40.5294 H   0  0  0  0  0  0  0  0  0  0  0  0
   41.4624   36.6293   40.4388 H   0  0  0  0  0  0  0  0  0  0  0  0
   41.2323   34.7028   42.9523 H   0  0  0  0  0  0  0  0  0  0  0  0
   39.8417   35.2961   42.5891 H   0  0  0  0  0  0  0  0  0  0  0  0
   41.4228   33.2838   40.5000 H   0  0  0  0  0  0  0  0  0  0  0  0
   40.0149   35.7137   38.7063 H   0  0  0  0  0  0  0  0  0  0  0  0
   41.0099   34.3700   38.0281 H   0  0  0  0  0  0  0  0  0  0  0  0
   37.9703   34.5427   38.1219 H   0  0  0  0  0  0  0  0  0  0  0  0
   39.0129   34.6443   36.6706 H   0  0  0  0  0  0  0  0  0  0  0  0
   37.8447   31.4879   38.9235 H   0  0  0  0  0  0  0  0  0  0  0  0
   38.8778   32.6004   41.0330 H   0  0  0  0  0  0  0  0  0  0  0  0
   45.3120   36.6028   42.0323 H   0  0  0  0  0  0  0  0  0  0  0  0
   44.8425   36.0801   43.7399 H   0  0  0  0  0  0  0  0  0  0  0  0
   45.3409   33.7043   44.3951 H   0  0  0  0  0  0  0  0  0  0  0  0
   47.2375   35.7788   41.1352 H   0  0  0  0  0  0  0  0  0  0  0  0
   49.3133   31.4913   43.6210 H   0  0  0  0  0  0  0  0  0  0  0  0
  1 13  1  0
  2  3  1  0
  2  1  1  0
  3  1  1  0
  4  3  1  0
  4  5  1  0
  6  4  1  0
  6  5  1  0
  7 12  1  0
  7  6  1  0
  8  7  1  0
  9  8  1  0
 10  9  1  0
 10 11  1  0
 11 12  2  0
 13 15  1  0
 14 19  2  0
 15 14  1  0
 16 17  1  0
 16 15  2  0
 17 18  2  0
 18 20  1  0
 18 19  1  0
  1 21  1  1
  2 22  1  0
  2 23  1  0
  3 24  1  6
  4 25  1  6
  5 26  1  0
  5 27  1  0
  6 28  1  1
  8 29  1  0
  8 30  1  0
  9 31  1  0
  9 32  1  0
 11 33  1  0
 12 34  1  0
 13 35  1  0
 13 36  1  0
 14 37  1  0
 16 38  1  0
 20 39  1  0
M  ISO  8  21  13  22  13  23  13  24  13  25  13  26  13  27  13  28  13
M  ISO  8  29  13  30  13  31  13  32  13  33  13  34  13  35   8  36   8
M  ISO  3  37  14  38  14  39   3
M  END
>  <minimizedAffinity>  (1) 
-4.74818802

>  <minimizedRMSD>  (1) 
0.47934106

$$$$
