
     RDKit          3D

 40 43  0  0  1  0  0  0  0  0999 V2000
   43.8310   35.2830   42.2930 C   0  0  2  0  0  0  0  0  0  0  0  0
   43.9340   34.6220   40.9050 C   0  0  0  0  0  0  0  0  0  0  0  0
   43.0680   35.7700   41.1470 C   0  0  1  0  0  0  0  0  0  0  0  0
   41.5770   35.6220   41.0850 C   0  0  2  0  0  0  0  0  0  0  0  0
   40.8520   34.8350   42.1190 C   0  0  0  0  0  0  0  0  0  0  0  0
   41.1260   34.2320   40.7660 C   0  0  1  0  0  0  0  0  0  0  0  0
   40.1430   33.9670   39.7970 N   0  0  0  0  0  0  0  0  0  0  0  0
   40.1960   34.6500   38.5710 C   0  0  0  0  0  0  0  0  0  0  0  0
   39.0230   34.2690   37.7080 C   0  0  0  0  0  0  0  0  0  0  0  0
   38.9960   32.8780   37.5870 O   0  0  0  0  0  0  0  0  0  0  0  0
   38.6290   32.3740   38.8290 C   0  0  0  0  0  0  0  0  0  0  0  0
   39.2240   32.9490   40.0230 C   0  0  0  0  0  0  0  0  0  0  0  0
   45.1020   35.9010   42.7730 C   0  0  0  0  0  0  0  0  0  0  0  0
   46.4760   34.0500   43.6620 C   0  0  0  0  0  0  0  0  0  0  0  0
   46.2820   35.0680   42.7170 C   0  0  0  0  0  0  0  0  0  0  0  0
   47.2550   35.2440   41.7410 C   0  0  0  0  0  0  0  0  0  0  0  0
   48.3580   34.4410   41.7160 N   0  0  0  0  0  0  0  0  0  0  0  0
   48.4960   33.4560   42.6700 C   0  0  0  0  0  0  0  0  0  0  0  0
   47.5600   33.2640   43.6340 N   0  0  0  0  0  0  0  0  0  0  0  0
   49.6930   32.6260   42.6000 C   0  0  0  0  0  0  0  0  0  0  0  0
   50.7960   33.2220   42.4610 O   0  0  0  0  0  0  0  0  0  0  0  0
   43.5318   35.0423   43.3238 H   0  0  0  0  0  0  0  0  0  0  0  0
   43.4999   33.6264   40.7309 H   0  0  0  0  0  0  0  0  0  0  0  0
   44.7476   34.3821   40.2046 H   0  0  0  0  0  0  0  0  0  0  0  0
   42.9689   36.7601   40.6781 H   0  0  0  0  0  0  0  0  0  0  0  0
   41.4233   36.6386   40.6939 H   0  0  0  0  0  0  0  0  0  0  0  0
   41.3884   34.4649   43.0052 H   0  0  0  0  0  0  0  0  0  0  0  0
   39.9526   34.9966   42.7313 H   0  0  0  0  0  0  0  0  0  0  0  0
   41.5992   33.3006   40.4215 H   0  0  0  0  0  0  0  0  0  0  0  0
   40.1716   35.7337   38.7583 H   0  0  0  0  0  0  0  0  0  0  0  0
   41.1259   34.3777   38.0503 H   0  0  0  0  0  0  0  0  0  0  0  0
   38.0901   34.6192   38.1739 H   0  0  0  0  0  0  0  0  0  0  0  0
   39.1192   34.7322   36.7149 H   0  0  0  0  0  0  0  0  0  0  0  0
   37.9003   31.5536   38.9066 H   0  0  0  0  0  0  0  0  0  0  0  0
   38.9655   32.6031   41.0347 H   0  0  0  0  0  0  0  0  0  0  0  0
   45.2929   36.7937   42.1593 H   0  0  0  0  0  0  0  0  0  0  0  0
   44.9411   36.1090   43.8411 H   0  0  0  0  0  0  0  0  0  0  0  0
   45.7195   33.8934   44.4451 H   0  0  0  0  0  0  0  0  0  0  0  0
   47.1357   36.0342   40.9851 H   0  0  0  0  0  0  0  0  0  0  0  0
   49.6366   31.5294   42.6655 H   0  0  0  0  0  0  0  0  0  0  0  0
  1 13  1  0
  2  3  1  0
  2  1  1  0
  3  1  1  0
  4  3  1  0
  4  5  1  0
  6  4  1  0
  6  5  1  0
  7 12  1  0
  7  6  1  0
  8  7  1  0
  9  8  1  0
 10  9  1  0
 10 11  1  0
 11 12  2  0
 15 13  1  0
 15 14  2  0
 16 15  1  0
 17 16  2  0
 17 18  1  0
 18 19  2  0
 19 14  1  0
 20 18  1  0
 21 20  2  0
  1 22  1  1
  2 23  1  0
  2 24  1  0
  3 25  1  6
  4 26  1  6
  5 27  1  0
  5 28  1  0
  6 29  1  1
  8 30  1  0
  8 31  1  0
  9 32  1  0
  9 33  1  0
 11 34  1  0
 12 35  1  0
 13 36  1  0
 13 37  1  0
 14 38  1  0
 16 39  1  0
 20 40  1  0
M  ISO  8  22  13  23  13  24  13  25  13  26  13  27  13  28  13  29  13
M  ISO  8  30  13  31  13  32  13  33  13  34  13  35  13  36   8  37   8
M  ISO  3  38  14  39  14  40   6
M  END
>  <minimizedAffinity>  (1) 
-4.77870369

>  <minimizedRMSD>  (1) 
0.711695075

$$$$
