
     RDKit          3D

 30 32  0  0  1  0  0  0  0  0999 V2000
   47.6340   35.2560   41.5620 C   0  0  1  0  0  0  0  0  0  0  0  0
   47.8690   34.0300   40.7710 C   0  0  0  0  0  0  0  0  0  0  0  0
   46.9810   33.6320   39.8200 N   0  0  0  0  0  0  0  0  0  0  0  0
   47.1840   32.5420   39.0930 C   0  0  0  0  0  0  0  0  0  0  0  0
   48.2780   31.7500   39.2380 N   0  0  0  0  0  0  0  0  0  0  0  0
   49.2150   32.0740   40.1650 C   0  0  0  0  0  0  0  0  0  0  0  0
   50.3600   31.3060   40.3700 C   0  0  0  0  0  0  0  0  0  0  0  0
   51.3010   31.6550   41.3250 C   0  0  0  0  0  0  0  0  0  0  0  0
   51.0810   32.7910   42.0790 C   0  0  0  0  0  0  0  0  0  0  0  0
   49.9270   33.5500   41.8590 C   0  0  0  0  0  0  0  0  0  0  0  0
   48.9900   33.2070   40.9100 C   0  0  0  0  0  0  0  0  0  0  0  0
   46.8490   34.8790   42.7560 C   0  0  0  0  0  0  0  0  0  0  0  0
   45.6650   35.6130   42.8970 C   0  0  0  0  0  0  0  0  0  0  0  0
   44.8570   35.3290   43.9870 C   0  0  0  0  0  0  0  0  0  0  0  0
   45.2350   34.3700   44.8570 N   0  0  0  0  0  0  0  0  0  0  0  0
   46.3820   33.6700   44.7040 C   0  0  0  0  0  0  0  0  0  0  0  0
   47.1470   33.9490   43.6580 N   0  0  0  0  0  0  0  0  0  0  0  0
   48.9910   35.7950   41.9400 C   0  0  0  0  0  0  0  0  0  0  0  0
   47.0759   36.0254   41.0084 H   0  0  0  0  0  0  0  0  0  0  0  0
   46.4326   32.2666   38.3383 H   0  0  0  0  0  0  0  0  0  0  0  0
   50.5198   30.4041   39.7609 H   0  0  0  0  0  0  0  0  0  0  0  0
   52.2015   31.0422   41.4790 H   0  0  0  0  0  0  0  0  0  0  0  0
   51.8075   33.0964   42.8464 H   0  0  0  0  0  0  0  0  0  0  0  0
   49.7621   34.4528   42.4655 H   0  0  0  0  0  0  0  0  0  0  0  0
   45.3857   36.3881   42.1681 H   0  0  0  0  0  0  0  0  0  0  0  0
   43.9174   35.8799   44.1408 H   0  0  0  0  0  0  0  0  0  0  0  0
   46.6715   32.8923   45.4260 H   0  0  0  0  0  0  0  0  0  0  0  0
   49.0793   35.8301   43.0359 H   0  0  0  0  0  0  0  0  0  0  0  0
   49.7732   35.1393   41.5299 H   0  0  0  0  0  0  0  0  0  0  0  0
   49.1101   36.8087   41.5299 H   0  0  0  0  0  0  0  0  0  0  0  0
  1 18  1  0
  1 12  1  0
  2 11  1  0
  2  1  1  0
  3  2  2  0
  4  5  2  0
  4  3  1  0
  5  6  1  0
  6  7  1  0
  6 11  2  0
  7  8  2  0
  8  9  1  0
 10  9  2  0
 11 10  1  0
 12 13  2  0
 12 17  1  0
 13 14  1  0
 14 15  2  0
 16 15  1  0
 17 16  2  0
  1 19  1  6
  4 20  1  0
  7 21  1  0
  8 22  1  0
  9 23  1  0
 10 24  1  0
 13 25  1  0
 14 26  1  0
 16 27  1  0
 18 28  1  0
 18 29  1  0
 18 30  1  0
M  ISO  8  19   8  20  14  21  14  22  14  23  14  24  14  25  14  26  14
M  ISO  4  27  14  28   8  29   8  30   8
M  END
>  <minimizedAffinity>  (1) 
-5.07308722

>  <minimizedRMSD>  (1) 
1.22712541

$$$$
