
     RDKit          3D

 23 24  0  0  1  0  0  0  0  0999 V2000
   46.4630   34.2960   43.7170 C   0  0  0  0  0  0  0  0  0  0  0  0
   45.7130   35.4190   43.2870 C   0  0  0  0  0  0  0  0  0  0  0  0
   44.7190   35.9590   44.1310 C   0  0  0  0  0  0  0  0  0  0  0  0
   44.5390   35.3540   45.3350 N   0  0  0  0  0  0  0  0  0  0  0  0
   45.2760   34.2840   45.7070 C   0  0  0  0  0  0  0  0  0  0  0  0
   46.2090   33.7820   44.9070 N   0  0  0  0  0  0  0  0  0  0  0  0
   47.4200   33.9120   42.6760 C   0  0  1  0  0  0  0  0  0  0  0  0
   46.9600   32.6330   41.9740 C   0  0  0  0  0  0  0  0  0  0  0  0
   47.5120   35.0510   41.6810 C   0  0  0  0  0  0  0  0  0  0  0  0
   48.9410   35.6510   41.5180 C   0  0  0  0  0  0  0  0  0  0  0  0
   48.2870   34.8820   40.4270 C   0  0  0  0  0  0  0  0  0  0  0  0
   45.9045   35.8673   42.3009 H   0  0  0  0  0  0  0  0  0  0  0  0
   44.1178   36.8291   43.8286 H   0  0  0  0  0  0  0  0  0  0  0  0
   45.0998   33.8212   46.6892 H   0  0  0  0  0  0  0  0  0  0  0  0
   48.4057   33.7158   43.1231 H   0  0  0  0  0  0  0  0  0  0  0  0
   46.6887   31.8786   42.7272 H   0  0  0  0  0  0  0  0  0  0  0  0
   46.0851   32.8543   41.3450 H   0  0  0  0  0  0  0  0  0  0  0  0
   47.7754   32.2464   41.3450 H   0  0  0  0  0  0  0  0  0  0  0  0
   46.4936   35.4060   41.8975 H   0  0  0  0  0  0  0  0  0  0  0  0
   49.0788   36.7383   41.4248 H   0  0  0  0  0  0  0  0  0  0  0  0
   49.8909   35.5846   42.0688 H   0  0  0  0  0  0  0  0  0  0  0  0
   47.9622   35.4058   39.5159 H   0  0  0  0  0  0  0  0  0  0  0  0
   48.5858   34.0058   39.8329 H   0  0  0  0  0  0  0  0  0  0  0  0
  1  6  1  0
  2  1  2  0
  2  3  1  0
  3  4  2  0
  4  5  1  0
  6  5  2  0
  7  1  1  0
  8  7  1  0
  9  7  1  0
 10  9  1  0
 11 10  1  0
 11  9  1  0
  2 12  1  0
  3 13  1  0
  5 14  1  0
  7 15  1  1
  8 16  1  0
  8 17  1  0
  8 18  1  0
  9 19  1  0
 10 20  1  0
 10 21  1  0
 11 22  1  0
 11 23  1  0
M  ISO  8  12  14  13  14  14  14  15   8  16   8  17   8  18   8  19  13
M  ISO  4  20  13  21  13  22  13  23  13
M  END
>  <minimizedAffinity>  (1) 
-4.26844168

>  <minimizedRMSD>  (1) 
2.02728653

$$$$
