
     RDKit          3D

 22 23  0  0  1  0  0  0  0  0999 V2000
   48.4340   35.0870   41.8770 C   0  0  2  0  0  0  0  0  0  0  0  0
   47.4100   34.6020   42.8160 C   0  0  0  0  0  0  0  0  0  0  0  0
   46.1630   35.2010   42.5840 C   0  0  0  0  0  0  0  0  0  0  0  0
   45.0710   34.8580   43.3680 C   0  0  0  0  0  0  0  0  0  0  0  0
   45.2550   33.9450   44.3420 N   0  0  0  0  0  0  0  0  0  0  0  0
   46.4720   33.3690   44.5590 C   0  0  0  0  0  0  0  0  0  0  0  0
   47.4950   33.7180   43.7930 N   0  0  0  0  0  0  0  0  0  0  0  0
   48.4150   34.1590   40.7080 C   0  0  0  0  0  0  0  0  0  0  0  0
   48.9600   32.8360   40.7860 C   0  0  0  0  0  0  0  0  0  0  0  0
   48.6580   32.1880   39.0690 S   0  0  0  0  0  0  0  0  0  0  0  0
   47.8810   33.7500   38.5630 C   0  0  0  0  0  0  0  0  0  0  0  0
   47.9230   34.4380   39.5260 N   0  0  0  0  0  0  0  0  0  0  0  0
   49.7980   35.0870   42.5100 C   0  0  0  0  0  0  0  0  0  0  0  0
   48.2179   36.1229   41.5766 H   0  0  0  0  0  0  0  0  0  0  0  0
   46.0509   35.9432   41.7799 H   0  0  0  0  0  0  0  0  0  0  0  0
   44.0856   35.3170   43.1998 H   0  0  0  0  0  0  0  0  0  0  0  0
   46.6023   32.6251   45.3588 H   0  0  0  0  0  0  0  0  0  0  0  0
   49.4348   32.3331   41.6413 H   0  0  0  0  0  0  0  0  0  0  0  0
   47.4628   34.0019   37.5773 H   0  0  0  0  0  0  0  0  0  0  0  0
   50.1306   34.0499   42.6643 H   0  0  0  0  0  0  0  0  0  0  0  0
   50.5087   35.6055   41.8497 H   0  0  0  0  0  0  0  0  0  0  0  0
   49.7525   35.6055   43.4790 H   0  0  0  0  0  0  0  0  0  0  0  0
  1 13  1  0
  1  2  1  0
  2  7  1  0
  3  2  2  0
  3  4  1  0
  4  5  2  0
  5  6  1  0
  7  6  2  0
  8  9  2  0
  8  1  1  0
 10  9  1  0
 11 10  1  0
 11 12  2  0
 12  8  1  0
  1 14  1  6
  3 15  1  0
  4 16  1  0
  6 17  1  0
  9 18  1  0
 11 19  1  0
 13 20  1  0
 13 21  1  0
 13 22  1  0
M  ISO  8  14   8  15  14  16  14  17  14  18  14  19  14  20   8  21   8
M  ISO  1  22   8
M  END
>  <minimizedAffinity>  (1) 
-3.99944639

>  <minimizedRMSD>  (1) 
0.932240844

$$$$
