
     RDKit          3D

 24 25  0  0  1  0  0  0  0  0999 V2000
   47.6860   35.3050   41.7730 C   0  0  0  0  0  0  0  0  0  0  0  0
   46.9290   34.8020   42.9280 C   0  0  0  0  0  0  0  0  0  0  0  0
   45.7590   35.5550   43.1400 C   0  0  0  0  0  0  0  0  0  0  0  0
   44.8990   35.2310   44.1820 C   0  0  0  0  0  0  0  0  0  0  0  0
   45.2440   34.1810   44.9550 N   0  0  0  0  0  0  0  0  0  0  0  0
   46.3680   33.4630   44.7470 C   0  0  0  0  0  0  0  0  0  0  0  0
   47.1960   33.7880   43.7320 N   0  0  0  0  0  0  0  0  0  0  0  0
   47.3010   34.4720   40.6000 C   0  0  0  0  0  0  0  0  0  0  0  0
   46.0910   33.7890   40.5040 C   0  0  0  0  0  0  0  0  0  0  0  0
   45.8750   33.0580   39.3540 C   0  0  0  0  0  0  0  0  0  0  0  0
   46.7700   32.9960   38.3670 N   0  0  0  0  0  0  0  0  0  0  0  0
   47.9340   33.6570   38.4660 C   0  0  0  0  0  0  0  0  0  0  0  0
   48.1920   34.3840   39.5690 N   0  0  0  0  0  0  0  0  0  0  0  0
   49.1660   35.1540   41.9730 C   0  0  0  0  0  0  0  0  0  0  0  0
   47.4598   36.3723   41.6330 H   0  0  0  0  0  0  0  0  0  0  0  0
   45.5248   36.4024   42.4789 H   0  0  0  0  0  0  0  0  0  0  0  0
   43.9790   35.8045   44.3680 H   0  0  0  0  0  0  0  0  0  0  0  0
   46.6087   32.6142   45.4039 H   0  0  0  0  0  0  0  0  0  0  0  0
   45.3418   33.8305   41.3083 H   0  0  0  0  0  0  0  0  0  0  0  0
   44.9296   32.5059   39.2471 H   0  0  0  0  0  0  0  0  0  0  0  0
   48.6717   33.6050   37.6517 H   0  0  0  0  0  0  0  0  0  0  0  0
   49.3900   35.1311   43.0497 H   0  0  0  0  0  0  0  0  0  0  0  0
   49.5051   34.2166   41.5079 H   0  0  0  0  0  0  0  0  0  0  0  0
   49.6874   36.0036   41.5079 H   0  0  0  0  0  0  0  0  0  0  0  0
  1 14  1  0
  1  2  1  0
  2  3  2  0
  2  7  1  0
  3  4  1  0
  4  5  2  0
  6  5  1  0
  7  6  2  0
  8  1  1  0
  9  8  2  0
 10  9  1  0
 11 12  1  0
 11 10  2  0
 12 13  2  0
 13  8  1  0
  1 15  1  0
  3 16  1  0
  4 17  1  0
  6 18  1  0
  9 19  1  0
 10 20  1  0
 12 21  1  0
 14 22  1  0
 14 23  1  0
 14 24  1  0
M  ISO  8  15   8  16  14  17  14  18  14  19  14  20  14  21  14  22   8
M  ISO  2  23   8  24   8
M  END
>  <minimizedAffinity>  (1) 
-4.25898123

>  <minimizedRMSD>  (1) 
1.49219573

$$$$
