
     RDKit          3D

 17 17  0  0  1  0  0  0  0  0999 V2000
   47.1320   34.5690   42.6300 C   0  0  0  0  0  0  0  0  0  0  0  0
   45.9650   35.3450   42.7670 C   0  0  0  0  0  0  0  0  0  0  0  0
   45.1470   35.1790   43.8800 C   0  0  0  0  0  0  0  0  0  0  0  0
   45.5240   34.2530   44.8060 N   0  0  0  0  0  0  0  0  0  0  0  0
   46.6470   33.5200   44.6520 C   0  0  0  0  0  0  0  0  0  0  0  0
   47.4280   33.6930   43.5680 N   0  0  0  0  0  0  0  0  0  0  0  0
   47.8550   34.8880   41.3900 C   0  0  1  0  0  0  0  0  0  0  0  0
   49.0030   35.8200   41.6440 C   0  0  0  0  0  0  0  0  0  0  0  0
   48.3990   33.6830   40.9140 O   0  0  0  0  0  0  0  0  0  0  0  0
   45.7003   36.0820   41.9945 H   0  0  0  0  0  0  0  0  0  0  0  0
   44.2301   35.7731   44.0078 H   0  0  0  0  0  0  0  0  0  0  0  0
   46.9257   32.7782   45.4149 H   0  0  0  0  0  0  0  0  0  0  0  0
   47.1609   35.3643   40.6819 H   0  0  0  0  0  0  0  0  0  0  0  0
   49.1472   35.9371   42.7282 H   0  0  0  0  0  0  0  0  0  0  0  0
   49.9178   35.4058   41.1950 H   0  0  0  0  0  0  0  0  0  0  0  0
   48.7856   36.8004   41.1950 H   0  0  0  0  0  0  0  0  0  0  0  0
   48.6569   33.1118   41.6804 H   0  0  0  0  0  0  0  0  0  0  0  0
  1  2  2  0
  1  6  1  0
  2  3  1  0
  3  4  2  0
  5  4  1  0
  6  5  2  0
  7  8  1  0
  7  1  1  0
  9  7  1  0
  2 10  1  0
  3 11  1  0
  5 12  1  0
  7 13  1  6
  8 14  1  0
  8 15  1  0
  8 16  1  0
  9 17  1  0
M  ISO  8  10  14  11  14  12  14  13   8  14   8  15   8  16   8  17   3
M  END
>  <minimizedAffinity>  (1) 
-3.29541111

>  <minimizedRMSD>  (1) 
0.139732003

$$$$
