
     RDKit          3D

 18 18  0  0  1  0  0  0  0  0999 V2000
   47.1410   34.5700   42.6310 C   0  0  0  0  0  0  0  0  0  0  0  0
   45.9630   35.3510   42.7540 C   0  0  0  0  0  0  0  0  0  0  0  0
   45.1540   35.1630   43.8680 C   0  0  0  0  0  0  0  0  0  0  0  0
   45.5360   34.2430   44.7770 N   0  0  0  0  0  0  0  0  0  0  0  0
   46.6580   33.5040   44.6510 C   0  0  0  0  0  0  0  0  0  0  0  0
   47.4420   33.6880   43.5690 N   0  0  0  0  0  0  0  0  0  0  0  0
   47.8810   34.8770   41.4000 C   0  0  1  0  0  0  0  0  0  0  0  0
   49.0090   35.8380   41.6410 C   0  0  0  0  0  0  0  0  0  0  0  0
   48.4940   33.6110   40.9610 N   0  0  0  0  0  0  0  0  0  0  0  0
   45.6958   36.0896   41.9839 H   0  0  0  0  0  0  0  0  0  0  0  0
   44.2313   35.7461   44.0041 H   0  0  0  0  0  0  0  0  0  0  0  0
   46.9288   32.7636   45.4182 H   0  0  0  0  0  0  0  0  0  0  0  0
   47.1897   35.3230   40.6699 H   0  0  0  0  0  0  0  0  0  0  0  0
   49.1578   35.9647   42.7235 H   0  0  0  0  0  0  0  0  0  0  0  0
   49.9303   35.4430   41.1880 H   0  0  0  0  0  0  0  0  0  0  0  0
   48.7654   36.8104   41.1880 H   0  0  0  0  0  0  0  0  0  0  0  0
   48.7629   33.0556   41.7857 H   0  0  0  0  0  0  0  0  0  0  0  0
   47.8169   33.0797   40.3952 H   0  0  0  0  0  0  0  0  0  0  0  0
  1  2  2  0
  1  6  1  0
  2  3  1  0
  3  4  2  0
  5  4  1  0
  6  5  2  0
  7  8  1  0
  7  1  1  0
  9  7  1  0
  2 10  1  0
  3 11  1  0
  5 12  1  0
  7 13  1  6
  8 14  1  0
  8 15  1  0
  8 16  1  0
  9 17  1  0
  9 18  1  0
M  ISO  8  10  14  11  14  12  14  13   8  14   8  15   8  16   8  17   5
M  ISO  1  18   5
M  END
>  <minimizedAffinity>  (1) 
-3.30190206

>  <minimizedRMSD>  (1) 
0.174926519

$$$$
