
     RDKit          3D

 46 50  0  0  1  0  0  0  0  0999 V2000
   45.4370   32.6680   36.0860 C   0  0  2  0  0  0  0  0  0  0  0  0
   45.2550   31.4700   35.1280 C   0  0  0  0  0  0  0  0  0  0  0  0
   46.6040   31.7750   35.7420 C   0  0  1  0  0  0  0  0  0  0  0  0
   43.5680   33.0410   39.1680 N   0  0  0  0  0  0  0  0  0  0  0  0
   44.0920   31.8010   39.3560 C   0  0  0  0  0  0  0  0  0  0  0  0
   44.8410   31.4550   38.3080 N   0  0  0  0  0  0  0  0  0  0  0  0
   44.7850   32.5170   37.4300 C   0  0  0  0  0  0  0  0  0  0  0  0
   44.0140   33.4140   38.0100 N   0  0  0  0  0  0  0  0  0  0  0  0
   41.4450   33.2580   40.2920 C   0  0  0  0  0  0  0  0  0  0  0  0
   42.7210   33.8320   39.9780 C   0  0  0  0  0  0  0  0  0  0  0  0
   42.9960   35.0640   40.4780 C   0  0  0  0  0  0  0  0  0  0  0  0
   42.0490   35.6700   41.2400 N   0  0  0  0  0  0  0  0  0  0  0  0
   40.8590   35.1080   41.5190 C   0  0  0  0  0  0  0  0  0  0  0  0
   40.5630   33.8890   41.0360 N   0  0  0  0  0  0  0  0  0  0  0  0
   47.6870   32.3660   34.9820 C   0  0  0  0  0  0  0  0  0  0  0  0
   47.7320   32.1310   33.7330 O   0  0  0  0  0  0  0  0  0  0  0  0
   48.6380   33.1620   35.5640 O   0  0  0  0  0  0  0  0  0  0  0  0
   49.2300   32.7510   38.9760 N   0  0  0  0  0  0  0  0  0  0  0  0
   49.3690   32.3930   37.6890 N   0  0  0  0  0  0  0  0  0  0  0  0
   48.6790   33.2760   36.9330 C   0  0  0  0  0  0  0  0  0  0  0  0
   48.0910   34.2080   37.7440 C   0  0  0  0  0  0  0  0  0  0  0  0
   48.4580   33.8510   39.0350 C   0  0  0  0  0  0  0  0  0  0  0  0
   48.0490   34.5830   40.2490 C   0  0  0  0  0  0  0  0  0  0  0  0
   48.8940   34.3390   41.4540 C   0  0  0  0  0  0  0  0  0  0  0  0
   48.0530   34.9630   42.5510 C   0  0  0  0  0  0  0  0  0  0  0  0
   46.6230   34.9950   42.0300 C   0  0  0  0  0  0  0  0  0  0  0  0
   46.6710   34.1790   40.7310 C   0  0  0  0  0  0  0  0  0  0  0  0
   45.2732   33.7552   36.0512 H   0  0  0  0  0  0  0  0  0  0  0  0
   45.0850   31.6417   34.0549 H   0  0  0  0  0  0  0  0  0  0  0  0
   44.5930   30.5923   35.0890 H   0  0  0  0  0  0  0  0  0  0  0  0
   47.3227   31.1498   36.2922 H   0  0  0  0  0  0  0  0  0  0  0  0
   43.9229   31.1738   40.2437 H   0  0  0  0  0  0  0  0  0  0  0  0
   41.1967   32.2610   39.8992 H   0  0  0  0  0  0  0  0  0  0  0  0
   43.9576   35.5569   40.2720 H   0  0  0  0  0  0  0  0  0  0  0  0
   40.1288   35.6455   42.1418 H   0  0  0  0  0  0  0  0  0  0  0  0
   49.6453   32.2644   39.7832 H   0  0  0  0  0  0  0  0  0  0  0  0
   47.4625   35.0577   37.4390 H   0  0  0  0  0  0  0  0  0  0  0  0
   48.1234   35.6261   39.9077 H   0  0  0  0  0  0  0  0  0  0  0  0
   49.0445   33.2632   41.6270 H   0  0  0  0  0  0  0  0  0  0  0  0
   49.9096   34.7549   41.3788 H   0  0  0  0  0  0  0  0  0  0  0  0
   48.1109   34.3562   43.4666 H   0  0  0  0  0  0  0  0  0  0  0  0
   48.4092   35.9732   42.8010 H   0  0  0  0  0  0  0  0  0  0  0  0
   45.9347   34.5342   42.7538 H   0  0  0  0  0  0  0  0  0  0  0  0
   46.2590   36.0203   41.8676 H   0  0  0  0  0  0  0  0  0  0  0  0
   45.8825   34.4798   40.0254 H   0  0  0  0  0  0  0  0  0  0  0  0
   46.5078   33.0972   40.8453 H   0  0  0  0  0  0  0  0  0  0  0  0
  1  7  1  0
  2  3  1  0
  2  1  1  0
  3  1  1  0
  4  5  1  0
  4 10  1  0
  6  5  2  0
  7  8  2  0
  7  6  1  0
  8  4  1  0
  9 14  2  0
 10  9  1  0
 10 11  2  0
 11 12  1  0
 12 13  2  0
 14 13  1  0
 15 17  1  0
 15  3  1  0
 16 15  2  0
 17 20  1  0
 18 22  1  0
 19 18  1  0
 20 19  2  0
 20 21  1  0
 21 22  2  0
 22 23  1  0
 23 27  1  0
 23 24  1  0
 24 25  1  0
 26 25  1  0
 27 26  1  0
  1 28  1  6
  2 29  1  0
  2 30  1  0
  3 31  1  1
  5 32  1  0
  9 33  1  0
 11 34  1  0
 13 35  1  0
 18 36  1  0
 21 37  1  0
 23 38  1  0
 24 39  1  0
 24 40  1  0
 25 41  1  0
 25 42  1  0
 26 43  1  0
 26 44  1  0
 27 45  1  0
 27 46  1  0
M  ISO  8  28  13  29  13  30  13  31  13  32  14  33  14  34  14  35  14
M  ISO  8  36   9  37  14  38  13  39  13  40  13  41  13  42  13  43  13
M  ISO  3  44  13  45  13  46  13
M  END
>  <minimizedAffinity>  (1) 
-5.41671944

>  <minimizedRMSD>  (1) 
4.94815588

$$$$
