
     RDKit          3D

 24 25  0  0  1  0  0  0  0  0999 V2000
   46.8970   34.7090   41.7370 C   0  0  1  0  0  0  0  0  0  0  0  0
   46.2260   34.7530   43.0380 C   0  0  0  0  0  0  0  0  0  0  0  0
   45.3490   35.8650   43.1460 C   0  0  0  0  0  0  0  0  0  0  0  0
   44.6270   36.0410   44.3150 C   0  0  0  0  0  0  0  0  0  0  0  0
   44.7890   35.1310   45.3260 N   0  0  0  0  0  0  0  0  0  0  0  0
   45.6400   34.0780   45.1840 C   0  0  0  0  0  0  0  0  0  0  0  0
   46.3280   33.9280   44.0420 N   0  0  0  0  0  0  0  0  0  0  0  0
   48.2280   35.4850   41.8010 C   0  0  0  0  0  0  0  0  0  0  0  0
   47.2040   33.0090   41.2460 S   0  0  0  0  0  0  0  0  0  0  0  0
   48.8940   32.5560   41.5270 C   0  0  0  0  0  0  0  0  0  0  0  0
   49.5890   32.1760   40.3780 C   0  0  0  0  0  0  0  0  0  0  0  0
   50.8960   31.8480   40.7540 C   0  0  0  0  0  0  0  0  0  0  0  0
   50.9020   32.0560   42.1310 C   0  0  0  0  0  0  0  0  0  0  0  0
   49.7400   32.4600   42.5360 O   0  0  0  0  0  0  0  0  0  0  0  0
   46.2413   35.1796   40.9896 H   0  0  0  0  0  0  0  0  0  0  0  0
   45.2446   36.5762   42.3133 H   0  0  0  0  0  0  0  0  0  0  0  0
   43.9393   36.8920   44.4288 H   0  0  0  0  0  0  0  0  0  0  0  0
   45.7630   33.3531   46.0022 H   0  0  0  0  0  0  0  0  0  0  0  0
   48.5073   35.6478   42.8524 H   0  0  0  0  0  0  0  0  0  0  0  0
   49.0155   34.9045   41.2981 H   0  0  0  0  0  0  0  0  0  0  0  0
   48.1107   36.4563   41.2981 H   0  0  0  0  0  0  0  0  0  0  0  0
   49.1812   32.1406   39.3570 H   0  0  0  0  0  0  0  0  0  0  0  0
   51.7228   31.5067   40.1138 H   0  0  0  0  0  0  0  0  0  0  0  0
   51.7730   31.8989   42.7842 H   0  0  0  0  0  0  0  0  0  0  0  0
  1  8  1  0
  1  2  1  0
  2  3  2  0
  2  7  1  0
  3  4  1  0
  4  5  2  0
  6  5  1  0
  7  6  2  0
  9 10  1  0
  9  1  1  0
 10 14  1  0
 11 12  1  0
 11 10  2  0
 12 13  2  0
 13 14  1  0
  1 15  1  6
  3 16  1  0
  4 17  1  0
  6 18  1  0
  8 19  1  0
  8 20  1  0
  8 21  1  0
 11 22  1  0
 12 23  1  0
 13 24  1  0
M  ISO  8  15   8  16  14  17  14  18  14  19   8  20   8  21   8  22  14
M  ISO  2  23  14  24  14
M  END
>  <minimizedAffinity>  (1) 
-4.01306009

>  <minimizedRMSD>  (1) 
1.33346856

$$$$
