
     RDKit          3D

 20 20  0  0  1  0  0  0  0  0999 V2000
   48.0250   34.7290   41.3630 C   0  0  1  0  0  0  0  0  0  0  0  0
   47.2360   34.4980   42.5790 C   0  0  0  0  0  0  0  0  0  0  0  0
   46.1040   35.3200   42.6560 C   0  0  0  0  0  0  0  0  0  0  0  0
   45.2470   35.2260   43.7420 C   0  0  0  0  0  0  0  0  0  0  0  0
   45.5440   34.3180   44.7120 N   0  0  0  0  0  0  0  0  0  0  0  0
   46.6380   33.5390   44.6160 C   0  0  0  0  0  0  0  0  0  0  0  0
   47.4530   33.6540   43.5490 N   0  0  0  0  0  0  0  0  0  0  0  0
   49.0240   35.8790   41.5950 C   0  0  0  0  0  0  0  0  0  0  0  0
   48.9130   33.2500   40.8870 S   0  0  0  0  0  0  0  0  0  0  0  0
   50.3560   32.9210   41.9200 C   0  0  0  0  0  0  0  0  0  0  0  0
   50.1300   31.9680   42.8690 F   0  0  0  0  0  0  0  0  0  0  0  0
   51.3360   32.4050   41.0550 F   0  0  0  0  0  0  0  0  0  0  0  0
   50.8690   34.1060   42.4060 F   0  0  0  0  0  0  0  0  0  0  0  0
   47.3338   34.9994   40.5511 H   0  0  0  0  0  0  0  0  0  0  0  0
   45.8946   36.0418   41.8528 H   0  0  0  0  0  0  0  0  0  0  0  0
   44.3549   35.8652   43.8175 H   0  0  0  0  0  0  0  0  0  0  0  0
   46.8661   32.8098   45.4073 H   0  0  0  0  0  0  0  0  0  0  0  0
   49.1593   36.0348   42.6755 H   0  0  0  0  0  0  0  0  0  0  0  0
   49.9910   35.6226   41.1376 H   0  0  0  0  0  0  0  0  0  0  0  0
   48.6349   36.8006   41.1376 H   0  0  0  0  0  0  0  0  0  0  0  0
  1  8  1  0
  1  2  1  0
  2  3  2  0
  2  7  1  0
  3  4  1  0
  4  5  2  0
  6  5  1  0
  7  6  2  0
  9  1  1  0
  9 10  1  0
 10 13  1  0
 10 11  1  0
 12 10  1  0
  1 14  1  6
  3 15  1  0
  4 16  1  0
  6 17  1  0
  8 18  1  0
  8 19  1  0
  8 20  1  0
M  ISO  7  14   8  15  14  16  14  17  14  18   8  19   8  20   8
M  END
>  <minimizedAffinity>  (1) 
-4.01505804

>  <minimizedRMSD>  (1) 
0.609430313

$$$$
