
     RDKit          3D

 24 25  0  0  1  0  0  0  0  0999 V2000
   47.8070   35.0180   41.3290 C   0  0  1  0  0  0  0  0  0  0  0  0
   47.1030   34.6540   42.5550 C   0  0  0  0  0  0  0  0  0  0  0  0
   45.9120   35.3540   42.7650 C   0  0  0  0  0  0  0  0  0  0  0  0
   45.1440   35.1000   43.8860 C   0  0  0  0  0  0  0  0  0  0  0  0
   45.5830   34.1510   44.7710 N   0  0  0  0  0  0  0  0  0  0  0  0
   46.7340   33.4920   44.5440 C   0  0  0  0  0  0  0  0  0  0  0  0
   47.4800   33.7450   43.4450 N   0  0  0  0  0  0  0  0  0  0  0  0
   49.0740   35.8180   41.6500 C   0  0  0  0  0  0  0  0  0  0  0  0
   48.2170   33.5650   40.3610 S   0  0  0  0  0  0  0  0  0  0  0  0
   47.7310   33.6810   38.6430 C   0  0  0  0  0  0  0  0  0  0  0  0
   48.7860   33.0700   37.6890 C   0  0  0  0  0  0  0  0  0  0  0  0
   48.4320   34.5390   37.6630 C   0  0  0  0  0  0  0  0  0  0  0  0
   47.1338   35.6493   40.7305 H   0  0  0  0  0  0  0  0  0  0  0  0
   45.5845   36.1097   42.0359 H   0  0  0  0  0  0  0  0  0  0  0  0
   44.2053   35.6455   44.0627 H   0  0  0  0  0  0  0  0  0  0  0  0
   47.0740   32.7341   45.2651 H   0  0  0  0  0  0  0  0  0  0  0  0
   49.1935   35.8934   42.7409 H   0  0  0  0  0  0  0  0  0  0  0  0
   49.9485   35.3080   41.2198 H   0  0  0  0  0  0  0  0  0  0  0  0
   48.9895   36.8268   41.2198 H   0  0  0  0  0  0  0  0  0  0  0  0
   46.6611   33.5906   38.8819 H   0  0  0  0  0  0  0  0  0  0  0  0
   49.7611   32.7399   38.0766 H   0  0  0  0  0  0  0  0  0  0  0  0
   48.8085   32.2493   36.9569 H   0  0  0  0  0  0  0  0  0  0  0  0
   49.1639   35.2806   38.0156 H   0  0  0  0  0  0  0  0  0  0  0  0
   48.0969   35.2301   36.8755 H   0  0  0  0  0  0  0  0  0  0  0  0
  1  8  1  0
  1  2  1  0
  2  3  2  0
  2  7  1  0
  3  4  1  0
  4  5  2  0
  6  5  1  0
  7  6  2  0
  9  1  1  0
 10  9  1  0
 11 10  1  0
 12 11  1  0
 12 10  1  0
  1 13  1  6
  3 14  1  0
  4 15  1  0
  6 16  1  0
  8 17  1  0
  8 18  1  0
  8 19  1  0
 10 20  1  0
 11 21  1  0
 11 22  1  0
 12 23  1  0
 12 24  1  0
M  ISO  8  13   8  14  14  15  14  16  14  17   8  18   8  19   8  20  13
M  ISO  4  21  13  22  13  23  13  24  13
M  END
>  <minimizedAffinity>  (1) 
-3.81591392

>  <minimizedRMSD>  (1) 
1.26815844

$$$$
