
     RDKit          3D

 20 20  0  0  1  0  0  0  0  0999 V2000
   47.0940   34.6030   42.6160 C   0  0  0  0  0  0  0  0  0  0  0  0
   45.9170   35.3550   42.7730 C   0  0  0  0  0  0  0  0  0  0  0  0
   45.1370   35.1530   43.8950 C   0  0  0  0  0  0  0  0  0  0  0  0
   45.5310   34.2340   44.8120 N   0  0  0  0  0  0  0  0  0  0  0  0
   46.6700   33.5290   44.6270 C   0  0  0  0  0  0  0  0  0  0  0  0
   47.4480   33.7110   43.5360 N   0  0  0  0  0  0  0  0  0  0  0  0
   47.8240   34.9230   41.3820 C   0  0  1  0  0  0  0  0  0  0  0  0
   49.0480   35.8000   41.7040 C   0  0  0  0  0  0  0  0  0  0  0  0
   48.3390   33.4340   40.5240 S   0  0  0  0  0  0  0  0  0  0  0  0
   46.9150   32.3640   40.1520 C   0  0  0  0  0  0  0  0  0  0  0  0
   45.6213   36.0937   42.0134 H   0  0  0  0  0  0  0  0  0  0  0  0
   44.2110   35.7282   44.0427 H   0  0  0  0  0  0  0  0  0  0  0  0
   46.9712   32.7889   45.3830 H   0  0  0  0  0  0  0  0  0  0  0  0
   47.1445   35.4785   40.7189 H   0  0  0  0  0  0  0  0  0  0  0  0
   49.1632   35.8825   42.7948 H   0  0  0  0  0  0  0  0  0  0  0  0
   49.9507   35.3419   41.2736 H   0  0  0  0  0  0  0  0  0  0  0  0
   48.9045   36.8021   41.2736 H   0  0  0  0  0  0  0  0  0  0  0  0
   46.4586   32.0210   41.0922 H   0  0  0  0  0  0  0  0  0  0  0  0
   46.1733   32.9301   39.5694 H   0  0  0  0  0  0  0  0  0  0  0  0
   47.2523   31.4940   39.5694 H   0  0  0  0  0  0  0  0  0  0  0  0
  1  2  2  0
  1  6  1  0
  2  3  1  0
  3  4  2  0
  5  4  1  0
  6  5  2  0
  7  8  1  0
  7  1  1  0
  9  7  1  0
 10  9  1  0
  2 11  1  0
  3 12  1  0
  5 13  1  0
  7 14  1  6
  8 15  1  0
  8 16  1  0
  8 17  1  0
 10 18  1  0
 10 19  1  0
 10 20  1  0
M  ISO  8  11  14  12  14  13  14  14   8  15   8  16   8  17   8  18   8
M  ISO  2  19   8  20   8
M  END
>  <minimizedAffinity>  (1) 
-3.24444079

>  <minimizedRMSD>  (1) 
0.0776255056

$$$$
