
     RDKit          3D

 38 41  0  0  1  0  0  0  0  0999 V2000
   49.7170   32.9900   37.1130 N   0  0  0  0  0  0  0  0  0  0  0  0
   48.5600   33.6350   36.8600 C   0  0  0  0  0  0  0  0  0  0  0  0
   47.8170   33.6270   37.9800 N   0  0  0  0  0  0  0  0  0  0  0  0
   48.4910   32.9810   38.9470 C   0  0  0  0  0  0  0  0  0  0  0  0
   48.1960   32.6900   40.2660 C   0  0  0  0  0  0  0  0  0  0  0  0
   49.1570   32.0070   40.9240 N   0  0  0  0  0  0  0  0  0  0  0  0
   50.3080   31.6190   40.4070 C   0  0  0  0  0  0  0  0  0  0  0  0
   50.6040   31.8990   39.1240 N   0  0  0  0  0  0  0  0  0  0  0  0
   49.6920   32.5860   38.3780 C   0  0  0  0  0  0  0  0  0  0  0  0
   51.2670   30.8780   41.2450 C   0  0  0  0  0  0  0  0  0  0  0  0
   52.3860   30.3090   40.7060 C   0  0  0  0  0  0  0  0  0  0  0  0
   53.2410   29.6270   41.5620 C   0  0  0  0  0  0  0  0  0  0  0  0
   52.9660   29.5290   42.9190 C   0  0  0  0  0  0  0  0  0  0  0  0
   51.8320   30.1110   43.4390 C   0  0  0  0  0  0  0  0  0  0  0  0
   50.9650   30.7950   42.6080 C   0  0  0  0  0  0  0  0  0  0  0  0
   46.6400   33.2060   40.9890 S   0  0  0  0  0  0  0  0  0  0  0  0
   46.7350   34.8210   41.7430 C   0  0  1  0  0  0  0  0  0  0  0  0
   46.0980   34.8370   43.0630 C   0  0  0  0  0  0  0  0  0  0  0  0
   45.2240   35.9390   43.2320 C   0  0  0  0  0  0  0  0  0  0  0  0
   44.5590   36.0400   44.4700 C   0  0  0  0  0  0  0  0  0  0  0  0
   44.7720   35.1040   45.4340 N   0  0  0  0  0  0  0  0  0  0  0  0
   45.6180   34.0730   45.2210 C   0  0  0  0  0  0  0  0  0  0  0  0
   46.2630   33.9730   44.0220 N   0  0  0  0  0  0  0  0  0  0  0  0
   48.2140   35.2800   41.8710 C   0  0  0  0  0  0  0  0  0  0  0  0
   50.4846   32.8376   36.4434 H   0  0  0  0  0  0  0  0  0  0  0  0
   48.2732   34.0901   35.9005 H   0  0  0  0  0  0  0  0  0  0  0  0
   52.6025   30.3883   39.6304 H   0  0  0  0  0  0  0  0  0  0  0  0
   54.1501   29.1573   41.1584 H   0  0  0  0  0  0  0  0  0  0  0  0
   53.6560   28.9848   43.5806 H   0  0  0  0  0  0  0  0  0  0  0  0
   51.6162   30.0317   44.5147 H   0  0  0  0  0  0  0  0  0  0  0  0
   50.0555   31.2648   43.0106 H   0  0  0  0  0  0  0  0  0  0  0  0
   46.1933   35.5198   41.0886 H   0  0  0  0  0  0  0  0  0  0  0  0
   45.0717   36.6809   42.4343 H   0  0  0  0  0  0  0  0  0  0  0  0
   43.8680   36.8752   44.6570 H   0  0  0  0  0  0  0  0  0  0  0  0
   45.7857   33.3210   46.0061 H   0  0  0  0  0  0  0  0  0  0  0  0
   48.4814   35.3630   42.9348 H   0  0  0  0  0  0  0  0  0  0  0  0
   48.8700   34.5432   41.3844 H   0  0  0  0  0  0  0  0  0  0  0  0
   48.3376   36.2588   41.3844 H   0  0  0  0  0  0  0  0  0  0  0  0
  1  9  1  0
  2  1  1  0
  2  3  2  0
  3  4  1  0
  4  5  1  0
  5  6  2  0
  5 16  1  0
  7  6  1  0
  7 10  1  0
  8  7  2  0
  9  4  2  0
  9  8  1  0
 10 15  1  0
 11 10  2  0
 11 12  1  0
 12 13  2  0
 13 14  1  0
 15 14  2  0
 16 17  1  0
 17 24  1  0
 17 18  1  0
 18 19  2  0
 18 23  1  0
 19 20  1  0
 20 21  2  0
 22 21  1  0
 23 22  2  0
  1 25  1  0
  2 26  1  0
 11 27  1  0
 12 28  1  0
 13 29  1  0
 14 30  1  0
 15 31  1  0
 17 32  1  6
 19 33  1  0
 20 34  1  0
 22 35  1  0
 24 36  1  0
 24 37  1  0
 24 38  1  0
M  ISO  8  25   9  26  14  27  14  28  14  29  14  30  14  31  14  32   8
M  ISO  6  33  14  34  14  35  14  36   8  37   8  38   8
M  END
>  <minimizedAffinity>  (1) 
-5.26863432

>  <minimizedRMSD>  (1) 
0.833844125

$$$$
