
     RDKit          3D

 38 41  0  0  1  0  0  0  0  0999 V2000
   49.5960   33.1230   37.1220 N   0  0  0  0  0  0  0  0  0  0  0  0
   48.5410   33.9030   36.8640 C   0  0  0  0  0  0  0  0  0  0  0  0
   47.7510   33.9180   37.9500 N   0  0  0  0  0  0  0  0  0  0  0  0
   48.3000   33.1500   38.9020 C   0  0  0  0  0  0  0  0  0  0  0  0
   47.9110   32.8240   40.1890 C   0  0  0  0  0  0  0  0  0  0  0  0
   48.7550   32.0070   40.8320 N   0  0  0  0  0  0  0  0  0  0  0  0
   49.8900   31.5040   40.3500 C   0  0  0  0  0  0  0  0  0  0  0  0
   50.2710   31.8170   39.1050 N   0  0  0  0  0  0  0  0  0  0  0  0
   49.4760   32.6460   38.3680 C   0  0  0  0  0  0  0  0  0  0  0  0
   50.6800   30.6260   41.2090 C   0  0  0  0  0  0  0  0  0  0  0  0
   51.1290   29.3880   40.7760 C   0  0  0  0  0  0  0  0  0  0  0  0
   51.8660   28.6430   41.6760 C   0  0  0  0  0  0  0  0  0  0  0  0
   52.1750   29.0540   42.9560 C   0  0  0  0  0  0  0  0  0  0  0  0
   51.7220   30.2900   43.3760 C   0  0  0  0  0  0  0  0  0  0  0  0
   50.9840   31.0400   42.4820 C   0  0  0  0  0  0  0  0  0  0  0  0
   46.3970   33.4690   40.8860 S   0  0  0  0  0  0  0  0  0  0  0  0
   46.6510   34.9710   41.8180 C   0  0  1  0  0  0  0  0  0  0  0  0
   46.0710   34.8630   43.1700 C   0  0  0  0  0  0  0  0  0  0  0  0
   45.1480   35.8910   43.4490 C   0  0  0  0  0  0  0  0  0  0  0  0
   44.5240   35.9060   44.6920 C   0  0  0  0  0  0  0  0  0  0  0  0
   44.8340   34.9270   45.5860 N   0  0  0  0  0  0  0  0  0  0  0  0
   45.7230   33.9600   45.2850 C   0  0  0  0  0  0  0  0  0  0  0  0
   46.3300   33.9520   44.0610 N   0  0  0  0  0  0  0  0  0  0  0  0
   48.1660   35.2980   41.9300 C   0  0  0  0  0  0  0  0  0  0  0  0
   50.3700   32.9228   36.4726 H   0  0  0  0  0  0  0  0  0  0  0  0
   48.3524   34.4406   35.9230 H   0  0  0  0  0  0  0  0  0  0  0  0
   50.9089   29.0167   39.7642 H   0  0  0  0  0  0  0  0  0  0  0  0
   52.2304   27.6574   41.3506 H   0  0  0  0  0  0  0  0  0  0  0  0
   52.7675   28.4135   43.6259 H   0  0  0  0  0  0  0  0  0  0  0  0
   51.9416   30.6633   44.3871 H   0  0  0  0  0  0  0  0  0  0  0  0
   50.6190   32.0250   42.8083 H   0  0  0  0  0  0  0  0  0  0  0  0
   46.1432   35.7842   41.2788 H   0  0  0  0  0  0  0  0  0  0  0  0
   44.9259   36.6650   42.6996 H   0  0  0  0  0  0  0  0  0  0  0  0
   43.7967   36.6909   44.9469 H   0  0  0  0  0  0  0  0  0  0  0  0
   45.9593   33.1791   46.0228 H   0  0  0  0  0  0  0  0  0  0  0  0
   48.4504   35.3594   42.9908 H   0  0  0  0  0  0  0  0  0  0  0  0
   48.7495   34.5051   41.4392 H   0  0  0  0  0  0  0  0  0  0  0  0
   48.3705   36.2610   41.4392 H   0  0  0  0  0  0  0  0  0  0  0  0
  1  9  1  0
  2  1  1  0
  2  3  2  0
  3  4  1  0
  4  5  1  0
  5  6  2  0
  5 16  1  0
  7  6  1  0
  7 10  1  0
  8  7  2  0
  9  4  2  0
  9  8  1  0
 10 15  1  0
 11 10  2  0
 11 12  1  0
 12 13  2  0
 13 14  1  0
 15 14  2  0
 16 17  1  0
 17 24  1  0
 17 18  1  0
 18 19  2  0
 18 23  1  0
 19 20  1  0
 20 21  2  0
 22 21  1  0
 23 22  2  0
  1 25  1  0
  2 26  1  0
 11 27  1  0
 12 28  1  0
 13 29  1  0
 14 30  1  0
 15 31  1  0
 17 32  1  6
 19 33  1  0
 20 34  1  0
 22 35  1  0
 24 36  1  0
 24 37  1  0
 24 38  1  0
M  ISO  8  25   9  26  14  27  14  28  14  29  14  30  14  31  14  32   8
M  ISO  6  33  14  34  14  35  14  36   8  37   8  38   8
M  END
>  <minimizedAffinity>  (1) 
-5.25462198

>  <minimizedRMSD>  (1) 
0.523087323

$$$$
