
     RDKit          3D

 29 31  0  0  1  0  0  0  0  0999 V2000
   46.7260   34.8190   41.8650 C   0  0  1  0  0  0  0  0  0  0  0  0
   46.0740   34.8380   43.1760 C   0  0  0  0  0  0  0  0  0  0  0  0
   45.1980   35.9320   43.3340 C   0  0  0  0  0  0  0  0  0  0  0  0
   44.5170   36.0480   44.5540 C   0  0  0  0  0  0  0  0  0  0  0  0
   44.7360   35.0960   45.5290 N   0  0  0  0  0  0  0  0  0  0  0  0
   45.5790   34.0760   45.3260 C   0  0  0  0  0  0  0  0  0  0  0  0
   46.2340   33.9750   44.1370 N   0  0  0  0  0  0  0  0  0  0  0  0
   48.2460   35.0970   42.0210 C   0  0  0  0  0  0  0  0  0  0  0  0
   46.4590   33.2690   41.0170 S   0  0  0  0  0  0  0  0  0  0  0  0
   49.5970   33.3110   37.1890 N   0  0  0  0  0  0  0  0  0  0  0  0
   48.5660   34.1700   37.0600 C   0  0  0  0  0  0  0  0  0  0  0  0
   47.7870   34.0660   38.1560 N   0  0  0  0  0  0  0  0  0  0  0  0
   48.3230   33.1400   38.9850 C   0  0  0  0  0  0  0  0  0  0  0  0
   47.9340   32.6550   40.2200 C   0  0  0  0  0  0  0  0  0  0  0  0
   48.7530   31.7130   40.7340 N   0  0  0  0  0  0  0  0  0  0  0  0
   49.8440   31.2560   40.1520 C   0  0  0  0  0  0  0  0  0  0  0  0
   50.2320   31.7250   38.9440 N   0  0  0  0  0  0  0  0  0  0  0  0
   49.4660   32.6780   38.3510 C   0  0  0  0  0  0  0  0  0  0  0  0
   50.5490   30.2800   40.8570 O   0  0  0  0  0  0  0  0  0  0  0  0
   46.2745   35.6132   41.2522 H   0  0  0  0  0  0  0  0  0  0  0  0
   45.0543   36.6677   42.5290 H   0  0  0  0  0  0  0  0  0  0  0  0
   43.8215   36.8817   44.7307 H   0  0  0  0  0  0  0  0  0  0  0  0
   45.7411   33.3255   46.1137 H   0  0  0  0  0  0  0  0  0  0  0  0
   48.5024   35.1439   43.0897 H   0  0  0  0  0  0  0  0  0  0  0  0
   48.8177   34.2885   41.5419 H   0  0  0  0  0  0  0  0  0  0  0  0
   48.4945   36.0555   41.5419 H   0  0  0  0  0  0  0  0  0  0  0  0
   50.3548   33.1696   36.5059 H   0  0  0  0  0  0  0  0  0  0  0  0
   48.3901   34.8412   36.2064 H   0  0  0  0  0  0  0  0  0  0  0  0
   51.3774   29.8951   40.4753 H   0  0  0  0  0  0  0  0  0  0  0  0
  1  8  1  0
  1  2  1  0
  2  3  2  0
  2  7  1  0
  3  4  1  0
  4  5  2  0
  6  5  1  0
  7  6  2  0
  9  1  1  0
 10 18  1  0
 11 10  1  0
 11 12  2  0
 12 13  1  0
 13 14  2  0
 14 15  1  0
 14  9  1  0
 16 15  2  0
 16 19  1  0
 17 16  1  0
 18 17  2  0
 18 13  1  0
  1 20  1  6
  3 21  1  0
  4 22  1  0
  6 23  1  0
  8 24  1  0
  8 25  1  0
  8 26  1  0
 10 27  1  0
 11 28  1  0
 19 29  1  0
M  ISO  8  20   8  21  14  22  14  23  14  24   8  25   8  26   8  27   9
M  ISO  2  28  14  29   3
M  END
>  <minimizedAffinity>  (1) 
-4.99256468

>  <minimizedRMSD>  (1) 
0.0476344414

$$$$
