
     RDKit          3D

 31 33  0  0  1  0  0  0  0  0999 V2000
   46.4590   33.3230   40.9150 S   0  0  0  0  0  0  0  0  0  0  0  0
   49.6110   33.1350   37.0990 N   0  0  0  0  0  0  0  0  0  0  0  0
   48.5280   33.9060   36.8790 C   0  0  0  0  0  0  0  0  0  0  0  0
   47.7560   33.8760   37.9800 N   0  0  0  0  0  0  0  0  0  0  0  0
   48.3400   33.0850   38.9100 C   0  0  0  0  0  0  0  0  0  0  0  0
   47.9810   32.7110   40.2000 C   0  0  0  0  0  0  0  0  0  0  0  0
   48.8560   31.8940   40.7960 N   0  0  0  0  0  0  0  0  0  0  0  0
   49.9820   31.4380   40.2740 C   0  0  0  0  0  0  0  0  0  0  0  0
   50.3330   31.7960   39.0270 N   0  0  0  0  0  0  0  0  0  0  0  0
   49.5130   32.6270   38.3300 C   0  0  0  0  0  0  0  0  0  0  0  0
   50.8150   30.5360   41.1120 C   0  0  0  0  0  0  0  0  0  0  0  0
   50.2180   30.2760   42.3320 F   0  0  0  0  0  0  0  0  0  0  0  0
   52.0640   31.0730   41.3050 F   0  0  0  0  0  0  0  0  0  0  0  0
   50.9940   29.2980   40.4790 F   0  0  0  0  0  0  0  0  0  0  0  0
   46.6740   34.8850   41.7550 C   0  0  1  0  0  0  0  0  0  0  0  0
   46.0600   34.8610   43.0960 C   0  0  0  0  0  0  0  0  0  0  0  0
   45.1750   35.9520   43.2940 C   0  0  0  0  0  0  0  0  0  0  0  0
   44.5290   36.0280   44.5430 C   0  0  0  0  0  0  0  0  0  0  0  0
   44.7850   35.0610   45.4840 N   0  0  0  0  0  0  0  0  0  0  0  0
   45.6310   34.0560   45.2370 C   0  0  0  0  0  0  0  0  0  0  0  0
   46.2610   33.9770   44.0270 N   0  0  0  0  0  0  0  0  0  0  0  0
   48.1820   35.2360   41.8790 C   0  0  0  0  0  0  0  0  0  0  0  0
   50.3796   32.9670   36.4342 H   0  0  0  0  0  0  0  0  0  0  0  0
   48.3121   34.4646   35.9563 H   0  0  0  0  0  0  0  0  0  0  0  0
   46.1703   35.6559   41.1533 H   0  0  0  0  0  0  0  0  0  0  0  0
   45.0016   36.7029   42.5091 H   0  0  0  0  0  0  0  0  0  0  0  0
   43.8303   36.8490   44.7615 H   0  0  0  0  0  0  0  0  0  0  0  0
   45.8198   33.2934   46.0069 H   0  0  0  0  0  0  0  0  0  0  0  0
   48.4573   35.3001   42.9421 H   0  0  0  0  0  0  0  0  0  0  0  0
   48.7819   34.4535   41.3914 H   0  0  0  0  0  0  0  0  0  0  0  0
   48.3747   36.2030   41.3914 H   0  0  0  0  0  0  0  0  0  0  0  0
  1 15  1  0
  2 10  1  0
  3  2  1  0
  3  4  2  0
  4  5  1  0
  5  6  1  0
  6  7  2  0
  6  1  1  0
  8  7  1  0
  8 11  1  0
  9  8  2  0
 10  5  2  0
 10  9  1  0
 11 13  1  0
 11 12  1  0
 14 11  1  0
 15 22  1  0
 15 16  1  0
 16 17  2  0
 16 21  1  0
 17 18  1  0
 18 19  2  0
 20 19  1  0
 21 20  2  0
  2 23  1  0
  3 24  1  0
 15 25  1  6
 17 26  1  0
 18 27  1  0
 20 28  1  0
 22 29  1  0
 22 30  1  0
 22 31  1  0
M  ISO  8  23   9  24  14  25   8  26  14  27  14  28  14  29   8  30   8
M  ISO  1  31   8
M  END
>  <minimizedAffinity>  (1) 
-5.01551771

>  <minimizedRMSD>  (1) 
0.329550296

$$$$
