
     RDKit          3D

 31 33  0  0  1  0  0  0  0  0999 V2000
   46.5100   33.2540   41.0180 S   0  0  0  0  0  0  0  0  0  0  0  0
   49.5850   33.2830   37.1290 N   0  0  0  0  0  0  0  0  0  0  0  0
   48.5120   34.0880   36.9860 C   0  0  0  0  0  0  0  0  0  0  0  0
   47.7590   33.9940   38.0990 N   0  0  0  0  0  0  0  0  0  0  0  0
   48.3370   33.1390   38.9490 C   0  0  0  0  0  0  0  0  0  0  0  0
   48.0060   32.6790   40.2100 C   0  0  0  0  0  0  0  0  0  0  0  0
   48.8710   31.8010   40.7460 N   0  0  0  0  0  0  0  0  0  0  0  0
   49.9780   31.3650   40.1650 C   0  0  0  0  0  0  0  0  0  0  0  0
   50.3170   31.7980   38.9470 N   0  0  0  0  0  0  0  0  0  0  0  0
   49.4980   32.6930   38.3230 C   0  0  0  0  0  0  0  0  0  0  0  0
   50.7970   30.4110   40.8990 C   0  0  0  0  0  0  0  0  0  0  0  0
   52.0370   30.5500   40.9390 O   0  0  0  0  0  0  0  0  0  0  0  0
   50.2950   29.3150   41.5860 O   0  0  0  0  0  0  0  0  0  0  0  0
   46.7310   34.8310   41.8280 C   0  0  1  0  0  0  0  0  0  0  0  0
   46.0820   34.8380   43.1550 C   0  0  0  0  0  0  0  0  0  0  0  0
   45.2000   35.9380   43.3100 C   0  0  0  0  0  0  0  0  0  0  0  0
   44.5240   36.0360   44.5430 C   0  0  0  0  0  0  0  0  0  0  0  0
   44.7410   35.0960   45.5080 N   0  0  0  0  0  0  0  0  0  0  0  0
   45.5920   34.0720   45.3020 C   0  0  0  0  0  0  0  0  0  0  0  0
   46.2470   33.9730   44.1130 N   0  0  0  0  0  0  0  0  0  0  0  0
   48.2380   35.1550   41.9910 C   0  0  0  0  0  0  0  0  0  0  0  0
   50.3378   33.1477   36.4392 H   0  0  0  0  0  0  0  0  0  0  0  0
   48.2898   34.7146   36.1096 H   0  0  0  0  0  0  0  0  0  0  0  0
   50.9115   28.7060   42.0647 H   0  0  0  0  0  0  0  0  0  0  0  0
   46.2611   35.5992   41.1963 H   0  0  0  0  0  0  0  0  0  0  0  0
   45.0511   36.6769   42.5088 H   0  0  0  0  0  0  0  0  0  0  0  0
   43.8254   36.8657   44.7263 H   0  0  0  0  0  0  0  0  0  0  0  0
   45.7563   33.3213   46.0891 H   0  0  0  0  0  0  0  0  0  0  0  0
   48.4879   35.2087   43.0609 H   0  0  0  0  0  0  0  0  0  0  0  0
   48.8366   34.3650   41.5139 H   0  0  0  0  0  0  0  0  0  0  0  0
   48.4590   36.1212   41.5139 H   0  0  0  0  0  0  0  0  0  0  0  0
  1 14  1  0
  2 10  1  0
  3  2  1  0
  3  4  2  0
  4  5  1  0
  5  6  2  0
  6  7  1  0
  6  1  1  0
  8  7  2  0
  8 11  1  0
  9  8  1  0
 10  9  2  0
 10  5  1  0
 11 12  2  0
 11 13  1  0
 14 21  1  0
 14 15  1  0
 15 16  2  0
 15 20  1  0
 16 17  1  0
 17 18  2  0
 19 18  1  0
 20 19  2  0
  2 22  1  0
  3 23  1  0
 13 24  1  0
 14 25  1  6
 16 26  1  0
 17 27  1  0
 19 28  1  0
 21 29  1  0
 21 30  1  0
 21 31  1  0
M  ISO  8  22   9  23  14  24   3  25   8  26  14  27  14  28  14  29   8
M  ISO  2  30   8  31   8
M  END
>  <minimizedAffinity>  (1) 
-4.92159414

>  <minimizedRMSD>  (1) 
0.193110928

$$$$
