
     RDKit          3D

 30 32  0  0  1  0  0  0  0  0999 V2000
   46.7260   34.8320   41.8600 C   0  0  1  0  0  0  0  0  0  0  0  0
   46.0760   34.8370   43.1800 C   0  0  0  0  0  0  0  0  0  0  0  0
   45.1990   35.9190   43.3600 C   0  0  0  0  0  0  0  0  0  0  0  0
   44.5180   36.0420   44.5660 C   0  0  0  0  0  0  0  0  0  0  0  0
   44.7320   35.1010   45.5280 N   0  0  0  0  0  0  0  0  0  0  0  0
   45.5780   34.0790   45.3230 C   0  0  0  0  0  0  0  0  0  0  0  0
   46.2400   33.9700   44.1380 N   0  0  0  0  0  0  0  0  0  0  0  0
   48.2440   35.1170   42.0310 C   0  0  0  0  0  0  0  0  0  0  0  0
   46.4740   33.2750   41.0220 S   0  0  0  0  0  0  0  0  0  0  0  0
   49.5970   33.3120   37.1800 N   0  0  0  0  0  0  0  0  0  0  0  0
   48.5700   34.1560   37.0550 C   0  0  0  0  0  0  0  0  0  0  0  0
   47.7970   34.0580   38.1500 N   0  0  0  0  0  0  0  0  0  0  0  0
   48.3330   33.1430   38.9830 C   0  0  0  0  0  0  0  0  0  0  0  0
   47.9560   32.6620   40.2220 C   0  0  0  0  0  0  0  0  0  0  0  0
   48.7730   31.7310   40.7390 N   0  0  0  0  0  0  0  0  0  0  0  0
   49.8670   31.2690   40.1620 C   0  0  0  0  0  0  0  0  0  0  0  0
   50.2460   31.7270   38.9600 N   0  0  0  0  0  0  0  0  0  0  0  0
   49.4790   32.6730   38.3580 C   0  0  0  0  0  0  0  0  0  0  0  0
   50.6390   30.2560   40.8690 C   0  0  0  0  0  0  0  0  0  0  0  0
   51.5900   30.6190   41.6060 O   0  0  0  0  0  0  0  0  0  0  0  0
   46.2726   35.6202   41.2409 H   0  0  0  0  0  0  0  0  0  0  0  0
   45.0530   36.6583   42.5587 H   0  0  0  0  0  0  0  0  0  0  0  0
   43.8241   36.8778   44.7391 H   0  0  0  0  0  0  0  0  0  0  0  0
   45.7365   33.3295   46.1124 H   0  0  0  0  0  0  0  0  0  0  0  0
   48.4900   35.1632   43.1021 H   0  0  0  0  0  0  0  0  0  0  0  0
   48.8240   34.3121   41.5560 H   0  0  0  0  0  0  0  0  0  0  0  0
   48.4925   36.0775   41.5560 H   0  0  0  0  0  0  0  0  0  0  0  0
   50.3509   33.1737   36.4920 H   0  0  0  0  0  0  0  0  0  0  0  0
   48.3870   34.8211   36.1981 H   0  0  0  0  0  0  0  0  0  0  0  0
   50.3933   29.1894   40.7594 H   0  0  0  0  0  0  0  0  0  0  0  0
  1  8  1  0
  1  2  1  0
  2  3  2  0
  2  7  1  0
  3  4  1  0
  4  5  2  0
  6  5  1  0
  7  6  2  0
  9  1  1  0
 10 18  1  0
 11 10  1  0
 11 12  2  0
 12 13  1  0
 13 14  2  0
 14 15  1  0
 14  9  1  0
 16 15  2  0
 16 19  1  0
 17 16  1  0
 18 17  2  0
 18 13  1  0
 19 20  2  0
  1 21  1  6
  3 22  1  0
  4 23  1  0
  6 24  1  0
  8 25  1  0
  8 26  1  0
  8 27  1  0
 10 28  1  0
 11 29  1  0
 19 30  1  0
M  ISO  8  21   8  22  14  23  14  24  14  25   8  26   8  27   8  28   9
M  ISO  2  29  14  30   6
M  END
>  <minimizedAffinity>  (1) 
-4.85831642

>  <minimizedRMSD>  (1) 
0.156976178

$$$$
