
     RDKit          3D

 41 44  0  0  1  0  0  0  0  0999 V2000
   49.5920   33.3000   37.2030 N   0  0  0  0  0  0  0  0  0  0  0  0
   48.5800   34.1610   37.0640 C   0  0  0  0  0  0  0  0  0  0  0  0
   47.8050   34.0610   38.1580 N   0  0  0  0  0  0  0  0  0  0  0  0
   48.3160   33.1440   38.9950 C   0  0  0  0  0  0  0  0  0  0  0  0
   47.9330   32.6540   40.2330 C   0  0  0  0  0  0  0  0  0  0  0  0
   48.7300   31.7200   40.7500 N   0  0  0  0  0  0  0  0  0  0  0  0
   49.8310   31.2360   40.1850 C   0  0  0  0  0  0  0  0  0  0  0  0
   50.2130   31.7050   38.9790 N   0  0  0  0  0  0  0  0  0  0  0  0
   49.4610   32.6680   38.3630 C   0  0  0  0  0  0  0  0  0  0  0  0
   50.6390   30.1930   40.8600 C   0  0  0  0  0  0  0  0  0  0  0  0
   50.7540   30.4980   42.3540 C   0  0  0  0  0  0  0  0  0  0  0  0
   52.0320   30.0410   42.8340 N   0  0  0  0  0  0  0  0  0  0  0  0
   52.3930   29.9650   44.1430 C   0  0  0  0  0  0  0  0  0  0  0  0
   53.6860   29.4850   44.2300 C   0  0  0  0  0  0  0  0  0  0  0  0
   54.1190   29.2660   42.9850 N   0  0  0  0  0  0  0  0  0  0  0  0
   53.1150   29.6040   42.1420 C   0  0  0  0  0  0  0  0  0  0  0  0
   46.4540   33.2890   41.0160 S   0  0  0  0  0  0  0  0  0  0  0  0
   46.7130   34.8360   41.8580 C   0  0  1  0  0  0  0  0  0  0  0  0
   46.0590   34.8430   43.1930 C   0  0  0  0  0  0  0  0  0  0  0  0
   45.1790   35.9470   43.3490 C   0  0  0  0  0  0  0  0  0  0  0  0
   44.5130   36.0460   44.5700 C   0  0  0  0  0  0  0  0  0  0  0  0
   44.7330   35.0960   45.5380 N   0  0  0  0  0  0  0  0  0  0  0  0
   45.5800   34.0720   45.3290 C   0  0  0  0  0  0  0  0  0  0  0  0
   46.2340   33.9760   44.1290 N   0  0  0  0  0  0  0  0  0  0  0  0
   48.2370   35.1060   42.0390 C   0  0  0  0  0  0  0  0  0  0  0  0
   50.3499   33.1509   36.5216 H   0  0  0  0  0  0  0  0  0  0  0  0
   48.4112   34.8313   36.2083 H   0  0  0  0  0  0  0  0  0  0  0  0
   50.1548   29.2145   40.7252 H   0  0  0  0  0  0  0  0  0  0  0  0
   51.6463   30.1778   40.4184 H   0  0  0  0  0  0  0  0  0  0  0  0
   50.6667   31.5825   42.5158 H   0  0  0  0  0  0  0  0  0  0  0  0
   49.9491   29.9831   42.8991 H   0  0  0  0  0  0  0  0  0  0  0  0
   51.7569   30.2416   44.9968 H   0  0  0  0  0  0  0  0  0  0  0  0
   54.2552   29.3143   45.1557 H   0  0  0  0  0  0  0  0  0  0  0  0
   53.1694   29.5340   41.0456 H   0  0  0  0  0  0  0  0  0  0  0  0
   46.2639   35.6265   41.2388 H   0  0  0  0  0  0  0  0  0  0  0  0
   45.0305   36.6859   42.5477 H   0  0  0  0  0  0  0  0  0  0  0  0
   43.8175   36.8775   44.7567 H   0  0  0  0  0  0  0  0  0  0  0  0
   45.7458   33.3193   46.1138 H   0  0  0  0  0  0  0  0  0  0  0  0
   48.4770   35.1485   43.1117 H   0  0  0  0  0  0  0  0  0  0  0  0
   48.8116   34.2957   41.5666 H   0  0  0  0  0  0  0  0  0  0  0  0
   48.4982   36.0644   41.5666 H   0  0  0  0  0  0  0  0  0  0  0  0
  1  9  1  0
  2  1  1  0
  2  3  2  0
  3  4  1  0
  4  5  2  0
  5  6  1  0
  5 17  1  0
  7  6  2  0
  7 10  1  0
  8  7  1  0
  9  8  2  0
  9  4  1  0
 10 11  1  0
 11 12  1  0
 12 13  1  0
 13 14  2  0
 15 14  1  0
 16 12  1  0
 16 15  2  0
 17 18  1  0
 18 25  1  0
 18 19  1  0
 19 20  2  0
 19 24  1  0
 20 21  1  0
 21 22  2  0
 23 22  1  0
 24 23  2  0
  1 26  1  0
  2 27  1  0
 10 28  1  0
 10 29  1  0
 11 30  1  0
 11 31  1  0
 13 32  1  0
 14 33  1  0
 16 34  1  0
 18 35  1  6
 20 36  1  0
 21 37  1  0
 23 38  1  0
 25 39  1  0
 25 40  1  0
 25 41  1  0
M  ISO  8  26   9  27  14  28   8  29   8  30   8  31   8  32  14  33  14
M  ISO  8  34  14  35   8  36  14  37  14  38  14  39   8  40   8  41   8
M  END
>  <minimizedAffinity>  (1) 
-4.90605736

>  <minimizedRMSD>  (1) 
0.496928692

$$$$
