
     RDKit          3D

 41 44  0  0  1  0  0  0  0  0999 V2000
   49.6320   33.2330   37.2440 N   0  0  0  0  0  0  0  0  0  0  0  0
   48.6150   34.0790   37.0590 C   0  0  0  0  0  0  0  0  0  0  0  0
   47.8190   34.0180   38.1460 N   0  0  0  0  0  0  0  0  0  0  0  0
   48.3290   33.1330   39.0230 C   0  0  0  0  0  0  0  0  0  0  0  0
   47.9280   32.6940   40.2670 C   0  0  0  0  0  0  0  0  0  0  0  0
   48.7300   31.7780   40.8370 N   0  0  0  0  0  0  0  0  0  0  0  0
   49.8450   31.2850   40.3000 C   0  0  0  0  0  0  0  0  0  0  0  0
   50.2300   31.7170   39.0880 N   0  0  0  0  0  0  0  0  0  0  0  0
   49.4830   32.6440   38.4320 C   0  0  0  0  0  0  0  0  0  0  0  0
   50.6390   30.2780   41.0370 C   0  0  0  0  0  0  0  0  0  0  0  0
   50.7030   30.6270   42.5320 C   0  0  0  0  0  0  0  0  0  0  0  0
   52.0000   30.1040   42.9860 N   0  0  0  0  0  0  0  0  0  0  0  0
   52.9490   29.6790   42.1450 N   0  0  0  0  0  0  0  0  0  0  0  0
   54.0200   29.2610   42.8720 C   0  0  0  0  0  0  0  0  0  0  0  0
   53.7030   29.4410   44.2230 C   0  0  0  0  0  0  0  0  0  0  0  0
   52.4120   29.9790   44.2680 C   0  0  0  0  0  0  0  0  0  0  0  0
   46.4390   33.3310   41.0220 S   0  0  0  0  0  0  0  0  0  0  0  0
   46.7030   34.8570   41.8970 C   0  0  1  0  0  0  0  0  0  0  0  0
   46.0680   34.8260   43.2380 C   0  0  0  0  0  0  0  0  0  0  0  0
   45.1670   35.8840   43.4420 C   0  0  0  0  0  0  0  0  0  0  0  0
   44.5200   35.9220   44.6950 C   0  0  0  0  0  0  0  0  0  0  0  0
   44.7960   34.9450   45.6380 N   0  0  0  0  0  0  0  0  0  0  0  0
   45.6650   33.9720   45.3700 C   0  0  0  0  0  0  0  0  0  0  0  0
   46.2910   33.9420   44.1470 N   0  0  0  0  0  0  0  0  0  0  0  0
   48.2270   35.1580   42.0510 C   0  0  0  0  0  0  0  0  0  0  0  0
   50.4019   33.0637   36.5810 H   0  0  0  0  0  0  0  0  0  0  0  0
   48.4548   34.7140   36.1752 H   0  0  0  0  0  0  0  0  0  0  0  0
   50.1710   29.2899   40.9163 H   0  0  0  0  0  0  0  0  0  0  0  0
   51.6615   30.2672   40.6316 H   0  0  0  0  0  0  0  0  0  0  0  0
   50.6521   31.7161   42.6779 H   0  0  0  0  0  0  0  0  0  0  0  0
   49.8620   30.1958   43.0948 H   0  0  0  0  0  0  0  0  0  0  0  0
   54.9613   28.8563   42.4718 H   0  0  0  0  0  0  0  0  0  0  0  0
   54.3453   29.2049   45.0842 H   0  0  0  0  0  0  0  0  0  0  0  0
   51.8431   30.2478   45.1703 H   0  0  0  0  0  0  0  0  0  0  0  0
   46.2369   35.6564   41.3023 H   0  0  0  0  0  0  0  0  0  0  0  0
   44.9764   36.6413   42.6673 H   0  0  0  0  0  0  0  0  0  0  0  0
   43.8006   36.7226   44.9221 H   0  0  0  0  0  0  0  0  0  0  0  0
   45.8800   33.1983   46.1218 H   0  0  0  0  0  0  0  0  0  0  0  0
   48.4846   35.2089   43.1192 H   0  0  0  0  0  0  0  0  0  0  0  0
   48.8092   34.3575   41.5712 H   0  0  0  0  0  0  0  0  0  0  0  0
   48.4611   36.1197   41.5712 H   0  0  0  0  0  0  0  0  0  0  0  0
  1  9  1  0
  2  1  1  0
  2  3  2  0
  3  4  1  0
  4  5  1  0
  5  6  2  0
  5 17  1  0
  7  6  1  0
  7 10  1  0
  8  7  2  0
  9  4  2  0
  9  8  1  0
 10 11  1  0
 11 12  1  0
 12 16  1  0
 13 14  2  0
 13 12  1  0
 14 15  1  0
 15 16  2  0
 17 18  1  0
 18 25  1  0
 18 19  1  0
 19 20  2  0
 19 24  1  0
 20 21  1  0
 21 22  2  0
 23 22  1  0
 24 23  2  0
  1 26  1  0
  2 27  1  0
 10 28  1  0
 10 29  1  0
 11 30  1  0
 11 31  1  0
 14 32  1  0
 15 33  1  0
 16 34  1  0
 18 35  1  6
 20 36  1  0
 21 37  1  0
 23 38  1  0
 25 39  1  0
 25 40  1  0
 25 41  1  0
M  ISO  8  26   9  27  14  28   8  29   8  30   8  31   8  32  14  33  14
M  ISO  8  34  14  35   8  36  14  37  14  38  14  39   8  40   8  41   8
M  END
>  <minimizedAffinity>  (1) 
-4.9361167

>  <minimizedRMSD>  (1) 
0.472589672

$$$$
