
     RDKit          3D

 41 44  0  0  1  0  0  0  0  0999 V2000
   49.5890   33.3050   37.2000 N   0  0  0  0  0  0  0  0  0  0  0  0
   48.5740   34.1700   37.0670 C   0  0  0  0  0  0  0  0  0  0  0  0
   47.8000   34.0660   38.1590 N   0  0  0  0  0  0  0  0  0  0  0  0
   48.3100   33.1400   38.9950 C   0  0  0  0  0  0  0  0  0  0  0  0
   47.9220   32.6460   40.2340 C   0  0  0  0  0  0  0  0  0  0  0  0
   48.7240   31.7060   40.7390 N   0  0  0  0  0  0  0  0  0  0  0  0
   49.8240   31.2280   40.1670 C   0  0  0  0  0  0  0  0  0  0  0  0
   50.2000   31.7030   38.9720 N   0  0  0  0  0  0  0  0  0  0  0  0
   49.4520   32.6720   38.3560 C   0  0  0  0  0  0  0  0  0  0  0  0
   50.6190   30.1760   40.8570 C   0  0  0  0  0  0  0  0  0  0  0  0
   50.7790   30.5010   42.3340 C   0  0  0  0  0  0  0  0  0  0  0  0
   52.0710   30.0300   42.8670 C   0  0  0  0  0  0  0  0  0  0  0  0
   52.3640   29.9700   44.2280 C   0  0  0  0  0  0  0  0  0  0  0  0
   53.6630   29.4840   44.3910 C   0  0  0  0  0  0  0  0  0  0  0  0
   54.0940   29.2720   43.0840 C   0  0  0  0  0  0  0  0  0  0  0  0
   53.1500   29.5990   42.2600 O   0  0  0  0  0  0  0  0  0  0  0  0
   46.4430   33.2790   41.0190 S   0  0  0  0  0  0  0  0  0  0  0  0
   46.7180   34.8230   41.8590 C   0  0  1  0  0  0  0  0  0  0  0  0
   46.0540   34.8520   43.1850 C   0  0  0  0  0  0  0  0  0  0  0  0
   45.1850   35.9550   43.3280 C   0  0  0  0  0  0  0  0  0  0  0  0
   44.5130   36.0500   44.5660 C   0  0  0  0  0  0  0  0  0  0  0  0
   44.7280   35.0960   45.5450 N   0  0  0  0  0  0  0  0  0  0  0  0
   45.5720   34.0790   45.3240 C   0  0  0  0  0  0  0  0  0  0  0  0
   46.2210   33.9870   44.1260 N   0  0  0  0  0  0  0  0  0  0  0  0
   48.2440   35.0970   42.0360 C   0  0  0  0  0  0  0  0  0  0  0  0
   50.3473   33.1572   36.5188 H   0  0  0  0  0  0  0  0  0  0  0  0
   48.4052   34.8449   36.2149 H   0  0  0  0  0  0  0  0  0  0  0  0
   50.1041   29.2094   40.7542 H   0  0  0  0  0  0  0  0  0  0  0  0
   51.6168   30.1294   40.3963 H   0  0  0  0  0  0  0  0  0  0  0  0
   50.7165   31.5912   42.4665 H   0  0  0  0  0  0  0  0  0  0  0  0
   49.9770   29.9865   42.8837 H   0  0  0  0  0  0  0  0  0  0  0  0
   51.6826   30.2586   45.0419 H   0  0  0  0  0  0  0  0  0  0  0  0
   54.2136   29.3103   45.3273 H   0  0  0  0  0  0  0  0  0  0  0  0
   55.0832   28.8865   42.7960 H   0  0  0  0  0  0  0  0  0  0  0  0
   46.2775   35.6118   41.2314 H   0  0  0  0  0  0  0  0  0  0  0  0
   45.0405   36.6937   42.5258 H   0  0  0  0  0  0  0  0  0  0  0  0
   43.8185   36.8824   44.7523 H   0  0  0  0  0  0  0  0  0  0  0  0
   45.7413   33.3219   46.1038 H   0  0  0  0  0  0  0  0  0  0  0  0
   48.4868   35.1406   43.1080 H   0  0  0  0  0  0  0  0  0  0  0  0
   48.8192   34.2878   41.5624 H   0  0  0  0  0  0  0  0  0  0  0  0
   48.5017   36.0558   41.5624 H   0  0  0  0  0  0  0  0  0  0  0  0
  1  9  1  0
  2  1  1  0
  2  3  2  0
  3  4  1  0
  4  5  2  0
  5  6  1  0
  5 17  1  0
  7  6  2  0
  7 10  1  0
  8  7  1  0
  9  8  2  0
  9  4  1  0
 10 11  1  0
 11 12  1  0
 12 13  2  0
 13 14  1  0
 15 14  2  0
 16 12  1  0
 16 15  1  0
 17 18  1  0
 18 25  1  0
 18 19  1  0
 19 20  2  0
 19 24  1  0
 20 21  1  0
 21 22  2  0
 23 22  1  0
 24 23  2  0
  1 26  1  0
  2 27  1  0
 10 28  1  0
 10 29  1  0
 11 30  1  0
 11 31  1  0
 13 32  1  0
 14 33  1  0
 15 34  1  0
 18 35  1  6
 20 36  1  0
 21 37  1  0
 23 38  1  0
 25 39  1  0
 25 40  1  0
 25 41  1  0
M  ISO  8  26   9  27  14  28   8  29   8  30   8  31   8  32  14  33  14
M  ISO  8  34  14  35   8  36  14  37  14  38  14  39   8  40   8  41   8
M  END
>  <minimizedAffinity>  (1) 
-4.97875261

>  <minimizedRMSD>  (1) 
0.488344669

$$$$
