
     RDKit          3D

 45 49  0  0  1  0  0  0  0  0999 V2000
   48.0700   32.5150   39.3530 C   0  0  2  0  0  0  0  0  0  0  0  0
   49.4130   31.7580   39.4090 C   0  0  0  0  0  0  0  0  0  0  0  0
   49.1120   32.7290   38.2860 C   0  0  1  0  0  0  0  0  0  0  0  0
   47.0830   34.5440   42.1880 N   0  0  0  0  0  0  0  0  0  0  0  0
   48.0180   35.3590   41.6260 C   0  0  0  0  0  0  0  0  0  0  0  0
   48.5210   34.7840   40.5340 N   0  0  0  0  0  0  0  0  0  0  0  0
   47.8830   33.5690   40.4040 C   0  0  0  0  0  0  0  0  0  0  0  0
   47.0470   33.4980   41.4180 N   0  0  0  0  0  0  0  0  0  0  0  0
   45.4150   35.8440   43.3510 C   0  0  0  0  0  0  0  0  0  0  0  0
   46.2770   34.6990   43.3440 C   0  0  0  0  0  0  0  0  0  0  0  0
   46.2480   33.8780   44.4250 C   0  0  0  0  0  0  0  0  0  0  0  0
   45.4030   34.1970   45.4420 N   0  0  0  0  0  0  0  0  0  0  0  0
   44.6040   35.2750   45.4260 C   0  0  0  0  0  0  0  0  0  0  0  0
   44.6180   36.1000   44.3660 N   0  0  0  0  0  0  0  0  0  0  0  0
   48.7900   32.2800   36.9450 C   0  0  0  0  0  0  0  0  0  0  0  0
   49.3840   31.2380   36.5170 O   0  0  0  0  0  0  0  0  0  0  0  0
   47.8770   32.9360   36.1530 O   0  0  0  0  0  0  0  0  0  0  0  0
   44.4290   32.6420   36.6010 N   0  0  0  0  0  0  0  0  0  0  0  0
   45.6010   33.2960   36.7300 N   0  0  0  0  0  0  0  0  0  0  0  0
   46.5640   32.5250   36.1710 C   0  0  0  0  0  0  0  0  0  0  0  0
   46.0100   31.3760   35.6820 C   0  0  0  0  0  0  0  0  0  0  0  0
   44.6490   31.4800   35.9710 C   0  0  0  0  0  0  0  0  0  0  0  0
   43.7080   30.4550   35.6130 N   0  0  0  0  0  0  0  0  0  0  0  0
   43.1340   30.1670   34.3160 C   0  0  0  0  0  0  0  0  0  0  0  0
   41.7880   29.5710   34.5390 C   0  0  0  0  0  0  0  0  0  0  0  0
   41.7690   29.1430   35.9740 C   0  0  0  0  0  0  0  0  0  0  0  0
   43.1470   29.4840   36.5490 C   0  0  0  0  0  0  0  0  0  0  0  0
   47.0021   32.2521   39.3317 H   0  0  0  0  0  0  0  0  0  0  0  0
   50.1598   32.0134   40.1751 H   0  0  0  0  0  0  0  0  0  0  0  0
   49.7151   30.7022   39.4718 H   0  0  0  0  0  0  0  0  0  0  0  0
   49.6708   33.5830   37.8757 H   0  0  0  0  0  0  0  0  0  0  0  0
   48.3138   36.3444   42.0151 H   0  0  0  0  0  0  0  0  0  0  0  0
   45.4199   36.5250   42.4872 H   0  0  0  0  0  0  0  0  0  0  0  0
   46.8870   32.9841   44.4766 H   0  0  0  0  0  0  0  0  0  0  0  0
   43.9398   35.4824   46.2780 H   0  0  0  0  0  0  0  0  0  0  0  0
   43.5143   32.9802   36.9325 H   0  0  0  0  0  0  0  0  0  0  0  0
   46.5249   30.5488   35.1715 H   0  0  0  0  0  0  0  0  0  0  0  0
   43.7735   29.4556   33.7729 H   0  0  0  0  0  0  0  0  0  0  0  0
   43.0539   31.0864   33.7174 H   0  0  0  0  0  0  0  0  0  0  0  0
   41.0019   30.3170   34.3505 H   0  0  0  0  0  0  0  0  0  0  0  0
   41.5997   28.7262   33.8601 H   0  0  0  0  0  0  0  0  0  0  0  0
   40.9841   29.6852   36.5217 H   0  0  0  0  0  0  0  0  0  0  0  0
   41.5554   28.0678   36.0651 H   0  0  0  0  0  0  0  0  0  0  0  0
   43.7790   28.5852   36.6012 H   0  0  0  0  0  0  0  0  0  0  0  0
   43.0847   29.8804   37.5732 H   0  0  0  0  0  0  0  0  0  0  0  0
  1  2  1  0
  1  7  1  0
  3  1  1  0
  3  2  1  0
  4 10  1  0
  5  4  1  0
  6  5  2  0
  7  6  1  0
  7  8  2  0
  8  4  1  0
  9 14  2  0
 10  9  1  0
 10 11  2  0
 11 12  1  0
 13 12  2  0
 14 13  1  0
 15  3  1  0
 16 15  2  0
 17 20  1  0
 17 15  1  0
 18 19  1  0
 20 19  2  0
 21 22  2  0
 21 20  1  0
 22 18  1  0
 23 22  1  0
 23 27  1  0
 24 25  1  0
 24 23  1  0
 25 26  1  0
 26 27  1  0
  1 28  1  6
  2 29  1  0
  2 30  1  0
  3 31  1  6
  5 32  1  0
  9 33  1  0
 11 34  1  0
 13 35  1  0
 18 36  1  0
 21 37  1  0
 24 38  1  0
 24 39  1  0
 25 40  1  0
 25 41  1  0
 26 42  1  0
 26 43  1  0
 27 44  1  0
 27 45  1  0
M  ISO  8  28  13  29  13  30  13  31  13  32  14  33  14  34  14  35  14
M  ISO  8  36   9  37  14  38  13  39  13  40  13  41  13  42  13  43  13
M  ISO  2  44  13  45  13
M  END
>  <minimizedAffinity>  (1) 
-4.98677158

>  <minimizedRMSD>  (1) 
6.61384487

$$$$
