
     RDKit          3D

 34 36  0  0  0  0  0  0  0  0999 V2000
   46.8000   34.8030   42.1220 C   0  0  0  0  0  0  0  0  0  0  0  0
   48.0150   35.4310   42.0430 C   0  0  0  0  0  0  0  0  0  0  0  0
   48.7850   35.3670   40.8780 C   0  0  0  0  0  0  0  0  0  0  0  0
   48.3320   34.6610   39.7670 C   0  0  0  0  0  0  0  0  0  0  0  0
   47.1070   34.0320   39.8560 C   0  0  0  0  0  0  0  0  0  0  0  0
   46.3570   34.1010   41.0080 C   0  0  0  0  0  0  0  0  0  0  0  0
   44.4630   35.9200   44.8390 C   0  0  0  0  0  0  0  0  0  0  0  0
   45.1310   35.9300   43.6080 C   0  0  0  0  0  0  0  0  0  0  0  0
   46.0460   34.9040   43.3590 C   0  0  0  0  0  0  0  0  0  0  0  0
   46.2470   33.9580   44.3010 N   0  0  0  0  0  0  0  0  0  0  0  0
   45.5810   33.9770   45.4880 C   0  0  0  0  0  0  0  0  0  0  0  0
   44.7010   34.9520   45.7450 N   0  0  0  0  0  0  0  0  0  0  0  0
   46.6830   33.3230   38.7000 N   0  0  0  0  0  0  0  0  0  0  0  0
   47.4610   33.4220   37.4810 C   0  0  0  0  0  0  0  0  0  0  0  0
   46.6520   32.7830   36.3730 C   0  0  0  0  0  0  0  0  0  0  0  0
   45.3020   33.2730   36.2920 N   0  0  0  0  0  0  0  0  0  0  0  0
   44.5950   33.1550   37.5510 C   0  0  0  0  0  0  0  0  0  0  0  0
   45.5180   32.4700   38.5660 C   0  0  0  0  0  0  0  0  0  0  0  0
   48.3906   35.9944   42.9099 H   0  0  0  0  0  0  0  0  0  0  0  0
   49.7577   35.8792   40.8388 H   0  0  0  0  0  0  0  0  0  0  0  0
   48.9320   34.6062   38.8467 H   0  0  0  0  0  0  0  0  0  0  0  0
   45.3845   33.5885   41.0475 H   0  0  0  0  0  0  0  0  0  0  0  0
   43.7352   36.7122   45.0687 H   0  0  0  0  0  0  0  0  0  0  0  0
   44.9419   36.7176   42.8637 H   0  0  0  0  0  0  0  0  0  0  0  0
   45.7660   33.1915   46.2355 H   0  0  0  0  0  0  0  0  0  0  0  0
   47.6546   34.4785   37.2436 H   0  0  0  0  0  0  0  0  0  0  0  0
   48.4296   32.9136   37.5967 H   0  0  0  0  0  0  0  0  0  0  0  0
   47.1536   32.9846   35.4150 H   0  0  0  0  0  0  0  0  0  0  0  0
   46.5928   31.7072   36.5948 H   0  0  0  0  0  0  0  0  0  0  0  0
   45.3263   34.2656   36.0181 H   0  0  0  0  0  0  0  0  0  0  0  0
   44.3190   34.1551   37.9166 H   0  0  0  0  0  0  0  0  0  0  0  0
   43.6791   32.5613   37.4143 H   0  0  0  0  0  0  0  0  0  0  0  0
   45.0081   32.3673   39.5352 H   0  0  0  0  0  0  0  0  0  0  0  0
   45.7990   31.4604   38.2318 H   0  0  0  0  0  0  0  0  0  0  0  0
  1  9  1  0
  2  1  2  0
  3  2  1  0
  4  5  1  0
  4  3  2  0
  5  6  2  0
  6  1  1  0
  7 12  2  0
  8  7  1  0
  9  8  2  0
  9 10  1  0
 10 11  2  0
 11 12  1  0
 13  5  1  0
 14 13  1  0
 15 14  1  0
 16 15  1  0
 16 17  1  0
 17 18  1  0
 18 13  1  0
  2 19  1  0
  3 20  1  0
  4 21  1  0
  6 22  1  0
  7 23  1  0
  8 24  1  0
 11 25  1  0
 14 26  1  0
 14 27  1  0
 15 28  1  0
 15 29  1  0
 16 30  1  0
 17 31  1  0
 17 32  1  0
 18 33  1  0
 18 34  1  0
M  ISO  8  19  14  20  14  21  14  22  14  23  14  24  14  25  14  26  13
M  ISO  8  27  13  28  13  29  13  30   5  31  13  32  13  33  13  34  13
M  END
>  <minimizedAffinity>  (1) 
-6.00740623

>  <minimizedRMSD>  (1) 
1.03936672

$$$$
