
     RDKit          3D

 33 35  0  0  0  0  0  0  0  0999 V2000
   46.6940   34.7310   42.0300 C   0  0  0  0  0  0  0  0  0  0  0  0
   47.9200   35.3350   41.9140 C   0  0  0  0  0  0  0  0  0  0  0  0
   48.6560   35.2240   40.7330 C   0  0  0  0  0  0  0  0  0  0  0  0
   48.1530   34.4970   39.6610 C   0  0  0  0  0  0  0  0  0  0  0  0
   46.9150   33.8880   39.7830 C   0  0  0  0  0  0  0  0  0  0  0  0
   46.1840   34.0040   40.9690 C   0  0  0  0  0  0  0  0  0  0  0  0
   44.4700   35.9850   44.8030 C   0  0  0  0  0  0  0  0  0  0  0  0
   45.1010   35.9420   43.5560 C   0  0  0  0  0  0  0  0  0  0  0  0
   45.9750   34.8870   43.2940 C   0  0  0  0  0  0  0  0  0  0  0  0
   46.1690   33.9610   44.2520 N   0  0  0  0  0  0  0  0  0  0  0  0
   45.5480   34.0120   45.4650 C   0  0  0  0  0  0  0  0  0  0  0  0
   44.7080   35.0190   45.7290 N   0  0  0  0  0  0  0  0  0  0  0  0
   45.3040   31.6800   36.5420 C   0  0  0  0  0  0  0  0  0  0  0  0
   46.2880   32.6190   36.2950 C   0  0  0  0  0  0  0  0  0  0  0  0
   46.7750   33.3070   37.3920 C   0  0  0  0  0  0  0  0  0  0  0  0
   46.3430   33.1130   38.6860 C   0  0  0  0  0  0  0  0  0  0  0  0
   45.3620   32.1770   38.9330 C   0  0  0  0  0  0  0  0  0  0  0  0
   44.8770   31.4900   37.8390 C   0  0  0  0  0  0  0  0  0  0  0  0
   44.5980   30.7380   35.2550 S   0  0  0  0  0  0  0  0  0  0  0  0
   44.9200   31.4110   33.9380 O   0  0  0  0  0  0  0  0  0  0  0  0
   43.0900   30.7920   35.4330 O   0  0  0  0  0  0  0  0  0  0  0  0
   48.3264   35.9114   42.7582 H   0  0  0  0  0  0  0  0  0  0  0  0
   49.6375   35.7137   40.6508 H   0  0  0  0  0  0  0  0  0  0  0  0
   48.7298   34.4064   38.7287 H   0  0  0  0  0  0  0  0  0  0  0  0
   45.2020   33.5166   41.0588 H   0  0  0  0  0  0  0  0  0  0  0  0
   43.7763   36.8062   45.0362 H   0  0  0  0  0  0  0  0  0  0  0  0
   44.9131   36.7199   42.8013 H   0  0  0  0  0  0  0  0  0  0  0  0
   45.7359   33.2331   46.2186 H   0  0  0  0  0  0  0  0  0  0  0  0
   46.6642   32.8093   35.2790 H   0  0  0  0  0  0  0  0  0  0  0  0
   47.5592   34.0589   37.2198 H   0  0  0  0  0  0  0  0  0  0  0  0
   44.9854   31.9875   39.9490 H   0  0  0  0  0  0  0  0  0  0  0  0
   44.0942   30.7374   38.0142 H   0  0  0  0  0  0  0  0  0  0  0  0
   45.0706   29.4522   35.2740 H   0  0  0  0  0  0  0  0  0  0  0  0
  1  9  1  0
  2  1  2  0
  3  2  1  0
  4  5  1  0
  4  3  2  0
  5  6  2  0
  6  1  1  0
  7 12  2  0
  8  7  1  0
  9  8  2  0
  9 10  1  0
 10 11  2  0
 11 12  1  0
 13 18  2  0
 14 13  1  0
 14 15  2  0
 15 16  1  0
 16 17  2  0
 16  5  1  0
 18 17  1  0
 19 21  2  0
 19 13  1  0
 20 19  2  0
  2 22  1  0
  3 23  1  0
  4 24  1  0
  6 25  1  0
  7 26  1  0
  8 27  1  0
 11 28  1  0
 14 29  1  0
 15 30  1  0
 17 31  1  0
 18 32  1  0
 19 33  1  0
M  ISO  8  22  14  23  14  24  14  25  14  26  14  27  14  28  14  29  14
M  ISO  4  30  14  31  14  32  14  33  11
M  END
>  <minimizedAffinity>  (1) 
-5.90705729

>  <minimizedRMSD>  (1) 
0.27262044

$$$$
