
     RDKit          3D

 27 29  0  0  0  0  0  0  0  0999 V2000
   46.7840   34.7750   42.0290 C   0  0  0  0  0  0  0  0  0  0  0  0
   47.9990   35.4010   41.9420 C   0  0  0  0  0  0  0  0  0  0  0  0
   48.7710   35.3300   40.7780 C   0  0  0  0  0  0  0  0  0  0  0  0
   48.2860   34.6060   39.6870 C   0  0  0  0  0  0  0  0  0  0  0  0
   47.0640   33.9800   39.7820 C   0  0  0  0  0  0  0  0  0  0  0  0
   46.3150   34.0580   40.9350 C   0  0  0  0  0  0  0  0  0  0  0  0
   44.4820   35.9430   44.7580 C   0  0  0  0  0  0  0  0  0  0  0  0
   45.1310   35.9420   43.5190 C   0  0  0  0  0  0  0  0  0  0  0  0
   46.0360   34.8960   43.2850 C   0  0  0  0  0  0  0  0  0  0  0  0
   46.2420   33.9530   44.2350 N   0  0  0  0  0  0  0  0  0  0  0  0
   45.5780   34.0070   45.4260 C   0  0  0  0  0  0  0  0  0  0  0  0
   44.7110   34.9910   45.6740 N   0  0  0  0  0  0  0  0  0  0  0  0
   46.5780   33.2400   38.6520 C   0  0  0  0  0  0  0  0  0  0  0  0
   46.8330   33.3920   37.3100 C   0  0  0  0  0  0  0  0  0  0  0  0
   46.2340   32.5420   36.4250 C   0  0  0  0  0  0  0  0  0  0  0  0
   45.3890   31.5600   36.9470 C   0  0  0  0  0  0  0  0  0  0  0  0
   45.4680   31.8870   38.8180 S   0  0  0  0  0  0  0  0  0  0  0  0
   48.3750   35.9708   42.8045 H   0  0  0  0  0  0  0  0  0  0  0  0
   49.7457   35.8369   40.7228 H   0  0  0  0  0  0  0  0  0  0  0  0
   48.8749   34.5366   38.7605 H   0  0  0  0  0  0  0  0  0  0  0  0
   45.3408   33.5503   40.9902 H   0  0  0  0  0  0  0  0  0  0  0  0
   43.7653   36.7455   44.9868 H   0  0  0  0  0  0  0  0  0  0  0  0
   44.9414   36.7216   42.7665 H   0  0  0  0  0  0  0  0  0  0  0  0
   45.7587   33.2338   46.1873 H   0  0  0  0  0  0  0  0  0  0  0  0
   47.5080   34.1847   36.9550 H   0  0  0  0  0  0  0  0  0  0  0  0
   46.4102   32.6274   35.3426 H   0  0  0  0  0  0  0  0  0  0  0  0
   44.8189   30.7884   36.4087 H   0  0  0  0  0  0  0  0  0  0  0  0
  1  9  1  0
  2  1  2  0
  3  2  1  0
  4  5  1  0
  4  3  2  0
  5  6  2  0
  6  1  1  0
  7 12  2  0
  8  7  1  0
  9  8  2  0
  9 10  1  0
 10 11  2  0
 11 12  1  0
 13 17  1  0
 13  5  1  0
 14 13  2  0
 15 16  2  0
 15 14  1  0
 16 17  1  0
  2 18  1  0
  3 19  1  0
  4 20  1  0
  6 21  1  0
  7 22  1  0
  8 23  1  0
 11 24  1  0
 14 25  1  0
 15 26  1  0
 16 27  1  0
M  ISO  8  18  14  19  14  20  14  21  14  22  14  23  14  24  14  25  14
M  ISO  2  26  14  27  14
M  END
>  <minimizedAffinity>  (1) 
-5.53097486

>  <minimizedRMSD>  (1) 
0.24249272

$$$$
