
     RDKit          3D

 39 43  0  0  1  0  0  0  0  0999 V2000
   47.2080   33.7690   39.9940 C   0  0  2  0  0  0  0  0  0  0  0  0
   47.9960   34.0360   38.6950 C   0  0  0  0  0  0  0  0  0  0  0  0
   48.1870   32.7470   39.4700 C   0  0  1  0  0  0  0  0  0  0  0  0
   43.5880   33.8720   39.9110 N   0  0  0  0  0  0  0  0  0  0  0  0
   43.8040   32.6660   39.3130 C   0  0  0  0  0  0  0  0  0  0  0  0
   45.1150   32.4280   39.2440 N   0  0  0  0  0  0  0  0  0  0  0  0
   45.7390   33.5150   39.8150 C   0  0  0  0  0  0  0  0  0  0  0  0
   44.7710   34.3250   40.1840 N   0  0  0  0  0  0  0  0  0  0  0  0
   41.3720   34.5150   39.2020 C   0  0  0  0  0  0  0  0  0  0  0  0
   42.3900   34.5720   40.2100 C   0  0  0  0  0  0  0  0  0  0  0  0
   42.1250   35.2790   41.3390 C   0  0  0  0  0  0  0  0  0  0  0  0
   40.9070   35.8840   41.4310 N   0  0  0  0  0  0  0  0  0  0  0  0
   39.9730   35.8130   40.4730 C   0  0  0  0  0  0  0  0  0  0  0  0
   40.2140   35.1250   39.3570 N   0  0  0  0  0  0  0  0  0  0  0  0
   49.3750   32.4980   40.2660 C   0  0  0  0  0  0  0  0  0  0  0  0
   50.2500   31.7090   39.7800 O   0  0  0  0  0  0  0  0  0  0  0  0
   49.5640   33.0920   41.4980 O   0  0  0  0  0  0  0  0  0  0  0  0
   47.9440   31.2180   43.9580 N   0  0  0  0  0  0  0  0  0  0  0  0
   48.7360   31.3470   42.8830 N   0  0  0  0  0  0  0  0  0  0  0  0
   48.8150   32.6510   42.5670 C   0  0  0  0  0  0  0  0  0  0  0  0
   48.0610   33.3660   43.4550 C   0  0  0  0  0  0  0  0  0  0  0  0
   47.5290   32.4170   44.3180 C   0  0  0  0  0  0  0  0  0  0  0  0
   46.6530   32.7070   45.4290 C   0  0  0  0  0  0  0  0  0  0  0  0
   46.5830   31.8240   46.6310 C   0  0  0  0  0  0  0  0  0  0  0  0
   45.3610   32.6430   47.7190 S   0  0  0  0  0  0  0  0  0  0  0  0
   45.0840   34.0460   46.4740 C   0  0  0  0  0  0  0  0  0  0  0  0
   45.8150   33.4800   45.9140 N   0  0  0  0  0  0  0  0  0  0  0  0
   47.0736   34.2685   40.9648 H   0  0  0  0  0  0  0  0  0  0  0  0
   48.7931   34.7938   38.6783 H   0  0  0  0  0  0  0  0  0  0  0  0
   47.7328   34.2949   37.6588 H   0  0  0  0  0  0  0  0  0  0  0  0
   48.1529   31.6892   39.1701 H   0  0  0  0  0  0  0  0  0  0  0  0
   43.0172   31.9918   38.9436 H   0  0  0  0  0  0  0  0  0  0  0  0
   41.5618   33.9491   38.2780 H   0  0  0  0  0  0  0  0  0  0  0  0
   42.8653   35.3603   42.1485 H   0  0  0  0  0  0  0  0  0  0  0  0
   39.0074   36.3224   40.6074 H   0  0  0  0  0  0  0  0  0  0  0  0
   47.7010   30.3320   44.4237 H   0  0  0  0  0  0  0  0  0  0  0  0
   47.9089   34.4551   43.4805 H   0  0  0  0  0  0  0  0  0  0  0  0
   47.1390   30.8937   46.8194 H   0  0  0  0  0  0  0  0  0  0  0  0
   44.4865   34.9641   46.3734 H   0  0  0  0  0  0  0  0  0  0  0  0
  2  3  1  0
  2  1  1  0
  3  1  1  0
  3 15  1  0
  4  8  1  0
  4 10  1  0
  5  4  1  0
  6  5  2  0
  6  7  1  0
  7  1  1  0
  7  8  2  0
  9 14  2  0
  9 10  1  0
 10 11  2  0
 11 12  1  0
 13 12  2  0
 14 13  1  0
 15 17  1  0
 16 15  2  0
 17 20  1  0
 18 22  1  0
 19 18  1  0
 20 19  2  0
 20 21  1  0
 21 22  2  0
 22 23  1  0
 23 27  1  0
 23 24  2  0
 24 25  1  0
 26 25  1  0
 27 26  2  0
  1 28  1  1
  2 29  1  0
  2 30  1  0
  3 31  1  6
  5 32  1  0
  9 33  1  0
 11 34  1  0
 13 35  1  0
 18 36  1  0
 21 37  1  0
 24 38  1  0
 26 39  1  0
M  ISO  8  28  13  29  13  30  13  31  13  32  14  33  14  34  14  35  14
M  ISO  4  36   9  37  14  38  14  39  14
M  END
>  <minimizedAffinity>  (1) 
-4.96212244

>  <minimizedRMSD>  (1) 
5.68160629

$$$$
