
     RDKit          3D

 27 29  0  0  0  0  0  0  0  0999 V2000
   46.6760   34.7300   41.9880 C   0  0  0  0  0  0  0  0  0  0  0  0
   47.9200   35.3070   41.8790 C   0  0  0  0  0  0  0  0  0  0  0  0
   48.6740   35.1980   40.7100 C   0  0  0  0  0  0  0  0  0  0  0  0
   48.1440   34.4810   39.6210 C   0  0  0  0  0  0  0  0  0  0  0  0
   46.8850   33.8970   39.7350 C   0  0  0  0  0  0  0  0  0  0  0  0
   46.1670   34.0270   40.9110 C   0  0  0  0  0  0  0  0  0  0  0  0
   44.4800   35.9870   44.7690 C   0  0  0  0  0  0  0  0  0  0  0  0
   45.0980   35.9530   43.5160 C   0  0  0  0  0  0  0  0  0  0  0  0
   45.9560   34.8970   43.2570 C   0  0  0  0  0  0  0  0  0  0  0  0
   46.1640   33.9480   44.2110 N   0  0  0  0  0  0  0  0  0  0  0  0
   45.5430   34.0170   45.4180 C   0  0  0  0  0  0  0  0  0  0  0  0
   44.7070   35.0330   45.6870 N   0  0  0  0  0  0  0  0  0  0  0  0
   46.3290   33.1660   38.6480 N   0  0  0  0  0  0  0  0  0  0  0  0
   45.3520   32.2710   38.5050 N   0  0  0  0  0  0  0  0  0  0  0  0
   45.2620   31.9070   37.2100 C   0  0  0  0  0  0  0  0  0  0  0  0
   46.2300   32.6090   36.5050 C   0  0  0  0  0  0  0  0  0  0  0  0
   46.8910   33.3980   37.4390 C   0  0  0  0  0  0  0  0  0  0  0  0
   48.3296   35.8669   42.7327 H   0  0  0  0  0  0  0  0  0  0  0  0
   49.6674   35.6653   40.6406 H   0  0  0  0  0  0  0  0  0  0  0  0
   48.7190   34.3828   38.6884 H   0  0  0  0  0  0  0  0  0  0  0  0
   45.1730   33.5626   40.9907 H   0  0  0  0  0  0  0  0  0  0  0  0
   43.7933   36.8123   45.0085 H   0  0  0  0  0  0  0  0  0  0  0  0
   44.9103   36.7344   42.7648 H   0  0  0  0  0  0  0  0  0  0  0  0
   45.7253   33.2401   46.1751 H   0  0  0  0  0  0  0  0  0  0  0  0
   44.5492   31.1834   36.7877 H   0  0  0  0  0  0  0  0  0  0  0  0
   46.4329   32.5523   35.4254 H   0  0  0  0  0  0  0  0  0  0  0  0
   47.7225   34.0879   37.2324 H   0  0  0  0  0  0  0  0  0  0  0  0
  1  9  1  0
  2  1  2  0
  3  2  1  0
  4  5  1  0
  4  3  2  0
  5  6  2  0
  6  1  1  0
  7 12  2  0
  8  7  1  0
  9  8  2  0
  9 10  1  0
 10 11  2  0
 11 12  1  0
 13  5  1  0
 14 13  1  0
 15 14  2  0
 16 15  1  0
 16 17  2  0
 17 13  1  0
  2 18  1  0
  3 19  1  0
  4 20  1  0
  6 21  1  0
  7 22  1  0
  8 23  1  0
 11 24  1  0
 15 25  1  0
 16 26  1  0
 17 27  1  0
M  ISO  8  18  14  19  14  20  14  21  14  22  14  23  14  24  14  25  14
M  ISO  2  26  14  27  14
M  END
>  <minimizedAffinity>  (1) 
-5.45207691

>  <minimizedRMSD>  (1) 
0.289296001

$$$$
