
     RDKit          3D

 22 23  0  0  0  0  0  0  0  0999 V2000
   46.6800   34.7180   42.0150 C   0  0  0  0  0  0  0  0  0  0  0  0
   47.8900   35.3480   41.8840 C   0  0  0  0  0  0  0  0  0  0  0  0
   48.6510   35.2430   40.7230 C   0  0  0  0  0  0  0  0  0  0  0  0
   48.1760   34.4790   39.6650 C   0  0  0  0  0  0  0  0  0  0  0  0
   46.9410   33.8330   39.7960 C   0  0  0  0  0  0  0  0  0  0  0  0
   46.2130   33.9640   40.9710 C   0  0  0  0  0  0  0  0  0  0  0  0
   44.4750   35.9890   44.7940 C   0  0  0  0  0  0  0  0  0  0  0  0
   45.1000   35.9440   43.5430 C   0  0  0  0  0  0  0  0  0  0  0  0
   45.9580   34.8940   43.2770 C   0  0  0  0  0  0  0  0  0  0  0  0
   46.1500   33.9620   44.2390 N   0  0  0  0  0  0  0  0  0  0  0  0
   45.5380   34.0190   45.4460 C   0  0  0  0  0  0  0  0  0  0  0  0
   44.7040   35.0300   45.7200 N   0  0  0  0  0  0  0  0  0  0  0  0
   46.3700   33.0300   38.7740 N   0  0  0  0  0  0  0  0  0  0  0  0
   48.2706   35.9536   42.7197 H   0  0  0  0  0  0  0  0  0  0  0  0
   49.6188   35.7600   40.6444 H   0  0  0  0  0  0  0  0  0  0  0  0
   48.7611   34.3830   38.7385 H   0  0  0  0  0  0  0  0  0  0  0  0
   45.2435   33.4530   41.0653 H   0  0  0  0  0  0  0  0  0  0  0  0
   43.7879   36.8156   45.0277 H   0  0  0  0  0  0  0  0  0  0  0  0
   44.9132   36.7244   42.7906 H   0  0  0  0  0  0  0  0  0  0  0  0
   45.7253   33.2382   46.1978 H   0  0  0  0  0  0  0  0  0  0  0  0
   45.4571   32.5774   38.9243 H   0  0  0  0  0  0  0  0  0  0  0  0
   46.8686   32.9000   37.8822 H   0  0  0  0  0  0  0  0  0  0  0  0
  1  9  1  0
  2  1  2  0
  3  2  1  0
  4  5  1  0
  4  3  2  0
  5  6  2  0
  6  1  1  0
  7 12  2  0
  8  7  1  0
  9  8  2  0
  9 10  1  0
 10 11  2  0
 11 12  1  0
 13  5  1  0
  2 14  1  0
  3 15  1  0
  4 16  1  0
  6 17  1  0
  7 18  1  0
  8 19  1  0
 11 20  1  0
 13 21  1  0
 13 22  1  0
M  ISO  7  14  14  15  14  16  14  17  14  18  14  19  14  20  14
M  END
>  <minimizedAffinity>  (1) 
-5.08066225

>  <minimizedRMSD>  (1) 
0.0151282893

$$$$
