
     RDKit          3D

 32 33  0  0  0  0  0  0  0  0999 V2000
   46.7990   34.7680   42.0280 C   0  0  0  0  0  0  0  0  0  0  0  0
   47.9880   35.4540   41.9210 C   0  0  0  0  0  0  0  0  0  0  0  0
   48.7530   35.3770   40.7500 C   0  0  0  0  0  0  0  0  0  0  0  0
   48.3140   34.6020   39.6810 C   0  0  0  0  0  0  0  0  0  0  0  0
   47.1030   33.9040   39.7930 C   0  0  0  0  0  0  0  0  0  0  0  0
   46.3810   34.0070   40.9620 C   0  0  0  0  0  0  0  0  0  0  0  0
   44.4810   35.9480   44.7490 C   0  0  0  0  0  0  0  0  0  0  0  0
   45.1480   35.9270   43.5140 C   0  0  0  0  0  0  0  0  0  0  0  0
   46.0520   34.8890   43.2700 C   0  0  0  0  0  0  0  0  0  0  0  0
   46.2470   33.9540   44.2270 N   0  0  0  0  0  0  0  0  0  0  0  0
   45.5810   34.0050   45.4150 C   0  0  0  0  0  0  0  0  0  0  0  0
   44.7130   34.9890   45.6690 N   0  0  0  0  0  0  0  0  0  0  0  0
   46.6520   33.0830   38.6400 C   0  0  0  0  0  0  0  0  0  0  0  0
   45.1290   33.0090   38.5680 C   0  0  0  0  0  0  0  0  0  0  0  0
   47.1860   31.6720   38.9040 C   0  0  0  0  0  0  0  0  0  0  0  0
   47.1550   33.5970   37.3230 C   0  0  0  0  0  0  0  0  0  0  0  0
   48.3404   36.0682   42.7628 H   0  0  0  0  0  0  0  0  0  0  0  0
   49.7013   35.9295   40.6755 H   0  0  0  0  0  0  0  0  0  0  0  0
   48.9100   34.5376   38.7587 H   0  0  0  0  0  0  0  0  0  0  0  0
   45.4315   33.4580   41.0458 H   0  0  0  0  0  0  0  0  0  0  0  0
   43.7637   36.7526   44.9683 H   0  0  0  0  0  0  0  0  0  0  0  0
   44.9644   36.7058   42.7591 H   0  0  0  0  0  0  0  0  0  0  0  0
   45.7598   33.2280   46.1728 H   0  0  0  0  0  0  0  0  0  0  0  0
   44.7143   32.9889   39.5866 H   0  0  0  0  0  0  0  0  0  0  0  0
   44.7440   33.8895   38.0327 H   0  0  0  0  0  0  0  0  0  0  0  0
   44.8312   32.0953   38.0327 H   0  0  0  0  0  0  0  0  0  0  0  0
   47.2506   31.5014   39.9888 H   0  0  0  0  0  0  0  0  0  0  0  0
   46.5055   30.9327   38.4564 H   0  0  0  0  0  0  0  0  0  0  0  0
   48.1855   31.5685   38.4564 H   0  0  0  0  0  0  0  0  0  0  0  0
   47.9145   34.3731   37.4982 H   0  0  0  0  0  0  0  0  0  0  0  0
   47.6015   32.7691   36.7527 H   0  0  0  0  0  0  0  0  0  0  0  0
   46.3177   34.0255   36.7527 H   0  0  0  0  0  0  0  0  0  0  0  0
  1  9  1  0
  2  1  2  0
  3  2  1  0
  4  5  1  0
  4  3  2  0
  5  6  2  0
  6  1  1  0
  7 12  2  0
  8  7  1  0
  9  8  2  0
  9 10  1  0
 10 11  2  0
 11 12  1  0
 13 15  1  0
 13  5  1  0
 14 13  1  0
 16 13  1  0
  2 17  1  0
  3 18  1  0
  4 19  1  0
  6 20  1  0
  7 21  1  0
  8 22  1  0
 11 23  1  0
 14 24  1  0
 14 25  1  0
 14 26  1  0
 15 27  1  0
 15 28  1  0
 15 29  1  0
 16 30  1  0
 16 31  1  0
 16 32  1  0
M  ISO  8  17  14  18  14  19  14  20  14  21  14  22  14  23  14  24   8
M  ISO  8  25   8  26   8  27   8  28   8  29   8  30   8  31   8  32   8
M  END
>  <minimizedAffinity>  (1) 
-5.41393518

>  <minimizedRMSD>  (1) 
0.490175575

$$$$
