
     RDKit          3D

 45 47  0  0  0  0  0  0  0  0999 V2000
   45.1030   34.5790   42.8190 C   0  0  0  0  0  0  0  0  0  0  0  0
   47.4920   34.2430   39.9130 C   0  0  0  0  0  0  0  0  0  0  0  0
   48.5720   34.9550   40.3800 C   0  0  0  0  0  0  0  0  0  0  0  0
   48.5250   35.5500   41.6440 C   0  0  0  0  0  0  0  0  0  0  0  0
   47.3910   35.4230   42.4280 C   0  0  0  0  0  0  0  0  0  0  0  0
   46.2960   34.7030   41.9600 C   0  0  0  0  0  0  0  0  0  0  0  0
   46.3910   34.1370   40.7120 C   0  0  0  0  0  0  0  0  0  0  0  0
   48.5140   33.4730   36.3640 C   0  0  0  0  0  0  0  0  0  0  0  0
   48.4840   34.1130   37.6090 C   0  0  0  0  0  0  0  0  0  0  0  0
   47.5970   33.6430   38.5840 C   0  0  0  0  0  0  0  0  0  0  0  0
   46.8060   32.5960   38.2910 N   0  0  0  0  0  0  0  0  0  0  0  0
   46.8660   31.9990   37.0630 C   0  0  0  0  0  0  0  0  0  0  0  0
   47.7010   32.4290   36.1230 N   0  0  0  0  0  0  0  0  0  0  0  0
   44.6730   33.1220   42.9910 C   0  0  0  0  0  0  0  0  0  0  0  0
   43.9690   35.2800   42.0480 C   0  0  0  0  0  0  0  0  0  0  0  0
   45.2600   35.1890   44.1660 C   0  0  0  0  0  0  0  0  0  0  0  0
   46.1200   32.3740   47.3120 C   0  0  0  0  0  0  0  0  0  0  0  0
   45.1340   33.3160   47.3910 C   0  0  0  0  0  0  0  0  0  0  0  0
   44.8620   34.2050   46.3950 C   0  0  0  0  0  0  0  0  0  0  0  0
   45.6190   34.1710   45.2190 C   0  0  0  0  0  0  0  0  0  0  0  0
   46.6210   33.2280   45.1140 C   0  0  0  0  0  0  0  0  0  0  0  0
   46.8460   32.3560   46.1580 C   0  0  0  0  0  0  0  0  0  0  0  0
   46.3870   31.2810   48.6450 S   0  0  0  0  0  0  0  0  0  0  0  0
   45.2680   31.4400   49.6500 O   0  0  0  0  0  0  0  0  0  0  0  0
   46.5760   29.8770   48.2060 O   0  0  0  0  0  0  0  0  0  0  0  0
   49.4737   35.0564   39.7582 H   0  0  0  0  0  0  0  0  0  0  0  0
   49.3895   36.1195   42.0160 H   0  0  0  0  0  0  0  0  0  0  0  0
   47.3555   35.8920   43.4224 H   0  0  0  0  0  0  0  0  0  0  0  0
   45.5300   33.5655   40.3351 H   0  0  0  0  0  0  0  0  0  0  0  0
   49.2033   33.8245   35.5821 H   0  0  0  0  0  0  0  0  0  0  0  0
   49.1443   34.9679   37.8165 H   0  0  0  0  0  0  0  0  0  0  0  0
   46.2086   31.1437   36.8481 H   0  0  0  0  0  0  0  0  0  0  0  0
   44.6029   32.8845   44.0628 H   0  0  0  0  0  0  0  0  0  0  0  0
   43.6919   32.9708   42.5170 H   0  0  0  0  0  0  0  0  0  0  0  0
   45.4148   32.4624   42.5170 H   0  0  0  0  0  0  0  0  0  0  0  0
   43.2574   35.7199   42.7622 H   0  0  0  0  0  0  0  0  0  0  0  0
   44.3921   36.0744   41.4155 H   0  0  0  0  0  0  0  0  0  0  0  0
   43.4476   34.5464   41.4155 H   0  0  0  0  0  0  0  0  0  0  0  0
   46.0566   35.9462   44.1204 H   0  0  0  0  0  0  0  0  0  0  0  0
   44.2949   35.6362   44.4466 H   0  0  0  0  0  0  0  0  0  0  0  0
   44.5273   33.3592   48.3075 H   0  0  0  0  0  0  0  0  0  0  0  0
   44.0547   34.9426   46.5144 H   0  0  0  0  0  0  0  0  0  0  0  0
   47.2360   33.1724   44.2037 H   0  0  0  0  0  0  0  0  0  0  0  0
   47.6487   31.6110   46.0551 H   0  0  0  0  0  0  0  0  0  0  0  0
   47.5679   31.6126   49.2554 H   0  0  0  0  0  0  0  0  0  0  0  0
  1 14  1  0
  1 16  1  0
  2  3  2  0
  2  7  1  0
  3  4  1  0
  4  5  2  0
  6  5  1  0
  6  1  1  0
  7  6  2  0
  8  9  2  0
  9 10  1  0
 10  2  1  0
 11 10  2  0
 12 11  1  0
 13  8  1  0
 13 12  2  0
 15  1  1  0
 16 20  1  0
 17 18  2  0
 17 23  1  0
 19 18  1  0
 20 19  2  0
 21 20  1  0
 21 22  2  0
 22 17  1  0
 23 24  2  0
 25 23  2  0
  3 26  1  0
  4 27  1  0
  5 28  1  0
  7 29  1  0
  8 30  1  0
  9 31  1  0
 12 32  1  0
 14 33  1  0
 14 34  1  0
 14 35  1  0
 15 36  1  0
 15 37  1  0
 15 38  1  0
 16 39  1  0
 16 40  1  0
 18 41  1  0
 19 42  1  0
 21 43  1  0
 22 44  1  0
 23 45  1  0
M  ISO  8  26  14  27  14  28  14  29  14  30  14  31  14  32  14  33   8
M  ISO  8  34   8  35   8  36   8  37   8  38   8  39   8  40   8  41  14
M  ISO  4  42  14  43  14  44  14  45  11
M  END
>  <minimizedAffinity>  (1) 
-6.37957191

>  <minimizedRMSD>  (1) 
9.32170868

$$$$
