
     RDKit          3D

 39 41  0  0  0  0  0  0  0  0999 V2000
   46.8060   34.7520   42.0380 C   0  0  0  0  0  0  0  0  0  0  0  0
   48.0040   35.4400   41.9360 C   0  0  0  0  0  0  0  0  0  0  0  0
   48.7670   35.3740   40.7660 C   0  0  0  0  0  0  0  0  0  0  0  0
   48.3170   34.6090   39.6910 C   0  0  0  0  0  0  0  0  0  0  0  0
   47.1100   33.9120   39.7840 C   0  0  0  0  0  0  0  0  0  0  0  0
   46.4020   34.0140   40.9610 C   0  0  0  0  0  0  0  0  0  0  0  0
   44.4830   35.9430   44.7480 C   0  0  0  0  0  0  0  0  0  0  0  0
   45.1540   35.9120   43.5180 C   0  0  0  0  0  0  0  0  0  0  0  0
   46.0640   34.8660   43.2810 C   0  0  0  0  0  0  0  0  0  0  0  0
   46.2580   33.9400   44.2310 N   0  0  0  0  0  0  0  0  0  0  0  0
   45.5920   33.9950   45.4180 C   0  0  0  0  0  0  0  0  0  0  0  0
   44.7170   34.9820   45.6730 N   0  0  0  0  0  0  0  0  0  0  0  0
   46.6390   33.1080   38.6410 C   0  0  0  0  0  0  0  0  0  0  0  0
   45.1340   32.9830   38.5920 C   0  0  0  0  0  0  0  0  0  0  0  0
   47.2450   31.7080   38.8670 C   0  0  0  0  0  0  0  0  0  0  0  0
   47.1330   33.6400   37.3180 C   0  0  0  0  0  0  0  0  0  0  0  0
   47.0970   32.7140   36.2190 C   0  0  0  0  0  0  0  0  0  0  0  0
   46.1620   31.9910   35.4410 C   0  0  0  0  0  0  0  0  0  0  0  0
   46.5870   31.1850   34.4380 C   0  0  0  0  0  0  0  0  0  0  0  0
   47.9590   31.0890   34.1950 C   0  0  0  0  0  0  0  0  0  0  0  0
   48.7440   32.1860   35.4340 S   0  0  0  0  0  0  0  0  0  0  0  0
   48.3587   36.0443   42.7839 H   0  0  0  0  0  0  0  0  0  0  0  0
   49.7175   35.9230   40.6943 H   0  0  0  0  0  0  0  0  0  0  0  0
   48.9132   34.5541   38.7682 H   0  0  0  0  0  0  0  0  0  0  0  0
   45.4510   33.4667   41.0391 H   0  0  0  0  0  0  0  0  0  0  0  0
   43.7655   36.7488   44.9623 H   0  0  0  0  0  0  0  0  0  0  0  0
   44.9736   36.6859   42.7574 H   0  0  0  0  0  0  0  0  0  0  0  0
   45.7731   33.2207   46.1781 H   0  0  0  0  0  0  0  0  0  0  0  0
   44.7353   32.9499   39.6167 H   0  0  0  0  0  0  0  0  0  0  0  0
   44.7112   33.8491   38.0618 H   0  0  0  0  0  0  0  0  0  0  0  0
   44.8599   32.0590   38.0618 H   0  0  0  0  0  0  0  0  0  0  0  0
   47.3287   31.5146   39.9466 H   0  0  0  0  0  0  0  0  0  0  0  0
   46.5950   30.9486   38.4078 H   0  0  0  0  0  0  0  0  0  0  0  0
   48.2435   31.6622   38.4078 H   0  0  0  0  0  0  0  0  0  0  0  0
   46.5114   34.5069   37.0495 H   0  0  0  0  0  0  0  0  0  0  0  0
   48.1952   33.8815   37.4708 H   0  0  0  0  0  0  0  0  0  0  0  0
   45.0862   32.0836   35.6512 H   0  0  0  0  0  0  0  0  0  0  0  0
   45.8672   30.6188   33.8286 H   0  0  0  0  0  0  0  0  0  0  0  0
   48.4604   30.4844   33.4249 H   0  0  0  0  0  0  0  0  0  0  0  0
  1  9  1  0
  2  1  2  0
  3  2  1  0
  4  5  1  0
  4  3  2  0
  5  6  2  0
  6  1  1  0
  7 12  2  0
  8  7  1  0
  9  8  2  0
  9 10  1  0
 10 11  2  0
 11 12  1  0
 13 15  1  0
 13  5  1  0
 14 13  1  0
 16 13  1  0
 17 16  1  0
 18 17  2  0
 19 18  1  0
 20 19  2  0
 20 21  1  0
 21 17  1  0
  2 22  1  0
  3 23  1  0
  4 24  1  0
  6 25  1  0
  7 26  1  0
  8 27  1  0
 11 28  1  0
 14 29  1  0
 14 30  1  0
 14 31  1  0
 15 32  1  0
 15 33  1  0
 15 34  1  0
 16 35  1  0
 16 36  1  0
 18 37  1  0
 19 38  1  0
 20 39  1  0
M  ISO  8  22  14  23  14  24  14  25  14  26  14  27  14  28  14  29   8
M  ISO  8  30   8  31   8  32   8  33   8  34   8  35   8  36   8  37  14
M  ISO  2  38  14  39  14
M  END
>  <minimizedAffinity>  (1) 
-5.69799423

>  <minimizedRMSD>  (1) 
2.5790205

$$$$
