
     RDKit          3D

 34 35  0  0  0  0  0  0  0  0999 V2000
   46.7380   34.7530   42.1170 C   0  0  0  0  0  0  0  0  0  0  0  0
   47.9300   35.4450   41.9780 C   0  0  0  0  0  0  0  0  0  0  0  0
   48.6910   35.3500   40.8080 C   0  0  0  0  0  0  0  0  0  0  0  0
   48.2450   34.5460   39.7570 C   0  0  0  0  0  0  0  0  0  0  0  0
   47.0350   33.8390   39.8890 C   0  0  0  0  0  0  0  0  0  0  0  0
   46.3390   33.9780   41.0630 C   0  0  0  0  0  0  0  0  0  0  0  0
   44.4610   35.9550   44.8450 C   0  0  0  0  0  0  0  0  0  0  0  0
   45.1110   35.9390   43.5970 C   0  0  0  0  0  0  0  0  0  0  0  0
   46.0010   34.8960   43.3540 C   0  0  0  0  0  0  0  0  0  0  0  0
   46.1990   33.9570   44.3180 N   0  0  0  0  0  0  0  0  0  0  0  0
   45.5460   34.0140   45.5110 C   0  0  0  0  0  0  0  0  0  0  0  0
   44.6910   35.0000   45.7690 N   0  0  0  0  0  0  0  0  0  0  0  0
   46.5880   32.9970   38.7630 C   0  0  0  0  0  0  0  0  0  0  0  0
   45.0730   32.8670   38.7260 C   0  0  0  0  0  0  0  0  0  0  0  0
   47.1610   31.6050   39.0330 C   0  0  0  0  0  0  0  0  0  0  0  0
   47.0430   33.5150   37.4210 C   0  0  0  0  0  0  0  0  0  0  0  0
   45.8470   33.8340   36.6620 N   0  0  0  0  0  0  0  0  0  0  0  0
   48.2846   36.0808   42.8026 H   0  0  0  0  0  0  0  0  0  0  0  0
   49.6358   35.9058   40.7164 H   0  0  0  0  0  0  0  0  0  0  0  0
   48.8352   34.4657   38.8322 H   0  0  0  0  0  0  0  0  0  0  0  0
   45.3924   33.4268   41.1639 H   0  0  0  0  0  0  0  0  0  0  0  0
   43.7504   36.7635   45.0716 H   0  0  0  0  0  0  0  0  0  0  0  0
   44.9237   36.7187   42.8440 H   0  0  0  0  0  0  0  0  0  0  0  0
   45.7270   33.2375   46.2688 H   0  0  0  0  0  0  0  0  0  0  0  0
   44.6827   32.8335   39.7539 H   0  0  0  0  0  0  0  0  0  0  0  0
   44.6436   33.7316   38.1987 H   0  0  0  0  0  0  0  0  0  0  0  0
   44.7971   31.9419   38.1987 H   0  0  0  0  0  0  0  0  0  0  0  0
   47.2287   31.4406   40.1185 H   0  0  0  0  0  0  0  0  0  0  0  0
   46.5027   30.8447   38.5873 H   0  0  0  0  0  0  0  0  0  0  0  0
   48.1638   31.5285   38.5873 H   0  0  0  0  0  0  0  0  0  0  0  0
   47.6585   34.4170   37.5531 H   0  0  0  0  0  0  0  0  0  0  0  0
   47.6526   32.7645   36.8964 H   0  0  0  0  0  0  0  0  0  0  0  0
   45.0737   34.0403   37.3104 H   0  0  0  0  0  0  0  0  0  0  0  0
   46.0262   34.6566   36.0686 H   0  0  0  0  0  0  0  0  0  0  0  0
  1  9  1  0
  2  1  2  0
  3  2  1  0
  4  5  1  0
  4  3  2  0
  5  6  2  0
  6  1  1  0
  7 12  2  0
  8  7  1  0
  9  8  2  0
  9 10  1  0
 10 11  2  0
 11 12  1  0
 13 15  1  0
 13  5  1  0
 14 13  1  0
 16 13  1  0
 17 16  1  0
  2 18  1  0
  3 19  1  0
  4 20  1  0
  6 21  1  0
  7 22  1  0
  8 23  1  0
 11 24  1  0
 14 25  1  0
 14 26  1  0
 14 27  1  0
 15 28  1  0
 15 29  1  0
 15 30  1  0
 16 31  1  0
 16 32  1  0
 17 33  1  0
 17 34  1  0
M  ISO  8  18  14  19  14  20  14  21  14  22  14  23  14  24  14  25   8
M  ISO  8  26   8  27   8  28   8  29   8  30   8  31   8  32   8  33   5
M  ISO  1  34   5
M  END
>  <minimizedAffinity>  (1) 
-5.63170958

>  <minimizedRMSD>  (1) 
0.374070019

$$$$
