
     RDKit          3D

 44 46  0  0  0  0  0  0  0  0999 V2000
   46.6830   34.7060   41.9900 C   0  0  0  0  0  0  0  0  0  0  0  0
   47.8840   35.3400   41.8440 C   0  0  0  0  0  0  0  0  0  0  0  0
   48.6170   35.2080   40.6540 C   0  0  0  0  0  0  0  0  0  0  0  0
   48.1120   34.4320   39.6250 C   0  0  0  0  0  0  0  0  0  0  0  0
   46.8940   33.7890   39.7710 C   0  0  0  0  0  0  0  0  0  0  0  0
   46.2140   33.9470   40.9530 C   0  0  0  0  0  0  0  0  0  0  0  0
   44.4830   36.0050   44.7660 C   0  0  0  0  0  0  0  0  0  0  0  0
   45.1130   35.9430   43.5150 C   0  0  0  0  0  0  0  0  0  0  0  0
   45.9680   34.8790   43.2560 C   0  0  0  0  0  0  0  0  0  0  0  0
   46.1650   33.9390   44.2230 N   0  0  0  0  0  0  0  0  0  0  0  0
   45.5330   34.0360   45.4310 C   0  0  0  0  0  0  0  0  0  0  0  0
   44.7020   35.0630   45.6910 N   0  0  0  0  0  0  0  0  0  0  0  0
   46.3840   32.9630   38.6450 C   0  0  0  0  0  0  0  0  0  0  0  0
   44.8450   32.9690   38.6260 C   0  0  0  0  0  0  0  0  0  0  0  0
   46.8410   31.5400   38.9160 C   0  0  0  0  0  0  0  0  0  0  0  0
   46.8380   33.4430   37.3090 C   0  0  0  0  0  0  0  0  0  0  0  0
   47.4920   32.5130   36.4610 N   0  0  0  0  0  0  0  0  0  0  0  0
   48.6350   32.9460   35.7440 C   0  0  0  0  0  0  0  0  0  0  0  0
   48.7540   31.8490   34.6660 C   0  0  0  0  0  0  0  0  0  0  0  0
   47.3200   31.5440   34.3010 C   0  0  0  0  0  0  0  0  0  0  0  0
   46.5450   32.2480   35.3650 C   0  0  0  0  0  0  0  0  0  0  0  0
   48.2793   35.9578   42.6638 H   0  0  0  0  0  0  0  0  0  0  0  0
   49.5853   35.7174   40.5402 H   0  0  0  0  0  0  0  0  0  0  0  0
   48.6796   34.3257   38.6888 H   0  0  0  0  0  0  0  0  0  0  0  0
   45.2456   33.4390   41.0720 H   0  0  0  0  0  0  0  0  0  0  0  0
   43.8004   36.8380   44.9899 H   0  0  0  0  0  0  0  0  0  0  0  0
   44.9344   36.7189   42.7560 H   0  0  0  0  0  0  0  0  0  0  0  0
   45.7050   33.2672   46.1987 H   0  0  0  0  0  0  0  0  0  0  0  0
   44.4656   32.9705   39.6585 H   0  0  0  0  0  0  0  0  0  0  0  0
   44.4883   33.8685   38.1030 H   0  0  0  0  0  0  0  0  0  0  0  0
   44.4813   32.0723   38.1030 H   0  0  0  0  0  0  0  0  0  0  0  0
   46.8947   31.3727   40.0019 H   0  0  0  0  0  0  0  0  0  0  0  0
   46.1245   30.8338   38.4712 H   0  0  0  0  0  0  0  0  0  0  0  0
   47.8347   31.3830   38.4712 H   0  0  0  0  0  0  0  0  0  0  0  0
   45.9502   33.8088   36.7724 H   0  0  0  0  0  0  0  0  0  0  0  0
   47.6029   34.2015   37.5316 H   0  0  0  0  0  0  0  0  0  0  0  0
   48.4755   33.9368   35.2935 H   0  0  0  0  0  0  0  0  0  0  0  0
   49.5355   33.0655   36.3643 H   0  0  0  0  0  0  0  0  0  0  0  0
   49.3108   32.2176   33.7919 H   0  0  0  0  0  0  0  0  0  0  0  0
   49.3002   30.9624   35.0204 H   0  0  0  0  0  0  0  0  0  0  0  0
   47.0730   31.9397   33.3048 H   0  0  0  0  0  0  0  0  0  0  0  0
   47.1057   30.4663   34.2502 H   0  0  0  0  0  0  0  0  0  0  0  0
   46.1377   33.1933   34.9769 H   0  0  0  0  0  0  0  0  0  0  0  0
   45.6959   31.6394   35.7094 H   0  0  0  0  0  0  0  0  0  0  0  0
  1  9  1  0
  2  1  2  0
  3  2  1  0
  4  5  1  0
  4  3  2  0
  5  6  2  0
  6  1  1  0
  7 12  2  0
  8  7  1  0
  9  8  2  0
  9 10  1  0
 10 11  2  0
 11 12  1  0
 13 15  1  0
 13  5  1  0
 14 13  1  0
 16 13  1  0
 17 16  1  0
 18 17  1  0
 19 18  1  0
 20 19  1  0
 20 21  1  0
 21 17  1  0
  2 22  1  0
  3 23  1  0
  4 24  1  0
  6 25  1  0
  7 26  1  0
  8 27  1  0
 11 28  1  0
 14 29  1  0
 14 30  1  0
 14 31  1  0
 15 32  1  0
 15 33  1  0
 15 34  1  0
 16 35  1  0
 16 36  1  0
 18 37  1  0
 18 38  1  0
 19 39  1  0
 19 40  1  0
 20 41  1  0
 20 42  1  0
 21 43  1  0
 21 44  1  0
M  ISO  8  22  14  23  14  24  14  25  14  26  14  27  14  28  14  29   8
M  ISO  8  30   8  31   8  32   8  33   8  34   8  35   8  36   8  37  13
M  ISO  7  38  13  39  13  40  13  41  13  42  13  43  13  44  13
M  END
>  <minimizedAffinity>  (1) 
-5.74963951

>  <minimizedRMSD>  (1) 
0.956369698

$$$$
