
     RDKit          3D

 39 41  0  0  0  0  0  0  0  0999 V2000
   46.7830   34.7490   42.0390 C   0  0  0  0  0  0  0  0  0  0  0  0
   47.9740   35.4350   41.9230 C   0  0  0  0  0  0  0  0  0  0  0  0
   48.7300   35.3570   40.7470 C   0  0  0  0  0  0  0  0  0  0  0  0
   48.2660   34.5780   39.6880 C   0  0  0  0  0  0  0  0  0  0  0  0
   47.0640   33.8860   39.8050 C   0  0  0  0  0  0  0  0  0  0  0  0
   46.3540   33.9920   40.9800 C   0  0  0  0  0  0  0  0  0  0  0  0
   44.4760   35.9570   44.7670 C   0  0  0  0  0  0  0  0  0  0  0  0
   45.1410   35.9160   43.5390 C   0  0  0  0  0  0  0  0  0  0  0  0
   46.0450   34.8720   43.2900 C   0  0  0  0  0  0  0  0  0  0  0  0
   46.2410   33.9430   44.2450 N   0  0  0  0  0  0  0  0  0  0  0  0
   45.5760   34.0130   45.4310 C   0  0  0  0  0  0  0  0  0  0  0  0
   44.7050   35.0090   45.6860 N   0  0  0  0  0  0  0  0  0  0  0  0
   46.6120   33.0750   38.6570 C   0  0  0  0  0  0  0  0  0  0  0  0
   45.0810   33.0300   38.5730 C   0  0  0  0  0  0  0  0  0  0  0  0
   47.0950   31.6570   38.9340 C   0  0  0  0  0  0  0  0  0  0  0  0
   47.1220   33.5440   37.3300 C   0  0  0  0  0  0  0  0  0  0  0  0
   47.8090   32.4410   36.5560 C   0  0  0  0  0  0  0  0  0  0  0  0
   48.5730   32.7830   35.3140 C   0  0  0  0  0  0  0  0  0  0  0  0
   47.2290   32.1160   35.2240 C   0  0  0  0  0  0  0  0  0  0  0  0
   48.3332   36.0490   42.7620 H   0  0  0  0  0  0  0  0  0  0  0  0
   49.6800   35.9046   40.6596 H   0  0  0  0  0  0  0  0  0  0  0  0
   48.8506   34.5101   38.7587 H   0  0  0  0  0  0  0  0  0  0  0  0
   45.4032   33.4466   41.0726 H   0  0  0  0  0  0  0  0  0  0  0  0
   43.7639   36.7680   44.9796 H   0  0  0  0  0  0  0  0  0  0  0  0
   44.9588   36.6901   42.7791 H   0  0  0  0  0  0  0  0  0  0  0  0
   45.7531   33.2420   46.1954 H   0  0  0  0  0  0  0  0  0  0  0  0
   44.6583   33.0176   39.5885 H   0  0  0  0  0  0  0  0  0  0  0  0
   44.7170   33.9178   38.0352 H   0  0  0  0  0  0  0  0  0  0  0  0
   44.7698   32.1223   38.0352 H   0  0  0  0  0  0  0  0  0  0  0  0
   47.1505   31.4942   40.0205 H   0  0  0  0  0  0  0  0  0  0  0  0
   46.3915   30.9369   38.4908 H   0  0  0  0  0  0  0  0  0  0  0  0
   48.0918   31.5160   38.4908 H   0  0  0  0  0  0  0  0  0  0  0  0
   46.2739   33.9169   36.7369 H   0  0  0  0  0  0  0  0  0  0  0  0
   47.8623   34.3362   37.5152 H   0  0  0  0  0  0  0  0  0  0  0  0
   48.0607   31.8835   37.4702 H   0  0  0  0  0  0  0  0  0  0  0  0
   48.6887   33.8337   35.0095 H   0  0  0  0  0  0  0  0  0  0  0  0
   49.5808   32.5634   34.9319 H   0  0  0  0  0  0  0  0  0  0  0  0
   46.3602   32.6780   34.8507 H   0  0  0  0  0  0  0  0  0  0  0  0
   46.8446   31.2033   34.7453 H   0  0  0  0  0  0  0  0  0  0  0  0
  1  9  1  0
  2  1  2  0
  3  2  1  0
  4  5  1  0
  4  3  2  0
  5  6  2  0
  6  1  1  0
  7 12  2  0
  8  7  1  0
  9  8  2  0
  9 10  1  0
 10 11  2  0
 11 12  1  0
 13 15  1  0
 13  5  1  0
 14 13  1  0
 16 13  1  0
 17 16  1  0
 18 17  1  0
 19 18  1  0
 19 17  1  0
  2 20  1  0
  3 21  1  0
  4 22  1  0
  6 23  1  0
  7 24  1  0
  8 25  1  0
 11 26  1  0
 14 27  1  0
 14 28  1  0
 14 29  1  0
 15 30  1  0
 15 31  1  0
 15 32  1  0
 16 33  1  0
 16 34  1  0
 17 35  1  0
 18 36  1  0
 18 37  1  0
 19 38  1  0
 19 39  1  0
M  ISO  8  20  14  21  14  22  14  23  14  24  14  25  14  26  14  27   8
M  ISO  8  28   8  29   8  30   8  31   8  32   8  33   8  34   8  35  13
M  ISO  4  36  13  37  13  38  13  39  13
M  END
>  <minimizedAffinity>  (1) 
-5.46480322

>  <minimizedRMSD>  (1) 
0.934475899

$$$$
