
     RDKit          3D

 50 54  0  0  0  0  0  0  0  0999 V2000
   46.3810   32.7240   38.8050 C   0  0  0  0  0  0  0  0  0  0  0  0
   46.6310   34.6690   42.0410 C   0  0  0  0  0  0  0  0  0  0  0  0
   47.8130   35.3430   41.8350 C   0  0  0  0  0  0  0  0  0  0  0  0
   48.5300   35.1740   40.6580 C   0  0  0  0  0  0  0  0  0  0  0  0
   48.0580   34.3170   39.6700 C   0  0  0  0  0  0  0  0  0  0  0  0
   46.8460   33.6160   39.8660 C   0  0  0  0  0  0  0  0  0  0  0  0
   46.2060   33.8370   41.0440 C   0  0  0  0  0  0  0  0  0  0  0  0
   44.4730   36.0410   44.7920 C   0  0  0  0  0  0  0  0  0  0  0  0
   45.0970   35.9560   43.5370 C   0  0  0  0  0  0  0  0  0  0  0  0
   45.9240   34.8830   43.2910 C   0  0  0  0  0  0  0  0  0  0  0  0
   46.0920   33.9650   44.2780 N   0  0  0  0  0  0  0  0  0  0  0  0
   45.4700   34.0780   45.4870 C   0  0  0  0  0  0  0  0  0  0  0  0
   44.6780   35.1070   45.7220 N   0  0  0  0  0  0  0  0  0  0  0  0
   45.7450   31.4620   39.3690 C   0  0  0  0  0  0  0  0  0  0  0  0
   47.6370   32.2880   38.0460 C   0  0  0  0  0  0  0  0  0  0  0  0
   45.4100   33.3630   37.8580 C   0  0  0  0  0  0  0  0  0  0  0  0
   44.3950   32.3560   37.4260 C   0  0  0  0  0  0  0  0  0  0  0  0
   44.6000   31.2980   36.5220 C   0  0  0  0  0  0  0  0  0  0  0  0
   43.4450   30.6010   36.3860 N   0  0  0  0  0  0  0  0  0  0  0  0
   42.5250   31.1970   37.1820 C   0  0  0  0  0  0  0  0  0  0  0  0
   43.0950   32.2560   37.8100 N   0  0  0  0  0  0  0  0  0  0  0  0
   41.3520   32.7030   42.0730 N   0  0  0  0  0  0  0  0  0  0  0  0
   41.8900   31.4910   41.8790 C   0  0  0  0  0  0  0  0  0  0  0  0
   42.3550   31.4740   40.6340 N   0  0  0  0  0  0  0  0  0  0  0  0
   42.1290   32.6650   40.0030 C   0  0  0  0  0  0  0  0  0  0  0  0
   42.4160   33.1340   38.7340 C   0  0  0  0  0  0  0  0  0  0  0  0
   42.0560   34.3760   38.4170 N   0  0  0  0  0  0  0  0  0  0  0  0
   41.4200   35.1470   39.3370 C   0  0  0  0  0  0  0  0  0  0  0  0
   41.1350   34.6900   40.5900 N   0  0  0  0  0  0  0  0  0  0  0  0
   41.4900   33.4270   40.9440 C   0  0  0  0  0  0  0  0  0  0  0  0
   48.1939   36.0230   42.6112 H   0  0  0  0  0  0  0  0  0  0  0  0
   49.4733   35.7192   40.5069 H   0  0  0  0  0  0  0  0  0  0  0  0
   48.6265   34.1847   38.7377 H   0  0  0  0  0  0  0  0  0  0  0  0
   45.2615   33.2981   41.2098 H   0  0  0  0  0  0  0  0  0  0  0  0
   43.8068   36.8884   45.0110 H   0  0  0  0  0  0  0  0  0  0  0  0
   44.9295   36.7267   42.7702 H   0  0  0  0  0  0  0  0  0  0  0  0
   45.6281   33.3144   46.2628 H   0  0  0  0  0  0  0  0  0  0  0  0
   45.7647   31.5012   40.4681 H   0  0  0  0  0  0  0  0  0  0  0  0
   44.7032   31.3904   39.0233 H   0  0  0  0  0  0  0  0  0  0  0  0
   46.3073   30.5820   39.0233 H   0  0  0  0  0  0  0  0  0  0  0  0
   48.4236   32.0150   38.7649 H   0  0  0  0  0  0  0  0  0  0  0  0
   47.4004   31.4194   37.4139 H   0  0  0  0  0  0  0  0  0  0  0  0
   47.9895   33.1164   37.4139 H   0  0  0  0  0  0  0  0  0  0  0  0
   44.9041   34.1998   38.3618 H   0  0  0  0  0  0  0  0  0  0  0  0
   45.9516   33.7370   36.9767 H   0  0  0  0  0  0  0  0  0  0  0  0
   45.5458   31.0723   36.0078 H   0  0  0  0  0  0  0  0  0  0  0  0
   41.4804   30.8733   37.3005 H   0  0  0  0  0  0  0  0  0  0  0  0
   40.9059   33.0283   42.9426 H   0  0  0  0  0  0  0  0  0  0  0  0
   41.9375   30.6694   42.6088 H   0  0  0  0  0  0  0  0  0  0  0  0
   41.1259   36.1710   39.0631 H   0  0  0  0  0  0  0  0  0  0  0  0
  1 14  1  0
  1  6  1  0
  2 10  1  0
  3  2  2  0
  4  3  1  0
  5  6  1  0
  5  4  2  0
  6  7  2  0
  7  2  1  0
  8 13  2  0
  9  8  1  0
 10  9  2  0
 10 11  1  0
 11 12  2  0
 12 13  1  0
 15  1  1  0
 16  1  1  0
 17 21  1  0
 17 16  1  0
 18 17  2  0
 19 18  1  0
 19 20  2  0
 20 21  1  0
 21 26  1  0
 23 22  1  0
 24 23  2  0
 25 24  1  0
 25 30  2  0
 26 25  1  0
 27 26  2  0
 27 28  1  0
 28 29  2  0
 29 30  1  0
 30 22  1  0
  3 31  1  0
  4 32  1  0
  5 33  1  0
  7 34  1  0
  8 35  1  0
  9 36  1  0
 12 37  1  0
 14 38  1  0
 14 39  1  0
 14 40  1  0
 15 41  1  0
 15 42  1  0
 15 43  1  0
 16 44  1  0
 16 45  1  0
 18 46  1  0
 20 47  1  0
 22 48  1  0
 23 49  1  0
 28 50  1  0
M  ISO  8  31  14  32  14  33  14  34  14  35  14  36  14  37  14  38   8
M  ISO  8  39   8  40   8  41   8  42   8  43   8  44   8  45   8  46  14
M  ISO  4  47  14  48   9  49  14  50  14
M  END
>  <minimizedAffinity>  (1) 
-6.65831614

>  <minimizedRMSD>  (1) 
2.85271287

$$$$
