
     RDKit          3D

 48 50  0  0  0  0  0  0  0  0999 V2000
   46.7010   33.1440   38.7170 C   0  0  0  0  0  0  0  0  0  0  0  0
   46.8140   34.8170   42.1120 C   0  0  0  0  0  0  0  0  0  0  0  0
   47.9950   35.4980   42.0190 C   0  0  0  0  0  0  0  0  0  0  0  0
   48.7670   35.4270   40.8620 C   0  0  0  0  0  0  0  0  0  0  0  0
   48.3400   34.6560   39.7850 C   0  0  0  0  0  0  0  0  0  0  0  0
   47.1340   33.9540   39.8670 C   0  0  0  0  0  0  0  0  0  0  0  0
   46.4240   34.0670   41.0300 C   0  0  0  0  0  0  0  0  0  0  0  0
   44.4630   35.9250   44.8300 C   0  0  0  0  0  0  0  0  0  0  0  0
   45.1370   35.9350   43.6010 C   0  0  0  0  0  0  0  0  0  0  0  0
   46.0460   34.9270   43.3460 C   0  0  0  0  0  0  0  0  0  0  0  0
   46.2480   33.9670   44.3000 N   0  0  0  0  0  0  0  0  0  0  0  0
   45.5720   33.9950   45.4810 C   0  0  0  0  0  0  0  0  0  0  0  0
   44.6950   34.9600   45.7360 N   0  0  0  0  0  0  0  0  0  0  0  0
   45.1930   33.0100   38.6320 C   0  0  0  0  0  0  0  0  0  0  0  0
   47.2490   31.7320   38.9890 C   0  0  0  0  0  0  0  0  0  0  0  0
   47.2030   33.6510   37.4080 C   0  0  0  0  0  0  0  0  0  0  0  0
   48.0260   32.5940   36.7350 C   0  0  0  0  0  0  0  0  0  0  0  0
   49.3990   32.3620   36.9020 C   0  0  0  0  0  0  0  0  0  0  0  0
   49.7530   31.3100   36.1130 N   0  0  0  0  0  0  0  0  0  0  0  0
   48.6390   30.8890   35.4670 C   0  0  0  0  0  0  0  0  0  0  0  0
   47.6010   31.6690   35.8470 N   0  0  0  0  0  0  0  0  0  0  0  0
   46.2520   31.4840   35.3260 C   0  0  0  0  0  0  0  0  0  0  0  0
   45.6820   30.2490   35.9890 C   0  0  0  0  0  0  0  0  0  0  0  0
   46.3370   31.2500   33.8230 C   0  0  0  0  0  0  0  0  0  0  0  0
   48.3395   36.1086   42.8667 H   0  0  0  0  0  0  0  0  0  0  0  0
   49.7153   35.9809   40.7994 H   0  0  0  0  0  0  0  0  0  0  0  0
   48.9500   34.5991   38.8714 H   0  0  0  0  0  0  0  0  0  0  0  0
   45.4734   33.5184   41.1041 H   0  0  0  0  0  0  0  0  0  0  0  0
   43.7345   36.7176   45.0559 H   0  0  0  0  0  0  0  0  0  0  0  0
   44.9470   36.7248   42.8593 H   0  0  0  0  0  0  0  0  0  0  0  0
   45.7534   33.2114   46.2314 H   0  0  0  0  0  0  0  0  0  0  0  0
   44.7704   32.9725   39.6469 H   0  0  0  0  0  0  0  0  0  0  0  0
   44.7778   33.8748   38.0937 H   0  0  0  0  0  0  0  0  0  0  0  0
   44.9368   32.0855   38.0937 H   0  0  0  0  0  0  0  0  0  0  0  0
   47.3132   31.5665   40.0746 H   0  0  0  0  0  0  0  0  0  0  0  0
   46.5754   30.9852   38.5434 H   0  0  0  0  0  0  0  0  0  0  0  0
   48.2500   31.6351   38.5434 H   0  0  0  0  0  0  0  0  0  0  0  0
   46.3489   33.9125   36.7660 H   0  0  0  0  0  0  0  0  0  0  0  0
   47.8255   34.5418   37.5785 H   0  0  0  0  0  0  0  0  0  0  0  0
   50.0739   32.9318   37.5576 H   0  0  0  0  0  0  0  0  0  0  0  0
   48.5872   30.0534   34.7535 H   0  0  0  0  0  0  0  0  0  0  0  0
   45.6216   32.3631   35.5253 H   0  0  0  0  0  0  0  0  0  0  0  0
   45.7343   30.3623   37.0819 H   0  0  0  0  0  0  0  0  0  0  0  0
   44.6332   30.1198   35.6835 H   0  0  0  0  0  0  0  0  0  0  0  0
   46.2641   29.3671   35.6835 H   0  0  0  0  0  0  0  0  0  0  0  0
   46.7068   30.2320   33.6307 H   0  0  0  0  0  0  0  0  0  0  0  0
   45.3386   31.3679   33.3765 H   0  0  0  0  0  0  0  0  0  0  0  0
   47.0270   31.9812   33.3765 H   0  0  0  0  0  0  0  0  0  0  0  0
  1 15  1  0
  1  6  1  0
  2 10  1  0
  3  2  2  0
  4  3  1  0
  5  6  1  0
  5  4  2  0
  6  7  2  0
  7  2  1  0
  8 13  2  0
  9  8  1  0
 10  9  2  0
 10 11  1  0
 11 12  2  0
 12 13  1  0
 14  1  1  0
 16  1  1  0
 17 18  2  0
 17 16  1  0
 19 18  1  0
 20 21  1  0
 20 19  2  0
 21 17  1  0
 22 21  1  0
 22 23  1  0
 24 22  1  0
  3 25  1  0
  4 26  1  0
  5 27  1  0
  7 28  1  0
  8 29  1  0
  9 30  1  0
 12 31  1  0
 14 32  1  0
 14 33  1  0
 14 34  1  0
 15 35  1  0
 15 36  1  0
 15 37  1  0
 16 38  1  0
 16 39  1  0
 18 40  1  0
 20 41  1  0
 22 42  1  0
 23 43  1  0
 23 44  1  0
 23 45  1  0
 24 46  1  0
 24 47  1  0
 24 48  1  0
M  ISO  8  25  14  26  14  27  14  28  14  29  14  30  14  31  14  32   8
M  ISO  8  33   8  34   8  35   8  36   8  37   8  38   8  39   8  40  14
M  ISO  8  41  14  42   8  43   8  44   8  45   8  46   8  47   8  48   8
M  END
>  <minimizedAffinity>  (1) 
-5.69423771

>  <minimizedRMSD>  (1) 
1.94958913

$$$$
