
     RDKit          3D

 29 29  0  0  0  0  0  0  0  0999 V2000
   45.8760   33.7170   45.8640 C   0  0  0  0  0  0  0  0  0  0  0  0
   45.2560   33.7570   44.5980 C   0  0  0  0  0  0  0  0  0  0  0  0
   45.3540   32.5690   43.8670 C   0  0  0  0  0  0  0  0  0  0  0  0
   45.9990   31.4960   44.3720 N   0  0  0  0  0  0  0  0  0  0  0  0
   46.5750   31.5150   45.5940 C   0  0  0  0  0  0  0  0  0  0  0  0
   46.5010   32.6300   46.3170 N   0  0  0  0  0  0  0  0  0  0  0  0
   44.5860   34.9080   44.1010 N   0  0  0  0  0  0  0  0  0  0  0  0
   44.9320   35.5690   42.8930 C   0  0  0  0  0  0  0  0  0  0  0  0
   46.2210   35.6660   42.6460 N   0  0  0  0  0  0  0  0  0  0  0  0
   43.8190   36.0410   42.1030 N   0  0  0  0  0  0  0  0  0  0  0  0
   46.5680   36.1340   41.7950 H   0  0  0  0  0  0  0  0  0  0  0  0
   47.2690   30.2980   46.0880 C   0  0  0  0  0  0  0  0  0  0  0  0
   46.2450   29.1660   46.2180 C   0  0  0  0  0  0  0  0  0  0  0  0
   48.2940   29.9140   45.0410 C   0  0  0  0  0  0  0  0  0  0  0  0
   47.9030   30.4790   47.4470 C   0  0  0  0  0  0  0  0  0  0  0  0
   45.8428   34.6139   46.4999 H   0  0  0  0  0  0  0  0  0  0  0  0
   44.8995   32.5080   42.8672 H   0  0  0  0  0  0  0  0  0  0  0  0
   43.8013   35.2857   44.6510 H   0  0  0  0  0  0  0  0  0  0  0  0
   43.9900   36.5305   41.2130 H   0  0  0  0  0  0  0  0  0  0  0  0
   42.8542   35.8882   42.4295 H   0  0  0  0  0  0  0  0  0  0  0  0
   46.0590   28.9603   47.2825 H   0  0  0  0  0  0  0  0  0  0  0  0
   45.3043   29.4649   45.7324 H   0  0  0  0  0  0  0  0  0  0  0  0
   46.6365   28.2599   45.7324 H   0  0  0  0  0  0  0  0  0  0  0  0
   49.2134   29.5696   45.5370 H   0  0  0  0  0  0  0  0  0  0  0  0
   47.8914   29.1057   44.4128 H   0  0  0  0  0  0  0  0  0  0  0  0
   48.5216   30.7879   44.4128 H   0  0  0  0  0  0  0  0  0  0  0  0
   47.1597   30.2668   48.2296 H   0  0  0  0  0  0  0  0  0  0  0  0
   48.7521   29.7874   47.5505 H   0  0  0  0  0  0  0  0  0  0  0  0
   48.2590   31.5147   47.5505 H   0  0  0  0  0  0  0  0  0  0  0  0
  1  6  2  0
  2  1  1  0
  3  4  1  0
  3  2  2  0
  4  5  2  0
  5 12  1  0
  5  6  1  0
  7  2  1  0
  8  7  1  0
  9  8  2  0
 10  8  1  0
 11  9  1  0
 12 13  1  0
 12 15  1  0
 14 12  1  0
  1 16  1  0
  3 17  1  0
  7 18  1  0
 10 19  1  0
 10 20  1  0
 13 21  1  0
 13 22  1  0
 13 23  1  0
 14 24  1  0
 14 25  1  0
 14 26  1  0
 15 27  1  0
 15 28  1  0
 15 29  1  0
M  ISO  8  16  14  17  14  21   8  22   8  23   8  24   8  25   8  26   8
M  ISO  3  27   8  28   8  29   8
M  END
>  <minimizedAffinity>  (1) 
-3.64436412

>  <minimizedRMSD>  (1) 
3.79882264

$$$$
