
     RDKit          3D

 45 47  0  0  0  0  0  0  0  0999 V2000
   47.0470   30.6120   46.4650 C   0  0  0  0  0  0  0  0  0  0  0  0
   45.5440   33.9630   45.9690 C   0  0  0  0  0  0  0  0  0  0  0  0
   45.1230   33.9620   44.6280 C   0  0  0  0  0  0  0  0  0  0  0  0
   45.3900   32.7680   43.9340 C   0  0  0  0  0  0  0  0  0  0  0  0
   45.9990   31.7420   44.5490 N   0  0  0  0  0  0  0  0  0  0  0  0
   46.3820   31.7880   45.8290 C   0  0  0  0  0  0  0  0  0  0  0  0
   46.1480   32.8960   46.5140 N   0  0  0  0  0  0  0  0  0  0  0  0
   44.4820   35.0690   44.0190 N   0  0  0  0  0  0  0  0  0  0  0  0
   44.8630   35.6410   42.7840 C   0  0  0  0  0  0  0  0  0  0  0  0
   46.1700   35.7160   42.5700 N   0  0  0  0  0  0  0  0  0  0  0  0
   43.7910   36.0610   41.9290 N   0  0  0  0  0  0  0  0  0  0  0  0
   46.5510   36.1210   41.7040 H   0  0  0  0  0  0  0  0  0  0  0  0
   46.0140   29.5440   46.7120 C   0  0  0  0  0  0  0  0  0  0  0  0
   48.0220   30.0750   45.4010 C   0  0  0  0  0  0  0  0  0  0  0  0
   47.7960   30.9530   47.7190 C   0  0  0  0  0  0  0  0  0  0  0  0
   48.6320   29.9430   48.2990 C   0  0  0  0  0  0  0  0  0  0  0  0
   48.5310   28.6330   47.8070 C   0  0  0  0  0  0  0  0  0  0  0  0
   49.2440   27.5810   48.3360 C   0  0  0  0  0  0  0  0  0  0  0  0
   50.1090   27.7600   49.3920 C   0  0  0  0  0  0  0  0  0  0  0  0
   50.2480   29.0280   49.9130 C   0  0  0  0  0  0  0  0  0  0  0  0
   51.1320   29.2410   50.9580 C   0  0  0  0  0  0  0  0  0  0  0  0
   51.2960   30.5180   51.4650 C   0  0  0  0  0  0  0  0  0  0  0  0
   50.5690   31.5600   50.9140 C   0  0  0  0  0  0  0  0  0  0  0  0
   49.7150   31.2950   49.8890 C   0  0  0  0  0  0  0  0  0  0  0  0
   49.5040   30.0520   49.3420 C   0  0  0  0  0  0  0  0  0  0  0  0
   45.3746   34.8583   46.5853 H   0  0  0  0  0  0  0  0  0  0  0  0
   45.0971   32.6742   42.8779 H   0  0  0  0  0  0  0  0  0  0  0  0
   43.6802   35.4873   44.5120 H   0  0  0  0  0  0  0  0  0  0  0  0
   43.9984   36.4861   41.0140 H   0  0  0  0  0  0  0  0  0  0  0  0
   42.8137   35.9375   42.2299 H   0  0  0  0  0  0  0  0  0  0  0  0
   45.8808   29.4063   47.7952 H   0  0  0  0  0  0  0  0  0  0  0  0
   45.0578   29.8473   46.2606 H   0  0  0  0  0  0  0  0  0  0  0  0
   46.3490   28.5985   46.2606 H   0  0  0  0  0  0  0  0  0  0  0  0
   48.8819   29.6014   45.8973 H   0  0  0  0  0  0  0  0  0  0  0  0
   47.5070   29.3333   44.7728 H   0  0  0  0  0  0  0  0  0  0  0  0
   48.3736   30.9067   44.7728 H   0  0  0  0  0  0  0  0  0  0  0  0
   48.4369   31.8178   47.4923 H   0  0  0  0  0  0  0  0  0  0  0  0
   47.0109   31.1246   48.4701 H   0  0  0  0  0  0  0  0  0  0  0  0
   47.8533   28.4383   46.9627 H   0  0  0  0  0  0  0  0  0  0  0  0
   49.1200   26.5762   47.9059 H   0  0  0  0  0  0  0  0  0  0  0  0
   50.6741   26.9133   49.8087 H   0  0  0  0  0  0  0  0  0  0  0  0
   51.7002   28.4000   51.3822 H   0  0  0  0  0  0  0  0  0  0  0  0
   51.9944   30.7030   52.2945 H   0  0  0  0  0  0  0  0  0  0  0  0
   50.6803   32.5845   51.2987 H   0  0  0  0  0  0  0  0  0  0  0  0
   49.1507   32.1392   49.4660 H   0  0  0  0  0  0  0  0  0  0  0  0
  1 13  1  0
  1 15  1  0
  2  7  2  0
  3  2  1  0
  4  5  1  0
  4  3  2  0
  5  6  2  0
  6  1  1  0
  6  7  1  0
  8  3  1  0
  9  8  1  0
 10  9  2  0
 11  9  1  0
 12 10  1  0
 14  1  1  0
 15 16  1  0
 16 25  1  0
 17 16  2  0
 17 18  1  0
 18 19  2  0
 19 20  1  0
 20 21  2  0
 21 22  1  0
 23 22  2  0
 24 23  1  0
 25 24  2  0
 25 20  1  0
  2 26  1  0
  4 27  1  0
  8 28  1  0
 11 29  1  0
 11 30  1  0
 13 31  1  0
 13 32  1  0
 13 33  1  0
 14 34  1  0
 14 35  1  0
 14 36  1  0
 15 37  1  0
 15 38  1  0
 17 39  1  0
 18 40  1  0
 19 41  1  0
 21 42  1  0
 22 43  1  0
 23 44  1  0
 24 45  1  0
M  ISO  8  26  14  27  14  31   8  32   8  33   8  34   8  35   8  36   8
M  ISO  8  37   8  38   8  39  14  40  14  41  14  42  14  43  14  44  14
M  ISO  1  45  14
M  END
>  <minimizedAffinity>  (1) 
-5.48147249

>  <minimizedRMSD>  (1) 
0.894042909

$$$$
