
     RDKit          3D

 38 39  0  0  0  0  0  0  0  0999 V2000
   46.7590   31.4950   47.9940 C   0  0  0  0  0  0  0  0  0  0  0  0
   44.6070   34.2810   46.8450 C   0  0  0  0  0  0  0  0  0  0  0  0
   45.0160   34.5090   45.5200 C   0  0  0  0  0  0  0  0  0  0  0  0
   46.0390   33.6650   45.0860 C   0  0  0  0  0  0  0  0  0  0  0  0
   46.5680   32.7240   45.8910 N   0  0  0  0  0  0  0  0  0  0  0  0
   46.1240   32.5560   47.1660 C   0  0  0  0  0  0  0  0  0  0  0  0
   45.1560   33.3350   47.6200 N   0  0  0  0  0  0  0  0  0  0  0  0
   44.4510   35.5020   44.6820 N   0  0  0  0  0  0  0  0  0  0  0  0
   44.7640   35.6460   43.3030 C   0  0  0  0  0  0  0  0  0  0  0  0
   46.0080   35.4320   42.9580 N   0  0  0  0  0  0  0  0  0  0  0  0
   43.6540   36.0140   42.4620 N   0  0  0  0  0  0  0  0  0  0  0  0
   46.3410   35.5540   42.0000 H   0  0  0  0  0  0  0  0  0  0  0  0
   45.9670   31.3190   49.2800 C   0  0  0  0  0  0  0  0  0  0  0  0
   46.7200   30.2120   47.2060 C   0  0  0  0  0  0  0  0  0  0  0  0
   48.1800   31.8510   48.4000 C   0  0  0  0  0  0  0  0  0  0  0  0
   48.9180   30.6920   48.9130 C   0  0  0  0  0  0  0  0  0  0  0  0
   49.1990   29.5660   48.1670 C   0  0  0  0  0  0  0  0  0  0  0  0
   49.9020   28.5160   48.7290 C   0  0  0  0  0  0  0  0  0  0  0  0
   50.3470   28.5560   50.0530 C   0  0  0  0  0  0  0  0  0  0  0  0
   50.0350   29.7180   50.7590 C   0  0  0  0  0  0  0  0  0  0  0  0
   49.3550   30.7270   50.2030 N   0  0  0  0  0  0  0  0  0  0  0  0
   43.8032   34.9045   47.2634 H   0  0  0  0  0  0  0  0  0  0  0  0
   46.4229   33.7710   44.0606 H   0  0  0  0  0  0  0  0  0  0  0  0
   43.7737   36.1580   45.0964 H   0  0  0  0  0  0  0  0  0  0  0  0
   43.7944   36.1390   41.4493 H   0  0  0  0  0  0  0  0  0  0  0  0
   42.7199   36.1521   42.8733 H   0  0  0  0  0  0  0  0  0  0  0  0
   46.6323   31.4668   50.1435 H   0  0  0  0  0  0  0  0  0  0  0  0
   45.1531   32.0582   49.3134 H   0  0  0  0  0  0  0  0  0  0  0  0
   45.5427   30.3047   49.3134 H   0  0  0  0  0  0  0  0  0  0  0  0
   46.6940   29.3573   47.8980 H   0  0  0  0  0  0  0  0  0  0  0  0
   45.8210   30.1981   46.5723 H   0  0  0  0  0  0  0  0  0  0  0  0
   47.6165   30.1435   46.5723 H   0  0  0  0  0  0  0  0  0  0  0  0
   48.7102   32.2478   47.5217 H   0  0  0  0  0  0  0  0  0  0  0  0
   48.1233   32.5979   49.2055 H   0  0  0  0  0  0  0  0  0  0  0  0
   48.8627   29.5032   47.1216 H   0  0  0  0  0  0  0  0  0  0  0  0
   50.1163   27.6266   48.1182 H   0  0  0  0  0  0  0  0  0  0  0  0
   50.9066   27.7258   50.5086 H   0  0  0  0  0  0  0  0  0  0  0  0
   50.3585   29.8075   51.8065 H   0  0  0  0  0  0  0  0  0  0  0  0
  1 15  1  0
  1 13  1  0
  2  7  2  0
  3  2  1  0
  4  3  2  0
  4  5  1  0
  5  6  2  0
  6  7  1  0
  6  1  1  0
  8  3  1  0
  9  8  1  0
 10  9  2  0
 11  9  1  0
 12 10  1  0
 14  1  1  0
 15 16  1  0
 16 21  2  0
 17 18  2  0
 17 16  1  0
 18 19  1  0
 19 20  2  0
 21 20  1  0
  2 22  1  0
  4 23  1  0
  8 24  1  0
 11 25  1  0
 11 26  1  0
 13 27  1  0
 13 28  1  0
 13 29  1  0
 14 30  1  0
 14 31  1  0
 14 32  1  0
 15 33  1  0
 15 34  1  0
 17 35  1  0
 18 36  1  0
 19 37  1  0
 20 38  1  0
M  ISO  8  22  14  23  14  27   8  28   8  29   8  30   8  31   8  32   8
M  ISO  6  33   8  34   8  35  14  36  14  37  14  38  14
M  END
>  <minimizedAffinity>  (1) 
-5.27145958

>  <minimizedRMSD>  (1) 
1.88415802

$$$$
