
     RDKit          3D

 36 39  0  0  1  0  0  0  0  0999 V2000
   48.1010   33.3530   39.1580 C   0  0  2  0  0  0  0  0  0  0  0  0
   48.2600   34.2600   37.9200 C   0  0  0  0  0  0  0  0  0  0  0  0
   47.9550   32.7840   37.7710 C   0  0  1  0  0  0  0  0  0  0  0  0
   45.6410   34.0600   41.7230 N   0  0  0  0  0  0  0  0  0  0  0  0
   44.8190   33.8490   40.6600 C   0  0  0  0  0  0  0  0  0  0  0  0
   45.5450   33.5640   39.5740 N   0  0  0  0  0  0  0  0  0  0  0  0
   46.8630   33.5960   39.9740 C   0  0  0  0  0  0  0  0  0  0  0  0
   46.8400   33.8960   41.2560 N   0  0  0  0  0  0  0  0  0  0  0  0
   44.7630   35.6760   43.2920 C   0  0  0  0  0  0  0  0  0  0  0  0
   45.3600   34.3890   43.0740 C   0  0  0  0  0  0  0  0  0  0  0  0
   45.6030   33.6100   44.1590 C   0  0  0  0  0  0  0  0  0  0  0  0
   45.2610   34.1070   45.3830 N   0  0  0  0  0  0  0  0  0  0  0  0
   44.7060   35.3090   45.5570 C   0  0  0  0  0  0  0  0  0  0  0  0
   44.4590   36.0960   44.4930 N   0  0  0  0  0  0  0  0  0  0  0  0
   48.9590   31.8300   37.3390 C   0  0  0  0  0  0  0  0  0  0  0  0
   48.5850   30.6260   37.1560 O   0  0  0  0  0  0  0  0  0  0  0  0
   50.2680   32.1870   37.1240 O   0  0  0  0  0  0  0  0  0  0  0  0
   53.2290   31.5420   38.8530 N   0  0  0  0  0  0  0  0  0  0  0  0
   52.5400   31.9700   37.7790 N   0  0  0  0  0  0  0  0  0  0  0  0
   51.2230   31.8270   38.0490 C   0  0  0  0  0  0  0  0  0  0  0  0
   51.0590   31.3050   39.3040 C   0  0  0  0  0  0  0  0  0  0  0  0
   52.3560   31.1350   39.7880 C   0  0  0  0  0  0  0  0  0  0  0  0
   52.6200   30.5910   41.1160 C   0  0  0  0  0  0  0  0  0  0  0  0
   51.7170   30.3030   41.9440 O   0  0  0  0  0  0  0  0  0  0  0  0
   53.9130   30.3530   41.5600 O   0  0  0  0  0  0  0  0  0  0  0  0
   48.7076   33.0772   40.0332 H   0  0  0  0  0  0  0  0  0  0  0  0
   47.4913   35.0100   37.6819 H   0  0  0  0  0  0  0  0  0  0  0  0
   49.0365   34.9416   37.5426 H   0  0  0  0  0  0  0  0  0  0  0  0
   47.1816   32.2414   37.2076 H   0  0  0  0  0  0  0  0  0  0  0  0
   43.7208   33.9045   40.6894 H   0  0  0  0  0  0  0  0  0  0  0  0
   44.5561   36.3249   42.4282 H   0  0  0  0  0  0  0  0  0  0  0  0
   46.0590   32.6144   44.0552 H   0  0  0  0  0  0  0  0  0  0  0  0
   44.4508   35.6560   46.5692 H   0  0  0  0  0  0  0  0  0  0  0  0
   54.2550   31.5289   38.9426 H   0  0  0  0  0  0  0  0  0  0  0  0
   50.1142   31.0715   39.8167 H   0  0  0  0  0  0  0  0  0  0  0  0
   54.0652   29.9833   42.4657 H   0  0  0  0  0  0  0  0  0  0  0  0
  1  7  1  0
  2  1  1  0
  3  2  1  0
  3  1  1  0
  4 10  1  0
  5  4  1  0
  6  7  1  0
  6  5  2  0
  7  8  2  0
  8  4  1  0
  9 14  2  0
 10  9  1  0
 10 11  2  0
 11 12  1  0
 12 13  2  0
 14 13  1  0
 15  3  1  0
 16 15  2  0
 17 15  1  0
 17 20  1  0
 18 22  1  0
 19 20  2  0
 19 18  1  0
 20 21  1  0
 21 22  2  0
 22 23  1  0
 23 25  1  0
 23 24  2  0
  1 26  1  1
  2 27  1  0
  2 28  1  0
  3 29  1  1
  5 30  1  0
  9 31  1  0
 11 32  1  0
 13 33  1  0
 18 34  1  0
 21 35  1  0
 25 36  1  0
M  ISO  8  26  13  27  13  28  13  29  13  30  14  31  14  32  14  33  14
M  ISO  3  34   9  35  14  36   3
M  END
>  <minimizedAffinity>  (1) 
-4.82864189

>  <minimizedRMSD>  (1) 
0.26070863

$$$$
