
     RDKit          3D

 39 40  0  0  0  0  0  0  0  0999 V2000
   46.7830   30.2530   46.2770 C   0  0  0  0  0  0  0  0  0  0  0  0
   45.6260   33.7330   46.0260 C   0  0  0  0  0  0  0  0  0  0  0  0
   45.1990   33.8640   44.6810 C   0  0  0  0  0  0  0  0  0  0  0  0
   45.3420   32.7010   43.9030 C   0  0  0  0  0  0  0  0  0  0  0  0
   45.8510   31.5720   44.4390 N   0  0  0  0  0  0  0  0  0  0  0  0
   46.2400   31.4990   45.7200 C   0  0  0  0  0  0  0  0  0  0  0  0
   46.1160   32.5760   46.4650 N   0  0  0  0  0  0  0  0  0  0  0  0
   44.6670   35.0680   44.1460 N   0  0  0  0  0  0  0  0  0  0  0  0
   45.0550   35.6260   42.8980 C   0  0  0  0  0  0  0  0  0  0  0  0
   46.3410   35.5410   42.6140 N   0  0  0  0  0  0  0  0  0  0  0  0
   43.9890   36.2060   42.1160 N   0  0  0  0  0  0  0  0  0  0  0  0
   46.7130   35.9160   41.7280 H   0  0  0  0  0  0  0  0  0  0  0  0
   45.9440   29.0650   45.7540 C   0  0  0  0  0  0  0  0  0  0  0  0
   48.1760   30.0830   45.6710 C   0  0  0  0  0  0  0  0  0  0  0  0
   46.8280   30.1340   47.7550 C   0  0  0  0  0  0  0  0  0  0  0  0
   48.0840   30.4790   48.4340 C   0  0  0  0  0  0  0  0  0  0  0  0
   48.6220   31.6540   48.9070 C   0  0  0  0  0  0  0  0  0  0  0  0
   49.8660   31.7030   49.4950 C   0  0  0  0  0  0  0  0  0  0  0  0
   50.6530   30.5810   49.6500 C   0  0  0  0  0  0  0  0  0  0  0  0
   50.1450   29.3920   49.1880 C   0  0  0  0  0  0  0  0  0  0  0  0
   48.8980   29.3450   48.5990 C   0  0  0  0  0  0  0  0  0  0  0  0
   45.5521   34.5912   46.7101 H   0  0  0  0  0  0  0  0  0  0  0  0
   45.0357   32.7119   42.8466 H   0  0  0  0  0  0  0  0  0  0  0  0
   43.9552   35.5679   44.6976 H   0  0  0  0  0  0  0  0  0  0  0  0
   44.1941   36.6297   41.1998 H   0  0  0  0  0  0  0  0  0  0  0  0
   43.0234   36.1961   42.4742 H   0  0  0  0  0  0  0  0  0  0  0  0
   45.5425   28.4965   46.6058 H   0  0  0  0  0  0  0  0  0  0  0  0
   45.1125   29.4446   45.1420 H   0  0  0  0  0  0  0  0  0  0  0  0
   46.5798   28.4084   45.1420 H   0  0  0  0  0  0  0  0  0  0  0  0
   48.9183   29.9924   46.4777 H   0  0  0  0  0  0  0  0  0  0  0  0
   48.1973   29.1756   45.0496 H   0  0  0  0  0  0  0  0  0  0  0  0
   48.4149   30.9587   45.0496 H   0  0  0  0  0  0  0  0  0  0  0  0
   46.0449   30.7915   48.1606 H   0  0  0  0  0  0  0  0  0  0  0  0
   46.6952   29.0595   47.9496 H   0  0  0  0  0  0  0  0  0  0  0  0
   48.0402   32.5827   48.8124 H   0  0  0  0  0  0  0  0  0  0  0  0
   50.2456   32.6711   49.8538 H   0  0  0  0  0  0  0  0  0  0  0  0
   51.6445   30.6363   50.1232 H   0  0  0  0  0  0  0  0  0  0  0  0
   50.7365   28.4700   49.2881 H   0  0  0  0  0  0  0  0  0  0  0  0
   48.5233   28.3744   48.2418 H   0  0  0  0  0  0  0  0  0  0  0  0
  1 15  1  0
  2  7  2  0
  3  2  1  0
  4  5  1  0
  4  3  2  0
  5  6  2  0
  6  1  1  0
  6  7  1  0
  8  3  1  0
  9  8  1  0
 10  9  2  0
 11  9  1  0
 12 10  1  0
 13  1  1  0
 14  1  1  0
 15 16  1  0
 16 21  1  0
 16 17  2  0
 17 18  1  0
 18 19  2  0
 20 19  1  0
 21 20  2  0
  2 22  1  0
  4 23  1  0
  8 24  1  0
 11 25  1  0
 11 26  1  0
 13 27  1  0
 13 28  1  0
 13 29  1  0
 14 30  1  0
 14 31  1  0
 14 32  1  0
 15 33  1  0
 15 34  1  0
 17 35  1  0
 18 36  1  0
 19 37  1  0
 20 38  1  0
 21 39  1  0
M  ISO  8  22  14  23  14  27   8  28   8  29   8  30   8  31   8  32   8
M  ISO  7  33   8  34   8  35  14  36  14  37  14  38  14  39  14
M  END
>  <minimizedAffinity>  (1) 
-4.69773483

>  <minimizedRMSD>  (1) 
1.4471432

$$$$
