
     RDKit          3D

 40 44  0  0  1  0  0  0  0  0999 V2000
   47.9640   33.4590   38.9710 C   0  0  2  0  0  0  0  0  0  0  0  0
   48.5560   34.7730   38.4210 C   0  0  0  0  0  0  0  0  0  0  0  0
   47.8520   33.7930   37.5040 C   0  0  1  0  0  0  0  0  0  0  0  0
   45.5810   34.0140   41.6430 N   0  0  0  0  0  0  0  0  0  0  0  0
   44.7300   33.7250   40.6200 C   0  0  0  0  0  0  0  0  0  0  0  0
   45.4220   33.4800   39.5060 N   0  0  0  0  0  0  0  0  0  0  0  0
   46.7510   33.6180   39.8410 C   0  0  0  0  0  0  0  0  0  0  0  0
   46.7630   33.9340   41.1190 N   0  0  0  0  0  0  0  0  0  0  0  0
   44.7400   35.6250   43.2290 C   0  0  0  0  0  0  0  0  0  0  0  0
   45.3360   34.3410   42.9990 C   0  0  0  0  0  0  0  0  0  0  0  0
   45.6100   33.5610   44.0760 C   0  0  0  0  0  0  0  0  0  0  0  0
   45.2990   34.0580   45.3090 N   0  0  0  0  0  0  0  0  0  0  0  0
   44.7440   35.2570   45.5000 C   0  0  0  0  0  0  0  0  0  0  0  0
   44.4660   36.0430   44.4460 N   0  0  0  0  0  0  0  0  0  0  0  0
   48.5820   32.9470   36.5760 C   0  0  0  0  0  0  0  0  0  0  0  0
   49.6170   32.3510   37.0190 O   0  0  0  0  0  0  0  0  0  0  0  0
   48.1890   32.7780   35.2710 O   0  0  0  0  0  0  0  0  0  0  0  0
   46.1950   29.9800   34.6660 N   0  0  0  0  0  0  0  0  0  0  0  0
   47.3680   30.5700   34.9630 N   0  0  0  0  0  0  0  0  0  0  0  0
   47.1590   31.9070   34.9920 C   0  0  0  0  0  0  0  0  0  0  0  0
   45.8470   32.1800   34.7120 C   0  0  0  0  0  0  0  0  0  0  0  0
   45.2600   30.9300   34.5100 C   0  0  0  0  0  0  0  0  0  0  0  0
   43.8260   30.7310   34.1760 C   0  0  0  0  0  0  0  0  0  0  0  0
   43.1800   29.4030   34.2570 C   0  0  0  0  0  0  0  0  0  0  0  0
   42.9790   30.3730   35.3950 C   0  0  0  0  0  0  0  0  0  0  0  0
   48.3337   32.5846   39.5267 H   0  0  0  0  0  0  0  0  0  0  0  0
   48.0850   35.7364   38.6661 H   0  0  0  0  0  0  0  0  0  0  0  0
   49.5445   35.2552   38.4409 H   0  0  0  0  0  0  0  0  0  0  0  0
   47.0400   33.9156   36.7721 H   0  0  0  0  0  0  0  0  0  0  0  0
   43.6333   33.6976   40.7003 H   0  0  0  0  0  0  0  0  0  0  0  0
   44.5074   36.2730   42.3711 H   0  0  0  0  0  0  0  0  0  0  0  0
   46.0653   32.5664   43.9596 H   0  0  0  0  0  0  0  0  0  0  0  0
   44.5144   35.6013   46.5192 H   0  0  0  0  0  0  0  0  0  0  0  0
   46.0405   28.9659   34.5736 H   0  0  0  0  0  0  0  0  0  0  0  0
   45.3627   33.1662   34.6582 H   0  0  0  0  0  0  0  0  0  0  0  0
   43.8457   31.4784   33.3691 H   0  0  0  0  0  0  0  0  0  0  0  0
   42.3395   29.1632   33.5892 H   0  0  0  0  0  0  0  0  0  0  0  0
   43.5409   28.3664   34.1846 H   0  0  0  0  0  0  0  0  0  0  0  0
   43.4573   30.1922   36.3689 H   0  0  0  0  0  0  0  0  0  0  0  0
   42.1130   30.8149   35.9096 H   0  0  0  0  0  0  0  0  0  0  0  0
  1  7  1  0
  2  1  1  0
  3  2  1  0
  3  1  1  0
  4 10  1  0
  5  4  1  0
  6  7  1  0
  6  5  2  0
  7  8  2  0
  8  4  1  0
  9 14  2  0
 10  9  1  0
 10 11  2  0
 11 12  1  0
 12 13  2  0
 14 13  1  0
 15 16  2  0
 15  3  1  0
 17 15  1  0
 18 19  1  0
 19 20  2  0
 20 17  1  0
 21 20  1  0
 22 18  1  0
 22 21  2  0
 23 24  1  0
 23 22  1  0
 23 25  1  0
 24 25  1  0
  1 26  1  6
  2 27  1  0
  2 28  1  0
  3 29  1  6
  5 30  1  0
  9 31  1  0
 11 32  1  0
 13 33  1  0
 18 34  1  0
 21 35  1  0
 23 36  1  0
 24 37  1  0
 24 38  1  0
 25 39  1  0
 25 40  1  0
M  ISO  8  26  13  27  13  28  13  29  13  30  14  31  14  32  14  33  14
M  ISO  7  34   9  35  14  36  13  37  13  38  13  39  13  40  13
M  END
>  <minimizedAffinity>  (1) 
-4.73055172

>  <minimizedRMSD>  (1) 
5.50854206

$$$$
