
     RDKit          3D

 36 37  0  0  0  0  0  0  0  0999 V2000
   46.5180   30.5890   47.0300 C   0  0  0  0  0  0  0  0  0  0  0  0
   45.3050   33.9940   46.3390 C   0  0  0  0  0  0  0  0  0  0  0  0
   45.1540   34.0450   44.9470 C   0  0  0  0  0  0  0  0  0  0  0  0
   45.4900   32.8510   44.2790 C   0  0  0  0  0  0  0  0  0  0  0  0
   45.9180   31.7800   44.9710 N   0  0  0  0  0  0  0  0  0  0  0  0
   46.0450   31.7850   46.3120 C   0  0  0  0  0  0  0  0  0  0  0  0
   45.7360   32.8900   46.9560 N   0  0  0  0  0  0  0  0  0  0  0  0
   44.7000   35.2030   44.2590 N   0  0  0  0  0  0  0  0  0  0  0  0
   45.1140   35.5490   42.9350 C   0  0  0  0  0  0  0  0  0  0  0  0
   46.3810   35.3390   42.6620 N   0  0  0  0  0  0  0  0  0  0  0  0
   44.0690   36.0840   42.0880 N   0  0  0  0  0  0  0  0  0  0  0  0
   46.7760   35.5720   41.7390 H   0  0  0  0  0  0  0  0  0  0  0  0
   45.5570   29.4230   46.7330 C   0  0  0  0  0  0  0  0  0  0  0  0
   47.8700   30.2240   46.4120 C   0  0  0  0  0  0  0  0  0  0  0  0
   46.6360   30.7150   48.5120 C   0  0  0  0  0  0  0  0  0  0  0  0
   47.9750   30.7730   49.0700 C   0  0  0  0  0  0  0  0  0  0  0  0
   48.6830   31.9680   48.9900 C   0  0  0  0  0  0  0  0  0  0  0  0
   49.9060   31.8740   49.5650 N   0  0  0  0  0  0  0  0  0  0  0  0
   50.0050   30.6040   50.0260 C   0  0  0  0  0  0  0  0  0  0  0  0
   48.8560   29.9960   49.7160 N   0  0  0  0  0  0  0  0  0  0  0  0
   45.0629   34.8841   46.9382 H   0  0  0  0  0  0  0  0  0  0  0  0
   45.4017   32.7942   43.1840 H   0  0  0  0  0  0  0  0  0  0  0  0
   44.0367   35.8268   44.7405 H   0  0  0  0  0  0  0  0  0  0  0  0
   44.2821   36.3589   41.1185 H   0  0  0  0  0  0  0  0  0  0  0  0
   43.1124   36.1897   42.4548 H   0  0  0  0  0  0  0  0  0  0  0  0
   45.2010   28.9910   47.6799 H   0  0  0  0  0  0  0  0  0  0  0  0
   44.6987   29.7938   46.1535 H   0  0  0  0  0  0  0  0  0  0  0  0
   46.0849   28.6513   46.1535 H   0  0  0  0  0  0  0  0  0  0  0  0
   48.5981   30.0274   47.2128 H   0  0  0  0  0  0  0  0  0  0  0  0
   47.7577   29.3240   45.7896 H   0  0  0  0  0  0  0  0  0  0  0  0
   48.2258   31.0582   45.7896 H   0  0  0  0  0  0  0  0  0  0  0  0
   46.1143   31.6371   48.8080 H   0  0  0  0  0  0  0  0  0  0  0  0
   46.2038   29.7851   48.9102 H   0  0  0  0  0  0  0  0  0  0  0  0
   48.2953   32.8816   48.5157 H   0  0  0  0  0  0  0  0  0  0  0  0
   50.8629   30.1602   50.5523 H   0  0  0  0  0  0  0  0  0  0  0  0
   48.6634   29.0125   49.9536 H   0  0  0  0  0  0  0  0  0  0  0  0
  1 15  1  0
  2  7  2  0
  3  2  1  0
  4  3  2  0
  4  5  1  0
  5  6  2  0
  6  7  1  0
  6  1  1  0
  8  3  1  0
  9  8  1  0
 10  9  2  0
 11  9  1  0
 12 10  1  0
 13  1  1  0
 14  1  1  0
 15 16  1  0
 16 20  1  0
 17 16  2  0
 17 18  1  0
 18 19  2  0
 20 19  1  0
  2 21  1  0
  4 22  1  0
  8 23  1  0
 11 24  1  0
 11 25  1  0
 13 26  1  0
 13 27  1  0
 13 28  1  0
 14 29  1  0
 14 30  1  0
 14 31  1  0
 15 32  1  0
 15 33  1  0
 17 34  1  0
 19 35  1  0
 20 36  1  0
M  ISO  8  21  14  22  14  26   8  27   8  28   8  29   8  30   8  31   8
M  ISO  5  32   8  33   8  34  14  35  14  36   9
M  END
>  <minimizedAffinity>  (1) 
-4.80180073

>  <minimizedRMSD>  (1) 
1.48683655

$$$$
