
     RDKit          3D

 40 41  0  0  0  0  0  0  0  0999 V2000
   46.9630   30.1660   46.1970 C   0  0  0  0  0  0  0  0  0  0  0  0
   45.7720   33.6380   45.9720 C   0  0  0  0  0  0  0  0  0  0  0  0
   45.2620   33.7620   44.6750 C   0  0  0  0  0  0  0  0  0  0  0  0
   45.3530   32.6070   43.9110 C   0  0  0  0  0  0  0  0  0  0  0  0
   45.8950   31.4750   44.4070 N   0  0  0  0  0  0  0  0  0  0  0  0
   46.3740   31.4010   45.6590 C   0  0  0  0  0  0  0  0  0  0  0  0
   46.2950   32.4880   46.4000 N   0  0  0  0  0  0  0  0  0  0  0  0
   44.6950   34.9600   44.1650 N   0  0  0  0  0  0  0  0  0  0  0  0
   45.0750   35.5530   42.9190 C   0  0  0  0  0  0  0  0  0  0  0  0
   46.3550   35.5010   42.6230 N   0  0  0  0  0  0  0  0  0  0  0  0
   43.9770   36.1270   42.1650 N   0  0  0  0  0  0  0  0  0  0  0  0
   46.7120   35.9130   41.7510 H   0  0  0  0  0  0  0  0  0  0  0  0
   46.0840   28.9760   45.7120 C   0  0  0  0  0  0  0  0  0  0  0  0
   48.3050   29.9950   45.4890 C   0  0  0  0  0  0  0  0  0  0  0  0
   47.0370   30.0400   47.6660 C   0  0  0  0  0  0  0  0  0  0  0  0
   48.2090   30.3950   48.3680 N   0  0  0  0  0  0  0  0  0  0  0  0
   48.6900   31.5420   48.8700 C   0  0  0  0  0  0  0  0  0  0  0  0
   49.8520   31.7130   49.5550 C   0  0  0  0  0  0  0  0  0  0  0  0
   50.6680   30.6270   49.7920 C   0  0  0  0  0  0  0  0  0  0  0  0
   51.8620   30.8570   50.5070 N   0  0  0  0  0  0  0  0  0  0  0  0
   50.2410   29.4300   49.3110 N   0  0  0  0  0  0  0  0  0  0  0  0
   49.0600   29.3530   48.6350 C   0  0  0  0  0  0  0  0  0  0  0  0
   48.9470   28.1180   48.3240 O   0  0  0  0  0  0  0  0  0  0  0  0
   45.7411   34.5035   46.6502 H   0  0  0  0  0  0  0  0  0  0  0  0
   44.9749   32.6144   42.8781 H   0  0  0  0  0  0  0  0  0  0  0  0
   43.9683   35.4293   44.7241 H   0  0  0  0  0  0  0  0  0  0  0  0
   44.1560   36.5758   41.2554 H   0  0  0  0  0  0  0  0  0  0  0  0
   43.0182   36.0858   42.5392 H   0  0  0  0  0  0  0  0  0  0  0  0
   45.6850   28.4359   46.5833 H   0  0  0  0  0  0  0  0  0  0  0  0
   45.2505   29.3593   45.1050 H   0  0  0  0  0  0  0  0  0  0  0  0
   46.6954   28.2920   45.1050 H   0  0  0  0  0  0  0  0  0  0  0  0
   49.1043   29.8932   46.2379 H   0  0  0  0  0  0  0  0  0  0  0  0
   48.2752   29.0934   44.8596 H   0  0  0  0  0  0  0  0  0  0  0  0
   48.5023   30.8753   44.8596 H   0  0  0  0  0  0  0  0  0  0  0  0
   46.2272   30.6624   48.0745 H   0  0  0  0  0  0  0  0  0  0  0  0
   46.9840   28.9519   47.8184 H   0  0  0  0  0  0  0  0  0  0  0  0
   48.0780   32.4420   48.7102 H   0  0  0  0  0  0  0  0  0  0  0  0
   50.1392   32.7110   49.9177 H   0  0  0  0  0  0  0  0  0  0  0  0
   52.5015   30.0747   50.7067 H   0  0  0  0  0  0  0  0  0  0  0  0
   52.0943   31.8073   50.8294 H   0  0  0  0  0  0  0  0  0  0  0  0
  1 15  1  0
  2  7  2  0
  3  2  1  0
  4  5  1  0
  4  3  2  0
  5  6  2  0
  6  1  1  0
  6  7  1  0
  8  3  1  0
  9  8  1  0
 10  9  2  0
 11  9  1  0
 12 10  1  0
 13  1  1  0
 14  1  1  0
 15 16  1  0
 16 22  1  0
 16 17  1  0
 17 18  2  0
 18 19  1  0
 19 20  1  0
 21 19  2  0
 22 21  1  0
 23 22  2  0
  2 24  1  0
  4 25  1  0
  8 26  1  0
 11 27  1  0
 11 28  1  0
 13 29  1  0
 13 30  1  0
 13 31  1  0
 14 32  1  0
 14 33  1  0
 14 34  1  0
 15 35  1  0
 15 36  1  0
 17 37  1  0
 18 38  1  0
 20 39  1  0
 20 40  1  0
M  ISO  8  24  14  25  14  29   8  30   8  31   8  32   8  33   8  34   8
M  ISO  4  35   8  36   8  37  14  38  14
M  END
>  <minimizedAffinity>  (1) 
-4.74764061

>  <minimizedRMSD>  (1) 
1.45669508

$$$$
