
     RDKit          3D

 42 43  0  0  0  0  0  0  0  0999 V2000
   46.7050   30.2310   46.3270 C   0  0  0  0  0  0  0  0  0  0  0  0
   45.5810   33.7510   46.0270 C   0  0  0  0  0  0  0  0  0  0  0  0
   45.1860   33.8830   44.6800 C   0  0  0  0  0  0  0  0  0  0  0  0
   45.3310   32.7270   43.9270 C   0  0  0  0  0  0  0  0  0  0  0  0
   45.8130   31.5970   44.4750 N   0  0  0  0  0  0  0  0  0  0  0  0
   46.1780   31.5210   45.7690 C   0  0  0  0  0  0  0  0  0  0  0  0
   46.0520   32.6050   46.5190 N   0  0  0  0  0  0  0  0  0  0  0  0
   44.6810   35.0940   44.1350 N   0  0  0  0  0  0  0  0  0  0  0  0
   45.0840   35.6260   42.8850 C   0  0  0  0  0  0  0  0  0  0  0  0
   46.3700   35.5000   42.5900 N   0  0  0  0  0  0  0  0  0  0  0  0
   44.0370   36.2310   42.1050 N   0  0  0  0  0  0  0  0  0  0  0  0
   46.7540   35.8590   41.7040 H   0  0  0  0  0  0  0  0  0  0  0  0
   45.7250   29.7710   47.4280 C   0  0  0  0  0  0  0  0  0  0  0  0
   46.6270   29.2350   45.2010 C   0  0  0  0  0  0  0  0  0  0  0  0
   48.0390   30.3680   46.9540 C   0  0  0  0  0  0  0  0  0  0  0  0
   48.1620   30.2670   48.4230 C   0  0  0  0  0  0  0  0  0  0  0  0
   49.2460   29.4040   48.9680 C   0  0  0  0  0  0  0  0  0  0  0  0
   49.9050   30.2230   50.0860 C   0  0  0  0  0  0  0  0  0  0  0  0
   49.8160   31.6320   49.5150 C   0  0  0  0  0  0  0  0  0  0  0  0
   48.4180   31.6370   48.9900 C   0  0  0  0  0  0  0  0  0  0  0  0
   45.4978   34.6220   46.6937 H   0  0  0  0  0  0  0  0  0  0  0  0
   45.0472   32.7345   42.8643 H   0  0  0  0  0  0  0  0  0  0  0  0
   43.9806   35.6161   44.6807 H   0  0  0  0  0  0  0  0  0  0  0  0
   44.2515   36.6401   41.1844 H   0  0  0  0  0  0  0  0  0  0  0  0
   43.0731   36.2549   42.4673 H   0  0  0  0  0  0  0  0  0  0  0  0
   46.1617   29.9760   48.4166 H   0  0  0  0  0  0  0  0  0  0  0  0
   44.7759   30.3177   47.3259 H   0  0  0  0  0  0  0  0  0  0  0  0
   45.5392   28.6916   47.3259 H   0  0  0  0  0  0  0  0  0  0  0  0
   46.5474   28.2190   45.6150 H   0  0  0  0  0  0  0  0  0  0  0  0
   45.7429   29.4492   44.5826 H   0  0  0  0  0  0  0  0  0  0  0  0
   47.5337   29.3090   44.5826 H   0  0  0  0  0  0  0  0  0  0  0  0
   48.6778   29.5826   46.5239 H   0  0  0  0  0  0  0  0  0  0  0  0
   48.3213   31.4094   46.7402 H   0  0  0  0  0  0  0  0  0  0  0  0
   47.2100   29.8006   48.7166 H   0  0  0  0  0  0  0  0  0  0  0  0
   48.8268   28.4707   49.3721 H   0  0  0  0  0  0  0  0  0  0  0  0
   49.9705   29.1216   48.1900 H   0  0  0  0  0  0  0  0  0  0  0  0
   49.3487   30.1354   51.0309 H   0  0  0  0  0  0  0  0  0  0  0  0
   50.9267   29.9023   50.3374 H   0  0  0  0  0  0  0  0  0  0  0  0
   49.9575   32.3942   50.2955 H   0  0  0  0  0  0  0  0  0  0  0  0
   50.5842   31.8668   48.7635 H   0  0  0  0  0  0  0  0  0  0  0  0
   48.3116   32.3984   48.2033 H   0  0  0  0  0  0  0  0  0  0  0  0
   47.6979   31.8755   49.7866 H   0  0  0  0  0  0  0  0  0  0  0  0
  1 15  1  0
  1 13  1  0
  2  7  2  0
  3  2  1  0
  4  5  1  0
  4  3  2  0
  5  6  2  0
  6  1  1  0
  6  7  1  0
  8  3  1  0
  9  8  1  0
 10  9  2  0
 11  9  1  0
 12 10  1  0
 14  1  1  0
 15 16  1  0
 16 17  1  0
 16 20  1  0
 17 18  1  0
 19 18  1  0
 20 19  1  0
  2 21  1  0
  4 22  1  0
  8 23  1  0
 11 24  1  0
 11 25  1  0
 13 26  1  0
 13 27  1  0
 13 28  1  0
 14 29  1  0
 14 30  1  0
 14 31  1  0
 15 32  1  0
 15 33  1  0
 16 34  1  0
 17 35  1  0
 17 36  1  0
 18 37  1  0
 18 38  1  0
 19 39  1  0
 19 40  1  0
 20 41  1  0
 20 42  1  0
M  ISO  8  21  14  22  14  26   8  27   8  28   8  29   8  30   8  31   8
M  ISO  8  32   8  33   8  34  13  35  13  36  13  37  13  38  13  39  13
M  ISO  3  40  13  41  13  42  13
M  END
>  <minimizedAffinity>  (1) 
-4.63453865

>  <minimizedRMSD>  (1) 
1.22325552

$$$$
