
     RDKit          3D

 32 35  0  0  0  0  0  0  0  0999 V2000
   44.0850   35.2650   42.7990 C   0  0  0  0  0  0  0  0  0  0  0  0
   45.0140   34.2430   42.4880 C   0  0  0  0  0  0  0  0  0  0  0  0
   45.8730   33.8120   43.4920 C   0  0  0  0  0  0  0  0  0  0  0  0
   45.7760   34.3970   44.7270 N   0  0  0  0  0  0  0  0  0  0  0  0
   44.8680   35.3760   44.9830 C   0  0  0  0  0  0  0  0  0  0  0  0
   44.0450   35.7910   44.0250 N   0  0  0  0  0  0  0  0  0  0  0  0
   46.8680   32.8010   43.3160 C   0  0  0  0  0  0  0  0  0  0  0  0
   46.4850   31.4680   43.5260 C   0  0  0  0  0  0  0  0  0  0  0  0
   47.3830   30.4360   43.4050 C   0  0  0  0  0  0  0  0  0  0  0  0
   48.7050   30.5990   43.0770 C   0  0  0  0  0  0  0  0  0  0  0  0
   49.0850   31.9110   42.8720 C   0  0  0  0  0  0  0  0  0  0  0  0
   50.4020   32.2400   42.5330 C   0  0  0  0  0  0  0  0  0  0  0  0
   50.8260   33.5340   42.3200 C   0  0  0  0  0  0  0  0  0  0  0  0
   49.9090   34.5840   42.4440 C   0  0  0  0  0  0  0  0  0  0  0  0
   48.5820   34.2850   42.7820 C   0  0  0  0  0  0  0  0  0  0  0  0
   48.2190   32.9740   42.9810 C   0  0  0  0  0  0  0  0  0  0  0  0
   45.0410   33.7440   41.1780 N   0  0  0  0  0  0  0  0  0  0  0  0
   44.1310   32.9910   40.4900 C   0  0  0  0  0  0  0  0  0  0  0  0
   44.5710   32.7520   39.2520 N   0  0  0  0  0  0  0  0  0  0  0  0
   45.7720   33.3530   39.1370 C   0  0  0  0  0  0  0  0  0  0  0  0
   45.9970   33.9260   40.3160 N   0  0  0  0  0  0  0  0  0  0  0  0
   43.3920   35.6277   42.0256 H   0  0  0  0  0  0  0  0  0  0  0  0
   44.8142   35.8258   45.9854 H   0  0  0  0  0  0  0  0  0  0  0  0
   45.4418   31.2442   43.7936 H   0  0  0  0  0  0  0  0  0  0  0  0
   47.0189   29.4133   43.5824 H   0  0  0  0  0  0  0  0  0  0  0  0
   49.4043   29.7549   42.9849 H   0  0  0  0  0  0  0  0  0  0  0  0
   51.1349   31.4260   42.4315 H   0  0  0  0  0  0  0  0  0  0  0  0
   51.8738   33.7393   42.0554 H   0  0  0  0  0  0  0  0  0  0  0  0
   50.2240   35.6250   42.2792 H   0  0  0  0  0  0  0  0  0  0  0  0
   47.8396   35.0899   42.8868 H   0  0  0  0  0  0  0  0  0  0  0  0
   43.1739   32.6333   40.8975 H   0  0  0  0  0  0  0  0  0  0  0  0
   46.4279   33.3667   38.2540 H   0  0  0  0  0  0  0  0  0  0  0  0
  1  6  2  0
  2  1  1  0
  2  3  2  0
  3  4  1  0
  4  5  2  0
  6  5  1  0
  7  3  1  0
  7  8  2  0
  9  8  1  0
 10  9  2  0
 11 16  2  0
 11 10  1  0
 12 11  1  0
 13 14  1  0
 13 12  2  0
 14 15  2  0
 15 16  1  0
 16  7  1  0
 17  2  1  0
 18 17  1  0
 19 18  2  0
 20 19  1  0
 20 21  2  0
 21 17  1  0
  1 22  1  0
  5 23  1  0
  8 24  1  0
  9 25  1  0
 10 26  1  0
 12 27  1  0
 13 28  1  0
 14 29  1  0
 15 30  1  0
 18 31  1  0
 20 32  1  0
M  ISO  8  22  14  23  14  24  14  25  14  26  14  27  14  28  14  29  14
M  ISO  3  30  14  31  14  32  14
M  END
>  <minimizedAffinity>  (1) 
-4.82269812

>  <minimizedRMSD>  (1) 
2.776263

$$$$
