
     RDKit          3D

 39 42  0  0  1  0  0  0  0  0999 V2000
   48.0920   33.3720   39.1060 C   0  0  2  0  0  0  0  0  0  0  0  0
   48.2540   34.2990   37.8850 C   0  0  0  0  0  0  0  0  0  0  0  0
   47.9380   32.8280   37.7080 C   0  0  1  0  0  0  0  0  0  0  0  0
   45.6490   34.0680   41.6900 N   0  0  0  0  0  0  0  0  0  0  0  0
   44.8180   33.8550   40.6250 C   0  0  0  0  0  0  0  0  0  0  0  0
   45.5380   33.5720   39.5380 N   0  0  0  0  0  0  0  0  0  0  0  0
   46.8590   33.6080   39.9290 C   0  0  0  0  0  0  0  0  0  0  0  0
   46.8400   33.9080   41.2100 N   0  0  0  0  0  0  0  0  0  0  0  0
   44.7660   35.6770   43.2540 C   0  0  0  0  0  0  0  0  0  0  0  0
   45.3700   34.3960   43.0360 C   0  0  0  0  0  0  0  0  0  0  0  0
   45.6180   33.6170   44.1200 C   0  0  0  0  0  0  0  0  0  0  0  0
   45.2750   34.1110   45.3440 N   0  0  0  0  0  0  0  0  0  0  0  0
   44.7120   35.3120   45.5240 C   0  0  0  0  0  0  0  0  0  0  0  0
   44.4580   36.0980   44.4620 N   0  0  0  0  0  0  0  0  0  0  0  0
   48.9360   31.8750   37.2560 C   0  0  0  0  0  0  0  0  0  0  0  0
   48.5400   30.6930   36.9950 O   0  0  0  0  0  0  0  0  0  0  0  0
   50.2570   32.2140   37.1020 O   0  0  0  0  0  0  0  0  0  0  0  0
   53.1310   31.5060   38.9470 N   0  0  0  0  0  0  0  0  0  0  0  0
   52.4950   31.9650   37.8520 N   0  0  0  0  0  0  0  0  0  0  0  0
   51.1660   31.8250   38.0620 C   0  0  0  0  0  0  0  0  0  0  0  0
   50.9400   31.2750   39.2940 C   0  0  0  0  0  0  0  0  0  0  0  0
   52.2140   31.0840   39.8330 C   0  0  0  0  0  0  0  0  0  0  0  0
   52.5570   30.5130   41.1580 C   0  0  0  0  0  0  0  0  0  0  0  0
   51.4710   30.8350   42.1770 C   0  0  0  0  0  0  0  0  0  0  0  0
   48.6991   33.0769   39.9745 H   0  0  0  0  0  0  0  0  0  0  0  0
   47.4901   35.0587   37.6630 H   0  0  0  0  0  0  0  0  0  0  0  0
   49.0347   34.9818   37.5184 H   0  0  0  0  0  0  0  0  0  0  0  0
   47.1596   32.3012   37.1366 H   0  0  0  0  0  0  0  0  0  0  0  0
   43.7199   33.9089   40.6594 H   0  0  0  0  0  0  0  0  0  0  0  0
   44.5546   36.3244   42.3902 H   0  0  0  0  0  0  0  0  0  0  0  0
   46.0788   32.6237   44.0148 H   0  0  0  0  0  0  0  0  0  0  0  0
   44.4577   35.6554   46.5376 H   0  0  0  0  0  0  0  0  0  0  0  0
   54.1518   31.4825   39.0825 H   0  0  0  0  0  0  0  0  0  0  0  0
   49.9710   31.0364   39.7568 H   0  0  0  0  0  0  0  0  0  0  0  0
   52.6552   29.4212   41.0669 H   0  0  0  0  0  0  0  0  0  0  0  0
   53.5058   30.9528   41.4993 H   0  0  0  0  0  0  0  0  0  0  0  0
   51.8746   30.7153   43.1932 H   0  0  0  0  0  0  0  0  0  0  0  0
   51.1325   31.8722   42.0367 H   0  0  0  0  0  0  0  0  0  0  0  0
   50.6218   30.1500   42.0367 H   0  0  0  0  0  0  0  0  0  0  0  0
  1  7  1  0
  2  1  1  0
  3  2  1  0
  3  1  1  0
  4 10  1  0
  5  4  1  0
  6  7  1  0
  6  5  2  0
  7  8  2  0
  8  4  1  0
  9 14  2  0
 10  9  1  0
 10 11  2  0
 11 12  1  0
 12 13  2  0
 14 13  1  0
 15  3  1  0
 16 15  2  0
 17 15  1  0
 17 20  1  0
 18 22  1  0
 19 20  2  0
 19 18  1  0
 20 21  1  0
 21 22  2  0
 22 23  1  0
 23 24  1  0
  1 25  1  1
  2 26  1  0
  2 27  1  0
  3 28  1  1
  5 29  1  0
  9 30  1  0
 11 31  1  0
 13 32  1  0
 18 33  1  0
 21 34  1  0
 23 35  1  0
 23 36  1  0
 24 37  1  0
 24 38  1  0
 24 39  1  0
M  ISO  8  25  13  26  13  27  13  28  13  29  14  30  14  31  14  32  14
M  ISO  7  33   9  34  14  35   8  36   8  37   8  38   8  39   8
M  END
>  <minimizedAffinity>  (1) 
-4.58239222

>  <minimizedRMSD>  (1) 
0.362982005

$$$$
