
     RDKit          3D

 51 53  0  0  1  0  0  0  0  0999 V2000
   47.7820   29.7580   44.3520 C   0  0  0  0  0  0  0  0  0  0  0  0
   46.4070   33.1450   44.9820 C   0  0  0  0  0  0  0  0  0  0  0  0
   45.3720   33.2850   44.0430 C   0  0  0  0  0  0  0  0  0  0  0  0
   45.1870   32.1760   43.2110 C   0  0  0  0  0  0  0  0  0  0  0  0
   45.9680   31.0800   43.3380 N   0  0  0  0  0  0  0  0  0  0  0  0
   46.9530   30.9990   44.2620 C   0  0  0  0  0  0  0  0  0  0  0  0
   47.1560   32.0500   45.0780 N   0  0  0  0  0  0  0  0  0  0  0  0
   44.5670   34.4630   43.9400 N   0  0  0  0  0  0  0  0  0  0  0  0
   44.7690   35.4550   42.9160 C   0  0  0  0  0  0  0  0  0  0  0  0
   46.0140   35.7190   42.5920 N   0  0  0  0  0  0  0  0  0  0  0  0
   43.5290   36.0060   42.4070 N   0  0  0  0  0  0  0  0  0  0  0  0
   46.2300   36.4150   41.8650 H   0  0  0  0  0  0  0  0  0  0  0  0
   47.1960   28.7370   43.3330 C   0  0  0  0  0  0  0  0  0  0  0  0
   49.1570   30.1160   43.8930 C   0  0  0  0  0  0  0  0  0  0  0  0
   47.6910   29.0880   45.6920 C   0  0  0  0  0  0  0  0  0  0  0  0
   48.8300   29.0300   46.4920 N   0  0  0  0  0  0  0  0  0  0  0  0
   49.4660   27.8070   46.7670 C   0  0  0  0  0  0  0  0  0  0  0  0
   49.3870   27.4250   48.2320 C   0  0  0  0  0  0  0  0  0  0  0  0
   49.7130   28.5170   49.1780 C   0  0  0  0  0  0  0  0  0  0  0  0
   49.9780   29.8340   48.5110 C   0  0  0  0  0  0  0  0  0  0  0  0
   48.8670   30.0550   47.4870 C   0  0  2  0  0  0  0  0  0  0  0  0
   47.5770   30.3820   48.0790 C   0  0  0  0  0  0  0  0  0  0  0  0
   47.1470   31.3960   48.8170 C   0  0  0  0  0  0  0  0  0  0  0  0
   45.8550   31.4960   49.2740 C   0  0  0  0  0  0  0  0  0  0  0  0
   45.0280   30.4090   48.8800 C   0  0  0  0  0  0  0  0  0  0  0  0
   46.0820   29.3310   47.9120 S   0  0  0  0  0  0  0  0  0  0  0  0
   46.6075   33.9796   45.6699 H   0  0  0  0  0  0  0  0  0  0  0  0
   44.3976   32.1959   42.4452 H   0  0  0  0  0  0  0  0  0  0  0  0
   43.8124   34.6074   44.6260 H   0  0  0  0  0  0  0  0  0  0  0  0
   43.5492   36.7253   41.6701 H   0  0  0  0  0  0  0  0  0  0  0  0
   42.6275   35.6783   42.7822 H   0  0  0  0  0  0  0  0  0  0  0  0
   46.7201   27.9079   43.8772 H   0  0  0  0  0  0  0  0  0  0  0  0
   46.4480   29.2380   42.7010 H   0  0  0  0  0  0  0  0  0  0  0  0
   48.0059   28.3438   42.7010 H   0  0  0  0  0  0  0  0  0  0  0  0
   49.8032   30.2842   44.7672 H   0  0  0  0  0  0  0  0  0  0  0  0
   49.5667   29.2946   43.2868 H   0  0  0  0  0  0  0  0  0  0  0  0
   49.1141   31.0329   43.2868 H   0  0  0  0  0  0  0  0  0  0  0  0
   46.9185   29.6193   46.2673 H   0  0  0  0  0  0  0  0  0  0  0  0
   47.4823   28.0355   45.4496 H   0  0  0  0  0  0  0  0  0  0  0  0
   48.9847   27.0178   46.1707 H   0  0  0  0  0  0  0  0  0  0  0  0
   50.5294   27.9192   46.5089 H   0  0  0  0  0  0  0  0  0  0  0  0
   48.3621   27.0851   48.4420 H   0  0  0  0  0  0  0  0  0  0  0  0
   50.1448   26.6433   48.3890 H   0  0  0  0  0  0  0  0  0  0  0  0
   48.8664   28.6420   49.8691 H   0  0  0  0  0  0  0  0  0  0  0  0
   50.6390   28.2273   49.6963 H   0  0  0  0  0  0  0  0  0  0  0  0
   49.9690   30.6425   49.2569 H   0  0  0  0  0  0  0  0  0  0  0  0
   50.9636   29.8323   48.0226 H   0  0  0  0  0  0  0  0  0  0  0  0
   49.1316   30.9717   46.9395 H   0  0  0  0  0  0  0  0  0  0  0  0
   47.8578   32.1947   49.0756 H   0  0  0  0  0  0  0  0  0  0  0  0
   45.4953   32.3364   49.8859 H   0  0  0  0  0  0  0  0  0  0  0  0
   43.9646   30.2609   49.1191 H   0  0  0  0  0  0  0  0  0  0  0  0
  1 15  1  0
  2  7  2  0
  3  2  1  0
  4  5  1  0
  4  3  2  0
  5  6  2  0
  6  1  1  0
  6  7  1  0
  8  3  1  0
  9  8  1  0
 10  9  2  0
 11  9  1  0
 12 10  1  0
 13  1  1  0
 14  1  1  0
 15 16  1  0
 16 17  1  0
 16 21  1  0
 17 18  1  0
 18 19  1  0
 20 19  1  0
 21 22  1  0
 21 20  1  0
 22 23  2  0
 23 24  1  0
 25 24  2  0
 26 22  1  0
 26 25  1  0
  2 27  1  0
  4 28  1  0
  8 29  1  0
 11 30  1  0
 11 31  1  0
 13 32  1  0
 13 33  1  0
 13 34  1  0
 14 35  1  0
 14 36  1  0
 14 37  1  0
 15 38  1  0
 15 39  1  0
 17 40  1  0
 17 41  1  0
 18 42  1  0
 18 43  1  0
 19 44  1  0
 19 45  1  0
 20 46  1  0
 20 47  1  0
 21 48  1  6
 23 49  1  0
 24 50  1  0
 25 51  1  0
M  ISO  8  27  14  28  14  32   8  33   8  34   8  35   8  36   8  37   8
M  ISO  8  38   8  39   8  40  13  41  13  42  13  43  13  44  13  45  13
M  ISO  6  46  13  47  13  48  13  49  14  50  14  51  14
M  END
>  <minimizedAffinity>  (1) 
-4.47761202

>  <minimizedRMSD>  (1) 
2.09730053

$$$$
