
     RDKit          3D

 23 25  0  0  0  0  0  0  0  0999 V2000
   45.3240   36.1560   43.2820 C   0  0  0  0  0  0  0  0  0  0  0  0
   45.9450   34.9070   43.0960 C   0  0  0  0  0  0  0  0  0  0  0  0
   45.8520   33.9580   44.1090 C   0  0  0  0  0  0  0  0  0  0  0  0
   45.1610   34.2950   45.2250 N   0  0  0  0  0  0  0  0  0  0  0  0
   44.5770   35.4920   45.3790 C   0  0  0  0  0  0  0  0  0  0  0  0
   44.6590   36.4190   44.4060 N   0  0  0  0  0  0  0  0  0  0  0  0
   46.6410   34.6870   41.8690 N   0  0  0  0  0  0  0  0  0  0  0  0
   46.2320   34.0650   40.7360 C   0  0  0  0  0  0  0  0  0  0  0  0
   47.2220   34.0910   39.8350 N   0  0  0  0  0  0  0  0  0  0  0  0
   48.2610   34.7330   40.4050 C   0  0  0  0  0  0  0  0  0  0  0  0
   47.8740   35.0820   41.6450 N   0  0  0  0  0  0  0  0  0  0  0  0
   46.4780   32.7110   43.9140 N   0  0  0  0  0  0  0  0  0  0  0  0
   45.7020   31.7050   43.5340 N   0  0  0  0  0  0  0  0  0  0  0  0
   46.4290   30.5800   43.3860 C   0  0  0  0  0  0  0  0  0  0  0  0
   47.7370   30.8990   43.6900 C   0  0  0  0  0  0  0  0  0  0  0  0
   47.7420   32.2410   44.0190 C   0  0  0  0  0  0  0  0  0  0  0  0
   45.3881   36.9206   42.4938 H   0  0  0  0  0  0  0  0  0  0  0  0
   44.0280   35.7179   46.3051 H   0  0  0  0  0  0  0  0  0  0  0  0
   45.2424   33.6104   40.5813 H   0  0  0  0  0  0  0  0  0  0  0  0
   49.2393   34.9334   39.9438 H   0  0  0  0  0  0  0  0  0  0  0  0
   46.0511   29.5932   43.0804 H   0  0  0  0  0  0  0  0  0  0  0  0
   48.6026   30.2204   43.6736 H   0  0  0  0  0  0  0  0  0  0  0  0
   48.6240   32.8275   44.3159 H   0  0  0  0  0  0  0  0  0  0  0  0
  1  6  2  0
  2  1  1  0
  2  3  2  0
  3  4  1  0
  4  5  2  0
  6  5  1  0
  7  2  1  0
  8  7  1  0
  9 10  1  0
  9  8  2  0
 10 11  2  0
 11  7  1  0
 12 16  1  0
 12  3  1  0
 13 12  1  0
 14 13  2  0
 14 15  1  0
 15 16  2  0
  1 17  1  0
  5 18  1  0
  8 19  1  0
 10 20  1  0
 14 21  1  0
 15 22  1  0
 16 23  1  0
M  ISO  7  17  14  18  14  19  14  20  14  21  14  22  14  23  14
M  END
>  <minimizedAffinity>  (1) 
-4.19913721

>  <minimizedRMSD>  (1) 
2.78578234

$$$$
