
     RDKit          3D

 31 33  0  0  0  0  0  0  0  0999 V2000
   45.3170   36.1240   43.1430 C   0  0  0  0  0  0  0  0  0  0  0  0
   45.8070   34.8090   42.9600 C   0  0  0  0  0  0  0  0  0  0  0  0
   45.6690   33.8800   43.9900 C   0  0  0  0  0  0  0  0  0  0  0  0
   45.0640   34.2930   45.1260 N   0  0  0  0  0  0  0  0  0  0  0  0
   44.6030   35.5440   45.2860 C   0  0  0  0  0  0  0  0  0  0  0  0
   44.7310   36.4400   44.3060 N   0  0  0  0  0  0  0  0  0  0  0  0
   46.4240   34.5160   41.7140 N   0  0  0  0  0  0  0  0  0  0  0  0
   45.9130   33.8960   40.5980 C   0  0  0  0  0  0  0  0  0  0  0  0
   46.8510   33.8290   39.6410 N   0  0  0  0  0  0  0  0  0  0  0  0
   47.9620   34.4150   40.1670 C   0  0  0  0  0  0  0  0  0  0  0  0
   47.6680   34.8170   41.4180 N   0  0  0  0  0  0  0  0  0  0  0  0
   46.1390   32.5580   43.8380 N   0  0  0  0  0  0  0  0  0  0  0  0
   45.5860   31.3000   43.3820 C   0  0  0  0  0  0  0  0  0  0  0  0
   45.4970   30.3770   44.6050 C   0  0  0  0  0  0  0  0  0  0  0  0
   46.9180   30.0400   44.9970 C   0  0  0  0  0  0  0  0  0  0  0  0
   47.9050   30.9290   44.3240 C   0  0  0  0  0  0  0  0  0  0  0  0
   47.5220   32.3690   44.2340 C   0  0  0  0  0  0  0  0  0  0  0  0
   45.4155   36.8739   42.3443 H   0  0  0  0  0  0  0  0  0  0  0  0
   44.1172   35.8315   46.2301 H   0  0  0  0  0  0  0  0  0  0  0  0
   44.8866   33.5117   40.5038 H   0  0  0  0  0  0  0  0  0  0  0  0
   48.9299   34.5383   39.6590 H   0  0  0  0  0  0  0  0  0  0  0  0
   44.5844   31.4602   42.9564 H   0  0  0  0  0  0  0  0  0  0  0  0
   46.2187   30.8544   42.6002 H   0  0  0  0  0  0  0  0  0  0  0  0
   44.9870   30.8918   45.4326 H   0  0  0  0  0  0  0  0  0  0  0  0
   44.9231   29.4674   44.3743 H   0  0  0  0  0  0  0  0  0  0  0  0
   47.0227   30.1525   46.0862 H   0  0  0  0  0  0  0  0  0  0  0  0
   47.1219   29.0054   44.6840 H   0  0  0  0  0  0  0  0  0  0  0  0
   48.8519   30.8651   44.8801 H   0  0  0  0  0  0  0  0  0  0  0  0
   47.9727   30.5709   43.2861 H   0  0  0  0  0  0  0  0  0  0  0  0
   48.1702   32.8597   43.4930 H   0  0  0  0  0  0  0  0  0  0  0  0
   47.6433   32.8078   45.2354 H   0  0  0  0  0  0  0  0  0  0  0  0
  1  6  2  0
  2  1  1  0
  2  3  2  0
  3  4  1  0
  4  5  2  0
  6  5  1  0
  7  2  1  0
  8  7  1  0
  9 10  1  0
  9  8  2  0
 10 11  2  0
 11  7  1  0
 12  3  1  0
 12 17  1  0
 13 12  1  0
 13 14  1  0
 14 15  1  0
 16 15  1  0
 17 16  1  0
  1 18  1  0
  5 19  1  0
  8 20  1  0
 10 21  1  0
 13 22  1  0
 13 23  1  0
 14 24  1  0
 14 25  1  0
 15 26  1  0
 15 27  1  0
 16 28  1  0
 16 29  1  0
 17 30  1  0
 17 31  1  0
M  ISO  8  18  14  19  14  20  14  21  14  22  13  23  13  24  13  25  13
M  ISO  6  26  13  27  13  28  13  29  13  30  13  31  13
M  END
>  <minimizedAffinity>  (1) 
-4.23483419

>  <minimizedRMSD>  (1) 
2.68300176

$$$$
