
     RDKit          3D

 19 20  0  0  0  0  0  0  0  0999 V2000
   45.2300   35.9770   43.3410 C   0  0  0  0  0  0  0  0  0  0  0  0
   46.1450   34.9010   43.2220 C   0  0  0  0  0  0  0  0  0  0  0  0
   46.2740   33.9900   44.2830 C   0  0  0  0  0  0  0  0  0  0  0  0
   45.4980   34.2100   45.3680 N   0  0  0  0  0  0  0  0  0  0  0  0
   44.6390   35.2350   45.4580 C   0  0  0  0  0  0  0  0  0  0  0  0
   44.5070   36.1090   44.4550 N   0  0  0  0  0  0  0  0  0  0  0  0
   46.8900   34.7970   42.0340 N   0  0  0  0  0  0  0  0  0  0  0  0
   48.0850   35.3650   41.7020 C   0  0  0  0  0  0  0  0  0  0  0  0
   48.4550   35.0110   40.4640 N   0  0  0  0  0  0  0  0  0  0  0  0
   47.4760   34.1980   40.0000 C   0  0  0  0  0  0  0  0  0  0  0  0
   46.5620   34.1050   40.9790 N   0  0  0  0  0  0  0  0  0  0  0  0
   47.2110   32.8680   44.1830 C   0  0  0  0  0  0  0  0  0  0  0  0
   46.6660   31.9770   43.2370 F   0  0  0  0  0  0  0  0  0  0  0  0
   47.3150   32.0890   45.3130 F   0  0  0  0  0  0  0  0  0  0  0  0
   48.4280   33.1850   43.6020 F   0  0  0  0  0  0  0  0  0  0  0  0
   45.1164   36.6995   42.5194 H   0  0  0  0  0  0  0  0  0  0  0  0
   44.0349   35.3587   46.3689 H   0  0  0  0  0  0  0  0  0  0  0  0
   48.6668   36.0251   42.3622 H   0  0  0  0  0  0  0  0  0  0  0  0
   47.4374   33.7100   39.0149 H   0  0  0  0  0  0  0  0  0  0  0  0
  1  6  2  0
  2  1  1  0
  2  3  2  0
  3  4  1  0
  4  5  2  0
  6  5  1  0
  7  2  1  0
  8  7  1  0
  9  8  2  0
 10  9  1  0
 10 11  2  0
 11  7  1  0
 12  3  1  0
 12 14  1  0
 13 12  1  0
 15 12  1  0
  1 16  1  0
  5 17  1  0
  8 18  1  0
 10 19  1  0
M  ISO  4  16  14  17  14  18  14  19  14
M  END
>  <minimizedAffinity>  (1) 
-4.51308632

>  <minimizedRMSD>  (1) 
2.90308666

$$$$
