
     RDKit          3D

 27 30  0  0  0  0  0  0  0  0999 V2000
   44.7470   35.2690   43.3230 C   0  0  0  0  0  0  0  0  0  0  0  0
   45.5290   34.1030   43.4050 C   0  0  0  0  0  0  0  0  0  0  0  0
   45.8300   33.5870   44.6650 C   0  0  0  0  0  0  0  0  0  0  0  0
   45.3580   34.2280   45.7530 N   0  0  0  0  0  0  0  0  0  0  0  0
   44.6040   35.3500   45.6440 C   0  0  0  0  0  0  0  0  0  0  0  0
   44.3100   35.8550   44.4430 N   0  0  0  0  0  0  0  0  0  0  0  0
   46.6080   32.4290   44.7560 N   0  0  0  0  0  0  0  0  0  0  0  0
   47.6300   31.8420   44.0700 C   0  0  0  0  0  0  0  0  0  0  0  0
   47.9980   30.6960   44.6290 N   0  0  0  0  0  0  0  0  0  0  0  0
   47.2090   30.5080   45.7090 C   0  0  0  0  0  0  0  0  0  0  0  0
   47.2480   29.4420   46.5810 C   0  0  0  0  0  0  0  0  0  0  0  0
   46.3700   29.4460   47.5990 N   0  0  0  0  0  0  0  0  0  0  0  0
   45.5140   30.4890   47.6990 C   0  0  0  0  0  0  0  0  0  0  0  0
   45.4700   31.5290   46.8550 N   0  0  0  0  0  0  0  0  0  0  0  0
   46.3320   31.5910   45.7980 C   0  0  0  0  0  0  0  0  0  0  0  0
   45.9730   33.5140   42.1870 N   0  0  0  0  0  0  0  0  0  0  0  0
   45.4410   32.4730   41.4740 C   0  0  0  0  0  0  0  0  0  0  0  0
   46.1770   32.2410   40.3790 N   0  0  0  0  0  0  0  0  0  0  0  0
   47.1940   33.1550   40.4070 C   0  0  0  0  0  0  0  0  0  0  0  0
   47.0310   33.9010   41.5130 N   0  0  0  0  0  0  0  0  0  0  0  0
   44.4957   35.6974   42.3415 H   0  0  0  0  0  0  0  0  0  0  0  0
   44.2318   35.8479   46.5515 H   0  0  0  0  0  0  0  0  0  0  0  0
   48.0918   32.2656   43.1660 H   0  0  0  0  0  0  0  0  0  0  0  0
   47.9683   28.6210   46.4496 H   0  0  0  0  0  0  0  0  0  0  0  0
   44.8004   30.4828   48.5361 H   0  0  0  0  0  0  0  0  0  0  0  0
   44.5404   31.9093   41.7589 H   0  0  0  0  0  0  0  0  0  0  0  0
   47.9967   33.2601   39.6623 H   0  0  0  0  0  0  0  0  0  0  0  0
  1  2  2  0
  1  6  1  0
  2  3  1  0
  3  7  1  0
  3  4  2  0
  5  4  1  0
  6  5  2  0
  7 15  1  0
  8  9  2  0
  8  7  1  0
  9 10  1  0
 10 15  2  0
 10 11  1  0
 11 12  2  0
 12 13  1  0
 14 13  2  0
 15 14  1  0
 16  2  1  0
 17 16  1  0
 18 19  1  0
 18 17  2  0
 19 20  2  0
 20 16  1  0
  1 21  1  0
  5 22  1  0
  8 23  1  0
 11 24  1  0
 13 25  1  0
 17 26  1  0
 19 27  1  0
M  ISO  7  21  14  22  14  23  14  24  14  25  14  26  14  27  14
M  END
>  <minimizedAffinity>  (1) 
-4.30975437

>  <minimizedRMSD>  (1) 
3.12256241

$$$$
