
     RDKit          3D

 19 20  0  0  0  0  0  0  0  0999 V2000
   44.2270   35.7860   42.0650 C   0  0  0  0  0  0  0  0  0  0  0  0
   43.3220   34.8160   41.6410 C   0  0  0  0  0  0  0  0  0  0  0  0
   43.6230   33.5010   41.9460 C   0  0  0  0  0  0  0  0  0  0  0  0
   44.7480   33.1980   42.6240 N   0  0  0  0  0  0  0  0  0  0  0  0
   45.6030   34.1490   43.0240 C   0  0  0  0  0  0  0  0  0  0  0  0
   45.3110   35.4100   42.7290 N   0  0  0  0  0  0  0  0  0  0  0  0
   42.1620   35.1970   40.9350 N   0  0  0  0  0  0  0  0  0  0  0  0
   40.9470   35.6040   41.4310 C   0  0  0  0  0  0  0  0  0  0  0  0
   40.1050   35.8760   40.4290 N   0  0  0  0  0  0  0  0  0  0  0  0
   40.7940   35.6370   39.2740 C   0  0  0  0  0  0  0  0  0  0  0  0
   42.0240   35.2310   39.6340 N   0  0  0  0  0  0  0  0  0  0  0  0
   42.7770   32.4100   41.5650 C   0  0  0  0  0  0  0  0  0  0  0  0
   42.5930   31.4140   42.3090 O   0  0  0  0  0  0  0  0  0  0  0  0
   41.9410   31.7570   40.7250 O   0  0  0  0  0  0  0  0  0  0  0  0
   44.0448   36.8496   41.8518 H   0  0  0  0  0  0  0  0  0  0  0  0
   46.5176   33.8931   43.5790 H   0  0  0  0  0  0  0  0  0  0  0  0
   40.7022   35.6932   42.4997 H   0  0  0  0  0  0  0  0  0  0  0  0
   40.4156   35.7541   38.2478 H   0  0  0  0  0  0  0  0  0  0  0  0
   41.5650   30.8787   40.9846 H   0  0  0  0  0  0  0  0  0  0  0  0
  1  6  2  0
  2  3  2  0
  2  1  1  0
  3  4  1  0
  4  5  2  0
  6  5  1  0
  7  8  1  0
  7  2  1  0
  9  8  2  0
 10 11  2  0
 10  9  1  0
 11  7  1  0
 12  3  1  0
 12 13  2  0
 14 12  1  0
  1 15  1  0
  5 16  1  0
  8 17  1  0
 10 18  1  0
 14 19  1  0
M  ISO  5  15  14  16  14  17  14  18  14  19   3
M  END
>  <minimizedAffinity>  (1) 
-3.44937062

>  <minimizedRMSD>  (1) 
2.73614287

$$$$
