
     RDKit          3D

 32 34  0  0  0  0  0  0  0  0999 V2000
   44.2230   35.4410   44.1380 C   0  0  0  0  0  0  0  0  0  0  0  0
   44.4900   34.3750   43.2500 C   0  0  0  0  0  0  0  0  0  0  0  0
   45.2110   33.2870   43.7070 C   0  0  0  0  0  0  0  0  0  0  0  0
   45.6390   33.2750   44.9900 N   0  0  0  0  0  0  0  0  0  0  0  0
   45.3720   34.3110   45.8340 C   0  0  0  0  0  0  0  0  0  0  0  0
   44.6680   35.3790   45.3980 N   0  0  0  0  0  0  0  0  0  0  0  0
   44.0030   34.4940   41.9290 N   0  0  0  0  0  0  0  0  0  0  0  0
   43.4780   35.5810   41.2720 C   0  0  0  0  0  0  0  0  0  0  0  0
   43.1350   35.2480   40.0140 N   0  0  0  0  0  0  0  0  0  0  0  0
   43.4520   33.9380   39.8870 C   0  0  0  0  0  0  0  0  0  0  0  0
   43.9670   33.5260   41.0540 N   0  0  0  0  0  0  0  0  0  0  0  0
   45.5340   32.1260   42.8640 C   0  0  0  0  0  0  0  0  0  0  0  0
   47.0350   32.1340   42.5780 C   0  0  0  0  0  0  0  0  0  0  0  0
   47.3440   31.1890   41.4420 C   0  0  0  0  0  0  0  0  0  0  0  0
   46.5840   29.9070   41.6990 C   0  0  0  0  0  0  0  0  0  0  0  0
   46.2750   29.7550   43.1510 C   0  0  0  0  0  0  0  0  0  0  0  0
   45.2910   30.8180   43.6130 C   0  0  0  0  0  0  0  0  0  0  0  0
   43.6525   36.3168   43.7953 H   0  0  0  0  0  0  0  0  0  0  0  0
   45.7306   34.2779   46.8734 H   0  0  0  0  0  0  0  0  0  0  0  0
   43.3555   36.5816   41.7121 H   0  0  0  0  0  0  0  0  0  0  0  0
   43.3119   33.3216   38.9867 H   0  0  0  0  0  0  0  0  0  0  0  0
   44.9113   32.1900   41.9595 H   0  0  0  0  0  0  0  0  0  0  0  0
   47.3488   33.1516   42.3022 H   0  0  0  0  0  0  0  0  0  0  0  0
   47.5780   31.8099   43.4780 H   0  0  0  0  0  0  0  0  0  0  0  0
   48.4243   30.9847   41.4064 H   0  0  0  0  0  0  0  0  0  0  0  0
   47.0466   31.6298   40.4790 H   0  0  0  0  0  0  0  0  0  0  0  0
   45.6427   29.9258   41.1302 H   0  0  0  0  0  0  0  0  0  0  0  0
   47.2073   29.0583   41.3809 H   0  0  0  0  0  0  0  0  0  0  0  0
   45.8375   28.7606   43.3235 H   0  0  0  0  0  0  0  0  0  0  0  0
   47.2083   29.8697   43.7217 H   0  0  0  0  0  0  0  0  0  0  0  0
   45.4207   30.9882   44.6920 H   0  0  0  0  0  0  0  0  0  0  0  0
   44.2674   30.4722   43.4065 H   0  0  0  0  0  0  0  0  0  0  0  0
  1  6  2  0
  2  3  2  0
  2  1  1  0
  3  4  1  0
  4  5  2  0
  6  5  1  0
  7  2  1  0
  8  7  1  0
  9  8  2  0
 10  9  1  0
 10 11  2  0
 11  7  1  0
 12 17  1  0
 12  3  1  0
 13 12  1  0
 14 15  1  0
 14 13  1  0
 15 16  1  0
 16 17  1  0
  1 18  1  0
  5 19  1  0
  8 20  1  0
 10 21  1  0
 12 22  1  0
 13 23  1  0
 13 24  1  0
 14 25  1  0
 14 26  1  0
 15 27  1  0
 15 28  1  0
 16 29  1  0
 16 30  1  0
 17 31  1  0
 17 32  1  0
M  ISO  8  18  14  19  14  20  14  21  14  22  13  23  13  24  13  25  13
M  ISO  7  26  13  27  13  28  13  29  13  30  13  31  13  32  13
M  END
>  <minimizedAffinity>  (1) 
-3.4047575

>  <minimizedRMSD>  (1) 
0.905955374

$$$$
