
     RDKit          3D

 17 18  0  0  0  0  0  0  0  0999 V2000
   44.4030   35.3190   44.1200 C   0  0  0  0  0  0  0  0  0  0  0  0
   44.5750   34.2610   43.2050 C   0  0  0  0  0  0  0  0  0  0  0  0
   45.2280   33.1130   43.6300 C   0  0  0  0  0  0  0  0  0  0  0  0
   45.6690   33.0710   44.9110 N   0  0  0  0  0  0  0  0  0  0  0  0
   45.4940   34.0920   45.7660 C   0  0  0  0  0  0  0  0  0  0  0  0
   44.8670   35.2030   45.3710 N   0  0  0  0  0  0  0  0  0  0  0  0
   44.0490   34.4660   41.8890 N   0  0  0  0  0  0  0  0  0  0  0  0
   43.3120   35.4720   41.3710 C   0  0  0  0  0  0  0  0  0  0  0  0
   43.0630   35.2040   40.0750 N   0  0  0  0  0  0  0  0  0  0  0  0
   43.6500   34.0260   39.7840 C   0  0  0  0  0  0  0  0  0  0  0  0
   44.2480   33.5880   40.9070 N   0  0  0  0  0  0  0  0  0  0  0  0
   45.3790   32.0930   42.7030 O   0  0  0  0  0  0  0  0  0  0  0  0
   43.8881   36.2393   43.8070 H   0  0  0  0  0  0  0  0  0  0  0  0
   45.8691   34.0126   46.7970 H   0  0  0  0  0  0  0  0  0  0  0  0
   42.9712   36.3636   41.9177 H   0  0  0  0  0  0  0  0  0  0  0  0
   43.6417   33.5169   38.8089 H   0  0  0  0  0  0  0  0  0  0  0  0
   45.8384   31.2545   42.9600 H   0  0  0  0  0  0  0  0  0  0  0  0
  1  6  2  0
  2  3  2  0
  2  1  1  0
  3  4  1  0
  4  5  2  0
  6  5  1  0
  7  2  1  0
  8  7  1  0
  9  8  2  0
 10  9  1  0
 10 11  2  0
 11  7  1  0
 12  3  1  0
  1 13  1  0
  5 14  1  0
  8 15  1  0
 10 16  1  0
 12 17  1  0
M  ISO  5  13  14  14  14  15  14  16  14  17   3
M  END
>  <minimizedAffinity>  (1) 
-3.15473509

>  <minimizedRMSD>  (1) 
0.0726848096

$$$$
