
     RDKit          3D

 17 18  0  0  0  0  0  0  0  0999 V2000
   44.4180   35.9030   42.4430 C   0  0  0  0  0  0  0  0  0  0  0  0
   43.6510   34.8150   41.9980 C   0  0  0  0  0  0  0  0  0  0  0  0
   44.0730   33.5120   42.3040 C   0  0  0  0  0  0  0  0  0  0  0  0
   45.2160   33.3790   43.0270 N   0  0  0  0  0  0  0  0  0  0  0  0
   45.9310   34.4460   43.4410 C   0  0  0  0  0  0  0  0  0  0  0  0
   45.5350   35.6860   43.1510 N   0  0  0  0  0  0  0  0  0  0  0  0
   42.4740   35.1100   41.2490 N   0  0  0  0  0  0  0  0  0  0  0  0
   41.2140   35.3860   41.6670 C   0  0  0  0  0  0  0  0  0  0  0  0
   40.4250   35.6030   40.5880 N   0  0  0  0  0  0  0  0  0  0  0  0
   41.2130   35.4560   39.4930 C   0  0  0  0  0  0  0  0  0  0  0  0
   42.4550   35.1560   39.9360 N   0  0  0  0  0  0  0  0  0  0  0  0
   43.0840   32.1500   41.7290 S   0  0  0  0  0  0  0  0  0  0  0  0
   44.1031   36.9312   42.2112 H   0  0  0  0  0  0  0  0  0  0  0  0
   46.8507   34.2912   44.0242 H   0  0  0  0  0  0  0  0  0  0  0  0
   40.8850   35.4271   42.7158 H   0  0  0  0  0  0  0  0  0  0  0  0
   40.9006   35.5610   38.4435 H   0  0  0  0  0  0  0  0  0  0  0  0
   42.5847   31.4625   42.8037 H   0  0  0  0  0  0  0  0  0  0  0  0
  1  6  2  0
  2  3  2  0
  2  1  1  0
  3  4  1  0
  4  5  2  0
  6  5  1  0
  7  8  1  0
  7  2  1  0
  9  8  2  0
 10 11  2  0
 10  9  1  0
 11  7  1  0
 12  3  1  0
  1 13  1  0
  5 14  1  0
  8 15  1  0
 10 16  1  0
 12 17  1  0
M  ISO  5  13  14  14  14  15  14  16  14  17  11
M  END
>  <minimizedAffinity>  (1) 
-3.30940866

>  <minimizedRMSD>  (1) 
2.20527148

$$$$
