
     RDKit          3D

 36 39  0  0  0  0  0  0  0  0999 V2000
   45.5260   33.6550   45.2130 C   0  0  0  0  0  0  0  0  0  0  0  0
   45.8490   33.9130   43.8700 C   0  0  0  0  0  0  0  0  0  0  0  0
   46.9270   33.2510   43.3270 C   0  0  0  0  0  0  0  0  0  0  0  0
   47.6360   32.3830   44.0880 N   0  0  0  0  0  0  0  0  0  0  0  0
   47.2900   32.1630   45.3850 C   0  0  0  0  0  0  0  0  0  0  0  0
   46.2470   32.7960   45.9280 N   0  0  0  0  0  0  0  0  0  0  0  0
   47.2540   33.5160   41.9570 N   0  0  0  0  0  0  0  0  0  0  0  0
   48.0740   34.6110   41.8220 C   0  0  0  0  0  0  0  0  0  0  0  0
   48.4550   34.9600   40.5330 C   0  0  0  0  0  0  0  0  0  0  0  0
   48.0550   34.2700   39.4310 C   0  0  0  0  0  0  0  0  0  0  0  0
   48.4120   34.6020   38.2670 O   0  0  0  0  0  0  0  0  0  0  0  0
   47.2450   33.1980   39.6430 N   0  0  0  0  0  0  0  0  0  0  0  0
   46.8530   32.8290   40.8770 C   0  0  0  0  0  0  0  0  0  0  0  0
   46.1100   31.8510   41.1130 O   0  0  0  0  0  0  0  0  0  0  0  0
   45.0360   34.8440   43.1670 N   0  0  0  0  0  0  0  0  0  0  0  0
   45.0780   36.2130   43.1390 C   0  0  0  0  0  0  0  0  0  0  0  0
   44.1060   36.6850   42.3280 N   0  0  0  0  0  0  0  0  0  0  0  0
   43.4570   35.5910   41.8500 C   0  0  0  0  0  0  0  0  0  0  0  0
   44.0490   34.5020   42.3810 N   0  0  0  0  0  0  0  0  0  0  0  0
   42.3220   35.4350   40.9350 C   0  0  0  0  0  0  0  0  0  0  0  0
   42.5280   35.0380   39.6340 C   0  0  0  0  0  0  0  0  0  0  0  0
   41.5460   34.8570   38.6800 C   0  0  0  0  0  0  0  0  0  0  0  0
   40.2400   35.0920   39.0630 C   0  0  0  0  0  0  0  0  0  0  0  0
   39.9860   35.4900   40.3560 C   0  0  0  0  0  0  0  0  0  0  0  0
   41.0070   35.6610   41.2850 C   0  0  0  0  0  0  0  0  0  0  0  0
   44.6702   34.1675   45.6766 H   0  0  0  0  0  0  0  0  0  0  0  0
   47.8750   31.4568   45.9925 H   0  0  0  0  0  0  0  0  0  0  0  0
   48.4134   35.1855   42.6965 H   0  0  0  0  0  0  0  0  0  0  0  0
   49.1096   35.8335   40.3970 H   0  0  0  0  0  0  0  0  0  0  0  0
   46.9209   32.6506   38.8329 H   0  0  0  0  0  0  0  0  0  0  0  0
   45.7958   36.8350   43.6939 H   0  0  0  0  0  0  0  0  0  0  0  0
   43.5669   34.8479   39.3264 H   0  0  0  0  0  0  0  0  0  0  0  0
   41.7939   34.5386   37.6567 H   0  0  0  0  0  0  0  0  0  0  0  0
   39.4158   34.9631   38.3460 H   0  0  0  0  0  0  0  0  0  0  0  0
   38.9466   35.6781   40.6631 H   0  0  0  0  0  0  0  0  0  0  0  0
   40.7633   35.9797   42.3092 H   0  0  0  0  0  0  0  0  0  0  0  0
  1  6  2  0
  2  1  1  0
  3  2  2  0
  3  4  1  0
  4  5  2  0
  5  6  1  0
  7  3  1  0
  8  7  1  0
  9  8  2  0
 10 12  1  0
 10  9  1  0
 11 10  2  0
 12 13  1  0
 13 14  2  0
 13  7  1  0
 15  2  1  0
 16 15  1  0
 17 16  2  0
 18 17  1  0
 18 19  2  0
 19 15  1  0
 20 25  1  0
 20 18  1  0
 21 20  2  0
 22 23  2  0
 22 21  1  0
 23 24  1  0
 24 25  2  0
  1 26  1  0
  5 27  1  0
  8 28  1  0
  9 29  1  0
 12 30  1  0
 16 31  1  0
 21 32  1  0
 22 33  1  0
 23 34  1  0
 24 35  1  0
 25 36  1  0
M  ISO  8  26  14  27  14  28  14  29  14  30   9  31  14  32  14  33  14
M  ISO  3  34  14  35  14  36  14
M  END
>  <minimizedAffinity>  (1) 
-6.14184999

>  <minimizedRMSD>  (1) 
1.22567773

$$$$
