
     RDKit          3D

 33 36  0  0  0  0  0  0  0  0999 V2000
   45.4500   33.6480   45.1450 C   0  0  0  0  0  0  0  0  0  0  0  0
   45.7850   33.9020   43.8150 C   0  0  0  0  0  0  0  0  0  0  0  0
   46.9000   33.2730   43.2930 C   0  0  0  0  0  0  0  0  0  0  0  0
   47.6180   32.4420   44.0840 N   0  0  0  0  0  0  0  0  0  0  0  0
   47.2610   32.2190   45.3730 C   0  0  0  0  0  0  0  0  0  0  0  0
   46.1830   32.8210   45.8940 N   0  0  0  0  0  0  0  0  0  0  0  0
   47.2410   33.5360   41.9310 N   0  0  0  0  0  0  0  0  0  0  0  0
   48.0510   34.6230   41.7930 C   0  0  0  0  0  0  0  0  0  0  0  0
   48.4420   34.9680   40.5000 C   0  0  0  0  0  0  0  0  0  0  0  0
   48.0520   34.2700   39.3990 C   0  0  0  0  0  0  0  0  0  0  0  0
   48.4200   34.6030   38.2410 O   0  0  0  0  0  0  0  0  0  0  0  0
   47.2470   33.2020   39.6120 N   0  0  0  0  0  0  0  0  0  0  0  0
   46.8470   32.8380   40.8420 C   0  0  0  0  0  0  0  0  0  0  0  0
   46.1030   31.8540   41.0740 O   0  0  0  0  0  0  0  0  0  0  0  0
   44.9510   34.7970   43.0850 N   0  0  0  0  0  0  0  0  0  0  0  0
   44.9750   36.1630   42.9900 C   0  0  0  0  0  0  0  0  0  0  0  0
   43.9860   36.5790   42.1790 N   0  0  0  0  0  0  0  0  0  0  0  0
   43.3350   35.4670   41.7600 C   0  0  0  0  0  0  0  0  0  0  0  0
   43.9510   34.4150   42.3300 N   0  0  0  0  0  0  0  0  0  0  0  0
   42.1890   35.2760   40.8750 C   0  0  0  0  0  0  0  0  0  0  0  0
   40.9910   35.8690   41.2200 C   0  0  0  0  0  0  0  0  0  0  0  0
   40.0800   35.5370   40.2280 C   0  0  0  0  0  0  0  0  0  0  0  0
   40.7900   34.7470   39.3220 C   0  0  0  0  0  0  0  0  0  0  0  0
   42.0470   34.6080   39.7330 O   0  0  0  0  0  0  0  0  0  0  0  0
   44.5677   34.1370   45.5837 H   0  0  0  0  0  0  0  0  0  0  0  0
   47.8607   31.5389   45.9957 H   0  0  0  0  0  0  0  0  0  0  0  0
   48.3828   35.2044   42.6659 H   0  0  0  0  0  0  0  0  0  0  0  0
   49.0945   35.8430   40.3639 H   0  0  0  0  0  0  0  0  0  0  0  0
   46.9302   32.6493   38.8026 H   0  0  0  0  0  0  0  0  0  0  0  0
   45.6944   36.8206   43.4999 H   0  0  0  0  0  0  0  0  0  0  0  0
   40.7964   36.4857   42.1098 H   0  0  0  0  0  0  0  0  0  0  0  0
   39.0224   35.8334   40.1679 H   0  0  0  0  0  0  0  0  0  0  0  0
   40.3721   34.3055   38.4052 H   0  0  0  0  0  0  0  0  0  0  0  0
  1  6  2  0
  2  1  1  0
  3  2  2  0
  3  4  1  0
  4  5  2  0
  5  6  1  0
  7  3  1  0
  8  7  1  0
  9  8  2  0
 10 12  1  0
 10  9  1  0
 11 10  2  0
 12 13  1  0
 13 14  2  0
 13  7  1  0
 15  2  1  0
 16 15  1  0
 17 16  2  0
 18 17  1  0
 18 19  2  0
 19 15  1  0
 20 21  2  0
 20 18  1  0
 22 21  1  0
 23 24  1  0
 23 22  2  0
 24 20  1  0
  1 25  1  0
  5 26  1  0
  8 27  1  0
  9 28  1  0
 12 29  1  0
 16 30  1  0
 21 31  1  0
 22 32  1  0
 23 33  1  0
M  ISO  8  25  14  26  14  27  14  28  14  29   9  30  14  31  14  32  14
M  ISO  1  33  14
M  END
>  <minimizedAffinity>  (1) 
-5.5353508

>  <minimizedRMSD>  (1) 
1.05708051

$$$$
