
     RDKit          3D

 33 36  0  0  0  0  0  0  0  0999 V2000
   45.5160   33.6380   45.1910 C   0  0  0  0  0  0  0  0  0  0  0  0
   45.8350   33.9000   43.8560 C   0  0  0  0  0  0  0  0  0  0  0  0
   46.9190   33.2430   43.3100 C   0  0  0  0  0  0  0  0  0  0  0  0
   47.6260   32.3780   44.0820 N   0  0  0  0  0  0  0  0  0  0  0  0
   47.2850   32.1540   45.3690 C   0  0  0  0  0  0  0  0  0  0  0  0
   46.2330   32.7850   45.9150 N   0  0  0  0  0  0  0  0  0  0  0  0
   47.2480   33.5090   41.9410 N   0  0  0  0  0  0  0  0  0  0  0  0
   48.0690   34.6020   41.8130 C   0  0  0  0  0  0  0  0  0  0  0  0
   48.4550   34.9570   40.5260 C   0  0  0  0  0  0  0  0  0  0  0  0
   48.0500   34.2670   39.4180 C   0  0  0  0  0  0  0  0  0  0  0  0
   48.4150   34.6090   38.2580 O   0  0  0  0  0  0  0  0  0  0  0  0
   47.2330   33.1890   39.6240 N   0  0  0  0  0  0  0  0  0  0  0  0
   46.8470   32.8280   40.8620 C   0  0  0  0  0  0  0  0  0  0  0  0
   46.1020   31.8510   41.0920 O   0  0  0  0  0  0  0  0  0  0  0  0
   45.0250   34.8190   43.1560 N   0  0  0  0  0  0  0  0  0  0  0  0
   45.0720   36.1940   43.1080 C   0  0  0  0  0  0  0  0  0  0  0  0
   44.1010   36.6630   42.3100 N   0  0  0  0  0  0  0  0  0  0  0  0
   43.4300   35.5760   41.8470 C   0  0  0  0  0  0  0  0  0  0  0  0
   44.0250   34.4850   42.3870 N   0  0  0  0  0  0  0  0  0  0  0  0
   42.2820   35.4090   40.9490 C   0  0  0  0  0  0  0  0  0  0  0  0
   41.0140   35.5940   41.4700 C   0  0  0  0  0  0  0  0  0  0  0  0
   40.1610   35.3810   40.4370 N   0  0  0  0  0  0  0  0  0  0  0  0
   40.8850   35.0780   39.3270 C   0  0  0  0  0  0  0  0  0  0  0  0
   42.2050   35.0940   39.6430 N   0  0  0  0  0  0  0  0  0  0  0  0
   44.6560   34.1469   45.6508 H   0  0  0  0  0  0  0  0  0  0  0  0
   47.8734   31.4492   45.9749 H   0  0  0  0  0  0  0  0  0  0  0  0
   48.4066   35.1720   42.6911 H   0  0  0  0  0  0  0  0  0  0  0  0
   49.1130   35.8285   40.3938 H   0  0  0  0  0  0  0  0  0  0  0  0
   46.9064   32.6421   38.8146 H   0  0  0  0  0  0  0  0  0  0  0  0
   45.8006   36.8180   43.6463 H   0  0  0  0  0  0  0  0  0  0  0  0
   40.7522   35.8584   42.5052 H   0  0  0  0  0  0  0  0  0  0  0  0
   40.4685   34.8558   38.3334 H   0  0  0  0  0  0  0  0  0  0  0  0
   42.9930   34.9026   39.0079 H   0  0  0  0  0  0  0  0  0  0  0  0
  1  6  2  0
  2  1  1  0
  3  2  2  0
  3  4  1  0
  4  5  2  0
  5  6  1  0
  7  3  1  0
  8  7  1  0
  9  8  2  0
 10 12  1  0
 10  9  1  0
 11 10  2  0
 12 13  1  0
 13 14  2  0
 13  7  1  0
 15  2  1  0
 16 15  1  0
 17 16  2  0
 18 17  1  0
 18 19  2  0
 19 15  1  0
 20 21  2  0
 20 18  1  0
 22 21  1  0
 23 24  1  0
 23 22  2  0
 24 20  1  0
  1 25  1  0
  5 26  1  0
  8 27  1  0
  9 28  1  0
 12 29  1  0
 16 30  1  0
 21 31  1  0
 23 32  1  0
 24 33  1  0
M  ISO  8  25  14  26  14  27  14  28  14  29   9  30  14  31  14  32  14
M  ISO  1  33   9
M  END
>  <minimizedAffinity>  (1) 
-5.28415298

>  <minimizedRMSD>  (1) 
1.20351863

$$$$
