
     RDKit          3D

 29 31  0  0  0  0  0  0  0  0999 V2000
   45.4850   33.6350   45.1970 C   0  0  0  0  0  0  0  0  0  0  0  0
   45.8160   33.8830   43.8620 C   0  0  0  0  0  0  0  0  0  0  0  0
   46.9270   33.2580   43.3200 C   0  0  0  0  0  0  0  0  0  0  0  0
   47.6570   32.4250   44.1020 N   0  0  0  0  0  0  0  0  0  0  0  0
   47.3070   32.2070   45.3940 C   0  0  0  0  0  0  0  0  0  0  0  0
   46.2290   32.8110   45.9300 N   0  0  0  0  0  0  0  0  0  0  0  0
   47.2520   33.5220   41.9550 N   0  0  0  0  0  0  0  0  0  0  0  0
   48.0590   34.6050   41.8210 C   0  0  0  0  0  0  0  0  0  0  0  0
   48.4420   34.9560   40.5210 C   0  0  0  0  0  0  0  0  0  0  0  0
   48.0410   34.2620   39.4170 C   0  0  0  0  0  0  0  0  0  0  0  0
   48.4040   34.6030   38.2580 O   0  0  0  0  0  0  0  0  0  0  0  0
   47.2370   33.1930   39.6430 N   0  0  0  0  0  0  0  0  0  0  0  0
   46.8470   32.8240   40.8720 C   0  0  0  0  0  0  0  0  0  0  0  0
   46.1050   31.8420   41.1090 O   0  0  0  0  0  0  0  0  0  0  0  0
   44.9760   34.7750   43.1390 N   0  0  0  0  0  0  0  0  0  0  0  0
   45.0000   36.1460   43.0370 C   0  0  0  0  0  0  0  0  0  0  0  0
   44.0110   36.5710   42.2400 N   0  0  0  0  0  0  0  0  0  0  0  0
   43.3530   35.4580   41.8330 C   0  0  0  0  0  0  0  0  0  0  0  0
   43.9620   34.3940   42.3940 N   0  0  0  0  0  0  0  0  0  0  0  0
   42.1870   35.3320   40.9490 C   0  0  0  0  0  0  0  0  0  0  0  0
   42.6220   35.4140   39.6200 F   0  0  0  0  0  0  0  0  0  0  0  0
   41.2270   36.2820   41.1750 F   0  0  0  0  0  0  0  0  0  0  0  0
   41.6980   34.0430   41.1050 F   0  0  0  0  0  0  0  0  0  0  0  0
   44.6060   34.1230   45.6433 H   0  0  0  0  0  0  0  0  0  0  0  0
   47.9118   31.5276   46.0126 H   0  0  0  0  0  0  0  0  0  0  0  0
   48.3970   35.1812   42.6949 H   0  0  0  0  0  0  0  0  0  0  0  0
   49.0953   35.8302   40.3836 H   0  0  0  0  0  0  0  0  0  0  0  0
   46.9122   32.6411   38.8363 H   0  0  0  0  0  0  0  0  0  0  0  0
   45.7279   36.8006   43.5386 H   0  0  0  0  0  0  0  0  0  0  0  0
  1  6  2  0
  2  1  1  0
  3  2  2  0
  3  4  1  0
  4  5  2  0
  5  6  1  0
  7  3  1  0
  8  7  1  0
  9  8  2  0
 10 12  1  0
 10  9  1  0
 11 10  2  0
 12 13  1  0
 13 14  2  0
 13  7  1  0
 15  2  1  0
 16 15  1  0
 17 16  2  0
 18 17  1  0
 18 19  2  0
 19 15  1  0
 20 23  1  0
 20 22  1  0
 20 18  1  0
 21 20  1  0
  1 24  1  0
  5 25  1  0
  8 26  1  0
  9 27  1  0
 12 28  1  0
 16 29  1  0
M  ISO  6  24  14  25  14  26  14  27  14  28   9  29  14
M  END
>  <minimizedAffinity>  (1) 
-4.99026346

>  <minimizedRMSD>  (1) 
0.878656626

$$$$
