
     RDKit          3D

 33 36  0  0  0  0  0  0  0  0999 V2000
   45.3470   33.7640   45.1980 C   0  0  0  0  0  0  0  0  0  0  0  0
   45.7060   33.9700   43.8570 C   0  0  0  0  0  0  0  0  0  0  0  0
   46.8360   33.3540   43.3670 C   0  0  0  0  0  0  0  0  0  0  0  0
   47.5610   32.5690   44.2020 N   0  0  0  0  0  0  0  0  0  0  0  0
   47.1990   32.3820   45.4940 C   0  0  0  0  0  0  0  0  0  0  0  0
   46.0910   32.9860   45.9740 N   0  0  0  0  0  0  0  0  0  0  0  0
   47.1860   33.5740   42.0110 N   0  0  0  0  0  0  0  0  0  0  0  0
   47.9990   34.6640   41.8520 C   0  0  0  0  0  0  0  0  0  0  0  0
   48.4070   34.9770   40.5540 C   0  0  0  0  0  0  0  0  0  0  0  0
   48.0260   34.2410   39.4690 C   0  0  0  0  0  0  0  0  0  0  0  0
   48.4080   34.5420   38.3020 O   0  0  0  0  0  0  0  0  0  0  0  0
   47.2160   33.1660   39.6950 N   0  0  0  0  0  0  0  0  0  0  0  0
   46.8070   32.8430   40.9370 C   0  0  0  0  0  0  0  0  0  0  0  0
   46.0660   31.8700   41.1930 O   0  0  0  0  0  0  0  0  0  0  0  0
   44.8620   34.8180   43.0870 N   0  0  0  0  0  0  0  0  0  0  0  0
   44.8810   36.1870   42.9300 C   0  0  0  0  0  0  0  0  0  0  0  0
   43.8840   36.5550   42.1010 N   0  0  0  0  0  0  0  0  0  0  0  0
   43.2480   35.4150   41.7450 C   0  0  0  0  0  0  0  0  0  0  0  0
   43.8530   34.3890   42.3500 N   0  0  0  0  0  0  0  0  0  0  0  0
   42.0740   35.2530   40.8450 C   0  0  0  0  0  0  0  0  0  0  0  0
   40.8500   34.5640   41.4330 C   0  0  0  0  0  0  0  0  0  0  0  0
   40.8550   36.0490   41.0100 C   0  0  0  0  0  0  0  0  0  0  0  0
   44.4476   34.2481   45.6064 H   0  0  0  0  0  0  0  0  0  0  0  0
   47.8057   31.7402   46.1498 H   0  0  0  0  0  0  0  0  0  0  0  0
   48.3182   35.2694   42.7131 H   0  0  0  0  0  0  0  0  0  0  0  0
   49.0596   35.8489   40.3998 H   0  0  0  0  0  0  0  0  0  0  0  0
   46.9108   32.5890   38.8982 H   0  0  0  0  0  0  0  0  0  0  0  0
   45.5976   36.8721   43.4066 H   0  0  0  0  0  0  0  0  0  0  0  0
   42.7369   35.0967   39.9812 H   0  0  0  0  0  0  0  0  0  0  0  0
   40.2935   33.8185   40.8460 H   0  0  0  0  0  0  0  0  0  0  0  0
   40.6191   33.9993   42.3483 H   0  0  0  0  0  0  0  0  0  0  0  0
   40.8148   36.8372   41.7763 H   0  0  0  0  0  0  0  0  0  0  0  0
   40.2366   36.6646   40.3402 H   0  0  0  0  0  0  0  0  0  0  0  0
  1  6  2  0
  2  1  1  0
  3  2  2  0
  3  4  1  0
  4  5  2  0
  5  6  1  0
  7  3  1  0
  8  7  1  0
  9  8  2  0
 10 12  1  0
 10  9  1  0
 11 10  2  0
 12 13  1  0
 13 14  2  0
 13  7  1  0
 15  2  1  0
 16 15  1  0
 17 16  2  0
 18 17  1  0
 18 19  2  0
 19 15  1  0
 20 22  1  0
 20 21  1  0
 20 18  1  0
 22 21  1  0
  1 23  1  0
  5 24  1  0
  8 25  1  0
  9 26  1  0
 12 27  1  0
 16 28  1  0
 20 29  1  0
 21 30  1  0
 21 31  1  0
 22 32  1  0
 22 33  1  0
M  ISO  8  23  14  24  14  25  14  26  14  27   9  28  14  29  13  30  13
M  ISO  3  31  13  32  13  33  13
M  END
>  <minimizedAffinity>  (1) 
-4.93258429

>  <minimizedRMSD>  (1) 
0.911351144

$$$$
