
     RDKit          3D

 47 51  0  0  1  0  0  0  0  0999 V2000
   45.1130   34.7820   43.5870 N   0  0  0  0  0  0  0  0  0  0  0  0
   45.2030   36.1530   43.4080 C   0  0  0  0  0  0  0  0  0  0  0  0
   44.4790   36.5040   42.3290 N   0  0  0  0  0  0  0  0  0  0  0  0
   43.9420   35.3500   41.8400 C   0  0  0  0  0  0  0  0  0  0  0  0
   44.3330   34.3410   42.6040 N   0  0  0  0  0  0  0  0  0  0  0  0
   45.1780   34.0700   45.8810 C   0  0  0  0  0  0  0  0  0  0  0  0
   45.6960   33.9560   44.5790 C   0  0  0  0  0  0  0  0  0  0  0  0
   46.7140   33.0700   44.3610 C   0  0  0  0  0  0  0  0  0  0  0  0
   47.1850   32.3360   45.3940 N   0  0  0  0  0  0  0  0  0  0  0  0
   46.6770   32.4570   46.6380 C   0  0  0  0  0  0  0  0  0  0  0  0
   45.6730   33.3290   46.8630 N   0  0  0  0  0  0  0  0  0  0  0  0
   47.2270   32.9690   43.0370 N   0  0  0  0  0  0  0  0  0  0  0  0
   48.1740   33.9220   42.7650 C   0  0  0  0  0  0  0  0  0  0  0  0
   48.7550   33.9320   41.5010 C   0  0  0  0  0  0  0  0  0  0  0  0
   48.4130   33.0320   40.5410 C   0  0  0  0  0  0  0  0  0  0  0  0
   48.9470   33.0480   39.3940 O   0  0  0  0  0  0  0  0  0  0  0  0
   47.4620   32.1010   40.8660 N   0  0  0  0  0  0  0  0  0  0  0  0
   46.8950   32.0810   42.0790 C   0  0  0  0  0  0  0  0  0  0  0  0
   46.0200   31.2490   42.4270 O   0  0  0  0  0  0  0  0  0  0  0  0
   43.0520   35.2040   40.6500 C   0  0  1  0  0  0  0  0  0  0  0  0
   42.6110   33.7700   40.3320 C   0  0  0  0  0  0  0  0  0  0  0  0
   41.6440   34.8670   40.7680 C   0  0  2  0  0  0  0  0  0  0  0  0
   40.6730   35.3960   39.9020 N   0  0  0  0  0  0  0  0  0  0  0  0
   40.9430   35.3550   38.5080 C   0  0  0  0  0  0  0  0  0  0  0  0
   40.4210   34.0370   37.9690 C   0  0  0  0  0  0  0  0  0  0  0  0
   39.0060   34.0100   38.2840 N   0  0  0  0  0  0  0  0  0  0  0  0
   38.7600   34.0150   39.7030 C   0  0  0  0  0  0  0  0  0  0  0  0
   39.3020   35.3090   40.2730 C   0  0  0  0  0  0  0  0  0  0  0  0
   45.7745   36.8437   44.0454 H   0  0  0  0  0  0  0  0  0  0  0  0
   44.3597   34.7760   46.0857 H   0  0  0  0  0  0  0  0  0  0  0  0
   47.0785   31.8492   47.4623 H   0  0  0  0  0  0  0  0  0  0  0  0
   48.4670   34.6598   43.5265 H   0  0  0  0  0  0  0  0  0  0  0  0
   49.5156   34.6926   41.2708 H   0  0  0  0  0  0  0  0  0  0  0  0
   47.1777   31.4031   40.1639 H   0  0  0  0  0  0  0  0  0  0  0  0
   43.5622   36.0295   40.1321 H   0  0  0  0  0  0  0  0  0  0  0  0
   42.6090   33.4028   39.2951 H   0  0  0  0  0  0  0  0  0  0  0  0
   42.8773   32.7597   40.6761 H   0  0  0  0  0  0  0  0  0  0  0  0
   40.8987   34.9571   41.5720 H   0  0  0  0  0  0  0  0  0  0  0  0
   40.4360   36.1914   38.0046 H   0  0  0  0  0  0  0  0  0  0  0  0
   42.0242   35.4417   38.3251 H   0  0  0  0  0  0  0  0  0  0  0  0
   40.9367   33.1947   38.4533 H   0  0  0  0  0  0  0  0  0  0  0  0
   40.5951   33.9465   36.8866 H   0  0  0  0  0  0  0  0  0  0  0  0
   38.5584   34.8390   37.8676 H   0  0  0  0  0  0  0  0  0  0  0  0
   37.6787   33.9483   39.8936 H   0  0  0  0  0  0  0  0  0  0  0  0
   39.2546   33.1545   40.1772 H   0  0  0  0  0  0  0  0  0  0  0  0
   39.2086   35.3054   41.3690 H   0  0  0  0  0  0  0  0  0  0  0  0
   38.7390   36.1705   39.8845 H   0  0  0  0  0  0  0  0  0  0  0  0
  1  7  1  0
  2  1  1  0
  3  2  2  0
  4  3  1  0
  4  5  2  0
  5  1  1  0
  6 11  2  0
  7  6  1  0
  8  7  2  0
  8  9  1  0
  9 10  2  0
 10 11  1  0
 12  8  1  0
 13 12  1  0
 14 13  2  0
 15 17  1  0
 15 14  1  0
 16 15  2  0
 17 18  1  0
 18 19  2  0
 18 12  1  0
 20 22  1  0
 20  4  1  0
 21 20  1  0
 21 22  1  0
 23 28  1  0
 23 22  1  0
 24 23  1  0
 25 26  1  0
 25 24  1  0
 26 27  1  0
 27 28  1  0
  2 29  1  0
  6 30  1  0
 10 31  1  0
 13 32  1  0
 14 33  1  0
 17 34  1  0
 20 35  1  6
 21 36  1  0
 21 37  1  0
 22 38  1  1
 24 39  1  0
 24 40  1  0
 25 41  1  0
 25 42  1  0
 26 43  1  0
 27 44  1  0
 27 45  1  0
 28 46  1  0
 28 47  1  0
M  ISO  8  29  14  30  14  31  14  32  14  33  14  34   9  35  13  36  13
M  ISO  8  37  13  38  13  39  13  40  13  41  13  42  13  43   5  44  13
M  ISO  3  45  13  46  13  47  13
M  END
>  <minimizedAffinity>  (1) 
-5.90966988

>  <minimizedRMSD>  (1) 
1.62373674

$$$$
