
     RDKit          3D

 42 45  0  0  1  0  0  0  0  0999 V2000
   45.3710   33.3820   44.6690 C   0  0  0  0  0  0  0  0  0  0  0  0
   45.6870   33.6210   43.3160 C   0  0  0  0  0  0  0  0  0  0  0  0
   46.8890   33.1790   42.8280 C   0  0  0  0  0  0  0  0  0  0  0  0
   47.7340   32.5290   43.6650 N   0  0  0  0  0  0  0  0  0  0  0  0
   47.4150   32.3090   44.9610 C   0  0  0  0  0  0  0  0  0  0  0  0
   46.2400   32.7380   45.4450 N   0  0  0  0  0  0  0  0  0  0  0  0
   47.1830   33.4300   41.4730 N   0  0  0  0  0  0  0  0  0  0  0  0
   47.9700   34.5420   41.2990 C   0  0  0  0  0  0  0  0  0  0  0  0
   48.3360   34.9050   40.0080 C   0  0  0  0  0  0  0  0  0  0  0  0
   47.9330   34.1830   38.9170 C   0  0  0  0  0  0  0  0  0  0  0  0
   48.2700   34.5180   37.7450 O   0  0  0  0  0  0  0  0  0  0  0  0
   47.1510   33.0850   39.1440 N   0  0  0  0  0  0  0  0  0  0  0  0
   46.7920   32.7270   40.3920 C   0  0  0  0  0  0  0  0  0  0  0  0
   46.0770   31.7290   40.6570 O   0  0  0  0  0  0  0  0  0  0  0  0
   44.7020   34.3180   42.5460 N   0  0  0  0  0  0  0  0  0  0  0  0
   44.6430   35.6350   42.1770 C   0  0  0  0  0  0  0  0  0  0  0  0
   43.5260   35.8380   41.4530 N   0  0  0  0  0  0  0  0  0  0  0  0
   42.8960   34.6300   41.3800 C   0  0  0  0  0  0  0  0  0  0  0  0
   43.6170   33.7360   42.0400 N   0  0  0  0  0  0  0  0  0  0  0  0
   41.6160   34.3210   40.6970 C   0  0  1  0  0  0  0  0  0  0  0  0
   40.3660   34.3480   41.5860 C   0  0  0  0  0  0  0  0  0  0  0  0
   40.5900   35.3090   40.4150 C   0  0  2  0  0  0  0  0  0  0  0  0
   39.6820   35.0980   39.2510 C   0  0  0  0  0  0  0  0  0  0  0  0
   40.4510   34.7470   37.9950 C   0  0  0  0  0  0  0  0  0  0  0  0
   38.6610   34.0060   39.4490 C   0  0  0  0  0  0  0  0  0  0  0  0
   44.4110   33.7260   45.0814 H   0  0  0  0  0  0  0  0  0  0  0  0
   48.1195   31.7781   45.6182 H   0  0  0  0  0  0  0  0  0  0  0  0
   48.3041   35.1337   42.1641 H   0  0  0  0  0  0  0  0  0  0  0  0
   48.9653   35.7949   39.8593 H   0  0  0  0  0  0  0  0  0  0  0  0
   46.8299   32.5201   38.3448 H   0  0  0  0  0  0  0  0  0  0  0  0
   45.3880   36.4035   42.4310 H   0  0  0  0  0  0  0  0  0  0  0  0
   42.1320   33.6107   40.0343 H   0  0  0  0  0  0  0  0  0  0  0  0
   39.6135   33.5486   41.5174 H   0  0  0  0  0  0  0  0  0  0  0  0
   40.1542   34.4373   42.6617 H   0  0  0  0  0  0  0  0  0  0  0  0
   40.6265   36.4002   40.2807 H   0  0  0  0  0  0  0  0  0  0  0  0
   39.1614   36.0621   39.1537 H   0  0  0  0  0  0  0  0  0  0  0  0
   41.4199   34.3047   38.2699 H   0  0  0  0  0  0  0  0  0  0  0  0
   39.8730   34.0236   37.4013 H   0  0  0  0  0  0  0  0  0  0  0  0
   40.6188   35.6577   37.4013 H   0  0  0  0  0  0  0  0  0  0  0  0
   38.5057   33.8400   40.5253 H   0  0  0  0  0  0  0  0  0  0  0  0
   37.7102   34.3041   38.9831 H   0  0  0  0  0  0  0  0  0  0  0  0
   39.0223   33.0774   38.9831 H   0  0  0  0  0  0  0  0  0  0  0  0
  1  6  2  0
  2  1  1  0
  3  2  2  0
  3  4  1  0
  4  5  2  0
  5  6  1  0
  7  3  1  0
  8  7  1  0
  9  8  2  0
 10 12  1  0
 10  9  1  0
 11 10  2  0
 12 13  1  0
 13 14  2  0
 13  7  1  0
 15  2  1  0
 16 15  1  0
 17 16  2  0
 18 17  1  0
 18 19  2  0
 19 15  1  0
 20 18  1  0
 20 21  1  0
 22 20  1  0
 22 21  1  0
 23 25  1  0
 23 22  1  0
 24 23  1  0
  1 26  1  0
  5 27  1  0
  8 28  1  0
  9 29  1  0
 12 30  1  0
 16 31  1  0
 20 32  1  6
 21 33  1  0
 21 34  1  0
 22 35  1  1
 23 36  1  0
 24 37  1  0
 24 38  1  0
 24 39  1  0
 25 40  1  0
 25 41  1  0
 25 42  1  0
M  ISO  8  26  14  27  14  28  14  29  14  30   9  31  14  32  13  33  13
M  ISO  8  34  13  35  13  36   8  37   8  38   8  39   8  40   8  41   8
M  ISO  1  42   8
M  END
>  <minimizedAffinity>  (1) 
-5.88164902

>  <minimizedRMSD>  (1) 
1.06109321

$$$$
