
     RDKit          3D

 39 43  0  0  1  0  0  0  0  0999 V2000
   45.0820   34.0710   46.1010 C   0  0  0  0  0  0  0  0  0  0  0  0
   45.6630   33.9070   44.8230 C   0  0  0  0  0  0  0  0  0  0  0  0
   46.7050   33.0330   44.6820 C   0  0  0  0  0  0  0  0  0  0  0  0
   47.1500   32.3510   45.7570 N   0  0  0  0  0  0  0  0  0  0  0  0
   46.5830   32.5180   46.9790 C   0  0  0  0  0  0  0  0  0  0  0  0
   45.5570   33.3770   47.1280 N   0  0  0  0  0  0  0  0  0  0  0  0
   47.2720   32.8870   43.3850 N   0  0  0  0  0  0  0  0  0  0  0  0
   48.2390   33.8250   43.1280 C   0  0  0  0  0  0  0  0  0  0  0  0
   48.8790   33.8010   41.8990 C   0  0  0  0  0  0  0  0  0  0  0  0
   48.5660   32.8650   40.9450 C   0  0  0  0  0  0  0  0  0  0  0  0
   49.1550   32.8480   39.8240 O   0  0  0  0  0  0  0  0  0  0  0  0
   47.5960   31.9540   41.2510 N   0  0  0  0  0  0  0  0  0  0  0  0
   46.9730   31.9750   42.4440 C   0  0  0  0  0  0  0  0  0  0  0  0
   46.0780   31.1600   42.7700 O   0  0  0  0  0  0  0  0  0  0  0  0
   45.1050   34.6810   43.7730 N   0  0  0  0  0  0  0  0  0  0  0  0
   45.2380   36.0370   43.5070 C   0  0  0  0  0  0  0  0  0  0  0  0
   44.5270   36.3400   42.4040 N   0  0  0  0  0  0  0  0  0  0  0  0
   43.9570   35.1720   41.9920 C   0  0  0  0  0  0  0  0  0  0  0  0
   44.3180   34.2040   42.8230 N   0  0  0  0  0  0  0  0  0  0  0  0
   43.0660   34.9700   40.8160 C   0  0  1  0  0  0  0  0  0  0  0  0
   43.5890   34.0000   39.7480 C   0  0  0  0  0  0  0  0  0  0  0  0
   42.3070   33.7530   40.5850 C   0  0  2  0  0  0  0  0  0  0  0  0
   41.0210   33.9230   39.8580 C   0  0  0  0  0  0  0  0  0  0  0  0
   40.0080   33.4660   40.7670 C   0  0  0  0  0  0  0  0  0  0  0  0
   38.4010   33.7020   39.7920 S   0  0  0  0  0  0  0  0  0  0  0  0
   39.4310   34.3740   38.3470 C   0  0  0  0  0  0  0  0  0  0  0  0
   40.4800   34.3190   38.7350 N   0  0  0  0  0  0  0  0  0  0  0  0
   44.2431   34.7681   46.2434 H   0  0  0  0  0  0  0  0  0  0  0  0
   46.9604   31.9535   47.8444 H   0  0  0  0  0  0  0  0  0  0  0  0
   48.5014   34.5813   43.8824 H   0  0  0  0  0  0  0  0  0  0  0  0
   49.6558   34.5493   41.6830 H   0  0  0  0  0  0  0  0  0  0  0  0
   47.3366   31.2385   40.5570 H   0  0  0  0  0  0  0  0  0  0  0  0
   45.8290   36.7493   44.1014 H   0  0  0  0  0  0  0  0  0  0  0  0
   42.7384   36.0188   40.8673 H   0  0  0  0  0  0  0  0  0  0  0  0
   44.4979   33.4067   39.9268 H   0  0  0  0  0  0  0  0  0  0  0  0
   43.8495   34.0508   38.6805 H   0  0  0  0  0  0  0  0  0  0  0  0
   41.9499   32.9336   41.2262 H   0  0  0  0  0  0  0  0  0  0  0  0
   40.1348   33.0727   41.7864 H   0  0  0  0  0  0  0  0  0  0  0  0
   39.0824   34.7308   37.3666 H   0  0  0  0  0  0  0  0  0  0  0  0
  1  6  2  0
  2  1  1  0
  3  2  2  0
  3  4  1  0
  4  5  2  0
  5  6  1  0
  7  3  1  0
  8  7  1  0
  9  8  2  0
 10 12  1  0
 10  9  1  0
 11 10  2  0
 12 13  1  0
 13 14  2  0
 13  7  1  0
 15  2  1  0
 16 15  1  0
 17 16  2  0
 18 17  1  0
 18 19  2  0
 19 15  1  0
 20 18  1  0
 21 22  1  0
 21 20  1  0
 22 20  1  0
 23 22  1  0
 23 24  2  0
 25 24  1  0
 26 27  2  0
 26 25  1  0
 27 23  1  0
  1 28  1  0
  5 29  1  0
  8 30  1  0
  9 31  1  0
 12 32  1  0
 16 33  1  0
 20 34  1  6
 21 35  1  0
 21 36  1  0
 22 37  1  1
 24 38  1  0
 26 39  1  0
M  ISO  8  28  14  29  14  30  14  31  14  32   9  33  14  34  13  35  13
M  ISO  4  36  13  37  13  38  14  39  14
M  END
>  <minimizedAffinity>  (1) 
-5.62994671

>  <minimizedRMSD>  (1) 
1.89357865

$$$$
