
     RDKit          3D

 39 42  0  0  1  0  0  0  0  0999 V2000
   45.0910   33.9710   46.0910 C   0  0  0  0  0  0  0  0  0  0  0  0
   45.7240   33.7700   44.8530 C   0  0  0  0  0  0  0  0  0  0  0  0
   46.7760   32.9010   44.7810 C   0  0  0  0  0  0  0  0  0  0  0  0
   47.1720   32.2650   45.9080 N   0  0  0  0  0  0  0  0  0  0  0  0
   46.5550   32.4680   47.0930 C   0  0  0  0  0  0  0  0  0  0  0  0
   45.5210   33.3200   47.1650 N   0  0  0  0  0  0  0  0  0  0  0  0
   47.4000   32.7130   43.5220 N   0  0  0  0  0  0  0  0  0  0  0  0
   48.3040   33.7010   43.2360 C   0  0  0  0  0  0  0  0  0  0  0  0
   48.9840   33.6310   42.0270 C   0  0  0  0  0  0  0  0  0  0  0  0
   48.7820   32.6270   41.1330 C   0  0  0  0  0  0  0  0  0  0  0  0
   49.4090   32.5790   40.0380 O   0  0  0  0  0  0  0  0  0  0  0  0
   47.8710   31.6680   41.4660 N   0  0  0  0  0  0  0  0  0  0  0  0
   47.1990   31.7170   42.6370 C   0  0  0  0  0  0  0  0  0  0  0  0
   46.3510   30.8620   42.9910 O   0  0  0  0  0  0  0  0  0  0  0  0
   45.2060   34.5030   43.7520 N   0  0  0  0  0  0  0  0  0  0  0  0
   45.1910   35.8720   43.5250 C   0  0  0  0  0  0  0  0  0  0  0  0
   44.5950   36.1180   42.3430 N   0  0  0  0  0  0  0  0  0  0  0  0
   44.2410   34.9010   41.8420 C   0  0  0  0  0  0  0  0  0  0  0  0
   44.6130   33.9570   42.6950 N   0  0  0  0  0  0  0  0  0  0  0  0
   43.5380   34.6210   40.5550 C   0  0  1  0  0  0  0  0  0  0  0  0
   42.5430   33.4630   40.5780 C   0  0  0  0  0  0  0  0  0  0  0  0
   42.1430   34.9100   40.3160 C   0  0  1  0  0  0  0  0  0  0  0  0
   41.2450   35.6370   41.2600 C   0  0  0  0  0  0  0  0  0  0  0  0
   40.1350   36.3970   40.6010 C   0  0  0  0  0  0  0  0  0  0  0  0
   44.2417   34.6656   46.1701 H   0  0  0  0  0  0  0  0  0  0  0  0
   46.8985   31.9378   47.9935 H   0  0  0  0  0  0  0  0  0  0  0  0
   48.4860   34.5247   43.9420 H   0  0  0  0  0  0  0  0  0  0  0  0
   49.7135   34.4176   41.7837 H   0  0  0  0  0  0  0  0  0  0  0  0
   47.6921   30.8921   40.8126 H   0  0  0  0  0  0  0  0  0  0  0  0
   45.6009   36.6350   44.2031 H   0  0  0  0  0  0  0  0  0  0  0  0
   44.4392   34.9124   39.9956 H   0  0  0  0  0  0  0  0  0  0  0  0
   42.5277   32.7224   39.7648 H   0  0  0  0  0  0  0  0  0  0  0  0
   42.2560   32.6718   41.2863 H   0  0  0  0  0  0  0  0  0  0  0  0
   41.6254   35.4573   39.5144 H   0  0  0  0  0  0  0  0  0  0  0  0
   40.7982   34.9011   41.9447 H   0  0  0  0  0  0  0  0  0  0  0  0
   41.8700   36.3808   41.7760 H   0  0  0  0  0  0  0  0  0  0  0  0
   39.4869   36.8408   41.3710 H   0  0  0  0  0  0  0  0  0  0  0  0
   40.5589   37.1952   39.9740 H   0  0  0  0  0  0  0  0  0  0  0  0
   39.5441   35.7131   39.9740 H   0  0  0  0  0  0  0  0  0  0  0  0
  1  6  2  0
  2  1  1  0
  3  2  2  0
  3  4  1  0
  4  5  2  0
  5  6  1  0
  7  3  1  0
  8  7  1  0
  9  8  2  0
 10 12  1  0
 10  9  1  0
 11 10  2  0
 12 13  1  0
 13 14  2  0
 13  7  1  0
 15  2  1  0
 16 15  1  0
 17 16  2  0
 18 17  1  0
 18 19  2  0
 19 15  1  0
 20 21  1  0
 20 18  1  0
 22 20  1  0
 22 21  1  0
 22 23  1  0
 24 23  1  0
  1 25  1  0
  5 26  1  0
  8 27  1  0
  9 28  1  0
 12 29  1  0
 16 30  1  0
 20 31  1  6
 21 32  1  0
 21 33  1  0
 22 34  1  6
 23 35  1  0
 23 36  1  0
 24 37  1  0
 24 38  1  0
 24 39  1  0
M  ISO  8  25  14  26  14  27  14  28  14  29   9  30  14  31  13  32  13
M  ISO  7  33  13  34  13  35   8  36   8  37   8  38   8  39   8
M  END
>  <minimizedAffinity>  (1) 
-5.30907822

>  <minimizedRMSD>  (1) 
1.74810612

$$$$
