
     RDKit          3D

 35 38  0  0  1  0  0  0  0  0999 V2000
   45.2570   33.4010   44.3870 C   0  0  0  0  0  0  0  0  0  0  0  0
   45.6580   33.6440   43.0640 C   0  0  0  0  0  0  0  0  0  0  0  0
   46.8960   33.2140   42.6650 C   0  0  0  0  0  0  0  0  0  0  0  0
   47.6880   32.5730   43.5590 N   0  0  0  0  0  0  0  0  0  0  0  0
   47.2810   32.3500   44.8280 C   0  0  0  0  0  0  0  0  0  0  0  0
   46.0700   32.7680   45.2240 N   0  0  0  0  0  0  0  0  0  0  0  0
   47.2890   33.4700   41.3170 N   0  0  0  0  0  0  0  0  0  0  0  0
   47.9320   34.6650   41.1830 C   0  0  0  0  0  0  0  0  0  0  0  0
   48.3680   35.0330   39.9170 C   0  0  0  0  0  0  0  0  0  0  0  0
   48.1690   34.2380   38.8260 C   0  0  0  0  0  0  0  0  0  0  0  0
   48.5720   34.5850   37.6750 O   0  0  0  0  0  0  0  0  0  0  0  0
   47.5220   33.0550   39.0190 N   0  0  0  0  0  0  0  0  0  0  0  0
   47.0930   32.6830   40.2410 C   0  0  0  0  0  0  0  0  0  0  0  0
   46.4900   31.6060   40.4770 O   0  0  0  0  0  0  0  0  0  0  0  0
   44.7360   34.3250   42.2320 N   0  0  0  0  0  0  0  0  0  0  0  0
   44.4380   35.6770   42.1610 C   0  0  0  0  0  0  0  0  0  0  0  0
   43.4940   35.8710   41.2220 N   0  0  0  0  0  0  0  0  0  0  0  0
   43.2060   34.6400   40.7130 C   0  0  0  0  0  0  0  0  0  0  0  0
   43.9570   33.7380   41.3280 N   0  0  0  0  0  0  0  0  0  0  0  0
   42.2150   34.3000   39.6440 C   0  0  1  0  0  0  0  0  0  0  0  0
   41.2440   33.1690   39.9920 C   0  0  0  0  0  0  0  0  0  0  0  0
   40.8020   34.6140   39.7460 C   0  0  1  0  0  0  0  0  0  0  0  0
   40.3380   35.4370   40.8760 C   0  0  0  0  0  0  0  0  0  0  0  0
   40.1080   36.6270   40.7720 O   0  0  0  0  0  0  0  0  0  0  0  0
   44.2672   33.7357   44.7309 H   0  0  0  0  0  0  0  0  0  0  0  0
   47.9417   31.8266   45.5348 H   0  0  0  0  0  0  0  0  0  0  0  0
   48.1003   35.3181   42.0520 H   0  0  0  0  0  0  0  0  0  0  0  0
   48.8890   35.9934   39.7899 H   0  0  0  0  0  0  0  0  0  0  0  0
   47.3574   32.4325   38.2150 H   0  0  0  0  0  0  0  0  0  0  0  0
   44.8994   36.4651   42.7742 H   0  0  0  0  0  0  0  0  0  0  0  0
   42.9497   34.5294   38.8582 H   0  0  0  0  0  0  0  0  0  0  0  0
   41.0162   32.3819   39.2581 H   0  0  0  0  0  0  0  0  0  0  0  0
   41.1380   32.4292   40.7991 H   0  0  0  0  0  0  0  0  0  0  0  0
   40.0641   35.0824   39.0781 H   0  0  0  0  0  0  0  0  0  0  0  0
   40.1935   34.9556   41.8545 H   0  0  0  0  0  0  0  0  0  0  0  0
  1  6  2  0
  2  1  1  0
  3  2  2  0
  3  4  1  0
  4  5  2  0
  5  6  1  0
  7  3  1  0
  8  7  1  0
  9  8  2  0
 10 12  1  0
 10  9  1  0
 11 10  2  0
 12 13  1  0
 13 14  2  0
 13  7  1  0
 15  2  1  0
 16 15  1  0
 17 16  2  0
 18 17  1  0
 18 19  2  0
 19 15  1  0
 20 22  1  0
 20 21  1  0
 20 18  1  0
 22 21  1  0
 22 23  1  0
 24 23  2  0
  1 25  1  0
  5 26  1  0
  8 27  1  0
  9 28  1  0
 12 29  1  0
 16 30  1  0
 20 31  1  6
 21 32  1  0
 21 33  1  0
 22 34  1  6
 23 35  1  0
M  ISO  8  25  14  26  14  27  14  28  14  29   9  30  14  31  13  32  13
M  ISO  3  33  13  34  13  35   6
M  END
>  <minimizedAffinity>  (1) 
-5.15826559

>  <minimizedRMSD>  (1) 
1.18423748

$$$$
