
     RDKit          3D

 38 40  0  0  0  0  0  0  0  0999 V2000
   44.5560   34.4220   42.1630 C   0  0  0  0  0  0  0  0  0  0  0  0
   45.0970   34.3460   44.5500 C   0  0  0  0  0  0  0  0  0  0  0  0
   45.3960   33.8620   43.2610 C   0  0  0  0  0  0  0  0  0  0  0  0
   46.4250   32.9240   43.1630 C   0  0  0  0  0  0  0  0  0  0  0  0
   47.0700   32.5320   44.2790 N   0  0  0  0  0  0  0  0  0  0  0  0
   46.7640   33.0120   45.5020 C   0  0  0  0  0  0  0  0  0  0  0  0
   45.7760   33.9210   45.6400 N   0  0  0  0  0  0  0  0  0  0  0  0
   45.3350   34.1630   40.8470 C   0  0  0  0  0  0  0  0  0  0  0  0
   44.4010   35.8900   42.3250 C   0  0  0  0  0  0  0  0  0  0  0  0
   43.2580   33.6960   42.1100 C   0  0  0  0  0  0  0  0  0  0  0  0
   42.2260   34.2820   41.2280 C   0  0  0  0  0  0  0  0  0  0  0  0
   41.6550   35.4970   41.6470 C   0  0  0  0  0  0  0  0  0  0  0  0
   40.6270   36.1230   40.9810 C   0  0  0  0  0  0  0  0  0  0  0  0
   40.1030   35.5630   39.8380 C   0  0  0  0  0  0  0  0  0  0  0  0
   40.6310   34.3730   39.3830 C   0  0  0  0  0  0  0  0  0  0  0  0
   40.1750   33.7530   38.2200 C   0  0  0  0  0  0  0  0  0  0  0  0
   40.7250   32.5760   37.7550 C   0  0  0  0  0  0  0  0  0  0  0  0
   41.7740   31.9900   38.4770 C   0  0  0  0  0  0  0  0  0  0  0  0
   42.1790   32.6340   39.6040 C   0  0  0  0  0  0  0  0  0  0  0  0
   41.6430   33.8020   40.0820 C   0  0  0  0  0  0  0  0  0  0  0  0
   44.2929   35.0865   44.6728 H   0  0  0  0  0  0  0  0  0  0  0  0
   46.7066   32.5088   42.1840 H   0  0  0  0  0  0  0  0  0  0  0  0
   47.3189   32.6631   46.3854 H   0  0  0  0  0  0  0  0  0  0  0  0
   46.3541   33.8242   41.0848 H   0  0  0  0  0  0  0  0  0  0  0  0
   44.8183   33.3883   40.2614 H   0  0  0  0  0  0  0  0  0  0  0  0
   45.3850   35.0929   40.2614 H   0  0  0  0  0  0  0  0  0  0  0  0
   44.3746   36.1399   43.3959 H   0  0  0  0  0  0  0  0  0  0  0  0
   45.2500   36.4030   41.8495 H   0  0  0  0  0  0  0  0  0  0  0  0
   43.4636   36.2144   41.8495 H   0  0  0  0  0  0  0  0  0  0  0  0
   43.4583   32.6724   41.7606 H   0  0  0  0  0  0  0  0  0  0  0  0
   42.8450   33.7498   43.1281 H   0  0  0  0  0  0  0  0  0  0  0  0
   42.0518   35.9723   42.5562 H   0  0  0  0  0  0  0  0  0  0  0  0
   40.2231   37.0724   41.3624 H   0  0  0  0  0  0  0  0  0  0  0  0
   39.2800   36.0546   39.2986 H   0  0  0  0  0  0  0  0  0  0  0  0
   39.3519   34.2163   37.6562 H   0  0  0  0  0  0  0  0  0  0  0  0
   40.3473   32.1063   36.8348 H   0  0  0  0  0  0  0  0  0  0  0  0
   42.2472   31.0533   38.1474 H   0  0  0  0  0  0  0  0  0  0  0  0
   43.0017   32.1822   40.1776 H   0  0  0  0  0  0  0  0  0  0  0  0
  1  9  1  0
  1  3  1  0
  2  7  2  0
  3  2  1  0
  4  3  2  0
  4  5  1  0
  5  6  2  0
  6  7  1  0
  8  1  1  0
 10  1  1  0
 11 12  2  0
 11 10  1  0
 13 12  1  0
 14 13  2  0
 15 14  1  0
 15 20  2  0
 16 15  1  0
 17 16  2  0
 17 18  1  0
 18 19  2  0
 19 20  1  0
 20 11  1  0
  2 21  1  0
  4 22  1  0
  6 23  1  0
  8 24  1  0
  8 25  1  0
  8 26  1  0
  9 27  1  0
  9 28  1  0
  9 29  1  0
 10 30  1  0
 10 31  1  0
 12 32  1  0
 13 33  1  0
 14 34  1  0
 16 35  1  0
 17 36  1  0
 18 37  1  0
 19 38  1  0
M  ISO  8  21  14  22  14  23  14  24   8  25   8  26   8  27   8  28   8
M  ISO  8  29   8  30   8  31   8  32  14  33  14  34  14  35  14  36  14
M  ISO  2  37  14  38  14
M  END
>  <minimizedAffinity>  (1) 
-5.06466866

>  <minimizedRMSD>  (1) 
2.66667223

$$$$
