
     RDKit          3D

 32 35  0  0  0  0  0  0  0  0999 V2000
   46.7070   34.7850   42.0970 C   0  0  0  0  0  0  0  0  0  0  0  0
   47.9510   35.2890   41.8910 C   0  0  0  0  0  0  0  0  0  0  0  0
   48.6860   35.1280   40.7380 C   0  0  0  0  0  0  0  0  0  0  0  0
   48.1110   34.4100   39.7430 N   0  0  0  0  0  0  0  0  0  0  0  0
   46.9020   33.9080   39.9190 C   0  0  0  0  0  0  0  0  0  0  0  0
   46.1890   34.0710   41.0540 N   0  0  0  0  0  0  0  0  0  0  0  0
   46.3510   33.1620   38.8340 N   0  0  0  0  0  0  0  0  0  0  0  0
   45.3920   32.2530   38.7150 N   0  0  0  0  0  0  0  0  0  0  0  0
   45.2690   31.8580   37.4430 C   0  0  0  0  0  0  0  0  0  0  0  0
   46.2130   32.5670   36.7130 C   0  0  0  0  0  0  0  0  0  0  0  0
   46.8770   33.3750   37.6060 C   0  0  0  0  0  0  0  0  0  0  0  0
   44.3960   36.0500   44.7990 C   0  0  0  0  0  0  0  0  0  0  0  0
   45.0550   35.9910   43.5640 C   0  0  0  0  0  0  0  0  0  0  0  0
   45.9490   34.9710   43.3350 C   0  0  0  0  0  0  0  0  0  0  0  0
   46.1370   34.0850   44.3200 N   0  0  0  0  0  0  0  0  0  0  0  0
   45.5150   34.1300   45.4980 C   0  0  0  0  0  0  0  0  0  0  0  0
   44.6420   35.1030   45.7590 N   0  0  0  0  0  0  0  0  0  0  0  0
   45.8350   33.0960   46.4450 N   0  0  0  0  0  0  0  0  0  0  0  0
   45.2670   32.8840   47.6240 N   0  0  0  0  0  0  0  0  0  0  0  0
   45.8220   31.8240   48.2380 C   0  0  0  0  0  0  0  0  0  0  0  0
   46.7850   31.3880   47.3490 C   0  0  0  0  0  0  0  0  0  0  0  0
   46.8080   32.1850   46.2040 C   0  0  0  0  0  0  0  0  0  0  0  0
   48.4058   35.8698   42.7070 H   0  0  0  0  0  0  0  0  0  0  0  0
   49.6913   35.5612   40.6298 H   0  0  0  0  0  0  0  0  0  0  0  0
   44.5580   31.1156   37.0515 H   0  0  0  0  0  0  0  0  0  0  0  0
   46.3947   32.4963   35.6304 H   0  0  0  0  0  0  0  0  0  0  0  0
   47.6927   34.0722   37.3642 H   0  0  0  0  0  0  0  0  0  0  0  0
   43.6784   36.8594   44.9990 H   0  0  0  0  0  0  0  0  0  0  0  0
   44.8606   36.7481   42.7900 H   0  0  0  0  0  0  0  0  0  0  0  0
   45.5677   31.4017   49.2213 H   0  0  0  0  0  0  0  0  0  0  0  0
   47.4465   30.5261   47.5210 H   0  0  0  0  0  0  0  0  0  0  0  0
   47.4578   32.0954   45.3210 H   0  0  0  0  0  0  0  0  0  0  0  0
  1 14  1  0
  2  1  2  0
  3  2  1  0
  4  5  1  0
  4  3  2  0
  5  6  2  0
  6  1  1  0
  7  5  1  0
  8  7  1  0
  9  8  2  0
 10  9  1  0
 10 11  2  0
 11  7  1  0
 12 17  2  0
 13 12  1  0
 14 13  2  0
 14 15  1  0
 15 16  2  0
 16 17  1  0
 16 18  1  0
 18 19  1  0
 19 20  2  0
 21 20  1  0
 22 18  1  0
 22 21  2  0
  2 23  1  0
  3 24  1  0
  9 25  1  0
 10 26  1  0
 11 27  1  0
 12 28  1  0
 13 29  1  0
 20 30  1  0
 21 31  1  0
 22 32  1  0
M  ISO  8  23  14  24  14  25  14  26  14  27  14  28  14  29  14  30  14
M  ISO  2  31  14  32  14
M  END
>  <minimizedAffinity>  (1) 
-6.6714468

>  <minimizedRMSD>  (1) 
0.184751153

$$$$
