
     RDKit          3D

 28 30  0  0  0  0  0  0  0  0999 V2000
   46.7200   34.7440   42.0040 C   0  0  0  0  0  0  0  0  0  0  0  0
   47.9670   35.2880   41.7840 C   0  0  0  0  0  0  0  0  0  0  0  0
   48.6780   35.1590   40.6120 C   0  0  0  0  0  0  0  0  0  0  0  0
   48.1060   34.4460   39.6130 N   0  0  0  0  0  0  0  0  0  0  0  0
   46.8980   33.9100   39.8050 C   0  0  0  0  0  0  0  0  0  0  0  0
   46.2160   34.0470   40.9550 N   0  0  0  0  0  0  0  0  0  0  0  0
   46.3450   33.1740   38.7240 N   0  0  0  0  0  0  0  0  0  0  0  0
   45.3910   32.2540   38.6130 N   0  0  0  0  0  0  0  0  0  0  0  0
   45.2610   31.8730   37.3340 C   0  0  0  0  0  0  0  0  0  0  0  0
   46.1970   32.6020   36.5920 C   0  0  0  0  0  0  0  0  0  0  0  0
   46.8540   33.4040   37.4990 C   0  0  0  0  0  0  0  0  0  0  0  0
   44.4660   35.9790   44.7580 C   0  0  0  0  0  0  0  0  0  0  0  0
   45.1030   35.9440   43.5020 C   0  0  0  0  0  0  0  0  0  0  0  0
   45.9950   34.9010   43.2510 C   0  0  0  0  0  0  0  0  0  0  0  0
   46.1880   34.0010   44.2180 N   0  0  0  0  0  0  0  0  0  0  0  0
   45.5820   34.0380   45.4050 C   0  0  0  0  0  0  0  0  0  0  0  0
   44.7230   35.0110   45.6940 N   0  0  0  0  0  0  0  0  0  0  0  0
   45.8450   33.0000   46.4370 C   0  0  0  0  0  0  0  0  0  0  0  0
   44.9850   33.1770   47.5250 F   0  0  0  0  0  0  0  0  0  0  0  0
   45.6920   31.7200   45.9600 F   0  0  0  0  0  0  0  0  0  0  0  0
   47.1250   33.1020   46.9520 F   0  0  0  0  0  0  0  0  0  0  0  0
   48.4257   35.8648   42.6007 H   0  0  0  0  0  0  0  0  0  0  0  0
   49.6710   35.6168   40.4920 H   0  0  0  0  0  0  0  0  0  0  0  0
   44.5526   31.1283   36.9422 H   0  0  0  0  0  0  0  0  0  0  0  0
   46.3721   32.5461   35.5075 H   0  0  0  0  0  0  0  0  0  0  0  0
   47.6601   34.1140   37.2619 H   0  0  0  0  0  0  0  0  0  0  0  0
   43.7578   36.7883   44.9892 H   0  0  0  0  0  0  0  0  0  0  0  0
   44.9034   36.7148   42.7430 H   0  0  0  0  0  0  0  0  0  0  0  0
  1 14  1  0
  2  1  2  0
  3  2  1  0
  4  5  1  0
  4  3  2  0
  5  6  2  0
  6  1  1  0
  7  5  1  0
  8  7  1  0
  9  8  2  0
 10  9  1  0
 10 11  2  0
 11  7  1  0
 12 17  2  0
 13 12  1  0
 14 13  2  0
 14 15  1  0
 15 16  2  0
 16 17  1  0
 16 18  1  0
 18 21  1  0
 18 19  1  0
 20 18  1  0
  2 22  1  0
  3 23  1  0
  9 24  1  0
 10 25  1  0
 11 26  1  0
 12 27  1  0
 13 28  1  0
M  ISO  7  22  14  23  14  24  14  25  14  26  14  27  14  28  14
M  END
>  <minimizedAffinity>  (1) 
-6.24691153

>  <minimizedRMSD>  (1) 
0.10646823

$$$$
