
     RDKit          3D

 30 33  0  0  0  0  0  0  0  0999 V2000
   46.7130   34.7570   42.0920 C   0  0  0  0  0  0  0  0  0  0  0  0
   47.9470   35.2970   41.8750 C   0  0  0  0  0  0  0  0  0  0  0  0
   48.6700   35.1620   40.7100 C   0  0  0  0  0  0  0  0  0  0  0  0
   48.1020   34.4380   39.7180 N   0  0  0  0  0  0  0  0  0  0  0  0
   46.9130   33.9080   39.9060 C   0  0  0  0  0  0  0  0  0  0  0  0
   46.2000   34.0400   41.0500 N   0  0  0  0  0  0  0  0  0  0  0  0
   46.3440   33.1490   38.8310 N   0  0  0  0  0  0  0  0  0  0  0  0
   45.3930   32.2330   38.7190 N   0  0  0  0  0  0  0  0  0  0  0  0
   45.2670   31.8480   37.4440 C   0  0  0  0  0  0  0  0  0  0  0  0
   46.2050   32.5700   36.6970 C   0  0  0  0  0  0  0  0  0  0  0  0
   46.8650   33.3780   37.5960 C   0  0  0  0  0  0  0  0  0  0  0  0
   44.4170   35.9480   44.8400 C   0  0  0  0  0  0  0  0  0  0  0  0
   45.0550   35.9120   43.5900 C   0  0  0  0  0  0  0  0  0  0  0  0
   45.9720   34.9210   43.3420 C   0  0  0  0  0  0  0  0  0  0  0  0
   46.2140   34.0210   44.3280 N   0  0  0  0  0  0  0  0  0  0  0  0
   45.6120   34.0500   45.5140 C   0  0  0  0  0  0  0  0  0  0  0  0
   44.7050   35.0120   45.7890 N   0  0  0  0  0  0  0  0  0  0  0  0
   45.9600   33.0230   46.4920 C   0  0  0  0  0  0  0  0  0  0  0  0
   45.1620   32.9570   47.5760 N   0  0  0  0  0  0  0  0  0  0  0  0
   45.5840   31.9960   48.3700 O   0  0  0  0  0  0  0  0  0  0  0  0
   46.6350   31.4570   47.8050 C   0  0  0  0  0  0  0  0  0  0  0  0
   46.8980   32.0710   46.6330 N   0  0  0  0  0  0  0  0  0  0  0  0
   48.3976   35.8829   42.6897 H   0  0  0  0  0  0  0  0  0  0  0  0
   49.6625   35.6213   40.5918 H   0  0  0  0  0  0  0  0  0  0  0  0
   44.5579   31.1025   37.0549 H   0  0  0  0  0  0  0  0  0  0  0  0
   46.3794   32.5052   35.6129 H   0  0  0  0  0  0  0  0  0  0  0  0
   47.6728   34.0853   37.3567 H   0  0  0  0  0  0  0  0  0  0  0  0
   43.6803   36.7360   45.0552 H   0  0  0  0  0  0  0  0  0  0  0  0
   44.8240   36.6651   42.8223 H   0  0  0  0  0  0  0  0  0  0  0  0
   47.2186   30.6245   48.2250 H   0  0  0  0  0  0  0  0  0  0  0  0
  1 14  1  0
  2  1  2  0
  3  2  1  0
  4  5  1  0
  4  3  2  0
  5  6  2  0
  6  1  1  0
  7  5  1  0
  8  7  1  0
  9  8  2  0
 10  9  1  0
 10 11  2  0
 11  7  1  0
 12 17  2  0
 13 12  1  0
 14 13  2  0
 14 15  1  0
 15 16  2  0
 16 17  1  0
 16 18  1  0
 18 22  1  0
 18 19  2  0
 19 20  1  0
 21 20  1  0
 22 21  2  0
  2 23  1  0
  3 24  1  0
  9 25  1  0
 10 26  1  0
 11 27  1  0
 12 28  1  0
 13 29  1  0
 21 30  1  0
M  ISO  8  23  14  24  14  25  14  26  14  27  14  28  14  29  14  30  14
M  END
>  <minimizedAffinity>  (1) 
-6.30918074

>  <minimizedRMSD>  (1) 
0.206912518

$$$$
