
     RDKit          3D

 32 35  0  0  0  0  0  0  0  0999 V2000
   46.6970   34.7700   42.1050 C   0  0  0  0  0  0  0  0  0  0  0  0
   47.9470   35.2870   41.8890 C   0  0  0  0  0  0  0  0  0  0  0  0
   48.6680   35.1320   40.7330 C   0  0  0  0  0  0  0  0  0  0  0  0
   48.1020   34.4190   39.7380 N   0  0  0  0  0  0  0  0  0  0  0  0
   46.8970   33.9080   39.9160 C   0  0  0  0  0  0  0  0  0  0  0  0
   46.1930   34.0620   41.0530 N   0  0  0  0  0  0  0  0  0  0  0  0
   46.3400   33.1610   38.8320 N   0  0  0  0  0  0  0  0  0  0  0  0
   45.3670   32.2670   38.7100 N   0  0  0  0  0  0  0  0  0  0  0  0
   45.2460   31.8660   37.4480 C   0  0  0  0  0  0  0  0  0  0  0  0
   46.2070   32.5490   36.7180 C   0  0  0  0  0  0  0  0  0  0  0  0
   46.8890   33.3620   37.6050 C   0  0  0  0  0  0  0  0  0  0  0  0
   44.3970   36.0110   44.8200 C   0  0  0  0  0  0  0  0  0  0  0  0
   45.0480   35.9500   43.5870 C   0  0  0  0  0  0  0  0  0  0  0  0
   45.9540   34.9480   43.3400 C   0  0  0  0  0  0  0  0  0  0  0  0
   46.1760   34.0490   44.3290 N   0  0  0  0  0  0  0  0  0  0  0  0
   45.5480   34.1110   45.5120 C   0  0  0  0  0  0  0  0  0  0  0  0
   44.6670   35.0700   45.7790 N   0  0  0  0  0  0  0  0  0  0  0  0
   45.7850   33.1440   46.5790 C   0  0  0  0  0  0  0  0  0  0  0  0
   46.9190   32.3420   46.4710 C   0  0  0  0  0  0  0  0  0  0  0  0
   46.9280   31.5210   47.5800 C   0  0  0  0  0  0  0  0  0  0  0  0
   45.7910   31.8670   48.3130 C   0  0  0  0  0  0  0  0  0  0  0  0
   45.1640   32.8180   47.6820 O   0  0  0  0  0  0  0  0  0  0  0  0
   48.4057   35.8688   42.7020 H   0  0  0  0  0  0  0  0  0  0  0  0
   49.6698   35.5724   40.6215 H   0  0  0  0  0  0  0  0  0  0  0  0
   44.5233   31.1340   37.0584 H   0  0  0  0  0  0  0  0  0  0  0  0
   46.3920   32.4608   35.6373 H   0  0  0  0  0  0  0  0  0  0  0  0
   47.7187   34.0425   37.3632 H   0  0  0  0  0  0  0  0  0  0  0  0
   43.6698   36.8115   45.0213 H   0  0  0  0  0  0  0  0  0  0  0  0
   44.8357   36.7034   42.8142 H   0  0  0  0  0  0  0  0  0  0  0  0
   47.6620   32.3598   45.6601 H   0  0  0  0  0  0  0  0  0  0  0  0
   47.6748   30.7542   47.8336 H   0  0  0  0  0  0  0  0  0  0  0  0
   45.4774   31.4123   49.2643 H   0  0  0  0  0  0  0  0  0  0  0  0
  1 14  1  0
  2  1  2  0
  3  2  1  0
  4  5  1  0
  4  3  2  0
  5  6  2  0
  6  1  1  0
  7  5  1  0
  8  7  1  0
  9  8  2  0
 10  9  1  0
 10 11  2  0
 11  7  1  0
 12 17  2  0
 13 12  1  0
 14 13  2  0
 14 15  1  0
 15 16  2  0
 16 17  1  0
 16 18  1  0
 18 22  1  0
 19 18  2  0
 19 20  1  0
 20 21  2  0
 22 21  1  0
  2 23  1  0
  3 24  1  0
  9 25  1  0
 10 26  1  0
 11 27  1  0
 12 28  1  0
 13 29  1  0
 19 30  1  0
 20 31  1  0
 21 32  1  0
M  ISO  8  23  14  24  14  25  14  26  14  27  14  28  14  29  14  30  14
M  ISO  2  31  14  32  14
M  END
>  <minimizedAffinity>  (1) 
-6.4424305

>  <minimizedRMSD>  (1) 
0.340444297

$$$$
