
     RDKit          3D

 45 50  0  0  0  0  0  0  0  0999 V2000
   44.7170   35.5770   44.8570 C   0  0  0  0  0  0  0  0  0  0  0  0
   45.3750   35.7200   43.6360 C   0  0  0  0  0  0  0  0  0  0  0  0
   46.2530   34.7580   43.2160 C   0  0  0  0  0  0  0  0  0  0  0  0
   46.4380   33.6910   44.0350 N   0  0  0  0  0  0  0  0  0  0  0  0
   45.8100   33.5470   45.2080 C   0  0  0  0  0  0  0  0  0  0  0  0
   44.9480   34.4740   45.6400 N   0  0  0  0  0  0  0  0  0  0  0  0
   47.0030   34.7740   41.9800 C   0  0  0  0  0  0  0  0  0  0  0  0
   48.1530   35.4970   41.7870 C   0  0  0  0  0  0  0  0  0  0  0  0
   48.8870   35.5370   40.6360 C   0  0  0  0  0  0  0  0  0  0  0  0
   48.4320   34.8000   39.6050 N   0  0  0  0  0  0  0  0  0  0  0  0
   47.3260   34.0880   39.7440 C   0  0  0  0  0  0  0  0  0  0  0  0
   46.6190   34.0590   40.8800 N   0  0  0  0  0  0  0  0  0  0  0  0
   46.9010   33.3280   38.6110 N   0  0  0  0  0  0  0  0  0  0  0  0
   46.0900   32.2950   38.4330 N   0  0  0  0  0  0  0  0  0  0  0  0
   46.0230   31.9480   37.1510 C   0  0  0  0  0  0  0  0  0  0  0  0
   46.8460   32.8190   36.4740 C   0  0  0  0  0  0  0  0  0  0  0  0
   47.3960   33.6880   37.4020 C   0  0  0  0  0  0  0  0  0  0  0  0
   46.0090   32.4050   46.0830 C   0  0  0  0  0  0  0  0  0  0  0  0
   46.5130   32.6470   47.3470 C   0  0  0  0  0  0  0  0  0  0  0  0
   46.6150   31.4310   47.9850 C   0  0  0  0  0  0  0  0  0  0  0  0
   46.1560   30.4850   47.0510 C   0  0  0  0  0  0  0  0  0  0  0  0
   45.8210   31.1210   45.9690 O   0  0  0  0  0  0  0  0  0  0  0  0
   46.0970   29.0880   47.3150 N   0  0  0  0  0  0  0  0  0  0  0  0
   44.9250   28.3980   47.3370 C   0  0  0  0  0  0  0  0  0  0  0  0
   45.1270   27.0770   47.6110 N   0  0  0  0  0  0  0  0  0  0  0  0
   46.4520   26.9320   47.7640 C   0  0  0  0  0  0  0  0  0  0  0  0
   47.3230   25.9000   48.0450 C   0  0  0  0  0  0  0  0  0  0  0  0
   48.6550   26.0940   48.1330 N   0  0  0  0  0  0  0  0  0  0  0  0
   49.1910   27.3330   47.9450 C   0  0  0  0  0  0  0  0  0  0  0  0
   48.3780   28.3700   47.6690 N   0  0  0  0  0  0  0  0  0  0  0  0
   47.0550   28.1640   47.5840 C   0  0  0  0  0  0  0  0  0  0  0  0
   46.7670   24.6000   48.2440 N   0  0  0  0  0  0  0  0  0  0  0  0
   44.0109   36.3504   45.1935 H   0  0  0  0  0  0  0  0  0  0  0  0
   45.1884   36.6056   43.0107 H   0  0  0  0  0  0  0  0  0  0  0  0
   48.5159   36.0975   42.6342 H   0  0  0  0  0  0  0  0  0  0  0  0
   49.8031   36.1405   40.5553 H   0  0  0  0  0  0  0  0  0  0  0  0
   45.4291   31.1293   36.7185 H   0  0  0  0  0  0  0  0  0  0  0  0
   47.0334   32.8241   35.3901 H   0  0  0  0  0  0  0  0  0  0  0  0
   48.0977   34.5100   37.1974 H   0  0  0  0  0  0  0  0  0  0  0  0
   46.7824   33.6280   47.7653 H   0  0  0  0  0  0  0  0  0  0  0  0
   46.9776   31.2404   49.0059 H   0  0  0  0  0  0  0  0  0  0  0  0
   43.9380   28.8487   47.1565 H   0  0  0  0  0  0  0  0  0  0  0  0
   50.2781   27.4843   48.0181 H   0  0  0  0  0  0  0  0  0  0  0  0
   47.3840   23.8029   48.4558 H   0  0  0  0  0  0  0  0  0  0  0  0
   45.7489   24.4593   48.1757 H   0  0  0  0  0  0  0  0  0  0  0  0
  1  6  2  0
  2  1  1  0
  3  2  2  0
  3  4  1  0
  4  5  2  0
  5  6  1  0
  5 18  1  0
  7  3  1  0
  8  7  2  0
  9  8  1  0
 10 11  1  0
 10  9  2  0
 11 12  2  0
 12  7  1  0
 13 11  1  0
 14 13  1  0
 15 14  2  0
 16 15  1  0
 16 17  2  0
 17 13  1  0
 18 19  2  0
 19 20  1  0
 21 23  1  0
 21 20  2  0
 22 18  1  0
 22 21  1  0
 23 24  1  0
 23 31  1  0
 24 25  2  0
 25 26  1  0
 26 27  2  0
 27 28  1  0
 27 32  1  0
 29 28  2  0
 30 29  1  0
 31 30  2  0
 31 26  1  0
  1 33  1  0
  2 34  1  0
  8 35  1  0
  9 36  1  0
 15 37  1  0
 16 38  1  0
 17 39  1  0
 19 40  1  0
 20 41  1  0
 24 42  1  0
 29 43  1  0
 32 44  1  0
 32 45  1  0
M  ISO  8  33  14  34  14  35  14  36  14  37  14  38  14  39  14  40  14
M  ISO  3  41  14  42  14  43  14
M  END
>  <minimizedAffinity>  (1) 
-6.83105087

>  <minimizedRMSD>  (1) 
2.8676579

$$$$
