
     RDKit          3D

 45 49  0  0  0  0  0  0  0  0999 V2000
   44.6870   35.5200   44.8620 C   0  0  0  0  0  0  0  0  0  0  0  0
   45.3280   35.6500   43.6280 C   0  0  0  0  0  0  0  0  0  0  0  0
   46.2550   34.7260   43.2440 C   0  0  0  0  0  0  0  0  0  0  0  0
   46.5070   33.7170   44.0980 N   0  0  0  0  0  0  0  0  0  0  0  0
   45.8960   33.5880   45.2800 C   0  0  0  0  0  0  0  0  0  0  0  0
   44.9950   34.4620   45.6840 N   0  0  0  0  0  0  0  0  0  0  0  0
   46.9900   34.7440   41.9910 C   0  0  0  0  0  0  0  0  0  0  0  0
   48.1370   35.4600   41.7820 C   0  0  0  0  0  0  0  0  0  0  0  0
   48.8510   35.4970   40.6170 C   0  0  0  0  0  0  0  0  0  0  0  0
   48.3880   34.7680   39.5910 N   0  0  0  0  0  0  0  0  0  0  0  0
   47.2820   34.0580   39.7450 C   0  0  0  0  0  0  0  0  0  0  0  0
   46.5870   34.0290   40.8980 N   0  0  0  0  0  0  0  0  0  0  0  0
   46.8300   33.3000   38.6200 N   0  0  0  0  0  0  0  0  0  0  0  0
   46.0120   32.2680   38.4590 N   0  0  0  0  0  0  0  0  0  0  0  0
   45.9270   31.9280   37.1730 C   0  0  0  0  0  0  0  0  0  0  0  0
   46.7430   32.7990   36.4810 C   0  0  0  0  0  0  0  0  0  0  0  0
   47.3060   33.6580   37.4010 C   0  0  0  0  0  0  0  0  0  0  0  0
   46.1890   32.4770   46.1940 C   0  0  0  0  0  0  0  0  0  0  0  0
   46.8890   32.7710   47.3690 C   0  0  0  0  0  0  0  0  0  0  0  0
   47.0210   31.5610   48.0230 C   0  0  0  0  0  0  0  0  0  0  0  0
   46.4090   30.6040   47.2290 C   0  0  0  0  0  0  0  0  0  0  0  0
   45.9440   31.1970   46.1790 O   0  0  0  0  0  0  0  0  0  0  0  0
   46.3170   29.2170   47.5330 N   0  0  0  0  0  0  0  0  0  0  0  0
   47.4480   28.3270   47.4210 C   0  0  0  0  0  0  0  0  0  0  0  0
   47.0780   27.1400   46.5960 C   0  0  0  0  0  0  0  0  0  0  0  0
   45.7530   26.7650   46.6590 O   0  0  0  0  0  0  0  0  0  0  0  0
   45.1110   27.1670   47.8250 C   0  0  0  0  0  0  0  0  0  0  0  0
   45.0570   28.6560   47.9730 C   0  0  0  0  0  0  0  0  0  0  0  0
   43.9378   36.2620   45.1753 H   0  0  0  0  0  0  0  0  0  0  0  0
   45.0859   36.4955   42.9673 H   0  0  0  0  0  0  0  0  0  0  0  0
   48.5173   36.0572   42.6239 H   0  0  0  0  0  0  0  0  0  0  0  0
   49.7668   36.0994   40.5249 H   0  0  0  0  0  0  0  0  0  0  0  0
   45.3242   31.1125   36.7468 H   0  0  0  0  0  0  0  0  0  0  0  0
   46.9133   32.8068   35.3943 H   0  0  0  0  0  0  0  0  0  0  0  0
   48.0077   34.4777   37.1872 H   0  0  0  0  0  0  0  0  0  0  0  0
   47.2554   33.7537   47.7008 H   0  0  0  0  0  0  0  0  0  0  0  0
   47.5173   31.3899   48.9897 H   0  0  0  0  0  0  0  0  0  0  0  0
   48.2843   28.8578   46.9426 H   0  0  0  0  0  0  0  0  0  0  0  0
   47.7472   27.9921   48.4252 H   0  0  0  0  0  0  0  0  0  0  0  0
   47.6878   26.2890   46.9335 H   0  0  0  0  0  0  0  0  0  0  0  0
   47.2614   27.4289   45.5506 H   0  0  0  0  0  0  0  0  0  0  0  0
   44.0824   26.7774   47.8122 H   0  0  0  0  0  0  0  0  0  0  0  0
   45.6867   26.7701   48.6741 H   0  0  0  0  0  0  0  0  0  0  0  0
   44.8852   28.9162   49.0279 H   0  0  0  0  0  0  0  0  0  0  0  0
   44.2356   29.0615   47.3640 H   0  0  0  0  0  0  0  0  0  0  0  0
  1  6  2  0
  2  1  1  0
  3  2  2  0
  3  4  1  0
  4  5  2  0
  5  6  1  0
  5 18  1  0
  7  3  1  0
  8  7  2  0
  9  8  1  0
 10 11  1  0
 10  9  2  0
 11 12  2  0
 12  7  1  0
 13 11  1  0
 14 13  1  0
 15 14  2  0
 16 15  1  0
 16 17  2  0
 17 13  1  0
 18 19  2  0
 19 20  1  0
 21 23  1  0
 21 20  2  0
 22 18  1  0
 22 21  1  0
 23 28  1  0
 24 23  1  0
 25 26  1  0
 25 24  1  0
 26 27  1  0
 27 28  1  0
  1 29  1  0
  2 30  1  0
  8 31  1  0
  9 32  1  0
 15 33  1  0
 16 34  1  0
 17 35  1  0
 19 36  1  0
 20 37  1  0
 24 38  1  0
 24 39  1  0
 25 40  1  0
 25 41  1  0
 27 42  1  0
 27 43  1  0
 28 44  1  0
 28 45  1  0
M  ISO  8  29  14  30  14  31  14  32  14  33  14  34  14  35  14  36  14
M  ISO  8  37  14  38  13  39  13  40  13  41  13  42  13  43  13  44  13
M  ISO  1  45  13
M  END
>  <minimizedAffinity>  (1) 
-6.571105

>  <minimizedRMSD>  (1) 
2.18034673

$$$$
