
     RDKit          3D

 39 43  0  0  0  0  0  0  0  0999 V2000
   44.6540   35.7870   44.4780 C   0  0  0  0  0  0  0  0  0  0  0  0
   45.2450   35.7910   43.2190 C   0  0  0  0  0  0  0  0  0  0  0  0
   46.1580   34.8220   42.8940 C   0  0  0  0  0  0  0  0  0  0  0  0
   46.4370   33.8960   43.8340 N   0  0  0  0  0  0  0  0  0  0  0  0
   45.8720   33.8880   45.0420 C   0  0  0  0  0  0  0  0  0  0  0  0
   44.9790   34.8210   45.3860 N   0  0  0  0  0  0  0  0  0  0  0  0
   46.8560   34.7040   41.6140 C   0  0  0  0  0  0  0  0  0  0  0  0
   48.0600   35.2740   41.3440 C   0  0  0  0  0  0  0  0  0  0  0  0
   48.7310   35.1780   40.1570 C   0  0  0  0  0  0  0  0  0  0  0  0
   48.1500   34.4640   39.1840 N   0  0  0  0  0  0  0  0  0  0  0  0
   46.9730   33.8890   39.4060 C   0  0  0  0  0  0  0  0  0  0  0  0
   46.3290   33.9950   40.5810 N   0  0  0  0  0  0  0  0  0  0  0  0
   46.4070   33.1420   38.3300 N   0  0  0  0  0  0  0  0  0  0  0  0
   45.4750   32.2060   38.2350 N   0  0  0  0  0  0  0  0  0  0  0  0
   45.3050   31.8170   36.9800 C   0  0  0  0  0  0  0  0  0  0  0  0
   46.1860   32.5530   36.2230 C   0  0  0  0  0  0  0  0  0  0  0  0
   46.8790   33.3870   37.0800 C   0  0  0  0  0  0  0  0  0  0  0  0
   46.1690   32.8900   46.0620 C   0  0  0  0  0  0  0  0  0  0  0  0
   47.0950   31.9010   45.7170 C   0  0  0  0  0  0  0  0  0  0  0  0
   47.2120   31.0810   46.8270 C   0  0  0  0  0  0  0  0  0  0  0  0
   46.3540   31.6160   47.7860 C   0  0  0  0  0  0  0  0  0  0  0  0
   45.7770   32.6630   47.2860 O   0  0  0  0  0  0  0  0  0  0  0  0
   46.1030   31.1080   49.1700 C   0  0  0  0  0  0  0  0  0  0  0  0
   45.1390   30.0000   49.3510 C   0  0  0  0  0  0  0  0  0  0  0  0
   44.7080   31.3800   49.7340 C   0  0  0  0  0  0  0  0  0  0  0  0
   43.9225   36.5646   44.7428 H   0  0  0  0  0  0  0  0  0  0  0  0
   44.9807   36.5686   42.4872 H   0  0  0  0  0  0  0  0  0  0  0  0
   48.5328   35.8601   42.1458 H   0  0  0  0  0  0  0  0  0  0  0  0
   49.7055   35.6658   40.0074 H   0  0  0  0  0  0  0  0  0  0  0  0
   44.5990   31.0561   36.6158 H   0  0  0  0  0  0  0  0  0  0  0  0
   46.3157   32.4895   35.1325 H   0  0  0  0  0  0  0  0  0  0  0  0
   47.6612   34.1092   36.8034 H   0  0  0  0  0  0  0  0  0  0  0  0
   47.6236   31.7955   44.7581 H   0  0  0  0  0  0  0  0  0  0  0  0
   47.8504   30.1912   46.9303 H   0  0  0  0  0  0  0  0  0  0  0  0
   47.1405   31.2798   49.4928 H   0  0  0  0  0  0  0  0  0  0  0  0
   44.6942   29.5153   48.4694 H   0  0  0  0  0  0  0  0  0  0  0  0
   45.1712   29.0335   49.8753 H   0  0  0  0  0  0  0  0  0  0  0  0
   44.5812   31.6467   50.7936 H   0  0  0  0  0  0  0  0  0  0  0  0
   43.8699   32.0428   49.4727 H   0  0  0  0  0  0  0  0  0  0  0  0
  1  6  2  0
  2  1  1  0
  3  2  2  0
  3  4  1  0
  4  5  2  0
  5  6  1  0
  5 18  1  0
  7  3  1  0
  8  7  2  0
  9  8  1  0
 10 11  1  0
 10  9  2  0
 11 12  2  0
 12  7  1  0
 13 11  1  0
 14 13  1  0
 15 14  2  0
 16 15  1  0
 16 17  2  0
 17 13  1  0
 18 22  1  0
 19 18  2  0
 19 20  1  0
 20 21  2  0
 21 23  1  0
 22 21  1  0
 23 24  1  0
 23 25  1  0
 24 25  1  0
  1 26  1  0
  2 27  1  0
  8 28  1  0
  9 29  1  0
 15 30  1  0
 16 31  1  0
 17 32  1  0
 19 33  1  0
 20 34  1  0
 23 35  1  0
 24 36  1  0
 24 37  1  0
 25 38  1  0
 25 39  1  0
M  ISO  8  26  14  27  14  28  14  29  14  30  14  31  14  32  14  33  14
M  ISO  6  34  14  35  13  36  13  37  13  38  13  39  13
M  END
>  <minimizedAffinity>  (1) 
-6.34328985

>  <minimizedRMSD>  (1) 
0.702098072

$$$$
