
     RDKit          3D

 38 42  0  0  0  0  0  0  0  0999 V2000
   44.7020   35.4290   45.0000 C   0  0  0  0  0  0  0  0  0  0  0  0
   45.3330   35.5830   43.7630 C   0  0  0  0  0  0  0  0  0  0  0  0
   46.2550   34.6540   43.3470 C   0  0  0  0  0  0  0  0  0  0  0  0
   46.5160   33.6080   44.1690 N   0  0  0  0  0  0  0  0  0  0  0  0
   45.9070   33.4670   45.3500 C   0  0  0  0  0  0  0  0  0  0  0  0
   45.0050   34.3510   45.7890 N   0  0  0  0  0  0  0  0  0  0  0  0
   46.9800   34.6970   42.0890 C   0  0  0  0  0  0  0  0  0  0  0  0
   48.1250   35.4410   41.8900 C   0  0  0  0  0  0  0  0  0  0  0  0
   48.8290   35.5040   40.7200 C   0  0  0  0  0  0  0  0  0  0  0  0
   48.3610   34.7790   39.6850 N   0  0  0  0  0  0  0  0  0  0  0  0
   47.2590   34.0500   39.8420 C   0  0  0  0  0  0  0  0  0  0  0  0
   46.5760   33.9950   40.9910 N   0  0  0  0  0  0  0  0  0  0  0  0
   46.8250   33.3100   38.7080 N   0  0  0  0  0  0  0  0  0  0  0  0
   46.0140   32.2680   38.5360 N   0  0  0  0  0  0  0  0  0  0  0  0
   45.9290   31.9340   37.2540 C   0  0  0  0  0  0  0  0  0  0  0  0
   46.7340   32.8120   36.5660 C   0  0  0  0  0  0  0  0  0  0  0  0
   47.2990   33.6840   37.4960 C   0  0  0  0  0  0  0  0  0  0  0  0
   46.1940   32.3370   46.2390 C   0  0  0  0  0  0  0  0  0  0  0  0
   46.7970   32.6020   47.4540 C   0  0  0  0  0  0  0  0  0  0  0  0
   46.9460   31.3860   48.0710 C   0  0  0  0  0  0  0  0  0  0  0  0
   46.4290   30.4270   47.2140 C   0  0  0  0  0  0  0  0  0  0  0  0
   46.0090   31.0560   46.1660 O   0  0  0  0  0  0  0  0  0  0  0  0
   46.3540   28.9850   47.4150 C   0  0  0  0  0  0  0  0  0  0  0  0
   45.0320   28.3700   47.7210 C   0  0  0  0  0  0  0  0  0  0  0  0
   45.4390   26.5960   47.8850 S   0  0  0  0  0  0  0  0  0  0  0  0
   47.2690   26.9470   47.5260 C   0  0  0  0  0  0  0  0  0  0  0  0
   47.3000   28.0690   47.3740 N   0  0  0  0  0  0  0  0  0  0  0  0
   43.9642   36.1710   45.3392 H   0  0  0  0  0  0  0  0  0  0  0  0
   45.0921   36.4456   43.1243 H   0  0  0  0  0  0  0  0  0  0  0  0
   48.5008   36.0297   42.7398 H   0  0  0  0  0  0  0  0  0  0  0  0
   49.7365   36.1187   40.6275 H   0  0  0  0  0  0  0  0  0  0  0  0
   45.3318   31.1155   36.8258 H   0  0  0  0  0  0  0  0  0  0  0  0
   46.9017   32.8241   35.4789 H   0  0  0  0  0  0  0  0  0  0  0  0
   47.9925   34.5118   37.2865 H   0  0  0  0  0  0  0  0  0  0  0  0
   47.0959   33.5855   47.8456 H   0  0  0  0  0  0  0  0  0  0  0  0
   47.3920   31.2057   49.0602 H   0  0  0  0  0  0  0  0  0  0  0  0
   44.0534   28.8619   47.8230 H   0  0  0  0  0  0  0  0  0  0  0  0
   48.1023   26.2306   47.4771 H   0  0  0  0  0  0  0  0  0  0  0  0
  1  6  2  0
  2  1  1  0
  3  2  2  0
  3  4  1  0
  4  5  2  0
  5  6  1  0
  5 18  1  0
  7  3  1  0
  8  7  2  0
  9  8  1  0
 10 11  1  0
 10  9  2  0
 11 12  2  0
 12  7  1  0
 13 11  1  0
 14 13  1  0
 15 14  2  0
 16 15  1  0
 16 17  2  0
 17 13  1  0
 18 19  2  0
 19 20  1  0
 21 23  1  0
 21 20  2  0
 22 18  1  0
 22 21  1  0
 23 24  2  0
 24 25  1  0
 26 25  1  0
 27 23  1  0
 27 26  2  0
  1 28  1  0
  2 29  1  0
  8 30  1  0
  9 31  1  0
 15 32  1  0
 16 33  1  0
 17 34  1  0
 19 35  1  0
 20 36  1  0
 24 37  1  0
 26 38  1  0
M  ISO  8  28  14  29  14  30  14  31  14  32  14  33  14  34  14  35  14
M  ISO  3  36  14  37  14  38  14
M  END
>  <minimizedAffinity>  (1) 
-6.44264364

>  <minimizedRMSD>  (1) 
2.2230227

$$$$
