
     RDKit          3D

 36 37  0  0  0  0  0  0  0  0999 V2000
   45.1860   34.5500   42.4680 C   0  0  0  0  0  0  0  0  0  0  0  0
   45.1290   34.3950   44.9740 C   0  0  0  0  0  0  0  0  0  0  0  0
   45.6900   33.9710   43.7640 C   0  0  0  0  0  0  0  0  0  0  0  0
   46.7220   33.0120   43.8360 C   0  0  0  0  0  0  0  0  0  0  0  0
   47.1200   32.5480   45.0350 N   0  0  0  0  0  0  0  0  0  0  0  0
   46.5340   32.9990   46.1900 C   0  0  0  0  0  0  0  0  0  0  0  0
   45.5610   33.9030   46.1370 N   0  0  0  0  0  0  0  0  0  0  0  0
   46.2850   34.5240   41.4440 C   0  0  0  0  0  0  0  0  0  0  0  0
   44.8330   36.0000   42.7780 C   0  0  0  0  0  0  0  0  0  0  0  0
   43.9770   33.8060   42.0400 C   0  0  0  0  0  0  0  0  0  0  0  0
   43.1060   34.5310   41.2390 N   0  0  0  0  0  0  0  0  0  0  0  0
   42.0390   35.2920   41.6640 C   0  0  0  0  0  0  0  0  0  0  0  0
   40.7500   35.0960   40.8770 C   0  0  0  0  0  0  0  0  0  0  0  0
   40.9420   34.8850   39.4820 N   0  0  0  0  0  0  0  0  0  0  0  0
   42.2810   35.2230   39.0870 C   0  0  0  0  0  0  0  0  0  0  0  0
   43.1900   34.2630   39.8230 C   0  0  0  0  0  0  0  0  0  0  0  0
   44.3223   35.1428   44.9664 H   0  0  0  0  0  0  0  0  0  0  0  0
   47.1996   32.6448   42.9157 H   0  0  0  0  0  0  0  0  0  0  0  0
   46.8702   32.6115   47.1631 H   0  0  0  0  0  0  0  0  0  0  0  0
   47.2599   34.5009   41.9529 H   0  0  0  0  0  0  0  0  0  0  0  0
   46.1786   33.6281   40.8146 H   0  0  0  0  0  0  0  0  0  0  0  0
   46.2211   35.4239   40.8146 H   0  0  0  0  0  0  0  0  0  0  0  0
   44.7980   36.1439   43.8680 H   0  0  0  0  0  0  0  0  0  0  0  0
   45.5958   36.6637   42.3449 H   0  0  0  0  0  0  0  0  0  0  0  0
   43.8505   36.2388   42.3449 H   0  0  0  0  0  0  0  0  0  0  0  0
   44.3017   32.9181   41.4777 H   0  0  0  0  0  0  0  0  0  0  0  0
   43.4231   33.5571   42.9572 H   0  0  0  0  0  0  0  0  0  0  0  0
   41.8378   35.0392   42.7155 H   0  0  0  0  0  0  0  0  0  0  0  0
   42.3326   36.3414   41.5135 H   0  0  0  0  0  0  0  0  0  0  0  0
   40.2245   34.2217   41.2886 H   0  0  0  0  0  0  0  0  0  0  0  0
   40.1740   36.0276   40.9785 H   0  0  0  0  0  0  0  0  0  0  0  0
   40.7674   33.8935   39.2647 H   0  0  0  0  0  0  0  0  0  0  0  0
   42.4000   35.1041   37.9999 H   0  0  0  0  0  0  0  0  0  0  0  0
   42.5199   36.2690   39.3296 H   0  0  0  0  0  0  0  0  0  0  0  0
   42.8734   33.2286   39.6237 H   0  0  0  0  0  0  0  0  0  0  0  0
   44.2268   34.3947   39.4799 H   0  0  0  0  0  0  0  0  0  0  0  0
  1  9  1  0
  1  3  1  0
  2  7  2  0
  3  4  2  0
  3  2  1  0
  4  5  1  0
  5  6  2  0
  7  6  1  0
  8  1  1  0
 10  1  1  0
 11 12  1  0
 11 10  1  0
 13 12  1  0
 14 13  1  0
 15 14  1  0
 15 16  1  0
 16 11  1  0
  2 17  1  0
  4 18  1  0
  6 19  1  0
  8 20  1  0
  8 21  1  0
  8 22  1  0
  9 23  1  0
  9 24  1  0
  9 25  1  0
 10 26  1  0
 10 27  1  0
 12 28  1  0
 12 29  1  0
 13 30  1  0
 13 31  1  0
 14 32  1  0
 15 33  1  0
 15 34  1  0
 16 35  1  0
 16 36  1  0
M  ISO  8  17  14  18  14  19  14  20   8  21   8  22   8  23   8  24   8
M  ISO  8  25   8  26   8  27   8  28  13  29  13  30  13  31  13  32   5
M  ISO  4  33  13  34  13  35  13  36  13
M  END
>  <minimizedAffinity>  (1) 
-4.22669268

>  <minimizedRMSD>  (1) 
1.83837819

$$$$
