
     RDKit          3D

 29 30  0  0  0  0  0  0  0  0999 V2000
   45.8860   35.6870   42.8320 C   0  0  0  0  0  0  0  0  0  0  0  0
   46.5150   34.5400   43.3190 C   0  0  0  0  0  0  0  0  0  0  0  0
   46.0420   34.0380   44.5200 C   0  0  0  0  0  0  0  0  0  0  0  0
   45.0090   34.7010   45.1270 N   0  0  0  0  0  0  0  0  0  0  0  0
   44.4310   35.7980   44.6300 C   0  0  0  0  0  0  0  0  0  0  0  0
   44.8740   36.2890   43.4780 N   0  0  0  0  0  0  0  0  0  0  0  0
   47.5850   30.8850   46.9480 C   0  0  0  0  0  0  0  0  0  0  0  0
   47.4740   30.6760   45.5980 C   0  0  0  0  0  0  0  0  0  0  0  0
   46.9850   31.6420   44.7470 C   0  0  0  0  0  0  0  0  0  0  0  0
   46.5770   32.8670   45.1850 C   0  0  0  0  0  0  0  0  0  0  0  0
   46.6960   33.0660   46.5740 C   0  0  0  0  0  0  0  0  0  0  0  0
   47.1890   32.0940   47.4280 C   0  0  0  0  0  0  0  0  0  0  0  0
   48.2120   29.6300   47.9840 S   0  0  0  0  0  0  0  0  0  0  0  0
   48.7550   30.2100   49.2340 O   0  0  0  0  0  0  0  0  0  0  0  0
   49.3090   28.8830   47.3030 O   0  0  0  0  0  0  0  0  0  0  0  0
   47.5990   33.9480   42.5800 C   0  0  0  0  0  0  0  0  0  0  0  0
   48.1890   34.9950   41.6590 C   0  0  0  0  0  0  0  0  0  0  0  0
   46.2334   36.1154   41.8802 H   0  0  0  0  0  0  0  0  0  0  0  0
   43.6030   36.2860   45.1651 H   0  0  0  0  0  0  0  0  0  0  0  0
   47.7851   29.7067   45.1814 H   0  0  0  0  0  0  0  0  0  0  0  0
   46.9211   31.4166   43.6722 H   0  0  0  0  0  0  0  0  0  0  0  0
   46.3848   34.0323   46.9975 H   0  0  0  0  0  0  0  0  0  0  0  0
   47.2610   32.3020   48.5058 H   0  0  0  0  0  0  0  0  0  0  0  0
   47.1774   28.7794   48.2719 H   0  0  0  0  0  0  0  0  0  0  0  0
   48.3712   33.5916   43.2777 H   0  0  0  0  0  0  0  0  0  0  0  0
   47.2289   33.0964   41.9902 H   0  0  0  0  0  0  0  0  0  0  0  0
   48.6416   35.7981   42.2591 H   0  0  0  0  0  0  0  0  0  0  0  0
   48.9595   34.5328   41.0244 H   0  0  0  0  0  0  0  0  0  0  0  0
   47.3946   35.4147   41.0244 H   0  0  0  0  0  0  0  0  0  0  0  0
  1  2  2  0
  1  6  1  0
  2  3  1  0
  3  4  2  0
  3 10  1  0
  5  4  1  0
  6  5  2  0
  7 12  2  0
  7 13  1  0
  8  7  1  0
  9 10  1  0
  9  8  2  0
 10 11  2  0
 11 12  1  0
 13 14  2  0
 15 13  2  0
 16  2  1  0
 17 16  1  0
  1 18  1  0
  5 19  1  0
  8 20  1  0
  9 21  1  0
 11 22  1  0
 12 23  1  0
 13 24  1  0
 16 25  1  0
 16 26  1  0
 17 27  1  0
 17 28  1  0
 17 29  1  0
M  ISO  8  18  14  19  14  20  14  21  14  22  14  23  14  24  11  25   8
M  ISO  4  26   8  27   8  28   8  29   8
M  END
>  <minimizedAffinity>  (1) 
-4.66999722

>  <minimizedRMSD>  (1) 
3.79899192

$$$$
