
     RDKit          3D

 26 27  0  0  0  0  0  0  0  0999 V2000
   43.3350   35.2150   41.9940 C   0  0  0  0  0  0  0  0  0  0  0  0
   44.6570   35.2090   42.4940 C   0  0  0  0  0  0  0  0  0  0  0  0
   45.6210   34.5710   41.7250 C   0  0  0  0  0  0  0  0  0  0  0  0
   45.2340   33.9950   40.5440 N   0  0  0  0  0  0  0  0  0  0  0  0
   43.9670   34.0260   40.1100 C   0  0  0  0  0  0  0  0  0  0  0  0
   43.0250   34.6300   40.8280 N   0  0  0  0  0  0  0  0  0  0  0  0
   47.0280   34.4480   42.0580 C   0  0  0  0  0  0  0  0  0  0  0  0
   47.8100   35.4840   41.5240 C   0  0  0  0  0  0  0  0  0  0  0  0
   49.1720   35.6000   41.7070 C   0  0  0  0  0  0  0  0  0  0  0  0
   49.8480   34.6590   42.4550 C   0  0  0  0  0  0  0  0  0  0  0  0
   49.0900   33.6370   42.9850 C   0  0  0  0  0  0  0  0  0  0  0  0
   47.7330   33.5260   42.8010 C   0  0  0  0  0  0  0  0  0  0  0  0
   44.9790   35.8320   43.7600 C   0  0  0  0  0  0  0  0  0  0  0  0
   45.1440   37.3260   43.5620 C   0  0  0  0  0  0  0  0  0  0  0  0
   42.5428   35.7106   42.5743 H   0  0  0  0  0  0  0  0  0  0  0  0
   43.7045   33.5490   39.1542 H   0  0  0  0  0  0  0  0  0  0  0  0
   47.3042   36.2525   40.9210 H   0  0  0  0  0  0  0  0  0  0  0  0
   49.7184   36.4419   41.2570 H   0  0  0  0  0  0  0  0  0  0  0  0
   50.9338   34.7207   42.6198 H   0  0  0  0  0  0  0  0  0  0  0  0
   49.5985   32.8696   43.5872 H   0  0  0  0  0  0  0  0  0  0  0  0
   47.1965   32.6812   43.2576 H   0  0  0  0  0  0  0  0  0  0  0  0
   44.1665   35.6450   44.4776 H   0  0  0  0  0  0  0  0  0  0  0  0
   45.9169   35.4084   44.1485 H   0  0  0  0  0  0  0  0  0  0  0  0
   45.1988   37.8220   44.5423 H   0  0  0  0  0  0  0  0  0  0  0  0
   46.0692   37.5214   43.0000 H   0  0  0  0  0  0  0  0  0  0  0  0
   44.2838   37.7186   43.0000 H   0  0  0  0  0  0  0  0  0  0  0  0
  1  2  2  0
  2 13  1  0
  3  7  1  0
  3  2  1  0
  4  3  2  0
  5  4  1  0
  5  6  2  0
  6  1  1  0
  7 12  2  0
  8  9  2  0
  8  7  1  0
  9 10  1  0
 10 11  2  0
 12 11  1  0
 14 13  1  0
  1 15  1  0
  5 16  1  0
  8 17  1  0
  9 18  1  0
 10 19  1  0
 11 20  1  0
 12 21  1  0
 13 22  1  0
 13 23  1  0
 14 24  1  0
 14 25  1  0
 14 26  1  0
M  ISO  8  15  14  16  14  17  14  18  14  19  14  20  14  21  14  22   8
M  ISO  4  23   8  24   8  25   8  26   8
M  END
>  <minimizedAffinity>  (1) 
-4.44975185

>  <minimizedRMSD>  (1) 
3.56129122

$$$$
