
     RDKit          3D

 18 18  0  0  0  0  0  0  0  0999 V2000
   45.3100   35.9800   43.1500 C   0  0  0  0  0  0  0  0  0  0  0  0
   46.1540   34.8810   42.9750 C   0  0  0  0  0  0  0  0  0  0  0  0
   46.2060   34.0170   44.0450 C   0  0  0  0  0  0  0  0  0  0  0  0
   45.4900   34.2230   45.1740 N   0  0  0  0  0  0  0  0  0  0  0  0
   44.6950   35.2920   45.2910 C   0  0  0  0  0  0  0  0  0  0  0  0
   44.6180   36.1470   44.2850 N   0  0  0  0  0  0  0  0  0  0  0  0
   46.8890   34.6750   41.7660 C   0  0  0  0  0  0  0  0  0  0  0  0
   48.1990   35.4250   41.8090 C   0  0  0  0  0  0  0  0  0  0  0  0
   46.9980   32.8320   44.0660 C   0  0  0  0  0  0  0  0  0  0  0  0
   47.8990   32.0210   43.8110 O   0  0  0  0  0  0  0  0  0  0  0  0
   45.2118   36.7206   42.3426 H   0  0  0  0  0  0  0  0  0  0  0  0
   44.1139   35.4576   46.2102 H   0  0  0  0  0  0  0  0  0  0  0  0
   46.2933   35.0354   40.9144 H   0  0  0  0  0  0  0  0  0  0  0  0
   47.0977   33.6007   41.6552 H   0  0  0  0  0  0  0  0  0  0  0  0
   48.4914   35.5924   42.8561 H   0  0  0  0  0  0  0  0  0  0  0  0
   48.9761   34.8350   41.3011 H   0  0  0  0  0  0  0  0  0  0  0  0
   48.0836   36.3939   41.3011 H   0  0  0  0  0  0  0  0  0  0  0  0
   46.4267   32.2444   44.7998 H   0  0  0  0  0  0  0  0  0  0  0  0
  1  6  2  0
  2  1  1  0
  2  3  2  0
  3  9  1  0
  3  4  1  0
  4  5  2  0
  6  5  1  0
  7  8  1  0
  7  2  1  0
 10  9  2  0
  1 11  1  0
  5 12  1  0
  7 13  1  0
  7 14  1  0
  8 15  1  0
  8 16  1  0
  8 17  1  0
  9 18  1  0
M  ISO  8  11  14  12  14  13   8  14   8  15   8  16   8  17   8  18   6
M  END
>  <minimizedAffinity>  (1) 
-3.56219053

>  <minimizedRMSD>  (1) 
1.17238998

$$$$
