
     RDKit          3D

 28 28  0  0  0  0  0  0  0  0999 V2000
   45.4580   35.9310   43.0750 C   0  0  0  0  0  0  0  0  0  0  0  0
   46.1990   34.6910   43.1730 C   0  0  0  0  0  0  0  0  0  0  0  0
   46.1310   33.8360   44.3190 C   0  0  0  0  0  0  0  0  0  0  0  0
   45.2990   34.3630   45.2540 N   0  0  0  0  0  0  0  0  0  0  0  0
   44.6170   35.5030   45.1700 C   0  0  0  0  0  0  0  0  0  0  0  0
   44.6860   36.2860   44.1000 N   0  0  0  0  0  0  0  0  0  0  0  0
   46.7960   32.5800   44.5720 C   0  0  0  0  0  0  0  0  0  0  0  0
   47.8640   32.1630   43.5960 C   0  0  0  0  0  0  0  0  0  0  0  0
   45.6950   31.5190   44.1120 C   0  0  0  0  0  0  0  0  0  0  0  0
   46.9970   32.0960   45.9600 C   0  0  0  0  0  0  0  0  0  0  0  0
   47.0920   34.2440   42.0960 C   0  0  0  0  0  0  0  0  0  0  0  0
   48.0800   35.3630   41.7990 C   0  0  0  0  0  0  0  0  0  0  0  0
   45.5309   36.5629   42.1776 H   0  0  0  0  0  0  0  0  0  0  0  0
   43.9772   35.8054   46.0122 H   0  0  0  0  0  0  0  0  0  0  0  0
   48.7503   31.8169   44.1480 H   0  0  0  0  0  0  0  0  0  0  0  0
   47.4843   31.3471   42.9635 H   0  0  0  0  0  0  0  0  0  0  0  0
   48.1376   33.0203   42.9635 H   0  0  0  0  0  0  0  0  0  0  0  0
   45.2270   31.0680   44.9995 H   0  0  0  0  0  0  0  0  0  0  0  0
   44.9265   32.0257   43.5098 H   0  0  0  0  0  0  0  0  0  0  0  0
   46.1730   30.7323   43.5098 H   0  0  0  0  0  0  0  0  0  0  0  0
   46.6746   32.8724   46.6694 H   0  0  0  0  0  0  0  0  0  0  0  0
   46.4033   31.1839   46.1199 H   0  0  0  0  0  0  0  0  0  0  0  0
   48.0622   31.8728   46.1199 H   0  0  0  0  0  0  0  0  0  0  0  0
   47.6359   33.3423   42.4140 H   0  0  0  0  0  0  0  0  0  0  0  0
   46.5085   34.0045   41.1948 H   0  0  0  0  0  0  0  0  0  0  0  0
   48.4520   35.7843   42.7446 H   0  0  0  0  0  0  0  0  0  0  0  0
   48.9243   34.9623   41.2189 H   0  0  0  0  0  0  0  0  0  0  0  0
   47.5778   36.1512   41.2189 H   0  0  0  0  0  0  0  0  0  0  0  0
  1  2  2  0
  1  6  1  0
  2  3  1  0
  3  7  1  0
  3  4  2  0
  5  4  1  0
  6  5  2  0
  7 10  1  0
  8  7  1  0
  9  7  1  0
 11  2  1  0
 12 11  1  0
  1 13  1  0
  5 14  1  0
  8 15  1  0
  8 16  1  0
  8 17  1  0
  9 18  1  0
  9 19  1  0
  9 20  1  0
 10 21  1  0
 10 22  1  0
 10 23  1  0
 11 24  1  0
 11 25  1  0
 12 26  1  0
 12 27  1  0
 12 28  1  0
M  ISO  8  13  14  14  14  15   8  16   8  17   8  18   8  19   8  20   8
M  ISO  8  21   8  22   8  23   8  24   8  25   8  26   8  27   8  28   8
M  END
>  <minimizedAffinity>  (1) 
-3.86585784

>  <minimizedRMSD>  (1) 
1.87042141

$$$$
