
     RDKit          3D

 25 25  0  0  0  0  0  0  0  0999 V2000
   47.7280   34.0710   42.5730 C   0  0  0  0  0  0  0  0  0  0  0  0
   45.8080   35.5670   42.9390 C   0  0  0  0  0  0  0  0  0  0  0  0
   46.6340   34.5290   43.3830 C   0  0  0  0  0  0  0  0  0  0  0  0
   46.3390   33.9850   44.6220 C   0  0  0  0  0  0  0  0  0  0  0  0
   45.2790   34.4790   45.3270 N   0  0  0  0  0  0  0  0  0  0  0  0
   44.5050   35.4870   44.8560 C   0  0  0  0  0  0  0  0  0  0  0  0
   44.7830   36.0190   43.6620 N   0  0  0  0  0  0  0  0  0  0  0  0
   47.1190   32.9340   45.1570 N   0  0  0  0  0  0  0  0  0  0  0  0
   48.1360   35.1730   41.6040 C   0  0  0  0  0  0  0  0  0  0  0  0
   48.7790   34.5090   40.4820 N   0  0  0  0  0  0  0  0  0  0  0  0
   48.0730   34.2720   39.2700 C   0  0  0  0  0  0  0  0  0  0  0  0
   46.7960   34.0440   39.3810 N   0  0  0  0  0  0  0  0  0  0  0  0
   48.8070   34.2970   38.0280 N   0  0  0  0  0  0  0  0  0  0  0  0
   46.1570   33.8570   38.5850 H   0  0  0  0  0  0  0  0  0  0  0  0
   48.5811   33.8158   43.2188 H   0  0  0  0  0  0  0  0  0  0  0  0
   47.4183   33.1801   42.0070 H   0  0  0  0  0  0  0  0  0  0  0  0
   46.0110   36.0259   41.9601 H   0  0  0  0  0  0  0  0  0  0  0  0
   43.6583   35.8626   45.4493 H   0  0  0  0  0  0  0  0  0  0  0  0
   46.8877   32.5392   46.0798 H   0  0  0  0  0  0  0  0  0  0  0  0
   47.9185   32.5631   44.6239 H   0  0  0  0  0  0  0  0  0  0  0  0
   47.2496   35.7274   41.2620 H   0  0  0  0  0  0  0  0  0  0  0  0
   48.8120   35.8971   42.0822 H   0  0  0  0  0  0  0  0  0  0  0  0
   49.7598   34.2058   40.5658 H   0  0  0  0  0  0  0  0  0  0  0  0
   49.8195   34.4860   38.0319 H   0  0  0  0  0  0  0  0  0  0  0  0
   48.3185   34.1258   37.1375 H   0  0  0  0  0  0  0  0  0  0  0  0
  1  3  1  0
  2  3  2  0
  2  7  1  0
  3  4  1  0
  4  8  1  0
  4  5  2  0
  6  5  1  0
  7  6  2  0
  9  1  1  0
 10  9  1  0
 11 12  2  0
 11 10  1  0
 13 11  1  0
 14 12  1  0
  1 15  1  0
  1 16  1  0
  2 17  1  0
  6 18  1  0
  8 19  1  0
  8 20  1  0
  9 21  1  0
  9 22  1  0
 10 23  1  0
 13 24  1  0
 13 25  1  0
M  ISO  6  15   8  16   8  17  14  18  14  21   8  22   8
M  END
>  <minimizedAffinity>  (1) 
-4.49595261

>  <minimizedRMSD>  (1) 
0.749092281

$$$$
