
     RDKit          3D

 32 34  0  0  0  0  0  0  0  0999 V2000
   47.5630   34.8740   41.5140 C   0  0  0  0  0  0  0  0  0  0  0  0
   48.1580   33.9230   40.5810 N   0  0  0  0  0  0  0  0  0  0  0  0
   47.7110   33.8240   39.3040 C   0  0  0  0  0  0  0  0  0  0  0  0
   48.4110   32.8750   38.6230 N   0  0  0  0  0  0  0  0  0  0  0  0
   49.3240   32.3610   39.4930 C   0  0  0  0  0  0  0  0  0  0  0  0
   50.3060   31.4040   39.4520 C   0  0  0  0  0  0  0  0  0  0  0  0
   50.4890   30.7870   38.3740 O   0  0  0  0  0  0  0  0  0  0  0  0
   51.0260   31.1710   40.5570 N   0  0  0  0  0  0  0  0  0  0  0  0
   50.8690   31.8050   41.7330 C   0  0  0  0  0  0  0  0  0  0  0  0
   51.7160   31.4420   42.8200 N   0  0  0  0  0  0  0  0  0  0  0  0
   49.8950   32.7550   41.7780 N   0  0  0  0  0  0  0  0  0  0  0  0
   49.1490   33.0210   40.6920 C   0  0  0  0  0  0  0  0  0  0  0  0
   46.0680   34.5820   41.5830 C   0  0  0  0  0  0  0  0  0  0  0  0
   45.0600   36.0190   43.3080 C   0  0  0  0  0  0  0  0  0  0  0  0
   45.6100   34.7960   42.9250 C   0  0  0  0  0  0  0  0  0  0  0  0
   45.6820   33.8210   43.9280 C   0  0  0  0  0  0  0  0  0  0  0  0
   45.2260   34.1040   45.1780 N   0  0  0  0  0  0  0  0  0  0  0  0
   44.6970   35.3120   45.4960 C   0  0  0  0  0  0  0  0  0  0  0  0
   44.6200   36.2540   44.5600 N   0  0  0  0  0  0  0  0  0  0  0  0
   46.2260   32.5510   43.6280 N   0  0  0  0  0  0  0  0  0  0  0  0
   47.7280   35.9016   41.1578 H   0  0  0  0  0  0  0  0  0  0  0  0
   48.0212   34.7755   42.5092 H   0  0  0  0  0  0  0  0  0  0  0  0
   46.8958   34.4270   38.8776 H   0  0  0  0  0  0  0  0  0  0  0  0
   51.7583   30.4488   40.5020 H   0  0  0  0  0  0  0  0  0  0  0  0
   51.6156   31.9127   43.7306 H   0  0  0  0  0  0  0  0  0  0  0  0
   52.4286   30.7089   42.6950 H   0  0  0  0  0  0  0  0  0  0  0  0
   45.5294   35.2537   40.8984 H   0  0  0  0  0  0  0  0  0  0  0  0
   45.8800   33.5388   41.2890 H   0  0  0  0  0  0  0  0  0  0  0  0
   44.9824   36.8220   42.5602 H   0  0  0  0  0  0  0  0  0  0  0  0
   44.3359   35.5102   46.5160 H   0  0  0  0  0  0  0  0  0  0  0  0
   46.2823   31.8288   44.3603 H   0  0  0  0  0  0  0  0  0  0  0  0
   46.5660   32.3479   42.6772 H   0  0  0  0  0  0  0  0  0  0  0  0
  1 13  1  0
  2 12  1  0
  2  1  1  0
  3  2  1  0
  4  3  2  0
  4  5  1  0
  5 12  2  0
  6  5  1  0
  6  8  1  0
  7  6  2  0
  8  9  1  0
  9 11  2  0
  9 10  1  0
 12 11  1  0
 13 15  1  0
 14 19  2  0
 15 14  1  0
 15 16  2  0
 16 17  1  0
 17 18  2  0
 19 18  1  0
 20 16  1  0
  1 21  1  0
  1 22  1  0
  3 23  1  0
  8 24  1  0
 10 25  1  0
 10 26  1  0
 13 27  1  0
 13 28  1  0
 14 29  1  0
 18 30  1  0
 20 31  1  0
 20 32  1  0
M  ISO  8  21   8  22   8  23  14  24   9  27   8  28   8  29  14  30  14
M  END
>  <minimizedAffinity>  (1) 
-4.79422092

>  <minimizedRMSD>  (1) 
1.95825577

$$$$
