
     RDKit          3D

 30 31  0  0  0  0  0  0  0  0999 V2000
   46.9370   34.5500   42.0070 C   0  0  0  0  0  0  0  0  0  0  0  0
   45.3750   35.9560   43.3110 C   0  0  0  0  0  0  0  0  0  0  0  0
   46.1460   34.7740   43.2120 C   0  0  0  0  0  0  0  0  0  0  0  0
   46.0990   33.9010   44.2800 C   0  0  0  0  0  0  0  0  0  0  0  0
   45.3220   34.2280   45.3480 N   0  0  0  0  0  0  0  0  0  0  0  0
   44.5990   35.3710   45.4040 C   0  0  0  0  0  0  0  0  0  0  0  0
   44.6280   36.2310   44.3860 N   0  0  0  0  0  0  0  0  0  0  0  0
   46.8330   32.7140   44.2520 N   0  0  0  0  0  0  0  0  0  0  0  0
   48.3640   34.9120   42.2770 C   0  0  0  0  0  0  0  0  0  0  0  0
   49.2530   34.1770   41.4420 N   0  0  0  0  0  0  0  0  0  0  0  0
   50.3720   33.6080   42.1500 C   0  0  0  0  0  0  0  0  0  0  0  0
   49.9300   32.2310   42.5270 C   0  0  0  0  0  0  0  0  0  0  0  0
   49.0040   31.8250   41.4150 C   0  0  0  0  0  0  0  0  0  0  0  0
   48.7090   33.1160   40.6740 C   0  0  0  0  0  0  0  0  0  0  0  0
   46.5475   35.1756   41.1903 H   0  0  0  0  0  0  0  0  0  0  0  0
   46.8743   33.4908   41.7169 H   0  0  0  0  0  0  0  0  0  0  0  0
   45.3903   36.6725   42.4765 H   0  0  0  0  0  0  0  0  0  0  0  0
   43.9866   35.5905   46.2910 H   0  0  0  0  0  0  0  0  0  0  0  0
   46.7946   32.0658   45.0515 H   0  0  0  0  0  0  0  0  0  0  0  0
   47.4130   32.4864   43.4318 H   0  0  0  0  0  0  0  0  0  0  0  0
   48.5024   35.9869   42.0887 H   0  0  0  0  0  0  0  0  0  0  0  0
   48.5911   34.6671   43.3251 H   0  0  0  0  0  0  0  0  0  0  0  0
   51.2591   33.5654   41.5010 H   0  0  0  0  0  0  0  0  0  0  0  0
   50.6535   34.2071   43.0285 H   0  0  0  0  0  0  0  0  0  0  0  0
   50.7901   31.5479   42.5878 H   0  0  0  0  0  0  0  0  0  0  0  0
   49.4441   32.1992   43.5134 H   0  0  0  0  0  0  0  0  0  0  0  0
   49.4916   31.0976   40.7493 H   0  0  0  0  0  0  0  0  0  0  0  0
   48.0903   31.3395   41.7885 H   0  0  0  0  0  0  0  0  0  0  0  0
   49.1764   33.0938   39.6785 H   0  0  0  0  0  0  0  0  0  0  0  0
   47.6254   33.2487   40.5392 H   0  0  0  0  0  0  0  0  0  0  0  0
  1  9  1  0
  1  3  1  0
  2  7  2  0
  3  2  1  0
  3  4  2  0
  4  5  1  0
  5  6  2  0
  7  6  1  0
  8  4  1  0
 10 11  1  0
 10  9  1  0
 11 12  1  0
 13 12  1  0
 14 13  1  0
 14 10  1  0
  1 15  1  0
  1 16  1  0
  2 17  1  0
  6 18  1  0
  8 19  1  0
  8 20  1  0
  9 21  1  0
  9 22  1  0
 11 23  1  0
 11 24  1  0
 12 25  1  0
 12 26  1  0
 13 27  1  0
 13 28  1  0
 14 29  1  0
 14 30  1  0
M  ISO  8  15   8  16   8  17  14  18  14  21   8  22   8  23  13  24  13
M  ISO  6  25  13  26  13  27  13  28  13  29  13  30  13
M  END
>  <minimizedAffinity>  (1) 
-3.88231254

>  <minimizedRMSD>  (1) 
1.54724431

$$$$
