
     RDKit          3D

 31 32  0  0  0  0  0  0  0  0999 V2000
   47.0010   34.7590   41.8820 C   0  0  0  0  0  0  0  0  0  0  0  0
   45.3080   35.9750   43.2290 C   0  0  0  0  0  0  0  0  0  0  0  0
   46.2120   34.9010   43.0960 C   0  0  0  0  0  0  0  0  0  0  0  0
   46.2950   34.0190   44.1590 C   0  0  0  0  0  0  0  0  0  0  0  0
   45.5220   34.2300   45.2460 N   0  0  0  0  0  0  0  0  0  0  0  0
   44.6650   35.2640   45.3510 C   0  0  0  0  0  0  0  0  0  0  0  0
   44.5700   36.1190   44.3450 N   0  0  0  0  0  0  0  0  0  0  0  0
   47.1800   32.9190   44.0940 N   0  0  0  0  0  0  0  0  0  0  0  0
   46.1470   34.1430   40.8100 C   0  0  0  0  0  0  0  0  0  0  0  0
   46.8070   33.8010   39.6070 N   0  0  0  0  0  0  0  0  0  0  0  0
   46.7290   32.4490   39.1720 C   0  0  0  0  0  0  0  0  0  0  0  0
   47.1400   32.4450   37.6940 C   0  0  0  0  0  0  0  0  0  0  0  0
   47.2760   33.7520   37.2010 O   0  0  0  0  0  0  0  0  0  0  0  0
   48.3160   34.4080   37.8900 C   0  0  0  0  0  0  0  0  0  0  0  0
   48.1200   34.3130   39.4090 C   0  0  0  0  0  0  0  0  0  0  0  0
   47.3501   35.7485   41.5517 H   0  0  0  0  0  0  0  0  0  0  0  0
   47.8709   34.1151   42.0785 H   0  0  0  0  0  0  0  0  0  0  0  0
   45.2049   36.7034   42.4112 H   0  0  0  0  0  0  0  0  0  0  0  0
   44.0549   35.3955   46.2568 H   0  0  0  0  0  0  0  0  0  0  0  0
   47.2432   32.2614   44.8843 H   0  0  0  0  0  0  0  0  0  0  0  0
   47.7618   32.7749   43.2564 H   0  0  0  0  0  0  0  0  0  0  0  0
   45.7017   33.2251   41.2214 H   0  0  0  0  0  0  0  0  0  0  0  0
   45.4151   34.9168   40.5351 H   0  0  0  0  0  0  0  0  0  0  0  0
   47.4145   31.8203   39.7592 H   0  0  0  0  0  0  0  0  0  0  0  0
   45.7144   32.0453   39.3048 H   0  0  0  0  0  0  0  0  0  0  0  0
   48.1015   31.9207   37.5905 H   0  0  0  0  0  0  0  0  0  0  0  0
   46.3555   31.9348   37.1159 H   0  0  0  0  0  0  0  0  0  0  0  0
   49.2750   33.9407   37.6218 H   0  0  0  0  0  0  0  0  0  0  0  0
   48.3090   35.4699   37.6031 H   0  0  0  0  0  0  0  0  0  0  0  0
   48.8650   33.6332   39.8481 H   0  0  0  0  0  0  0  0  0  0  0  0
   48.2459   35.2931   39.8922 H   0  0  0  0  0  0  0  0  0  0  0  0
  1  3  1  0
  2  7  2  0
  3  2  1  0
  3  4  2  0
  4  5  1  0
  5  6  2  0
  7  6  1  0
  8  4  1  0
  9  1  1  0
 10  9  1  0
 11 10  1  0
 12 11  1  0
 13 12  1  0
 13 14  1  0
 14 15  1  0
 15 10  1  0
  1 16  1  0
  1 17  1  0
  2 18  1  0
  6 19  1  0
  8 20  1  0
  8 21  1  0
  9 22  1  0
  9 23  1  0
 11 24  1  0
 11 25  1  0
 12 26  1  0
 12 27  1  0
 14 28  1  0
 14 29  1  0
 15 30  1  0
 15 31  1  0
M  ISO  8  16   8  17   8  18  14  19  14  22   8  23   8  24  13  25  13
M  ISO  6  26  13  27  13  28  13  29  13  30  13  31  13
M  END
>  <minimizedAffinity>  (1) 
-4.31474352

>  <minimizedRMSD>  (1) 
2.24854708

$$$$
