
     RDKit          3D

 19 19  0  0  0  0  0  0  0  0999 V2000
   45.4270   35.8660   43.1230 C   0  0  0  0  0  0  0  0  0  0  0  0
   46.2540   34.7420   43.1570 C   0  0  0  0  0  0  0  0  0  0  0  0
   46.2060   33.9580   44.3120 C   0  0  0  0  0  0  0  0  0  0  0  0
   45.3700   34.3240   45.3280 N   0  0  0  0  0  0  0  0  0  0  0  0
   44.5940   35.4210   45.2400 C   0  0  0  0  0  0  0  0  0  0  0  0
   44.6280   36.1840   44.1370 N   0  0  0  0  0  0  0  0  0  0  0  0
   47.1040   34.4320   42.0300 C   0  0  0  0  0  0  0  0  0  0  0  0
   48.3740   35.2340   42.1230 C   0  0  0  0  0  0  0  0  0  0  0  0
   49.2350   34.6570   43.0630 O   0  0  0  0  0  0  0  0  0  0  0  0
   47.0240   32.8080   44.4120 N   0  0  0  0  0  0  0  0  0  0  0  0
   45.4366   36.5083   42.2300 H   0  0  0  0  0  0  0  0  0  0  0  0
   43.9306   35.6922   46.0745 H   0  0  0  0  0  0  0  0  0  0  0  0
   46.5799   34.6824   41.0958 H   0  0  0  0  0  0  0  0  0  0  0  0
   47.3468   33.3592   42.0384 H   0  0  0  0  0  0  0  0  0  0  0  0
   48.8668   35.2516   41.1397 H   0  0  0  0  0  0  0  0  0  0  0  0
   48.1316   36.2602   42.4365 H   0  0  0  0  0  0  0  0  0  0  0  0
   48.9172   34.8700   43.9761 H   0  0  0  0  0  0  0  0  0  0  0  0
   46.9928   32.2261   45.2613 H   0  0  0  0  0  0  0  0  0  0  0  0
   47.6507   32.5527   43.6355 H   0  0  0  0  0  0  0  0  0  0  0  0
  1  2  2  0
  1  6  1  0
  2  3  1  0
  3 10  1  0
  3  4  2  0
  5  4  1  0
  6  5  2  0
  7  8  1  0
  7  2  1  0
  8  9  1  0
  1 11  1  0
  5 12  1  0
  7 13  1  0
  7 14  1  0
  8 15  1  0
  8 16  1  0
  9 17  1  0
 10 18  1  0
 10 19  1  0
M  ISO  7  11  14  12  14  13   8  14   8  15   8  16   8  17   3
M  END
>  <minimizedAffinity>  (1) 
-3.57924271

>  <minimizedRMSD>  (1) 
0.285771072

$$$$
