
     RDKit          3D

 25 26  0  0  0  0  0  0  0  0999 V2000
   45.9170   34.1630   41.3680 C   0  0  0  0  0  0  0  0  0  0  0  0
   45.1200   35.8950   42.9380 C   0  0  0  0  0  0  0  0  0  0  0  0
   45.5280   34.5690   42.7060 C   0  0  0  0  0  0  0  0  0  0  0  0
   45.5380   33.7040   43.7920 C   0  0  0  0  0  0  0  0  0  0  0  0
   45.1530   34.1910   45.0010 N   0  0  0  0  0  0  0  0  0  0  0  0
   44.7680   35.4700   45.1800 C   0  0  0  0  0  0  0  0  0  0  0  0
   44.7510   36.3130   44.1640 N   0  0  0  0  0  0  0  0  0  0  0  0
   45.9310   32.3720   43.6410 N   0  0  0  0  0  0  0  0  0  0  0  0
   47.3810   34.5320   41.1540 C   0  0  0  0  0  0  0  0  0  0  0  0
   47.7170   34.3210   39.7180 C   0  0  0  0  0  0  0  0  0  0  0  0
   47.0150   33.4230   38.9110 C   0  0  0  0  0  0  0  0  0  0  0  0
   47.5650   33.4740   37.6850 N   0  0  0  0  0  0  0  0  0  0  0  0
   48.5900   34.3750   37.6900 C   0  0  0  0  0  0  0  0  0  0  0  0
   48.6710   34.8860   38.9410 N   0  0  0  0  0  0  0  0  0  0  0  0
   45.7890   33.0760   41.2587 H   0  0  0  0  0  0  0  0  0  0  0  0
   45.2882   34.6725   40.6230 H   0  0  0  0  0  0  0  0  0  0  0  0
   45.1019   36.6065   42.0993 H   0  0  0  0  0  0  0  0  0  0  0  0
   44.4656   35.8142   46.1801 H   0  0  0  0  0  0  0  0  0  0  0  0
   45.9340   31.7405   44.4547 H   0  0  0  0  0  0  0  0  0  0  0  0
   46.2178   32.0214   42.7160 H   0  0  0  0  0  0  0  0  0  0  0  0
   47.5405   35.5871   41.4212 H   0  0  0  0  0  0  0  0  0  0  0  0
   48.0244   33.9039   41.7877 H   0  0  0  0  0  0  0  0  0  0  0  0
   46.1693   32.7914   39.2207 H   0  0  0  0  0  0  0  0  0  0  0  0
   49.2315   34.6374   36.8358 H   0  0  0  0  0  0  0  0  0  0  0  0
   49.3515   35.5935   39.2527 H   0  0  0  0  0  0  0  0  0  0  0  0
  1  3  1  0
  2  7  2  0
  3  2  1  0
  3  4  2  0
  4  5  1  0
  5  6  2  0
  7  6  1  0
  8  4  1  0
  9  1  1  0
 10  9  1  0
 11 10  2  0
 12 13  2  0
 12 11  1  0
 13 14  1  0
 14 10  1  0
  1 15  1  0
  1 16  1  0
  2 17  1  0
  6 18  1  0
  8 19  1  0
  8 20  1  0
  9 21  1  0
  9 22  1  0
 11 23  1  0
 13 24  1  0
 14 25  1  0
M  ISO  8  15   8  16   8  17  14  18  14  21   8  22   8  23  14  24  14
M  ISO  1  25   9
M  END
>  <minimizedAffinity>  (1) 
-4.16521406

>  <minimizedRMSD>  (1) 
1.59873974

$$$$
