
     RDKit          3D

 32 34  0  0  0  0  0  0  0  0999 V2000
   47.5560   32.4010   43.9810 C   0  0  0  0  0  0  0  0  0  0  0  0
   47.8490   31.9210   42.5990 C   0  0  0  0  0  0  0  0  0  0  0  0
   47.5370   30.6350   42.1770 C   0  0  0  0  0  0  0  0  0  0  0  0
   47.9300   30.5370   40.8960 N   0  0  0  0  0  0  0  0  0  0  0  0
   48.4770   31.7090   40.4950 C   0  0  0  0  0  0  0  0  0  0  0  0
   48.4210   32.5480   41.5470 N   0  0  0  0  0  0  0  0  0  0  0  0
   50.0130   35.3800   42.8340 N   0  0  0  0  0  0  0  0  0  0  0  0
   49.6930   34.1040   42.7500 N   0  0  0  0  0  0  0  0  0  0  0  0
   48.8370   33.9060   41.7300 C   0  0  0  0  0  0  0  0  0  0  0  0
   48.6080   35.1360   41.1360 C   0  0  0  0  0  0  0  0  0  0  0  0
   49.3610   36.0380   41.8530 C   0  0  0  0  0  0  0  0  0  0  0  0
   46.0550   32.3650   44.1900 C   0  0  0  0  0  0  0  0  0  0  0  0
   45.4490   34.4630   43.0940 C   0  0  0  0  0  0  0  0  0  0  0  0
   45.5510   33.7150   44.2700 C   0  0  0  0  0  0  0  0  0  0  0  0
   45.1550   34.3260   45.4410 C   0  0  0  0  0  0  0  0  0  0  0  0
   44.6970   35.6000   45.3720 N   0  0  0  0  0  0  0  0  0  0  0  0
   44.6080   36.2970   44.2330 C   0  0  0  0  0  0  0  0  0  0  0  0
   44.9820   35.7380   43.0880 N   0  0  0  0  0  0  0  0  0  0  0  0
   45.2260   33.6450   46.6650 N   0  0  0  0  0  0  0  0  0  0  0  0
   47.9238   33.4305   44.1028 H   0  0  0  0  0  0  0  0  0  0  0  0
   48.0567   31.7576   44.7194 H   0  0  0  0  0  0  0  0  0  0  0  0
   47.0591   29.8468   42.7773 H   0  0  0  0  0  0  0  0  0  0  0  0
   48.8886   31.9331   39.4998 H   0  0  0  0  0  0  0  0  0  0  0  0
   50.6488   35.8007   43.5266 H   0  0  0  0  0  0  0  0  0  0  0  0
   47.9603   35.3477   40.2725 H   0  0  0  0  0  0  0  0  0  0  0  0
   49.4213   37.1189   41.6580 H   0  0  0  0  0  0  0  0  0  0  0  0
   45.5790   31.8447   43.3458 H   0  0  0  0  0  0  0  0  0  0  0  0
   45.8262   31.8308   45.1239 H   0  0  0  0  0  0  0  0  0  0  0  0
   45.7569   34.0043   42.1428 H   0  0  0  0  0  0  0  0  0  0  0  0
   44.2266   37.3287   44.2452 H   0  0  0  0  0  0  0  0  0  0  0  0
   44.9271   34.1127   47.5326 H   0  0  0  0  0  0  0  0  0  0  0  0
   45.5771   32.6772   46.6963 H   0  0  0  0  0  0  0  0  0  0  0  0
  1 12  1  0
  2  1  1  0
  3  2  2  0
  4  3  1  0
  5  4  2  0
  5  6  1  0
  6  9  1  0
  6  2  1  0
  8  7  1  0
  9  8  2  0
 10  9  1  0
 10 11  2  0
 11  7  1  0
 12 14  1  0
 13 14  2  0
 14 15  1  0
 15 19  1  0
 16 15  2  0
 17 16  1  0
 18 13  1  0
 18 17  2  0
  1 20  1  0
  1 21  1  0
  3 22  1  0
  5 23  1  0
  7 24  1  0
 10 25  1  0
 11 26  1  0
 12 27  1  0
 12 28  1  0
 13 29  1  0
 17 30  1  0
 19 31  1  0
 19 32  1  0
M  ISO  8  20   8  21   8  22  14  23  14  24   9  25  14  26  14  27   8
M  ISO  3  28   8  29  14  30  14
M  END
>  <minimizedAffinity>  (1) 
-5.67178297

>  <minimizedRMSD>  (1) 
2.94458485

$$$$
