
     RDKit          3D

 32 34  0  0  0  0  0  0  0  0999 V2000
   44.3690   34.1420   40.7470 C   0  0  0  0  0  0  0  0  0  0  0  0
   42.5700   35.2130   39.4490 C   0  0  0  0  0  0  0  0  0  0  0  0
   42.9660   34.2830   40.4120 C   0  0  0  0  0  0  0  0  0  0  0  0
   41.9650   33.5300   41.0060 C   0  0  0  0  0  0  0  0  0  0  0  0
   40.6760   33.7350   40.6250 N   0  0  0  0  0  0  0  0  0  0  0  0
   40.3420   34.6440   39.6910 C   0  0  0  0  0  0  0  0  0  0  0  0
   41.2780   35.3760   39.1080 N   0  0  0  0  0  0  0  0  0  0  0  0
   42.2720   32.5730   41.9840 N   0  0  0  0  0  0  0  0  0  0  0  0
   44.6850   35.0540   41.9330 C   0  0  0  0  0  0  0  0  0  0  0  0
   45.7230   34.3840   42.7680 C   0  0  0  0  0  0  0  0  0  0  0  0
   45.4110   33.3980   43.7010 C   0  0  0  0  0  0  0  0  0  0  0  0
   46.5600   33.0110   44.2710 N   0  0  0  0  0  0  0  0  0  0  0  0
   47.5880   33.7120   43.7380 C   0  0  0  0  0  0  0  0  0  0  0  0
   47.0580   34.5490   42.8180 N   0  0  0  0  0  0  0  0  0  0  0  0
   47.7860   35.4770   42.0100 C   0  0  0  0  0  0  0  0  0  0  0  0
   49.2400   35.4480   41.8110 C   0  0  0  0  0  0  0  0  0  0  0  0
   48.3720   34.8720   40.7260 C   0  0  0  0  0  0  0  0  0  0  0  0
   44.9864   34.4307   39.8835 H   0  0  0  0  0  0  0  0  0  0  0  0
   44.5879   33.0966   41.0100 H   0  0  0  0  0  0  0  0  0  0  0  0
   43.3352   35.8298   38.9550 H   0  0  0  0  0  0  0  0  0  0  0  0
   39.2869   34.7793   39.4108 H   0  0  0  0  0  0  0  0  0  0  0  0
   41.5190   32.0200   42.4177 H   0  0  0  0  0  0  0  0  0  0  0  0
   43.2505   32.4231   42.2686 H   0  0  0  0  0  0  0  0  0  0  0  0
   45.0651   36.0202   41.5696 H   0  0  0  0  0  0  0  0  0  0  0  0
   43.7770   35.2360   42.5267 H   0  0  0  0  0  0  0  0  0  0  0  0
   44.4073   33.0092   43.9278 H   0  0  0  0  0  0  0  0  0  0  0  0
   48.6515   33.6185   44.0028 H   0  0  0  0  0  0  0  0  0  0  0  0
   47.1213   36.2956   42.3232 H   0  0  0  0  0  0  0  0  0  0  0  0
   49.7831   36.3876   41.6315 H   0  0  0  0  0  0  0  0  0  0  0  0
   50.0848   35.0618   42.4002 H   0  0  0  0  0  0  0  0  0  0  0  0
   48.2629   35.3952   39.7645 H   0  0  0  0  0  0  0  0  0  0  0  0
   48.2980   33.9086   40.2003 H   0  0  0  0  0  0  0  0  0  0  0  0
  1  9  1  0
  2  3  2  0
  3  1  1  0
  3  4  1  0
  4  8  1  0
  5  4  2  0
  6  5  1  0
  7  2  1  0
  7  6  2  0
  9 10  1  0
 10 14  1  0
 10 11  2  0
 11 12  1  0
 13 12  2  0
 14 13  1  0
 15 14  1  0
 16 15  1  0
 17 16  1  0
 17 15  1  0
  1 18  1  0
  1 19  1  0
  2 20  1  0
  6 21  1  0
  8 22  1  0
  8 23  1  0
  9 24  1  0
  9 25  1  0
 11 26  1  0
 13 27  1  0
 15 28  1  0
 16 29  1  0
 16 30  1  0
 17 31  1  0
 17 32  1  0
M  ISO  8  18   8  19   8  20  14  21  14  24   8  25   8  26  14  27  14
M  ISO  5  28  13  29  13  30  13  31  13  32  13
M  END
>  <minimizedAffinity>  (1) 
-4.53505516

>  <minimizedRMSD>  (1) 
4.73489571

$$$$
