
     RDKit          3D

 42 45  0  0  1  0  0  0  0  0999 V2000
   45.6050   34.5190   42.9300 C   0  0  0  0  0  0  0  0  0  0  0  0
   45.2080   34.0780   44.1800 C   0  0  0  0  0  0  0  0  0  0  0  0
   46.2940   33.6140   44.8130 N   0  0  0  0  0  0  0  0  0  0  0  0
   47.3810   33.7410   44.0090 C   0  0  0  0  0  0  0  0  0  0  0  0
   46.9360   34.2940   42.8700 N   0  0  0  0  0  0  0  0  0  0  0  0
   47.7470   34.6140   41.7230 C   0  0  1  0  0  0  0  0  0  0  0  0
   49.1880   34.3760   41.6310 C   0  0  0  0  0  0  0  0  0  0  0  0
   48.2570   33.4250   40.9470 C   0  0  2  0  0  0  0  0  0  0  0  0
   48.3500   33.4340   39.5100 N   0  0  0  0  0  0  0  0  0  0  0  0
   48.1980   34.4960   38.6960 C   0  0  0  0  0  0  0  0  0  0  0  0
   48.3060   34.4080   37.3270 C   0  0  0  0  0  0  0  0  0  0  0  0
   48.5820   33.1690   36.7910 C   0  0  0  0  0  0  0  0  0  0  0  0
   48.6780   33.1050   35.5360 O   0  0  0  0  0  0  0  0  0  0  0  0
   48.7340   32.1100   37.6080 N   0  0  0  0  0  0  0  0  0  0  0  0
   48.6220   32.2360   38.9360 C   0  0  0  0  0  0  0  0  0  0  0  0
   48.7880   31.1530   39.5920 O   0  0  0  0  0  0  0  0  0  0  0  0
   44.6580   35.1010   41.9460 C   0  0  0  0  0  0  0  0  0  0  0  0
   43.6030   34.0400   41.6070 C   0  0  0  0  0  0  0  0  0  0  0  0
   42.6850   34.5380   39.3760 C   0  0  0  0  0  0  0  0  0  0  0  0
   42.5970   34.6610   40.7720 C   0  0  0  0  0  0  0  0  0  0  0  0
   41.5280   35.3870   41.2600 C   0  0  0  0  0  0  0  0  0  0  0  0
   40.6360   35.9310   40.3860 N   0  0  0  0  0  0  0  0  0  0  0  0
   40.7640   35.7840   39.0630 C   0  0  0  0  0  0  0  0  0  0  0  0
   41.7740   35.0980   38.5570 N   0  0  0  0  0  0  0  0  0  0  0  0
   41.3600   35.5630   42.6460 N   0  0  0  0  0  0  0  0  0  0  0  0
   44.1844   34.1037   44.5820 H   0  0  0  0  0  0  0  0  0  0  0  0
   48.4155   33.4499   44.2435 H   0  0  0  0  0  0  0  0  0  0  0  0
   47.1561   35.5261   41.5528 H   0  0  0  0  0  0  0  0  0  0  0  0
   49.8163   35.0516   41.0319 H   0  0  0  0  0  0  0  0  0  0  0  0
   49.9989   34.2654   42.3660 H   0  0  0  0  0  0  0  0  0  0  0  0
   47.9964   32.3565   40.9667 H   0  0  0  0  0  0  0  0  0  0  0  0
   47.9781   35.4759   39.1447 H   0  0  0  0  0  0  0  0  0  0  0  0
   48.1770   35.2923   36.6856 H   0  0  0  0  0  0  0  0  0  0  0  0
   48.9404   31.1854   37.2037 H   0  0  0  0  0  0  0  0  0  0  0  0
   44.1694   35.9864   42.3788 H   0  0  0  0  0  0  0  0  0  0  0  0
   45.1961   35.4047   41.0359 H   0  0  0  0  0  0  0  0  0  0  0  0
   44.0733   33.2051   41.0668 H   0  0  0  0  0  0  0  0  0  0  0  0
   43.1465   33.6470   42.5274 H   0  0  0  0  0  0  0  0  0  0  0  0
   43.5196   33.9695   38.9399 H   0  0  0  0  0  0  0  0  0  0  0  0
   40.0220   36.2381   38.3898 H   0  0  0  0  0  0  0  0  0  0  0  0
   40.5606   36.1055   43.0031 H   0  0  0  0  0  0  0  0  0  0  0  0
   42.0364   35.1493   43.3034 H   0  0  0  0  0  0  0  0  0  0  0  0
  1  2  2  0
  2  3  1  0
  4  3  2  0
  5  1  1  0
  5  4  1  0
  6  5  1  0
  7  6  1  0
  8  7  1  0
  8  6  1  0
  9  8  1  0
 10  9  1  0
 11 10  2  0
 12 11  1  0
 12 14  1  0
 13 12  2  0
 14 15  1  0
 15  9  1  0
 15 16  2  0
 17  1  1  0
 18 17  1  0
 19 20  2  0
 20 21  1  0
 20 18  1  0
 21 25  1  0
 22 21  2  0
 23 22  1  0
 24 23  2  0
 24 19  1  0
  2 26  1  0
  4 27  1  0
  6 28  1  6
  7 29  1  0
  7 30  1  0
  8 31  1  1
 10 32  1  0
 11 33  1  0
 14 34  1  0
 17 35  1  0
 17 36  1  0
 18 37  1  0
 18 38  1  0
 19 39  1  0
 23 40  1  0
 25 41  1  0
 25 42  1  0
M  ISO  8  26  14  27  14  28  13  29  13  30  13  31  13  32  14  33  14
M  ISO  7  34   9  35   8  36   8  37   8  38   8  39  14  40  14
M  END
>  <minimizedAffinity>  (1) 
-5.79015303

>  <minimizedRMSD>  (1) 
2.60769939

$$$$
