
     RDKit          3D

 39 42  0  0  1  0  0  0  0  0999 V2000
   45.5090   34.7030   43.0380 C   0  0  0  0  0  0  0  0  0  0  0  0
   45.3170   34.1780   44.3230 C   0  0  0  0  0  0  0  0  0  0  0  0
   46.4890   33.6910   44.7370 N   0  0  0  0  0  0  0  0  0  0  0  0
   47.4200   33.8800   43.7760 C   0  0  0  0  0  0  0  0  0  0  0  0
   46.8050   34.5000   42.7430 N   0  0  0  0  0  0  0  0  0  0  0  0
   47.4160   34.8960   41.5030 C   0  0  1  0  0  0  0  0  0  0  0  0
   48.8140   34.6590   41.1580 C   0  0  0  0  0  0  0  0  0  0  0  0
   47.7680   33.7280   40.5880 C   0  0  2  0  0  0  0  0  0  0  0  0
   47.6060   33.8730   39.1250 C   0  0  0  0  0  0  0  0  0  0  0  0
   48.5460   34.4680   38.2990 C   0  0  0  0  0  0  0  0  0  0  0  0
   47.9790   34.3810   37.0400 C   0  0  0  0  0  0  0  0  0  0  0  0
   46.7710   33.7660   37.1310 N   0  0  0  0  0  0  0  0  0  0  0  0
   46.5560   33.4610   38.4090 N   0  0  0  0  0  0  0  0  0  0  0  0
   44.4120   35.3320   42.2620 C   0  0  0  0  0  0  0  0  0  0  0  0
   43.5220   34.2330   41.7070 C   0  0  0  0  0  0  0  0  0  0  0  0
   42.6890   34.7610   39.4570 C   0  0  0  0  0  0  0  0  0  0  0  0
   42.5310   34.8140   40.8350 C   0  0  0  0  0  0  0  0  0  0  0  0
   41.3920   35.4450   41.3110 C   0  0  0  0  0  0  0  0  0  0  0  0
   40.5140   35.9650   40.4120 N   0  0  0  0  0  0  0  0  0  0  0  0
   40.7100   35.8880   39.0800 C   0  0  0  0  0  0  0  0  0  0  0  0
   41.7880   35.2920   38.6130 N   0  0  0  0  0  0  0  0  0  0  0  0
   41.1440   35.5500   42.6840 N   0  0  0  0  0  0  0  0  0  0  0  0
   44.3729   34.1688   44.8875 H   0  0  0  0  0  0  0  0  0  0  0  0
   48.4786   33.5852   43.8246 H   0  0  0  0  0  0  0  0  0  0  0  0
   46.8267   35.8246   41.4830 H   0  0  0  0  0  0  0  0  0  0  0  0
   49.3383   35.3618   40.4938 H   0  0  0  0  0  0  0  0  0  0  0  0
   49.7346   34.5134   41.7421 H   0  0  0  0  0  0  0  0  0  0  0  0
   47.5138   32.6578   40.5967 H   0  0  0  0  0  0  0  0  0  0  0  0
   49.5153   34.9065   38.5786 H   0  0  0  0  0  0  0  0  0  0  0  0
   48.4351   34.7519   36.1103 H   0  0  0  0  0  0  0  0  0  0  0  0
   46.1322   33.5697   36.3472 H   0  0  0  0  0  0  0  0  0  0  0  0
   43.8234   35.9901   42.9181 H   0  0  0  0  0  0  0  0  0  0  0  0
   44.8284   35.9313   41.4389 H   0  0  0  0  0  0  0  0  0  0  0  0
   44.1342   33.5159   41.1405 H   0  0  0  0  0  0  0  0  0  0  0  0
   43.0215   33.7115   42.5362 H   0  0  0  0  0  0  0  0  0  0  0  0
   43.5808   34.2683   39.0423 H   0  0  0  0  0  0  0  0  0  0  0  0
   39.9735   36.3207   38.3870 H   0  0  0  0  0  0  0  0  0  0  0  0
   40.2922   36.0224   43.0188 H   0  0  0  0  0  0  0  0  0  0  0  0
   41.8133   35.1549   43.3599 H   0  0  0  0  0  0  0  0  0  0  0  0
  1  2  2  0
  2  3  1  0
  4  3  2  0
  5  1  1  0
  5  4  1  0
  6  5  1  0
  7  6  1  0
  8  7  1  0
  8  6  1  0
  9  8  1  0
 10  9  1  0
 11 12  1  0
 11 10  2  0
 12 13  1  0
 13  9  2  0
 14  1  1  0
 15 14  1  0
 16 17  2  0
 17 18  1  0
 17 15  1  0
 18 22  1  0
 19 18  2  0
 20 19  1  0
 21 20  2  0
 21 16  1  0
  2 23  1  0
  4 24  1  0
  6 25  1  6
  7 26  1  0
  7 27  1  0
  8 28  1  1
 10 29  1  0
 11 30  1  0
 12 31  1  0
 14 32  1  0
 14 33  1  0
 15 34  1  0
 15 35  1  0
 16 36  1  0
 20 37  1  0
 22 38  1  0
 22 39  1  0
M  ISO  8  23  14  24  14  25  13  26  13  27  13  28  13  29  14  30  14
M  ISO  7  31   9  32   8  33   8  34   8  35   8  36  14  37  14
M  END
>  <minimizedAffinity>  (1) 
-5.63353443

>  <minimizedRMSD>  (1) 
1.70012736

$$$$
