
     RDKit          3D

 39 42  0  0  1  0  0  0  0  0999 V2000
   45.3320   34.6150   43.1330 C   0  0  0  0  0  0  0  0  0  0  0  0
   44.8910   34.7830   44.4390 C   0  0  0  0  0  0  0  0  0  0  0  0
   45.7850   34.1850   45.2400 N   0  0  0  0  0  0  0  0  0  0  0  0
   46.7780   33.6430   44.4930 C   0  0  0  0  0  0  0  0  0  0  0  0
   46.4830   33.9170   43.2050 N   0  0  0  0  0  0  0  0  0  0  0  0
   47.2600   33.5360   42.0540 C   0  0  1  0  0  0  0  0  0  0  0  0
   47.7810   34.4970   41.0750 C   0  0  0  0  0  0  0  0  0  0  0  0
   48.7270   33.9510   42.1240 C   0  0  2  0  0  0  0  0  0  0  0  0
   49.7330   33.0760   41.5630 N   0  0  0  0  0  0  0  0  0  0  0  0
   49.4800   32.4710   40.3940 N   0  0  0  0  0  0  0  0  0  0  0  0
   50.5370   31.7120   40.0590 C   0  0  0  0  0  0  0  0  0  0  0  0
   51.5110   31.8190   41.0320 C   0  0  0  0  0  0  0  0  0  0  0  0
   50.9570   32.6790   41.9410 C   0  0  0  0  0  0  0  0  0  0  0  0
   44.5860   35.1520   41.9510 C   0  0  0  0  0  0  0  0  0  0  0  0
   43.5690   34.1090   41.5230 C   0  0  0  0  0  0  0  0  0  0  0  0
   42.4650   34.6420   39.3930 C   0  0  0  0  0  0  0  0  0  0  0  0
   42.5150   34.7520   40.7750 C   0  0  0  0  0  0  0  0  0  0  0  0
   41.5090   35.5020   41.3780 C   0  0  0  0  0  0  0  0  0  0  0  0
   40.5510   36.0760   40.6100 N   0  0  0  0  0  0  0  0  0  0  0  0
   40.5480   35.9380   39.2610 C   0  0  0  0  0  0  0  0  0  0  0  0
   41.4980   35.2290   38.6700 N   0  0  0  0  0  0  0  0  0  0  0  0
   41.4800   35.6670   42.7700 N   0  0  0  0  0  0  0  0  0  0  0  0
   43.9786   35.3086   44.7572 H   0  0  0  0  0  0  0  0  0  0  0  0
   47.6526   33.0886   44.8640 H   0  0  0  0  0  0  0  0  0  0  0  0
   46.6639   32.6217   41.9174 H   0  0  0  0  0  0  0  0  0  0  0  0
   47.8990   34.1953   40.0238 H   0  0  0  0  0  0  0  0  0  0  0  0
   47.4855   35.5081   40.7581 H   0  0  0  0  0  0  0  0  0  0  0  0
   49.3689   34.3232   42.9360 H   0  0  0  0  0  0  0  0  0  0  0  0
   50.6146   31.0991   39.1488 H   0  0  0  0  0  0  0  0  0  0  0  0
   52.4958   31.3303   41.0678 H   0  0  0  0  0  0  0  0  0  0  0  0
   51.4540   33.0043   42.8668 H   0  0  0  0  0  0  0  0  0  0  0  0
   44.0710   36.0840   42.2269 H   0  0  0  0  0  0  0  0  0  0  0  0
   45.2816   35.3676   41.1266 H   0  0  0  0  0  0  0  0  0  0  0  0
   44.0601   33.3538   40.8917 H   0  0  0  0  0  0  0  0  0  0  0  0
   43.1452   33.6196   42.4123 H   0  0  0  0  0  0  0  0  0  0  0  0
   43.2395   34.0573   38.8750 H   0  0  0  0  0  0  0  0  0  0  0  0
   39.7592   36.4133   38.6595 H   0  0  0  0  0  0  0  0  0  0  0  0
   40.7317   36.2237   43.2071 H   0  0  0  0  0  0  0  0  0  0  0  0
   42.2070   35.2315   43.3555 H   0  0  0  0  0  0  0  0  0  0  0  0
  1  5  1  0
  1  2  2  0
  2  3  1  0
  4  3  2  0
  5  4  1  0
  6  8  1  0
  6  5  1  0
  7  6  1  0
  7  8  1  0
  9 13  1  0
  9  8  1  0
 10  9  1  0
 11 10  2  0
 11 12  1  0
 12 13  2  0
 14  1  1  0
 15 14  1  0
 16 17  2  0
 17 18  1  0
 17 15  1  0
 18 22  1  0
 19 18  2  0
 20 19  1  0
 21 20  2  0
 21 16  1  0
  2 23  1  0
  4 24  1  0
  6 25  1  6
  7 26  1  0
  7 27  1  0
  8 28  1  1
 11 29  1  0
 12 30  1  0
 13 31  1  0
 14 32  1  0
 14 33  1  0
 15 34  1  0
 15 35  1  0
 16 36  1  0
 20 37  1  0
 22 38  1  0
 22 39  1  0
M  ISO  8  23  14  24  14  25  13  26  13  27  13  28  13  29  14  30  14
M  ISO  7  31  14  32   8  33   8  34   8  35   8  36  14  37  14
M  END
>  <minimizedAffinity>  (1) 
-5.29014826

>  <minimizedRMSD>  (1) 
2.94186831

$$$$
