
     RDKit          3D

 37 40  0  0  1  0  0  0  0  0999 V2000
   45.2390   34.8070   42.7460 C   0  0  0  0  0  0  0  0  0  0  0  0
   44.9680   34.2980   44.0110 C   0  0  0  0  0  0  0  0  0  0  0  0
   46.1310   33.8880   44.5360 N   0  0  0  0  0  0  0  0  0  0  0  0
   47.1320   34.1160   43.6550 C   0  0  0  0  0  0  0  0  0  0  0  0
   46.5660   34.6750   42.5730 N   0  0  0  0  0  0  0  0  0  0  0  0
   47.2610   35.0830   41.3850 C   0  0  1  0  0  0  0  0  0  0  0  0
   48.7260   35.0250   41.2160 C   0  0  0  0  0  0  0  0  0  0  0  0
   47.9200   33.9210   40.6110 C   0  0  2  0  0  0  0  0  0  0  0  0
   47.7920   33.9510   39.1310 C   0  0  0  0  0  0  0  0  0  0  0  0
   48.4960   34.6400   38.1900 N   0  0  0  0  0  0  0  0  0  0  0  0
   48.0490   34.3690   37.0150 O   0  0  0  0  0  0  0  0  0  0  0  0
   47.0520   33.5120   37.0890 C   0  0  0  0  0  0  0  0  0  0  0  0
   46.8820   33.2440   38.3990 N   0  0  0  0  0  0  0  0  0  0  0  0
   44.1810   35.3570   41.8620 C   0  0  0  0  0  0  0  0  0  0  0  0
   43.7870   34.2710   40.8470 C   0  0  0  0  0  0  0  0  0  0  0  0
   42.0140   35.3940   39.5830 C   0  0  0  0  0  0  0  0  0  0  0  0
   42.3930   34.4340   40.5210 C   0  0  0  0  0  0  0  0  0  0  0  0
   41.3720   33.6950   41.0790 C   0  0  0  0  0  0  0  0  0  0  0  0
   40.0920   33.9250   40.7050 N   0  0  0  0  0  0  0  0  0  0  0  0
   39.7670   34.8680   39.7890 C   0  0  0  0  0  0  0  0  0  0  0  0
   40.7250   35.6000   39.2290 N   0  0  0  0  0  0  0  0  0  0  0  0
   41.6540   32.6990   42.0400 N   0  0  0  0  0  0  0  0  0  0  0  0
   43.9806   34.2420   44.4925 H   0  0  0  0  0  0  0  0  0  0  0  0
   48.1988   33.8885   43.7969 H   0  0  0  0  0  0  0  0  0  0  0  0
   46.5472   35.9042   41.2234 H   0  0  0  0  0  0  0  0  0  0  0  0
   49.2259   35.7537   40.5609 H   0  0  0  0  0  0  0  0  0  0  0  0
   49.5754   35.0540   41.9143 H   0  0  0  0  0  0  0  0  0  0  0  0
   47.9010   32.8231   40.6764 H   0  0  0  0  0  0  0  0  0  0  0  0
   46.4738   33.0978   36.2499 H   0  0  0  0  0  0  0  0  0  0  0  0
   43.3042   35.6401   42.4629 H   0  0  0  0  0  0  0  0  0  0  0  0
   44.5520   36.2497   41.3371 H   0  0  0  0  0  0  0  0  0  0  0  0
   44.3956   34.3756   39.9367 H   0  0  0  0  0  0  0  0  0  0  0  0
   43.9594   33.2732   41.2767 H   0  0  0  0  0  0  0  0  0  0  0  0
   42.7952   36.0086   39.1119 H   0  0  0  0  0  0  0  0  0  0  0  0
   38.7151   35.0275   39.5096 H   0  0  0  0  0  0  0  0  0  0  0  0
   40.8866   32.1501   42.4533 H   0  0  0  0  0  0  0  0  0  0  0  0
   42.6270   32.5215   42.3275 H   0  0  0  0  0  0  0  0  0  0  0  0
  1  2  2  0
  2  3  1  0
  4  3  2  0
  5  1  1  0
  5  4  1  0
  6  5  1  0
  7  6  1  0
  8  7  1  0
  8  6  1  0
  9  8  1  0
 10  9  2  0
 11 12  1  0
 11 10  1  0
 12 13  2  0
 13  9  1  0
 14  1  1  0
 15 14  1  0
 16 17  2  0
 17 15  1  0
 17 18  1  0
 18 22  1  0
 19 18  2  0
 20 19  1  0
 21 16  1  0
 21 20  2  0
  2 23  1  0
  4 24  1  0
  6 25  1  6
  7 26  1  0
  7 27  1  0
  8 28  1  1
 12 29  1  0
 14 30  1  0
 14 31  1  0
 15 32  1  0
 15 33  1  0
 16 34  1  0
 20 35  1  0
 22 36  1  0
 22 37  1  0
M  ISO  8  23  14  24  14  25  13  26  13  27  13  28  13  29  14  30   8
M  ISO  5  31   8  32   8  33   8  34  14  35  14
M  END
>  <minimizedAffinity>  (1) 
-5.33783913

>  <minimizedRMSD>  (1) 
1.37288809

$$$$
