
     RDKit          3D

 34 36  0  0  1  0  0  0  0  0999 V2000
   44.2700   34.9350   42.0620 C   0  0  0  0  0  0  0  0  0  0  0  0
   45.4190   34.4490   42.8750 C   0  0  0  0  0  0  0  0  0  0  0  0
   45.2310   33.7840   44.0930 C   0  0  0  0  0  0  0  0  0  0  0  0
   46.4500   33.4790   44.5710 N   0  0  0  0  0  0  0  0  0  0  0  0
   47.3980   33.9230   43.7070 C   0  0  0  0  0  0  0  0  0  0  0  0
   46.7490   34.5160   42.6680 N   0  0  0  0  0  0  0  0  0  0  0  0
   47.3560   35.1220   41.5320 C   0  0  1  0  0  0  0  0  0  0  0  0
   48.7820   35.4190   41.4080 C   0  0  0  0  0  0  0  0  0  0  0  0
   48.2500   34.1870   40.7200 C   0  0  2  0  0  0  0  0  0  0  0  0
   48.0700   34.3060   39.2360 C   0  0  0  0  0  0  0  0  0  0  0  0
   48.4270   33.3910   38.5320 O   0  0  0  0  0  0  0  0  0  0  0  0
   43.4550   33.7290   41.6260 C   0  0  0  0  0  0  0  0  0  0  0  0
   42.4670   35.1040   39.8300 C   0  0  0  0  0  0  0  0  0  0  0  0
   42.3070   34.1890   40.8750 C   0  0  0  0  0  0  0  0  0  0  0  0
   41.0090   33.7560   41.1450 C   0  0  0  0  0  0  0  0  0  0  0  0
   39.9860   34.2500   40.3790 N   0  0  0  0  0  0  0  0  0  0  0  0
   40.2040   35.1250   39.3910 C   0  0  0  0  0  0  0  0  0  0  0  0
   41.4260   35.5510   39.1140 N   0  0  0  0  0  0  0  0  0  0  0  0
   40.7510   32.8410   42.1730 N   0  0  0  0  0  0  0  0  0  0  0  0
   43.6446   35.6087   42.6661 H   0  0  0  0  0  0  0  0  0  0  0  0
   44.6327   35.4873   41.1826 H   0  0  0  0  0  0  0  0  0  0  0  0
   44.2665   33.5542   44.5694 H   0  0  0  0  0  0  0  0  0  0  0  0
   48.4871   33.8224   43.8245 H   0  0  0  0  0  0  0  0  0  0  0  0
   46.4773   35.7686   41.3913 H   0  0  0  0  0  0  0  0  0  0  0  0
   49.1088   36.2803   40.8069 H   0  0  0  0  0  0  0  0  0  0  0  0
   49.5918   35.6052   42.1288 H   0  0  0  0  0  0  0  0  0  0  0  0
   48.5004   33.1159   40.7212 H   0  0  0  0  0  0  0  0  0  0  0  0
   47.6215   35.2092   38.7966 H   0  0  0  0  0  0  0  0  0  0  0  0
   44.0726   33.0745   40.9934 H   0  0  0  0  0  0  0  0  0  0  0  0
   43.1220   33.1638   42.5090 H   0  0  0  0  0  0  0  0  0  0  0  0
   43.4767   35.4676   39.5885 H   0  0  0  0  0  0  0  0  0  0  0  0
   39.3542   35.4963   38.7994 H   0  0  0  0  0  0  0  0  0  0  0  0
   39.7858   32.5326   42.3578 H   0  0  0  0  0  0  0  0  0  0  0  0
   41.5264   32.4763   42.7444 H   0  0  0  0  0  0  0  0  0  0  0  0
  1  2  1  0
  2  3  2  0
  3  4  1  0
  5  4  2  0
  6  2  1  0
  6  5  1  0
  7  6  1  0
  8  7  1  0
  9  8  1  0
  9  7  1  0
 10  9  1  0
 11 10  2  0
 12  1  1  0
 13 14  2  0
 14 15  1  0
 14 12  1  0
 15 19  1  0
 16 15  2  0
 17 16  1  0
 18 17  2  0
 18 13  1  0
  1 20  1  0
  1 21  1  0
  3 22  1  0
  5 23  1  0
  7 24  1  6
  8 25  1  0
  8 26  1  0
  9 27  1  1
 10 28  1  0
 12 29  1  0
 12 30  1  0
 13 31  1  0
 17 32  1  0
 19 33  1  0
 19 34  1  0
M  ISO  8  20   8  21   8  22  14  23  14  24  13  25  13  26  13  27  13
M  ISO  5  28   6  29   8  30   8  31  14  32  14
M  END
>  <minimizedAffinity>  (1) 
-4.78121424

>  <minimizedRMSD>  (1) 
1.1256671

$$$$
