
     RDKit          3D

 38 40  0  0  1  0  0  0  0  0999 V2000
   44.5250   35.2500   41.8390 C   0  0  0  0  0  0  0  0  0  0  0  0
   45.4800   34.5910   42.7740 C   0  0  0  0  0  0  0  0  0  0  0  0
   45.0690   33.7990   43.8350 C   0  0  0  0  0  0  0  0  0  0  0  0
   46.1760   33.3670   44.4660 N   0  0  0  0  0  0  0  0  0  0  0  0
   47.2700   33.8550   43.8450 C   0  0  0  0  0  0  0  0  0  0  0  0
   46.8260   34.6040   42.8090 N   0  0  0  0  0  0  0  0  0  0  0  0
   47.6470   35.3150   41.8740 C   0  0  1  0  0  0  0  0  0  0  0  0
   49.1110   35.2930   41.8490 C   0  0  0  0  0  0  0  0  0  0  0  0
   48.3790   34.4270   40.8740 C   0  0  2  0  0  0  0  0  0  0  0  0
   48.2910   34.7490   39.4200 C   0  0  0  0  0  0  0  0  0  0  0  0
   47.6390   33.6920   38.5720 C   0  0  0  0  0  0  0  0  0  0  0  0
   44.1240   34.2430   40.7800 C   0  0  0  0  0  0  0  0  0  0  0  0
   42.1660   35.3140   39.7230 C   0  0  0  0  0  0  0  0  0  0  0  0
   42.6900   34.3270   40.5690 C   0  0  0  0  0  0  0  0  0  0  0  0
   41.7880   33.4740   41.1660 C   0  0  0  0  0  0  0  0  0  0  0  0
   40.4600   33.6360   40.9020 N   0  0  0  0  0  0  0  0  0  0  0  0
   40.0030   34.5930   40.0870 C   0  0  0  0  0  0  0  0  0  0  0  0
   40.8460   35.4290   39.4990 N   0  0  0  0  0  0  0  0  0  0  0  0
   42.2310   32.4530   42.0300 N   0  0  0  0  0  0  0  0  0  0  0  0
   43.6341   35.5835   42.3913 H   0  0  0  0  0  0  0  0  0  0  0  0
   44.9975   36.1255   41.3697 H   0  0  0  0  0  0  0  0  0  0  0  0
   44.0296   33.5666   44.1102 H   0  0  0  0  0  0  0  0  0  0  0  0
   48.3187   33.6784   44.1261 H   0  0  0  0  0  0  0  0  0  0  0  0
   46.9449   36.1616   41.8899 H   0  0  0  0  0  0  0  0  0  0  0  0
   49.6626   36.1735   41.4878 H   0  0  0  0  0  0  0  0  0  0  0  0
   49.8872   35.1072   42.6060 H   0  0  0  0  0  0  0  0  0  0  0  0
   48.4175   33.3585   40.6155 H   0  0  0  0  0  0  0  0  0  0  0  0
   47.7127   35.6783   39.3110 H   0  0  0  0  0  0  0  0  0  0  0  0
   49.3274   34.8340   39.0613 H   0  0  0  0  0  0  0  0  0  0  0  0
   47.1730   32.9365   39.2217 H   0  0  0  0  0  0  0  0  0  0  0  0
   46.8691   34.1547   37.9370 H   0  0  0  0  0  0  0  0  0  0  0  0
   48.3980   33.2116   37.9370 H   0  0  0  0  0  0  0  0  0  0  0  0
   44.6492   34.4672   39.8398 H   0  0  0  0  0  0  0  0  0  0  0  0
   44.3930   33.2287   41.1099 H   0  0  0  0  0  0  0  0  0  0  0  0
   42.8549   36.0145   39.2283 H   0  0  0  0  0  0  0  0  0  0  0  0
   38.9223   34.6864   39.9041 H   0  0  0  0  0  0  0  0  0  0  0  0
   41.5489   31.8201   42.4717 H   0  0  0  0  0  0  0  0  0  0  0  0
   43.2370   32.3395   42.2199 H   0  0  0  0  0  0  0  0  0  0  0  0
  1  2  1  0
  2  6  1  0
  2  3  2  0
  3  4  1  0
  5  4  2  0
  6  5  1  0
  7  6  1  0
  8  7  1  0
  9  8  1  0
  9  7  1  0
 10  9  1  0
 11 10  1  0
 12  1  1  0
 13 14  2  0
 14 12  1  0
 14 15  1  0
 15 19  1  0
 16 15  2  0
 17 16  1  0
 18 13  1  0
 18 17  2  0
  1 20  1  0
  1 21  1  0
  3 22  1  0
  5 23  1  0
  7 24  1  6
  8 25  1  0
  8 26  1  0
  9 27  1  6
 10 28  1  0
 10 29  1  0
 11 30  1  0
 11 31  1  0
 11 32  1  0
 12 33  1  0
 12 34  1  0
 13 35  1  0
 17 36  1  0
 19 37  1  0
 19 38  1  0
M  ISO  8  20   8  21   8  22  14  23  14  24  13  25  13  26  13  27  13
M  ISO  8  28   8  29   8  30   8  31   8  32   8  33   8  34   8  35  14
M  ISO  1  36  14
M  END
>  <minimizedAffinity>  (1) 
-4.85971928

>  <minimizedRMSD>  (1) 
0.774050832

$$$$
