
     RDKit          3D

 51 54  0  0  1  0  0  0  0  0999 V2000
   44.6880   35.1720   41.9750 C   0  0  0  0  0  0  0  0  0  0  0  0
   45.6200   34.5080   42.9430 C   0  0  0  0  0  0  0  0  0  0  0  0
   45.1740   33.7150   43.9950 C   0  0  0  0  0  0  0  0  0  0  0  0
   46.2630   33.2840   44.6560 N   0  0  0  0  0  0  0  0  0  0  0  0
   47.3690   33.7780   44.0600 C   0  0  0  0  0  0  0  0  0  0  0  0
   46.9580   34.5260   43.0090 N   0  0  0  0  0  0  0  0  0  0  0  0
   47.8020   35.2350   42.1010 C   0  0  1  0  0  0  0  0  0  0  0  0
   49.2630   35.1020   42.0430 C   0  0  0  0  0  0  0  0  0  0  0  0
   48.4450   34.3720   41.0290 C   0  0  2  0  0  0  0  0  0  0  0  0
   48.3410   34.8050   39.6010 C   0  0  0  0  0  0  0  0  0  0  0  0
   47.7210   33.7830   38.6760 C   0  0  0  0  0  0  0  0  0  0  0  0
   44.4610   34.2360   40.8150 C   0  0  0  0  0  0  0  0  0  0  0  0
   42.6320   35.1550   39.4450 C   0  0  0  0  0  0  0  0  0  0  0  0
   43.0540   34.2650   40.4390 C   0  0  0  0  0  0  0  0  0  0  0  0
   42.1090   33.4580   41.0110 C   0  0  0  0  0  0  0  0  0  0  0  0
   40.8190   33.5640   40.5880 N   0  0  0  0  0  0  0  0  0  0  0  0
   40.4500   34.4310   39.6300 C   0  0  0  0  0  0  0  0  0  0  0  0
   41.3460   35.2230   39.0600 N   0  0  0  0  0  0  0  0  0  0  0  0
   42.4550   32.5380   42.0160 N   0  0  0  0  0  0  0  0  0  0  0  0
   39.0010   34.4680   39.2350 C   0  0  0  0  0  0  0  0  0  0  0  0
   38.8600   34.3420   37.7340 C   0  0  0  0  0  0  0  0  0  0  0  0
   38.2050   33.0110   37.4500 C   0  0  0  0  0  0  0  0  0  0  0  0
   38.5040   32.2030   38.6830 C   0  0  0  0  0  0  0  0  0  0  0  0
   38.3260   33.2320   39.7930 C   0  0  0  0  0  0  0  0  0  0  0  0
   43.7301   35.3886   42.4705 H   0  0  0  0  0  0  0  0  0  0  0  0
   45.1236   36.1171   41.6185 H   0  0  0  0  0  0  0  0  0  0  0  0
   44.1269   33.4837   44.2403 H   0  0  0  0  0  0  0  0  0  0  0  0
   48.4100   33.6050   44.3704 H   0  0  0  0  0  0  0  0  0  0  0  0
   47.1634   36.1266   42.1855 H   0  0  0  0  0  0  0  0  0  0  0  0
   49.8767   35.9605   41.7328 H   0  0  0  0  0  0  0  0  0  0  0  0
   50.0358   34.8021   42.7661 H   0  0  0  0  0  0  0  0  0  0  0  0
   48.4023   33.3249   40.6946 H   0  0  0  0  0  0  0  0  0  0  0  0
   47.7284   35.7179   39.5633 H   0  0  0  0  0  0  0  0  0  0  0  0
   49.3708   34.9608   39.2472 H   0  0  0  0  0  0  0  0  0  0  0  0
   47.2414   32.9924   39.2718 H   0  0  0  0  0  0  0  0  0  0  0  0
   46.9673   34.2722   38.0415 H   0  0  0  0  0  0  0  0  0  0  0  0
   48.5031   33.3405   38.0415 H   0  0  0  0  0  0  0  0  0  0  0  0
   45.0760   34.5545   39.9604 H   0  0  0  0  0  0  0  0  0  0  0  0
   44.7426   33.2135   41.1069 H   0  0  0  0  0  0  0  0  0  0  0  0
   43.3708   35.8151   38.9670 H   0  0  0  0  0  0  0  0  0  0  0  0
   41.7310   31.9378   42.4362 H   0  0  0  0  0  0  0  0  0  0  0  0
   43.4325   32.4641   42.3322 H   0  0  0  0  0  0  0  0  0  0  0  0
   38.5671   35.4095   39.6028 H   0  0  0  0  0  0  0  0  0  0  0  0
   38.2343   35.1591   37.3456 H   0  0  0  0  0  0  0  0  0  0  0  0
   39.8440   34.4017   37.2459 H   0  0  0  0  0  0  0  0  0  0  0  0
   37.1203   33.1284   37.3102 H   0  0  0  0  0  0  0  0  0  0  0  0
   38.5753   32.5391   36.5280 H   0  0  0  0  0  0  0  0  0  0  0  0
   37.7955   31.3690   38.7949 H   0  0  0  0  0  0  0  0  0  0  0  0
   39.4982   31.7324   38.6723 H   0  0  0  0  0  0  0  0  0  0  0  0
   38.8162   32.9001   40.7201 H   0  0  0  0  0  0  0  0  0  0  0  0
   37.2719   33.4004   40.0585 H   0  0  0  0  0  0  0  0  0  0  0  0
  1  2  1  0
  2  6  1  0
  2  3  2  0
  3  4  1  0
  5  4  2  0
  6  5  1  0
  7  6  1  0
  8  7  1  0
  9  8  1  0
  9  7  1  0
 10  9  1  0
 11 10  1  0
 12  1  1  0
 13 14  2  0
 14 12  1  0
 14 15  1  0
 15 19  1  0
 16 15  2  0
 17 16  1  0
 18 13  1  0
 18 17  2  0
 20 17  1  0
 20 24  1  0
 21 20  1  0
 22 21  1  0
 22 23  1  0
 23 24  1  0
  1 25  1  0
  1 26  1  0
  3 27  1  0
  5 28  1  0
  7 29  1  6
  8 30  1  0
  8 31  1  0
  9 32  1  6
 10 33  1  0
 10 34  1  0
 11 35  1  0
 11 36  1  0
 11 37  1  0
 12 38  1  0
 12 39  1  0
 13 40  1  0
 19 41  1  0
 19 42  1  0
 20 43  1  0
 21 44  1  0
 21 45  1  0
 22 46  1  0
 22 47  1  0
 23 48  1  0
 23 49  1  0
 24 50  1  0
 24 51  1  0
M  ISO  8  25   8  26   8  27  14  28  14  29  13  30  13  31  13  32  13
M  ISO  8  33   8  34   8  35   8  36   8  37   8  38   8  39   8  40  14
M  ISO  8  43  13  44  13  45  13  46  13  47  13  48  13  49  13  50  13
M  ISO  1  51  13
M  END
>  <minimizedAffinity>  (1) 
-6.48808908

>  <minimizedRMSD>  (1) 
0.559559166

$$$$
