
     RDKit          3D

 46 49  0  0  1  0  0  0  0  0999 V2000
   45.3370   35.1880   43.6270 C   0  0  0  0  0  0  0  0  0  0  0  0
   46.1120   33.9300   43.8320 C   0  0  0  0  0  0  0  0  0  0  0  0
   45.5760   32.7950   44.4050 C   0  0  0  0  0  0  0  0  0  0  0  0
   46.5390   31.8600   44.4350 N   0  0  0  0  0  0  0  0  0  0  0  0
   47.6660   32.3580   43.9020 C   0  0  0  0  0  0  0  0  0  0  0  0
   47.3980   33.6380   43.5300 N   0  0  0  0  0  0  0  0  0  0  0  0
   48.3100   34.5490   42.9180 C   0  0  1  0  0  0  0  0  0  0  0  0
   49.7120   34.2540   42.6120 C   0  0  0  0  0  0  0  0  0  0  0  0
   48.7260   34.1620   41.5050 C   0  0  2  0  0  0  0  0  0  0  0  0
   48.6310   35.1880   40.4120 C   0  0  0  0  0  0  0  0  0  0  0  0
   48.4330   34.6240   39.0280 C   0  0  0  0  0  0  0  0  0  0  0  0
   45.4000   35.5520   42.1640 C   0  0  0  0  0  0  0  0  0  0  0  0
   42.9260   35.6690   42.0600 C   0  0  0  0  0  0  0  0  0  0  0  0
   44.1340   35.2030   41.5420 C   0  0  0  0  0  0  0  0  0  0  0  0
   44.0610   34.4000   40.4170 C   0  0  0  0  0  0  0  0  0  0  0  0
   42.8350   34.1130   39.8840 N   0  0  0  0  0  0  0  0  0  0  0  0
   41.7050   34.5900   40.4260 C   0  0  0  0  0  0  0  0  0  0  0  0
   41.7460   35.3550   41.4940 N   0  0  0  0  0  0  0  0  0  0  0  0
   45.2230   33.8740   39.8100 N   0  0  0  0  0  0  0  0  0  0  0  0
   40.4660   34.2070   39.7580 C   0  0  0  0  0  0  0  0  0  0  0  0
   40.1950   34.4320   38.4230 C   0  0  0  0  0  0  0  0  0  0  0  0
   39.0120   34.0550   37.8220 C   0  0  0  0  0  0  0  0  0  0  0  0
   38.0520   33.4300   38.5610 N   0  0  0  0  0  0  0  0  0  0  0  0
   38.3260   33.2150   39.8610 C   0  0  0  0  0  0  0  0  0  0  0  0
   39.4910   33.5870   40.4470 N   0  0  0  0  0  0  0  0  0  0  0  0
   44.2901   35.0326   43.9266 H   0  0  0  0  0  0  0  0  0  0  0  0
   45.7626   35.9983   44.2372 H   0  0  0  0  0  0  0  0  0  0  0  0
   44.5454   32.6774   44.7712 H   0  0  0  0  0  0  0  0  0  0  0  0
   48.6245   31.8305   43.7879 H   0  0  0  0  0  0  0  0  0  0  0  0
   47.8556   35.3901   43.4622 H   0  0  0  0  0  0  0  0  0  0  0  0
   50.4522   35.0677   42.6149 H   0  0  0  0  0  0  0  0  0  0  0  0
   50.4575   33.5626   43.0318 H   0  0  0  0  0  0  0  0  0  0  0  0
   48.4713   33.3848   40.7695 H   0  0  0  0  0  0  0  0  0  0  0  0
   47.7808   35.8489   40.6366 H   0  0  0  0  0  0  0  0  0  0  0  0
   49.5977   35.7126   40.3962 H   0  0  0  0  0  0  0  0  0  0  0  0
   48.0695   33.5885   39.1026 H   0  0  0  0  0  0  0  0  0  0  0  0
   47.6951   35.2335   38.4858 H   0  0  0  0  0  0  0  0  0  0  0  0
   49.3900   34.6385   38.4858 H   0  0  0  0  0  0  0  0  0  0  0  0
   45.5787   36.6323   42.0587 H   0  0  0  0  0  0  0  0  0  0  0  0
   46.2204   35.0047   41.6767 H   0  0  0  0  0  0  0  0  0  0  0  0
   42.9379   36.3096   42.9541 H   0  0  0  0  0  0  0  0  0  0  0  0
   45.1425   33.2788   38.9733 H   0  0  0  0  0  0  0  0  0  0  0  0
   46.1508   34.0857   40.2041 H   0  0  0  0  0  0  0  0  0  0  0  0
   40.9576   34.9351   37.8104 H   0  0  0  0  0  0  0  0  0  0  0  0
   38.8444   34.2573   36.7538 H   0  0  0  0  0  0  0  0  0  0  0  0
   37.5672   32.7125   40.4789 H   0  0  0  0  0  0  0  0  0  0  0  0
  1  2  1  0
  2  3  2  0
  3  4  1  0
  5  4  2  0
  6  2  1  0
  6  5  1  0
  7  6  1  0
  8  7  1  0
  9  8  1  0
  9  7  1  0
 10  9  1  0
 11 10  1  0
 12  1  1  0
 14 13  2  0
 14 12  1  0
 15 14  1  0
 16 15  2  0
 16 17  1  0
 17 18  2  0
 18 13  1  0
 19 15  1  0
 20 17  1  0
 20 25  1  0
 21 20  2  0
 22 21  1  0
 22 23  2  0
 23 24  1  0
 24 25  2  0
  1 26  1  0
  1 27  1  0
  3 28  1  0
  5 29  1  0
  7 30  1  6
  8 31  1  0
  8 32  1  0
  9 33  1  6
 10 34  1  0
 10 35  1  0
 11 36  1  0
 11 37  1  0
 11 38  1  0
 12 39  1  0
 12 40  1  0
 13 41  1  0
 19 42  1  0
 19 43  1  0
 21 44  1  0
 22 45  1  0
 24 46  1  0
M  ISO  8  26   8  27   8  28  14  29  14  30  13  31  13  32  13  33  13
M  ISO  8  34   8  35   8  36   8  37   8  38   8  39   8  40   8  41  14
M  ISO  3  44  14  45  14  46  14
M  END
>  <minimizedAffinity>  (1) 
-5.72073603

>  <minimizedRMSD>  (1) 
2.17253137

$$$$
