
     RDKit          3D

 49 53  0  0  1  0  0  0  0  0999 V2000
   44.6400   35.2120   41.9320 C   0  0  0  0  0  0  0  0  0  0  0  0
   45.5680   34.5580   42.8850 C   0  0  0  0  0  0  0  0  0  0  0  0
   45.1350   33.7660   43.9360 C   0  0  0  0  0  0  0  0  0  0  0  0
   46.2240   33.3360   44.5940 N   0  0  0  0  0  0  0  0  0  0  0  0
   47.3270   33.8250   44.0020 C   0  0  0  0  0  0  0  0  0  0  0  0
   46.9150   34.5760   42.9500 N   0  0  0  0  0  0  0  0  0  0  0  0
   47.7550   35.2900   42.0320 C   0  0  1  0  0  0  0  0  0  0  0  0
   49.2170   35.1650   41.9860 C   0  0  0  0  0  0  0  0  0  0  0  0
   48.4140   34.4030   40.9820 C   0  0  2  0  0  0  0  0  0  0  0  0
   48.3300   34.8060   39.5500 C   0  0  0  0  0  0  0  0  0  0  0  0
   47.7420   33.7540   38.6380 C   0  0  0  0  0  0  0  0  0  0  0  0
   44.6020   34.4000   40.6630 C   0  0  0  0  0  0  0  0  0  0  0  0
   42.1850   34.3770   40.1800 C   0  0  0  0  0  0  0  0  0  0  0  0
   43.3390   33.6890   40.5910 C   0  0  0  0  0  0  0  0  0  0  0  0
   43.1920   32.3650   40.9040 C   0  0  0  0  0  0  0  0  0  0  0  0
   41.9550   31.7960   40.8000 N   0  0  0  0  0  0  0  0  0  0  0  0
   40.8800   32.4880   40.4030 C   0  0  0  0  0  0  0  0  0  0  0  0
   40.9910   33.7610   40.0970 N   0  0  0  0  0  0  0  0  0  0  0  0
   44.3060   31.6030   41.3270 N   0  0  0  0  0  0  0  0  0  0  0  0
   39.6910   31.6700   40.3740 N   0  0  0  0  0  0  0  0  0  0  0  0
   38.8180   31.7000   41.3960 C   0  0  0  0  0  0  0  0  0  0  0  0
   37.7910   30.8440   41.1230 N   0  0  0  0  0  0  0  0  0  0  0  0
   38.0620   30.3030   39.9220 C   0  0  0  0  0  0  0  0  0  0  0  0
   37.4470   29.3900   39.0920 C   0  0  0  0  0  0  0  0  0  0  0  0
   37.9690   29.0280   37.9080 N   0  0  0  0  0  0  0  0  0  0  0  0
   39.1400   29.5710   37.5040 C   0  0  0  0  0  0  0  0  0  0  0  0
   39.7820   30.4640   38.2690 N   0  0  0  0  0  0  0  0  0  0  0  0
   39.2500   30.8100   39.4380 C   0  0  0  0  0  0  0  0  0  0  0  0
   43.6324   35.2612   42.3707 H   0  0  0  0  0  0  0  0  0  0  0  0
   44.9842   36.2337   41.7139 H   0  0  0  0  0  0  0  0  0  0  0  0
   44.0897   33.5320   44.1860 H   0  0  0  0  0  0  0  0  0  0  0  0
   48.3677   33.6494   44.3120 H   0  0  0  0  0  0  0  0  0  0  0  0
   47.1112   36.1798   42.0933 H   0  0  0  0  0  0  0  0  0  0  0  0
   49.8267   36.0204   41.6597 H   0  0  0  0  0  0  0  0  0  0  0  0
   49.9859   34.8877   42.7221 H   0  0  0  0  0  0  0  0  0  0  0  0
   48.3764   33.3481   40.6726 H   0  0  0  0  0  0  0  0  0  0  0  0
   47.7042   35.7081   39.4828 H   0  0  0  0  0  0  0  0  0  0  0  0
   49.3627   34.9737   39.2103 H   0  0  0  0  0  0  0  0  0  0  0  0
   47.2940   32.9525   39.2437 H   0  0  0  0  0  0  0  0  0  0  0  0
   46.9680   34.2101   38.0032 H   0  0  0  0  0  0  0  0  0  0  0  0
   48.5360   33.3337   38.0032 H   0  0  0  0  0  0  0  0  0  0  0  0
   44.6981   35.0687   39.7949 H   0  0  0  0  0  0  0  0  0  0  0  0
   45.4332   33.6795   40.6594 H   0  0  0  0  0  0  0  0  0  0  0  0
   42.2589   35.4433   39.9201 H   0  0  0  0  0  0  0  0  0  0  0  0
   44.1895   30.6068   41.5613 H   0  0  0  0  0  0  0  0  0  0  0  0
   45.2337   32.0443   41.4007 H   0  0  0  0  0  0  0  0  0  0  0  0
   38.9156   32.3139   42.3035 H   0  0  0  0  0  0  0  0  0  0  0  0
   36.4944   28.9416   39.4106 H   0  0  0  0  0  0  0  0  0  0  0  0
   39.5704   29.2759   36.5357 H   0  0  0  0  0  0  0  0  0  0  0  0
  1  2  1  0
  2  6  1  0
  2  3  2  0
  3  4  1  0
  5  4  2  0
  6  5  1  0
  7  6  1  0
  8  7  1  0
  9  8  1  0
  9  7  1  0
 10  9  1  0
 11 10  1  0
 12  1  1  0
 13 14  2  0
 14 12  1  0
 14 15  1  0
 15 19  1  0
 16 15  2  0
 17 16  1  0
 18 13  1  0
 18 17  2  0
 20 17  1  0
 20 21  1  0
 22 21  2  0
 23 22  1  0
 24 23  2  0
 25 24  1  0
 26 25  2  0
 26 27  1  0
 27 28  2  0
 28 23  1  0
 28 20  1  0
  1 29  1  0
  1 30  1  0
  3 31  1  0
  5 32  1  0
  7 33  1  6
  8 34  1  0
  8 35  1  0
  9 36  1  6
 10 37  1  0
 10 38  1  0
 11 39  1  0
 11 40  1  0
 11 41  1  0
 12 42  1  0
 12 43  1  0
 13 44  1  0
 19 45  1  0
 19 46  1  0
 21 47  1  0
 24 48  1  0
 26 49  1  0
M  ISO  8  29   8  30   8  31  14  32  14  33  13  34  13  35  13  36  13
M  ISO  8  37   8  38   8  39   8  40   8  41   8  42   8  43   8  44  14
M  ISO  3  47  14  48  14  49  14
M  END
>  <minimizedAffinity>  (1) 
-5.45699024

>  <minimizedRMSD>  (1) 
2.37748909

$$$$
