
     RDKit          3D

 46 49  0  0  1  0  0  0  0  0999 V2000
   45.4290   34.8370   43.8600 C   0  0  0  0  0  0  0  0  0  0  0  0
   46.2530   33.5870   43.8930 C   0  0  0  0  0  0  0  0  0  0  0  0
   45.7910   32.3840   44.3840 C   0  0  0  0  0  0  0  0  0  0  0  0
   46.7820   31.4850   44.2620 N   0  0  0  0  0  0  0  0  0  0  0  0
   47.8580   32.0840   43.7090 C   0  0  0  0  0  0  0  0  0  0  0  0
   47.5240   33.3760   43.4850 N   0  0  0  0  0  0  0  0  0  0  0  0
   48.3620   34.3770   42.9120 C   0  0  1  0  0  0  0  0  0  0  0  0
   49.7830   34.2010   42.5890 C   0  0  0  0  0  0  0  0  0  0  0  0
   48.7970   34.0920   41.4750 C   0  0  2  0  0  0  0  0  0  0  0  0
   48.6180   35.1500   40.4340 C   0  0  0  0  0  0  0  0  0  0  0  0
   48.3690   34.6410   39.0420 C   0  0  0  0  0  0  0  0  0  0  0  0
   45.4840   35.4030   42.4500 C   0  0  0  0  0  0  0  0  0  0  0  0
   43.0530   35.7290   42.1510 C   0  0  0  0  0  0  0  0  0  0  0  0
   44.2360   35.0970   41.7750 C   0  0  0  0  0  0  0  0  0  0  0  0
   44.1630   34.1780   40.7400 C   0  0  0  0  0  0  0  0  0  0  0  0
   42.9440   33.9590   40.1680 N   0  0  0  0  0  0  0  0  0  0  0  0
   41.8380   34.5830   40.5570 C   0  0  0  0  0  0  0  0  0  0  0  0
   41.8800   35.4640   41.5410 N   0  0  0  0  0  0  0  0  0  0  0  0
   45.3030   33.4980   40.2990 N   0  0  0  0  0  0  0  0  0  0  0  0
   40.5890   34.2530   39.8550 C   0  0  0  0  0  0  0  0  0  0  0  0
   39.4440   33.9140   40.5440 C   0  0  0  0  0  0  0  0  0  0  0  0
   38.3250   33.6220   39.7930 C   0  0  0  0  0  0  0  0  0  0  0  0
   38.3130   33.6570   38.4390 N   0  0  0  0  0  0  0  0  0  0  0  0
   39.4630   33.9970   37.8130 C   0  0  0  0  0  0  0  0  0  0  0  0
   40.6070   34.2970   38.4900 N   0  0  0  0  0  0  0  0  0  0  0  0
   44.3878   34.6042   44.1278 H   0  0  0  0  0  0  0  0  0  0  0  0
   45.8208   35.5704   44.5802 H   0  0  0  0  0  0  0  0  0  0  0  0
   44.7908   32.1945   44.8007 H   0  0  0  0  0  0  0  0  0  0  0  0
   48.8249   31.6106   43.4829 H   0  0  0  0  0  0  0  0  0  0  0  0
   47.8492   35.1548   43.4969 H   0  0  0  0  0  0  0  0  0  0  0  0
   50.4617   35.0656   42.6320 H   0  0  0  0  0  0  0  0  0  0  0  0
   50.5791   33.5459   42.9726 H   0  0  0  0  0  0  0  0  0  0  0  0
   48.5965   33.3365   40.7011 H   0  0  0  0  0  0  0  0  0  0  0  0
   47.7608   35.7742   40.7267 H   0  0  0  0  0  0  0  0  0  0  0  0
   49.5687   35.7018   40.3923 H   0  0  0  0  0  0  0  0  0  0  0  0
   47.8862   33.6540   39.0934 H   0  0  0  0  0  0  0  0  0  0  0  0
   47.7125   35.3429   38.5069 H   0  0  0  0  0  0  0  0  0  0  0  0
   49.3261   34.5536   38.5069 H   0  0  0  0  0  0  0  0  0  0  0  0
   45.6229   36.4933   42.4943 H   0  0  0  0  0  0  0  0  0  0  0  0
   46.3258   34.9567   41.9003 H   0  0  0  0  0  0  0  0  0  0  0  0
   43.0763   36.4648   42.9683 H   0  0  0  0  0  0  0  0  0  0  0  0
   45.2313   32.8182   39.5286 H   0  0  0  0  0  0  0  0  0  0  0  0
   46.2141   33.6771   40.7447 H   0  0  0  0  0  0  0  0  0  0  0  0
   39.4240   33.8781   41.6432 H   0  0  0  0  0  0  0  0  0  0  0  0
   37.3983   33.3477   40.3183 H   0  0  0  0  0  0  0  0  0  0  0  0
   39.4752   34.0327   36.7136 H   0  0  0  0  0  0  0  0  0  0  0  0
  1  2  1  0
  2  3  2  0
  4  3  1  0
  5  4  2  0
  6  5  1  0
  6  2  1  0
  7  6  1  0
  8  7  1  0
  9  8  1  0
  9  7  1  0
 10  9  1  0
 11 10  1  0
 12  1  1  0
 14 13  2  0
 14 12  1  0
 15 14  1  0
 16 17  1  0
 16 15  2  0
 17 18  2  0
 18 13  1  0
 19 15  1  0
 20 21  2  0
 20 17  1  0
 22 21  1  0
 23 22  2  0
 24 23  1  0
 24 25  2  0
 25 20  1  0
  1 26  1  0
  1 27  1  0
  3 28  1  0
  5 29  1  0
  7 30  1  6
  8 31  1  0
  8 32  1  0
  9 33  1  6
 10 34  1  0
 10 35  1  0
 11 36  1  0
 11 37  1  0
 11 38  1  0
 12 39  1  0
 12 40  1  0
 13 41  1  0
 19 42  1  0
 19 43  1  0
 21 44  1  0
 22 45  1  0
 24 46  1  0
M  ISO  8  26   8  27   8  28  14  29  14  30  13  31  13  32  13  33  13
M  ISO  8  34   8  35   8  36   8  37   8  38   8  39   8  40   8  41  14
M  ISO  3  44  14  45  14  46  14
M  END
>  <minimizedAffinity>  (1) 
-5.57596779

>  <minimizedRMSD>  (1) 
2.30362725

$$$$
