
     RDKit          3D

 41 43  0  0  1  0  0  0  0  0999 V2000
   45.5310   34.5780   42.8390 C   0  0  0  0  0  0  0  0  0  0  0  0
   45.1300   33.7990   43.9030 C   0  0  0  0  0  0  0  0  0  0  0  0
   46.2360   33.3640   44.5390 N   0  0  0  0  0  0  0  0  0  0  0  0
   47.3250   33.8440   43.9090 C   0  0  0  0  0  0  0  0  0  0  0  0
   46.8800   34.5900   42.8660 N   0  0  0  0  0  0  0  0  0  0  0  0
   47.6960   35.2910   41.9230 C   0  0  1  0  0  0  0  0  0  0  0  0
   49.1610   35.2380   41.8870 C   0  0  0  0  0  0  0  0  0  0  0  0
   48.4000   34.4020   40.9080 C   0  0  2  0  0  0  0  0  0  0  0  0
   48.2990   34.7610   39.4630 C   0  0  0  0  0  0  0  0  0  0  0  0
   47.6310   33.7040   38.6170 C   0  0  0  0  0  0  0  0  0  0  0  0
   44.5660   35.2240   41.9170 C   0  0  0  0  0  0  0  0  0  0  0  0
   44.2710   34.2710   40.7820 C   0  0  0  0  0  0  0  0  0  0  0  0
   42.2920   35.2030   39.6370 C   0  0  0  0  0  0  0  0  0  0  0  0
   42.8430   34.2740   40.5190 C   0  0  0  0  0  0  0  0  0  0  0  0
   41.9760   33.3910   41.1040 C   0  0  0  0  0  0  0  0  0  0  0  0
   40.6470   33.4630   40.8010 N   0  0  0  0  0  0  0  0  0  0  0  0
   40.1690   34.3730   39.9470 C   0  0  0  0  0  0  0  0  0  0  0  0
   40.9820   35.2320   39.3730 N   0  0  0  0  0  0  0  0  0  0  0  0
   42.4440   32.4090   42.0150 N   0  0  0  0  0  0  0  0  0  0  0  0
   38.6920   34.3850   39.6670 C   0  0  0  0  0  0  0  0  0  0  0  0
   44.0908   33.5723   44.1836 H   0  0  0  0  0  0  0  0  0  0  0  0
   48.3744   33.6657   44.1865 H   0  0  0  0  0  0  0  0  0  0  0  0
   47.0076   36.1486   41.9479 H   0  0  0  0  0  0  0  0  0  0  0  0
   49.7292   36.1106   41.5325 H   0  0  0  0  0  0  0  0  0  0  0  0
   49.9393   35.0257   42.6348 H   0  0  0  0  0  0  0  0  0  0  0  0
   48.4165   33.3363   40.6359 H   0  0  0  0  0  0  0  0  0  0  0  0
   47.7190   35.6917   39.3767 H   0  0  0  0  0  0  0  0  0  0  0  0
   49.3273   34.8689   39.0874 H   0  0  0  0  0  0  0  0  0  0  0  0
   47.1583   32.9560   39.2705 H   0  0  0  0  0  0  0  0  0  0  0  0
   46.8648   34.1727   37.9820 H   0  0  0  0  0  0  0  0  0  0  0  0
   48.3832   33.2131   37.9820 H   0  0  0  0  0  0  0  0  0  0  0  0
   43.6362   35.4562   42.4570 H   0  0  0  0  0  0  0  0  0  0  0  0
   44.9917   36.1582   41.5220 H   0  0  0  0  0  0  0  0  0  0  0  0
   44.8124   34.5931   39.8803 H   0  0  0  0  0  0  0  0  0  0  0  0
   44.5956   33.2563   41.0559 H   0  0  0  0  0  0  0  0  0  0  0  0
   42.9533   35.9316   39.1452 H   0  0  0  0  0  0  0  0  0  0  0  0
   41.7808   31.7506   42.4481 H   0  0  0  0  0  0  0  0  0  0  0  0
   43.4469   32.3545   42.2432 H   0  0  0  0  0  0  0  0  0  0  0  0
   38.1386   34.3895   40.6177 H   0  0  0  0  0  0  0  0  0  0  0  0
   38.4356   35.2853   39.0892 H   0  0  0  0  0  0  0  0  0  0  0  0
   38.4210   33.4890   39.0892 H   0  0  0  0  0  0  0  0  0  0  0  0
  1  5  1  0
  1  2  2  0
  2  3  1  0
  4  3  2  0
  5  4  1  0
  6  5  1  0
  7  6  1  0
  8  7  1  0
  8  6  1  0
  9  8  1  0
 10  9  1  0
 11  1  1  0
 12 11  1  0
 13 14  2  0
 14 12  1  0
 14 15  1  0
 15 19  1  0
 16 15  2  0
 17 16  1  0
 18 13  1  0
 18 17  2  0
 20 17  1  0
  2 21  1  0
  4 22  1  0
  6 23  1  6
  7 24  1  0
  7 25  1  0
  8 26  1  6
  9 27  1  0
  9 28  1  0
 10 29  1  0
 10 30  1  0
 10 31  1  0
 11 32  1  0
 11 33  1  0
 12 34  1  0
 12 35  1  0
 13 36  1  0
 19 37  1  0
 19 38  1  0
 20 39  1  0
 20 40  1  0
 20 41  1  0
M  ISO  8  21  14  22  14  23  13  24  13  25  13  26  13  27   8  28   8
M  ISO  8  29   8  30   8  31   8  32   8  33   8  34   8  35   8  36  14
M  ISO  3  39   8  40   8  41   8
M  END
>  <minimizedAffinity>  (1) 
-5.26270008

>  <minimizedRMSD>  (1) 
0.177554592

$$$$
