
     RDKit          3D

 44 46  0  0  1  0  0  0  0  0999 V2000
   45.5400   34.5570   42.8560 C   0  0  0  0  0  0  0  0  0  0  0  0
   45.1430   33.7680   43.9160 C   0  0  0  0  0  0  0  0  0  0  0  0
   46.2550   33.3550   44.5500 N   0  0  0  0  0  0  0  0  0  0  0  0
   47.3440   33.8620   43.9180 C   0  0  0  0  0  0  0  0  0  0  0  0
   46.8930   34.6000   42.8770 N   0  0  0  0  0  0  0  0  0  0  0  0
   47.7000   35.3170   41.9400 C   0  0  1  0  0  0  0  0  0  0  0  0
   49.1590   35.2770   41.8820 C   0  0  0  0  0  0  0  0  0  0  0  0
   48.4020   34.4210   40.9120 C   0  0  2  0  0  0  0  0  0  0  0  0
   48.2890   34.7540   39.4660 C   0  0  0  0  0  0  0  0  0  0  0  0
   47.6320   33.7080   38.6160 C   0  0  0  0  0  0  0  0  0  0  0  0
   44.5760   35.1990   41.9180 C   0  0  0  0  0  0  0  0  0  0  0  0
   44.3440   34.2700   40.7530 C   0  0  0  0  0  0  0  0  0  0  0  0
   42.4500   35.1390   39.4480 C   0  0  0  0  0  0  0  0  0  0  0  0
   42.9330   34.2450   40.4230 C   0  0  0  0  0  0  0  0  0  0  0  0
   42.0240   33.4000   40.9990 C   0  0  0  0  0  0  0  0  0  0  0  0
   40.7250   33.4670   40.6090 N   0  0  0  0  0  0  0  0  0  0  0  0
   40.3000   34.3290   39.6800 C   0  0  0  0  0  0  0  0  0  0  0  0
   41.1540   35.1630   39.1000 N   0  0  0  0  0  0  0  0  0  0  0  0
   42.4360   32.4830   41.9770 N   0  0  0  0  0  0  0  0  0  0  0  0
   38.8900   34.4420   39.2180 C   0  0  0  0  0  0  0  0  0  0  0  0
   38.7990   34.1130   37.7260 C   0  0  0  0  0  0  0  0  0  0  0  0
   44.1070   33.5219   44.1920 H   0  0  0  0  0  0  0  0  0  0  0  0
   48.3955   33.7029   44.1991 H   0  0  0  0  0  0  0  0  0  0  0  0
   47.0127   36.1748   41.9820 H   0  0  0  0  0  0  0  0  0  0  0  0
   49.7123   36.1542   41.5155 H   0  0  0  0  0  0  0  0  0  0  0  0
   49.9472   35.0772   42.6228 H   0  0  0  0  0  0  0  0  0  0  0  0
   48.4241   33.3542   40.6446 H   0  0  0  0  0  0  0  0  0  0  0  0
   47.7044   35.6814   39.3757 H   0  0  0  0  0  0  0  0  0  0  0  0
   49.3201   34.8443   39.0936 H   0  0  0  0  0  0  0  0  0  0  0  0
   47.1586   32.9544   39.2625 H   0  0  0  0  0  0  0  0  0  0  0  0
   46.8671   34.1789   37.9810 H   0  0  0  0  0  0  0  0  0  0  0  0
   48.3883   33.2234   37.9810 H   0  0  0  0  0  0  0  0  0  0  0  0
   43.6244   35.3873   42.4366 H   0  0  0  0  0  0  0  0  0  0  0  0
   44.9827   36.1560   41.5592 H   0  0  0  0  0  0  0  0  0  0  0  0
   44.9169   34.6238   39.8832 H   0  0  0  0  0  0  0  0  0  0  0  0
   44.6733   33.2560   41.0239 H   0  0  0  0  0  0  0  0  0  0  0  0
   43.1506   35.8331   38.9608 H   0  0  0  0  0  0  0  0  0  0  0  0
   41.7498   31.8479   42.4092 H   0  0  0  0  0  0  0  0  0  0  0  0
   43.4247   32.4446   42.2631 H   0  0  0  0  0  0  0  0  0  0  0  0
   38.2635   33.7377   39.7850 H   0  0  0  0  0  0  0  0  0  0  0  0
   38.5379   35.4711   39.3825 H   0  0  0  0  0  0  0  0  0  0  0  0
   38.5077   33.0598   37.5999 H   0  0  0  0  0  0  0  0  0  0  0  0
   38.0463   34.7608   37.2529 H   0  0  0  0  0  0  0  0  0  0  0  0
   39.7776   34.2819   37.2529 H   0  0  0  0  0  0  0  0  0  0  0  0
  1  5  1  0
  1  2  2  0
  2  3  1  0
  4  3  2  0
  5  4  1  0
  6  5  1  0
  7  6  1  0
  8  7  1  0
  8  6  1  0
  9  8  1  0
 10  9  1  0
 11  1  1  0
 12 11  1  0
 13 14  2  0
 14 12  1  0
 14 15  1  0
 15 19  1  0
 16 15  2  0
 17 16  1  0
 18 13  1  0
 18 17  2  0
 20 17  1  0
 21 20  1  0
  2 22  1  0
  4 23  1  0
  6 24  1  6
  7 25  1  0
  7 26  1  0
  8 27  1  6
  9 28  1  0
  9 29  1  0
 10 30  1  0
 10 31  1  0
 10 32  1  0
 11 33  1  0
 11 34  1  0
 12 35  1  0
 12 36  1  0
 13 37  1  0
 19 38  1  0
 19 39  1  0
 20 40  1  0
 20 41  1  0
 21 42  1  0
 21 43  1  0
 21 44  1  0
M  ISO  8  22  14  23  14  24  13  25  13  26  13  27  13  28   8  29   8
M  ISO  8  30   8  31   8  32   8  33   8  34   8  35   8  36   8  37  14
M  ISO  5  40   8  41   8  42   8  43   8  44   8
M  END
>  <minimizedAffinity>  (1) 
-5.47746801

>  <minimizedRMSD>  (1) 
0.499757081

$$$$
