
     RDKit          3D

 27 28  0  0  0  0  0  0  0  0999 V2000
   44.2590   35.8030   42.2240 C   0  0  0  0  0  0  0  0  0  0  0  0
   43.6860   34.5560   41.9240 C   0  0  0  0  0  0  0  0  0  0  0  0
   44.3000   33.4150   42.4640 C   0  0  0  0  0  0  0  0  0  0  0  0
   45.4220   33.5860   43.2510 N   0  0  0  0  0  0  0  0  0  0  0  0
   45.9290   34.7950   43.5060 C   0  0  0  0  0  0  0  0  0  0  0  0
   45.3560   35.8940   43.0000 N   0  0  0  0  0  0  0  0  0  0  0  0
   42.4700   34.4230   41.0660 C   0  0  0  0  0  0  0  0  0  0  0  0
   41.2680   35.0840   41.6610 C   0  0  0  0  0  0  0  0  0  0  0  0
   40.6090   36.1220   40.8300 C   0  0  0  0  0  0  0  0  0  0  0  0
   40.5190   35.8480   39.3730 C   0  0  0  0  0  0  0  0  0  0  0  0
   41.4170   34.7290   38.9170 C   0  0  0  0  0  0  0  0  0  0  0  0
   42.7400   34.9240   39.6420 C   0  0  0  0  0  0  0  0  0  0  0  0
   43.6330   31.7840   42.1300 S   0  0  0  0  0  0  0  0  0  0  0  0
   43.8047   36.7192   41.8189 H   0  0  0  0  0  0  0  0  0  0  0  0
   46.8250   34.8885   44.1372 H   0  0  0  0  0  0  0  0  0  0  0  0
   42.2372   33.3493   41.0114 H   0  0  0  0  0  0  0  0  0  0  0  0
   40.5245   34.3010   41.8709 H   0  0  0  0  0  0  0  0  0  0  0  0
   41.6356   35.6124   42.5530 H   0  0  0  0  0  0  0  0  0  0  0  0
   39.5847   36.2525   41.2091 H   0  0  0  0  0  0  0  0  0  0  0  0
   41.2471   37.0136   40.9190 H   0  0  0  0  0  0  0  0  0  0  0  0
   39.4795   35.5806   39.1323 H   0  0  0  0  0  0  0  0  0  0  0  0
   40.8462   36.7593   38.8510 H   0  0  0  0  0  0  0  0  0  0  0  0
   40.9775   33.7558   39.1809 H   0  0  0  0  0  0  0  0  0  0  0  0
   41.5523   34.7432   37.8254 H   0  0  0  0  0  0  0  0  0  0  0  0
   43.5361   34.3331   39.1655 H   0  0  0  0  0  0  0  0  0  0  0  0
   43.0796   35.9701   39.6221 H   0  0  0  0  0  0  0  0  0  0  0  0
   43.3721   31.1461   43.3140 H   0  0  0  0  0  0  0  0  0  0  0  0
  1  6  2  0
  2  1  1  0
  2  3  2  0
  3  4  1  0
  4  5  2  0
  6  5  1  0
  7  8  1  0
  7  2  1  0
  9  8  1  0
 10  9  1  0
 11 10  1  0
 11 12  1  0
 12  7  1  0
 13  3  1  0
  1 14  1  0
  5 15  1  0
  7 16  1  0
  8 17  1  0
  8 18  1  0
  9 19  1  0
  9 20  1  0
 10 21  1  0
 10 22  1  0
 11 23  1  0
 11 24  1  0
 12 25  1  0
 12 26  1  0
 13 27  1  0
M  ISO  8  14  14  15  14  16  13  17  13  18  13  19  13  20  13  21  13
M  ISO  6  22  13  23  13  24  13  25  13  26  13  27  11
M  END
>  <minimizedAffinity>  (1) 
-4.11223888

>  <minimizedRMSD>  (1) 
3.36717367

$$$$
