
     RDKit          3D

 12 12  0  0  0  0  0  0  0  0999 V2000
   44.4930   35.6800   45.0780 C   0  0  0  0  0  0  0  0  0  0  0  0
   45.0690   35.7490   43.7990 C   0  0  0  0  0  0  0  0  0  0  0  0
   46.0020   34.7650   43.4480 C   0  0  0  0  0  0  0  0  0  0  0  0
   46.2910   33.7930   44.3820 N   0  0  0  0  0  0  0  0  0  0  0  0
   45.7150   33.7650   45.5960 C   0  0  0  0  0  0  0  0  0  0  0  0
   44.8170   34.7050   45.9460 N   0  0  0  0  0  0  0  0  0  0  0  0
   46.7870   34.7660   41.8500 S   0  0  0  0  0  0  0  0  0  0  0  0
   44.7510   36.7400   42.8950 O   0  0  0  0  0  0  0  0  0  0  0  0
   43.7586   36.4423   45.3773 H   0  0  0  0  0  0  0  0  0  0  0  0
   45.9789   32.9691   46.3080 H   0  0  0  0  0  0  0  0  0  0  0  0
   48.1477   34.7677   42.0096 H   0  0  0  0  0  0  0  0  0  0  0  0
   45.1801   36.7525   42.0029 H   0  0  0  0  0  0  0  0  0  0  0  0
  1  6  2  0
  2  1  1  0
  3  2  2  0
  3  4  1  0
  4  5  2  0
  5  6  1  0
  7  3  1  0
  8  2  1  0
  1  9  1  0
  5 10  1  0
  7 11  1  0
  8 12  1  0
M  ISO  4   9  14  10  14  11  11  12   3
M  END
>  <minimizedAffinity>  (1) 
-3.2706809

>  <minimizedRMSD>  (1) 
0.53389883

$$$$
