
     RDKit          3D

 23 24  0  0  0  0  0  0  0  0999 V2000
   44.2180   35.8420   42.1430 C   0  0  0  0  0  0  0  0  0  0  0  0
   43.4060   34.7560   41.7330 C   0  0  0  0  0  0  0  0  0  0  0  0
   43.8180   33.4870   42.1210 C   0  0  0  0  0  0  0  0  0  0  0  0
   44.9740   33.3470   42.8730 N   0  0  0  0  0  0  0  0  0  0  0  0
   45.7070   34.4210   43.2340 C   0  0  0  0  0  0  0  0  0  0  0  0
   45.3330   35.6580   42.8730 N   0  0  0  0  0  0  0  0  0  0  0  0
   42.2420   34.9570   40.9700 N   0  0  0  0  0  0  0  0  0  0  0  0
   40.9700   35.2450   41.5800 C   0  0  0  0  0  0  0  0  0  0  0  0
   40.3020   36.1370   40.5900 C   0  0  0  0  0  0  0  0  0  0  0  0
   40.8160   35.6760   39.2440 C   0  0  0  0  0  0  0  0  0  0  0  0
   42.0850   34.9210   39.5260 C   0  0  0  0  0  0  0  0  0  0  0  0
   42.8660   32.0430   41.6550 S   0  0  0  0  0  0  0  0  0  0  0  0
   43.9289   36.8639   41.8566 H   0  0  0  0  0  0  0  0  0  0  0  0
   46.6206   34.2809   43.8304 H   0  0  0  0  0  0  0  0  0  0  0  0
   40.3897   34.3231   41.7327 H   0  0  0  0  0  0  0  0  0  0  0  0
   41.0667   35.7056   42.5742 H   0  0  0  0  0  0  0  0  0  0  0  0
   39.2089   36.0271   40.6455 H   0  0  0  0  0  0  0  0  0  0  0  0
   40.5199   37.1991   40.7755 H   0  0  0  0  0  0  0  0  0  0  0  0
   41.0209   36.5407   38.5957 H   0  0  0  0  0  0  0  0  0  0  0  0
   40.0787   35.0476   38.7230 H   0  0  0  0  0  0  0  0  0  0  0  0
   42.0014   33.8823   39.1737 H   0  0  0  0  0  0  0  0  0  0  0  0
   42.9487   35.3648   39.0092 H   0  0  0  0  0  0  0  0  0  0  0  0
   42.4383   31.3943   42.7834 H   0  0  0  0  0  0  0  0  0  0  0  0
  1  6  2  0
  2  3  2  0
  2  1  1  0
  3  4  1  0
  4  5  2  0
  6  5  1  0
  7  8  1  0
  7  2  1  0
  9  8  1  0
 10 11  1  0
 10  9  1  0
 11  7  1  0
 12  3  1  0
  1 13  1  0
  5 14  1  0
  8 15  1  0
  8 16  1  0
  9 17  1  0
  9 18  1  0
 10 19  1  0
 10 20  1  0
 11 21  1  0
 11 22  1  0
 12 23  1  0
M  ISO  8  13  14  14  14  15  13  16  13  17  13  18  13  19  13  20  13
M  ISO  3  21  13  22  13  23  11
M  END
>  <minimizedAffinity>  (1) 
-3.66484857

>  <minimizedRMSD>  (1) 
3.66801715

$$$$
