
     RDKit          3D

 18 19  0  0  0  0  0  0  0  0999 V2000
   44.3150   35.8110   42.3260 C   0  0  0  0  0  0  0  0  0  0  0  0
   43.4910   34.7950   41.7640 C   0  0  0  0  0  0  0  0  0  0  0  0
   43.7700   33.4810   42.1250 C   0  0  0  0  0  0  0  0  0  0  0  0
   44.8040   33.2340   42.9880 N   0  0  0  0  0  0  0  0  0  0  0  0
   45.5620   34.2180   43.4980 C   0  0  0  0  0  0  0  0  0  0  0  0
   45.3190   35.5090   43.1680 N   0  0  0  0  0  0  0  0  0  0  0  0
   42.4380   35.1330   40.8780 N   0  0  0  0  0  0  0  0  0  0  0  0
   42.3750   35.1310   39.5410 C   0  0  0  0  0  0  0  0  0  0  0  0
   41.1150   35.5490   39.1640 C   0  0  0  0  0  0  0  0  0  0  0  0
   40.4160   35.8040   40.3030 N   0  0  0  0  0  0  0  0  0  0  0  0
   41.2340   35.5470   41.3660 C   0  0  0  0  0  0  0  0  0  0  0  0
   42.7810   32.1500   41.4640 S   0  0  0  0  0  0  0  0  0  0  0  0
   44.1267   36.8632   42.0664 H   0  0  0  0  0  0  0  0  0  0  0  0
   46.3842   33.9745   44.1870 H   0  0  0  0  0  0  0  0  0  0  0  0
   43.1891   34.8449   38.8588 H   0  0  0  0  0  0  0  0  0  0  0  0
   40.7446   35.6561   38.1338 H   0  0  0  0  0  0  0  0  0  0  0  0
   40.9685   35.6549   42.4280 H   0  0  0  0  0  0  0  0  0  0  0  0
   42.2427   31.4256   42.4947 H   0  0  0  0  0  0  0  0  0  0  0  0
  1  6  2  0
  2  3  2  0
  2  1  1  0
  3  4  1  0
  4  5  2  0
  6  5  1  0
  7 11  1  0
  7  2  1  0
  8  7  1  0
  9  8  2  0
  9 10  1  0
 10 11  2  0
 12  3  1  0
  1 13  1  0
  5 14  1  0
  8 15  1  0
  9 16  1  0
 11 17  1  0
 12 18  1  0
M  ISO  6  13  14  14  14  15  14  16  14  17  14  18  11
M  END
>  <minimizedAffinity>  (1) 
-3.30914283

>  <minimizedRMSD>  (1) 
3.6094532

$$$$
