
     RDKit          3D

 24 25  0  0  0  0  0  0  0  0999 V2000
   44.4810   34.9560   44.0240 C   0  0  0  0  0  0  0  0  0  0  0  0
   44.5850   33.8600   43.1530 C   0  0  0  0  0  0  0  0  0  0  0  0
   45.3040   32.7360   43.5550 C   0  0  0  0  0  0  0  0  0  0  0  0
   45.8830   32.7620   44.8050 N   0  0  0  0  0  0  0  0  0  0  0  0
   45.7610   33.8350   45.6160 C   0  0  0  0  0  0  0  0  0  0  0  0
   45.0720   34.9190   45.2360 N   0  0  0  0  0  0  0  0  0  0  0  0
   44.0240   33.7650   41.8720 N   0  0  0  0  0  0  0  0  0  0  0  0
   44.4930   34.4600   40.6990 C   0  0  0  0  0  0  0  0  0  0  0  0
   43.2280   35.0130   40.0470 C   0  0  0  0  0  0  0  0  0  0  0  0
   42.5470   33.9530   39.5020 O   0  0  0  0  0  0  0  0  0  0  0  0
   42.2720   32.9210   40.3410 C   0  0  0  0  0  0  0  0  0  0  0  0
   42.8890   32.9140   41.6810 C   0  0  0  0  0  0  0  0  0  0  0  0
   45.4880   31.2970   42.5130 S   0  0  0  0  0  0  0  0  0  0  0  0
   43.9155   35.8482   43.7170 H   0  0  0  0  0  0  0  0  0  0  0  0
   46.2366   33.8184   46.6077 H   0  0  0  0  0  0  0  0  0  0  0  0
   45.1747   35.2768   40.9783 H   0  0  0  0  0  0  0  0  0  0  0  0
   45.0574   33.8018   40.0221 H   0  0  0  0  0  0  0  0  0  0  0  0
   42.6035   35.5120   40.8026 H   0  0  0  0  0  0  0  0  0  0  0  0
   43.4827   35.7498   39.2710 H   0  0  0  0  0  0  0  0  0  0  0  0
   41.1818   32.9036   40.4864 H   0  0  0  0  0  0  0  0  0  0  0  0
   42.7107   32.0453   39.8402 H   0  0  0  0  0  0  0  0  0  0  0  0
   42.1184   33.2194   42.4041 H   0  0  0  0  0  0  0  0  0  0  0  0
   43.2692   31.8910   41.8181 H   0  0  0  0  0  0  0  0  0  0  0  0
   45.6306   30.1817   43.2957 H   0  0  0  0  0  0  0  0  0  0  0  0
  1  6  2  0
  2  3  2  0
  2  1  1  0
  3  4  1  0
  4  5  2  0
  6  5  1  0
  7  2  1  0
  8  7  1  0
  9  8  1  0
 10  9  1  0
 10 11  1  0
 11 12  1  0
 12  7  1  0
 13  3  1  0
  1 14  1  0
  5 15  1  0
  8 16  1  0
  8 17  1  0
  9 18  1  0
  9 19  1  0
 11 20  1  0
 11 21  1  0
 12 22  1  0
 12 23  1  0
 13 24  1  0
M  ISO  8  14  14  15  14  16  13  17  13  18  13  19  13  20  13  21  13
M  ISO  3  22  13  23  13  24  11
M  END
>  <minimizedAffinity>  (1) 
-2.88453412

>  <minimizedRMSD>  (1) 
3.21626973

$$$$
