
     RDKit          3D

 18 19  0  0  0  0  0  0  0  0999 V2000
   44.2870   35.4480   44.1960 C   0  0  0  0  0  0  0  0  0  0  0  0
   44.2770   34.4700   43.1870 C   0  0  0  0  0  0  0  0  0  0  0  0
   44.9480   33.2860   43.4230 C   0  0  0  0  0  0  0  0  0  0  0  0
   45.5890   33.1340   44.6400 N   0  0  0  0  0  0  0  0  0  0  0  0
   45.5850   34.0830   45.5870 C   0  0  0  0  0  0  0  0  0  0  0  0
   44.9360   35.2300   45.3630 N   0  0  0  0  0  0  0  0  0  0  0  0
   43.5630   34.7590   41.9550 C   0  0  0  0  0  0  0  0  0  0  0  0
   43.8820   35.0610   40.6730 C   0  0  0  0  0  0  0  0  0  0  0  0
   42.7990   35.2410   39.9050 N   0  0  0  0  0  0  0  0  0  0  0  0
   41.7450   35.0560   40.6940 C   0  0  0  0  0  0  0  0  0  0  0  0
   42.2160   34.7680   41.9190 N   0  0  0  0  0  0  0  0  0  0  0  0
   45.0010   31.9810   42.2200 S   0  0  0  0  0  0  0  0  0  0  0  0
   43.7616   36.4010   44.0353 H   0  0  0  0  0  0  0  0  0  0  0  0
   46.1108   33.9194   46.5393 H   0  0  0  0  0  0  0  0  0  0  0  0
   44.9146   35.1486   40.3042 H   0  0  0  0  0  0  0  0  0  0  0  0
   40.6874   35.1256   40.3996 H   0  0  0  0  0  0  0  0  0  0  0  0
   41.6175   34.5765   42.7351 H   0  0  0  0  0  0  0  0  0  0  0  0
   45.0501   30.7710   42.8607 H   0  0  0  0  0  0  0  0  0  0  0  0
  1  6  2  0
  2  3  2  0
  2  1  1  0
  3  4  1  0
  4  5  2  0
  6  5  1  0
  7  2  1  0
  8  7  2  0
  9  8  1  0
  9 10  2  0
 10 11  1  0
 11  7  1  0
 12  3  1  0
  1 13  1  0
  5 14  1  0
  8 15  1  0
 10 16  1  0
 11 17  1  0
 12 18  1  0
M  ISO  6  13  14  14  14  15  14  16  14  17   9  18  11
M  END
>  <minimizedAffinity>  (1) 
-3.26555562

>  <minimizedRMSD>  (1) 
2.53215265

$$$$
