
     RDKit          3D

 13 13  0  0  0  0  0  0  0  0999 V2000
   44.4840   35.6240   45.2030 C   0  0  0  0  0  0  0  0  0  0  0  0
   45.0400   35.7160   43.9060 C   0  0  0  0  0  0  0  0  0  0  0  0
   45.9660   34.7400   43.5240 C   0  0  0  0  0  0  0  0  0  0  0  0
   46.2770   33.7560   44.4230 N   0  0  0  0  0  0  0  0  0  0  0  0
   45.7350   33.6940   45.6450 C   0  0  0  0  0  0  0  0  0  0  0  0
   44.8460   34.6160   46.0340 N   0  0  0  0  0  0  0  0  0  0  0  0
   44.6860   36.7590   43.0020 N   0  0  0  0  0  0  0  0  0  0  0  0
   46.7050   34.7950   41.9080 S   0  0  0  0  0  0  0  0  0  0  0  0
   43.7537   36.3746   45.5395 H   0  0  0  0  0  0  0  0  0  0  0  0
   46.0208   32.8834   46.3315 H   0  0  0  0  0  0  0  0  0  0  0  0
   45.1113   36.7945   42.0646 H   0  0  0  0  0  0  0  0  0  0  0  0
   44.0048   37.4775   43.2859 H   0  0  0  0  0  0  0  0  0  0  0  0
   48.0657   34.8963   42.0313 H   0  0  0  0  0  0  0  0  0  0  0  0
  1  6  2  0
  2  1  1  0
  3  2  2  0
  3  4  1  0
  4  5  2  0
  5  6  1  0
  7  2  1  0
  8  3  1  0
  1  9  1  0
  5 10  1  0
  7 11  1  0
  7 12  1  0
  8 13  1  0
M  ISO  3   9  14  10  14  13  11
M  END
>  <minimizedAffinity>  (1) 
-3.24494147

>  <minimizedRMSD>  (1) 
0.642506659

$$$$
