
     RDKit          3D

 27 28  0  0  0  0  0  0  0  0999 V2000
   45.5030   32.6610   46.9010 C   0  0  0  0  0  0  0  0  0  0  0  0
   46.0740   32.0170   45.7920 C   0  0  0  0  0  0  0  0  0  0  0  0
   47.2440   31.3000   46.0230 C   0  0  0  0  0  0  0  0  0  0  0  0
   47.7640   31.2590   47.2790 N   0  0  0  0  0  0  0  0  0  0  0  0
   47.1810   31.8930   48.3140 C   0  0  0  0  0  0  0  0  0  0  0  0
   46.0550   32.5880   48.1160 N   0  0  0  0  0  0  0  0  0  0  0  0
   45.4810   32.0830   44.4400 C   0  0  0  0  0  0  0  0  0  0  0  0
   45.1890   33.4590   44.1510 N   0  0  0  0  0  0  0  0  0  0  0  0
   45.2420   34.3190   45.3130 C   0  0  0  0  0  0  0  0  0  0  0  0
   44.6110   35.6290   44.8300 C   0  0  0  0  0  0  0  0  0  0  0  0
   45.3490   36.1740   43.7910 O   0  0  0  0  0  0  0  0  0  0  0  0
   45.4560   35.3110   42.7030 C   0  0  0  0  0  0  0  0  0  0  0  0
   46.1140   34.0420   43.2030 C   0  0  0  0  0  0  0  0  0  0  0  0
   48.0700   30.4320   44.6860 S   0  0  0  0  0  0  0  0  0  0  0  0
   44.5777   33.2405   46.7666 H   0  0  0  0  0  0  0  0  0  0  0  0
   47.6283   31.8398   49.3175 H   0  0  0  0  0  0  0  0  0  0  0  0
   46.1933   31.6891   43.7001 H   0  0  0  0  0  0  0  0  0  0  0  0
   44.5624   31.4796   44.3954 H   0  0  0  0  0  0  0  0  0  0  0  0
   44.6642   33.8894   46.1447 H   0  0  0  0  0  0  0  0  0  0  0  0
   46.2649   34.4556   45.6938 H   0  0  0  0  0  0  0  0  0  0  0  0
   43.5874   35.4294   44.4800 H   0  0  0  0  0  0  0  0  0  0  0  0
   44.5957   36.3437   45.6660 H   0  0  0  0  0  0  0  0  0  0  0  0
   46.0722   35.7706   41.9162 H   0  0  0  0  0  0  0  0  0  0  0  0
   44.4655   35.0958   42.2756 H   0  0  0  0  0  0  0  0  0  0  0  0
   46.2920   33.3491   42.3674 H   0  0  0  0  0  0  0  0  0  0  0  0
   47.0890   34.2503   43.6678 H   0  0  0  0  0  0  0  0  0  0  0  0
   48.9432   29.5144   45.2080 H   0  0  0  0  0  0  0  0  0  0  0  0
  1  6  2  0
  2  3  2  0
  2  1  1  0
  3  4  1  0
  4  5  2  0
  6  5  1  0
  7  2  1  0
  8  7  1  0
  8  9  1  0
 10  9  1  0
 11 10  1  0
 12 13  1  0
 12 11  1  0
 13  8  1  0
 14  3  1  0
  1 15  1  0
  5 16  1  0
  7 17  1  0
  7 18  1  0
  9 19  1  0
  9 20  1  0
 10 21  1  0
 10 22  1  0
 12 23  1  0
 12 24  1  0
 13 25  1  0
 13 26  1  0
 14 27  1  0
M  ISO  8  15  14  16  14  17   8  18   8  19  13  20  13  21  13  22  13
M  ISO  5  23  13  24  13  25  13  26  13  27  11
M  END
>  <minimizedAffinity>  (1) 
-3.41879559

>  <minimizedRMSD>  (1) 
4.02205467

$$$$
