
     RDKit          3D

 28 29  0  0  0  0  0  0  0  0999 V2000
   45.3240   35.8520   43.2310 C   0  0  0  0  0  0  0  0  0  0  0  0
   46.1510   34.7290   43.2060 C   0  0  0  0  0  0  0  0  0  0  0  0
   46.1440   33.9320   44.3700 C   0  0  0  0  0  0  0  0  0  0  0  0
   45.3480   34.3110   45.4110 N   0  0  0  0  0  0  0  0  0  0  0  0
   44.5810   35.3940   45.3780 C   0  0  0  0  0  0  0  0  0  0  0  0
   44.5700   36.1600   44.2910 N   0  0  0  0  0  0  0  0  0  0  0  0
   46.9920   34.3700   42.0530 C   0  0  0  0  0  0  0  0  0  0  0  0
   46.4720   33.2360   41.3100 N   0  0  0  0  0  0  0  0  0  0  0  0
   47.6080   32.5820   40.6980 C   0  0  0  0  0  0  0  0  0  0  0  0
   48.2220   33.4690   39.6470 C   0  0  0  0  0  0  0  0  0  0  0  0
   47.1930   33.9380   38.7430 N   0  0  0  0  0  0  0  0  0  0  0  0
   45.9430   33.2350   38.9240 C   0  0  0  0  0  0  0  0  0  0  0  0
   45.4710   33.6040   40.3380 C   0  0  0  0  0  0  0  0  0  0  0  0
   47.1600   32.4700   44.4690 S   0  0  0  0  0  0  0  0  0  0  0  0
   45.2911   36.5069   42.3478 H   0  0  0  0  0  0  0  0  0  0  0  0
   43.9576   35.6565   46.2455 H   0  0  0  0  0  0  0  0  0  0  0  0
   47.0507   35.2361   41.3773 H   0  0  0  0  0  0  0  0  0  0  0  0
   47.9821   34.0872   42.4399 H   0  0  0  0  0  0  0  0  0  0  0  0
   48.3593   32.3625   41.4708 H   0  0  0  0  0  0  0  0  0  0  0  0
   47.2694   31.6491   40.2237 H   0  0  0  0  0  0  0  0  0  0  0  0
   48.7036   34.3310   40.1318 H   0  0  0  0  0  0  0  0  0  0  0  0
   48.9720   32.8975   39.0805 H   0  0  0  0  0  0  0  0  0  0  0  0
   47.5143   33.7988   37.7743 H   0  0  0  0  0  0  0  0  0  0  0  0
   45.2062   33.5602   38.1748 H   0  0  0  0  0  0  0  0  0  0  0  0
   46.0625   32.1483   38.8023 H   0  0  0  0  0  0  0  0  0  0  0  0
   45.2949   34.6885   40.3907 H   0  0  0  0  0  0  0  0  0  0  0  0
   44.5402   33.0609   40.5585 H   0  0  0  0  0  0  0  0  0  0  0  0
   47.3793   32.1545   45.7840 H   0  0  0  0  0  0  0  0  0  0  0  0
  1  6  2  0
  2  1  1  0
  2  3  2  0
  3 14  1  0
  3  4  1  0
  5  4  2  0
  6  5  1  0
  7  2  1  0
  8  7  1  0
  9  8  1  0
 10  9  1  0
 11 12  1  0
 11 10  1  0
 12 13  1  0
 13  8  1  0
  1 15  1  0
  5 16  1  0
  7 17  1  0
  7 18  1  0
  9 19  1  0
  9 20  1  0
 10 21  1  0
 10 22  1  0
 11 23  1  0
 12 24  1  0
 12 25  1  0
 13 26  1  0
 13 27  1  0
 14 28  1  0
M  ISO  8  15  14  16  14  17   8  18   8  19  13  20  13  21  13  22  13
M  ISO  6  23   5  24  13  25  13  26  13  27  13  28  11
M  END
>  <minimizedAffinity>  (1) 
-3.97601461

>  <minimizedRMSD>  (1) 
3.28666782

$$$$
