
     RDKit          3D

 15 15  0  0  0  0  0  0  0  0999 V2000
   44.6290   35.3350   45.1730 C   0  0  0  0  0  0  0  0  0  0  0  0
   45.2500   35.4020   43.9240 C   0  0  0  0  0  0  0  0  0  0  0  0
   46.2630   34.4700   43.6450 C   0  0  0  0  0  0  0  0  0  0  0  0
   46.5740   33.5600   44.6140 N   0  0  0  0  0  0  0  0  0  0  0  0
   45.9560   33.5270   45.8000 C   0  0  0  0  0  0  0  0  0  0  0  0
   44.9910   34.4070   46.0790 N   0  0  0  0  0  0  0  0  0  0  0  0
   44.8690   36.4150   42.9060 C   0  0  0  0  0  0  0  0  0  0  0  0
   44.9650   37.6640   43.4920 O   0  0  0  0  0  0  0  0  0  0  0  0
   47.1210   34.4720   42.0730 S   0  0  0  0  0  0  0  0  0  0  0  0
   43.8318   36.0514   45.4205 H   0  0  0  0  0  0  0  0  0  0  0  0
   46.2435   32.7729   46.5475 H   0  0  0  0  0  0  0  0  0  0  0  0
   43.8364   36.2379   42.5708 H   0  0  0  0  0  0  0  0  0  0  0  0
   45.5346   36.3495   42.0327 H   0  0  0  0  0  0  0  0  0  0  0  0
   44.9576   37.5677   44.4773 H   0  0  0  0  0  0  0  0  0  0  0  0
   48.4735   34.4752   42.2910 H   0  0  0  0  0  0  0  0  0  0  0  0
  1  6  2  0
  2  1  1  0
  3  2  2  0
  3  4  1  0
  4  5  2  0
  5  6  1  0
  7  8  1  0
  7  2  1  0
  9  3  1  0
  1 10  1  0
  5 11  1  0
  7 12  1  0
  7 13  1  0
  8 14  1  0
  9 15  1  0
M  ISO  6  10  14  11  14  12   8  13   8  14   3  15  11
M  END
>  <minimizedAffinity>  (1) 
-3.36101913

>  <minimizedRMSD>  (1) 
0.396240234

$$$$
