
     RDKit          3D

 28 30  0  0  0  0  0  0  0  0999 V2000
   44.3940   35.8040   44.4810 C   0  0  0  0  0  0  0  0  0  0  0  0
   44.9560   35.1540   43.3780 C   0  0  0  0  0  0  0  0  0  0  0  0
   45.6700   33.9950   43.6270 C   0  0  0  0  0  0  0  0  0  0  0  0
   45.7690   33.5780   44.9270 N   0  0  0  0  0  0  0  0  0  0  0  0
   45.2230   34.2170   45.9550 C   0  0  0  0  0  0  0  0  0  0  0  0
   44.5300   35.3390   45.7300 N   0  0  0  0  0  0  0  0  0  0  0  0
   44.8040   35.6720   41.9960 C   0  0  0  0  0  0  0  0  0  0  0  0
   43.5150   35.1930   41.3870 C   0  0  0  0  0  0  0  0  0  0  0  0
   43.5060   34.3810   40.2960 C   0  0  0  0  0  0  0  0  0  0  0  0
   41.7340   34.0950   39.9600 S   0  0  0  0  0  0  0  0  0  0  0  0
   41.2780   35.2090   41.4700 C   0  0  0  0  0  0  0  0  0  0  0  0
   42.3190   35.5000   41.8320 N   0  0  0  0  0  0  0  0  0  0  0  0
   46.4360   33.0730   42.3080 S   0  0  0  0  0  0  0  0  0  0  0  0
   48.2140   33.2470   42.3090 C   0  0  0  0  0  0  0  0  0  0  0  0
   48.7090   34.5140   42.5500 C   0  0  0  0  0  0  0  0  0  0  0  0
   50.0860   34.6800   42.5580 C   0  0  0  0  0  0  0  0  0  0  0  0
   50.9390   33.6440   42.3360 N   0  0  0  0  0  0  0  0  0  0  0  0
   50.4100   32.4080   42.1010 C   0  0  0  0  0  0  0  0  0  0  0  0
   49.0770   32.2120   42.0880 N   0  0  0  0  0  0  0  0  0  0  0  0
   43.8208   36.7285   44.3177 H   0  0  0  0  0  0  0  0  0  0  0  0
   45.3389   33.8290   46.9778 H   0  0  0  0  0  0  0  0  0  0  0  0
   44.8049   36.7717   42.0205 H   0  0  0  0  0  0  0  0  0  0  0  0
   45.6417   35.3029   41.3861 H   0  0  0  0  0  0  0  0  0  0  0  0
   44.3702   33.9861   39.7417 H   0  0  0  0  0  0  0  0  0  0  0  0
   40.2908   35.4852   41.8689 H   0  0  0  0  0  0  0  0  0  0  0  0
   48.0333   35.3632   42.7296 H   0  0  0  0  0  0  0  0  0  0  0  0
   50.5011   35.6804   42.7498 H   0  0  0  0  0  0  0  0  0  0  0  0
   51.0833   31.5574   41.9191 H   0  0  0  0  0  0  0  0  0  0  0  0
  1  6  2  0
  2  3  2  0
  2  1  1  0
  3  4  1  0
  4  5  2  0
  6  5  1  0
  7  2  1  0
  8 12  1  0
  8  7  1  0
  9  8  2  0
 10  9  1  0
 10 11  1  0
 11 12  2  0
 13 14  1  0
 13  3  1  0
 14 15  2  0
 15 16  1  0
 17 16  2  0
 18 17  1  0
 19 18  2  0
 19 14  1  0
  1 20  1  0
  5 21  1  0
  7 22  1  0
  7 23  1  0
  9 24  1  0
 11 25  1  0
 15 26  1  0
 16 27  1  0
 18 28  1  0
M  ISO  8  20  14  21  14  22   8  23   8  24  14  25  14  26  14  27  14
M  ISO  1  28  14
M  END
>  <minimizedAffinity>  (1) 
-4.98817348

>  <minimizedRMSD>  (1) 
1.97213244

$$$$
