
     RDKit          3D

 39 41  0  0  0  0  0  0  0  0999 V2000
   44.4500   34.5100   41.8850 C   0  0  0  0  0  0  0  0  0  0  0  0
   44.4950   35.2880   44.2410 C   0  0  0  0  0  0  0  0  0  0  0  0
   44.8190   34.2670   43.3080 C   0  0  0  0  0  0  0  0  0  0  0  0
   45.4510   33.1330   43.8180 C   0  0  0  0  0  0  0  0  0  0  0  0
   45.7190   33.0580   45.1300 N   0  0  0  0  0  0  0  0  0  0  0  0
   45.4020   34.0410   45.9960 C   0  0  0  0  0  0  0  0  0  0  0  0
   44.7930   35.1430   45.5360 N   0  0  0  0  0  0  0  0  0  0  0  0
   45.6530   34.2740   41.0230 C   0  0  0  0  0  0  0  0  0  0  0  0
   43.9640   35.9200   41.7500 C   0  0  0  0  0  0  0  0  0  0  0  0
   43.3270   33.5800   41.5160 C   0  0  0  0  0  0  0  0  0  0  0  0
   42.1230   34.2350   41.6510 O   0  0  0  0  0  0  0  0  0  0  0  0
   40.9460   33.9180   40.9890 C   0  0  0  0  0  0  0  0  0  0  0  0
   40.0660   33.0760   41.6480 C   0  0  0  0  0  0  0  0  0  0  0  0
   38.8800   32.7200   41.0510 C   0  0  0  0  0  0  0  0  0  0  0  0
   38.5110   33.1710   39.7920 C   0  0  0  0  0  0  0  0  0  0  0  0
   39.4000   34.0140   39.1380 C   0  0  0  0  0  0  0  0  0  0  0  0
   39.0580   34.4770   37.8840 C   0  0  0  0  0  0  0  0  0  0  0  0
   39.9700   35.3240   37.2470 C   0  0  0  0  0  0  0  0  0  0  0  0
   41.1570   35.6820   37.8440 C   0  0  0  0  0  0  0  0  0  0  0  0
   41.4520   35.1980   39.0890 C   0  0  0  0  0  0  0  0  0  0  0  0
   40.5850   34.3690   39.7360 C   0  0  0  0  0  0  0  0  0  0  0  0
   43.9951   36.2048   43.8952 H   0  0  0  0  0  0  0  0  0  0  0  0
   45.7279   32.3054   43.1484 H   0  0  0  0  0  0  0  0  0  0  0  0
   45.6397   33.9403   47.0653 H   0  0  0  0  0  0  0  0  0  0  0  0
   46.5327   34.1014   41.6605 H   0  0  0  0  0  0  0  0  0  0  0  0
   45.4818   33.3923   40.3879 H   0  0  0  0  0  0  0  0  0  0  0  0
   45.8276   35.1550   40.3879 H   0  0  0  0  0  0  0  0  0  0  0  0
   43.8145   36.3536   42.7498 H   0  0  0  0  0  0  0  0  0  0  0  0
   44.7094   36.5137   41.2005 H   0  0  0  0  0  0  0  0  0  0  0  0
   43.0111   35.9284   41.2005 H   0  0  0  0  0  0  0  0  0  0  0  0
   43.3438   32.7036   42.1806 H   0  0  0  0  0  0  0  0  0  0  0  0
   43.4506   33.2529   40.4731 H   0  0  0  0  0  0  0  0  0  0  0  0
   40.3158   32.6924   42.6482 H   0  0  0  0  0  0  0  0  0  0  0  0
   38.1961   32.0506   41.5934 H   0  0  0  0  0  0  0  0  0  0  0  0
   37.5568   32.8741   39.3322 H   0  0  0  0  0  0  0  0  0  0  0  0
   38.1090   34.1921   37.4062 H   0  0  0  0  0  0  0  0  0  0  0  0
   39.7332   35.7131   36.2457 H   0  0  0  0  0  0  0  0  0  0  0  0
   41.8608   36.3499   37.3259 H   0  0  0  0  0  0  0  0  0  0  0  0
   42.3985   35.4807   39.5728 H   0  0  0  0  0  0  0  0  0  0  0  0
  1  3  1  0
  2  7  2  0
  3  4  2  0
  3  2  1  0
  4  5  1  0
  5  6  2  0
  7  6  1  0
  8  1  1  0
  9  1  1  0
 10 11  1  0
 10  1  1  0
 12 13  2  0
 12 11  1  0
 14 13  1  0
 15 14  2  0
 16 21  2  0
 16 15  1  0
 17 16  1  0
 18 19  1  0
 18 17  2  0
 19 20  2  0
 20 21  1  0
 21 12  1  0
  2 22  1  0
  4 23  1  0
  6 24  1  0
  8 25  1  0
  8 26  1  0
  8 27  1  0
  9 28  1  0
  9 29  1  0
  9 30  1  0
 10 31  1  0
 10 32  1  0
 13 33  1  0
 14 34  1  0
 15 35  1  0
 17 36  1  0
 18 37  1  0
 19 38  1  0
 20 39  1  0
M  ISO  8  22  14  23  14  24  14  25   8  26   8  27   8  28   8  29   8
M  ISO  8  30   8  31   8  32   8  33  14  34  14  35  14  36  14  37  14
M  ISO  2  38  14  39  14
M  END
>  <minimizedAffinity>  (1) 
-6.08379364

>  <minimizedRMSD>  (1) 
1.85469007

$$$$
