
     RDKit          3D

 36 38  0  0  0  0  0  0  0  0999 V2000
   44.5240   35.7170   44.5640 C   0  0  0  0  0  0  0  0  0  0  0  0
   45.1400   34.9950   43.5270 C   0  0  0  0  0  0  0  0  0  0  0  0
   45.7840   33.8170   43.8660 C   0  0  0  0  0  0  0  0  0  0  0  0
   45.7790   33.4310   45.1790 N   0  0  0  0  0  0  0  0  0  0  0  0
   45.1740   34.1540   46.1430 C   0  0  0  0  0  0  0  0  0  0  0  0
   44.5530   35.2860   45.8370 N   0  0  0  0  0  0  0  0  0  0  0  0
   45.1110   35.4650   42.1280 C   0  0  0  0  0  0  0  0  0  0  0  0
   43.8250   35.0450   41.4440 C   0  0  0  0  0  0  0  0  0  0  0  0
   43.8620   34.2020   40.3740 C   0  0  0  0  0  0  0  0  0  0  0  0
   42.1010   34.0160   39.9300 S   0  0  0  0  0  0  0  0  0  0  0  0
   41.6120   35.1820   41.3600 C   0  0  0  0  0  0  0  0  0  0  0  0
   42.6340   35.4320   41.7990 N   0  0  0  0  0  0  0  0  0  0  0  0
   46.5980   32.8210   42.6380 S   0  0  0  0  0  0  0  0  0  0  0  0
   48.3700   32.6810   43.0090 C   0  0  0  0  0  0  0  0  0  0  0  0
   48.8890   31.4910   42.2780 C   0  0  0  0  0  0  0  0  0  0  0  0
   50.3780   31.4110   42.4970 C   0  0  0  0  0  0  0  0  0  0  0  0
   50.9660   32.6070   41.7830 C   0  0  0  0  0  0  0  0  0  0  0  0
   50.5230   33.8730   42.4490 C   0  0  0  0  0  0  0  0  0  0  0  0
   49.0610   33.9620   42.7170 C   0  0  0  0  0  0  0  0  0  0  0  0
   44.0054   36.6579   44.3280 H   0  0  0  0  0  0  0  0  0  0  0  0
   45.1953   33.8045   47.1858 H   0  0  0  0  0  0  0  0  0  0  0  0
   45.1843   36.5625   42.1150 H   0  0  0  0  0  0  0  0  0  0  0  0
   45.9589   35.0175   41.5887 H   0  0  0  0  0  0  0  0  0  0  0  0
   44.7399   33.7446   39.8942 H   0  0  0  0  0  0  0  0  0  0  0  0
   40.6141   35.5210   41.6752 H   0  0  0  0  0  0  0  0  0  0  0  0
   48.5643   32.5115   44.0784 H   0  0  0  0  0  0  0  0  0  0  0  0
   48.6764   31.5930   41.2036 H   0  0  0  0  0  0  0  0  0  0  0  0
   48.4025   30.5771   42.6495 H   0  0  0  0  0  0  0  0  0  0  0  0
   50.6097   31.4547   43.5714 H   0  0  0  0  0  0  0  0  0  0  0  0
   50.7928   30.4672   42.1134 H   0  0  0  0  0  0  0  0  0  0  0  0
   50.6273   32.6087   40.7365 H   0  0  0  0  0  0  0  0  0  0  0  0
   52.0636   32.5452   41.8211 H   0  0  0  0  0  0  0  0  0  0  0  0
   51.0522   33.9570   43.4097 H   0  0  0  0  0  0  0  0  0  0  0  0
   50.7586   34.6884   41.7493 H   0  0  0  0  0  0  0  0  0  0  0  0
   48.9181   34.6256   43.5826 H   0  0  0  0  0  0  0  0  0  0  0  0
   48.6122   34.3330   41.7837 H   0  0  0  0  0  0  0  0  0  0  0  0
  1  6  2  0
  2  3  2  0
  2  1  1  0
  3  4  1  0
  4  5  2  0
  6  5  1  0
  7  2  1  0
  8 12  1  0
  8  7  1  0
  9  8  2  0
 10  9  1  0
 10 11  1  0
 11 12  2  0
 13 14  1  0
 13  3  1  0
 15 16  1  0
 15 14  1  0
 17 18  1  0
 17 16  1  0
 18 19  1  0
 19 14  1  0
  1 20  1  0
  5 21  1  0
  7 22  1  0
  7 23  1  0
  9 24  1  0
 11 25  1  0
 14 26  1  0
 15 27  1  0
 15 28  1  0
 16 29  1  0
 16 30  1  0
 17 31  1  0
 17 32  1  0
 18 33  1  0
 18 34  1  0
 19 35  1  0
 19 36  1  0
M  ISO  8  20  14  21  14  22   8  23   8  24  14  25  14  26  13  27  13
M  ISO  8  28  13  29  13  30  13  31  13  32  13  33  13  34  13  35  13
M  ISO  1  36  13
M  END
>  <minimizedAffinity>  (1) 
-4.97295952

>  <minimizedRMSD>  (1) 
2.20038176

$$$$
