
     RDKit          3D

 32 33  0  0  0  0  0  0  0  0999 V2000
   44.2450   35.5730   44.2240 C   0  0  0  0  0  0  0  0  0  0  0  0
   44.7130   35.1390   42.9940 C   0  0  0  0  0  0  0  0  0  0  0  0
   45.7630   34.2090   42.9930 C   0  0  0  0  0  0  0  0  0  0  0  0
   46.2330   33.8140   44.2170 N   0  0  0  0  0  0  0  0  0  0  0  0
   45.7590   34.2520   45.3790 C   0  0  0  0  0  0  0  0  0  0  0  0
   44.7630   35.1330   45.3860 N   0  0  0  0  0  0  0  0  0  0  0  0
   44.1540   35.6140   41.7050 C   0  0  0  0  0  0  0  0  0  0  0  0
   42.8000   34.9990   41.4480 C   0  0  0  0  0  0  0  0  0  0  0  0
   42.6800   33.6850   41.1290 C   0  0  0  0  0  0  0  0  0  0  0  0
   40.8610   33.4790   40.9310 S   0  0  0  0  0  0  0  0  0  0  0  0
   40.5990   35.3300   41.3460 C   0  0  0  0  0  0  0  0  0  0  0  0
   41.6750   35.6490   41.5100 N   0  0  0  0  0  0  0  0  0  0  0  0
   46.4560   33.5740   41.4900 S   0  0  0  0  0  0  0  0  0  0  0  0
   48.0710   34.2170   41.0960 C   0  0  0  0  0  0  0  0  0  0  0  0
   49.1390   33.1940   41.4730 C   0  0  0  0  0  0  0  0  0  0  0  0
   48.0950   34.4520   39.5810 C   0  0  0  0  0  0  0  0  0  0  0  0
   48.4100   35.5230   41.7480 C   0  0  0  0  0  0  0  0  0  0  0  0
   43.4219   36.3022   44.2518 H   0  0  0  0  0  0  0  0  0  0  0  0
   46.1864   33.8893   46.3254 H   0  0  0  0  0  0  0  0  0  0  0  0
   44.0523   36.7088   41.7378 H   0  0  0  0  0  0  0  0  0  0  0  0
   44.8356   35.3165   40.8945 H   0  0  0  0  0  0  0  0  0  0  0  0
   43.4726   32.9306   41.0167 H   0  0  0  0  0  0  0  0  0  0  0  0
   39.6703   35.9163   41.4077 H   0  0  0  0  0  0  0  0  0  0  0  0
   49.2106   33.1254   42.5685 H   0  0  0  0  0  0  0  0  0  0  0  0
   48.8668   32.2110   41.0611 H   0  0  0  0  0  0  0  0  0  0  0  0
   50.1094   33.5082   41.0611 H   0  0  0  0  0  0  0  0  0  0  0  0
   48.2048   35.5276   39.3785 H   0  0  0  0  0  0  0  0  0  0  0  0
   48.9422   33.9072   39.1388 H   0  0  0  0  0  0  0  0  0  0  0  0
   47.1552   34.0897   39.1388 H   0  0  0  0  0  0  0  0  0  0  0  0
   48.3796   35.4058   42.8413 H   0  0  0  0  0  0  0  0  0  0  0  0
   49.4190   35.8353   41.4406 H   0  0  0  0  0  0  0  0  0  0  0  0
   47.6803   36.2866   41.4406 H   0  0  0  0  0  0  0  0  0  0  0  0
  1  6  2  0
  2  1  1  0
  3  2  2  0
  3  4  1  0
  4  5  2  0
  5  6  1  0
  7  2  1  0
  8 12  1  0
  8  7  1  0
  9  8  2  0
 10  9  1  0
 10 11  1  0
 11 12  2  0
 13  3  1  0
 14 15  1  0
 14 13  1  0
 14 17  1  0
 16 14  1  0
  1 18  1  0
  5 19  1  0
  7 20  1  0
  7 21  1  0
  9 22  1  0
 11 23  1  0
 15 24  1  0
 15 25  1  0
 15 26  1  0
 16 27  1  0
 16 28  1  0
 16 29  1  0
 17 30  1  0
 17 31  1  0
 17 32  1  0
M  ISO  8  18  14  19  14  20   8  21   8  22  14  23  14  24   8  25   8
M  ISO  7  26   8  27   8  28   8  29   8  30   8  31   8  32   8
M  END
>  <minimizedAffinity>  (1) 
-4.68338776

>  <minimizedRMSD>  (1) 
2.14649343

$$$$
