
     RDKit          3D

 25 27  0  0  0  0  0  0  0  0999 V2000
   44.5650   35.7070   44.5880 C   0  0  0  0  0  0  0  0  0  0  0  0
   45.2570   34.9960   43.5940 C   0  0  0  0  0  0  0  0  0  0  0  0
   45.9150   33.8280   43.9730 C   0  0  0  0  0  0  0  0  0  0  0  0
   45.8430   33.4570   45.2760 N   0  0  0  0  0  0  0  0  0  0  0  0
   45.1740   34.1550   46.2020 C   0  0  0  0  0  0  0  0  0  0  0  0
   44.5440   35.2660   45.8580 N   0  0  0  0  0  0  0  0  0  0  0  0
   45.2910   35.4650   42.1860 C   0  0  0  0  0  0  0  0  0  0  0  0
   44.0410   35.0230   41.4460 C   0  0  0  0  0  0  0  0  0  0  0  0
   44.1240   34.1000   40.4490 C   0  0  0  0  0  0  0  0  0  0  0  0
   42.3860   33.9230   39.8990 S   0  0  0  0  0  0  0  0  0  0  0  0
   41.8430   35.2100   41.2020 C   0  0  0  0  0  0  0  0  0  0  0  0
   42.8390   35.4760   41.6970 N   0  0  0  0  0  0  0  0  0  0  0  0
   46.8210   32.8530   42.7900 S   0  0  0  0  0  0  0  0  0  0  0  0
   48.5230   33.3720   42.6290 C   0  0  0  0  0  0  0  0  0  0  0  0
   48.8650   34.6740   42.7180 N   0  0  0  0  0  0  0  0  0  0  0  0
   50.1590   34.8190   42.5700 O   0  0  0  0  0  0  0  0  0  0  0  0
   50.7030   33.6210   42.3800 C   0  0  0  0  0  0  0  0  0  0  0  0
   49.7030   32.7190   42.4150 N   0  0  0  0  0  0  0  0  0  0  0  0
   44.0348   36.6341   44.3248 H   0  0  0  0  0  0  0  0  0  0  0  0
   45.1483   33.8060   47.2448 H   0  0  0  0  0  0  0  0  0  0  0  0
   45.3502   36.5633   42.1720 H   0  0  0  0  0  0  0  0  0  0  0  0
   46.1705   35.0305   41.6883 H   0  0  0  0  0  0  0  0  0  0  0  0
   45.0178   33.5854   40.0665 H   0  0  0  0  0  0  0  0  0  0  0  0
   40.8356   35.5947   41.4194 H   0  0  0  0  0  0  0  0  0  0  0  0
   51.7704   33.4063   42.2234 H   0  0  0  0  0  0  0  0  0  0  0  0
  1  6  2  0
  2  3  2  0
  2  1  1  0
  3  4  1  0
  4  5  2  0
  6  5  1  0
  7  2  1  0
  8 12  1  0
  8  7  1  0
  9  8  2  0
 10  9  1  0
 10 11  1  0
 11 12  2  0
 13  3  1  0
 14 15  2  0
 14 13  1  0
 16 15  1  0
 17 18  2  0
 17 16  1  0
 18 14  1  0
  1 19  1  0
  5 20  1  0
  7 21  1  0
  7 22  1  0
  9 23  1  0
 11 24  1  0
 17 25  1  0
M  ISO  7  19  14  20  14  21   8  22   8  23  14  24  14  25  14
M  END
>  <minimizedAffinity>  (1) 
-4.76533031

>  <minimizedRMSD>  (1) 
0.553380728

$$$$
