
     RDKit          3D

 26 28  0  0  0  0  0  0  0  0999 V2000
   44.4730   35.7790   44.6250 C   0  0  0  0  0  0  0  0  0  0  0  0
   45.0870   35.0350   43.6090 C   0  0  0  0  0  0  0  0  0  0  0  0
   45.7120   33.8460   43.9540 C   0  0  0  0  0  0  0  0  0  0  0  0
   45.6840   33.4810   45.2740 N   0  0  0  0  0  0  0  0  0  0  0  0
   45.0890   34.2120   46.2250 C   0  0  0  0  0  0  0  0  0  0  0  0
   44.4930   35.3450   45.8960 N   0  0  0  0  0  0  0  0  0  0  0  0
   45.0810   35.4870   42.1990 C   0  0  0  0  0  0  0  0  0  0  0  0
   43.8140   35.0600   41.5030 C   0  0  0  0  0  0  0  0  0  0  0  0
   43.8320   34.1970   40.4570 C   0  0  0  0  0  0  0  0  0  0  0  0
   42.0730   34.0210   39.9980 S   0  0  0  0  0  0  0  0  0  0  0  0
   41.5880   35.2330   41.4050 C   0  0  0  0  0  0  0  0  0  0  0  0
   42.6150   35.4560   41.8200 N   0  0  0  0  0  0  0  0  0  0  0  0
   46.5250   32.8180   42.7650 S   0  0  0  0  0  0  0  0  0  0  0  0
   48.2790   33.2200   42.5850 C   0  0  0  0  0  0  0  0  0  0  0  0
   49.2750   32.0600   42.3170 C   0  0  0  0  0  0  0  0  0  0  0  0
   50.8270   33.1440   42.2460 S   0  0  0  0  0  0  0  0  0  0  0  0
   49.9730   34.7010   42.5430 C   0  0  0  0  0  0  0  0  0  0  0  0
   48.6210   34.4960   42.6940 N   0  0  0  0  0  0  0  0  0  0  0  0
   43.9704   36.7263   44.3799 H   0  0  0  0  0  0  0  0  0  0  0  0
   45.0961   33.8725   47.2713 H   0  0  0  0  0  0  0  0  0  0  0  0
   45.1545   36.5842   42.1722 H   0  0  0  0  0  0  0  0  0  0  0  0
   45.9376   35.0319   41.6803 H   0  0  0  0  0  0  0  0  0  0  0  0
   44.7045   33.7145   39.9923 H   0  0  0  0  0  0  0  0  0  0  0  0
   40.5997   35.6023   41.7162 H   0  0  0  0  0  0  0  0  0  0  0  0
   49.1290   30.9754   42.2059 H   0  0  0  0  0  0  0  0  0  0  0  0
   50.4655   35.6831   42.5965 H   0  0  0  0  0  0  0  0  0  0  0  0
  1  6  2  0
  2  3  2  0
  2  1  1  0
  3  4  1  0
  4  5  2  0
  6  5  1  0
  7  2  1  0
  8 12  1  0
  8  7  1  0
  9  8  2  0
 10  9  1  0
 10 11  1  0
 11 12  2  0
 13  3  1  0
 14 18  1  0
 14 13  1  0
 15 14  2  0
 16 15  1  0
 16 17  1  0
 17 18  2  0
  1 19  1  0
  5 20  1  0
  7 21  1  0
  7 22  1  0
  9 23  1  0
 11 24  1  0
 15 25  1  0
 17 26  1  0
M  ISO  8  19  14  20  14  21   8  22   8  23  14  24  14  25  14  26  14
M  END
>  <minimizedAffinity>  (1) 
-4.66949224

>  <minimizedRMSD>  (1) 
0.675199032

$$$$
