
     RDKit          3D

 37 39  0  0  0  0  0  0  0  0999 V2000
   45.9620   34.8530   42.7430 C   0  0  0  0  0  0  0  0  0  0  0  0
   45.2120   34.4910   45.1020 C   0  0  0  0  0  0  0  0  0  0  0  0
   46.0950   34.1240   44.0460 C   0  0  0  0  0  0  0  0  0  0  0  0
   47.0220   33.1090   44.2980 C   0  0  0  0  0  0  0  0  0  0  0  0
   47.0310   32.5320   45.5260 N   0  0  0  0  0  0  0  0  0  0  0  0
   46.1790   32.9050   46.5040 C   0  0  0  0  0  0  0  0  0  0  0  0
   45.2810   33.8760   46.2870 N   0  0  0  0  0  0  0  0  0  0  0  0
   47.3160   35.1450   42.1940 C   0  0  0  0  0  0  0  0  0  0  0  0
   45.1840   36.1190   42.9870 C   0  0  0  0  0  0  0  0  0  0  0  0
   45.1370   33.9900   41.8060 C   0  0  0  0  0  0  0  0  0  0  0  0
   44.5690   34.7650   40.8370 O   0  0  0  0  0  0  0  0  0  0  0  0
   43.6080   34.1750   40.0090 C   0  0  0  0  0  0  0  0  0  0  0  0
   43.9190   33.1960   39.1090 N   0  0  0  0  0  0  0  0  0  0  0  0
   43.0200   32.6210   38.3100 C   0  0  0  0  0  0  0  0  0  0  0  0
   41.7260   32.9960   38.3630 N   0  0  0  0  0  0  0  0  0  0  0  0
   41.3340   33.9670   39.2360 C   0  0  0  0  0  0  0  0  0  0  0  0
   39.9990   34.3120   39.2470 C   0  0  0  0  0  0  0  0  0  0  0  0
   39.5680   35.2960   40.1210 C   0  0  0  0  0  0  0  0  0  0  0  0
   40.5110   35.8850   40.9450 C   0  0  0  0  0  0  0  0  0  0  0  0
   41.8510   35.5260   40.9190 C   0  0  0  0  0  0  0  0  0  0  0  0
   42.2750   34.5440   40.0450 C   0  0  0  0  0  0  0  0  0  0  0  0
   44.4685   35.2856   44.9413 H   0  0  0  0  0  0  0  0  0  0  0  0
   47.7279   32.7854   43.5189 H   0  0  0  0  0  0  0  0  0  0  0  0
   46.2219   32.4092   47.4850 H   0  0  0  0  0  0  0  0  0  0  0  0
   48.0227   35.2974   43.0230 H   0  0  0  0  0  0  0  0  0  0  0  0
   47.6518   34.2986   41.5768 H   0  0  0  0  0  0  0  0  0  0  0  0
   47.2731   36.0545   41.5768 H   0  0  0  0  0  0  0  0  0  0  0  0
   45.0825   36.2841   44.0698 H   0  0  0  0  0  0  0  0  0  0  0  0
   45.7158   36.9691   42.5347 H   0  0  0  0  0  0  0  0  0  0  0  0
   44.1854   36.0286   42.5347 H   0  0  0  0  0  0  0  0  0  0  0  0
   45.7875   33.2376   41.3361 H   0  0  0  0  0  0  0  0  0  0  0  0
   44.3431   33.4901   42.3803 H   0  0  0  0  0  0  0  0  0  0  0  0
   43.3351   31.8377   37.6049 H   0  0  0  0  0  0  0  0  0  0  0  0
   39.2876   33.8135   38.5722 H   0  0  0  0  0  0  0  0  0  0  0  0
   38.5113   35.5993   40.1590 H   0  0  0  0  0  0  0  0  0  0  0  0
   40.1860   36.6671   41.6469 H   0  0  0  0  0  0  0  0  0  0  0  0
   42.5701   36.0196   41.5892 H   0  0  0  0  0  0  0  0  0  0  0  0
  1  9  1  0
  1  3  1  0
  2  7  2  0
  3  4  2  0
  3  2  1  0
  4  5  1  0
  5  6  2  0
  7  6  1  0
  8  1  1  0
 10  1  1  0
 11 10  1  0
 12 21  1  0
 12 11  1  0
 13 12  2  0
 14 15  2  0
 14 13  1  0
 15 16  1  0
 16 17  1  0
 16 21  2  0
 17 18  2  0
 18 19  1  0
 20 19  2  0
 21 20  1  0
  2 22  1  0
  4 23  1  0
  6 24  1  0
  8 25  1  0
  8 26  1  0
  8 27  1  0
  9 28  1  0
  9 29  1  0
  9 30  1  0
 10 31  1  0
 10 32  1  0
 14 33  1  0
 17 34  1  0
 18 35  1  0
 19 36  1  0
 20 37  1  0
M  ISO  8  22  14  23  14  24  14  25   8  26   8  27   8  28   8  29   8
M  ISO  8  30   8  31   8  32   8  33  14  34  14  35  14  36  14  37  14
M  END
>  <minimizedAffinity>  (1) 
-5.77346134

>  <minimizedRMSD>  (1) 
2.31413364

$$$$
