
     RDKit          3D

 43 46  0  0  0  0  0  0  0  0999 V2000
   44.7540   35.0270   44.8110 C   0  0  0  0  0  0  0  0  0  0  0  0
   45.4230   35.1650   43.5890 C   0  0  0  0  0  0  0  0  0  0  0  0
   46.5790   34.4140   43.3910 C   0  0  0  0  0  0  0  0  0  0  0  0
   46.9820   33.5920   44.4060 N   0  0  0  0  0  0  0  0  0  0  0  0
   46.3270   33.4790   45.5610 C   0  0  0  0  0  0  0  0  0  0  0  0
   45.2200   34.1880   45.7710 N   0  0  0  0  0  0  0  0  0  0  0  0
   44.9290   36.0720   42.5380 C   0  0  0  0  0  0  0  0  0  0  0  0
   43.8010   35.4290   41.7560 C   0  0  0  0  0  0  0  0  0  0  0  0
   44.0680   34.6030   40.6930 C   0  0  0  0  0  0  0  0  0  0  0  0
   42.4030   34.1120   40.1200 S   0  0  0  0  0  0  0  0  0  0  0  0
   41.6060   35.1710   41.4990 C   0  0  0  0  0  0  0  0  0  0  0  0
   42.5320   35.5960   42.0100 N   0  0  0  0  0  0  0  0  0  0  0  0
   47.4990   34.5100   41.8980 S   0  0  0  0  0  0  0  0  0  0  0  0
   48.9410   33.7010   41.7940 C   0  0  0  0  0  0  0  0  0  0  0  0
   50.2030   33.5260   42.3480 C   0  0  0  0  0  0  0  0  0  0  0  0
   51.1420   32.6770   41.8860 C   0  0  0  0  0  0  0  0  0  0  0  0
   50.8090   31.9080   40.7480 C   0  0  0  0  0  0  0  0  0  0  0  0
   49.0550   32.4890   40.3860 S   0  0  0  0  0  0  0  0  0  0  0  0
   51.5380   30.9330   40.0040 C   0  0  0  0  0  0  0  0  0  0  0  0
   51.0220   30.9330   38.5600 C   0  0  0  0  0  0  0  0  0  0  0  0
   51.7770   29.8720   37.8000 C   0  0  0  0  0  0  0  0  0  0  0  0
   53.1860   30.3910   37.5830 C   0  0  0  0  0  0  0  0  0  0  0  0
   53.4950   31.5080   38.5430 C   0  0  0  0  0  0  0  0  0  0  0  0
   53.0240   31.1600   39.9450 C   0  0  0  0  0  0  0  0  0  0  0  0
   43.8376   35.6067   44.9959 H   0  0  0  0  0  0  0  0  0  0  0  0
   46.7011   32.7997   46.3411 H   0  0  0  0  0  0  0  0  0  0  0  0
   44.5618   36.9980   43.0046 H   0  0  0  0  0  0  0  0  0  0  0  0
   45.7556   36.2923   41.8464 H   0  0  0  0  0  0  0  0  0  0  0  0
   45.0461   34.3081   40.2850 H   0  0  0  0  0  0  0  0  0  0  0  0
   40.5430   35.3274   41.7348 H   0  0  0  0  0  0  0  0  0  0  0  0
   50.4556   34.1278   43.2334 H   0  0  0  0  0  0  0  0  0  0  0  0
   52.1241   32.5865   42.3730 H   0  0  0  0  0  0  0  0  0  0  0  0
   51.3777   29.9797   40.5290 H   0  0  0  0  0  0  0  0  0  0  0  0
   49.9454   30.7075   38.5475 H   0  0  0  0  0  0  0  0  0  0  0  0
   51.1755   31.9191   38.0974 H   0  0  0  0  0  0  0  0  0  0  0  0
   51.8047   28.9392   38.3824 H   0  0  0  0  0  0  0  0  0  0  0  0
   51.2876   29.6584   36.8383 H   0  0  0  0  0  0  0  0  0  0  0  0
   53.9014   29.5706   37.7413 H   0  0  0  0  0  0  0  0  0  0  0  0
   53.2671   30.7751   36.5554 H   0  0  0  0  0  0  0  0  0  0  0  0
   54.5815   31.6791   38.5596 H   0  0  0  0  0  0  0  0  0  0  0  0
   52.9697   32.4151   38.2095 H   0  0  0  0  0  0  0  0  0  0  0  0
   53.5359   30.2435   40.2736 H   0  0  0  0  0  0  0  0  0  0  0  0
   53.2628   32.0089   40.6025 H   0  0  0  0  0  0  0  0  0  0  0  0
  1  6  2  0
  2  1  1  0
  3  2  2  0
  3  4  1  0
  4  5  2  0
  5  6  1  0
  7  2  1  0
  8 12  1  0
  8  7  1  0
  9  8  2  0
 10  9  1  0
 10 11  1  0
 11 12  2  0
 13  3  1  0
 14 13  1  0
 14 15  2  0
 16 15  1  0
 17 16  2  0
 18 17  1  0
 18 14  1  0
 19 17  1  0
 20 19  1  0
 21 20  1  0
 22 21  1  0
 22 23  1  0
 23 24  1  0
 24 19  1  0
  1 25  1  0
  5 26  1  0
  7 27  1  0
  7 28  1  0
  9 29  1  0
 11 30  1  0
 15 31  1  0
 16 32  1  0
 19 33  1  0
 20 34  1  0
 20 35  1  0
 21 36  1  0
 21 37  1  0
 22 38  1  0
 22 39  1  0
 23 40  1  0
 23 41  1  0
 24 42  1  0
 24 43  1  0
M  ISO  8  25  14  26  14  27   8  28   8  29  14  30  14  31  14  32  14
M  ISO  8  33  13  34  13  35  13  36  13  37  13  38  13  39  13  40  13
M  ISO  3  41  13  42  13  43  13
M  END
>  <minimizedAffinity>  (1) 
-5.31665182

>  <minimizedRMSD>  (1) 
0.903181076

$$$$
