
     RDKit          3D

 35 38  0  0  0  0  0  0  0  0999 V2000
   44.3480   35.5960   44.5690 C   0  0  0  0  0  0  0  0  0  0  0  0
   44.9880   35.3560   43.3490 C   0  0  0  0  0  0  0  0  0  0  0  0
   46.0300   34.4210   43.3370 C   0  0  0  0  0  0  0  0  0  0  0  0
   46.3500   33.8130   44.5120 N   0  0  0  0  0  0  0  0  0  0  0  0
   45.7240   34.0600   45.6650 C   0  0  0  0  0  0  0  0  0  0  0  0
   44.7260   34.9470   45.6990 N   0  0  0  0  0  0  0  0  0  0  0  0
   44.5900   36.0500   42.1130 C   0  0  0  0  0  0  0  0  0  0  0  0
   43.3930   35.3690   41.4730 C   0  0  0  0  0  0  0  0  0  0  0  0
   43.5460   34.5450   40.3880 C   0  0  0  0  0  0  0  0  0  0  0  0
   41.8460   34.0030   40.0230 S   0  0  0  0  0  0  0  0  0  0  0  0
   41.1910   35.0520   41.4910 C   0  0  0  0  0  0  0  0  0  0  0  0
   42.1610   35.5000   41.8760 N   0  0  0  0  0  0  0  0  0  0  0  0
   46.9080   34.0380   41.8640 S   0  0  0  0  0  0  0  0  0  0  0  0
   48.5120   33.6580   41.9680 C   0  0  0  0  0  0  0  0  0  0  0  0
   49.7330   33.9620   42.5500 C   0  0  0  0  0  0  0  0  0  0  0  0
   50.8960   33.3310   42.3140 C   0  0  0  0  0  0  0  0  0  0  0  0
   50.8630   32.2640   41.3880 C   0  0  0  0  0  0  0  0  0  0  0  0
   49.0480   32.2350   40.8880 S   0  0  0  0  0  0  0  0  0  0  0  0
   51.8610   31.3780   40.8860 C   0  0  0  0  0  0  0  0  0  0  0  0
   52.1990   30.3230   41.6600 C   0  0  0  0  0  0  0  0  0  0  0  0
   53.1780   29.4860   41.1270 C   0  0  0  0  0  0  0  0  0  0  0  0
   53.7600   29.6890   39.9310 N   0  0  0  0  0  0  0  0  0  0  0  0
   53.3790   30.7560   39.2120 C   0  0  0  0  0  0  0  0  0  0  0  0
   52.4230   31.6090   39.6880 N   0  0  0  0  0  0  0  0  0  0  0  0
   43.5240   36.3234   44.6133 H   0  0  0  0  0  0  0  0  0  0  0  0
   46.0287   33.5355   46.5826 H   0  0  0  0  0  0  0  0  0  0  0  0
   44.3271   37.0909   42.3527 H   0  0  0  0  0  0  0  0  0  0  0  0
   45.4319   36.0206   41.4057 H   0  0  0  0  0  0  0  0  0  0  0  0
   44.4743   34.2755   39.8630 H   0  0  0  0  0  0  0  0  0  0  0  0
   40.1621   35.1829   41.8575 H   0  0  0  0  0  0  0  0  0  0  0  0
   49.7516   34.7941   43.2693 H   0  0  0  0  0  0  0  0  0  0  0  0
   51.8275   33.6303   42.8168 H   0  0  0  0  0  0  0  0  0  0  0  0
   51.7350   30.1381   42.6400 H   0  0  0  0  0  0  0  0  0  0  0  0
   53.4919   28.6118   41.7163 H   0  0  0  0  0  0  0  0  0  0  0  0
   53.8399   30.9457   38.2314 H   0  0  0  0  0  0  0  0  0  0  0  0
  1  6  2  0
  2  1  1  0
  3  2  2  0
  3  4  1  0
  4  5  2  0
  5  6  1  0
  7  2  1  0
  8 12  1  0
  8  7  1  0
  9  8  2  0
 10  9  1  0
 10 11  1  0
 11 12  2  0
 13 14  1  0
 13  3  1  0
 14 15  2  0
 16 15  1  0
 17 16  2  0
 18 17  1  0
 18 14  1  0
 19 17  1  0
 19 20  2  0
 21 20  1  0
 22 21  2  0
 23 24  2  0
 23 22  1  0
 24 19  1  0
  1 25  1  0
  5 26  1  0
  7 27  1  0
  7 28  1  0
  9 29  1  0
 11 30  1  0
 15 31  1  0
 16 32  1  0
 20 33  1  0
 21 34  1  0
 23 35  1  0
M  ISO  8  25  14  26  14  27   8  28   8  29  14  30  14  31  14  32  14
M  ISO  3  33  14  34  14  35  14
M  END
>  <minimizedAffinity>  (1) 
-5.33159828

>  <minimizedRMSD>  (1) 
0.445401043

$$$$
