
     RDKit          3D

 34 37  0  0  0  0  0  0  0  0999 V2000
   44.3190   35.6050   44.6010 C   0  0  0  0  0  0  0  0  0  0  0  0
   44.9770   35.3880   43.3840 C   0  0  0  0  0  0  0  0  0  0  0  0
   46.0290   34.4770   43.3650 C   0  0  0  0  0  0  0  0  0  0  0  0
   46.3510   33.8520   44.5390 N   0  0  0  0  0  0  0  0  0  0  0  0
   45.7090   34.0750   45.6880 C   0  0  0  0  0  0  0  0  0  0  0  0
   44.6960   34.9480   45.7230 N   0  0  0  0  0  0  0  0  0  0  0  0
   44.5780   36.0950   42.1540 C   0  0  0  0  0  0  0  0  0  0  0  0
   43.3940   35.4100   41.5010 C   0  0  0  0  0  0  0  0  0  0  0  0
   43.5700   34.6050   40.4090 C   0  0  0  0  0  0  0  0  0  0  0  0
   41.8760   34.0420   40.0210 S   0  0  0  0  0  0  0  0  0  0  0  0
   41.2000   35.0570   41.4930 C   0  0  0  0  0  0  0  0  0  0  0  0
   42.1590   35.5070   41.8850 N   0  0  0  0  0  0  0  0  0  0  0  0
   46.9270   34.1240   41.8990 S   0  0  0  0  0  0  0  0  0  0  0  0
   48.5350   33.7330   42.0010 C   0  0  0  0  0  0  0  0  0  0  0  0
   49.7580   34.1240   42.5340 C   0  0  0  0  0  0  0  0  0  0  0  0
   50.9250   33.4390   42.3330 C   0  0  0  0  0  0  0  0  0  0  0  0
   50.8420   32.2780   41.5360 C   0  0  0  0  0  0  0  0  0  0  0  0
   49.0300   32.1970   41.0810 S   0  0  0  0  0  0  0  0  0  0  0  0
   51.8230   31.3970   41.1610 N   0  0  0  0  0  0  0  0  0  0  0  0
   52.6010   31.6230   40.1070 N   0  0  0  0  0  0  0  0  0  0  0  0
   53.4780   30.6210   39.9460 C   0  0  0  0  0  0  0  0  0  0  0  0
   53.2220   29.7370   40.9520 C   0  0  0  0  0  0  0  0  0  0  0  0
   52.1780   30.2090   41.7330 C   0  0  0  0  0  0  0  0  0  0  0  0
   43.4839   36.3195   44.6459 H   0  0  0  0  0  0  0  0  0  0  0  0
   46.0117   33.5432   46.6021 H   0  0  0  0  0  0  0  0  0  0  0  0
   44.3025   37.1298   42.4058 H   0  0  0  0  0  0  0  0  0  0  0  0
   45.4238   36.0850   41.4507 H   0  0  0  0  0  0  0  0  0  0  0  0
   44.5070   34.3563   39.8892 H   0  0  0  0  0  0  0  0  0  0  0  0
   40.1679   35.1708   41.8560 H   0  0  0  0  0  0  0  0  0  0  0  0
   49.7890   35.0340   43.1512 H   0  0  0  0  0  0  0  0  0  0  0  0
   51.8770   33.7755   42.7694 H   0  0  0  0  0  0  0  0  0  0  0  0
   54.2458   30.5310   39.1634 H   0  0  0  0  0  0  0  0  0  0  0  0
   53.7616   28.7930   41.1187 H   0  0  0  0  0  0  0  0  0  0  0  0
   51.7335   29.7314   42.6186 H   0  0  0  0  0  0  0  0  0  0  0  0
  1  6  2  0
  2  1  1  0
  3  2  2  0
  3  4  1  0
  4  5  2  0
  5  6  1  0
  7  2  1  0
  8 12  1  0
  8  7  1  0
  9  8  2  0
 10  9  1  0
 10 11  1  0
 11 12  2  0
 13 14  1  0
 13  3  1  0
 14 15  2  0
 16 15  1  0
 17 16  2  0
 18 17  1  0
 18 14  1  0
 19 17  1  0
 19 23  1  0
 20 19  1  0
 21 20  2  0
 21 22  1  0
 22 23  2  0
  1 24  1  0
  5 25  1  0
  7 26  1  0
  7 27  1  0
  9 28  1  0
 11 29  1  0
 15 30  1  0
 16 31  1  0
 21 32  1  0
 22 33  1  0
 23 34  1  0
M  ISO  8  24  14  25  14  26   8  27   8  28  14  29  14  30  14  31  14
M  ISO  3  32  14  33  14  34  14
M  END
>  <minimizedAffinity>  (1) 
-5.28254414

>  <minimizedRMSD>  (1) 
0.262223661

$$$$
