
     RDKit          3D

 40 43  0  0  0  0  0  0  0  0999 V2000
   44.4570   35.4160   44.6740 C   0  0  0  0  0  0  0  0  0  0  0  0
   45.1090   35.3340   43.4310 C   0  0  0  0  0  0  0  0  0  0  0  0
   46.2120   34.4900   43.3440 C   0  0  0  0  0  0  0  0  0  0  0  0
   46.5900   33.8010   44.4550 N   0  0  0  0  0  0  0  0  0  0  0  0
   45.9510   33.8990   45.6240 C   0  0  0  0  0  0  0  0  0  0  0  0
   44.8860   34.7050   45.7350 N   0  0  0  0  0  0  0  0  0  0  0  0
   44.6500   36.1080   42.2530 C   0  0  0  0  0  0  0  0  0  0  0  0
   43.4950   35.4080   41.5730 C   0  0  0  0  0  0  0  0  0  0  0  0
   43.7150   34.5750   40.5070 C   0  0  0  0  0  0  0  0  0  0  0  0
   42.0410   33.9980   40.0600 S   0  0  0  0  0  0  0  0  0  0  0  0
   41.3030   35.0590   41.4900 C   0  0  0  0  0  0  0  0  0  0  0  0
   42.2420   35.5230   41.9140 N   0  0  0  0  0  0  0  0  0  0  0  0
   47.1080   34.3070   41.8380 S   0  0  0  0  0  0  0  0  0  0  0  0
   48.6660   33.7420   41.8930 C   0  0  0  0  0  0  0  0  0  0  0  0
   49.8910   33.8290   42.5400 C   0  0  0  0  0  0  0  0  0  0  0  0
   50.9930   33.1220   42.2220 C   0  0  0  0  0  0  0  0  0  0  0  0
   50.8750   32.2210   41.1360 C   0  0  0  0  0  0  0  0  0  0  0  0
   49.0850   32.4570   40.6060 S   0  0  0  0  0  0  0  0  0  0  0  0
   51.7570   31.3540   40.5300 N   0  0  0  0  0  0  0  0  0  0  0  0
   52.4100   30.2680   41.2670 C   0  0  0  0  0  0  0  0  0  0  0  0
   53.8750   30.1910   40.8730 C   0  0  0  0  0  0  0  0  0  0  0  0
   54.0460   30.0600   39.5150 O   0  0  0  0  0  0  0  0  0  0  0  0
   52.8400   30.0940   38.8210 C   0  0  0  0  0  0  0  0  0  0  0  0
   52.1390   31.4010   39.1320 C   0  0  0  0  0  0  0  0  0  0  0  0
   43.5810   36.0724   44.7822 H   0  0  0  0  0  0  0  0  0  0  0  0
   46.2978   33.3201   46.4927 H   0  0  0  0  0  0  0  0  0  0  0  0
   44.3251   37.1065   42.5808 H   0  0  0  0  0  0  0  0  0  0  0  0
   45.4824   36.1939   41.5390 H   0  0  0  0  0  0  0  0  0  0  0  0
   44.6731   34.3155   40.0330 H   0  0  0  0  0  0  0  0  0  0  0  0
   40.2563   35.1796   41.8061 H   0  0  0  0  0  0  0  0  0  0  0  0
   49.9684   34.5331   43.3816 H   0  0  0  0  0  0  0  0  0  0  0  0
   51.9354   33.2387   42.7772 H   0  0  0  0  0  0  0  0  0  0  0  0
   52.3314   30.4602   42.3472 H   0  0  0  0  0  0  0  0  0  0  0  0
   51.9168   29.3151   41.0247 H   0  0  0  0  0  0  0  0  0  0  0  0
   54.3791   31.1104   41.2055 H   0  0  0  0  0  0  0  0  0  0  0  0
   54.3051   29.2996   41.3529 H   0  0  0  0  0  0  0  0  0  0  0  0
   52.2077   29.2506   39.1355 H   0  0  0  0  0  0  0  0  0  0  0  0
   53.0267   30.0161   37.7398 H   0  0  0  0  0  0  0  0  0  0  0  0
   52.8198   32.2466   38.9545 H   0  0  0  0  0  0  0  0  0  0  0  0
   51.2575   31.5370   38.4882 H   0  0  0  0  0  0  0  0  0  0  0  0
  1  6  2  0
  2  1  1  0
  3  2  2  0
  3  4  1  0
  4  5  2  0
  5  6  1  0
  7  2  1  0
  8 12  1  0
  8  7  1  0
  9  8  2  0
 10  9  1  0
 10 11  1  0
 11 12  2  0
 13 14  1  0
 13  3  1  0
 14 15  2  0
 16 15  1  0
 17 16  2  0
 18 17  1  0
 18 14  1  0
 19 17  1  0
 19 20  1  0
 21 20  1  0
 22 21  1  0
 23 24  1  0
 23 22  1  0
 24 19  1  0
  1 25  1  0
  5 26  1  0
  7 27  1  0
  7 28  1  0
  9 29  1  0
 11 30  1  0
 15 31  1  0
 16 32  1  0
 20 33  1  0
 20 34  1  0
 21 35  1  0
 21 36  1  0
 23 37  1  0
 23 38  1  0
 24 39  1  0
 24 40  1  0
M  ISO  8  25  14  26  14  27   8  28   8  29  14  30  14  31  14  32  14
M  ISO  8  33  13  34  13  35  13  36  13  37  13  38  13  39  13  40  13
M  END
>  <minimizedAffinity>  (1) 
-5.2842021

>  <minimizedRMSD>  (1) 
0.443662047

$$$$
