
     RDKit          3D

 39 42  0  0  0  0  0  0  0  0999 V2000
   44.4870   35.3510   44.6860 C   0  0  0  0  0  0  0  0  0  0  0  0
   45.1330   35.3400   43.4510 C   0  0  0  0  0  0  0  0  0  0  0  0
   46.2780   34.5340   43.3190 C   0  0  0  0  0  0  0  0  0  0  0  0
   46.6760   33.8170   44.4170 N   0  0  0  0  0  0  0  0  0  0  0  0
   46.0330   33.8520   45.5820 C   0  0  0  0  0  0  0  0  0  0  0  0
   44.9400   34.6160   45.7190 N   0  0  0  0  0  0  0  0  0  0  0  0
   44.6500   36.1380   42.3110 C   0  0  0  0  0  0  0  0  0  0  0  0
   43.5100   35.4230   41.6000 C   0  0  0  0  0  0  0  0  0  0  0  0
   43.7570   34.5940   40.5340 C   0  0  0  0  0  0  0  0  0  0  0  0
   42.0900   34.0150   40.0740 S   0  0  0  0  0  0  0  0  0  0  0  0
   41.3240   35.0580   41.4820 C   0  0  0  0  0  0  0  0  0  0  0  0
   42.2510   35.5230   41.9180 N   0  0  0  0  0  0  0  0  0  0  0  0
   47.1740   34.4440   41.8100 S   0  0  0  0  0  0  0  0  0  0  0  0
   48.6820   33.7690   41.8140 C   0  0  0  0  0  0  0  0  0  0  0  0
   49.9120   33.7230   42.4510 C   0  0  0  0  0  0  0  0  0  0  0  0
   50.9510   32.9660   42.0850 C   0  0  0  0  0  0  0  0  0  0  0  0
   50.7730   32.1410   40.9450 C   0  0  0  0  0  0  0  0  0  0  0  0
   49.0030   32.5470   40.4560 S   0  0  0  0  0  0  0  0  0  0  0  0
   51.5890   31.2370   40.2630 N   0  0  0  0  0  0  0  0  0  0  0  0
   52.0170   31.1360   38.8690 C   0  0  0  0  0  0  0  0  0  0  0  0
   53.5350   31.1530   39.0800 C   0  0  0  0  0  0  0  0  0  0  0  0
   53.7280   30.4860   40.4470 C   0  0  0  0  0  0  0  0  0  0  0  0
   52.2970   30.0520   40.7770 C   0  0  0  0  0  0  0  0  0  0  0  0
   43.5893   35.9725   44.8193 H   0  0  0  0  0  0  0  0  0  0  0  0
   46.3979   33.2551   46.4308 H   0  0  0  0  0  0  0  0  0  0  0  0
   44.2932   37.1120   42.6771 H   0  0  0  0  0  0  0  0  0  0  0  0
   45.4781   36.2781   41.6006 H   0  0  0  0  0  0  0  0  0  0  0  0
   44.7224   34.3413   40.0713 H   0  0  0  0  0  0  0  0  0  0  0  0
   40.2717   35.1715   41.7817 H   0  0  0  0  0  0  0  0  0  0  0  0
   50.0447   34.3651   43.3343 H   0  0  0  0  0  0  0  0  0  0  0  0
   51.8996   32.9820   42.6417 H   0  0  0  0  0  0  0  0  0  0  0  0
   51.6746   31.9925   38.2697 H   0  0  0  0  0  0  0  0  0  0  0  0
   51.6267   30.2684   38.3169 H   0  0  0  0  0  0  0  0  0  0  0  0
   54.0457   30.5817   38.2908 H   0  0  0  0  0  0  0  0  0  0  0  0
   53.9560   32.1685   39.0417 H   0  0  0  0  0  0  0  0  0  0  0  0
   54.4053   29.6218   40.3808 H   0  0  0  0  0  0  0  0  0  0  0  0
   54.1857   31.1387   41.2049 H   0  0  0  0  0  0  0  0  0  0  0  0
   52.1441   29.9134   41.8575 H   0  0  0  0  0  0  0  0  0  0  0  0
   51.9808   29.0857   40.3573 H   0  0  0  0  0  0  0  0  0  0  0  0
  1  6  2  0
  2  1  1  0
  3  2  2  0
  3  4  1  0
  4  5  2  0
  5  6  1  0
  7  2  1  0
  8 12  1  0
  8  7  1  0
  9  8  2  0
 10  9  1  0
 10 11  1  0
 11 12  2  0
 13 14  1  0
 13  3  1  0
 14 15  2  0
 16 15  1  0
 17 16  2  0
 18 17  1  0
 18 14  1  0
 19 23  1  0
 19 17  1  0
 20 21  1  0
 20 19  1  0
 21 22  1  0
 22 23  1  0
  1 24  1  0
  5 25  1  0
  7 26  1  0
  7 27  1  0
  9 28  1  0
 11 29  1  0
 15 30  1  0
 16 31  1  0
 20 32  1  0
 20 33  1  0
 21 34  1  0
 21 35  1  0
 22 36  1  0
 22 37  1  0
 23 38  1  0
 23 39  1  0
M  ISO  8  24  14  25  14  26   8  27   8  28  14  29  14  30  14  31  14
M  ISO  8  32  13  33  13  34  13  35  13  36  13  37  13  38  13  39  13
M  END
>  <minimizedAffinity>  (1) 
-5.26249647

>  <minimizedRMSD>  (1) 
0.581555426

$$$$
