
     RDKit          3D

 29 31  0  0  0  0  0  0  0  0999 V2000
   44.3820   35.4870   44.6650 C   0  0  0  0  0  0  0  0  0  0  0  0
   45.0420   35.3570   43.4440 C   0  0  0  0  0  0  0  0  0  0  0  0
   46.1350   34.4940   43.3750 C   0  0  0  0  0  0  0  0  0  0  0  0
   46.4890   33.8310   44.5140 N   0  0  0  0  0  0  0  0  0  0  0  0
   45.8420   33.9710   45.6730 C   0  0  0  0  0  0  0  0  0  0  0  0
   44.7880   34.7990   45.7500 N   0  0  0  0  0  0  0  0  0  0  0  0
   44.6060   36.1070   42.2460 C   0  0  0  0  0  0  0  0  0  0  0  0
   43.4470   35.4110   41.5670 C   0  0  0  0  0  0  0  0  0  0  0  0
   43.6690   34.5900   40.4900 C   0  0  0  0  0  0  0  0  0  0  0  0
   41.9930   34.0120   40.0440 S   0  0  0  0  0  0  0  0  0  0  0  0
   41.2590   35.0460   41.4790 C   0  0  0  0  0  0  0  0  0  0  0  0
   42.2020   35.5160   41.9120 N   0  0  0  0  0  0  0  0  0  0  0  0
   47.0430   34.2500   41.8900 S   0  0  0  0  0  0  0  0  0  0  0  0
   48.6210   33.7680   41.9860 C   0  0  0  0  0  0  0  0  0  0  0  0
   49.8720   34.0310   42.5250 C   0  0  0  0  0  0  0  0  0  0  0  0
   50.9870   33.3110   42.3060 C   0  0  0  0  0  0  0  0  0  0  0  0
   50.8670   32.1890   41.4520 C   0  0  0  0  0  0  0  0  0  0  0  0
   49.0420   32.2470   40.9890 S   0  0  0  0  0  0  0  0  0  0  0  0
   51.7570   31.2050   40.9790 C   0  0  0  0  0  0  0  0  0  0  0  0
   52.6820   31.6680   40.2650 O   0  0  0  0  0  0  0  0  0  0  0  0
   43.5166   36.1615   44.7439 H   0  0  0  0  0  0  0  0  0  0  0  0
   46.1707   33.4107   46.5607 H   0  0  0  0  0  0  0  0  0  0  0  0
   44.2929   37.1174   42.5476 H   0  0  0  0  0  0  0  0  0  0  0  0
   45.4471   36.1610   41.5391 H   0  0  0  0  0  0  0  0  0  0  0  0
   44.6265   34.3396   40.0099 H   0  0  0  0  0  0  0  0  0  0  0  0
   40.2121   35.1561   41.7982 H   0  0  0  0  0  0  0  0  0  0  0  0
   49.9597   34.9037   43.1888 H   0  0  0  0  0  0  0  0  0  0  0  0
   51.9473   33.5818   42.7692 H   0  0  0  0  0  0  0  0  0  0  0  0
   51.6526   30.1350   41.2119 H   0  0  0  0  0  0  0  0  0  0  0  0
  1  6  2  0
  2  1  1  0
  3  2  2  0
  3  4  1  0
  4  5  2  0
  5  6  1  0
  7  2  1  0
  8 12  1  0
  8  7  1  0
  9  8  2  0
 10  9  1  0
 10 11  1  0
 11 12  2  0
 13 14  1  0
 13  3  1  0
 14 15  2  0
 16 15  1  0
 17 16  2  0
 18 17  1  0
 18 14  1  0
 19 17  1  0
 20 19  2  0
  1 21  1  0
  5 22  1  0
  7 23  1  0
  7 24  1  0
  9 25  1  0
 11 26  1  0
 15 27  1  0
 16 28  1  0
 19 29  1  0
M  ISO  8  21  14  22  14  23   8  24   8  25  14  26  14  27  14  28  14
M  ISO  1  29   6
M  END
>  <minimizedAffinity>  (1) 
-4.94854403

>  <minimizedRMSD>  (1) 
0.196513534

$$$$
