
     RDKit          3D

 33 35  0  0  0  0  0  0  0  0999 V2000
   44.3320   35.5890   44.5960 C   0  0  0  0  0  0  0  0  0  0  0  0
   44.9810   35.3820   43.3750 C   0  0  0  0  0  0  0  0  0  0  0  0
   46.0380   34.4710   43.3450 C   0  0  0  0  0  0  0  0  0  0  0  0
   46.3690   33.8440   44.5130 N   0  0  0  0  0  0  0  0  0  0  0  0
   45.7320   34.0590   45.6670 C   0  0  0  0  0  0  0  0  0  0  0  0
   44.7190   34.9260   45.7150 N   0  0  0  0  0  0  0  0  0  0  0  0
   44.5730   36.0940   42.1520 C   0  0  0  0  0  0  0  0  0  0  0  0
   43.3910   35.3970   41.4920 C   0  0  0  0  0  0  0  0  0  0  0  0
   43.5700   34.5830   40.4010 C   0  0  0  0  0  0  0  0  0  0  0  0
   41.8810   34.0210   40.0200 S   0  0  0  0  0  0  0  0  0  0  0  0
   41.1960   35.0430   41.4860 C   0  0  0  0  0  0  0  0  0  0  0  0
   42.1550   35.5120   41.8940 N   0  0  0  0  0  0  0  0  0  0  0  0
   46.9280   34.1300   41.8690 S   0  0  0  0  0  0  0  0  0  0  0  0
   48.5290   33.7360   41.9730 C   0  0  0  0  0  0  0  0  0  0  0  0
   49.7470   34.0290   42.5650 C   0  0  0  0  0  0  0  0  0  0  0  0
   50.9130   33.4030   42.3370 C   0  0  0  0  0  0  0  0  0  0  0  0
   50.8860   32.3500   41.4010 C   0  0  0  0  0  0  0  0  0  0  0  0
   49.0750   32.3230   40.8790 S   0  0  0  0  0  0  0  0  0  0  0  0
   51.8920   31.4460   40.8810 C   0  0  0  0  0  0  0  0  0  0  0  0
   51.8270   31.3430   39.3520 C   0  0  0  0  0  0  0  0  0  0  0  0
   43.4947   36.3003   44.6504 H   0  0  0  0  0  0  0  0  0  0  0  0
   46.0418   33.5225   46.5759 H   0  0  0  0  0  0  0  0  0  0  0  0
   44.2857   37.1234   42.4124 H   0  0  0  0  0  0  0  0  0  0  0  0
   45.4181   36.1000   41.4478 H   0  0  0  0  0  0  0  0  0  0  0  0
   44.5070   34.3314   39.8827 H   0  0  0  0  0  0  0  0  0  0  0  0
   40.1600   35.1500   41.8400 H   0  0  0  0  0  0  0  0  0  0  0  0
   49.7601   34.8543   43.2921 H   0  0  0  0  0  0  0  0  0  0  0  0
   51.8391   33.6964   42.8530 H   0  0  0  0  0  0  0  0  0  0  0  0
   52.8868   31.8148   41.1714 H   0  0  0  0  0  0  0  0  0  0  0  0
   51.7040   30.4465   41.3001 H   0  0  0  0  0  0  0  0  0  0  0  0
   51.2597   30.4441   39.0688 H   0  0  0  0  0  0  0  0  0  0  0  0
   51.3278   32.2348   38.9453 H   0  0  0  0  0  0  0  0  0  0  0  0
   52.8469   31.2762   38.9453 H   0  0  0  0  0  0  0  0  0  0  0  0
  1  6  2  0
  2  1  1  0
  3  2  2  0
  3  4  1  0
  4  5  2  0
  5  6  1  0
  7  2  1  0
  8 12  1  0
  8  7  1  0
  9  8  2  0
 10  9  1  0
 10 11  1  0
 11 12  2  0
 13 14  1  0
 13  3  1  0
 14 15  2  0
 16 15  1  0
 17 16  2  0
 18 17  1  0
 18 14  1  0
 19 17  1  0
 20 19  1  0
  1 21  1  0
  5 22  1  0
  7 23  1  0
  7 24  1  0
  9 25  1  0
 11 26  1  0
 15 27  1  0
 16 28  1  0
 19 29  1  0
 19 30  1  0
 20 31  1  0
 20 32  1  0
 20 33  1  0
M  ISO  8  21  14  22  14  23   8  24   8  25  14  26  14  27  14  28  14
M  ISO  5  29   8  30   8  31   8  32   8  33   8
M  END
>  <minimizedAffinity>  (1) 
-4.92218637

>  <minimizedRMSD>  (1) 
0.0947173312

$$$$
