
     RDKit          3D

 32 33  0  0  0  0  0  0  0  0999 V2000
   45.6450   35.0880   42.9090 C   0  0  0  0  0  0  0  0  0  0  0  0
   45.0860   34.5540   45.2810 C   0  0  0  0  0  0  0  0  0  0  0  0
   45.8920   34.2850   44.1510 C   0  0  0  0  0  0  0  0  0  0  0  0
   46.8730   33.2850   44.2640 C   0  0  0  0  0  0  0  0  0  0  0  0
   46.9910   32.6330   45.4490 N   0  0  0  0  0  0  0  0  0  0  0  0
   46.2050   32.9150   46.5070 C   0  0  0  0  0  0  0  0  0  0  0  0
   45.2520   33.8770   46.4170 N   0  0  0  0  0  0  0  0  0  0  0  0
   46.8960   35.1700   42.1010 C   0  0  0  0  0  0  0  0  0  0  0  0
   45.1650   36.4500   43.3090 C   0  0  0  0  0  0  0  0  0  0  0  0
   44.5090   34.4220   42.1440 C   0  0  0  0  0  0  0  0  0  0  0  0
   43.4700   35.3020   42.0220 O   0  0  0  0  0  0  0  0  0  0  0  0
   42.4920   35.3320   41.0370 C   0  0  0  0  0  0  0  0  0  0  0  0
   41.2250   35.7440   41.4690 C   0  0  0  0  0  0  0  0  0  0  0  0
   40.1730   35.8060   40.5520 C   0  0  0  0  0  0  0  0  0  0  0  0
   40.4540   35.4490   39.2390 C   0  0  0  0  0  0  0  0  0  0  0  0
   41.7080   35.0450   38.8270 C   0  0  0  0  0  0  0  0  0  0  0  0
   42.6930   34.9970   39.7380 N   0  0  0  0  0  0  0  0  0  0  0  0
   44.3113   35.3327   45.2218 H   0  0  0  0  0  0  0  0  0  0  0  0
   47.5275   33.0373   43.4153 H   0  0  0  0  0  0  0  0  0  0  0  0
   46.3367   32.3622   47.4488 H   0  0  0  0  0  0  0  0  0  0  0  0
   47.7642   35.2269   42.7741 H   0  0  0  0  0  0  0  0  0  0  0  0
   46.9820   34.2756   41.4665 H   0  0  0  0  0  0  0  0  0  0  0  0
   46.8645   36.0680   41.4665 H   0  0  0  0  0  0  0  0  0  0  0  0
   45.1396   36.5222   44.4063 H   0  0  0  0  0  0  0  0  0  0  0  0
   45.8486   37.2124   42.9071 H   0  0  0  0  0  0  0  0  0  0  0  0
   44.1545   36.6153   42.9071 H   0  0  0  0  0  0  0  0  0  0  0  0
   44.8616   34.1287   41.1442 H   0  0  0  0  0  0  0  0  0  0  0  0
   44.1725   33.5275   42.6886 H   0  0  0  0  0  0  0  0  0  0  0  0
   41.0596   36.0165   42.5218 H   0  0  0  0  0  0  0  0  0  0  0  0
   39.1649   36.1240   40.8565 H   0  0  0  0  0  0  0  0  0  0  0  0
   39.6432   35.4900   38.4967 H   0  0  0  0  0  0  0  0  0  0  0  0
   41.8955   34.7693   37.7787 H   0  0  0  0  0  0  0  0  0  0  0  0
  1  9  1  0
  1  3  1  0
  2  7  2  0
  3  4  2  0
  3  2  1  0
  4  5  1  0
  5  6  2  0
  7  6  1  0
  8  1  1  0
 10  1  1  0
 11 10  1  0
 12 13  2  0
 12 11  1  0
 14 13  1  0
 15 14  2  0
 16 15  1  0
 16 17  2  0
 17 12  1  0
  2 18  1  0
  4 19  1  0
  6 20  1  0
  8 21  1  0
  8 22  1  0
  8 23  1  0
  9 24  1  0
  9 25  1  0
  9 26  1  0
 10 27  1  0
 10 28  1  0
 13 29  1  0
 14 30  1  0
 15 31  1  0
 16 32  1  0
M  ISO  8  18  14  19  14  20  14  21   8  22   8  23   8  24   8  25   8
M  ISO  7  26   8  27   8  28   8  29  14  30  14  31  14  32  14
M  END
>  <minimizedAffinity>  (1) 
-5.19564581

>  <minimizedRMSD>  (1) 
1.5337311

$$$$
