
     RDKit          3D

 33 35  0  0  0  0  0  0  0  0999 V2000
   44.3880   35.4820   44.6570 C   0  0  0  0  0  0  0  0  0  0  0  0
   45.0440   35.3500   43.4300 C   0  0  0  0  0  0  0  0  0  0  0  0
   46.1390   34.4810   43.3680 C   0  0  0  0  0  0  0  0  0  0  0  0
   46.4890   33.8260   44.5010 N   0  0  0  0  0  0  0  0  0  0  0  0
   45.8480   33.9650   45.6690 C   0  0  0  0  0  0  0  0  0  0  0  0
   44.7960   34.7930   45.7480 N   0  0  0  0  0  0  0  0  0  0  0  0
   44.6190   36.0940   42.2140 C   0  0  0  0  0  0  0  0  0  0  0  0
   43.4570   35.3980   41.5420 C   0  0  0  0  0  0  0  0  0  0  0  0
   43.6660   34.5630   40.4730 C   0  0  0  0  0  0  0  0  0  0  0  0
   41.9890   33.9930   40.0430 S   0  0  0  0  0  0  0  0  0  0  0  0
   41.2630   35.0520   41.4770 C   0  0  0  0  0  0  0  0  0  0  0  0
   42.2110   35.5150   41.8950 N   0  0  0  0  0  0  0  0  0  0  0  0
   47.0480   34.2240   41.8900 S   0  0  0  0  0  0  0  0  0  0  0  0
   48.6440   33.7760   41.9910 C   0  0  0  0  0  0  0  0  0  0  0  0
   49.8880   34.0740   42.5140 C   0  0  0  0  0  0  0  0  0  0  0  0
   51.0000   33.3600   42.3080 C   0  0  0  0  0  0  0  0  0  0  0  0
   50.8890   32.2220   41.4950 C   0  0  0  0  0  0  0  0  0  0  0  0
   49.0830   32.2300   41.0370 S   0  0  0  0  0  0  0  0  0  0  0  0
   51.8170   31.2560   41.0640 C   0  0  0  0  0  0  0  0  0  0  0  0
   51.8930   30.1420   41.6540 O   0  0  0  0  0  0  0  0  0  0  0  0
   52.5950   31.6160   39.9980 O   0  0  0  0  0  0  0  0  0  0  0  0
   52.0940   31.4850   38.6860 C   0  0  0  0  0  0  0  0  0  0  0  0
   51.4630   30.4480   38.3650 O   0  0  0  0  0  0  0  0  0  0  0  0
   52.2860   32.4800   37.7380 O   0  0  0  0  0  0  0  0  0  0  0  0
   43.5242   36.1583   44.7374 H   0  0  0  0  0  0  0  0  0  0  0  0
   46.1815   33.4051   46.5552 H   0  0  0  0  0  0  0  0  0  0  0  0
   44.3140   37.1112   42.5009 H   0  0  0  0  0  0  0  0  0  0  0  0
   45.4632   36.1337   41.5100 H   0  0  0  0  0  0  0  0  0  0  0  0
   44.6190   34.3003   39.9905 H   0  0  0  0  0  0  0  0  0  0  0  0
   40.2190   35.1744   41.8013 H   0  0  0  0  0  0  0  0  0  0  0  0
   49.9700   34.9682   43.1493 H   0  0  0  0  0  0  0  0  0  0  0  0
   51.9607   33.6526   42.7569 H   0  0  0  0  0  0  0  0  0  0  0  0
   51.9259   32.3678   36.8227 H   0  0  0  0  0  0  0  0  0  0  0  0
  1  6  2  0
  2  1  1  0
  3  2  2  0
  3  4  1  0
  4  5  2  0
  5  6  1  0
  7  2  1  0
  8 12  1  0
  8  7  1  0
  9  8  2  0
 10  9  1  0
 10 11  1  0
 11 12  2  0
 13 14  1  0
 13  3  1  0
 14 15  2  0
 16 15  1  0
 17 16  2  0
 18 17  1  0
 18 14  1  0
 19 17  1  0
 19 20  2  0
 21 19  1  0
 22 21  1  0
 23 22  2  0
 24 22  1  0
  1 25  1  0
  5 26  1  0
  7 27  1  0
  7 28  1  0
  9 29  1  0
 11 30  1  0
 15 31  1  0
 16 32  1  0
 24 33  1  0
M  ISO  8  25  14  26  14  27   8  28   8  29  14  30  14  31  14  32  14
M  ISO  1  33   3
M  END
>  <minimizedAffinity>  (1) 
-5.43497181

>  <minimizedRMSD>  (1) 
1.09401941

$$$$
