
     RDKit          3D

 33 35  0  0  0  0  0  0  0  0999 V2000
   44.4440   35.4110   44.6700 C   0  0  0  0  0  0  0  0  0  0  0  0
   45.1110   35.3290   43.4430 C   0  0  0  0  0  0  0  0  0  0  0  0
   46.2250   34.5030   43.3560 C   0  0  0  0  0  0  0  0  0  0  0  0
   46.5930   33.8290   44.4690 N   0  0  0  0  0  0  0  0  0  0  0  0
   45.9470   33.9140   45.6410 C   0  0  0  0  0  0  0  0  0  0  0  0
   44.8680   34.7110   45.7360 N   0  0  0  0  0  0  0  0  0  0  0  0
   44.6640   36.0930   42.2490 C   0  0  0  0  0  0  0  0  0  0  0  0
   43.5150   35.4090   41.5640 C   0  0  0  0  0  0  0  0  0  0  0  0
   43.7380   34.5680   40.4970 C   0  0  0  0  0  0  0  0  0  0  0  0
   42.0640   34.0100   40.0410 S   0  0  0  0  0  0  0  0  0  0  0  0
   41.3230   35.0800   41.4620 C   0  0  0  0  0  0  0  0  0  0  0  0
   42.2670   35.5390   41.8950 N   0  0  0  0  0  0  0  0  0  0  0  0
   47.1440   34.3130   41.8810 S   0  0  0  0  0  0  0  0  0  0  0  0
   48.7190   33.7920   41.9630 C   0  0  0  0  0  0  0  0  0  0  0  0
   49.9770   34.0260   42.4860 C   0  0  0  0  0  0  0  0  0  0  0  0
   51.0560   33.2710   42.2560 C   0  0  0  0  0  0  0  0  0  0  0  0
   50.8940   32.1570   41.4210 C   0  0  0  0  0  0  0  0  0  0  0  0
   49.0910   32.2490   40.9740 S   0  0  0  0  0  0  0  0  0  0  0  0
   51.7800   31.1630   40.9650 C   0  0  0  0  0  0  0  0  0  0  0  0
   51.5570   29.9490   41.2250 O   0  0  0  0  0  0  0  0  0  0  0  0
   52.8550   31.6070   40.2460 O   0  0  0  0  0  0  0  0  0  0  0  0
   52.9350   31.3070   38.8420 C   0  0  0  0  0  0  0  0  0  0  0  0
   52.8750   29.9630   38.5880 F   0  0  0  0  0  0  0  0  0  0  0  0
   54.0750   31.9100   38.3010 F   0  0  0  0  0  0  0  0  0  0  0  0
   51.8490   31.9460   38.2650 F   0  0  0  0  0  0  0  0  0  0  0  0
   43.5594   36.0580   44.7636 H   0  0  0  0  0  0  0  0  0  0  0  0
   46.2948   33.3399   46.5125 H   0  0  0  0  0  0  0  0  0  0  0  0
   44.3467   37.0979   42.5644 H   0  0  0  0  0  0  0  0  0  0  0  0
   45.5038   36.1552   41.5413 H   0  0  0  0  0  0  0  0  0  0  0  0
   44.6971   34.2976   40.0312 H   0  0  0  0  0  0  0  0  0  0  0  0
   40.2748   35.2102   41.7690 H   0  0  0  0  0  0  0  0  0  0  0  0
   50.0996   34.9006   43.1418 H   0  0  0  0  0  0  0  0  0  0  0  0
   52.0309   33.5141   42.7037 H   0  0  0  0  0  0  0  0  0  0  0  0
  1  6  2  0
  2  1  1  0
  3  2  2  0
  3  4  1  0
  4  5  2  0
  5  6  1  0
  7  2  1  0
  8 12  1  0
  8  7  1  0
  9  8  2  0
 10  9  1  0
 10 11  1  0
 11 12  2  0
 13 14  1  0
 13  3  1  0
 14 15  2  0
 16 15  1  0
 17 16  2  0
 18 17  1  0
 18 14  1  0
 19 20  2  0
 19 17  1  0
 21 19  1  0
 22 21  1  0
 23 22  1  0
 24 22  1  0
 25 22  1  0
  1 26  1  0
  5 27  1  0
  7 28  1  0
  7 29  1  0
  9 30  1  0
 11 31  1  0
 15 32  1  0
 16 33  1  0
M  ISO  8  26  14  27  14  28   8  29   8  30  14  31  14  32  14  33  14
M  END
>  <minimizedAffinity>  (1) 
-5.23431396

>  <minimizedRMSD>  (1) 
0.944485068

$$$$
