
     RDKit          3D

 42 45  0  0  1  0  0  0  0  0999 V2000
   44.3480   35.4800   44.6920 C   0  0  0  0  0  0  0  0  0  0  0  0
   45.0120   35.4010   43.4550 C   0  0  0  0  0  0  0  0  0  0  0  0
   46.1350   34.5660   43.3890 C   0  0  0  0  0  0  0  0  0  0  0  0
   46.5030   33.8990   44.5050 N   0  0  0  0  0  0  0  0  0  0  0  0
   45.8580   33.9860   45.6750 C   0  0  0  0  0  0  0  0  0  0  0  0
   44.7780   34.7780   45.7710 N   0  0  0  0  0  0  0  0  0  0  0  0
   44.5590   36.1570   42.2690 C   0  0  0  0  0  0  0  0  0  0  0  0
   43.4260   35.4420   41.5790 C   0  0  0  0  0  0  0  0  0  0  0  0
   43.6740   34.6200   40.5080 C   0  0  0  0  0  0  0  0  0  0  0  0
   42.0140   34.0140   40.0480 S   0  0  0  0  0  0  0  0  0  0  0  0
   41.2420   35.0450   41.4760 C   0  0  0  0  0  0  0  0  0  0  0  0
   42.1760   35.5330   41.9180 N   0  0  0  0  0  0  0  0  0  0  0  0
   47.0520   34.3810   41.8990 S   0  0  0  0  0  0  0  0  0  0  0  0
   48.6220   33.8480   41.9840 C   0  0  0  0  0  0  0  0  0  0  0  0
   49.8830   34.0710   42.5040 C   0  0  0  0  0  0  0  0  0  0  0  0
   50.9530   33.3010   42.2810 C   0  0  0  0  0  0  0  0  0  0  0  0
   50.7750   32.1800   41.4570 C   0  0  0  0  0  0  0  0  0  0  0  0
   48.9700   32.2910   41.0110 S   0  0  0  0  0  0  0  0  0  0  0  0
   51.6490   31.1710   41.0090 C   0  0  0  0  0  0  0  0  0  0  0  0
   51.3610   29.9550   41.2020 O   0  0  0  0  0  0  0  0  0  0  0  0
   52.7830   31.6070   40.3770 O   0  0  0  0  0  0  0  0  0  0  0  0
   53.8350   31.8650   38.2750 N   0  0  0  0  0  0  0  0  0  0  0  0
   54.5570   31.0030   37.3690 C   0  0  0  0  0  0  0  0  0  0  0  0
   55.1280   29.8810   38.2340 C   0  0  0  0  0  0  0  0  0  0  0  0
   54.4200   30.0500   39.5750 C   0  0  0  0  0  0  0  0  0  0  0  0
   53.2490   30.9010   39.2130 C   0  0  1  0  0  0  0  0  0  0  0  0
   43.4615   36.1243   44.7871 H   0  0  0  0  0  0  0  0  0  0  0  0
   46.2088   33.4153   46.5475 H   0  0  0  0  0  0  0  0  0  0  0  0
   44.2170   37.1534   42.5855 H   0  0  0  0  0  0  0  0  0  0  0  0
   45.3999   36.2462   41.5655 H   0  0  0  0  0  0  0  0  0  0  0  0
   44.6406   34.3832   40.0394 H   0  0  0  0  0  0  0  0  0  0  0  0
   40.1899   35.1392   41.7831 H   0  0  0  0  0  0  0  0  0  0  0  0
   50.0166   34.9501   43.1515 H   0  0  0  0  0  0  0  0  0  0  0  0
   51.9315   33.5366   42.7249 H   0  0  0  0  0  0  0  0  0  0  0  0
   53.1048   32.3984   37.7818 H   0  0  0  0  0  0  0  0  0  0  0  0
   55.3686   31.5582   36.8760 H   0  0  0  0  0  0  0  0  0  0  0  0
   53.9050   30.6116   36.5742 H   0  0  0  0  0  0  0  0  0  0  0  0
   54.9046   28.8973   37.7954 H   0  0  0  0  0  0  0  0  0  0  0  0
   56.2231   29.9326   38.3246 H   0  0  0  0  0  0  0  0  0  0  0  0
   54.0969   29.0795   39.9797 H   0  0  0  0  0  0  0  0  0  0  0  0
   55.0575   30.4885   40.3568 H   0  0  0  0  0  0  0  0  0  0  0  0
   52.4003   30.3314   38.8064 H   0  0  0  0  0  0  0  0  0  0  0  0
  1  6  2  0
  2  1  1  0
  3  2  2  0
  3  4  1  0
  4  5  2  0
  5  6  1  0
  7  2  1  0
  8 12  1  0
  8  7  1  0
  9  8  2  0
 10  9  1  0
 10 11  1  0
 11 12  2  0
 13 14  1  0
 13  3  1  0
 14 15  2  0
 16 15  1  0
 17 16  2  0
 18 17  1  0
 18 14  1  0
 19 20  2  0
 19 17  1  0
 21 19  1  0
 22 26  1  0
 23 24  1  0
 23 22  1  0
 24 25  1  0
 26 25  1  0
 26 21  1  0
  1 27  1  0
  5 28  1  0
  7 29  1  0
  7 30  1  0
  9 31  1  0
 11 32  1  0
 15 33  1  0
 16 34  1  0
 22 35  1  0
 23 36  1  0
 23 37  1  0
 24 38  1  0
 24 39  1  0
 25 40  1  0
 25 41  1  0
 26 42  1  6
M  ISO  8  27  14  28  14  29   8  30   8  31  14  32  14  33  14  34  14
M  ISO  8  35   5  36  13  37  13  38  13  39  13  40  13  41  13  42  13
M  END
>  <minimizedAffinity>  (1) 
-5.52677345

>  <minimizedRMSD>  (1) 
0.798283398

$$$$
