
     RDKit          3D

 37 40  0  0  0  0  0  0  0  0999 V2000
   44.3710   35.4910   44.6730 C   0  0  0  0  0  0  0  0  0  0  0  0
   45.0330   35.3590   43.4400 C   0  0  0  0  0  0  0  0  0  0  0  0
   46.1250   34.4930   43.3800 C   0  0  0  0  0  0  0  0  0  0  0  0
   46.4730   33.8410   44.5100 N   0  0  0  0  0  0  0  0  0  0  0  0
   45.8320   33.9770   45.6770 C   0  0  0  0  0  0  0  0  0  0  0  0
   44.7800   34.8010   45.7610 N   0  0  0  0  0  0  0  0  0  0  0  0
   44.6010   36.1060   42.2280 C   0  0  0  0  0  0  0  0  0  0  0  0
   43.4430   35.4130   41.5580 C   0  0  0  0  0  0  0  0  0  0  0  0
   43.6600   34.5850   40.4800 C   0  0  0  0  0  0  0  0  0  0  0  0
   41.9840   34.0030   40.0400 S   0  0  0  0  0  0  0  0  0  0  0  0
   41.2520   35.0540   41.4870 C   0  0  0  0  0  0  0  0  0  0  0  0
   42.1980   35.5160   41.9030 N   0  0  0  0  0  0  0  0  0  0  0  0
   47.0330   34.2450   41.8960 S   0  0  0  0  0  0  0  0  0  0  0  0
   48.6260   33.7910   42.0000 C   0  0  0  0  0  0  0  0  0  0  0  0
   49.8810   34.1030   42.4880 C   0  0  0  0  0  0  0  0  0  0  0  0
   50.9820   33.3670   42.3070 C   0  0  0  0  0  0  0  0  0  0  0  0
   50.8570   32.1850   41.5610 C   0  0  0  0  0  0  0  0  0  0  0  0
   49.0380   32.1880   41.1280 S   0  0  0  0  0  0  0  0  0  0  0  0
   51.7630   31.1860   41.1700 C   0  0  0  0  0  0  0  0  0  0  0  0
   51.6790   30.0330   41.6320 O   0  0  0  0  0  0  0  0  0  0  0  0
   52.7130   31.5790   40.2690 O   0  0  0  0  0  0  0  0  0  0  0  0
   52.7710   30.9620   38.9750 C   0  0  0  0  0  0  0  0  0  0  0  0
   53.8700   31.5380   38.1090 C   0  0  0  0  0  0  0  0  0  0  0  0
   52.3990   31.7340   37.7760 C   0  0  0  0  0  0  0  0  0  0  0  0
   43.5065   36.1664   44.7537 H   0  0  0  0  0  0  0  0  0  0  0  0
   46.1673   33.4154   46.5614 H   0  0  0  0  0  0  0  0  0  0  0  0
   44.2939   37.1211   42.5202 H   0  0  0  0  0  0  0  0  0  0  0  0
   45.4430   36.1496   41.5215 H   0  0  0  0  0  0  0  0  0  0  0  0
   44.6159   34.3331   39.9975 H   0  0  0  0  0  0  0  0  0  0  0  0
   40.2084   35.1706   41.8146 H   0  0  0  0  0  0  0  0  0  0  0  0
   49.9816   35.0301   43.0713 H   0  0  0  0  0  0  0  0  0  0  0  0
   51.9503   33.6764   42.7273 H   0  0  0  0  0  0  0  0  0  0  0  0
   52.4498   29.9730   39.3337 H   0  0  0  0  0  0  0  0  0  0  0  0
   54.4751   32.3831   38.4690 H   0  0  0  0  0  0  0  0  0  0  0  0
   54.7511   31.1400   37.5845 H   0  0  0  0  0  0  0  0  0  0  0  0
   51.9401   32.7278   37.8845 H   0  0  0  0  0  0  0  0  0  0  0  0
   51.7727   31.5383   36.8931 H   0  0  0  0  0  0  0  0  0  0  0  0
  1  6  2  0
  2  1  1  0
  3  2  2  0
  3  4  1  0
  4  5  2  0
  5  6  1  0
  7  2  1  0
  8 12  1  0
  8  7  1  0
  9  8  2  0
 10  9  1  0
 10 11  1  0
 11 12  2  0
 13 14  1  0
 13  3  1  0
 14 15  2  0
 16 15  1  0
 17 16  2  0
 18 17  1  0
 18 14  1  0
 19 17  1  0
 19 20  2  0
 21 19  1  0
 22 21  1  0
 23 22  1  0
 24 23  1  0
 24 22  1  0
  1 25  1  0
  5 26  1  0
  7 27  1  0
  7 28  1  0
  9 29  1  0
 11 30  1  0
 15 31  1  0
 16 32  1  0
 22 33  1  0
 23 34  1  0
 23 35  1  0
 24 36  1  0
 24 37  1  0
M  ISO  8  25  14  26  14  27   8  28   8  29  14  30  14  31  14  32  14
M  ISO  5  33  13  34  13  35  13  36  13  37  13
M  END
>  <minimizedAffinity>  (1) 
-5.22140408

>  <minimizedRMSD>  (1) 
0.763313115

$$$$
