
     RDKit          3D

 31 33  0  0  1  0  0  0  0  0999 V2000
   45.9940   33.5520   45.4100 C   0  0  2  0  0  0  0  0  0  0  0  0
   45.0420   34.7270   45.8320 C   0  0  0  0  0  0  0  0  0  0  0  0
   44.5310   35.6060   44.8230 C   0  0  0  0  0  0  0  0  0  0  0  0
   44.8800   35.3880   43.4290 C   0  0  0  0  0  0  0  0  0  0  0  0
   45.9650   34.4490   43.1950 C   0  0  0  0  0  0  0  0  0  0  0  0
   45.8670   33.2050   44.0380 C   0  0  0  0  0  0  0  0  0  0  0  0
   45.1390   32.7690   47.5580 C   0  0  0  0  0  0  0  0  0  0  0  0
   45.9310   32.5170   46.4330 C   0  0  0  0  0  0  0  0  0  0  0  0
   46.5490   31.2440   46.2750 C   0  0  0  0  0  0  0  0  0  0  0  0
   46.3210   30.3210   47.2720 N   0  0  0  0  0  0  0  0  0  0  0  0
   45.5520   30.5810   48.3600 C   0  0  0  0  0  0  0  0  0  0  0  0
   44.9660   31.7970   48.4990 N   0  0  0  0  0  0  0  0  0  0  0  0
   47.5190   30.7090   45.3820 C   0  0  0  0  0  0  0  0  0  0  0  0
   47.9270   30.7730   44.0710 C   0  0  0  0  0  0  0  0  0  0  0  0
   48.9960   29.9940   43.7390 C   0  0  0  0  0  0  0  0  0  0  0  0
   49.2410   29.4250   44.9630 C   0  0  0  0  0  0  0  0  0  0  0  0
   48.4170   29.8330   45.8490 O   0  0  0  0  0  0  0  0  0  0  0  0
   47.0534   33.8479   45.4021 H   0  0  0  0  0  0  0  0  0  0  0  0
   44.7711   34.8732   46.8881 H   0  0  0  0  0  0  0  0  0  0  0  0
   43.8758   36.4442   45.1026 H   0  0  0  0  0  0  0  0  0  0  0  0
   43.9865   35.0093   42.9111 H   0  0  0  0  0  0  0  0  0  0  0  0
   45.2337   36.3585   43.0508 H   0  0  0  0  0  0  0  0  0  0  0  0
   45.9500   34.1549   42.1352 H   0  0  0  0  0  0  0  0  0  0  0  0
   46.9011   34.9568   43.4704 H   0  0  0  0  0  0  0  0  0  0  0  0
   44.8921   32.7240   43.8701 H   0  0  0  0  0  0  0  0  0  0  0  0
   46.6719   32.5088   43.7596 H   0  0  0  0  0  0  0  0  0  0  0  0
   44.6565   33.7495   47.6836 H   0  0  0  0  0  0  0  0  0  0  0  0
   45.4041   29.8072   49.1277 H   0  0  0  0  0  0  0  0  0  0  0  0
   47.4216   31.4141   43.3338 H   0  0  0  0  0  0  0  0  0  0  0  0
   49.5096   29.8613   42.7754 H   0  0  0  0  0  0  0  0  0  0  0  0
   50.0492   28.7047   45.1576 H   0  0  0  0  0  0  0  0  0  0  0  0
  1  2  1  0
  1  8  1  0
  3  2  2  0
  4  3  1  0
  5  4  1  0
  5  6  1  0
  6  1  1  0
  7 12  2  0
  8  7  1  0
  9  8  2  0
  9 10  1  0
 10 11  2  0
 11 12  1  0
 13 17  1  0
 13  9  1  0
 14 13  2  0
 15 14  1  0
 15 16  2  0
 16 17  1  0
  1 18  1  6
  2 19  1  0
  3 20  1  0
  4 21  1  0
  4 22  1  0
  5 23  1  0
  5 24  1  0
  6 25  1  0
  6 26  1  0
  7 27  1  0
 11 28  1  0
 14 29  1  0
 15 30  1  0
 16 31  1  0
M  ISO  8  18  13  19  13  20  13  21  13  22  13  23  13  24  13  25  13
M  ISO  6  26  13  27  14  28  14  29  14  30  14  31  14
M  END
>  <minimizedAffinity>  (1) 
-4.41905212

>  <minimizedRMSD>  (1) 
1.14409471

$$$$
