
     RDKit          3D

 37 40  0  0  1  0  0  0  0  0999 V2000
   45.8520   32.7310   46.7630 C   0  0  0  0  0  0  0  0  0  0  0  0
   45.9610   32.7110   45.3800 C   0  0  0  0  0  0  0  0  0  0  0  0
   46.1020   31.4500   44.7340 C   0  0  0  0  0  0  0  0  0  0  0  0
   46.1310   30.3060   45.4740 N   0  0  0  0  0  0  0  0  0  0  0  0
   46.0220   30.3780   46.8340 C   0  0  0  0  0  0  0  0  0  0  0  0
   45.8840   31.5770   47.4630 N   0  0  0  0  0  0  0  0  0  0  0  0
   45.8930   33.9290   44.6220 C   0  0  2  0  0  0  0  0  0  0  0  0
   44.9500   34.9300   45.3920 C   0  0  0  0  0  0  0  0  0  0  0  0
   44.5480   36.1020   44.6590 C   0  0  0  0  0  0  0  0  0  0  0  0
   44.9930   36.2940   43.2740 C   0  0  0  0  0  0  0  0  0  0  0  0
   45.9350   35.3230   42.7120 C   0  0  0  0  0  0  0  0  0  0  0  0
   45.6100   33.9260   43.2150 C   0  0  0  0  0  0  0  0  0  0  0  0
   46.2420   31.0700   43.3800 N   0  0  0  0  0  0  0  0  0  0  0  0
   45.4900   30.5470   42.3870 C   0  0  0  0  0  0  0  0  0  0  0  0
   46.2160   30.3880   41.2720 N   0  0  0  0  0  0  0  0  0  0  0  0
   47.4780   30.7970   41.4780 C   0  0  0  0  0  0  0  0  0  0  0  0
   48.5760   30.8310   40.6480 C   0  0  0  0  0  0  0  0  0  0  0  0
   49.7310   31.3080   41.1570 N   0  0  0  0  0  0  0  0  0  0  0  0
   49.7720   31.7270   42.4340 C   0  0  0  0  0  0  0  0  0  0  0  0
   48.6890   31.6870   43.2270 N   0  0  0  0  0  0  0  0  0  0  0  0
   47.4810   31.2220   42.8020 C   0  0  0  0  0  0  0  0  0  0  0  0
   48.4210   30.3560   39.2960 N   0  0  0  0  0  0  0  0  0  0  0  0
   45.7392   33.6896   47.2905 H   0  0  0  0  0  0  0  0  0  0  0  0
   46.0461   29.4533   47.4293 H   0  0  0  0  0  0  0  0  0  0  0  0
   46.9491   34.2326   44.5712 H   0  0  0  0  0  0  0  0  0  0  0  0
   44.6197   34.7447   46.4248 H   0  0  0  0  0  0  0  0  0  0  0  0
   43.9057   36.8554   45.1384 H   0  0  0  0  0  0  0  0  0  0  0  0
   44.0955   36.2844   42.6381 H   0  0  0  0  0  0  0  0  0  0  0  0
   45.5543   37.2398   43.2951 H   0  0  0  0  0  0  0  0  0  0  0  0
   46.9576   35.5903   43.0167 H   0  0  0  0  0  0  0  0  0  0  0  0
   45.8545   35.3377   41.6151 H   0  0  0  0  0  0  0  0  0  0  0  0
   44.5487   33.6955   43.0404 H   0  0  0  0  0  0  0  0  0  0  0  0
   46.2034   33.1635   42.6893 H   0  0  0  0  0  0  0  0  0  0  0  0
   44.4254   30.2868   42.4811 H   0  0  0  0  0  0  0  0  0  0  0  0
   50.7185   32.1131   42.8402 H   0  0  0  0  0  0  0  0  0  0  0  0
   47.5074   30.0049   38.9751 H   0  0  0  0  0  0  0  0  0  0  0  0
   49.2238   30.3677   38.6508 H   0  0  0  0  0  0  0  0  0  0  0  0
  1  6  2  0
  2  1  1  0
  3  2  2  0
  3  4  1  0
  4  5  2  0
  5  6  1  0
  7  2  1  0
  7  8  1  0
  9  8  2  0
 10  9  1  0
 11 12  1  0
 11 10  1  0
 12  7  1  0
 13  3  1  0
 14 13  1  0
 15 16  1  0
 15 14  2  0
 16 21  2  0
 17 18  2  0
 17 16  1  0
 18 19  1  0
 19 20  2  0
 21 20  1  0
 21 13  1  0
 22 17  1  0
  1 23  1  0
  5 24  1  0
  7 25  1  6
  8 26  1  0
  9 27  1  0
 10 28  1  0
 10 29  1  0
 11 30  1  0
 11 31  1  0
 12 32  1  0
 12 33  1  0
 14 34  1  0
 19 35  1  0
 22 36  1  0
 22 37  1  0
M  ISO  8  23  14  24  14  25  13  26  13  27  13  28  13  29  13  30  13
M  ISO  5  31  13  32  13  33  13  34  14  35  14
M  END
>  <minimizedAffinity>  (1) 
-4.62504673

>  <minimizedRMSD>  (1) 
1.46248376

$$$$
