
     RDKit          3D

 31 32  0  0  1  0  0  0  0  0999 V2000
   46.0260   32.7540   48.2710 C   0  0  0  0  0  0  0  0  0  0  0  0
   46.0740   32.2050   46.9650 C   0  0  0  0  0  0  0  0  0  0  0  0
   45.7650   30.8290   46.7650 C   0  0  0  0  0  0  0  0  0  0  0  0
   45.4380   30.1140   47.8860 N   0  0  0  0  0  0  0  0  0  0  0  0
   45.3950   30.6360   49.1140 C   0  0  0  0  0  0  0  0  0  0  0  0
   45.6840   31.9300   49.2930 N   0  0  0  0  0  0  0  0  0  0  0  0
   46.4030   33.1000   45.8710 C   0  0  2  0  0  0  0  0  0  0  0  0
   45.2220   34.1090   45.6680 C   0  0  0  0  0  0  0  0  0  0  0  0
   45.2240   34.8280   44.4270 C   0  0  0  0  0  0  0  0  0  0  0  0
   46.2640   34.6000   43.4270 C   0  0  0  0  0  0  0  0  0  0  0  0
   47.3790   33.7210   43.7910 C   0  0  0  0  0  0  0  0  0  0  0  0
   46.9070   32.5580   44.6460 C   0  0  0  0  0  0  0  0  0  0  0  0
   45.7530   30.1730   45.5280 N   0  0  0  0  0  0  0  0  0  0  0  0
   44.4900   29.5970   45.1170 C   0  0  0  0  0  0  0  0  0  0  0  0
   43.6080   29.0080   45.8470 N   0  0  0  0  0  0  0  0  0  0  0  0
   43.9480   29.5630   43.7700 N   0  0  0  0  0  0  0  0  0  0  0  0
   43.7460   28.8910   46.8570 H   0  0  0  0  0  0  0  0  0  0  0  0
   46.2586   33.8141   48.4500 H   0  0  0  0  0  0  0  0  0  0  0  0
   45.1235   30.0058   49.9737 H   0  0  0  0  0  0  0  0  0  0  0  0
   47.3170   33.6110   46.2079 H   0  0  0  0  0  0  0  0  0  0  0  0
   44.4412   34.2566   46.4286 H   0  0  0  0  0  0  0  0  0  0  0  0
   44.4302   35.5623   44.2252 H   0  0  0  0  0  0  0  0  0  0  0  0
   46.6900   35.5802   43.1668 H   0  0  0  0  0  0  0  0  0  0  0  0
   45.7514   34.0739   42.6082 H   0  0  0  0  0  0  0  0  0  0  0  0
   47.8396   33.3273   42.8729 H   0  0  0  0  0  0  0  0  0  0  0  0
   48.1077   34.3059   44.3714 H   0  0  0  0  0  0  0  0  0  0  0  0
   46.1110   32.0069   44.1238 H   0  0  0  0  0  0  0  0  0  0  0  0
   47.7352   31.8613   44.8429 H   0  0  0  0  0  0  0  0  0  0  0  0
   46.5973   30.1040   44.9421 H   0  0  0  0  0  0  0  0  0  0  0  0
   43.0332   29.1237   43.5939 H   0  0  0  0  0  0  0  0  0  0  0  0
   44.4784   29.9782   42.9908 H   0  0  0  0  0  0  0  0  0  0  0  0
  1  6  2  0
  2  1  1  0
  3  2  2  0
  3  4  1  0
  4  5  2  0
  5  6  1  0
  7  2  1  0
  8  7  1  0
  9  8  2  0
 10 11  1  0
 10  9  1  0
 11 12  1  0
 12  7  1  0
 13  3  1  0
 14 13  1  0
 14 15  2  0
 15 17  1  0
 16 14  1  0
  1 18  1  0
  5 19  1  0
  7 20  1  1
  8 21  1  0
  9 22  1  0
 10 23  1  0
 10 24  1  0
 11 25  1  0
 11 26  1  0
 12 27  1  0
 12 28  1  0
 13 29  1  0
 16 30  1  0
 16 31  1  0
M  ISO  8  18  14  19  14  20  13  21  13  22  13  23  13  24  13  25  13
M  ISO  3  26  13  27  13  28  13
M  END
>  <minimizedAffinity>  (1) 
-4.41896009

>  <minimizedRMSD>  (1) 
1.58775878

$$$$
