
     RDKit          3D

 36 37  0  0  0  0  0  0  0  0999 V2000
   45.5120   35.1480   42.8340 C   0  0  0  0  0  0  0  0  0  0  0  0
   44.9720   34.6910   45.2220 C   0  0  0  0  0  0  0  0  0  0  0  0
   45.7710   34.3750   44.0930 C   0  0  0  0  0  0  0  0  0  0  0  0
   46.7300   33.3770   44.2410 C   0  0  0  0  0  0  0  0  0  0  0  0
   46.8440   32.7670   45.4500 N   0  0  0  0  0  0  0  0  0  0  0  0
   46.0730   33.0880   46.4980 C   0  0  0  0  0  0  0  0  0  0  0  0
   45.1380   34.0490   46.3840 N   0  0  0  0  0  0  0  0  0  0  0  0
   46.7190   35.0810   41.9620 C   0  0  0  0  0  0  0  0  0  0  0  0
   45.1840   36.5660   43.1960 C   0  0  0  0  0  0  0  0  0  0  0  0
   44.2840   34.5530   42.1600 C   0  0  0  0  0  0  0  0  0  0  0  0
   43.6440   35.5210   41.4280 O   0  0  0  0  0  0  0  0  0  0  0  0
   42.4340   35.0310   40.9500 C   0  0  0  0  0  0  0  0  0  0  0  0
   42.2810   35.2090   39.4570 C   0  0  0  0  0  0  0  0  0  0  0  0
   40.7990   35.3680   39.2040 C   0  0  0  0  0  0  0  0  0  0  0  0
   40.2110   35.8860   40.5030 C   0  0  0  0  0  0  0  0  0  0  0  0
   41.2440   35.6970   41.5740 C   0  0  0  0  0  0  0  0  0  0  0  0
   44.2049   35.4752   45.1408 H   0  0  0  0  0  0  0  0  0  0  0  0
   47.3790   33.0894   43.4007 H   0  0  0  0  0  0  0  0  0  0  0  0
   46.2051   32.5635   47.4558 H   0  0  0  0  0  0  0  0  0  0  0  0
   47.6217   35.0309   42.5886 H   0  0  0  0  0  0  0  0  0  0  0  0
   46.6632   34.1846   41.3269 H   0  0  0  0  0  0  0  0  0  0  0  0
   46.7628   35.9781   41.3269 H   0  0  0  0  0  0  0  0  0  0  0  0
   45.1602   36.6688   44.2909 H   0  0  0  0  0  0  0  0  0  0  0  0
   45.9506   37.2370   42.7813 H   0  0  0  0  0  0  0  0  0  0  0  0
   44.2006   36.8322   42.7813 H   0  0  0  0  0  0  0  0  0  0  0  0
   44.5933   33.7348   41.4930 H   0  0  0  0  0  0  0  0  0  0  0  0
   43.5991   34.1644   42.9280 H   0  0  0  0  0  0  0  0  0  0  0  0
   42.4624   33.9640   41.2160 H   0  0  0  0  0  0  0  0  0  0  0  0
   42.8239   36.1050   39.1216 H   0  0  0  0  0  0  0  0  0  0  0  0
   42.6933   34.3512   38.9054 H   0  0  0  0  0  0  0  0  0  0  0  0
   40.6243   36.0877   38.3906 H   0  0  0  0  0  0  0  0  0  0  0  0
   40.3359   34.4175   38.9007 H   0  0  0  0  0  0  0  0  0  0  0  0
   39.9640   36.9533   40.4039 H   0  0  0  0  0  0  0  0  0  0  0  0
   39.2888   35.3416   40.7545 H   0  0  0  0  0  0  0  0  0  0  0  0
   40.8390   35.0637   42.3771 H   0  0  0  0  0  0  0  0  0  0  0  0
   41.5297   36.6666   42.0080 H   0  0  0  0  0  0  0  0  0  0  0  0
  1  9  1  0
  1  3  1  0
  2  7  2  0
  3  4  2  0
  3  2  1  0
  4  5  1  0
  5  6  2  0
  7  6  1  0
  8  1  1  0
 10  1  1  0
 11 10  1  0
 12 11  1  0
 12 16  1  0
 13 12  1  0
 14 13  1  0
 14 15  1  0
 15 16  1  0
  2 17  1  0
  4 18  1  0
  6 19  1  0
  8 20  1  0
  8 21  1  0
  8 22  1  0
  9 23  1  0
  9 24  1  0
  9 25  1  0
 10 26  1  0
 10 27  1  0
 12 28  1  0
 13 29  1  0
 13 30  1  0
 14 31  1  0
 14 32  1  0
 15 33  1  0
 15 34  1  0
 16 35  1  0
 16 36  1  0
M  ISO  8  17  14  18  14  19  14  20   8  21   8  22   8  23   8  24   8
M  ISO  8  25   8  26   8  27   8  28  13  29  13  30  13  31  13  32  13
M  ISO  4  33  13  34  13  35  13  36  13
M  END
>  <minimizedAffinity>  (1) 
-4.91501141

>  <minimizedRMSD>  (1) 
1.34252524

$$$$
