
     RDKit          3D

 26 27  0  0  1  0  0  0  0  0999 V2000
   46.0330   33.6750   45.5030 C   0  0  2  0  0  0  0  0  0  0  0  0
   44.9320   34.7340   45.8610 C   0  0  0  0  0  0  0  0  0  0  0  0
   44.5430   35.6400   44.8160 C   0  0  0  0  0  0  0  0  0  0  0  0
   45.1490   35.5310   43.4930 C   0  0  0  0  0  0  0  0  0  0  0  0
   46.2450   34.5780   43.3010 C   0  0  0  0  0  0  0  0  0  0  0  0
   46.0380   33.3320   44.1060 C   0  0  0  0  0  0  0  0  0  0  0  0
   45.1450   32.7710   47.6010 C   0  0  0  0  0  0  0  0  0  0  0  0
   45.9620   32.5910   46.4820 C   0  0  0  0  0  0  0  0  0  0  0  0
   46.6470   31.3380   46.3040 C   0  0  0  0  0  0  0  0  0  0  0  0
   46.4750   30.3720   47.2360 N   0  0  0  0  0  0  0  0  0  0  0  0
   45.6680   30.5750   48.3260 C   0  0  0  0  0  0  0  0  0  0  0  0
   45.0190   31.7550   48.4960 N   0  0  0  0  0  0  0  0  0  0  0  0
   47.4940   31.0130   45.2250 N   0  0  0  0  0  0  0  0  0  0  0  0
   47.0472   34.0889   45.6029 H   0  0  0  0  0  0  0  0  0  0  0  0
   44.4802   34.7805   46.8628 H   0  0  0  0  0  0  0  0  0  0  0  0
   43.7884   36.4157   45.0132 H   0  0  0  0  0  0  0  0  0  0  0  0
   44.3490   35.2510   42.7918 H   0  0  0  0  0  0  0  0  0  0  0  0
   45.6157   36.5136   43.3296 H   0  0  0  0  0  0  0  0  0  0  0  0
   46.3025   34.3096   42.2358 H   0  0  0  0  0  0  0  0  0  0  0  0
   47.1782   35.0539   43.6365 H   0  0  0  0  0  0  0  0  0  0  0  0
   45.0757   32.8730   43.8351 H   0  0  0  0  0  0  0  0  0  0  0  0
   46.8483   32.6169   43.9008 H   0  0  0  0  0  0  0  0  0  0  0  0
   44.6116   33.7205   47.7557 H   0  0  0  0  0  0  0  0  0  0  0  0
   45.5454   29.7739   49.0697 H   0  0  0  0  0  0  0  0  0  0  0  0
   47.9423   30.0866   45.1831 H   0  0  0  0  0  0  0  0  0  0  0  0
   47.6646   31.7019   44.4785 H   0  0  0  0  0  0  0  0  0  0  0  0
  1  2  1  0
  1  8  1  0
  3  2  2  0
  4  3  1  0
  5  4  1  0
  5  6  1  0
  6  1  1  0
  7 12  2  0
  8  7  1  0
  9  8  2  0
  9 10  1  0
 10 11  2  0
 11 12  1  0
 13  9  1  0
  1 14  1  1
  2 15  1  0
  3 16  1  0
  4 17  1  0
  4 18  1  0
  5 19  1  0
  5 20  1  0
  6 21  1  0
  6 22  1  0
  7 23  1  0
 11 24  1  0
 13 25  1  0
 13 26  1  0
M  ISO  8  14  13  15  13  16  13  17  13  18  13  19  13  20  13  21  13
M  ISO  3  22  13  23  14  24  14
M  END
>  <minimizedAffinity>  (1) 
-4.2302928

>  <minimizedRMSD>  (1) 
0.655112088

$$$$
