
     RDKit          3D

 27 28  0  0  1  0  0  0  0  0999 V2000
   45.8700   33.8570   45.2310 C   0  0  2  0  0  0  0  0  0  0  0  0
   44.8470   34.9640   45.6860 C   0  0  0  0  0  0  0  0  0  0  0  0
   44.4610   35.9050   44.6750 C   0  0  0  0  0  0  0  0  0  0  0  0
   44.9870   35.8060   43.3160 C   0  0  0  0  0  0  0  0  0  0  0  0
   46.0680   34.8440   43.0800 C   0  0  0  0  0  0  0  0  0  0  0  0
   45.7910   33.5490   43.8410 C   0  0  0  0  0  0  0  0  0  0  0  0
   45.1890   32.9950   47.4290 C   0  0  0  0  0  0  0  0  0  0  0  0
   45.8810   32.8180   46.2350 C   0  0  0  0  0  0  0  0  0  0  0  0
   46.5660   31.5920   46.0180 C   0  0  0  0  0  0  0  0  0  0  0  0
   46.5040   30.6530   47.0130 N   0  0  0  0  0  0  0  0  0  0  0  0
   45.8390   30.8440   48.1470 C   0  0  0  0  0  0  0  0  0  0  0  0
   45.1960   31.9950   48.3400 N   0  0  0  0  0  0  0  0  0  0  0  0
   47.2900   31.1130   44.8720 C   0  0  0  0  0  0  0  0  0  0  0  0
   48.2310   31.0430   44.0650 O   0  0  0  0  0  0  0  0  0  0  0  0
   46.8950   30.1430   43.9930 O   0  0  0  0  0  0  0  0  0  0  0  0
   46.9137   34.2042   45.2175 H   0  0  0  0  0  0  0  0  0  0  0  0
   44.4541   35.0124   46.7123 H   0  0  0  0  0  0  0  0  0  0  0  0
   43.7585   36.7132   44.9267 H   0  0  0  0  0  0  0  0  0  0  0  0
   44.1502   35.5303   42.6574 H   0  0  0  0  0  0  0  0  0  0  0  0
   45.4367   36.7897   43.1158 H   0  0  0  0  0  0  0  0  0  0  0  0
   46.1338   34.6269   42.0036 H   0  0  0  0  0  0  0  0  0  0  0  0
   47.0170   35.2739   43.4328 H   0  0  0  0  0  0  0  0  0  0  0  0
   44.7872   33.1730   43.5939 H   0  0  0  0  0  0  0  0  0  0  0  0
   46.5194   32.7707   43.5694 H   0  0  0  0  0  0  0  0  0  0  0  0
   44.6463   33.9308   47.6285 H   0  0  0  0  0  0  0  0  0  0  0  0
   45.8194   30.0602   48.9186 H   0  0  0  0  0  0  0  0  0  0  0  0
   47.4808   29.8938   43.2348 H   0  0  0  0  0  0  0  0  0  0  0  0
  1  2  1  0
  1  8  1  0
  3  2  2  0
  4  3  1  0
  5  4  1  0
  5  6  1  0
  6  1  1  0
  7 12  2  0
  8  7  1  0
  9  8  2  0
  9 10  1  0
 10 11  2  0
 11 12  1  0
 13  9  1  0
 14 13  2  0
 15 13  1  0
  1 16  1  6
  2 17  1  0
  3 18  1  0
  4 19  1  0
  4 20  1  0
  5 21  1  0
  5 22  1  0
  6 23  1  0
  6 24  1  0
  7 25  1  0
 11 26  1  0
 15 27  1  0
M  ISO  8  16  13  17  13  18  13  19  13  20  13  21  13  22  13  23  13
M  ISO  4  24  13  25  14  26  14  27   3
M  END
>  <minimizedAffinity>  (1) 
-4.2142415

>  <minimizedRMSD>  (1) 
0.787832379

$$$$
