
     RDKit          3D

 45 49  0  0  1  0  0  0  0  0999 V2000
   45.2670   32.8450   47.1840 C   0  0  0  0  0  0  0  0  0  0  0  0
   45.9130   32.7870   45.9580 C   0  0  0  0  0  0  0  0  0  0  0  0
   46.5580   31.5690   45.5880 C   0  0  0  0  0  0  0  0  0  0  0  0
   46.5180   30.5300   46.4350 N   0  0  0  0  0  0  0  0  0  0  0  0
   45.8750   30.6190   47.6340 C   0  0  0  0  0  0  0  0  0  0  0  0
   45.2520   31.7740   48.0050 N   0  0  0  0  0  0  0  0  0  0  0  0
   45.9680   33.9920   45.1260 C   0  0  2  0  0  0  0  0  0  0  0  0
   44.9120   34.9850   45.6350 C   0  0  0  0  0  0  0  0  0  0  0  0
   44.3960   35.9710   44.7340 C   0  0  0  0  0  0  0  0  0  0  0  0
   44.9020   36.0270   43.3560 C   0  0  0  0  0  0  0  0  0  0  0  0
   46.0100   35.1220   43.0250 C   0  0  0  0  0  0  0  0  0  0  0  0
   45.7660   33.7710   43.6890 C   0  0  0  0  0  0  0  0  0  0  0  0
   47.2540   31.1830   44.4040 C   0  0  0  0  0  0  0  0  0  0  0  0
   48.4170   30.5700   44.4530 N   0  0  0  0  0  0  0  0  0  0  0  0
   48.8020   30.3420   43.2300 O   0  0  0  0  0  0  0  0  0  0  0  0
   47.9760   30.7590   42.3550 C   0  0  0  0  0  0  0  0  0  0  0  0
   46.9880   31.2950   43.0540 N   0  0  0  0  0  0  0  0  0  0  0  0
   47.8760   30.7830   40.9010 C   0  0  0  0  0  0  0  0  0  0  0  0
   47.6790   29.6470   40.1100 C   0  0  0  0  0  0  0  0  0  0  0  0
   47.5810   29.6520   38.7410 C   0  0  0  0  0  0  0  0  0  0  0  0
   47.6810   30.8510   38.0720 C   0  0  0  0  0  0  0  0  0  0  0  0
   47.8750   32.0090   38.7910 C   0  0  0  0  0  0  0  0  0  0  0  0
   47.9680   33.1750   38.0680 C   0  0  0  0  0  0  0  0  0  0  0  0
   48.1590   34.3620   38.7040 C   0  0  0  0  0  0  0  0  0  0  0  0
   48.2540   34.3360   40.0740 C   0  0  0  0  0  0  0  0  0  0  0  0
   48.1570   33.1470   40.7630 C   0  0  0  0  0  0  0  0  0  0  0  0
   47.9630   31.9310   40.1620 C   0  0  0  0  0  0  0  0  0  0  0  0
   44.7620   33.7730   47.4901 H   0  0  0  0  0  0  0  0  0  0  0  0
   45.8586   29.7505   48.3088 H   0  0  0  0  0  0  0  0  0  0  0  0
   46.9929   34.3800   45.2209 H   0  0  0  0  0  0  0  0  0  0  0  0
   44.5578   34.9392   46.6754 H   0  0  0  0  0  0  0  0  0  0  0  0
   43.6265   36.6811   45.0711 H   0  0  0  0  0  0  0  0  0  0  0  0
   44.0648   35.7895   42.6832 H   0  0  0  0  0  0  0  0  0  0  0  0
   45.3111   37.0413   43.2383 H   0  0  0  0  0  0  0  0  0  0  0  0
   46.0658   34.9916   41.9342 H   0  0  0  0  0  0  0  0  0  0  0  0
   46.9572   35.5476   43.3878 H   0  0  0  0  0  0  0  0  0  0  0  0
   44.7391   33.4280   43.4944 H   0  0  0  0  0  0  0  0  0  0  0  0
   46.4442   32.9982   43.2980 H   0  0  0  0  0  0  0  0  0  0  0  0
   47.5964   28.6774   40.6229 H   0  0  0  0  0  0  0  0  0  0  0  0
   47.4252   28.7140   38.1879 H   0  0  0  0  0  0  0  0  0  0  0  0
   47.6067   30.8835   36.9750 H   0  0  0  0  0  0  0  0  0  0  0  0
   47.8876   33.1476   36.9713 H   0  0  0  0  0  0  0  0  0  0  0  0
   48.2344   35.3054   38.1434 H   0  0  0  0  0  0  0  0  0  0  0  0
   48.4091   35.2743   40.6268 H   0  0  0  0  0  0  0  0  0  0  0  0
   48.2401   33.1755   41.8595 H   0  0  0  0  0  0  0  0  0  0  0  0
  1  6  2  0
  2  1  1  0
  3  2  2  0
  3  4  1  0
  4  5  2  0
  5  6  1  0
  7  8  1  0
  7  2  1  0
  9  8  2  0
 10  9  1  0
 11 10  1  0
 11 12  1  0
 12  7  1  0
 13 14  2  0
 13  3  1  0
 15 14  1  0
 16 17  2  0
 16 15  1  0
 17 13  1  0
 18 16  1  0
 19 18  2  0
 20 19  1  0
 21 20  2  0
 21 22  1  0
 22 27  2  0
 23 24  2  0
 23 22  1  0
 24 25  1  0
 25 26  2  0
 27 26  1  0
 27 18  1  0
  1 28  1  0
  5 29  1  0
  7 30  1  6
  8 31  1  0
  9 32  1  0
 10 33  1  0
 10 34  1  0
 11 35  1  0
 11 36  1  0
 12 37  1  0
 12 38  1  0
 19 39  1  0
 20 40  1  0
 21 41  1  0
 23 42  1  0
 24 43  1  0
 25 44  1  0
 26 45  1  0
M  ISO  8  28  14  29  14  30  13  31  13  32  13  33  13  34  13  35  13
M  ISO  8  36  13  37  13  38  13  39  14  40  14  41  14  42  14  43  14
M  ISO  2  44  14  45  14
M  END
>  <minimizedAffinity>  (1) 
-5.46826315

>  <minimizedRMSD>  (1) 
2.36612082

$$$$
