
     RDKit          3D

 41 44  0  0  1  0  0  0  0  0999 V2000
   45.1770   32.8260   47.6300 C   0  0  0  0  0  0  0  0  0  0  0  0
   45.7390   32.5490   46.3760 C   0  0  0  0  0  0  0  0  0  0  0  0
   46.1640   31.2120   46.1140 C   0  0  0  0  0  0  0  0  0  0  0  0
   46.0090   30.2820   47.0690 N   0  0  0  0  0  0  0  0  0  0  0  0
   45.4550   30.5910   48.2790 C   0  0  0  0  0  0  0  0  0  0  0  0
   45.0470   31.8510   48.5490 N   0  0  0  0  0  0  0  0  0  0  0  0
   45.8990   33.6380   45.4160 C   0  0  2  0  0  0  0  0  0  0  0  0
   44.9160   34.7620   45.8350 C   0  0  0  0  0  0  0  0  0  0  0  0
   44.5420   35.7560   44.8690 C   0  0  0  0  0  0  0  0  0  0  0  0
   45.1220   35.6640   43.5120 C   0  0  0  0  0  0  0  0  0  0  0  0
   45.9550   34.5240   43.1970 C   0  0  0  0  0  0  0  0  0  0  0  0
   45.5660   33.3050   44.0210 C   0  0  0  0  0  0  0  0  0  0  0  0
   46.7480   30.6120   44.9640 C   0  0  0  0  0  0  0  0  0  0  0  0
   48.0530   30.7010   44.7400 N   0  0  0  0  0  0  0  0  0  0  0  0
   48.3080   30.0640   43.6320 O   0  0  0  0  0  0  0  0  0  0  0  0
   47.2640   29.5530   43.0950 C   0  0  0  0  0  0  0  0  0  0  0  0
   46.2590   29.8740   43.9010 N   0  0  0  0  0  0  0  0  0  0  0  0
   47.2450   28.8050   41.8840 N   0  0  0  0  0  0  0  0  0  0  0  0
   47.6720   29.3050   40.5890 C   0  0  0  0  0  0  0  0  0  0  0  0
   47.0060   28.3520   39.5930 C   0  0  0  0  0  0  0  0  0  0  0  0
   47.1370   27.0430   40.3420 C   0  0  0  0  0  0  0  0  0  0  0  0
   46.7990   27.4310   41.7520 C   0  0  0  0  0  0  0  0  0  0  0  0
   44.8401   33.8465   47.8645 H   0  0  0  0  0  0  0  0  0  0  0  0
   45.3398   29.8064   49.0413 H   0  0  0  0  0  0  0  0  0  0  0  0
   46.9647   33.9095   45.4380 H   0  0  0  0  0  0  0  0  0  0  0  0
   44.5113   34.7971   46.8573 H   0  0  0  0  0  0  0  0  0  0  0  0
   43.8431   36.5639   45.1312 H   0  0  0  0  0  0  0  0  0  0  0  0
   44.2840   35.6616   42.7994 H   0  0  0  0  0  0  0  0  0  0  0  0
   45.8051   36.5240   43.4504 H   0  0  0  0  0  0  0  0  0  0  0  0
   45.8438   34.2841   42.1292 H   0  0  0  0  0  0  0  0  0  0  0  0
   46.9977   34.7823   43.4335 H   0  0  0  0  0  0  0  0  0  0  0  0
   44.4890   33.1042   43.9222 H   0  0  0  0  0  0  0  0  0  0  0  0
   46.0972   32.4029   43.6832 H   0  0  0  0  0  0  0  0  0  0  0  0
   47.3267   30.3379   40.4342 H   0  0  0  0  0  0  0  0  0  0  0  0
   48.7666   29.3342   40.4837 H   0  0  0  0  0  0  0  0  0  0  0  0
   47.5422   28.3269   38.6329 H   0  0  0  0  0  0  0  0  0  0  0  0
   45.9766   28.6223   39.3150 H   0  0  0  0  0  0  0  0  0  0  0  0
   46.4297   26.2937   39.9569 H   0  0  0  0  0  0  0  0  0  0  0  0
   48.1312   26.5827   40.2436 H   0  0  0  0  0  0  0  0  0  0  0  0
   45.7147   27.3590   41.9228 H   0  0  0  0  0  0  0  0  0  0  0  0
   47.2799   26.7695   42.4877 H   0  0  0  0  0  0  0  0  0  0  0  0
  1  6  2  0
  2  1  1  0
  3  2  2  0
  3  4  1  0
  4  5  2  0
  5  6  1  0
  7  8  1  0
  7  2  1  0
  9  8  2  0
 10  9  1  0
 11 10  1  0
 11 12  1  0
 12  7  1  0
 13  3  1  0
 14 13  2  0
 15 14  1  0
 16 15  1  0
 16 17  2  0
 17 13  1  0
 18 16  1  0
 19 18  1  0
 20 21  1  0
 20 19  1  0
 21 22  1  0
 22 18  1  0
  1 23  1  0
  5 24  1  0
  7 25  1  6
  8 26  1  0
  9 27  1  0
 10 28  1  0
 10 29  1  0
 11 30  1  0
 11 31  1  0
 12 32  1  0
 12 33  1  0
 19 34  1  0
 19 35  1  0
 20 36  1  0
 20 37  1  0
 21 38  1  0
 21 39  1  0
 22 40  1  0
 22 41  1  0
M  ISO  8  23  14  24  14  25  13  26  13  27  13  28  13  29  13  30  13
M  ISO  8  31  13  32  13  33  13  34  13  35  13  36  13  37  13  38  13
M  ISO  3  39  13  40  13  41  13
M  END
>  <minimizedAffinity>  (1) 
-4.30215836

>  <minimizedRMSD>  (1) 
0.078529492

$$$$
