
     RDKit          3D

 32 34  0  0  1  0  0  0  0  0999 V2000
   45.9050   33.6060   45.3850 C   0  0  2  0  0  0  0  0  0  0  0  0
   44.8480   34.7770   45.8390 C   0  0  0  0  0  0  0  0  0  0  0  0
   44.5410   35.7980   44.8910 C   0  0  0  0  0  0  0  0  0  0  0  0
   45.1630   35.7070   43.5560 C   0  0  0  0  0  0  0  0  0  0  0  0
   45.9840   34.5620   43.2320 C   0  0  0  0  0  0  0  0  0  0  0  0
   45.5780   33.3680   44.0330 C   0  0  0  0  0  0  0  0  0  0  0  0
   45.2270   32.8880   47.6310 C   0  0  0  0  0  0  0  0  0  0  0  0
   45.7580   32.5800   46.3880 C   0  0  0  0  0  0  0  0  0  0  0  0
   46.0800   31.1900   46.1180 C   0  0  0  0  0  0  0  0  0  0  0  0
   45.8650   30.2360   47.0450 N   0  0  0  0  0  0  0  0  0  0  0  0
   45.3320   30.5950   48.2660 C   0  0  0  0  0  0  0  0  0  0  0  0
   45.0210   31.8960   48.5490 N   0  0  0  0  0  0  0  0  0  0  0  0
   46.6780   30.5680   44.9750 C   0  0  0  0  0  0  0  0  0  0  0  0
   48.0190   30.6640   44.7850 N   0  0  0  0  0  0  0  0  0  0  0  0
   48.3030   30.0210   43.6880 O   0  0  0  0  0  0  0  0  0  0  0  0
   47.2690   29.5100   43.1340 C   0  0  0  0  0  0  0  0  0  0  0  0
   46.2500   29.8360   43.9160 N   0  0  0  0  0  0  0  0  0  0  0  0
   47.0580   28.7050   41.9020 C   0  0  0  0  0  0  0  0  0  0  0  0
   46.9893   33.7908   45.3696 H   0  0  0  0  0  0  0  0  0  0  0  0
   44.3920   34.7746   46.8400 H   0  0  0  0  0  0  0  0  0  0  0  0
   43.8631   36.6256   45.1468 H   0  0  0  0  0  0  0  0  0  0  0  0
   44.3464   35.7344   42.8195 H   0  0  0  0  0  0  0  0  0  0  0  0
   45.8729   36.5472   43.5428 H   0  0  0  0  0  0  0  0  0  0  0  0
   45.8739   34.3317   42.1620 H   0  0  0  0  0  0  0  0  0  0  0  0
   47.0308   34.8032   43.4687 H   0  0  0  0  0  0  0  0  0  0  0  0
   44.4943   33.2066   43.9358 H   0  0  0  0  0  0  0  0  0  0  0  0
   46.1033   32.4726   43.6692 H   0  0  0  0  0  0  0  0  0  0  0  0
   44.9718   33.9290   47.8783 H   0  0  0  0  0  0  0  0  0  0  0  0
   45.1539   29.8200   49.0260 H   0  0  0  0  0  0  0  0  0  0  0  0
   46.7881   27.6752   42.1787 H   0  0  0  0  0  0  0  0  0  0  0  0
   46.2461   29.1498   41.3079 H   0  0  0  0  0  0  0  0  0  0  0  0
   47.9837   28.6944   41.3079 H   0  0  0  0  0  0  0  0  0  0  0  0
  1  2  1  0
  1  8  1  0
  3  2  2  0
  4  3  1  0
  5  4  1  0
  5  6  1  0
  6  1  1  0
  7 12  2  0
  8  7  1  0
  9  8  2  0
  9 10  1  0
 10 11  2  0
 11 12  1  0
 13  9  1  0
 14 13  2  0
 15 14  1  0
 16 15  1  0
 16 17  2  0
 17 13  1  0
 18 16  1  0
  1 19  1  6
  2 20  1  0
  3 21  1  0
  4 22  1  0
  4 23  1  0
  5 24  1  0
  5 25  1  0
  6 26  1  0
  6 27  1  0
  7 28  1  0
 11 29  1  0
 18 30  1  0
 18 31  1  0
 18 32  1  0
M  ISO  8  19  13  20  13  21  13  22  13  23  13  24  13  25  13  26  13
M  ISO  6  27  13  28  14  29  14  30   8  31   8  32   8
M  END
>  <minimizedAffinity>  (1) 
-4.33417606

>  <minimizedRMSD>  (1) 
0.072792083

$$$$
