
     RDKit          3D

 36 38  0  0  1  0  0  0  0  0999 V2000
   45.1640   32.8080   47.6320 C   0  0  0  0  0  0  0  0  0  0  0  0
   45.7200   32.5360   46.3910 C   0  0  0  0  0  0  0  0  0  0  0  0
   46.1870   31.2110   46.1390 C   0  0  0  0  0  0  0  0  0  0  0  0
   46.0790   30.2820   47.0970 N   0  0  0  0  0  0  0  0  0  0  0  0
   45.5290   30.5840   48.3080 C   0  0  0  0  0  0  0  0  0  0  0  0
   45.0730   31.8410   48.5730 N   0  0  0  0  0  0  0  0  0  0  0  0
   45.8870   33.6330   45.4310 C   0  0  2  0  0  0  0  0  0  0  0  0
   44.9560   34.7810   45.8420 C   0  0  0  0  0  0  0  0  0  0  0  0
   44.5150   35.7070   44.8420 C   0  0  0  0  0  0  0  0  0  0  0  0
   44.9820   35.5580   43.4590 C   0  0  0  0  0  0  0  0  0  0  0  0
   45.9790   34.5040   43.2070 C   0  0  0  0  0  0  0  0  0  0  0  0
   45.6150   33.2700   44.0300 C   0  0  0  0  0  0  0  0  0  0  0  0
   46.7530   30.6120   44.9710 C   0  0  0  0  0  0  0  0  0  0  0  0
   48.0420   30.7020   44.7050 N   0  0  0  0  0  0  0  0  0  0  0  0
   48.2630   30.0650   43.5860 O   0  0  0  0  0  0  0  0  0  0  0  0
   47.2050   29.5520   43.0840 C   0  0  0  0  0  0  0  0  0  0  0  0
   46.2270   29.8720   43.9220 N   0  0  0  0  0  0  0  0  0  0  0  0
   47.0600   28.7910   41.8780 N   0  0  0  0  0  0  0  0  0  0  0  0
   46.7810   29.4760   40.6420 C   0  0  0  0  0  0  0  0  0  0  0  0
   47.2690   30.6670   40.5290 N   0  0  0  0  0  0  0  0  0  0  0  0
   45.9970   28.7800   39.6620 N   0  0  0  0  0  0  0  0  0  0  0  0
   47.0870   31.1940   39.6440 H   0  0  0  0  0  0  0  0  0  0  0  0
   44.7935   33.8199   47.8530 H   0  0  0  0  0  0  0  0  0  0  0  0
   45.4525   29.8041   49.0799 H   0  0  0  0  0  0  0  0  0  0  0  0
   46.9480   33.9211   45.4652 H   0  0  0  0  0  0  0  0  0  0  0  0
   44.6324   34.8912   46.8875 H   0  0  0  0  0  0  0  0  0  0  0  0
   43.8301   36.5252   45.1094 H   0  0  0  0  0  0  0  0  0  0  0  0
   44.1040   35.3429   42.8322 H   0  0  0  0  0  0  0  0  0  0  0  0
   45.4945   36.5025   43.2239 H   0  0  0  0  0  0  0  0  0  0  0  0
   45.9817   34.2467   42.1375 H   0  0  0  0  0  0  0  0  0  0  0  0
   46.9789   34.8612   43.4942 H   0  0  0  0  0  0  0  0  0  0  0  0
   44.5519   33.0203   43.8977 H   0  0  0  0  0  0  0  0  0  0  0  0
   46.1941   32.3882   43.7186 H   0  0  0  0  0  0  0  0  0  0  0  0
   47.1543   27.7655   41.8950 H   0  0  0  0  0  0  0  0  0  0  0  0
   45.7742   29.2331   38.7643 H   0  0  0  0  0  0  0  0  0  0  0  0
   45.6571   27.8273   39.8564 H   0  0  0  0  0  0  0  0  0  0  0  0
  1  6  2  0
  2  1  1  0
  3  2  2  0
  3  4  1  0
  4  5  2  0
  5  6  1  0
  7  8  1  0
  7  2  1  0
  9  8  2  0
 10  9  1  0
 11 10  1  0
 11 12  1  0
 12  7  1  0
 13  3  1  0
 14 13  2  0
 15 14  1  0
 16 15  1  0
 16 17  2  0
 17 13  1  0
 18 16  1  0
 19 18  1  0
 20 19  2  0
 21 19  1  0
 22 20  1  0
  1 23  1  0
  5 24  1  0
  7 25  1  6
  8 26  1  0
  9 27  1  0
 10 28  1  0
 10 29  1  0
 11 30  1  0
 11 31  1  0
 12 32  1  0
 12 33  1  0
 18 34  1  0
 21 35  1  0
 21 36  1  0
M  ISO  8  23  14  24  14  25  13  26  13  27  13  28  13  29  13  30  13
M  ISO  3  31  13  32  13  33  13
M  END
>  <minimizedAffinity>  (1) 
-4.29793167

>  <minimizedRMSD>  (1) 
0.0943876281

$$$$
