
     RDKit          3D

 44 47  0  0  1  0  0  0  0  0999 V2000
   45.1660   32.8030   47.6160 C   0  0  0  0  0  0  0  0  0  0  0  0
   45.7400   32.5590   46.3610 C   0  0  0  0  0  0  0  0  0  0  0  0
   46.1700   31.2310   46.0720 C   0  0  0  0  0  0  0  0  0  0  0  0
   46.0120   30.2770   47.0000 N   0  0  0  0  0  0  0  0  0  0  0  0
   45.4460   30.5540   48.2120 C   0  0  0  0  0  0  0  0  0  0  0  0
   45.0300   31.8100   48.5090 N   0  0  0  0  0  0  0  0  0  0  0  0
   45.9210   33.6760   45.4350 C   0  0  2  0  0  0  0  0  0  0  0  0
   44.9180   34.7740   45.8340 C   0  0  0  0  0  0  0  0  0  0  0  0
   44.5200   35.7600   44.8700 C   0  0  0  0  0  0  0  0  0  0  0  0
   45.0990   35.6810   43.5080 C   0  0  0  0  0  0  0  0  0  0  0  0
   46.0350   34.6090   43.2380 C   0  0  0  0  0  0  0  0  0  0  0  0
   45.6630   33.3540   44.0150 C   0  0  0  0  0  0  0  0  0  0  0  0
   46.7580   30.6600   44.9050 C   0  0  0  0  0  0  0  0  0  0  0  0
   48.0710   30.6780   44.7250 N   0  0  0  0  0  0  0  0  0  0  0  0
   48.3140   30.0890   43.5860 O   0  0  0  0  0  0  0  0  0  0  0  0
   47.2620   29.6760   42.9870 C   0  0  0  0  0  0  0  0  0  0  0  0
   46.2580   30.0160   43.7850 N   0  0  0  0  0  0  0  0  0  0  0  0
   47.1770   28.9990   41.7380 N   0  0  0  0  0  0  0  0  0  0  0  0
   45.9690   28.3090   41.3230 C   0  0  0  0  0  0  0  0  0  0  0  0
   45.5430   28.7690   39.9370 C   0  0  0  0  0  0  0  0  0  0  0  0
   46.6840   29.0210   39.0110 C   0  0  0  0  0  0  0  0  0  0  0  0
   47.8250   29.7900   39.6210 C   0  0  0  0  0  0  0  0  0  0  0  0
   48.3090   28.9780   40.8260 C   0  0  0  0  0  0  0  0  0  0  0  0
   44.8240   33.8168   47.8715 H   0  0  0  0  0  0  0  0  0  0  0  0
   45.3266   29.7507   48.9539 H   0  0  0  0  0  0  0  0  0  0  0  0
   46.9770   33.9747   45.5104 H   0  0  0  0  0  0  0  0  0  0  0  0
   44.5079   34.8026   46.8543 H   0  0  0  0  0  0  0  0  0  0  0  0
   43.8048   36.5527   45.1348 H   0  0  0  0  0  0  0  0  0  0  0  0
   44.2632   35.5739   42.8009 H   0  0  0  0  0  0  0  0  0  0  0  0
   45.6913   36.6019   43.4026 H   0  0  0  0  0  0  0  0  0  0  0  0
   46.0228   34.3829   42.1616 H   0  0  0  0  0  0  0  0  0  0  0  0
   47.0387   34.9317   43.5516 H   0  0  0  0  0  0  0  0  0  0  0  0
   44.6015   33.1088   43.8634 H   0  0  0  0  0  0  0  0  0  0  0  0
   46.2447   32.4815   43.6827 H   0  0  0  0  0  0  0  0  0  0  0  0
   46.1596   27.2258   41.3024 H   0  0  0  0  0  0  0  0  0  0  0  0
   45.1646   28.5386   42.0373 H   0  0  0  0  0  0  0  0  0  0  0  0
   44.9024   27.9917   39.4950 H   0  0  0  0  0  0  0  0  0  0  0  0
   45.0156   29.7259   40.0644 H   0  0  0  0  0  0  0  0  0  0  0  0
   46.3074   29.5912   38.1490 H   0  0  0  0  0  0  0  0  0  0  0  0
   47.0847   28.0351   38.7328 H   0  0  0  0  0  0  0  0  0  0  0  0
   48.6387   29.9047   38.8897 H   0  0  0  0  0  0  0  0  0  0  0  0
   47.5050   30.7974   39.9256 H   0  0  0  0  0  0  0  0  0  0  0  0
   48.5546   27.9473   40.5304 H   0  0  0  0  0  0  0  0  0  0  0  0
   49.2243   29.3902   41.2758 H   0  0  0  0  0  0  0  0  0  0  0  0
  1  6  2  0
  2  1  1  0
  3  2  2  0
  3  4  1  0
  4  5  2  0
  5  6  1  0
  7  8  1  0
  7  2  1  0
  9  8  2  0
 10  9  1  0
 11 10  1  0
 11 12  1  0
 12  7  1  0
 13  3  1  0
 14 13  2  0
 15 14  1  0
 16 15  1  0
 16 17  2  0
 17 13  1  0
 18 16  1  0
 19 18  1  0
 20 19  1  0
 21 22  1  0
 21 20  1  0
 22 23  1  0
 23 18  1  0
  1 24  1  0
  5 25  1  0
  7 26  1  6
  8 27  1  0
  9 28  1  0
 10 29  1  0
 10 30  1  0
 11 31  1  0
 11 32  1  0
 12 33  1  0
 12 34  1  0
 19 35  1  0
 19 36  1  0
 20 37  1  0
 20 38  1  0
 21 39  1  0
 21 40  1  0
 22 41  1  0
 22 42  1  0
 23 43  1  0
 23 44  1  0
M  ISO  8  24  14  25  14  26  13  27  13  28  13  29  13  30  13  31  13
M  ISO  8  32  13  33  13  34  13  35  13  36  13  37  13  38  13  39  13
M  ISO  5  40  13  41  13  42  13  43  13  44  13
M  END
>  <minimizedAffinity>  (1) 
-4.36699629

>  <minimizedRMSD>  (1) 
0.271801561

$$$$
