
     RDKit          3D

 42 45  0  0  1  0  0  0  0  0999 V2000
   45.1830   32.8150   47.6300 C   0  0  0  0  0  0  0  0  0  0  0  0
   45.7260   32.5730   46.3790 C   0  0  0  0  0  0  0  0  0  0  0  0
   46.1750   31.2510   46.0840 C   0  0  0  0  0  0  0  0  0  0  0  0
   46.0620   30.2940   47.0150 N   0  0  0  0  0  0  0  0  0  0  0  0
   45.5250   30.5670   48.2360 C   0  0  0  0  0  0  0  0  0  0  0  0
   45.0870   31.8230   48.5440 N   0  0  0  0  0  0  0  0  0  0  0  0
   45.8890   33.6890   45.4480 C   0  0  2  0  0  0  0  0  0  0  0  0
   44.9030   34.7990   45.8460 C   0  0  0  0  0  0  0  0  0  0  0  0
   44.5130   35.7640   44.8650 C   0  0  0  0  0  0  0  0  0  0  0  0
   45.0730   35.6810   43.5180 C   0  0  0  0  0  0  0  0  0  0  0  0
   46.0310   34.6150   43.2480 C   0  0  0  0  0  0  0  0  0  0  0  0
   45.6660   33.3620   44.0320 C   0  0  0  0  0  0  0  0  0  0  0  0
   46.7340   30.6800   44.8960 C   0  0  0  0  0  0  0  0  0  0  0  0
   48.0390   30.6660   44.6920 N   0  0  0  0  0  0  0  0  0  0  0  0
   48.2510   30.0860   43.5400 O   0  0  0  0  0  0  0  0  0  0  0  0
   47.1740   29.7110   42.9610 C   0  0  0  0  0  0  0  0  0  0  0  0
   46.1920   30.0650   43.7800 N   0  0  0  0  0  0  0  0  0  0  0  0
   46.9120   29.0270   41.6740 C   0  0  0  0  0  0  0  0  0  0  0  0
   45.4770   29.1660   41.2120 C   0  0  0  0  0  0  0  0  0  0  0  0
   45.5760   28.7690   39.7570 C   0  0  0  0  0  0  0  0  0  0  0  0
   46.9430   29.2000   39.3210 C   0  0  0  0  0  0  0  0  0  0  0  0
   47.6770   29.6800   40.5370 C   0  0  0  0  0  0  0  0  0  0  0  0
   44.8262   33.8244   47.8826 H   0  0  0  0  0  0  0  0  0  0  0  0
   45.4429   29.7650   48.9843 H   0  0  0  0  0  0  0  0  0  0  0  0
   46.9424   33.9957   45.5267 H   0  0  0  0  0  0  0  0  0  0  0  0
   44.5035   34.8504   46.8696 H   0  0  0  0  0  0  0  0  0  0  0  0
   43.7989   36.5603   45.1219 H   0  0  0  0  0  0  0  0  0  0  0  0
   44.2327   35.5525   42.8199 H   0  0  0  0  0  0  0  0  0  0  0  0
   45.6491   36.6104   43.3980 H   0  0  0  0  0  0  0  0  0  0  0  0
   46.0232   34.3846   42.1724 H   0  0  0  0  0  0  0  0  0  0  0  0
   47.0328   34.9492   43.5558 H   0  0  0  0  0  0  0  0  0  0  0  0
   44.6115   33.0988   43.8622 H   0  0  0  0  0  0  0  0  0  0  0  0
   46.2726   32.4998   43.7178 H   0  0  0  0  0  0  0  0  0  0  0  0
   47.1955   27.9825   41.8705 H   0  0  0  0  0  0  0  0  0  0  0  0
   44.8110   28.4887   41.7668 H   0  0  0  0  0  0  0  0  0  0  0  0
   45.0551   30.1694   41.3704 H   0  0  0  0  0  0  0  0  0  0  0  0
   45.4617   27.6806   39.6461 H   0  0  0  0  0  0  0  0  0  0  0  0
   44.7861   29.2358   39.1502 H   0  0  0  0  0  0  0  0  0  0  0  0
   47.4781   28.3509   38.8709 H   0  0  0  0  0  0  0  0  0  0  0  0
   46.8741   30.0011   38.5704 H   0  0  0  0  0  0  0  0  0  0  0  0
   48.7256   29.3478   40.5232 H   0  0  0  0  0  0  0  0  0  0  0  0
   47.7190   30.7764   40.6147 H   0  0  0  0  0  0  0  0  0  0  0  0
  1  6  2  0
  2  1  1  0
  3  2  2  0
  3  4  1  0
  4  5  2  0
  5  6  1  0
  7  8  1  0
  7  2  1  0
  9  8  2  0
 10  9  1  0
 11 10  1  0
 11 12  1  0
 12  7  1  0
 13  3  1  0
 14 13  2  0
 15 14  1  0
 16 15  1  0
 16 17  2  0
 17 13  1  0
 18 16  1  0
 19 18  1  0
 20 19  1  0
 21 20  1  0
 21 22  1  0
 22 18  1  0
  1 23  1  0
  5 24  1  0
  7 25  1  6
  8 26  1  0
  9 27  1  0
 10 28  1  0
 10 29  1  0
 11 30  1  0
 11 31  1  0
 12 32  1  0
 12 33  1  0
 18 34  1  0
 19 35  1  0
 19 36  1  0
 20 37  1  0
 20 38  1  0
 21 39  1  0
 21 40  1  0
 22 41  1  0
 22 42  1  0
M  ISO  8  23  14  24  14  25  13  26  13  27  13  28  13  29  13  30  13
M  ISO  8  31  13  32  13  33  13  34  13  35  13  36  13  37  13  38  13
M  ISO  4  39  13  40  13  41  13  42  13
M  END
>  <minimizedAffinity>  (1) 
-4.13188887

>  <minimizedRMSD>  (1) 
0.927455783

$$$$
