
     RDKit          3D

 37 40  0  0  1  0  0  0  0  0999 V2000
   45.2180   32.9110   47.6240 C   0  0  0  0  0  0  0  0  0  0  0  0
   45.7600   32.6060   46.3830 C   0  0  0  0  0  0  0  0  0  0  0  0
   46.0690   31.2120   46.1110 C   0  0  0  0  0  0  0  0  0  0  0  0
   45.8330   30.2500   47.0300 N   0  0  0  0  0  0  0  0  0  0  0  0
   45.2900   30.6140   48.2440 C   0  0  0  0  0  0  0  0  0  0  0  0
   44.9890   31.9180   48.5360 N   0  0  0  0  0  0  0  0  0  0  0  0
   45.9050   33.6330   45.3790 C   0  0  2  0  0  0  0  0  0  0  0  0
   44.8250   34.7950   45.8260 C   0  0  0  0  0  0  0  0  0  0  0  0
   44.5400   35.8210   44.8780 C   0  0  0  0  0  0  0  0  0  0  0  0
   45.1840   35.7470   43.5570 C   0  0  0  0  0  0  0  0  0  0  0  0
   45.9620   34.5790   43.2170 C   0  0  0  0  0  0  0  0  0  0  0  0
   45.5730   33.3910   44.0290 C   0  0  0  0  0  0  0  0  0  0  0  0
   46.6830   30.5940   44.9750 C   0  0  0  0  0  0  0  0  0  0  0  0
   48.0350   30.6430   44.8390 N   0  0  0  0  0  0  0  0  0  0  0  0
   48.3380   30.0160   43.7410 O   0  0  0  0  0  0  0  0  0  0  0  0
   47.3110   29.5540   43.1350 C   0  0  0  0  0  0  0  0  0  0  0  0
   46.2760   29.9030   43.8860 N   0  0  0  0  0  0  0  0  0  0  0  0
   47.2000   28.7990   41.8900 C   0  0  0  0  0  0  0  0  0  0  0  0
   48.0570   28.9470   40.8220 C   0  0  0  0  0  0  0  0  0  0  0  0
   47.8300   28.1670   39.7120 C   0  0  0  0  0  0  0  0  0  0  0  0
   46.8200   27.2800   39.6310 N   0  0  0  0  0  0  0  0  0  0  0  0
   45.9930   27.1470   40.6790 C   0  0  0  0  0  0  0  0  0  0  0  0
   46.2100   27.9020   41.7610 N   0  0  0  0  0  0  0  0  0  0  0  0
   44.9722   33.9535   47.8744 H   0  0  0  0  0  0  0  0  0  0  0  0
   45.0934   29.8371   48.9975 H   0  0  0  0  0  0  0  0  0  0  0  0
   46.9876   33.8274   45.3680 H   0  0  0  0  0  0  0  0  0  0  0  0
   44.3439   34.7795   46.8151 H   0  0  0  0  0  0  0  0  0  0  0  0
   43.8567   36.6462   45.1275 H   0  0  0  0  0  0  0  0  0  0  0  0
   44.3856   35.8314   42.8051 H   0  0  0  0  0  0  0  0  0  0  0  0
   45.9269   36.5579   43.5823 H   0  0  0  0  0  0  0  0  0  0  0  0
   45.8077   34.3473   42.1528 H   0  0  0  0  0  0  0  0  0  0  0  0
   47.0183   34.8023   43.4274 H   0  0  0  0  0  0  0  0  0  0  0  0
   44.4899   33.2210   43.9396 H   0  0  0  0  0  0  0  0  0  0  0  0
   46.1075   32.5003   43.6671 H   0  0  0  0  0  0  0  0  0  0  0  0
   48.8919   29.6624   40.8555 H   0  0  0  0  0  0  0  0  0  0  0  0
   48.5052   28.2727   38.8500 H   0  0  0  0  0  0  0  0  0  0  0  0
   45.1562   26.4337   40.6488 H   0  0  0  0  0  0  0  0  0  0  0  0
  1  6  2  0
  2  1  1  0
  3  2  2  0
  3  4  1  0
  4  5  2  0
  5  6  1  0
  7  8  1  0
  7  2  1  0
  9  8  2  0
 10  9  1  0
 11 10  1  0
 11 12  1  0
 12  7  1  0
 13  3  1  0
 14 13  2  0
 15 14  1  0
 16 15  1  0
 16 17  2  0
 17 13  1  0
 18 16  1  0
 19 18  2  0
 20 19  1  0
 21 20  2  0
 21 22  1  0
 22 23  2  0
 23 18  1  0
  1 24  1  0
  5 25  1  0
  7 26  1  6
  8 27  1  0
  9 28  1  0
 10 29  1  0
 10 30  1  0
 11 31  1  0
 11 32  1  0
 12 33  1  0
 12 34  1  0
 19 35  1  0
 20 36  1  0
 22 37  1  0
M  ISO  8  24  14  25  14  26  13  27  13  28  13  29  13  30  13  31  13
M  ISO  6  32  13  33  13  34  13  35  14  36  14  37  14
M  END
>  <minimizedAffinity>  (1) 
-4.16983128

>  <minimizedRMSD>  (1) 
0.153522342

$$$$
