
     RDKit          3D

 35 38  0  0  1  0  0  0  0  0999 V2000
   45.1740   32.8160   47.6310 C   0  0  0  0  0  0  0  0  0  0  0  0
   45.7240   32.5620   46.3840 C   0  0  0  0  0  0  0  0  0  0  0  0
   46.1530   31.2290   46.0980 C   0  0  0  0  0  0  0  0  0  0  0  0
   46.0170   30.2780   47.0290 N   0  0  0  0  0  0  0  0  0  0  0  0
   45.4710   30.5690   48.2490 C   0  0  0  0  0  0  0  0  0  0  0  0
   45.0550   31.8260   48.5440 N   0  0  0  0  0  0  0  0  0  0  0  0
   45.8970   33.6690   45.4450 C   0  0  2  0  0  0  0  0  0  0  0  0
   44.9270   34.8000   45.8460 C   0  0  0  0  0  0  0  0  0  0  0  0
   44.5060   35.7420   44.8490 C   0  0  0  0  0  0  0  0  0  0  0  0
   45.0200   35.6170   43.4760 C   0  0  0  0  0  0  0  0  0  0  0  0
   46.0700   34.6070   43.2620 C   0  0  0  0  0  0  0  0  0  0  0  0
   45.6860   33.3460   44.0320 C   0  0  0  0  0  0  0  0  0  0  0  0
   46.7210   30.6470   44.9220 C   0  0  0  0  0  0  0  0  0  0  0  0
   48.0220   30.7030   44.6870 N   0  0  0  0  0  0  0  0  0  0  0  0
   48.2460   30.1000   43.5500 O   0  0  0  0  0  0  0  0  0  0  0  0
   47.1790   29.6450   43.0110 C   0  0  0  0  0  0  0  0  0  0  0  0
   46.1940   29.9660   43.8410 N   0  0  0  0  0  0  0  0  0  0  0  0
   47.0480   28.9110   41.7270 C   0  0  0  0  0  0  0  0  0  0  0  0
   47.9750   29.3240   40.6280 C   0  0  0  0  0  0  0  0  0  0  0  0
   47.5030   28.2340   39.3180 S   0  0  0  0  0  0  0  0  0  0  0  0
   46.1610   27.3710   40.3560 C   0  0  0  0  0  0  0  0  0  0  0  0
   46.1750   27.9360   41.5260 N   0  0  0  0  0  0  0  0  0  0  0  0
   44.8316   33.8314   47.8796 H   0  0  0  0  0  0  0  0  0  0  0  0
   45.3679   29.7729   49.0010 H   0  0  0  0  0  0  0  0  0  0  0  0
   46.9553   33.9597   45.5192 H   0  0  0  0  0  0  0  0  0  0  0  0
   44.5636   34.8829   46.8809 H   0  0  0  0  0  0  0  0  0  0  0  0
   43.8058   36.5497   45.1085 H   0  0  0  0  0  0  0  0  0  0  0  0
   44.1723   35.3629   42.8226 H   0  0  0  0  0  0  0  0  0  0  0  0
   45.4930   36.5842   43.2507 H   0  0  0  0  0  0  0  0  0  0  0  0
   46.1521   34.3773   42.1894 H   0  0  0  0  0  0  0  0  0  0  0  0
   47.0395   34.9871   43.6165 H   0  0  0  0  0  0  0  0  0  0  0  0
   44.6317   33.0906   43.8496 H   0  0  0  0  0  0  0  0  0  0  0  0
   46.2855   32.4787   43.7184 H   0  0  0  0  0  0  0  0  0  0  0  0
   48.7502   30.1044   40.6334 H   0  0  0  0  0  0  0  0  0  0  0  0
   45.5020   26.5532   40.0290 H   0  0  0  0  0  0  0  0  0  0  0  0
  1  6  2  0
  2  1  1  0
  3  2  2  0
  3  4  1  0
  4  5  2  0
  5  6  1  0
  7  8  1  0
  7  2  1  0
  9  8  2  0
 10  9  1  0
 11 10  1  0
 11 12  1  0
 12  7  1  0
 13  3  1  0
 14 13  2  0
 15 14  1  0
 16 15  1  0
 16 17  2  0
 17 13  1  0
 18 16  1  0
 19 18  2  0
 20 21  1  0
 20 19  1  0
 21 22  2  0
 22 18  1  0
  1 23  1  0
  5 24  1  0
  7 25  1  6
  8 26  1  0
  9 27  1  0
 10 28  1  0
 10 29  1  0
 11 30  1  0
 11 31  1  0
 12 32  1  0
 12 33  1  0
 19 34  1  0
 21 35  1  0
M  ISO  8  23  14  24  14  25  13  26  13  27  13  28  13  29  13  30  13
M  ISO  5  31  13  32  13  33  13  34  14  35  14
M  END
>  <minimizedAffinity>  (1) 
-4.0893898

>  <minimizedRMSD>  (1) 
0.20755665

$$$$
