
     RDKit          3D

 36 39  0  0  1  0  0  0  0  0999 V2000
   45.2260   32.9760   47.5330 C   0  0  0  0  0  0  0  0  0  0  0  0
   45.7570   32.6470   46.2920 C   0  0  0  0  0  0  0  0  0  0  0  0
   46.0950   31.2520   46.0550 C   0  0  0  0  0  0  0  0  0  0  0  0
   45.8920   30.3170   47.0120 N   0  0  0  0  0  0  0  0  0  0  0  0
   45.3600   30.7000   48.2210 C   0  0  0  0  0  0  0  0  0  0  0  0
   45.0330   32.0090   48.4770 N   0  0  0  0  0  0  0  0  0  0  0  0
   45.8630   33.6480   45.2570 C   0  0  2  0  0  0  0  0  0  0  0  0
   44.8400   34.8490   45.7440 C   0  0  0  0  0  0  0  0  0  0  0  0
   44.5440   35.8740   44.8100 C   0  0  0  0  0  0  0  0  0  0  0  0
   45.1450   35.7710   43.4570 C   0  0  0  0  0  0  0  0  0  0  0  0
   45.7780   34.5290   43.0580 C   0  0  0  0  0  0  0  0  0  0  0  0
   45.4280   33.3850   43.9440 C   0  0  0  0  0  0  0  0  0  0  0  0
   46.7070   30.6130   44.9280 C   0  0  0  0  0  0  0  0  0  0  0  0
   48.0640   30.6340   44.8150 N   0  0  0  0  0  0  0  0  0  0  0  0
   48.3610   29.9940   43.7170 O   0  0  0  0  0  0  0  0  0  0  0  0
   47.3300   29.5610   43.1110 C   0  0  0  0  0  0  0  0  0  0  0  0
   46.2860   29.9290   43.8400 N   0  0  0  0  0  0  0  0  0  0  0  0
   47.1910   28.7960   41.8520 C   0  0  0  0  0  0  0  0  0  0  0  0
   46.0020   28.5700   41.1170 C   0  0  0  0  0  0  0  0  0  0  0  0
   46.1490   27.8290   39.9880 C   0  0  0  0  0  0  0  0  0  0  0  0
   47.4180   27.2930   39.5400 C   0  0  0  0  0  0  0  0  0  0  0  0
   48.5100   27.9760   40.9700 S   0  0  0  0  0  0  0  0  0  0  0  0
   44.9600   34.0199   47.7558 H   0  0  0  0  0  0  0  0  0  0  0  0
   45.1928   29.9414   48.9998 H   0  0  0  0  0  0  0  0  0  0  0  0
   46.9471   33.8132   45.1712 H   0  0  0  0  0  0  0  0  0  0  0  0
   44.4048   34.8538   46.7542 H   0  0  0  0  0  0  0  0  0  0  0  0
   43.8909   36.7172   45.0792 H   0  0  0  0  0  0  0  0  0  0  0  0
   44.3417   35.9699   42.7323 H   0  0  0  0  0  0  0  0  0  0  0  0
   45.9755   36.4918   43.4835 H   0  0  0  0  0  0  0  0  0  0  0  0
   45.4607   34.2878   42.0328 H   0  0  0  0  0  0  0  0  0  0  0  0
   46.8657   34.6776   43.1279 H   0  0  0  0  0  0  0  0  0  0  0  0
   44.3373   33.2423   43.9424 H   0  0  0  0  0  0  0  0  0  0  0  0
   45.9216   32.4745   43.5735 H   0  0  0  0  0  0  0  0  0  0  0  0
   45.0275   28.9667   41.4378 H   0  0  0  0  0  0  0  0  0  0  0  0
   45.2551   27.6247   39.3804 H   0  0  0  0  0  0  0  0  0  0  0  0
   47.6763   26.6864   38.6595 H   0  0  0  0  0  0  0  0  0  0  0  0
  1  6  2  0
  2  1  1  0
  3  2  2  0
  3  4  1  0
  4  5  2  0
  5  6  1  0
  7  8  1  0
  7  2  1  0
  9  8  2  0
 10  9  1  0
 11 10  1  0
 11 12  1  0
 12  7  1  0
 13  3  1  0
 14 13  2  0
 15 14  1  0
 16 15  1  0
 16 17  2  0
 17 13  1  0
 18 16  1  0
 19 18  2  0
 20 19  1  0
 21 20  2  0
 21 22  1  0
 22 18  1  0
  1 23  1  0
  5 24  1  0
  7 25  1  6
  8 26  1  0
  9 27  1  0
 10 28  1  0
 10 29  1  0
 11 30  1  0
 11 31  1  0
 12 32  1  0
 12 33  1  0
 19 34  1  0
 20 35  1  0
 21 36  1  0
M  ISO  8  23  14  24  14  25  13  26  13  27  13  28  13  29  13  30  13
M  ISO  6  31  13  32  13  33  13  34  14  35  14  36  14
M  END
>  <minimizedAffinity>  (1) 
-4.10455036

>  <minimizedRMSD>  (1) 
0.239663854

$$$$
