
     RDKit          3D

 34 37  0  0  1  0  0  0  0  0999 V2000
   45.1780   32.8240   47.6150 C   0  0  0  0  0  0  0  0  0  0  0  0
   45.7280   32.5130   46.3720 C   0  0  0  0  0  0  0  0  0  0  0  0
   46.1960   31.1830   46.1540 C   0  0  0  0  0  0  0  0  0  0  0  0
   46.0940   30.2850   47.1420 N   0  0  0  0  0  0  0  0  0  0  0  0
   45.5510   30.6230   48.3480 C   0  0  0  0  0  0  0  0  0  0  0  0
   45.0970   31.8860   48.5770 N   0  0  0  0  0  0  0  0  0  0  0  0
   45.8630   33.5710   45.3670 C   0  0  2  0  0  0  0  0  0  0  0  0
   45.0030   34.7670   45.7990 C   0  0  0  0  0  0  0  0  0  0  0  0
   44.5030   35.6720   44.7960 C   0  0  0  0  0  0  0  0  0  0  0  0
   44.8440   35.4290   43.3740 C   0  0  0  0  0  0  0  0  0  0  0  0
   45.8590   34.3930   43.1330 C   0  0  0  0  0  0  0  0  0  0  0  0
   45.5130   33.1840   43.9950 C   0  0  0  0  0  0  0  0  0  0  0  0
   46.7640   30.5520   45.0070 C   0  0  0  0  0  0  0  0  0  0  0  0
   48.0430   30.6850   44.7030 N   0  0  0  0  0  0  0  0  0  0  0  0
   48.2730   30.0030   43.6150 O   0  0  0  0  0  0  0  0  0  0  0  0
   47.2280   29.4200   43.1660 C   0  0  0  0  0  0  0  0  0  0  0  0
   46.2550   29.7350   44.0090 N   0  0  0  0  0  0  0  0  0  0  0  0
   47.0830   28.5740   41.9850 C   0  0  0  0  0  0  0  0  0  0  0  0
   47.9660   27.7300   41.4290 N   0  0  0  0  0  0  0  0  0  0  0  0
   47.4360   27.1710   40.3860 O   0  0  0  0  0  0  0  0  0  0  0  0
   46.2250   27.6010   40.2050 C   0  0  0  0  0  0  0  0  0  0  0  0
   46.0060   28.4650   41.1890 N   0  0  0  0  0  0  0  0  0  0  0  0
   44.8083   33.8414   47.8105 H   0  0  0  0  0  0  0  0  0  0  0  0
   45.4795   29.8667   49.1435 H   0  0  0  0  0  0  0  0  0  0  0  0
   46.9339   33.8193   45.3279 H   0  0  0  0  0  0  0  0  0  0  0  0
   44.7713   34.9310   46.8618 H   0  0  0  0  0  0  0  0  0  0  0  0
   43.8774   36.5307   45.0811 H   0  0  0  0  0  0  0  0  0  0  0  0
   43.9236   35.1293   42.8515 H   0  0  0  0  0  0  0  0  0  0  0  0
   45.2791   36.3690   43.0037 H   0  0  0  0  0  0  0  0  0  0  0  0
   45.8557   34.1072   42.0708 H   0  0  0  0  0  0  0  0  0  0  0  0
   46.8594   34.7714   43.3899 H   0  0  0  0  0  0  0  0  0  0  0  0
   44.4399   32.9536   43.9219 H   0  0  0  0  0  0  0  0  0  0  0  0
   46.0556   32.2830   43.6729 H   0  0  0  0  0  0  0  0  0  0  0  0
   45.5275   27.3110   39.4054 H   0  0  0  0  0  0  0  0  0  0  0  0
  1  6  2  0
  2  1  1  0
  3  2  2  0
  3  4  1  0
  4  5  2  0
  5  6  1  0
  7  8  1  0
  7  2  1  0
  9  8  2  0
 10  9  1  0
 11 10  1  0
 11 12  1  0
 12  7  1  0
 13  3  1  0
 14 13  2  0
 15 14  1  0
 16 15  1  0
 16 17  2  0
 17 13  1  0
 18 16  1  0
 19 18  2  0
 20 19  1  0
 21 20  1  0
 21 22  2  0
 22 18  1  0
  1 23  1  0
  5 24  1  0
  7 25  1  6
  8 26  1  0
  9 27  1  0
 10 28  1  0
 10 29  1  0
 11 30  1  0
 11 31  1  0
 12 32  1  0
 12 33  1  0
 21 34  1  0
M  ISO  8  23  14  24  14  25  13  26  13  27  13  28  13  29  13  30  13
M  ISO  4  31  13  32  13  33  13  34  14
M  END
>  <minimizedAffinity>  (1) 
-3.93546653

>  <minimizedRMSD>  (1) 
0.230723664

$$$$
