
     RDKit          3D

 38 41  0  0  1  0  0  0  0  0999 V2000
   45.1630   32.7930   47.6450 C   0  0  0  0  0  0  0  0  0  0  0  0
   45.7280   32.5080   46.4040 C   0  0  0  0  0  0  0  0  0  0  0  0
   46.2110   31.1890   46.1660 C   0  0  0  0  0  0  0  0  0  0  0  0
   46.1110   30.2710   47.1370 N   0  0  0  0  0  0  0  0  0  0  0  0
   45.5540   30.5810   48.3430 C   0  0  0  0  0  0  0  0  0  0  0  0
   45.0830   31.8380   48.5900 N   0  0  0  0  0  0  0  0  0  0  0  0
   45.8890   33.5920   45.4300 C   0  0  2  0  0  0  0  0  0  0  0  0
   44.9900   34.7580   45.8410 C   0  0  0  0  0  0  0  0  0  0  0  0
   44.5100   35.6710   44.8330 C   0  0  0  0  0  0  0  0  0  0  0  0
   44.9160   35.4570   43.4220 C   0  0  0  0  0  0  0  0  0  0  0  0
   45.9660   34.4500   43.2130 C   0  0  0  0  0  0  0  0  0  0  0  0
   45.5970   33.2160   44.0340 C   0  0  0  0  0  0  0  0  0  0  0  0
   46.7790   30.5810   45.0060 C   0  0  0  0  0  0  0  0  0  0  0  0
   48.0640   30.6820   44.7290 N   0  0  0  0  0  0  0  0  0  0  0  0
   48.2940   30.0300   43.6240 O   0  0  0  0  0  0  0  0  0  0  0  0
   47.2420   29.4940   43.1360 C   0  0  0  0  0  0  0  0  0  0  0  0
   46.2640   29.8140   43.9710 N   0  0  0  0  0  0  0  0  0  0  0  0
   47.1100   28.6880   41.9120 C   0  0  0  0  0  0  0  0  0  0  0  0
   46.3370   29.1300   40.8570 C   0  0  0  0  0  0  0  0  0  0  0  0
   46.2540   28.3240   39.7310 C   0  0  0  0  0  0  0  0  0  0  0  0
   46.9230   27.1110   39.6560 C   0  0  0  0  0  0  0  0  0  0  0  0
   47.6830   26.7120   40.7320 C   0  0  0  0  0  0  0  0  0  0  0  0
   47.7620   27.4960   41.8260 N   0  0  0  0  0  0  0  0  0  0  0  0
   44.7805   33.8031   47.8535 H   0  0  0  0  0  0  0  0  0  0  0  0
   45.4837   29.8100   49.1244 H   0  0  0  0  0  0  0  0  0  0  0  0
   46.9539   33.8672   45.4458 H   0  0  0  0  0  0  0  0  0  0  0  0
   44.7118   34.8994   46.8958 H   0  0  0  0  0  0  0  0  0  0  0  0
   43.8544   36.5112   45.1055 H   0  0  0  0  0  0  0  0  0  0  0  0
   44.0263   35.1416   42.8572 H   0  0  0  0  0  0  0  0  0  0  0  0
   45.3409   36.4126   43.0811 H   0  0  0  0  0  0  0  0  0  0  0  0
   46.0252   34.1864   42.1467 H   0  0  0  0  0  0  0  0  0  0  0  0
   46.9442   34.8429   43.5271 H   0  0  0  0  0  0  0  0  0  0  0  0
   44.5308   32.9743   43.9126 H   0  0  0  0  0  0  0  0  0  0  0  0
   46.1576   32.3239   43.7180 H   0  0  0  0  0  0  0  0  0  0  0  0
   45.8038   30.0908   40.9076 H   0  0  0  0  0  0  0  0  0  0  0  0
   45.6435   28.6544   38.8777 H   0  0  0  0  0  0  0  0  0  0  0  0
   46.8478   26.4821   38.7567 H   0  0  0  0  0  0  0  0  0  0  0  0
   48.2249   25.7553   40.6994 H   0  0  0  0  0  0  0  0  0  0  0  0
  1  6  2  0
  2  1  1  0
  3  2  2  0
  3  4  1  0
  4  5  2  0
  5  6  1  0
  7  8  1  0
  7  2  1  0
  9  8  2  0
 10  9  1  0
 11 10  1  0
 11 12  1  0
 12  7  1  0
 13  3  1  0
 14 13  2  0
 15 14  1  0
 16 15  1  0
 16 17  2  0
 17 13  1  0
 18 16  1  0
 19 18  2  0
 20 19  1  0
 21 20  2  0
 21 22  1  0
 22 23  2  0
 23 18  1  0
  1 24  1  0
  5 25  1  0
  7 26  1  6
  8 27  1  0
  9 28  1  0
 10 29  1  0
 10 30  1  0
 11 31  1  0
 11 32  1  0
 12 33  1  0
 12 34  1  0
 19 35  1  0
 20 36  1  0
 21 37  1  0
 22 38  1  0
M  ISO  8  24  14  25  14  26  13  27  13  28  13  29  13  30  13  31  13
M  ISO  7  32  13  33  13  34  13  35  14  36  14  37  14  38  14
M  END
>  <minimizedAffinity>  (1) 
-3.97548461

>  <minimizedRMSD>  (1) 
0.137315497

$$$$
