
     RDKit          3D

 37 40  0  0  1  0  0  0  0  0999 V2000
   45.1750   32.8140   47.6190 C   0  0  0  0  0  0  0  0  0  0  0  0
   45.7250   32.5270   46.3610 C   0  0  0  0  0  0  0  0  0  0  0  0
   46.1850   31.1970   46.1270 C   0  0  0  0  0  0  0  0  0  0  0  0
   46.0730   30.2850   47.1020 N   0  0  0  0  0  0  0  0  0  0  0  0
   45.5290   30.6060   48.3120 C   0  0  0  0  0  0  0  0  0  0  0  0
   45.0860   31.8630   48.5590 N   0  0  0  0  0  0  0  0  0  0  0  0
   45.8640   33.6030   45.3780 C   0  0  2  0  0  0  0  0  0  0  0  0
   44.9840   34.7660   45.8120 C   0  0  0  0  0  0  0  0  0  0  0  0
   44.5050   35.7090   44.8460 C   0  0  0  0  0  0  0  0  0  0  0  0
   44.9040   35.5230   43.4290 C   0  0  0  0  0  0  0  0  0  0  0  0
   45.8090   34.4240   43.1300 C   0  0  0  0  0  0  0  0  0  0  0  0
   45.4920   33.2170   43.9960 C   0  0  0  0  0  0  0  0  0  0  0  0
   46.7560   30.5840   44.9740 C   0  0  0  0  0  0  0  0  0  0  0  0
   48.0460   30.6950   44.7060 N   0  0  0  0  0  0  0  0  0  0  0  0
   48.2840   30.0390   43.6060 O   0  0  0  0  0  0  0  0  0  0  0  0
   47.2400   29.4920   43.1130 C   0  0  0  0  0  0  0  0  0  0  0  0
   46.2550   29.8090   43.9420 N   0  0  0  0  0  0  0  0  0  0  0  0
   47.0940   28.6790   41.8990 C   0  0  0  0  0  0  0  0  0  0  0  0
   46.3220   29.1240   40.8260 C   0  0  0  0  0  0  0  0  0  0  0  0
   46.2490   28.2950   39.7460 C   0  0  0  0  0  0  0  0  0  0  0  0
   46.8730   27.1060   39.6810 N   0  0  0  0  0  0  0  0  0  0  0  0
   47.6260   26.6740   40.7330 C   0  0  0  0  0  0  0  0  0  0  0  0
   47.6920   27.4980   41.7940 N   0  0  0  0  0  0  0  0  0  0  0  0
   44.8131   33.8298   47.8362 H   0  0  0  0  0  0  0  0  0  0  0  0
   45.4493   29.8370   49.0945 H   0  0  0  0  0  0  0  0  0  0  0  0
   46.9308   33.8697   45.3499 H   0  0  0  0  0  0  0  0  0  0  0  0
   44.7145   34.8831   46.8720 H   0  0  0  0  0  0  0  0  0  0  0  0
   43.8595   36.5475   45.1462 H   0  0  0  0  0  0  0  0  0  0  0  0
   43.9855   35.3630   42.8453 H   0  0  0  0  0  0  0  0  0  0  0  0
   45.4685   36.4317   43.1727 H   0  0  0  0  0  0  0  0  0  0  0  0
   45.7026   34.1465   42.0709 H   0  0  0  0  0  0  0  0  0  0  0  0
   46.8395   34.7478   43.3379 H   0  0  0  0  0  0  0  0  0  0  0  0
   44.4200   32.9768   43.9407 H   0  0  0  0  0  0  0  0  0  0  0  0
   46.0415   32.3241   43.6631 H   0  0  0  0  0  0  0  0  0  0  0  0
   45.8000   30.0920   40.8498 H   0  0  0  0  0  0  0  0  0  0  0  0
   45.6479   28.6159   38.8825 H   0  0  0  0  0  0  0  0  0  0  0  0
   48.1495   25.7067   40.7147 H   0  0  0  0  0  0  0  0  0  0  0  0
  1  6  2  0
  2  1  1  0
  3  2  2  0
  3  4  1  0
  4  5  2  0
  5  6  1  0
  7  8  1  0
  7  2  1  0
  9  8  2  0
 10  9  1  0
 11 10  1  0
 11 12  1  0
 12  7  1  0
 13  3  1  0
 14 13  2  0
 15 14  1  0
 16 15  1  0
 16 17  2  0
 17 13  1  0
 18 16  1  0
 19 18  2  0
 20 19  1  0
 21 20  2  0
 21 22  1  0
 22 23  2  0
 23 18  1  0
  1 24  1  0
  5 25  1  0
  7 26  1  6
  8 27  1  0
  9 28  1  0
 10 29  1  0
 10 30  1  0
 11 31  1  0
 11 32  1  0
 12 33  1  0
 12 34  1  0
 19 35  1  0
 20 36  1  0
 22 37  1  0
M  ISO  8  24  14  25  14  26  13  27  13  28  13  29  13  30  13  31  13
M  ISO  6  32  13  33  13  34  13  35  14  36  14  37  14
M  END
>  <minimizedAffinity>  (1) 
-3.97459102

>  <minimizedRMSD>  (1) 
0.122468777

$$$$
