
     RDKit          3D

 40 43  0  0  1  0  0  0  0  0999 V2000
   45.1530   32.7030   47.5230 C   0  0  0  0  0  0  0  0  0  0  0  0
   45.7680   32.5480   46.2650 C   0  0  0  0  0  0  0  0  0  0  0  0
   46.2850   31.2700   45.9490 C   0  0  0  0  0  0  0  0  0  0  0  0
   46.1870   30.2730   46.8250 N   0  0  0  0  0  0  0  0  0  0  0  0
   45.5880   30.4660   48.0330 C   0  0  0  0  0  0  0  0  0  0  0  0
   45.0740   31.6880   48.3710 N   0  0  0  0  0  0  0  0  0  0  0  0
   45.9440   33.7370   45.4200 C   0  0  2  0  0  0  0  0  0  0  0  0
   44.9780   34.7950   45.8240 C   0  0  0  0  0  0  0  0  0  0  0  0
   44.4790   35.7400   44.8340 C   0  0  0  0  0  0  0  0  0  0  0  0
   44.9590   35.6270   43.4240 C   0  0  0  0  0  0  0  0  0  0  0  0
   46.0880   34.7400   43.2520 C   0  0  0  0  0  0  0  0  0  0  0  0
   45.7450   33.4070   43.9510 C   0  0  0  0  0  0  0  0  0  0  0  0
   46.9030   30.7780   44.7550 C   0  0  0  0  0  0  0  0  0  0  0  0
   48.1920   30.6460   44.6200 N   0  0  0  0  0  0  0  0  0  0  0  0
   48.4460   30.1800   43.4280 O   0  0  0  0  0  0  0  0  0  0  0  0
   47.3980   29.9880   42.7410 C   0  0  0  0  0  0  0  0  0  0  0  0
   46.4020   30.3440   43.5200 N   0  0  0  0  0  0  0  0  0  0  0  0
   47.2860   29.4800   41.3690 C   0  0  0  0  0  0  0  0  0  0  0  0
   47.2130   28.2270   41.1730 O   0  0  0  0  0  0  0  0  0  0  0  0
   47.2550   30.3590   40.2040 C   0  0  0  0  0  0  0  0  0  0  0  0
   47.0840   29.7570   38.9790 C   0  0  0  0  0  0  0  0  0  0  0  0
   47.0450   30.5390   37.8190 C   0  0  0  0  0  0  0  0  0  0  0  0
   47.1850   31.9200   37.9810 C   0  0  0  0  0  0  0  0  0  0  0  0
   47.3550   32.4770   39.2350 C   0  0  0  0  0  0  0  0  0  0  0  0
   47.3900   31.6890   40.3490 N   0  0  0  0  0  0  0  0  0  0  0  0
   44.7328   33.6797   47.8050 H   0  0  0  0  0  0  0  0  0  0  0  0
   45.5168   29.6302   48.7446 H   0  0  0  0  0  0  0  0  0  0  0  0
   46.9737   34.0984   45.5582 H   0  0  0  0  0  0  0  0  0  0  0  0
   44.6413   34.8632   46.8690 H   0  0  0  0  0  0  0  0  0  0  0  0
   43.7613   36.5231   45.1198 H   0  0  0  0  0  0  0  0  0  0  0  0
   44.1293   35.2533   42.8059 H   0  0  0  0  0  0  0  0  0  0  0  0
   45.2960   36.6300   43.1232 H   0  0  0  0  0  0  0  0  0  0  0  0
   46.2687   34.5663   42.1810 H   0  0  0  0  0  0  0  0  0  0  0  0
   46.9964   35.1820   43.6874 H   0  0  0  0  0  0  0  0  0  0  0  0
   44.7054   33.1096   43.7489 H   0  0  0  0  0  0  0  0  0  0  0  0
   46.3611   32.5633   43.6066 H   0  0  0  0  0  0  0  0  0  0  0  0
   46.9782   28.6642   38.9114 H   0  0  0  0  0  0  0  0  0  0  0  0
   46.9103   30.0873   36.8251 H   0  0  0  0  0  0  0  0  0  0  0  0
   47.1595   32.5741   37.0970 H   0  0  0  0  0  0  0  0  0  0  0  0
   47.4632   33.5670   39.3360 H   0  0  0  0  0  0  0  0  0  0  0  0
  1  6  2  0
  2  1  1  0
  3  2  2  0
  3  4  1  0
  4  5  2  0
  5  6  1  0
  7  8  1  0
  7  2  1  0
  9  8  2  0
 10  9  1  0
 11 10  1  0
 11 12  1  0
 12  7  1  0
 13  3  1  0
 14 13  2  0
 15 14  1  0
 16 15  1  0
 16 17  2  0
 17 13  1  0
 18 16  1  0
 19 18  2  0
 20 25  1  0
 20 18  1  0
 21 20  2  0
 22 23  2  0
 22 21  1  0
 23 24  1  0
 24 25  2  0
  1 26  1  0
  5 27  1  0
  7 28  1  6
  8 29  1  0
  9 30  1  0
 10 31  1  0
 10 32  1  0
 11 33  1  0
 11 34  1  0
 12 35  1  0
 12 36  1  0
 21 37  1  0
 22 38  1  0
 23 39  1  0
 24 40  1  0
M  ISO  8  26  14  27  14  28  13  29  13  30  13  31  13  32  13  33  13
M  ISO  7  34  13  35  13  36  13  37  14  38  14  39  14  40  14
M  END
>  <minimizedAffinity>  (1) 
-4.22332478

>  <minimizedRMSD>  (1) 
3.12345004

$$$$
