
     RDKit          3D

 41 44  0  0  1  0  0  0  0  0999 V2000
   45.1870   31.5740   47.4060 C   0  0  0  0  0  0  0  0  0  0  0  0
   46.0250   31.8190   46.3070 C   0  0  0  0  0  0  0  0  0  0  0  0
   46.9110   30.7860   45.9130 C   0  0  0  0  0  0  0  0  0  0  0  0
   46.9270   29.6350   46.5800 N   0  0  0  0  0  0  0  0  0  0  0  0
   46.0970   29.4360   47.6460 C   0  0  0  0  0  0  0  0  0  0  0  0
   45.2300   30.4110   48.0490 N   0  0  0  0  0  0  0  0  0  0  0  0
   46.0270   33.1660   45.7140 C   0  0  2  0  0  0  0  0  0  0  0  0
   45.2000   34.0890   46.5380 C   0  0  0  0  0  0  0  0  0  0  0  0
   44.5140   35.2020   45.9050 C   0  0  0  0  0  0  0  0  0  0  0  0
   44.6660   35.4100   44.4360 C   0  0  0  0  0  0  0  0  0  0  0  0
   45.7070   34.6070   43.8210 C   0  0  0  0  0  0  0  0  0  0  0  0
   45.5220   33.1490   44.2880 C   0  0  0  0  0  0  0  0  0  0  0  0
   47.8300   30.7010   44.8190 C   0  0  0  0  0  0  0  0  0  0  0  0
   48.5810   29.6630   44.5940 N   0  0  0  0  0  0  0  0  0  0  0  0
   49.3070   29.8880   43.5350 O   0  0  0  0  0  0  0  0  0  0  0  0
   49.0900   31.0260   43.0240 C   0  0  0  0  0  0  0  0  0  0  0  0
   48.1730   31.5830   43.7830 N   0  0  0  0  0  0  0  0  0  0  0  0
   49.7060   31.6450   41.8340 C   0  0  0  0  0  0  0  0  0  0  0  0
   50.4220   30.9670   41.0570 O   0  0  0  0  0  0  0  0  0  0  0  0
   49.4320   33.0660   41.6270 C   0  0  0  0  0  0  0  0  0  0  0  0
   49.9850   34.0670   42.3890 C   0  0  0  0  0  0  0  0  0  0  0  0
   49.7290   35.4000   42.2040 C   0  0  0  0  0  0  0  0  0  0  0  0
   48.8600   35.7370   41.1850 C   0  0  0  0  0  0  0  0  0  0  0  0
   48.2730   34.8040   40.3890 C   0  0  0  0  0  0  0  0  0  0  0  0
   48.5640   33.4720   40.6170 C   0  0  0  0  0  0  0  0  0  0  0  0
   44.4862   32.3536   47.7394 H   0  0  0  0  0  0  0  0  0  0  0  0
   46.1272   28.4785   48.1867 H   0  0  0  0  0  0  0  0  0  0  0  0
   47.0671   33.5236   45.6976 H   0  0  0  0  0  0  0  0  0  0  0  0
   45.1086   33.9290   47.6224 H   0  0  0  0  0  0  0  0  0  0  0  0
   43.8899   35.8833   46.5020 H   0  0  0  0  0  0  0  0  0  0  0  0
   43.7095   35.1619   43.9527 H   0  0  0  0  0  0  0  0  0  0  0  0
   44.9572   36.4615   44.2964 H   0  0  0  0  0  0  0  0  0  0  0  0
   46.6957   34.9759   44.1316 H   0  0  0  0  0  0  0  0  0  0  0  0
   45.6401   34.6687   42.7248 H   0  0  0  0  0  0  0  0  0  0  0  0
   44.4625   32.8557   44.2499 H   0  0  0  0  0  0  0  0  0  0  0  0
   46.0558   32.4259   43.6539 H   0  0  0  0  0  0  0  0  0  0  0  0
   50.6750   33.7806   43.1964 H   0  0  0  0  0  0  0  0  0  0  0  0
   50.1950   36.1679   42.8390 H   0  0  0  0  0  0  0  0  0  0  0  0
   48.6344   36.7994   41.0109 H   0  0  0  0  0  0  0  0  0  0  0  0
   47.5844   35.1014   39.5844 H   0  0  0  0  0  0  0  0  0  0  0  0
   48.0945   32.7081   39.9798 H   0  0  0  0  0  0  0  0  0  0  0  0
  1  6  2  0
  2  1  1  0
  3  2  2  0
  3  4  1  0
  4  5  2  0
  5  6  1  0
  7  2  1  0
  7  8  1  0
  9  8  2  0
 10  9  1  0
 11 12  1  0
 11 10  1  0
 12  7  1  0
 13  3  1  0
 14 13  2  0
 15 14  1  0
 16 15  1  0
 16 17  2  0
 17 13  1  0
 18 16  1  0
 19 18  2  0
 20 18  1  0
 20 21  2  0
 22 21  1  0
 23 22  2  0
 24 25  2  0
 24 23  1  0
 25 20  1  0
  1 26  1  0
  5 27  1  0
  7 28  1  6
  8 29  1  0
  9 30  1  0
 10 31  1  0
 10 32  1  0
 11 33  1  0
 11 34  1  0
 12 35  1  0
 12 36  1  0
 21 37  1  0
 22 38  1  0
 23 39  1  0
 24 40  1  0
 25 41  1  0
M  ISO  8  26  14  27  14  28  13  29  13  30  13  31  13  32  13  33  13
M  ISO  8  34  13  35  13  36  13  37  14  38  14  39  14  40  14  41  14
M  END
>  <minimizedAffinity>  (1) 
-5.81244326

>  <minimizedRMSD>  (1) 
4.67686749

$$$$
