
     RDKit          3D

 33 35  0  0  1  0  0  0  0  0999 V2000
   45.1490   32.7760   47.5930 C   0  0  0  0  0  0  0  0  0  0  0  0
   45.7330   32.4980   46.3400 C   0  0  0  0  0  0  0  0  0  0  0  0
   46.2360   31.1870   46.1370 C   0  0  0  0  0  0  0  0  0  0  0  0
   46.1480   30.2800   47.1070 N   0  0  0  0  0  0  0  0  0  0  0  0
   45.5760   30.5920   48.3040 C   0  0  0  0  0  0  0  0  0  0  0  0
   45.0790   31.8440   48.5360 N   0  0  0  0  0  0  0  0  0  0  0  0
   45.8990   33.6000   45.3770 C   0  0  2  0  0  0  0  0  0  0  0  0
   45.0550   34.7590   45.7890 C   0  0  0  0  0  0  0  0  0  0  0  0
   44.4970   35.6390   44.7700 C   0  0  0  0  0  0  0  0  0  0  0  0
   44.8030   35.3840   43.3400 C   0  0  0  0  0  0  0  0  0  0  0  0
   45.8660   34.4040   43.1180 C   0  0  0  0  0  0  0  0  0  0  0  0
   45.5190   33.1660   43.9760 C   0  0  0  0  0  0  0  0  0  0  0  0
   46.8190   30.5780   44.9820 C   0  0  0  0  0  0  0  0  0  0  0  0
   48.0770   30.7020   44.6700 N   0  0  0  0  0  0  0  0  0  0  0  0
   48.3070   30.0400   43.5700 O   0  0  0  0  0  0  0  0  0  0  0  0
   47.2700   29.4700   43.1150 C   0  0  0  0  0  0  0  0  0  0  0  0
   46.3080   29.7700   43.9570 N   0  0  0  0  0  0  0  0  0  0  0  0
   47.1490   28.6460   41.9050 C   0  0  0  0  0  0  0  0  0  0  0  0
   46.6190   29.1170   40.8590 O   0  0  0  0  0  0  0  0  0  0  0  0
   47.6260   27.3030   41.8800 N   0  0  0  0  0  0  0  0  0  0  0  0
   44.7455   33.7798   47.7921 H   0  0  0  0  0  0  0  0  0  0  0  0
   45.5136   29.8275   49.0925 H   0  0  0  0  0  0  0  0  0  0  0  0
   46.9590   33.8940   45.3709 H   0  0  0  0  0  0  0  0  0  0  0  0
   44.8553   34.9481   46.8541 H   0  0  0  0  0  0  0  0  0  0  0  0
   43.8549   36.4845   45.0580 H   0  0  0  0  0  0  0  0  0  0  0  0
   43.8882   35.0166   42.8520 H   0  0  0  0  0  0  0  0  0  0  0  0
   45.1589   36.3360   42.9191 H   0  0  0  0  0  0  0  0  0  0  0  0
   45.9097   34.1272   42.0543 H   0  0  0  0  0  0  0  0  0  0  0  0
   46.8469   34.8157   43.3980 H   0  0  0  0  0  0  0  0  0  0  0  0
   44.4464   32.9303   43.9131 H   0  0  0  0  0  0  0  0  0  0  0  0
   46.0409   32.2543   43.6497 H   0  0  0  0  0  0  0  0  0  0  0  0
   47.5331   26.7393   41.0229 H   0  0  0  0  0  0  0  0  0  0  0  0
   48.0636   26.8962   42.7190 H   0  0  0  0  0  0  0  0  0  0  0  0
  1  6  2  0
  2  1  1  0
  3  2  2  0
  3  4  1  0
  4  5  2  0
  5  6  1  0
  7  8  1  0
  7  2  1  0
  9  8  2  0
 10  9  1  0
 11 10  1  0
 11 12  1  0
 12  7  1  0
 13  3  1  0
 14 13  2  0
 15 14  1  0
 16 15  1  0
 16 17  2  0
 17 13  1  0
 18 16  1  0
 19 18  2  0
 20 18  1  0
  1 21  1  0
  5 22  1  0
  7 23  1  6
  8 24  1  0
  9 25  1  0
 10 26  1  0
 10 27  1  0
 11 28  1  0
 11 29  1  0
 12 30  1  0
 12 31  1  0
 20 32  1  0
 20 33  1  0
M  ISO  8  21  14  22  14  23  13  24  13  25  13  26  13  27  13  28  13
M  ISO  3  29  13  30  13  31  13
M  END
>  <minimizedAffinity>  (1) 
-3.85841703

>  <minimizedRMSD>  (1) 
0.0606833845

$$$$
