
     RDKit          3D

 37 40  0  0  1  0  0  0  0  0999 V2000
   45.1560   32.7710   47.6550 C   0  0  0  0  0  0  0  0  0  0  0  0
   45.7420   32.4930   46.4050 C   0  0  0  0  0  0  0  0  0  0  0  0
   46.2280   31.1790   46.1980 C   0  0  0  0  0  0  0  0  0  0  0  0
   46.1250   30.2660   47.1620 N   0  0  0  0  0  0  0  0  0  0  0  0
   45.5500   30.5810   48.3580 C   0  0  0  0  0  0  0  0  0  0  0  0
   45.0690   31.8350   48.5930 N   0  0  0  0  0  0  0  0  0  0  0  0
   45.9140   33.5980   45.4500 C   0  0  2  0  0  0  0  0  0  0  0  0
   45.0310   34.7340   45.8420 C   0  0  0  0  0  0  0  0  0  0  0  0
   44.5100   35.6280   44.8190 C   0  0  0  0  0  0  0  0  0  0  0  0
   44.8830   35.4080   43.4050 C   0  0  0  0  0  0  0  0  0  0  0  0
   45.9370   34.4180   43.2000 C   0  0  0  0  0  0  0  0  0  0  0  0
   45.5650   33.1740   44.0400 C   0  0  0  0  0  0  0  0  0  0  0  0
   46.8130   30.5710   45.0400 C   0  0  0  0  0  0  0  0  0  0  0  0
   48.0700   30.6900   44.7250 N   0  0  0  0  0  0  0  0  0  0  0  0
   48.2940   30.0240   43.6280 O   0  0  0  0  0  0  0  0  0  0  0  0
   47.2560   29.4560   43.1770 C   0  0  0  0  0  0  0  0  0  0  0  0
   46.2940   29.7610   44.0180 N   0  0  0  0  0  0  0  0  0  0  0  0
   47.1020   28.6220   41.9720 C   0  0  0  0  0  0  0  0  0  0  0  0
   46.7760   29.1440   40.8770 O   0  0  0  0  0  0  0  0  0  0  0  0
   47.3350   27.1870   42.0800 C   0  0  0  0  0  0  0  0  0  0  0  0
   47.2990   26.4530   40.8530 C   0  0  0  0  0  0  0  0  0  0  0  0
   47.6420   24.6880   41.4490 S   0  0  0  0  0  0  0  0  0  0  0  0
   47.7610   25.3140   43.2370 C   0  0  0  0  0  0  0  0  0  0  0  0
   47.5770   26.4220   43.1170 N   0  0  0  0  0  0  0  0  0  0  0  0
   44.7644   33.7788   47.8575 H   0  0  0  0  0  0  0  0  0  0  0  0
   45.4734   29.8139   49.1427 H   0  0  0  0  0  0  0  0  0  0  0  0
   46.9711   33.9015   45.4720 H   0  0  0  0  0  0  0  0  0  0  0  0
   44.7748   34.8953   46.8995 H   0  0  0  0  0  0  0  0  0  0  0  0
   43.8450   36.4597   45.0948 H   0  0  0  0  0  0  0  0  0  0  0  0
   43.9870   35.0723   42.8623 H   0  0  0  0  0  0  0  0  0  0  0  0
   45.2789   36.3653   43.0350 H   0  0  0  0  0  0  0  0  0  0  0  0
   45.9995   34.1489   42.1352 H   0  0  0  0  0  0  0  0  0  0  0  0
   46.9143   34.8187   43.5070 H   0  0  0  0  0  0  0  0  0  0  0  0
   44.4933   32.9427   43.9506 H   0  0  0  0  0  0  0  0  0  0  0  0
   46.0897   32.2619   43.7194 H   0  0  0  0  0  0  0  0  0  0  0  0
   47.1192   26.8179   39.8310 H   0  0  0  0  0  0  0  0  0  0  0  0
   47.9588   24.7430   44.1562 H   0  0  0  0  0  0  0  0  0  0  0  0
  1  6  2  0
  2  1  1  0
  3  2  2  0
  3  4  1  0
  4  5  2  0
  5  6  1  0
  7  8  1  0
  7  2  1  0
  9  8  2  0
 10  9  1  0
 11 10  1  0
 11 12  1  0
 12  7  1  0
 13  3  1  0
 14 13  2  0
 15 14  1  0
 16 15  1  0
 16 17  2  0
 17 13  1  0
 18 20  1  0
 18 16  1  0
 19 18  2  0
 20 24  1  0
 21 22  1  0
 21 20  2  0
 22 23  1  0
 24 23  2  0
  1 25  1  0
  5 26  1  0
  7 27  1  6
  8 28  1  0
  9 29  1  0
 10 30  1  0
 10 31  1  0
 11 32  1  0
 11 33  1  0
 12 34  1  0
 12 35  1  0
 21 36  1  0
 23 37  1  0
M  ISO  8  25  14  26  14  27  13  28  13  29  13  30  13  31  13  32  13
M  ISO  5  33  13  34  13  35  13  36  14  37  14
M  END
>  <minimizedAffinity>  (1) 
-3.76354194

>  <minimizedRMSD>  (1) 
0.321877271

$$$$
