
     RDKit          3D

 52 56  0  0  1  0  0  0  0  0999 V2000
   45.8850   32.8830   46.1400 C   0  0  0  0  0  0  0  0  0  0  0  0
   46.4430   32.9030   44.8270 C   0  0  0  0  0  0  0  0  0  0  0  0
   47.3350   31.8410   44.5000 C   0  0  0  0  0  0  0  0  0  0  0  0
   47.6140   30.9070   45.3860 N   0  0  0  0  0  0  0  0  0  0  0  0
   47.0590   30.9290   46.6270 C   0  0  0  0  0  0  0  0  0  0  0  0
   46.1910   31.9270   46.9950 N   0  0  0  0  0  0  0  0  0  0  0  0
   46.1750   34.0770   43.9830 C   0  0  2  0  0  0  0  0  0  0  0  0
   45.3040   35.0270   44.6430 C   0  0  0  0  0  0  0  0  0  0  0  0
   44.3330   35.8120   43.8720 C   0  0  0  0  0  0  0  0  0  0  0  0
   44.2570   35.6260   42.3870 C   0  0  0  0  0  0  0  0  0  0  0  0
   45.4270   34.9410   41.8630 C   0  0  0  0  0  0  0  0  0  0  0  0
   45.5140   33.5870   42.6570 C   0  0  0  0  0  0  0  0  0  0  0  0
   47.9910   31.5430   43.2740 C   0  0  0  0  0  0  0  0  0  0  0  0
   49.0560   32.1240   42.8620 N   0  0  0  0  0  0  0  0  0  0  0  0
   49.3920   31.6280   41.7060 O   0  0  0  0  0  0  0  0  0  0  0  0
   48.5860   30.7130   41.3030 C   0  0  0  0  0  0  0  0  0  0  0  0
   47.6950   30.6150   42.2360 N   0  0  0  0  0  0  0  0  0  0  0  0
   48.7030   29.9790   40.0510 C   0  0  0  0  0  0  0  0  0  0  0  0
   47.7890   29.1620   39.6850 O   0  0  0  0  0  0  0  0  0  0  0  0
   49.8950   30.1840   39.1750 C   0  0  1  0  0  0  0  0  0  0  0  0
   49.7660   29.9360   37.7470 C   0  0  0  0  0  0  0  0  0  0  0  0
   49.7280   31.3670   38.2400 C   0  0  1  0  0  0  0  0  0  0  0  0
   48.5600   32.1110   38.0870 N   0  0  0  0  0  0  0  0  0  0  0  0
   48.5240   33.4160   38.6250 C   0  0  0  0  0  0  0  0  0  0  0  0
   48.2890   34.4710   37.5230 C   0  0  0  0  0  0  0  0  0  0  0  0
   47.0480   34.2420   36.8250 N   0  0  0  0  0  0  0  0  0  0  0  0
   46.6350   32.8490   36.8920 C   0  0  0  0  0  0  0  0  0  0  0  0
   47.9330   32.0370   36.8020 C   0  0  0  0  0  0  0  0  0  0  0  0
   45.1882   33.6780   46.4439 H   0  0  0  0  0  0  0  0  0  0  0  0
   47.3091   30.1356   47.3467 H   0  0  0  0  0  0  0  0  0  0  0  0
   47.1257   34.5917   43.7799 H   0  0  0  0  0  0  0  0  0  0  0  0
   45.3708   35.1615   45.7327 H   0  0  0  0  0  0  0  0  0  0  0  0
   43.6690   36.5283   44.3780 H   0  0  0  0  0  0  0  0  0  0  0  0
   43.3619   35.0327   42.1488 H   0  0  0  0  0  0  0  0  0  0  0  0
   44.2099   36.6218   41.9220 H   0  0  0  0  0  0  0  0  0  0  0  0
   45.3091   34.7481   40.7865 H   0  0  0  0  0  0  0  0  0  0  0  0
   46.3396   35.5432   41.9834 H   0  0  0  0  0  0  0  0  0  0  0  0
   44.5178   33.1558   42.8350 H   0  0  0  0  0  0  0  0  0  0  0  0
   46.0631   32.7866   42.1395 H   0  0  0  0  0  0  0  0  0  0  0  0
   50.6279   29.8370   39.9183 H   0  0  0  0  0  0  0  0  0  0  0  0
   48.8506   29.4693   37.3544 H   0  0  0  0  0  0  0  0  0  0  0  0
   50.3682   29.3944   37.0027 H   0  0  0  0  0  0  0  0  0  0  0  0
   50.2825   32.3062   38.0974 H   0  0  0  0  0  0  0  0  0  0  0  0
   47.7081   33.4780   39.3602 H   0  0  0  0  0  0  0  0  0  0  0  0
   49.4939   33.6219   39.1014 H   0  0  0  0  0  0  0  0  0  0  0  0
   48.2601   35.4690   37.9846 H   0  0  0  0  0  0  0  0  0  0  0  0
   49.1112   34.3982   36.7959 H   0  0  0  0  0  0  0  0  0  0  0  0
   47.1685   34.5061   35.8368 H   0  0  0  0  0  0  0  0  0  0  0  0
   46.1184   32.6456   37.8416 H   0  0  0  0  0  0  0  0  0  0  0  0
   45.9328   32.5903   36.0858 H   0  0  0  0  0  0  0  0  0  0  0  0
   47.7076   30.9900   36.5509 H   0  0  0  0  0  0  0  0  0  0  0  0
   48.5935   32.4361   36.0181 H   0  0  0  0  0  0  0  0  0  0  0  0
  1  6  2  0
  2  1  1  0
  3  2  2  0
  3  4  1  0
  4  5  2  0
  5  6  1  0
  7  8  1  0
  7  2  1  0
  9  8  2  0
 10  9  1  0
 11 10  1  0
 11 12  1  0
 12  7  1  0
 13  3  1  0
 14 13  2  0
 15 14  1  0
 16 15  1  0
 16 17  2  0
 17 13  1  0
 18 16  1  0
 19 18  2  0
 20 18  1  0
 21 22  1  0
 21 20  1  0
 22 20  1  0
 23 22  1  0
 23 24  1  0
 25 24  1  0
 26 27  1  0
 26 25  1  0
 28 27  1  0
 28 23  1  0
  1 29  1  0
  5 30  1  0
  7 31  1  6
  8 32  1  0
  9 33  1  0
 10 34  1  0
 10 35  1  0
 11 36  1  0
 11 37  1  0
 12 38  1  0
 12 39  1  0
 20 40  1  1
 21 41  1  0
 21 42  1  0
 22 43  1  6
 24 44  1  0
 24 45  1  0
 25 46  1  0
 25 47  1  0
 26 48  1  0
 27 49  1  0
 27 50  1  0
 28 51  1  0
 28 52  1  0
M  ISO  8  29  14  30  14  31  13  32  13  33  13  34  13  35  13  36  13
M  ISO  8  37  13  38  13  39  13  40  13  41  13  42  13  43  13  44  13
M  ISO  8  45  13  46  13  47  13  48   5  49  13  50  13  51  13  52  13
M  END
>  <minimizedAffinity>  (1) 
-5.01885891

>  <minimizedRMSD>  (1) 
4.44427252

$$$$
