
     RDKit          3D

 48 52  0  0  1  0  0  0  0  0999 V2000
   45.3110   32.8120   47.2930 C   0  0  0  0  0  0  0  0  0  0  0  0
   45.7920   32.7590   45.9480 C   0  0  0  0  0  0  0  0  0  0  0  0
   46.2320   31.4860   45.4860 C   0  0  0  0  0  0  0  0  0  0  0  0
   46.1890   30.4310   46.2760 N   0  0  0  0  0  0  0  0  0  0  0  0
   45.7230   30.5330   47.5510 C   0  0  0  0  0  0  0  0  0  0  0  0
   45.2840   31.7350   48.0490 N   0  0  0  0  0  0  0  0  0  0  0  0
   45.9410   34.0280   45.2080 C   0  0  2  0  0  0  0  0  0  0  0  0
   44.9300   34.9950   45.6040 C   0  0  0  0  0  0  0  0  0  0  0  0
   44.3480   35.9130   44.6140 C   0  0  0  0  0  0  0  0  0  0  0  0
   44.8190   35.8540   43.1930 C   0  0  0  0  0  0  0  0  0  0  0  0
   46.0700   35.1260   43.0670 C   0  0  0  0  0  0  0  0  0  0  0  0
   45.7960   33.7050   43.6790 C   0  0  0  0  0  0  0  0  0  0  0  0
   46.6960   31.0920   44.1980 C   0  0  0  0  0  0  0  0  0  0  0  0
   47.9190   30.8170   43.9310 N   0  0  0  0  0  0  0  0  0  0  0  0
   48.0200   30.4990   42.6720 O   0  0  0  0  0  0  0  0  0  0  0  0
   46.8920   30.5460   42.0580 C   0  0  0  0  0  0  0  0  0  0  0  0
   46.0320   30.9080   42.9540 N   0  0  0  0  0  0  0  0  0  0  0  0
   46.6810   30.2470   40.6480 C   0  0  0  0  0  0  0  0  0  0  0  0
   47.2670   30.9420   39.7460 O   0  0  0  0  0  0  0  0  0  0  0  0
   45.7830   29.1150   40.2350 C   0  0  1  0  0  0  0  0  0  0  0  0
   44.6170   28.8510   41.0680 C   0  0  0  0  0  0  0  0  0  0  0  0
   44.4010   29.6400   39.8160 C   0  0  1  0  0  0  0  0  0  0  0  0
   44.1730   31.0370   39.7680 N   0  0  0  0  0  0  0  0  0  0  0  0
   43.6060   31.4890   40.9280 C   0  0  0  0  0  0  0  0  0  0  0  0
   43.2860   32.8240   41.1310 C   0  0  0  0  0  0  0  0  0  0  0  0
   43.5380   33.7520   40.1410 C   0  0  0  0  0  0  0  0  0  0  0  0
   43.2950   34.9870   40.2040 O   0  0  0  0  0  0  0  0  0  0  0  0
   44.0920   33.2770   39.0220 N   0  0  0  0  0  0  0  0  0  0  0  0
   44.3970   31.9830   38.8400 C   0  0  0  0  0  0  0  0  0  0  0  0
   44.9170   31.5220   37.7950 O   0  0  0  0  0  0  0  0  0  0  0  0
   44.9573   33.7694   47.7033 H   0  0  0  0  0  0  0  0  0  0  0  0
   45.6978   29.6393   48.1918 H   0  0  0  0  0  0  0  0  0  0  0  0
   46.9234   34.4704   45.4299 H   0  0  0  0  0  0  0  0  0  0  0  0
   44.5982   35.0401   46.6518 H   0  0  0  0  0  0  0  0  0  0  0  0
   43.5747   36.6357   44.9135 H   0  0  0  0  0  0  0  0  0  0  0  0
   44.0524   35.3517   42.5847 H   0  0  0  0  0  0  0  0  0  0  0  0
   44.9876   36.8843   42.8465 H   0  0  0  0  0  0  0  0  0  0  0  0
   46.3588   35.0392   42.0091 H   0  0  0  0  0  0  0  0  0  0  0  0
   46.8936   35.6398   43.5843 H   0  0  0  0  0  0  0  0  0  0  0  0
   44.7867   33.3433   43.4330 H   0  0  0  0  0  0  0  0  0  0  0  0
   46.4594   32.9085   43.3109 H   0  0  0  0  0  0  0  0  0  0  0  0
   46.5690   28.4633   39.8257 H   0  0  0  0  0  0  0  0  0  0  0  0
   44.2216   27.8270   41.1387 H   0  0  0  0  0  0  0  0  0  0  0  0
   44.3832   29.0263   42.1285 H   0  0  0  0  0  0  0  0  0  0  0  0
   43.7057   29.5477   38.9686 H   0  0  0  0  0  0  0  0  0  0  0  0
   43.3957   30.7667   41.7305 H   0  0  0  0  0  0  0  0  0  0  0  0
   42.8316   33.1425   42.0808 H   0  0  0  0  0  0  0  0  0  0  0  0
   44.2956   33.9385   38.2592 H   0  0  0  0  0  0  0  0  0  0  0  0
  1  6  2  0
  2  1  1  0
  3  2  2  0
  3  4  1  0
  4  5  2  0
  5  6  1  0
  7  8  1  0
  7  2  1  0
  9  8  2  0
 10  9  1  0
 11 10  1  0
 11 12  1  0
 12  7  1  0
 13  3  1  0
 14 13  2  0
 15 14  1  0
 16 15  1  0
 16 17  2  0
 17 13  1  0
 18 16  1  0
 19 18  2  0
 20 18  1  0
 20 21  1  0
 22 20  1  0
 22 21  1  0
 23 22  1  0
 23 24  1  0
 24 25  2  0
 26 27  2  0
 26 25  1  0
 28 26  1  0
 29 28  1  0
 29 23  1  0
 30 29  2  0
  1 31  1  0
  5 32  1  0
  7 33  1  6
  8 34  1  0
  9 35  1  0
 10 36  1  0
 10 37  1  0
 11 38  1  0
 11 39  1  0
 12 40  1  0
 12 41  1  0
 20 42  1  6
 21 43  1  0
 21 44  1  0
 22 45  1  6
 24 46  1  0
 25 47  1  0
 28 48  1  0
M  ISO  8  31  14  32  14  33  13  34  13  35  13  36  13  37  13  38  13
M  ISO  8  39  13  40  13  41  13  42  13  43  13  44  13  45  13  46  14
M  ISO  2  47  14  48   9
M  END
>  <minimizedAffinity>  (1) 
-4.61537838

>  <minimizedRMSD>  (1) 
5.07654238

$$$$
