
     RDKit          3D

 49 53  0  0  1  0  0  0  0  0999 V2000
   46.4160   31.0390   45.3030 C   0  0  0  0  0  0  0  0  0  0  0  0
   45.6450   31.0190   44.2800 N   0  0  0  0  0  0  0  0  0  0  0  0
   46.3690   31.0300   43.1980 O   0  0  0  0  0  0  0  0  0  0  0  0
   47.6300   31.0580   43.4470 C   0  0  0  0  0  0  0  0  0  0  0  0
   47.7200   31.0660   44.7380 N   0  0  0  0  0  0  0  0  0  0  0  0
   45.3440   30.2520   48.8650 C   0  0  0  0  0  0  0  0  0  0  0  0
   45.7330   29.9250   47.5320 C   0  0  0  0  0  0  0  0  0  0  0  0
   45.9570   31.0240   46.6510 C   0  0  0  0  0  0  0  0  0  0  0  0
   45.8020   32.2610   47.0740 N   0  0  0  0  0  0  0  0  0  0  0  0
   45.4280   32.5280   48.3530 C   0  0  0  0  0  0  0  0  0  0  0  0
   45.2010   31.5080   49.2460 N   0  0  0  0  0  0  0  0  0  0  0  0
   45.7160   28.5060   47.1240 C   0  0  2  0  0  0  0  0  0  0  0  0
   44.7720   27.7370   47.9150 C   0  0  0  0  0  0  0  0  0  0  0  0
   45.0820   26.3520   48.2990 C   0  0  0  0  0  0  0  0  0  0  0  0
   46.3640   25.7260   47.8490 C   0  0  0  0  0  0  0  0  0  0  0  0
   46.9700   26.4860   46.7480 C   0  0  0  0  0  0  0  0  0  0  0  0
   47.1640   27.9410   47.3150 C   0  0  0  0  0  0  0  0  0  0  0  0
   48.6950   31.0760   42.4530 C   0  0  0  0  0  0  0  0  0  0  0  0
   48.5870   30.4030   41.3690 O   0  0  0  0  0  0  0  0  0  0  0  0
   49.9350   31.8920   42.6840 C   0  0  1  0  0  0  0  0  0  0  0  0
   50.6330   32.4290   41.5300 C   0  0  0  0  0  0  0  0  0  0  0  0
   49.7030   33.3540   42.2540 C   0  0  1  0  0  0  0  0  0  0  0  0
   48.4180   33.7220   41.7800 N   0  0  0  0  0  0  0  0  0  0  0  0
   47.5890   34.2370   42.7400 C   0  0  0  0  0  0  0  0  0  0  0  0
   46.3170   34.6520   42.4960 C   0  0  0  0  0  0  0  0  0  0  0  0
   45.7890   34.5700   41.2260 C   0  0  0  0  0  0  0  0  0  0  0  0
   44.4830   34.9680   40.8440 N   0  0  0  0  0  0  0  0  0  0  0  0
   46.6190   34.0610   40.2910 N   0  0  0  0  0  0  0  0  0  0  0  0
   47.8690   33.6580   40.5550 C   0  0  0  0  0  0  0  0  0  0  0  0
   48.6230   33.1900   39.6790 O   0  0  0  0  0  0  0  0  0  0  0  0
   45.1600   29.4436   49.5880 H   0  0  0  0  0  0  0  0  0  0  0  0
   45.3056   33.5720   48.6772 H   0  0  0  0  0  0  0  0  0  0  0  0
   45.3976   28.4274   46.0740 H   0  0  0  0  0  0  0  0  0  0  0  0
   43.8210   28.1925   48.2283 H   0  0  0  0  0  0  0  0  0  0  0  0
   44.3739   25.7782   48.9149 H   0  0  0  0  0  0  0  0  0  0  0  0
   47.0663   25.6991   48.6952 H   0  0  0  0  0  0  0  0  0  0  0  0
   46.1474   24.7086   47.4913 H   0  0  0  0  0  0  0  0  0  0  0  0
   46.3030   26.4978   45.8734 H   0  0  0  0  0  0  0  0  0  0  0  0
   47.9198   26.0429   46.4141 H   0  0  0  0  0  0  0  0  0  0  0  0
   47.9038   28.5101   46.7330 H   0  0  0  0  0  0  0  0  0  0  0  0
   47.5464   27.9883   48.3453 H   0  0  0  0  0  0  0  0  0  0  0  0
   50.2900   31.3361   43.5643 H   0  0  0  0  0  0  0  0  0  0  0  0
   50.3682   32.0736   40.5232 H   0  0  0  0  0  0  0  0  0  0  0  0
   51.6933   32.4887   41.2433 H   0  0  0  0  0  0  0  0  0  0  0  0
   49.8075   34.3664   42.6713 H   0  0  0  0  0  0  0  0  0  0  0  0
   47.9736   34.3199   43.7672 H   0  0  0  0  0  0  0  0  0  0  0  0
   45.7063   35.0554   43.3172 H   0  0  0  0  0  0  0  0  0  0  0  0
   44.1794   34.8667   39.8650 H   0  0  0  0  0  0  0  0  0  0  0  0
   43.8378   35.3585   41.5455 H   0  0  0  0  0  0  0  0  0  0  0  0
  1  8  1  0
  2  1  2  0
  3  4  1  0
  3  2  1  0
  4  5  2  0
  5  1  1  0
  6 11  2  0
  7  6  1  0
  8  9  1  0
  8  7  2  0
  9 10  2  0
 10 11  1  0
 12 17  1  0
 12  7  1  0
 12 13  1  0
 13 14  2  0
 15 14  1  0
 16 17  1  0
 16 15  1  0
 18 20  1  0
 18  4  1  0
 19 18  2  0
 21 22  1  0
 21 20  1  0
 22 20  1  0
 23 22  1  0
 23 24  1  0
 25 24  2  0
 26 25  1  0
 27 26  1  0
 28 29  1  0
 28 26  2  0
 29 23  1  0
 30 29  2  0
  6 31  1  0
 10 32  1  0
 12 33  1  6
 13 34  1  0
 14 35  1  0
 15 36  1  0
 15 37  1  0
 16 38  1  0
 16 39  1  0
 17 40  1  0
 17 41  1  0
 20 42  1  1
 21 43  1  0
 21 44  1  0
 22 45  1  1
 24 46  1  0
 25 47  1  0
 27 48  1  0
 27 49  1  0
M  ISO  8  31  14  32  14  33  13  34  13  35  13  36  13  37  13  38  13
M  ISO  8  39  13  40  13  41  13  42  13  43  13  44  13  45  13  46  14
M  ISO  1  47  14
M  END
>  <minimizedAffinity>  (1) 
-5.51351404

>  <minimizedRMSD>  (1) 
6.15946102

$$$$
