
     RDKit          3D

 50 54  0  0  1  0  0  0  0  0999 V2000
   45.6700   32.5970   47.0230 C   0  0  0  0  0  0  0  0  0  0  0  0
   46.5570   31.5330   46.6770 C   0  0  0  0  0  0  0  0  0  0  0  0
   46.9440   30.6690   47.7400 C   0  0  0  0  0  0  0  0  0  0  0  0
   46.4940   30.8670   48.9620 N   0  0  0  0  0  0  0  0  0  0  0  0
   45.6520   31.8930   49.2450 C   0  0  0  0  0  0  0  0  0  0  0  0
   45.2470   32.7550   48.2590 N   0  0  0  0  0  0  0  0  0  0  0  0
   47.1060   31.4960   45.3070 C   0  0  2  0  0  0  0  0  0  0  0  0
   47.1050   32.8200   44.7040 C   0  0  0  0  0  0  0  0  0  0  0  0
   46.8390   32.9800   43.2670 C   0  0  0  0  0  0  0  0  0  0  0  0
   46.6000   31.7780   42.4240 C   0  0  0  0  0  0  0  0  0  0  0  0
   47.0130   30.5430   43.1000 C   0  0  0  0  0  0  0  0  0  0  0  0
   46.2140   30.5320   44.4540 C   0  0  0  0  0  0  0  0  0  0  0  0
   47.7550   29.4970   47.7180 C   0  0  0  0  0  0  0  0  0  0  0  0
   49.0320   29.5050   47.8410 N   0  0  0  0  0  0  0  0  0  0  0  0
   49.4760   28.2830   47.7740 O   0  0  0  0  0  0  0  0  0  0  0  0
   48.5360   27.4260   47.6050 C   0  0  0  0  0  0  0  0  0  0  0  0
   47.4440   28.1190   47.5640 N   0  0  0  0  0  0  0  0  0  0  0  0
   48.7030   25.9790   47.4890 C   0  0  0  0  0  0  0  0  0  0  0  0
   49.8740   25.4590   47.5120 O   0  0  0  0  0  0  0  0  0  0  0  0
   47.4950   25.0920   47.3460 C   0  0  1  0  0  0  0  0  0  0  0  0
   47.6110   23.7130   47.8040 C   0  0  0  0  0  0  0  0  0  0  0  0
   46.9580   24.7060   48.7370 C   0  0  2  0  0  0  0  0  0  0  0  0
   45.5390   24.6700   48.9170 N   0  0  0  0  0  0  0  0  0  0  0  0
   44.8740   25.2470   47.7890 C   0  0  0  0  0  0  0  0  0  0  0  0
   43.6690   26.0180   48.3040 C   0  0  0  0  0  0  0  0  0  0  0  0
   43.7690   25.9520   49.8050 C   0  0  0  0  0  0  0  0  0  0  0  0
   45.1430   25.3890   50.0960 C   0  0  0  0  0  0  0  0  0  0  0  0
   45.3346   33.2965   46.2431 H   0  0  0  0  0  0  0  0  0  0  0  0
   45.2913   32.0342   50.2746 H   0  0  0  0  0  0  0  0  0  0  0  0
   48.1472   31.1428   45.3415 H   0  0  0  0  0  0  0  0  0  0  0  0
   47.3041   33.7052   45.3260 H   0  0  0  0  0  0  0  0  0  0  0  0
   46.8168   33.9837   42.8174 H   0  0  0  0  0  0  0  0  0  0  0  0
   47.1715   31.8799   41.4897 H   0  0  0  0  0  0  0  0  0  0  0  0
   45.5203   31.7118   42.2241 H   0  0  0  0  0  0  0  0  0  0  0  0
   46.7540   29.6641   42.4913 H   0  0  0  0  0  0  0  0  0  0  0  0
   48.1003   30.5051   43.2621 H   0  0  0  0  0  0  0  0  0  0  0  0
   45.1939   30.9242   44.3288 H   0  0  0  0  0  0  0  0  0  0  0  0
   46.0608   29.5348   44.8923 H   0  0  0  0  0  0  0  0  0  0  0  0
   47.1144   25.5255   46.4094 H   0  0  0  0  0  0  0  0  0  0  0  0
   47.0003   22.9303   47.3303 H   0  0  0  0  0  0  0  0  0  0  0  0
   48.4515   23.0105   47.9043 H   0  0  0  0  0  0  0  0  0  0  0  0
   47.1153   25.0279   49.7770 H   0  0  0  0  0  0  0  0  0  0  0  0
   45.5566   25.9289   47.2607 H   0  0  0  0  0  0  0  0  0  0  0  0
   44.5564   24.4617   47.0872 H   0  0  0  0  0  0  0  0  0  0  0  0
   43.7041   27.0625   47.9608 H   0  0  0  0  0  0  0  0  0  0  0  0
   42.7227   25.5946   47.9364 H   0  0  0  0  0  0  0  0  0  0  0  0
   43.6651   26.9564   50.2414 H   0  0  0  0  0  0  0  0  0  0  0  0
   42.9732   25.3291   50.2393 H   0  0  0  0  0  0  0  0  0  0  0  0
   45.1018   24.7104   50.9607 H   0  0  0  0  0  0  0  0  0  0  0  0
   45.8601   26.1869   50.3389 H   0  0  0  0  0  0  0  0  0  0  0  0
  1  6  2  0
  2  1  1  0
  2  3  2  0
  3  4  1  0
  4  5  2  0
  6  5  1  0
  7  2  1  0
  8  7  1  0
  9  8  2  0
 10 11  1  0
 10  9  1  0
 11 12  1  0
 12  7  1  0
 13  3  1  0
 13 14  2  0
 15 14  1  0
 16 15  1  0
 17 16  2  0
 17 13  1  0
 18 19  2  0
 18 16  1  0
 20 18  1  0
 20 21  1  0
 20 22  1  0
 21 22  1  0
 22 23  1  0
 23 24  1  0
 23 27  1  0
 24 25  1  0
 25 26  1  0
 26 27  1  0
  1 28  1  0
  5 29  1  0
  7 30  1  1
  8 31  1  0
  9 32  1  0
 10 33  1  0
 10 34  1  0
 11 35  1  0
 11 36  1  0
 12 37  1  0
 12 38  1  0
 20 39  1  6
 21 40  1  0
 21 41  1  0
 22 42  1  1
 24 43  1  0
 24 44  1  0
 25 45  1  0
 25 46  1  0
 26 47  1  0
 26 48  1  0
 27 49  1  0
 27 50  1  0
M  ISO  8  28  14  29  14  30  13  31  13  32  13  33  13  34  13  35  13
M  ISO  8  36  13  37  13  38  13  39  13  40  13  41  13  42  13  43  13
M  ISO  7  44  13  45  13  46  13  47  13  48  13  49  13  50  13
M  END
>  <minimizedAffinity>  (1) 
-4.41326237

>  <minimizedRMSD>  (1) 
4.68863153

$$$$
