
     RDKit          3D

 41 44  0  0  1  0  0  0  0  0999 V2000
   45.1570   32.7550   47.5690 C   0  0  0  0  0  0  0  0  0  0  0  0
   45.7510   32.4870   46.2990 C   0  0  0  0  0  0  0  0  0  0  0  0
   46.2800   31.1800   46.1120 C   0  0  0  0  0  0  0  0  0  0  0  0
   46.2160   30.2840   47.0760 N   0  0  0  0  0  0  0  0  0  0  0  0
   45.6410   30.5860   48.2740 C   0  0  0  0  0  0  0  0  0  0  0  0
   45.1120   31.8310   48.5080 N   0  0  0  0  0  0  0  0  0  0  0  0
   45.9100   33.6120   45.3560 C   0  0  2  0  0  0  0  0  0  0  0  0
   45.1100   34.7540   45.7570 C   0  0  0  0  0  0  0  0  0  0  0  0
   44.4850   35.6200   44.7500 C   0  0  0  0  0  0  0  0  0  0  0  0
   44.6890   35.3210   43.2990 C   0  0  0  0  0  0  0  0  0  0  0  0
   45.7790   34.3880   43.0800 C   0  0  0  0  0  0  0  0  0  0  0  0
   45.4420   33.1180   43.9420 C   0  0  0  0  0  0  0  0  0  0  0  0
   46.8640   30.5850   44.9570 C   0  0  0  0  0  0  0  0  0  0  0  0
   48.0790   30.7620   44.5910 N   0  0  0  0  0  0  0  0  0  0  0  0
   48.2990   30.0920   43.4960 O   0  0  0  0  0  0  0  0  0  0  0  0
   47.2630   29.4510   43.0910 C   0  0  0  0  0  0  0  0  0  0  0  0
   46.3380   29.7190   43.9600 N   0  0  0  0  0  0  0  0  0  0  0  0
   47.1830   28.6130   41.9010 C   0  0  0  0  0  0  0  0  0  0  0  0
   47.4810   29.0920   40.7490 O   0  0  0  0  0  0  0  0  0  0  0  0
   46.7570   27.1750   42.0130 C   0  0  1  0  0  0  0  0  0  0  0  0
   47.2180   26.2460   40.9930 C   0  0  0  0  0  0  0  0  0  0  0  0
   47.9870   26.2830   42.2940 C   0  0  2  0  0  0  0  0  0  0  0  0
   47.8120   25.0410   43.1240 C   0  0  0  0  0  0  0  0  0  0  0  0
   44.7297   33.7490   47.7674 H   0  0  0  0  0  0  0  0  0  0  0  0
   45.6002   29.8219   49.0642 H   0  0  0  0  0  0  0  0  0  0  0  0
   46.9628   33.9305   45.3406 H   0  0  0  0  0  0  0  0  0  0  0  0
   44.9705   34.9730   46.8259 H   0  0  0  0  0  0  0  0  0  0  0  0
   43.8729   36.4800   45.0595 H   0  0  0  0  0  0  0  0  0  0  0  0
   43.7636   34.8863   42.8933 H   0  0  0  0  0  0  0  0  0  0  0  0
   44.9440   36.2635   42.7923 H   0  0  0  0  0  0  0  0  0  0  0  0
   45.8450   34.1206   42.0150 H   0  0  0  0  0  0  0  0  0  0  0  0
   46.7469   34.8246   43.3673 H   0  0  0  0  0  0  0  0  0  0  0  0
   44.3664   32.8880   43.9259 H   0  0  0  0  0  0  0  0  0  0  0  0
   45.9159   32.1869   43.5977 H   0  0  0  0  0  0  0  0  0  0  0  0
   45.7593   27.3606   42.4373 H   0  0  0  0  0  0  0  0  0  0  0  0
   46.6087   25.3635   40.7482 H   0  0  0  0  0  0  0  0  0  0  0  0
   47.5037   26.3558   39.9364 H   0  0  0  0  0  0  0  0  0  0  0  0
   49.0101   26.4795   42.6472 H   0  0  0  0  0  0  0  0  0  0  0  0
   47.8492   25.3049   44.1912 H   0  0  0  0  0  0  0  0  0  0  0  0
   46.8401   24.5802   42.8939 H   0  0  0  0  0  0  0  0  0  0  0  0
   48.6188   24.3295   42.8939 H   0  0  0  0  0  0  0  0  0  0  0  0
  1  6  2  0
  2  1  1  0
  3  2  2  0
  3  4  1  0
  4  5  2  0
  5  6  1  0
  7  8  1  0
  7  2  1  0
  9  8  2  0
 10  9  1  0
 11 10  1  0
 11 12  1  0
 12  7  1  0
 13  3  1  0
 14 13  2  0
 15 14  1  0
 16 15  1  0
 16 17  2  0
 17 13  1  0
 18 20  1  0
 18 16  1  0
 19 18  2  0
 20 22  1  0
 21 20  1  0
 21 22  1  0
 22 23  1  0
  1 24  1  0
  5 25  1  0
  7 26  1  6
  8 27  1  0
  9 28  1  0
 10 29  1  0
 10 30  1  0
 11 31  1  0
 11 32  1  0
 12 33  1  0
 12 34  1  0
 20 35  1  1
 21 36  1  0
 21 37  1  0
 22 38  1  6
 23 39  1  0
 23 40  1  0
 23 41  1  0
M  ISO  8  24  14  25  14  26  13  27  13  28  13  29  13  30  13  31  13
M  ISO  8  32  13  33  13  34  13  35  13  36  13  37  13  38  13  39   8
M  ISO  2  40   8  41   8
M  END
>  <minimizedAffinity>  (1) 
-3.58974791

>  <minimizedRMSD>  (1) 
0.16428557

$$$$
