
     RDKit          3D

 39 42  0  0  1  0  0  0  0  0999 V2000
   45.1400   32.7390   47.5800 C   0  0  0  0  0  0  0  0  0  0  0  0
   45.7530   32.4900   46.3120 C   0  0  0  0  0  0  0  0  0  0  0  0
   46.2700   31.1790   46.1150 C   0  0  0  0  0  0  0  0  0  0  0  0
   46.1760   30.2710   47.0660 N   0  0  0  0  0  0  0  0  0  0  0  0
   45.5870   30.5540   48.2530 C   0  0  0  0  0  0  0  0  0  0  0  0
   45.0700   31.8010   48.4990 N   0  0  0  0  0  0  0  0  0  0  0  0
   45.9210   33.6230   45.3820 C   0  0  2  0  0  0  0  0  0  0  0  0
   45.0960   34.7540   45.7770 C   0  0  0  0  0  0  0  0  0  0  0  0
   44.4790   35.6110   44.7600 C   0  0  0  0  0  0  0  0  0  0  0  0
   44.7260   35.3440   43.3190 C   0  0  0  0  0  0  0  0  0  0  0  0
   45.8500   34.4240   43.1150 C   0  0  0  0  0  0  0  0  0  0  0  0
   45.4960   33.1440   43.9540 C   0  0  0  0  0  0  0  0  0  0  0  0
   46.8780   30.5970   44.9640 C   0  0  0  0  0  0  0  0  0  0  0  0
   48.1190   30.7190   44.6670 N   0  0  0  0  0  0  0  0  0  0  0  0
   48.3570   30.0800   43.5560 O   0  0  0  0  0  0  0  0  0  0  0  0
   47.3060   29.5200   43.0750 C   0  0  0  0  0  0  0  0  0  0  0  0
   46.3560   29.8040   43.9060 N   0  0  0  0  0  0  0  0  0  0  0  0
   47.2370   28.7350   41.8450 C   0  0  0  0  0  0  0  0  0  0  0  0
   47.5670   29.2590   40.7230 O   0  0  0  0  0  0  0  0  0  0  0  0
   46.7830   27.2990   41.8910 C   0  0  1  0  0  0  0  0  0  0  0  0
   47.2160   26.4160   40.8180 C   0  0  0  0  0  0  0  0  0  0  0  0
   47.9920   26.3710   42.1130 C   0  0  2  0  0  0  0  0  0  0  0  0
   47.8080   24.9590   43.1970 S   0  0  0  0  0  0  0  0  0  0  0  0
   44.7194   33.7334   47.7904 H   0  0  0  0  0  0  0  0  0  0  0  0
   45.5226   29.7757   49.0277 H   0  0  0  0  0  0  0  0  0  0  0  0
   46.9713   33.9498   45.3936 H   0  0  0  0  0  0  0  0  0  0  0  0
   44.9343   34.9673   46.8439 H   0  0  0  0  0  0  0  0  0  0  0  0
   43.8348   36.4496   45.0628 H   0  0  0  0  0  0  0  0  0  0  0  0
   43.8202   34.9008   42.8797 H   0  0  0  0  0  0  0  0  0  0  0  0
   44.9769   36.2993   42.8348 H   0  0  0  0  0  0  0  0  0  0  0  0
   45.9516   34.1703   42.0495 H   0  0  0  0  0  0  0  0  0  0  0  0
   46.8059   34.8686   43.4291 H   0  0  0  0  0  0  0  0  0  0  0  0
   44.4224   32.9092   43.9057 H   0  0  0  0  0  0  0  0  0  0  0  0
   45.9843   32.2191   43.6131 H   0  0  0  0  0  0  0  0  0  0  0  0
   45.7941   27.4821   42.3366 H   0  0  0  0  0  0  0  0  0  0  0  0
   46.5869   25.5601   40.5321 H   0  0  0  0  0  0  0  0  0  0  0  0
   47.4962   26.5746   39.7662 H   0  0  0  0  0  0  0  0  0  0  0  0
   49.0445   26.4887   42.4102 H   0  0  0  0  0  0  0  0  0  0  0  0
   47.8621   25.3745   44.5013 H   0  0  0  0  0  0  0  0  0  0  0  0
  1  6  2  0
  2  1  1  0
  3  2  2  0
  3  4  1  0
  4  5  2  0
  5  6  1  0
  7  8  1  0
  7  2  1  0
  9  8  2  0
 10  9  1  0
 11 10  1  0
 11 12  1  0
 12  7  1  0
 13  3  1  0
 14 13  2  0
 15 14  1  0
 16 15  1  0
 16 17  2  0
 17 13  1  0
 18 20  1  0
 18 16  1  0
 19 18  2  0
 20 22  1  0
 21 20  1  0
 21 22  1  0
 22 23  1  0
  1 24  1  0
  5 25  1  0
  7 26  1  6
  8 27  1  0
  9 28  1  0
 10 29  1  0
 10 30  1  0
 11 31  1  0
 11 32  1  0
 12 33  1  0
 12 34  1  0
 20 35  1  1
 21 36  1  0
 21 37  1  0
 22 38  1  6
 23 39  1  0
M  ISO  8  24  14  25  14  26  13  27  13  28  13  29  13  30  13  31  13
M  ISO  8  32  13  33  13  34  13  35  13  36  13  37  13  38  13  39  11
M  END
>  <minimizedAffinity>  (1) 
-3.62247181

>  <minimizedRMSD>  (1) 
0.0671133548

$$$$
