
     RDKit          3D

 48 52  0  0  1  0  0  0  0  0999 V2000
   45.4590   33.3120   46.5210 C   0  0  0  0  0  0  0  0  0  0  0  0
   46.1190   33.1060   45.2710 C   0  0  0  0  0  0  0  0  0  0  0  0
   47.0690   32.0500   45.2260 C   0  0  0  0  0  0  0  0  0  0  0  0
   47.3120   31.3170   46.2940 N   0  0  0  0  0  0  0  0  0  0  0  0
   46.6590   31.5530   47.4660 C   0  0  0  0  0  0  0  0  0  0  0  0
   45.7300   32.5570   47.5650 N   0  0  0  0  0  0  0  0  0  0  0  0
   45.8760   34.0820   44.1900 C   0  0  2  0  0  0  0  0  0  0  0  0
   45.1350   35.2330   44.6830 C   0  0  0  0  0  0  0  0  0  0  0  0
   44.1650   35.9150   43.8200 C   0  0  0  0  0  0  0  0  0  0  0  0
   43.9650   35.4420   42.4290 C   0  0  0  0  0  0  0  0  0  0  0  0
   45.0060   34.5140   41.9900 C   0  0  0  0  0  0  0  0  0  0  0  0
   45.0450   33.3730   43.0720 C   0  0  0  0  0  0  0  0  0  0  0  0
   47.8350   31.5540   44.1310 C   0  0  0  0  0  0  0  0  0  0  0  0
   48.4590   32.3010   43.2960 N   0  0  0  0  0  0  0  0  0  0  0  0
   49.0560   31.5500   42.4150 O   0  0  0  0  0  0  0  0  0  0  0  0
   48.8580   30.2960   42.6200 C   0  0  0  0  0  0  0  0  0  0  0  0
   48.1090   30.2360   43.6730 N   0  0  0  0  0  0  0  0  0  0  0  0
   49.3880   29.2090   41.8070 C   0  0  0  0  0  0  0  0  0  0  0  0
   50.1380   29.4580   40.8010 O   0  0  0  0  0  0  0  0  0  0  0  0
   49.0740   27.7830   42.1370 C   0  0  1  0  0  0  0  0  0  0  0  0
   49.9410   26.7510   41.5900 C   0  0  0  0  0  0  0  0  0  0  0  0
   50.1880   27.1590   43.0000 C   0  0  1  0  0  0  0  0  0  0  0  0
   51.2680   28.0120   43.4480 C   0  0  0  0  0  0  0  0  0  0  0  0
   51.3280   28.8410   44.5450 C   0  0  0  0  0  0  0  0  0  0  0  0
   52.3740   29.6150   44.9350 C   0  0  0  0  0  0  0  0  0  0  0  0
   53.5190   29.5880   44.1650 C   0  0  0  0  0  0  0  0  0  0  0  0
   53.5390   28.7810   43.0470 C   0  0  0  0  0  0  0  0  0  0  0  0
   52.4520   28.0190   42.7000 C   0  0  0  0  0  0  0  0  0  0  0  0
   44.7122   34.1144   46.6128 H   0  0  0  0  0  0  0  0  0  0  0  0
   46.8799   30.9297   48.3451 H   0  0  0  0  0  0  0  0  0  0  0  0
   46.8404   34.4380   43.7986 H   0  0  0  0  0  0  0  0  0  0  0  0
   45.3032   35.5936   45.7085 H   0  0  0  0  0  0  0  0  0  0  0  0
   43.5899   36.7714   44.2019 H   0  0  0  0  0  0  0  0  0  0  0  0
   42.9919   34.9328   42.3676 H   0  0  0  0  0  0  0  0  0  0  0  0
   44.0077   36.3224   41.7709 H   0  0  0  0  0  0  0  0  0  0  0  0
   44.7569   34.0977   41.0028 H   0  0  0  0  0  0  0  0  0  0  0  0
   45.9808   35.0145   41.8933 H   0  0  0  0  0  0  0  0  0  0  0  0
   44.0361   33.1072   43.4206 H   0  0  0  0  0  0  0  0  0  0  0  0
   45.4631   32.4179   42.7212 H   0  0  0  0  0  0  0  0  0  0  0  0
   47.9804   27.8987   42.1631 H   0  0  0  0  0  0  0  0  0  0  0  0
   49.5285   25.7532   41.3798 H   0  0  0  0  0  0  0  0  0  0  0  0
   50.5775   26.6906   40.6949 H   0  0  0  0  0  0  0  0  0  0  0  0
   50.2996   26.5951   43.9378 H   0  0  0  0  0  0  0  0  0  0  0  0
   50.4283   28.8813   45.1766 H   0  0  0  0  0  0  0  0  0  0  0  0
   52.3104   30.2432   45.8357 H   0  0  0  0  0  0  0  0  0  0  0  0
   54.3947   30.1957   44.4366 H   0  0  0  0  0  0  0  0  0  0  0  0
   54.4433   28.7475   42.4217 H   0  0  0  0  0  0  0  0  0  0  0  0
   52.5128   27.3896   41.7999 H   0  0  0  0  0  0  0  0  0  0  0  0
  1  6  2  0
  2  1  1  0
  3  2  2  0
  3  4  1  0
  4  5  2  0
  5  6  1  0
  7  8  1  0
  7  2  1  0
  9  8  2  0
 10  9  1  0
 11 10  1  0
 11 12  1  0
 12  7  1  0
 13  3  1  0
 14 13  2  0
 15 16  1  0
 15 14  1  0
 16 17  2  0
 17 13  1  0
 18 20  1  0
 18 16  1  0
 19 18  2  0
 20 22  1  0
 21 20  1  0
 21 22  1  0
 22 23  1  0
 23 24  2  0
 24 25  1  0
 26 25  2  0
 27 26  1  0
 28 27  2  0
 28 23  1  0
  1 29  1  0
  5 30  1  0
  7 31  1  6
  8 32  1  0
  9 33  1  0
 10 34  1  0
 10 35  1  0
 11 36  1  0
 11 37  1  0
 12 38  1  0
 12 39  1  0
 20 40  1  1
 21 41  1  0
 21 42  1  0
 22 43  1  1
 24 44  1  0
 25 45  1  0
 26 46  1  0
 27 47  1  0
 28 48  1  0
M  ISO  8  29  14  30  14  31  13  32  13  33  13  34  13  35  13  36  13
M  ISO  8  37  13  38  13  39  13  40  13  41  13  42  13  43  13  44  14
M  ISO  4  45  14  46  14  47  14  48  14
M  END
>  <minimizedAffinity>  (1) 
-3.85502338

>  <minimizedRMSD>  (1) 
2.01659966

$$$$
