
     RDKit          3D

 47 50  0  0  1  0  0  0  0  0999 V2000
   45.5040   32.7080   47.7200 C   0  0  0  0  0  0  0  0  0  0  0  0
   46.1070   31.9420   46.6810 C   0  0  0  0  0  0  0  0  0  0  0  0
   46.6450   30.6810   47.0530 C   0  0  0  0  0  0  0  0  0  0  0  0
   46.5820   30.2620   48.3010 N   0  0  0  0  0  0  0  0  0  0  0  0
   45.9960   31.0300   49.2670 C   0  0  0  0  0  0  0  0  0  0  0  0
   45.4590   32.2530   48.9630 N   0  0  0  0  0  0  0  0  0  0  0  0
   46.2630   32.5790   45.3590 C   0  0  2  0  0  0  0  0  0  0  0  0
   45.7890   33.9490   45.3710 C   0  0  0  0  0  0  0  0  0  0  0  0
   45.1360   34.5160   44.1840 C   0  0  0  0  0  0  0  0  0  0  0  0
   44.9830   33.6870   42.9570 C   0  0  0  0  0  0  0  0  0  0  0  0
   45.8360   32.4980   42.9940 C   0  0  0  0  0  0  0  0  0  0  0  0
   45.4480   31.7450   44.3200 C   0  0  0  0  0  0  0  0  0  0  0  0
   47.2410   29.6640   46.2490 C   0  0  0  0  0  0  0  0  0  0  0  0
   48.4370   29.7090   45.7910 N   0  0  0  0  0  0  0  0  0  0  0  0
   48.6670   28.6380   45.0890 O   0  0  0  0  0  0  0  0  0  0  0  0
   47.6560   27.8460   45.0480 C   0  0  0  0  0  0  0  0  0  0  0  0
   46.7390   28.4300   45.7510 N   0  0  0  0  0  0  0  0  0  0  0  0
   47.5940   26.5670   44.3450 C   0  0  0  0  0  0  0  0  0  0  0  0
   48.6610   26.0240   43.8920 O   0  0  0  0  0  0  0  0  0  0  0  0
   46.2710   25.8740   44.1580 C   0  0  1  0  0  0  0  0  0  0  0  0
   46.2600   24.4210   44.1010 C   0  0  0  0  0  0  0  0  0  0  0  0
   45.9180   25.0660   45.4220 C   0  0  2  0  0  0  0  0  0  0  0  0
   44.5070   25.1010   45.8950 C   0  0  0  0  0  0  0  0  0  0  0  0
   44.0290   23.6880   46.1290 C   0  0  0  0  0  0  0  0  0  0  0  0
   44.3640   25.9430   47.1420 C   0  0  0  0  0  0  0  0  0  0  0  0
   45.0696   33.6913   47.4865 H   0  0  0  0  0  0  0  0  0  0  0  0
   45.9548   30.6614   50.3026 H   0  0  0  0  0  0  0  0  0  0  0  0
   47.3299   32.6021   45.0920 H   0  0  0  0  0  0  0  0  0  0  0  0
   45.9189   34.5660   46.2724 H   0  0  0  0  0  0  0  0  0  0  0  0
   44.7611   35.5500   44.2015 H   0  0  0  0  0  0  0  0  0  0  0  0
   45.2560   34.2938   42.0811 H   0  0  0  0  0  0  0  0  0  0  0  0
   43.9361   33.3548   42.8974 H   0  0  0  0  0  0  0  0  0  0  0  0
   45.6442   31.8596   42.1189 H   0  0  0  0  0  0  0  0  0  0  0  0
   46.9040   32.7604   42.9707 H   0  0  0  0  0  0  0  0  0  0  0  0
   44.3667   31.7949   44.5155 H   0  0  0  0  0  0  0  0  0  0  0  0
   45.6667   30.6670   44.3197 H   0  0  0  0  0  0  0  0  0  0  0  0
   45.8113   26.6349   43.5101 H   0  0  0  0  0  0  0  0  0  0  0  0
   45.4740   23.9064   43.5289 H   0  0  0  0  0  0  0  0  0  0  0  0
   46.9961   23.6651   43.7901 H   0  0  0  0  0  0  0  0  0  0  0  0
   46.2869   24.9757   46.4544 H   0  0  0  0  0  0  0  0  0  0  0  0
   43.8807   25.5704   45.1221 H   0  0  0  0  0  0  0  0  0  0  0  0
   43.9644   23.4971   47.2104 H   0  0  0  0  0  0  0  0  0  0  0  0
   43.0364   23.5565   45.6735 H   0  0  0  0  0  0  0  0  0  0  0  0
   44.7380   22.9809   45.6735 H   0  0  0  0  0  0  0  0  0  0  0  0
   44.4726   25.3037   48.0305 H   0  0  0  0  0  0  0  0  0  0  0  0
   45.1431   26.7194   47.1515 H   0  0  0  0  0  0  0  0  0  0  0  0
   43.3722   26.4187   47.1515 H   0  0  0  0  0  0  0  0  0  0  0  0
  1  6  2  0
  2  3  2  0
  2  1  1  0
  3  4  1  0
  4  5  2  0
  6  5  1  0
  7  8  1  0
  7  2  1  0
  9  8  2  0
 10 11  1  0
 10  9  1  0
 11 12  1  0
 12  7  1  0
 13  3  1  0
 14 13  2  0
 15 14  1  0
 16 15  1  0
 16 17  2  0
 17 13  1  0
 18 16  1  0
 19 18  2  0
 20 18  1  0
 20 22  1  0
 21 20  1  0
 21 22  1  0
 22 23  1  0
 23 24  1  0
 23 25  1  0
  1 26  1  0
  5 27  1  0
  7 28  1  6
  8 29  1  0
  9 30  1  0
 10 31  1  0
 10 32  1  0
 11 33  1  0
 11 34  1  0
 12 35  1  0
 12 36  1  0
 20 37  1  6
 21 38  1  0
 21 39  1  0
 22 40  1  1
 23 41  1  0
 24 42  1  0
 24 43  1  0
 24 44  1  0
 25 45  1  0
 25 46  1  0
 25 47  1  0
M  ISO  8  26  14  27  14  28  13  29  13  30  13  31  13  32  13  33  13
M  ISO  8  34  13  35  13  36  13  37  13  38  13  39  13  40  13  41   8
M  ISO  6  42   8  43   8  44   8  45   8  46   8  47   8
M  END
>  <minimizedAffinity>  (1) 
-3.53950596

>  <minimizedRMSD>  (1) 
2.7116797

$$$$
