
     RDKit          3D

 36 38  0  0  1  0  0  0  0  0999 V2000
   47.4310   34.0040   42.4190 C   0  0  1  0  0  0  0  0  0  0  0  0
   48.1720   35.1860   41.8220 C   0  0  0  0  0  0  0  0  0  0  0  0
   49.5570   35.3900   42.2940 C   0  0  0  0  0  0  0  0  0  0  0  0
   50.3560   34.1270   42.4130 C   0  0  0  0  0  0  0  0  0  0  0  0
   49.5610   32.8820   42.1980 C   0  0  0  0  0  0  0  0  0  0  0  0
   48.2870   32.9730   43.0290 C   0  0  2  0  0  0  0  0  0  0  0  0
   45.3810   34.2700   45.5000 C   0  0  0  0  0  0  0  0  0  0  0  0
   44.5780   35.3990   45.2320 C   0  0  0  0  0  0  0  0  0  0  0  0
   44.7540   36.0580   43.9970 C   0  0  0  0  0  0  0  0  0  0  0  0
   45.6880   35.5710   43.1280 N   0  0  0  0  0  0  0  0  0  0  0  0
   46.4300   34.4830   43.4380 C   0  0  0  0  0  0  0  0  0  0  0  0
   46.2770   33.8320   44.6220 N   0  0  0  0  0  0  0  0  0  0  0  0
   47.7070   31.6330   42.9340 N   0  0  0  0  0  0  0  0  0  0  0  0
   47.8640   30.7960   43.9740 C   0  0  0  0  0  0  0  0  0  0  0  0
   47.3240   29.5170   43.9130 C   0  0  0  0  0  0  0  0  0  0  0  0
   46.6290   29.0910   42.7970 C   0  0  0  0  0  0  0  0  0  0  0  0
   46.1260   27.9240   42.7180 O   0  0  0  0  0  0  0  0  0  0  0  0
   46.5010   29.9760   41.7780 N   0  0  0  0  0  0  0  0  0  0  0  0
   47.0270   31.2040   41.8540 C   0  0  0  0  0  0  0  0  0  0  0  0
   46.8730   31.9770   40.8730 O   0  0  0  0  0  0  0  0  0  0  0  0
   46.9349   33.5185   41.5656 H   0  0  0  0  0  0  0  0  0  0  0  0
   47.5994   36.0953   42.0571 H   0  0  0  0  0  0  0  0  0  0  0  0
   48.2549   34.9704   40.7465 H   0  0  0  0  0  0  0  0  0  0  0  0
   50.0689   36.0569   41.5846 H   0  0  0  0  0  0  0  0  0  0  0  0
   49.4875   35.8176   43.3051 H   0  0  0  0  0  0  0  0  0  0  0  0
   51.1620   34.1560   41.6650 H   0  0  0  0  0  0  0  0  0  0  0  0
   50.7360   34.0873   43.4445 H   0  0  0  0  0  0  0  0  0  0  0  0
   49.3033   32.7854   41.1330 H   0  0  0  0  0  0  0  0  0  0  0  0
   50.1477   32.0027   42.5022 H   0  0  0  0  0  0  0  0  0  0  0  0
   48.4326   33.2559   44.0820 H   0  0  0  0  0  0  0  0  0  0  0  0
   45.2626   33.7408   46.4570 H   0  0  0  0  0  0  0  0  0  0  0  0
   43.8375   35.7544   45.9636 H   0  0  0  0  0  0  0  0  0  0  0  0
   44.1532   36.9429   43.7403 H   0  0  0  0  0  0  0  0  0  0  0  0
   48.4165   31.1214   44.8678 H   0  0  0  0  0  0  0  0  0  0  0  0
   47.4516   28.8336   44.7655 H   0  0  0  0  0  0  0  0  0  0  0  0
   45.9889   29.6977   40.9288 H   0  0  0  0  0  0  0  0  0  0  0  0
  1  6  1  0
  1 11  1  0
  2  3  1  0
  2  1  1  0
  3  4  1  0
  5  4  1  0
  5  6  1  0
  8  7  2  0
  9  8  1  0
 10 11  1  0
 10  9  2  0
 11 12  2  0
 12  7  1  0
 13  6  1  0
 13 14  1  0
 15 14  2  0
 16 15  1  0
 17 16  2  0
 18 19  1  0
 18 16  1  0
 19 13  1  0
 20 19  2  0
  1 21  1  6
  2 22  1  0
  2 23  1  0
  3 24  1  0
  3 25  1  0
  4 26  1  0
  4 27  1  0
  5 28  1  0
  5 29  1  0
  6 30  1  1
  7 31  1  0
  8 32  1  0
  9 33  1  0
 14 34  1  0
 15 35  1  0
 18 36  1  0
M  ISO  8  21  13  22  13  23  13  24  13  25  13  26  13  27  13  28  13
M  ISO  8  29  13  30  13  31  14  32  14  33  14  34  14  35  14  36   9
M  END
>  <minimizedAffinity>  (1) 
-5.03667355

>  <minimizedRMSD>  (1) 
0.21812512

$$$$
