
     RDKit          3D

 34 36  0  0  1  0  0  0  0  0999 V2000
   47.4110   34.0050   42.4170 C   0  0  1  0  0  0  0  0  0  0  0  0
   48.1730   35.1840   41.8390 C   0  0  0  0  0  0  0  0  0  0  0  0
   49.5580   35.3670   42.3160 C   0  0  0  0  0  0  0  0  0  0  0  0
   50.3400   34.0930   42.4100 C   0  0  0  0  0  0  0  0  0  0  0  0
   49.5200   32.8600   42.1700 C   0  0  0  0  0  0  0  0  0  0  0  0
   48.2570   32.9660   43.0180 C   0  0  2  0  0  0  0  0  0  0  0  0
   45.3750   34.2800   45.5100 C   0  0  0  0  0  0  0  0  0  0  0  0
   44.5670   35.4170   45.2480 C   0  0  0  0  0  0  0  0  0  0  0  0
   44.7530   36.0640   44.0080 C   0  0  0  0  0  0  0  0  0  0  0  0
   45.6770   35.5780   43.1390 N   0  0  0  0  0  0  0  0  0  0  0  0
   46.4220   34.4930   43.4330 C   0  0  0  0  0  0  0  0  0  0  0  0
   46.2710   33.8430   44.6190 N   0  0  0  0  0  0  0  0  0  0  0  0
   47.6710   31.6270   43.0660 C   0  0  0  0  0  0  0  0  0  0  0  0
   48.0200   30.7620   44.0560 C   0  0  0  0  0  0  0  0  0  0  0  0
   47.4350   29.5080   44.0520 C   0  0  0  0  0  0  0  0  0  0  0  0
   46.5540   29.1350   43.1170 N   0  0  0  0  0  0  0  0  0  0  0  0
   46.2130   30.0060   42.1340 C   0  0  0  0  0  0  0  0  0  0  0  0
   46.7790   31.2170   42.1390 N   0  0  0  0  0  0  0  0  0  0  0  0
   46.9055   33.5285   41.5641 H   0  0  0  0  0  0  0  0  0  0  0  0
   47.6113   36.0978   42.0831 H   0  0  0  0  0  0  0  0  0  0  0  0
   48.2595   34.9769   40.7621 H   0  0  0  0  0  0  0  0  0  0  0  0
   50.0778   36.0421   41.6202 H   0  0  0  0  0  0  0  0  0  0  0  0
   49.4937   35.7784   43.3341 H   0  0  0  0  0  0  0  0  0  0  0  0
   51.1457   34.1247   41.6618 H   0  0  0  0  0  0  0  0  0  0  0  0
   50.7232   34.0276   43.4390 H   0  0  0  0  0  0  0  0  0  0  0  0
   49.2511   32.7911   41.1056 H   0  0  0  0  0  0  0  0  0  0  0  0
   50.0910   31.9604   42.4431 H   0  0  0  0  0  0  0  0  0  0  0  0
   48.4231   33.2762   44.0602 H   0  0  0  0  0  0  0  0  0  0  0  0
   45.2618   33.7473   46.4657 H   0  0  0  0  0  0  0  0  0  0  0  0
   43.8286   35.7778   45.9791 H   0  0  0  0  0  0  0  0  0  0  0  0
   44.1570   36.9512   43.7481 H   0  0  0  0  0  0  0  0  0  0  0  0
   48.7429   31.0496   44.8336 H   0  0  0  0  0  0  0  0  0  0  0  0
   47.7034   28.7938   44.8444 H   0  0  0  0  0  0  0  0  0  0  0  0
   45.4905   29.7233   41.3542 H   0  0  0  0  0  0  0  0  0  0  0  0
  1  6  1  0
  1 11  1  0
  2  3  1  0
  2  1  1  0
  3  4  1  0
  5  4  1  0
  5  6  1  0
  6 13  1  0
  8  7  2  0
  9  8  1  0
 10 11  1  0
 10  9  2  0
 11 12  2  0
 12  7  1  0
 13 14  2  0
 15 14  1  0
 16 15  2  0
 17 18  2  0
 17 16  1  0
 18 13  1  0
  1 19  1  6
  2 20  1  0
  2 21  1  0
  3 22  1  0
  3 23  1  0
  4 24  1  0
  4 25  1  0
  5 26  1  0
  5 27  1  0
  6 28  1  1
  7 29  1  0
  8 30  1  0
  9 31  1  0
 14 32  1  0
 15 33  1  0
 17 34  1  0
M  ISO  8  19  13  20  13  21  13  22  13  23  13  24  13  25  13  26  13
M  ISO  8  27  13  28  13  29  14  30  14  31  14  32  14  33  14  34  14
M  END
>  <minimizedAffinity>  (1) 
-4.9935174

>  <minimizedRMSD>  (1) 
0.22365886

$$$$
