
     RDKit          3D

 33 35  0  0  1  0  0  0  0  0999 V2000
   47.3980   33.9900   42.4690 C   0  0  1  0  0  0  0  0  0  0  0  0
   48.0560   35.1490   41.7560 C   0  0  0  0  0  0  0  0  0  0  0  0
   49.4380   35.4630   42.1640 C   0  0  0  0  0  0  0  0  0  0  0  0
   50.3160   34.2870   42.4020 C   0  0  0  0  0  0  0  0  0  0  0  0
   49.5990   32.9760   42.2730 C   0  0  0  0  0  0  0  0  0  0  0  0
   48.3430   33.0700   43.1290 C   0  0  2  0  0  0  0  0  0  0  0  0
   45.3370   34.2890   45.5360 C   0  0  0  0  0  0  0  0  0  0  0  0
   44.5450   35.4300   45.2660 C   0  0  0  0  0  0  0  0  0  0  0  0
   44.7400   36.0830   44.0300 C   0  0  0  0  0  0  0  0  0  0  0  0
   45.6810   35.5840   43.1550 N   0  0  0  0  0  0  0  0  0  0  0  0
   46.4020   34.4920   43.4770 C   0  0  0  0  0  0  0  0  0  0  0  0
   46.2380   33.8400   44.6600 N   0  0  0  0  0  0  0  0  0  0  0  0
   47.8450   31.6880   43.2450 C   0  0  0  0  0  0  0  0  0  0  0  0
   47.9780   30.6520   44.1390 C   0  0  0  0  0  0  0  0  0  0  0  0
   47.3480   29.4820   43.9070 C   0  0  0  0  0  0  0  0  0  0  0  0
   46.5430   29.3780   42.6910 C   0  0  0  0  0  0  0  0  0  0  0  0
   46.7290   31.0150   41.9080 S   0  0  0  0  0  0  0  0  0  0  0  0
   46.8944   33.4093   41.6821 H   0  0  0  0  0  0  0  0  0  0  0  0
   47.4420   36.0444   41.9328 H   0  0  0  0  0  0  0  0  0  0  0  0
   48.1216   34.8470   40.7003 H   0  0  0  0  0  0  0  0  0  0  0  0
   49.8955   36.0730   41.3712 H   0  0  0  0  0  0  0  0  0  0  0  0
   49.3579   35.9817   43.1307 H   0  0  0  0  0  0  0  0  0  0  0  0
   51.1365   34.3098   41.6697 H   0  0  0  0  0  0  0  0  0  0  0  0
   50.6822   34.3578   43.4368 H   0  0  0  0  0  0  0  0  0  0  0  0
   49.3276   32.7955   41.2224 H   0  0  0  0  0  0  0  0  0  0  0  0
   50.2385   32.1444   42.6038 H   0  0  0  0  0  0  0  0  0  0  0  0
   48.5098   33.4770   44.1372 H   0  0  0  0  0  0  0  0  0  0  0  0
   45.2069   33.7592   46.4912 H   0  0  0  0  0  0  0  0  0  0  0  0
   43.8043   35.7948   45.9929 H   0  0  0  0  0  0  0  0  0  0  0  0
   44.1511   36.9748   43.7694 H   0  0  0  0  0  0  0  0  0  0  0  0
   48.5960   30.7768   45.0404 H   0  0  0  0  0  0  0  0  0  0  0  0
   47.4366   28.6377   44.6065 H   0  0  0  0  0  0  0  0  0  0  0  0
   45.9619   28.5155   42.3326 H   0  0  0  0  0  0  0  0  0  0  0  0
  1  6  1  0
  1 11  1  0
  2  3  1  0
  2  1  1  0
  3  4  1  0
  5  4  1  0
  5  6  1  0
  6 13  1  0
  8  7  2  0
  9  8  1  0
 10 11  1  0
 10  9  2  0
 11 12  2  0
 12  7  1  0
 13 14  2  0
 15 14  1  0
 16 15  2  0
 17 16  1  0
 17 13  1  0
  1 18  1  6
  2 19  1  0
  2 20  1  0
  3 21  1  0
  3 22  1  0
  4 23  1  0
  4 24  1  0
  5 25  1  0
  5 26  1  0
  6 27  1  1
  7 28  1  0
  8 29  1  0
  9 30  1  0
 14 31  1  0
 15 32  1  0
 16 33  1  0
M  ISO  8  18  13  19  13  20  13  21  13  22  13  23  13  24  13  25  13
M  ISO  8  26  13  27  13  28  14  29  14  30  14  31  14  32  14  33  14
M  END
>  <minimizedAffinity>  (1) 
-4.97677755

>  <minimizedRMSD>  (1) 
0.353665322

$$$$
