
     RDKit          3D

 29 30  0  0  1  0  0  0  0  0999 V2000
   47.4300   34.0180   42.3960 C   0  0  1  0  0  0  0  0  0  0  0  0
   48.1940   35.2040   41.8330 C   0  0  0  0  0  0  0  0  0  0  0  0
   49.5780   35.3770   42.3190 C   0  0  0  0  0  0  0  0  0  0  0  0
   50.3580   34.1010   42.4070 C   0  0  0  0  0  0  0  0  0  0  0  0
   49.5410   32.8630   42.1500 C   0  0  0  0  0  0  0  0  0  0  0  0
   48.2710   32.9590   42.9830 C   0  0  2  0  0  0  0  0  0  0  0  0
   45.3950   34.2570   45.4900 C   0  0  0  0  0  0  0  0  0  0  0  0
   44.5800   35.3910   45.2340 C   0  0  0  0  0  0  0  0  0  0  0  0
   44.7570   36.0480   43.9980 C   0  0  0  0  0  0  0  0  0  0  0  0
   45.6840   35.5720   43.1280 N   0  0  0  0  0  0  0  0  0  0  0  0
   46.4360   34.4870   43.4190 C   0  0  0  0  0  0  0  0  0  0  0  0
   46.2920   33.8300   44.6000 N   0  0  0  0  0  0  0  0  0  0  0  0
   47.5750   31.6110   42.7750 C   0  0  0  0  0  0  0  0  0  0  0  0
   46.9278   33.5605   41.5308 H   0  0  0  0  0  0  0  0  0  0  0  0
   47.6328   36.1157   42.0859 H   0  0  0  0  0  0  0  0  0  0  0  0
   48.2824   35.0123   40.7535 H   0  0  0  0  0  0  0  0  0  0  0  0
   50.1033   36.0566   41.6318 H   0  0  0  0  0  0  0  0  0  0  0  0
   49.5082   35.7779   43.3410 H   0  0  0  0  0  0  0  0  0  0  0  0
   51.1691   34.1399   41.6650 H   0  0  0  0  0  0  0  0  0  0  0  0
   50.7303   34.0270   43.4394 H   0  0  0  0  0  0  0  0  0  0  0  0
   49.2838   32.8000   41.0824 H   0  0  0  0  0  0  0  0  0  0  0  0
   50.1119   31.9636   42.4242 H   0  0  0  0  0  0  0  0  0  0  0  0
   48.4579   33.1799   44.0443 H   0  0  0  0  0  0  0  0  0  0  0  0
   45.2843   33.7189   46.4430 H   0  0  0  0  0  0  0  0  0  0  0  0
   43.8411   35.7429   45.9690 H   0  0  0  0  0  0  0  0  0  0  0  0
   44.1535   36.9317   43.7434 H   0  0  0  0  0  0  0  0  0  0  0  0
   47.3437   31.1630   43.7527 H   0  0  0  0  0  0  0  0  0  0  0  0
   46.6426   31.7629   42.2115 H   0  0  0  0  0  0  0  0  0  0  0  0
   48.2387   30.9388   42.2115 H   0  0  0  0  0  0  0  0  0  0  0  0
  1  6  1  0
  1 11  1  0
  2  3  1  0
  2  1  1  0
  3  4  1  0
  5  4  1  0
  5  6  1  0
  8  7  2  0
  9  8  1  0
 10 11  1  0
 10  9  2  0
 11 12  2  0
 12  7  1  0
 13  6  1  0
  1 14  1  6
  2 15  1  0
  2 16  1  0
  3 17  1  0
  3 18  1  0
  4 19  1  0
  4 20  1  0
  5 21  1  0
  5 22  1  0
  6 23  1  1
  7 24  1  0
  8 25  1  0
  9 26  1  0
 13 27  1  0
 13 28  1  0
 13 29  1  0
M  ISO  8  14  13  15  13  16  13  17  13  18  13  19  13  20  13  21  13
M  ISO  8  22  13  23  13  24  14  25  14  26  14  27   8  28   8  29   8
M  END
>  <minimizedAffinity>  (1) 
-4.88424635

>  <minimizedRMSD>  (1) 
0.0229477398

$$$$
