
     RDKit          3D

 33 35  0  0  1  0  0  0  0  0999 V2000
   47.4400   33.9990   42.4360 C   0  0  1  0  0  0  0  0  0  0  0  0
   48.1980   35.1730   41.8500 C   0  0  0  0  0  0  0  0  0  0  0  0
   49.5800   35.3630   42.3480 C   0  0  0  0  0  0  0  0  0  0  0  0
   50.3650   34.0880   42.3920 C   0  0  0  0  0  0  0  0  0  0  0  0
   49.5450   32.8480   42.1910 C   0  0  0  0  0  0  0  0  0  0  0  0
   48.3060   32.9830   43.0670 C   0  0  2  0  0  0  0  0  0  0  0  0
   45.4010   34.2810   45.5200 C   0  0  0  0  0  0  0  0  0  0  0  0
   44.5730   35.4000   45.2350 C   0  0  0  0  0  0  0  0  0  0  0  0
   44.7370   36.0380   43.9870 C   0  0  0  0  0  0  0  0  0  0  0  0
   45.6720   35.5480   43.1330 N   0  0  0  0  0  0  0  0  0  0  0  0
   46.4360   34.4900   43.4330 C   0  0  0  0  0  0  0  0  0  0  0  0
   46.3050   33.8580   44.6190 N   0  0  0  0  0  0  0  0  0  0  0  0
   47.6340   31.7130   43.3040 C   0  0  0  0  0  0  0  0  0  0  0  0
   46.7590   31.0510   42.4770 C   0  0  0  0  0  0  0  0  0  0  0  0
   46.4090   29.8960   43.1630 C   0  0  0  0  0  0  0  0  0  0  0  0
   47.0360   29.8590   44.3410 N   0  0  0  0  0  0  0  0  0  0  0  0
   47.7630   30.9410   44.4200 N   0  0  0  0  0  0  0  0  0  0  0  0
   46.9415   33.5027   41.5903 H   0  0  0  0  0  0  0  0  0  0  0  0
   47.6297   36.0875   42.0751 H   0  0  0  0  0  0  0  0  0  0  0  0
   48.2951   34.9588   40.7754 H   0  0  0  0  0  0  0  0  0  0  0  0
   50.0978   36.0711   41.6843 H   0  0  0  0  0  0  0  0  0  0  0  0
   49.5101   35.7429   43.3779 H   0  0  0  0  0  0  0  0  0  0  0  0
   51.1291   34.1270   41.6017 H   0  0  0  0  0  0  0  0  0  0  0  0
   50.7956   34.0192   43.4019 H   0  0  0  0  0  0  0  0  0  0  0  0
   49.2520   32.7566   41.1347 H   0  0  0  0  0  0  0  0  0  0  0  0
   50.1200   31.9503   42.4621 H   0  0  0  0  0  0  0  0  0  0  0  0
   48.5885   33.3114   44.0781 H   0  0  0  0  0  0  0  0  0  0  0  0
   45.3019   33.7581   46.4827 H   0  0  0  0  0  0  0  0  0  0  0  0
   43.8292   35.7569   45.9626 H   0  0  0  0  0  0  0  0  0  0  0  0
   44.1236   36.9091   43.7133 H   0  0  0  0  0  0  0  0  0  0  0  0
   46.4102   31.3685   41.4833 H   0  0  0  0  0  0  0  0  0  0  0  0
   45.7176   29.1255   42.7911 H   0  0  0  0  0  0  0  0  0  0  0  0
   46.9607   29.1179   45.0524 H   0  0  0  0  0  0  0  0  0  0  0  0
  1  6  1  0
  1 11  1  0
  2  3  1  0
  2  1  1  0
  3  4  1  0
  5  4  1  0
  5  6  1  0
  6 13  1  0
  8  7  2  0
  9  8  1  0
 10 11  1  0
 10  9  2  0
 11 12  2  0
 12  7  1  0
 13 17  2  0
 14 15  2  0
 14 13  1  0
 15 16  1  0
 16 17  1  0
  1 18  1  6
  2 19  1  0
  2 20  1  0
  3 21  1  0
  3 22  1  0
  4 23  1  0
  4 24  1  0
  5 25  1  0
  5 26  1  0
  6 27  1  1
  7 28  1  0
  8 29  1  0
  9 30  1  0
 14 31  1  0
 15 32  1  0
 16 33  1  0
M  ISO  8  18  13  19  13  20  13  21  13  22  13  23  13  24  13  25  13
M  ISO  8  26  13  27  13  28  14  29  14  30  14  31  14  32  14  33   9
M  END
>  <minimizedAffinity>  (1) 
-4.94092178

>  <minimizedRMSD>  (1) 
0.141049534

$$$$
