
     RDKit          3D

 33 35  0  0  1  0  0  0  0  0999 V2000
   47.4450   34.0220   42.3790 C   0  0  1  0  0  0  0  0  0  0  0  0
   48.2630   35.1910   41.8690 C   0  0  0  0  0  0  0  0  0  0  0  0
   49.6500   35.2850   42.3700 C   0  0  0  0  0  0  0  0  0  0  0  0
   50.3720   33.9710   42.4020 C   0  0  0  0  0  0  0  0  0  0  0  0
   49.5040   32.7860   42.1000 C   0  0  0  0  0  0  0  0  0  0  0  0
   48.2510   32.9280   42.9520 C   0  0  2  0  0  0  0  0  0  0  0  0
   45.4380   34.2650   45.4890 C   0  0  0  0  0  0  0  0  0  0  0  0
   44.6080   35.3740   45.2100 C   0  0  0  0  0  0  0  0  0  0  0  0
   44.7410   36.0320   43.9680 C   0  0  0  0  0  0  0  0  0  0  0  0
   45.6790   35.5510   43.0970 N   0  0  0  0  0  0  0  0  0  0  0  0
   46.4490   34.5010   43.3930 C   0  0  0  0  0  0  0  0  0  0  0  0
   46.3370   33.8540   44.5790 N   0  0  0  0  0  0  0  0  0  0  0  0
   47.5430   31.7110   43.1120 N   0  0  0  0  0  0  0  0  0  0  0  0
   47.5610   30.8300   44.1000 C   0  0  0  0  0  0  0  0  0  0  0  0
   46.6990   29.7750   43.8300 C   0  0  0  0  0  0  0  0  0  0  0  0
   46.1360   30.0250   42.6300 N   0  0  0  0  0  0  0  0  0  0  0  0
   46.6530   31.1800   42.2240 C   0  0  0  0  0  0  0  0  0  0  0  0
   46.9351   33.6006   41.5001 H   0  0  0  0  0  0  0  0  0  0  0  0
   47.7401   36.1160   42.1535 H   0  0  0  0  0  0  0  0  0  0  0  0
   48.3521   35.0365   40.7836 H   0  0  0  0  0  0  0  0  0  0  0  0
   50.2087   35.9720   41.7174 H   0  0  0  0  0  0  0  0  0  0  0  0
   49.5922   35.6443   43.4081 H   0  0  0  0  0  0  0  0  0  0  0  0
   51.1819   34.0040   41.6584 H   0  0  0  0  0  0  0  0  0  0  0  0
   50.7423   33.8384   43.4293 H   0  0  0  0  0  0  0  0  0  0  0  0
   49.2368   32.7748   41.0330 H   0  0  0  0  0  0  0  0  0  0  0  0
   50.0288   31.8457   42.3248 H   0  0  0  0  0  0  0  0  0  0  0  0
   48.5265   33.1880   43.9847 H   0  0  0  0  0  0  0  0  0  0  0  0
   45.3482   33.7385   46.4506 H   0  0  0  0  0  0  0  0  0  0  0  0
   43.8698   35.7192   45.9489 H   0  0  0  0  0  0  0  0  0  0  0  0
   44.1140   36.8985   43.7108 H   0  0  0  0  0  0  0  0  0  0  0  0
   48.1738   30.9210   45.0089 H   0  0  0  0  0  0  0  0  0  0  0  0
   46.5112   28.9020   44.4723 H   0  0  0  0  0  0  0  0  0  0  0  0
   46.3903   31.6593   41.2694 H   0  0  0  0  0  0  0  0  0  0  0  0
  1  6  1  0
  1 11  1  0
  2  3  1  0
  2  1  1  0
  3  4  1  0
  5  4  1  0
  5  6  1  0
  6 13  1  0
  8  7  2  0
  9  8  1  0
 10 11  1  0
 10  9  2  0
 11 12  2  0
 12  7  1  0
 13 14  1  0
 15 14  2  0
 16 15  1  0
 17 16  2  0
 17 13  1  0
  1 18  1  6
  2 19  1  0
  2 20  1  0
  3 21  1  0
  3 22  1  0
  4 23  1  0
  4 24  1  0
  5 25  1  0
  5 26  1  0
  6 27  1  1
  7 28  1  0
  8 29  1  0
  9 30  1  0
 14 31  1  0
 15 32  1  0
 17 33  1  0
M  ISO  8  18  13  19  13  20  13  21  13  22  13  23  13  24  13  25  13
M  ISO  8  26  13  27  13  28  14  29  14  30  14  31  14  32  14  33  14
M  END
>  <minimizedAffinity>  (1) 
-4.86422873

>  <minimizedRMSD>  (1) 
0.259947419

$$$$
