
     RDKit          3D

 27 28  0  0  1  0  0  0  0  0999 V2000
   47.4180   33.9780   42.4440 C   0  0  1  0  0  0  0  0  0  0  0  0
   48.1290   35.1490   41.7910 C   0  0  0  0  0  0  0  0  0  0  0  0
   49.5180   35.3910   42.2380 C   0  0  0  0  0  0  0  0  0  0  0  0
   50.3330   34.1440   42.3960 C   0  0  0  0  0  0  0  0  0  0  0  0
   49.5490   32.8800   42.2030 C   0  0  0  0  0  0  0  0  0  0  0  0
   48.3030   32.9850   43.0780 C   0  0  2  0  0  0  0  0  0  0  0  0
   45.3440   34.2690   45.5070 C   0  0  0  0  0  0  0  0  0  0  0  0
   44.5610   35.4220   45.2370 C   0  0  0  0  0  0  0  0  0  0  0  0
   44.7720   36.0750   44.0060 C   0  0  0  0  0  0  0  0  0  0  0  0
   45.7020   35.5740   43.1530 N   0  0  0  0  0  0  0  0  0  0  0  0
   46.4230   34.4800   43.4420 C   0  0  0  0  0  0  0  0  0  0  0  0
   46.2440   33.8260   44.6210 N   0  0  0  0  0  0  0  0  0  0  0  0
   47.7510   31.7310   43.1700 O   0  0  0  0  0  0  0  0  0  0  0  0
   46.9199   33.4438   41.6215 H   0  0  0  0  0  0  0  0  0  0  0  0
   47.5445   36.0572   41.9996 H   0  0  0  0  0  0  0  0  0  0  0  0
   48.1994   34.8968   40.7226 H   0  0  0  0  0  0  0  0  0  0  0  0
   50.0126   36.0359   41.4967 H   0  0  0  0  0  0  0  0  0  0  0  0
   49.4557   35.8587   43.2317 H   0  0  0  0  0  0  0  0  0  0  0  0
   51.1457   34.1646   41.6550 H   0  0  0  0  0  0  0  0  0  0  0  0
   50.7067   34.1344   43.4305 H   0  0  0  0  0  0  0  0  0  0  0  0
   49.2602   32.7729   41.1470 H   0  0  0  0  0  0  0  0  0  0  0  0
   50.1493   32.0013   42.4814 H   0  0  0  0  0  0  0  0  0  0  0  0
   48.5071   33.3228   44.1048 H   0  0  0  0  0  0  0  0  0  0  0  0
   45.2091   33.7322   46.4576 H   0  0  0  0  0  0  0  0  0  0  0  0
   43.8188   35.7912   45.9601 H   0  0  0  0  0  0  0  0  0  0  0  0
   44.1945   36.9730   43.7414 H   0  0  0  0  0  0  0  0  0  0  0  0
   47.6435   31.4869   44.1234 H   0  0  0  0  0  0  0  0  0  0  0  0
  1  6  1  0
  1 11  1  0
  2  3  1  0
  2  1  1  0
  3  4  1  0
  5  4  1  0
  5  6  1  0
  6 13  1  0
  8  7  2  0
  9  8  1  0
 10 11  1  0
 10  9  2  0
 11 12  2  0
 12  7  1  0
  1 14  1  6
  2 15  1  0
  2 16  1  0
  3 17  1  0
  3 18  1  0
  4 19  1  0
  4 20  1  0
  5 21  1  0
  5 22  1  0
  6 23  1  1
  7 24  1  0
  8 25  1  0
  9 26  1  0
 13 27  1  0
M  ISO  8  14  13  15  13  16  13  17  13  18  13  19  13  20  13  21  13
M  ISO  6  22  13  23  13  24  14  25  14  26  14  27   3
M  END
>  <minimizedAffinity>  (1) 
-4.83662987

>  <minimizedRMSD>  (1) 
0.0660388097

$$$$
