
     RDKit          3D

 30 32  0  0  0  0  0  0  0  0999 V2000
   44.5250   35.7660   44.5640 C   0  0  0  0  0  0  0  0  0  0  0  0
   45.2650   35.6220   43.3770 C   0  0  0  0  0  0  0  0  0  0  0  0
   46.2390   34.5940   43.3500 C   0  0  0  0  0  0  0  0  0  0  0  0
   46.4250   33.8010   44.4420 N   0  0  0  0  0  0  0  0  0  0  0  0
   45.6690   34.0000   45.5620 C   0  0  0  0  0  0  0  0  0  0  0  0
   44.7400   34.9600   45.6230 N   0  0  0  0  0  0  0  0  0  0  0  0
   45.8460   33.1750   46.7240 N   0  0  0  0  0  0  0  0  0  0  0  0
   47.0380   32.5240   46.8230 C   0  0  0  0  0  0  0  0  0  0  0  0
   46.9770   31.8070   47.9970 C   0  0  0  0  0  0  0  0  0  0  0  0
   45.7890   32.0230   48.5770 N   0  0  0  0  0  0  0  0  0  0  0  0
   45.0820   32.8630   47.8040 C   0  0  0  0  0  0  0  0  0  0  0  0
   47.9860   30.9510   48.5610 N   0  0  0  0  0  0  0  0  0  0  0  0
   48.8910   31.3470   49.4520 C   0  0  0  0  0  0  0  0  0  0  0  0
   49.7710   30.3690   49.8680 C   0  0  0  0  0  0  0  0  0  0  0  0
   50.8170   30.7440   50.8710 C   0  0  0  0  0  0  0  0  0  0  0  0
   49.7590   29.0650   49.4250 C   0  0  0  0  0  0  0  0  0  0  0  0
   50.5670   28.1890   49.8130 O   0  0  0  0  0  0  0  0  0  0  0  0
   48.8010   28.7430   48.5120 N   0  0  0  0  0  0  0  0  0  0  0  0
   47.9330   29.6750   48.0920 C   0  0  0  0  0  0  0  0  0  0  0  0
   47.0680   29.2910   47.2370 O   0  0  0  0  0  0  0  0  0  0  0  0
   43.7568   36.5505   44.6296 H   0  0  0  0  0  0  0  0  0  0  0  0
   45.0954   36.2772   42.5098 H   0  0  0  0  0  0  0  0  0  0  0  0
   46.8459   34.4358   42.4463 H   0  0  0  0  0  0  0  0  0  0  0  0
   47.8764   32.5629   46.1120 H   0  0  0  0  0  0  0  0  0  0  0  0
   44.0663   33.2325   48.0082 H   0  0  0  0  0  0  0  0  0  0  0  0
   48.9346   32.3792   49.8297 H   0  0  0  0  0  0  0  0  0  0  0  0
   50.4191   30.6013   51.8865 H   0  0  0  0  0  0  0  0  0  0  0  0
   51.7034   30.1077   50.7318 H   0  0  0  0  0  0  0  0  0  0  0  0
   51.0972   31.7986   50.7318 H   0  0  0  0  0  0  0  0  0  0  0  0
   48.7431   27.7828   48.1438 H   0  0  0  0  0  0  0  0  0  0  0  0
  1  6  2  0
  2  1  1  0
  3  2  2  0
  3  4  1  0
  4  5  2  0
  5  6  1  0
  5  7  1  0
  7  8  1  0
  7 11  1  0
  8  9  2  0
  9 12  1  0
  9 10  1  0
 11 10  2  0
 12 13  1  0
 13 14  2  0
 14 15  1  0
 16 17  2  0
 16 14  1  0
 18 16  1  0
 19 18  1  0
 19 12  1  0
 20 19  2  0
  1 21  1  0
  2 22  1  0
  3 23  1  0
  8 24  1  0
 11 25  1  0
 13 26  1  0
 15 27  1  0
 15 28  1  0
 15 29  1  0
 18 30  1  0
M  ISO  8  21  14  22  14  23  14  24  14  25  14  26  14  27   8  28   8
M  ISO  2  29   8  30   9
M  END
>  <minimizedAffinity>  (1) 
-6.05789137

>  <minimizedRMSD>  (1) 
0.287675858

$$$$
