
     RDKit          3D

 20 21  0  0  0  0  0  0  0  0999 V2000
   44.4880   35.8440   44.3040 C   0  0  0  0  0  0  0  0  0  0  0  0
   45.2430   35.6640   43.1380 C   0  0  0  0  0  0  0  0  0  0  0  0
   46.2230   34.6680   43.1740 C   0  0  0  0  0  0  0  0  0  0  0  0
   46.4070   33.9280   44.3010 N   0  0  0  0  0  0  0  0  0  0  0  0
   45.6420   34.1460   45.4080 C   0  0  0  0  0  0  0  0  0  0  0  0
   44.6870   35.0930   45.4250 N   0  0  0  0  0  0  0  0  0  0  0  0
   45.8160   33.3810   46.6050 N   0  0  0  0  0  0  0  0  0  0  0  0
   47.0080   32.7440   46.7490 C   0  0  0  0  0  0  0  0  0  0  0  0
   46.9180   32.0870   47.9740 C   0  0  0  0  0  0  0  0  0  0  0  0
   45.7300   32.3240   48.5260 N   0  0  0  0  0  0  0  0  0  0  0  0
   45.0390   33.1200   47.6960 C   0  0  0  0  0  0  0  0  0  0  0  0
   48.0130   31.2380   48.5690 C   0  0  0  0  0  0  0  0  0  0  0  0
   48.4580   30.3120   47.6460 F   0  0  0  0  0  0  0  0  0  0  0  0
   47.5370   30.6220   49.7030 F   0  0  0  0  0  0  0  0  0  0  0  0
   49.0650   32.0410   48.9420 F   0  0  0  0  0  0  0  0  0  0  0  0
   43.7069   36.6185   44.3160 H   0  0  0  0  0  0  0  0  0  0  0  0
   45.0733   36.2755   42.2395 H   0  0  0  0  0  0  0  0  0  0  0  0
   46.8478   34.4817   42.2880 H   0  0  0  0  0  0  0  0  0  0  0  0
   47.8580   32.7467   46.0508 H   0  0  0  0  0  0  0  0  0  0  0  0
   44.0200   33.4978   47.8659 H   0  0  0  0  0  0  0  0  0  0  0  0
  1  6  2  0
  2  3  2  0
  2  1  1  0
  3  4  1  0
  4  5  2  0
  5  6  1  0
  5  7  1  0
  7  8  1  0
  7 11  1  0
  8  9  2  0
  9 10  1  0
  9 12  1  0
 11 10  2  0
 12 15  1  0
 12 14  1  0
 13 12  1  0
  1 16  1  0
  2 17  1  0
  3 18  1  0
  8 19  1  0
 11 20  1  0
M  ISO  5  16  14  17  14  18  14  19  14  20  14
M  END
>  <minimizedAffinity>  (1) 
-5.01221848

>  <minimizedRMSD>  (1) 
0.537543893

$$$$
