
     RDKit          3D

 26 27  0  0  0  0  0  0  0  0999 V2000
   44.5740   35.7340   44.6810 C   0  0  0  0  0  0  0  0  0  0  0  0
   45.2790   35.5740   43.4890 C   0  0  0  0  0  0  0  0  0  0  0  0
   46.1970   34.5200   43.4390 C   0  0  0  0  0  0  0  0  0  0  0  0
   46.3460   33.7300   44.5240 N   0  0  0  0  0  0  0  0  0  0  0  0
   45.6400   33.9150   45.6740 C   0  0  0  0  0  0  0  0  0  0  0  0
   44.7640   34.9150   45.7400 N   0  0  0  0  0  0  0  0  0  0  0  0
   45.8000   33.0850   46.8120 N   0  0  0  0  0  0  0  0  0  0  0  0
   46.9370   32.3740   46.8950 C   0  0  0  0  0  0  0  0  0  0  0  0
   46.8590   31.6500   48.0790 C   0  0  0  0  0  0  0  0  0  0  0  0
   45.7030   31.9280   48.6780 N   0  0  0  0  0  0  0  0  0  0  0  0
   45.0470   32.8020   47.9150 C   0  0  0  0  0  0  0  0  0  0  0  0
   47.8780   30.7010   48.6350 C   0  0  0  0  0  0  0  0  0  0  0  0
   49.0190   31.5720   49.1740 C   0  0  0  0  0  0  0  0  0  0  0  0
   48.4650   29.8350   47.5560 C   0  0  0  0  0  0  0  0  0  0  0  0
   43.8415   36.5506   44.7624 H   0  0  0  0  0  0  0  0  0  0  0  0
   45.1211   36.2434   42.6305 H   0  0  0  0  0  0  0  0  0  0  0  0
   46.7886   34.3374   42.5298 H   0  0  0  0  0  0  0  0  0  0  0  0
   47.7646   32.3664   46.1704 H   0  0  0  0  0  0  0  0  0  0  0  0
   44.0574   33.2272   48.1383 H   0  0  0  0  0  0  0  0  0  0  0  0
   47.4093   30.0576   49.3942 H   0  0  0  0  0  0  0  0  0  0  0  0
   49.0021   31.5591   50.2738 H   0  0  0  0  0  0  0  0  0  0  0  0
   49.9817   31.1770   48.8174 H   0  0  0  0  0  0  0  0  0  0  0  0
   48.8918   32.6048   48.8174 H   0  0  0  0  0  0  0  0  0  0  0  0
   49.0260   29.0074   48.0147 H   0  0  0  0  0  0  0  0  0  0  0  0
   47.6559   29.4280   46.9318 H   0  0  0  0  0  0  0  0  0  0  0  0
   49.1428   30.4358   46.9318 H   0  0  0  0  0  0  0  0  0  0  0  0
  1  6  2  0
  2  1  1  0
  3  2  2  0
  3  4  1  0
  4  5  2  0
  5  6  1  0
  5  7  1  0
  7  8  1  0
  7 11  1  0
  8  9  2  0
  9 12  1  0
  9 10  1  0
 11 10  2  0
 12 13  1  0
 14 12  1  0
  1 15  1  0
  2 16  1  0
  3 17  1  0
  8 18  1  0
 11 19  1  0
 12 20  1  0
 13 21  1  0
 13 22  1  0
 13 23  1  0
 14 24  1  0
 14 25  1  0
 14 26  1  0
M  ISO  8  15  14  16  14  17  14  18  14  19  14  20   8  21   8  22   8
M  ISO  4  23   8  24   8  25   8  26   8
M  END
>  <minimizedAffinity>  (1) 
-4.89557981

>  <minimizedRMSD>  (1) 
0.543099523

$$$$
