
     RDKit          3D

 27 29  0  0  0  0  0  0  0  0999 V2000
   44.5110   35.8370   44.6680 C   0  0  0  0  0  0  0  0  0  0  0  0
   45.1940   35.6890   43.4520 C   0  0  0  0  0  0  0  0  0  0  0  0
   46.1140   34.6450   43.3250 C   0  0  0  0  0  0  0  0  0  0  0  0
   46.2960   33.8320   44.3870 N   0  0  0  0  0  0  0  0  0  0  0  0
   45.6240   33.9930   45.5540 C   0  0  0  0  0  0  0  0  0  0  0  0
   44.7330   34.9870   45.7080 N   0  0  0  0  0  0  0  0  0  0  0  0
   45.8080   33.1370   46.6860 N   0  0  0  0  0  0  0  0  0  0  0  0
   46.9700   32.4310   46.7060 C   0  0  0  0  0  0  0  0  0  0  0  0
   46.9340   31.6850   47.8710 C   0  0  0  0  0  0  0  0  0  0  0  0
   45.7910   31.9380   48.5210 N   0  0  0  0  0  0  0  0  0  0  0  0
   45.1010   32.8200   47.8070 C   0  0  0  0  0  0  0  0  0  0  0  0
   47.9570   30.7600   48.3460 C   0  0  0  0  0  0  0  0  0  0  0  0
   48.6560   31.0730   49.4950 C   0  0  0  0  0  0  0  0  0  0  0  0
   49.6330   30.2430   49.9940 C   0  0  0  0  0  0  0  0  0  0  0  0
   49.9010   29.0610   49.2970 C   0  0  0  0  0  0  0  0  0  0  0  0
   49.2000   28.7440   48.1410 C   0  0  0  0  0  0  0  0  0  0  0  0
   48.2200   29.5930   47.6560 C   0  0  0  0  0  0  0  0  0  0  0  0
   43.7834   36.6539   44.7834 H   0  0  0  0  0  0  0  0  0  0  0  0
   45.0094   36.3799   42.6162 H   0  0  0  0  0  0  0  0  0  0  0  0
   46.6720   34.4906   42.3897 H   0  0  0  0  0  0  0  0  0  0  0  0
   47.7716   32.4491   45.9530 H   0  0  0  0  0  0  0  0  0  0  0  0
   44.1163   33.2292   48.0773 H   0  0  0  0  0  0  0  0  0  0  0  0
   48.4259   32.0093   50.0245 H   0  0  0  0  0  0  0  0  0  0  0  0
   50.1846   30.5005   50.9102 H   0  0  0  0  0  0  0  0  0  0  0  0
   50.6759   28.3744   49.6686 H   0  0  0  0  0  0  0  0  0  0  0  0
   49.4254   27.8098   47.6058 H   0  0  0  0  0  0  0  0  0  0  0  0
   47.6629   29.3435   46.7409 H   0  0  0  0  0  0  0  0  0  0  0  0
  1  6  2  0
  2  1  1  0
  3  2  2  0
  3  4  1  0
  4  5  2  0
  5  6  1  0
  5  7  1  0
  7  8  1  0
  7 11  1  0
  8  9  2  0
  9 12  1  0
  9 10  1  0
 11 10  2  0
 12 13  2  0
 13 14  1  0
 15 14  2  0
 16 15  1  0
 17 16  2  0
 17 12  1  0
  1 18  1  0
  2 19  1  0
  3 20  1  0
  8 21  1  0
 11 22  1  0
 13 23  1  0
 14 24  1  0
 15 25  1  0
 16 26  1  0
 17 27  1  0
M  ISO  8  18  14  19  14  20  14  21  14  22  14  23  14  24  14  25  14
M  ISO  2  26  14  27  14
M  END
>  <minimizedAffinity>  (1) 
-5.57980442

>  <minimizedRMSD>  (1) 
0.0918851569

$$$$
