
     RDKit          3D

 18 19  0  0  0  0  0  0  0  0999 V2000
   44.5280   35.7520   44.5890 C   0  0  0  0  0  0  0  0  0  0  0  0
   45.2530   35.6030   43.4100 C   0  0  0  0  0  0  0  0  0  0  0  0
   46.2250   34.5710   43.3760 C   0  0  0  0  0  0  0  0  0  0  0  0
   46.4070   33.7870   44.4680 N   0  0  0  0  0  0  0  0  0  0  0  0
   45.6640   33.9840   45.5950 C   0  0  0  0  0  0  0  0  0  0  0  0
   44.7330   34.9560   45.6580 N   0  0  0  0  0  0  0  0  0  0  0  0
   45.8330   33.1730   46.7640 N   0  0  0  0  0  0  0  0  0  0  0  0
   47.0040   32.4880   46.8510 C   0  0  0  0  0  0  0  0  0  0  0  0
   46.9410   31.7880   48.0430 C   0  0  0  0  0  0  0  0  0  0  0  0
   45.7780   32.0480   48.6380 N   0  0  0  0  0  0  0  0  0  0  0  0
   45.0860   32.9020   47.8560 C   0  0  0  0  0  0  0  0  0  0  0  0
   48.1570   30.6910   48.7580 S   0  0  0  0  0  0  0  0  0  0  0  0
   43.7654   36.5424   44.6504 H   0  0  0  0  0  0  0  0  0  0  0  0
   45.0795   36.2571   42.5428 H   0  0  0  0  0  0  0  0  0  0  0  0
   46.8273   34.4073   42.4702 H   0  0  0  0  0  0  0  0  0  0  0  0
   47.8301   32.4898   46.1247 H   0  0  0  0  0  0  0  0  0  0  0  0
   44.0862   33.3075   48.0706 H   0  0  0  0  0  0  0  0  0  0  0  0
   48.0840   30.7568   50.1245 H   0  0  0  0  0  0  0  0  0  0  0  0
  1  6  2  0
  2  1  1  0
  3  2  2  0
  3  4  1  0
  4  5  2  0
  5  6  1  0
  5  7  1  0
  7  8  1  0
  7 11  1  0
  8  9  2  0
  9 10  1  0
  9 12  1  0
 11 10  2  0
  1 13  1  0
  2 14  1  0
  3 15  1  0
  8 16  1  0
 11 17  1  0
 12 18  1  0
M  ISO  6  13  14  14  14  15  14  16  14  17  14  18  11
M  END
>  <minimizedAffinity>  (1) 
-4.45828867

>  <minimizedRMSD>  (1) 
0.148865387

$$$$
