
     RDKit          3D

 41 45  0  0  0  0  0  0  0  0999 V2000
   48.0130   30.8990   48.2250 C   0  0  0  0  0  0  0  0  0  0  0  0
   48.9060   31.3690   49.1740 C   0  0  0  0  0  0  0  0  0  0  0  0
   49.9130   30.5750   49.6690 C   0  0  0  0  0  0  0  0  0  0  0  0
   50.0060   29.2640   49.1760 C   0  0  0  0  0  0  0  0  0  0  0  0
   49.1140   28.8000   48.2300 C   0  0  0  0  0  0  0  0  0  0  0  0
   48.1030   29.6180   47.7420 C   0  0  0  0  0  0  0  0  0  0  0  0
   44.4570   35.9110   44.5620 C   0  0  0  0  0  0  0  0  0  0  0  0
   45.1630   35.8060   43.3630 C   0  0  0  0  0  0  0  0  0  0  0  0
   46.1320   34.7970   43.2270 C   0  0  0  0  0  0  0  0  0  0  0  0
   46.3160   33.9810   44.2860 N   0  0  0  0  0  0  0  0  0  0  0  0
   45.6170   34.0990   45.4450 C   0  0  0  0  0  0  0  0  0  0  0  0
   44.6930   35.0550   45.5880 N   0  0  0  0  0  0  0  0  0  0  0  0
   45.8160   33.2320   46.5640 N   0  0  0  0  0  0  0  0  0  0  0  0
   47.0070   32.5650   46.5830 C   0  0  0  0  0  0  0  0  0  0  0  0
   46.9720   31.7970   47.7470 C   0  0  0  0  0  0  0  0  0  0  0  0
   45.8090   32.0040   48.3850 N   0  0  0  0  0  0  0  0  0  0  0  0
   45.1000   32.8780   47.6680 C   0  0  0  0  0  0  0  0  0  0  0  0
   47.2060   29.1020   46.7690 N   0  0  0  0  0  0  0  0  0  0  0  0
   47.1320   29.2280   45.4320 C   0  0  0  0  0  0  0  0  0  0  0  0
   46.0770   28.5300   44.9710 N   0  0  0  0  0  0  0  0  0  0  0  0
   45.4270   27.9240   45.9980 C   0  0  0  0  0  0  0  0  0  0  0  0
   44.3290   27.1240   46.0540 C   0  0  0  0  0  0  0  0  0  0  0  0
   43.7060   26.8170   45.0010 O   0  0  0  0  0  0  0  0  0  0  0  0
   43.8910   26.6530   47.2300 N   0  0  0  0  0  0  0  0  0  0  0  0
   44.6140   27.0300   48.2860 C   0  0  0  0  0  0  0  0  0  0  0  0
   44.2720   26.6110   49.5840 N   0  0  0  0  0  0  0  0  0  0  0  0
   45.7190   27.8270   48.2880 N   0  0  0  0  0  0  0  0  0  0  0  0
   46.1690   28.3110   47.0930 C   0  0  0  0  0  0  0  0  0  0  0  0
   48.8070   32.4016   49.5400 H   0  0  0  0  0  0  0  0  0  0  0  0
   50.6193   30.9527   50.4230 H   0  0  0  0  0  0  0  0  0  0  0  0
   50.7990   28.5985   49.5478 H   0  0  0  0  0  0  0  0  0  0  0  0
   49.2051   27.7689   47.8578 H   0  0  0  0  0  0  0  0  0  0  0  0
   43.6982   36.6990   44.6771 H   0  0  0  0  0  0  0  0  0  0  0  0
   44.9640   36.5032   42.5358 H   0  0  0  0  0  0  0  0  0  0  0  0
   46.7132   34.6780   42.3007 H   0  0  0  0  0  0  0  0  0  0  0  0
   47.8178   32.6210   45.8417 H   0  0  0  0  0  0  0  0  0  0  0  0
   44.0986   33.2525   47.9266 H   0  0  0  0  0  0  0  0  0  0  0  0
   47.8269   29.8118   44.8105 H   0  0  0  0  0  0  0  0  0  0  0  0
   43.0616   26.0477   47.3120 H   0  0  0  0  0  0  0  0  0  0  0  0
   44.8407   26.9110   50.3886 H   0  0  0  0  0  0  0  0  0  0  0  0
   43.4528   26.0040   49.7301 H   0  0  0  0  0  0  0  0  0  0  0  0
  1  2  2  0
  2  3  1  0
  4  3  2  0
  5  4  1  0
  6  1  1  0
  6  5  2  0
  7 12  2  0
  8  7  1  0
  9  8  2  0
  9 10  1  0
 10 11  2  0
 11 12  1  0
 11 13  1  0
 13 14  1  0
 13 17  1  0
 14 15  2  0
 15  1  1  0
 15 16  1  0
 17 16  2  0
 18 28  1  0
 18  6  1  0
 19 18  1  0
 20 19  2  0
 20 21  1  0
 21 22  1  0
 21 28  2  0
 22 24  1  0
 23 22  2  0
 24 25  1  0
 25 27  2  0
 25 26  1  0
 28 27  1  0
  2 29  1  0
  3 30  1  0
  4 31  1  0
  5 32  1  0
  7 33  1  0
  8 34  1  0
  9 35  1  0
 14 36  1  0
 17 37  1  0
 19 38  1  0
 24 39  1  0
 26 40  1  0
 26 41  1  0
M  ISO  8  29  14  30  14  31  14  32  14  33  14  34  14  35  14  36  14
M  ISO  3  37  14  38  14  39   9
M  END
>  <minimizedAffinity>  (1) 
-6.63796329

>  <minimizedRMSD>  (1) 
1.57386065

$$$$
