
     RDKit          3D

 43 46  0  0  0  0  0  0  0  0999 V2000
   44.4430   35.9930   44.4380 C   0  0  0  0  0  0  0  0  0  0  0  0
   45.1230   35.8170   43.2340 C   0  0  0  0  0  0  0  0  0  0  0  0
   46.0530   34.7870   43.1540 C   0  0  0  0  0  0  0  0  0  0  0  0
   46.2420   34.0180   44.2440 N   0  0  0  0  0  0  0  0  0  0  0  0
   45.5620   34.2100   45.4140 C   0  0  0  0  0  0  0  0  0  0  0  0
   44.6670   35.1920   45.5140 N   0  0  0  0  0  0  0  0  0  0  0  0
   45.7750   33.3880   46.5480 N   0  0  0  0  0  0  0  0  0  0  0  0
   46.9420   32.7180   46.6210 C   0  0  0  0  0  0  0  0  0  0  0  0
   46.9260   31.9920   47.7890 C   0  0  0  0  0  0  0  0  0  0  0  0
   45.7570   32.2250   48.4120 N   0  0  0  0  0  0  0  0  0  0  0  0
   45.0550   33.0710   47.6650 C   0  0  0  0  0  0  0  0  0  0  0  0
   47.9590   31.1120   48.3010 C   0  0  0  0  0  0  0  0  0  0  0  0
   48.9340   31.6350   49.1100 C   0  0  0  0  0  0  0  0  0  0  0  0
   49.9410   30.8380   49.6270 C   0  0  0  0  0  0  0  0  0  0  0  0
   49.9420   29.4880   49.3050 C   0  0  0  0  0  0  0  0  0  0  0  0
   48.9520   28.9540   48.4830 C   0  0  0  0  0  0  0  0  0  0  0  0
   47.9400   29.7620   47.9660 C   0  0  0  0  0  0  0  0  0  0  0  0
   46.9170   29.1620   47.1040 C   0  0  0  0  0  0  0  0  0  0  0  0
   46.8260   29.8070   45.7410 C   0  0  0  0  0  0  0  0  0  0  0  0
   46.0210   28.8530   44.8650 C   0  0  0  0  0  0  0  0  0  0  0  0
   44.6270   28.8170   45.4430 C   0  0  0  0  0  0  0  0  0  0  0  0
   44.6340   28.3650   46.8860 C   0  0  0  0  0  0  0  0  0  0  0  0
   45.5200   29.2690   47.7210 C   0  0  0  0  0  0  0  0  0  0  0  0
   43.7037   36.8033   44.5202 H   0  0  0  0  0  0  0  0  0  0  0  0
   44.9295   36.4736   42.3729 H   0  0  0  0  0  0  0  0  0  0  0  0
   46.6181   34.6051   42.2279 H   0  0  0  0  0  0  0  0  0  0  0  0
   47.7569   32.7465   45.8827 H   0  0  0  0  0  0  0  0  0  0  0  0
   44.0532   33.4550   47.9076 H   0  0  0  0  0  0  0  0  0  0  0  0
   48.9160   32.7077   49.3529 H   0  0  0  0  0  0  0  0  0  0  0  0
   50.7202   31.2637   50.2763 H   0  0  0  0  0  0  0  0  0  0  0  0
   50.7318   28.8336   49.7025 H   0  0  0  0  0  0  0  0  0  0  0  0
   48.9689   27.8816   48.2388 H   0  0  0  0  0  0  0  0  0  0  0  0
   47.2351   28.1140   47.0014 H   0  0  0  0  0  0  0  0  0  0  0  0
   46.3158   30.7788   45.8135 H   0  0  0  0  0  0  0  0  0  0  0  0
   47.8253   29.9884   45.3186 H   0  0  0  0  0  0  0  0  0  0  0  0
   46.4678   27.8481   44.8866 H   0  0  0  0  0  0  0  0  0  0  0  0
   46.0096   29.1875   43.8171 H   0  0  0  0  0  0  0  0  0  0  0  0
   44.1912   29.8254   45.3870 H   0  0  0  0  0  0  0  0  0  0  0  0
   44.0315   28.0987   44.8604 H   0  0  0  0  0  0  0  0  0  0  0  0
   43.6079   28.3986   47.2809 H   0  0  0  0  0  0  0  0  0  0  0  0
   45.0258   27.3383   46.9355 H   0  0  0  0  0  0  0  0  0  0  0  0
   45.5357   28.9307   48.7676 H   0  0  0  0  0  0  0  0  0  0  0  0
   45.1549   30.3067   47.7234 H   0  0  0  0  0  0  0  0  0  0  0  0
  1  6  2  0
  2  1  1  0
  3  2  2  0
  3  4  1  0
  4  5  2  0
  5  6  1  0
  5  7  1  0
  7  8  1  0
  7 11  1  0
  8  9  2  0
  9 12  1  0
  9 10  1  0
 11 10  2  0
 12 13  2  0
 13 14  1  0
 15 14  2  0
 16 15  1  0
 17 12  1  0
 17 16  2  0
 18 23  1  0
 18 17  1  0
 19 18  1  0
 20 21  1  0
 20 19  1  0
 21 22  1  0
 22 23  1  0
  1 24  1  0
  2 25  1  0
  3 26  1  0
  8 27  1  0
 11 28  1  0
 13 29  1  0
 14 30  1  0
 15 31  1  0
 16 32  1  0
 18 33  1  0
 19 34  1  0
 19 35  1  0
 20 36  1  0
 20 37  1  0
 21 38  1  0
 21 39  1  0
 22 40  1  0
 22 41  1  0
 23 42  1  0
 23 43  1  0
M  ISO  8  24  14  25  14  26  14  27  14  28  14  29  14  30  14  31  14
M  ISO  8  32  14  33  13  34  13  35  13  36  13  37  13  38  13  39  13
M  ISO  4  40  13  41  13  42  13  43  13
M  END
>  <minimizedAffinity>  (1) 
-6.26721907

>  <minimizedRMSD>  (1) 
1.02697277

$$$$
