
     RDKit          3D

 41 45  0  0  0  0  0  0  0  0999 V2000
   47.8500   30.8530   48.1670 C   0  0  0  0  0  0  0  0  0  0  0  0
   48.5640   31.1530   49.3020 C   0  0  0  0  0  0  0  0  0  0  0  0
   49.5320   30.3060   49.7910 C   0  0  0  0  0  0  0  0  0  0  0  0
   49.7770   29.1250   49.1030 C   0  0  0  0  0  0  0  0  0  0  0  0
   49.0620   28.8180   47.9600 C   0  0  0  0  0  0  0  0  0  0  0  0
   48.0870   29.6790   47.4760 C   0  0  0  0  0  0  0  0  0  0  0  0
   44.5010   36.0170   44.5160 C   0  0  0  0  0  0  0  0  0  0  0  0
   45.1960   35.8910   43.3150 C   0  0  0  0  0  0  0  0  0  0  0  0
   46.1190   34.8350   43.1890 C   0  0  0  0  0  0  0  0  0  0  0  0
   46.2680   34.0160   44.2390 N   0  0  0  0  0  0  0  0  0  0  0  0
   45.5870   34.1510   45.3940 C   0  0  0  0  0  0  0  0  0  0  0  0
   44.7060   35.1420   45.5450 N   0  0  0  0  0  0  0  0  0  0  0  0
   45.7450   33.2790   46.5130 N   0  0  0  0  0  0  0  0  0  0  0  0
   46.8870   32.5610   46.5460 C   0  0  0  0  0  0  0  0  0  0  0  0
   46.8370   31.7930   47.6990 C   0  0  0  0  0  0  0  0  0  0  0  0
   45.6930   32.0530   48.3280 N   0  0  0  0  0  0  0  0  0  0  0  0
   45.0200   32.9550   47.6170 C   0  0  0  0  0  0  0  0  0  0  0  0
   47.3120   29.3900   46.2770 C   0  0  0  0  0  0  0  0  0  0  0  0
   47.5600   29.7910   44.9970 N   0  0  0  0  0  0  0  0  0  0  0  0
   46.7000   29.4090   44.0130 C   0  0  0  0  0  0  0  0  0  0  0  0
   45.6120   28.6580   44.2080 N   0  0  0  0  0  0  0  0  0  0  0  0
   45.3460   28.2490   45.4670 C   0  0  0  0  0  0  0  0  0  0  0  0
   44.2080   27.4670   45.6370 C   0  0  0  0  0  0  0  0  0  0  0  0
   43.9410   27.0490   46.9420 C   0  0  0  0  0  0  0  0  0  0  0  0
   44.7320   27.3700   48.0130 C   0  0  0  0  0  0  0  0  0  0  0  0
   45.8310   28.1430   47.7400 C   0  0  0  0  0  0  0  0  0  0  0  0
   46.1960   28.6140   46.4990 C   0  0  0  0  0  0  0  0  0  0  0  0
   48.3566   32.0938   49.8330 H   0  0  0  0  0  0  0  0  0  0  0  0
   50.0959   30.5574   50.7014 H   0  0  0  0  0  0  0  0  0  0  0  0
   50.5454   28.4286   49.4699 H   0  0  0  0  0  0  0  0  0  0  0  0
   49.2688   27.8783   47.4269 H   0  0  0  0  0  0  0  0  0  0  0  0
   43.7752   36.8346   44.6377 H   0  0  0  0  0  0  0  0  0  0  0  0
   45.0283   36.5969   42.4882 H   0  0  0  0  0  0  0  0  0  0  0  0
   46.6957   34.6880   42.2639 H   0  0  0  0  0  0  0  0  0  0  0  0
   47.6985   32.5811   45.8036 H   0  0  0  0  0  0  0  0  0  0  0  0
   44.0363   33.3711   47.8800 H   0  0  0  0  0  0  0  0  0  0  0  0
   46.9156   29.7415   42.9869 H   0  0  0  0  0  0  0  0  0  0  0  0
   43.5572   27.1942   44.7932 H   0  0  0  0  0  0  0  0  0  0  0  0
   43.0492   26.4298   47.1192 H   0  0  0  0  0  0  0  0  0  0  0  0
   44.4993   27.0278   49.0322 H   0  0  0  0  0  0  0  0  0  0  0  0
   46.4786   28.4106   48.5879 H   0  0  0  0  0  0  0  0  0  0  0  0
  1  2  2  0
  2  3  1  0
  4  3  2  0
  5  4  1  0
  6  5  2  0
  6  1  1  0
  7 12  2  0
  8  7  1  0
  9  8  2  0
  9 10  1  0
 10 11  2  0
 11 12  1  0
 11 13  1  0
 13 14  1  0
 13 17  1  0
 14 15  2  0
 15  1  1  0
 15 16  1  0
 17 16  2  0
 18 27  1  0
 18  6  1  0
 19 18  2  0
 20 21  2  0
 20 19  1  0
 21 22  1  0
 22 23  1  0
 22 27  2  0
 23 24  2  0
 24 25  1  0
 26 25  2  0
 27 26  1  0
  2 28  1  0
  3 29  1  0
  4 30  1  0
  5 31  1  0
  7 32  1  0
  8 33  1  0
  9 34  1  0
 14 35  1  0
 17 36  1  0
 20 37  1  0
 23 38  1  0
 24 39  1  0
 25 40  1  0
 26 41  1  0
M  ISO  8  28  14  29  14  30  14  31  14  32  14  33  14  34  14  35  14
M  ISO  6  36  14  37  14  38  14  39  14  40  14  41  14
M  END
>  <minimizedAffinity>  (1) 
-6.5862565

>  <minimizedRMSD>  (1) 
0.435870379

$$$$
