
     RDKit          3D

 37 40  0  0  0  0  0  0  0  0999 V2000
   47.9220   30.9910   48.2380 C   0  0  0  0  0  0  0  0  0  0  0  0
   48.8700   31.4600   49.1110 C   0  0  0  0  0  0  0  0  0  0  0  0
   49.8460   30.6270   49.6060 C   0  0  0  0  0  0  0  0  0  0  0  0
   49.8560   29.2960   49.2030 C   0  0  0  0  0  0  0  0  0  0  0  0
   48.8890   28.8190   48.3120 C   0  0  0  0  0  0  0  0  0  0  0  0
   47.9190   29.6780   47.8320 C   0  0  0  0  0  0  0  0  0  0  0  0
   44.4600   35.9960   44.4740 C   0  0  0  0  0  0  0  0  0  0  0  0
   45.1480   35.8390   43.2610 C   0  0  0  0  0  0  0  0  0  0  0  0
   46.0840   34.8020   43.1490 C   0  0  0  0  0  0  0  0  0  0  0  0
   46.2720   34.0040   44.2310 N   0  0  0  0  0  0  0  0  0  0  0  0
   45.5810   34.1900   45.3960 C   0  0  0  0  0  0  0  0  0  0  0  0
   44.6860   35.1700   45.5230 N   0  0  0  0  0  0  0  0  0  0  0  0
   45.7850   33.3480   46.5260 N   0  0  0  0  0  0  0  0  0  0  0  0
   46.9320   32.6390   46.5740 C   0  0  0  0  0  0  0  0  0  0  0  0
   46.9030   31.9110   47.7400 C   0  0  0  0  0  0  0  0  0  0  0  0
   45.7510   32.1750   48.3890 N   0  0  0  0  0  0  0  0  0  0  0  0
   45.0630   33.0480   47.6580 C   0  0  0  0  0  0  0  0  0  0  0  0
   46.9320   29.1360   46.9040 C   0  0  0  0  0  0  0  0  0  0  0  0
   46.9680   29.0740   45.5280 C   0  0  0  0  0  0  0  0  0  0  0  0
   45.9050   28.5130   44.8530 C   0  0  0  0  0  0  0  0  0  0  0  0
   44.8000   28.0080   45.4900 C   0  0  0  0  0  0  0  0  0  0  0  0
   44.7580   28.0690   46.8860 C   0  0  0  0  0  0  0  0  0  0  0  0
   45.8220   28.6320   47.5940 C   0  0  0  0  0  0  0  0  0  0  0  0
   48.8495   32.5157   49.4192 H   0  0  0  0  0  0  0  0  0  0  0  0
   50.6041   31.0062   50.3071 H   0  0  0  0  0  0  0  0  0  0  0  0
   50.6290   28.6142   49.5873 H   0  0  0  0  0  0  0  0  0  0  0  0
   48.9007   27.7657   47.9951 H   0  0  0  0  0  0  0  0  0  0  0  0
   43.7226   36.8060   44.5747 H   0  0  0  0  0  0  0  0  0  0  0  0
   44.9565   36.5160   42.4154 H   0  0  0  0  0  0  0  0  0  0  0  0
   46.6463   34.6404   42.2175 H   0  0  0  0  0  0  0  0  0  0  0  0
   47.7364   32.6427   45.8238 H   0  0  0  0  0  0  0  0  0  0  0  0
   44.0774   33.4625   47.9166 H   0  0  0  0  0  0  0  0  0  0  0  0
   47.8339   29.4671   44.9752 H   0  0  0  0  0  0  0  0  0  0  0  0
   45.9446   28.4683   43.7546 H   0  0  0  0  0  0  0  0  0  0  0  0
   43.9700   27.5673   44.9182 H   0  0  0  0  0  0  0  0  0  0  0  0
   43.8860   27.6732   47.4273 H   0  0  0  0  0  0  0  0  0  0  0  0
   45.7885   28.6796   48.6925 H   0  0  0  0  0  0  0  0  0  0  0  0
  1  2  2  0
  2  3  1  0
  4  3  2  0
  5  4  1  0
  6  1  1  0
  6  5  2  0
  7 12  2  0
  8  7  1  0
  9  8  2  0
  9 10  1  0
 10 11  2  0
 11 12  1  0
 11 13  1  0
 13 14  1  0
 13 17  1  0
 14 15  2  0
 15  1  1  0
 15 16  1  0
 17 16  2  0
 18 23  1  0
 18  6  1  0
 19 18  2  0
 20 21  2  0
 20 19  1  0
 21 22  1  0
 22 23  2  0
  2 24  1  0
  3 25  1  0
  4 26  1  0
  5 27  1  0
  7 28  1  0
  8 29  1  0
  9 30  1  0
 14 31  1  0
 17 32  1  0
 19 33  1  0
 20 34  1  0
 21 35  1  0
 22 36  1  0
 23 37  1  0
M  ISO  8  24  14  25  14  26  14  27  14  28  14  29  14  30  14  31  14
M  ISO  6  32  14  33  14  34  14  35  14  36  14  37  14
M  END
>  <minimizedAffinity>  (1) 
-6.06524706

>  <minimizedRMSD>  (1) 
0.770024598

$$$$
