
     RDKit          3D

 40 43  0  0  0  0  0  0  0  0999 V2000
   44.4470   35.8460   44.6290 C   0  0  0  0  0  0  0  0  0  0  0  0
   45.1340   35.7010   43.4020 C   0  0  0  0  0  0  0  0  0  0  0  0
   46.0970   34.6790   43.2910 C   0  0  0  0  0  0  0  0  0  0  0  0
   46.3080   33.8970   44.3640 N   0  0  0  0  0  0  0  0  0  0  0  0
   45.6390   34.0510   45.5330 C   0  0  0  0  0  0  0  0  0  0  0  0
   44.7210   35.0100   45.6700 N   0  0  0  0  0  0  0  0  0  0  0  0
   45.8690   33.2180   46.6620 N   0  0  0  0  0  0  0  0  0  0  0  0
   47.0430   32.5650   46.7020 C   0  0  0  0  0  0  0  0  0  0  0  0
   47.0340   31.8220   47.8840 C   0  0  0  0  0  0  0  0  0  0  0  0
   45.8760   32.0400   48.5200 N   0  0  0  0  0  0  0  0  0  0  0  0
   45.1600   32.8870   47.7860 C   0  0  0  0  0  0  0  0  0  0  0  0
   48.0910   30.9470   48.3760 C   0  0  0  0  0  0  0  0  0  0  0  0
   49.0340   31.4670   49.2370 C   0  0  0  0  0  0  0  0  0  0  0  0
   50.0530   30.6980   49.7320 C   0  0  0  0  0  0  0  0  0  0  0  0
   50.1020   29.3500   49.3310 C   0  0  0  0  0  0  0  0  0  0  0  0
   49.1460   28.8200   48.4570 C   0  0  0  0  0  0  0  0  0  0  0  0
   48.1250   29.6170   47.9690 C   0  0  0  0  0  0  0  0  0  0  0  0
   47.1490   29.0220   47.0630 C   0  0  0  0  0  0  0  0  0  0  0  0
   46.9650   29.7890   45.7760 C   0  0  0  0  0  0  0  0  0  0  0  0
   45.6430   29.2420   45.2770 C   0  0  0  0  0  0  0  0  0  0  0  0
   44.8060   29.3950   46.5540 C   0  0  0  0  0  0  0  0  0  0  0  0
   45.7740   28.8390   47.6090 C   0  0  0  0  0  0  0  0  0  0  0  0
   43.6896   36.6354   44.7438 H   0  0  0  0  0  0  0  0  0  0  0  0
   44.9218   36.3698   42.5548 H   0  0  0  0  0  0  0  0  0  0  0  0
   46.6579   34.5258   42.3572 H   0  0  0  0  0  0  0  0  0  0  0  0
   47.8486   32.6074   45.9542 H   0  0  0  0  0  0  0  0  0  0  0  0
   44.1579   33.2620   48.0411 H   0  0  0  0  0  0  0  0  0  0  0  0
   48.9661   32.5242   49.5331 H   0  0  0  0  0  0  0  0  0  0  0  0
   50.8045   31.1178   50.4168 H   0  0  0  0  0  0  0  0  0  0  0  0
   50.9054   28.7018   49.7110 H   0  0  0  0  0  0  0  0  0  0  0  0
   49.2064   27.7637   48.1561 H   0  0  0  0  0  0  0  0  0  0  0  0
   47.6138   28.0391   46.8960 H   0  0  0  0  0  0  0  0  0  0  0  0
   46.9068   30.8720   45.9597 H   0  0  0  0  0  0  0  0  0  0  0  0
   47.7944   29.6699   45.0634 H   0  0  0  0  0  0  0  0  0  0  0  0
   45.2385   29.8403   44.4473 H   0  0  0  0  0  0  0  0  0  0  0  0
   45.6843   28.2233   44.8640 H   0  0  0  0  0  0  0  0  0  0  0  0
   44.5571   30.4484   46.7498 H   0  0  0  0  0  0  0  0  0  0  0  0
   43.8315   28.8859   46.5205 H   0  0  0  0  0  0  0  0  0  0  0  0
   45.5736   27.7715   47.7830 H   0  0  0  0  0  0  0  0  0  0  0  0
   45.6559   29.3607   48.5702 H   0  0  0  0  0  0  0  0  0  0  0  0
  1  6  2  0
  2  1  1  0
  3  2  2  0
  3  4  1  0
  4  5  2  0
  5  6  1  0
  5  7  1  0
  7  8  1  0
  7 11  1  0
  8  9  2  0
  9 12  1  0
  9 10  1  0
 11 10  2  0
 12 13  2  0
 13 14  1  0
 15 14  2  0
 16 15  1  0
 17 12  1  0
 17 16  2  0
 18 22  1  0
 18 17  1  0
 19 18  1  0
 20 19  1  0
 20 21  1  0
 21 22  1  0
  1 23  1  0
  2 24  1  0
  3 25  1  0
  8 26  1  0
 11 27  1  0
 13 28  1  0
 14 29  1  0
 15 30  1  0
 16 31  1  0
 18 32  1  0
 19 33  1  0
 19 34  1  0
 20 35  1  0
 20 36  1  0
 21 37  1  0
 21 38  1  0
 22 39  1  0
 22 40  1  0
M  ISO  8  23  14  24  14  25  14  26  14  27  14  28  14  29  14  30  14
M  ISO  8  31  14  32  13  33  13  34  13  35  13  36  13  37  13  38  13
M  ISO  2  39  13  40  13
M  END
>  <minimizedAffinity>  (1) 
-6.13400888

>  <minimizedRMSD>  (1) 
0.501405835

$$$$
