
     RDKit          3D

 34 37  0  0  0  0  0  0  0  0999 V2000
   44.4510   35.9700   44.4540 C   0  0  0  0  0  0  0  0  0  0  0  0
   45.1550   35.8060   43.2430 C   0  0  0  0  0  0  0  0  0  0  0  0
   46.1030   34.7800   43.1510 C   0  0  0  0  0  0  0  0  0  0  0  0
   46.2880   34.0000   44.2360 N   0  0  0  0  0  0  0  0  0  0  0  0
   45.5940   34.1780   45.3960 C   0  0  0  0  0  0  0  0  0  0  0  0
   44.6860   35.1440   45.5160 N   0  0  0  0  0  0  0  0  0  0  0  0
   45.8020   33.3460   46.5280 N   0  0  0  0  0  0  0  0  0  0  0  0
   46.9610   32.6580   46.5960 C   0  0  0  0  0  0  0  0  0  0  0  0
   46.9050   31.9360   47.7880 C   0  0  0  0  0  0  0  0  0  0  0  0
   45.7570   32.1840   48.4060 N   0  0  0  0  0  0  0  0  0  0  0  0
   45.0710   33.0420   47.6520 C   0  0  0  0  0  0  0  0  0  0  0  0
   47.9490   31.0400   48.2860 C   0  0  0  0  0  0  0  0  0  0  0  0
   48.9170   31.5690   49.1330 C   0  0  0  0  0  0  0  0  0  0  0  0
   49.9270   30.7800   49.6360 C   0  0  0  0  0  0  0  0  0  0  0  0
   49.9570   29.4380   49.2780 C   0  0  0  0  0  0  0  0  0  0  0  0
   48.9910   28.9290   48.4390 C   0  0  0  0  0  0  0  0  0  0  0  0
   47.9560   29.7000   47.9110 C   0  0  0  0  0  0  0  0  0  0  0  0
   46.9210   29.1700   47.0170 C   0  0  0  0  0  0  0  0  0  0  0  0
   45.6700   28.5720   47.5520 C   0  0  0  0  0  0  0  0  0  0  0  0
   46.7460   27.6800   46.9750 C   0  0  0  0  0  0  0  0  0  0  0  0
   43.7040   36.7724   44.5442 H   0  0  0  0  0  0  0  0  0  0  0  0
   44.9631   36.4709   42.3880 H   0  0  0  0  0  0  0  0  0  0  0  0
   46.6766   34.6157   42.2269 H   0  0  0  0  0  0  0  0  0  0  0  0
   47.7808   32.6652   45.8626 H   0  0  0  0  0  0  0  0  0  0  0  0
   44.0755   33.4442   47.8914 H   0  0  0  0  0  0  0  0  0  0  0  0
   48.8750   32.6340   49.4052 H   0  0  0  0  0  0  0  0  0  0  0  0
   50.6915   31.2019   50.3050 H   0  0  0  0  0  0  0  0  0  0  0  0
   50.7516   28.7827   49.6643 H   0  0  0  0  0  0  0  0  0  0  0  0
   49.0381   27.8628   48.1724 H   0  0  0  0  0  0  0  0  0  0  0  0
   47.1166   29.9703   46.2881 H   0  0  0  0  0  0  0  0  0  0  0  0
   45.4795   28.5734   48.6354 H   0  0  0  0  0  0  0  0  0  0  0  0
   44.5962   28.7170   47.3627 H   0  0  0  0  0  0  0  0  0  0  0  0
   46.5840   27.1697   46.0141 H   0  0  0  0  0  0  0  0  0  0  0  0
   47.3208   26.8137   47.3343 H   0  0  0  0  0  0  0  0  0  0  0  0
  1  6  2  0
  2  1  1  0
  3  2  2  0
  3  4  1  0
  4  5  2  0
  5  6  1  0
  5  7  1  0
  7  8  1  0
  7 11  1  0
  8  9  2  0
  9 12  1  0
  9 10  1  0
 11 10  2  0
 12 13  2  0
 13 14  1  0
 15 14  2  0
 16 15  1  0
 17 12  1  0
 17 16  2  0
 18 19  1  0
 18 17  1  0
 20 18  1  0
 20 19  1  0
  1 21  1  0
  2 22  1  0
  3 23  1  0
  8 24  1  0
 11 25  1  0
 13 26  1  0
 14 27  1  0
 15 28  1  0
 16 29  1  0
 18 30  1  0
 19 31  1  0
 19 32  1  0
 20 33  1  0
 20 34  1  0
M  ISO  8  21  14  22  14  23  14  24  14  25  14  26  14  27  14  28  14
M  ISO  6  29  14  30  13  31  13  32  13  33  13  34  13
M  END
>  <minimizedAffinity>  (1) 
-5.7296133

>  <minimizedRMSD>  (1) 
0.894688845

$$$$
