
     RDKit          3D

 30 32  0  0  0  0  0  0  0  0999 V2000
   44.4720   35.8310   44.6190 C   0  0  0  0  0  0  0  0  0  0  0  0
   45.1790   35.7100   43.4240 C   0  0  0  0  0  0  0  0  0  0  0  0
   46.1550   34.7080   43.2970 C   0  0  0  0  0  0  0  0  0  0  0  0
   46.3560   33.9030   44.3630 N   0  0  0  0  0  0  0  0  0  0  0  0
   45.6580   34.0370   45.5150 C   0  0  0  0  0  0  0  0  0  0  0  0
   44.7280   34.9830   45.6510 N   0  0  0  0  0  0  0  0  0  0  0  0
   45.8640   33.1890   46.6520 N   0  0  0  0  0  0  0  0  0  0  0  0
   47.0520   32.5220   46.6890 C   0  0  0  0  0  0  0  0  0  0  0  0
   47.0130   31.7790   47.8690 C   0  0  0  0  0  0  0  0  0  0  0  0
   45.8640   31.9920   48.4960 N   0  0  0  0  0  0  0  0  0  0  0  0
   45.1540   32.8480   47.7680 C   0  0  0  0  0  0  0  0  0  0  0  0
   48.0830   30.8920   48.3440 C   0  0  0  0  0  0  0  0  0  0  0  0
   48.9980   31.4160   49.2520 C   0  0  0  0  0  0  0  0  0  0  0  0
   50.0260   30.6430   49.7360 C   0  0  0  0  0  0  0  0  0  0  0  0
   50.1170   29.3150   49.2840 C   0  0  0  0  0  0  0  0  0  0  0  0
   49.2040   28.8050   48.3850 C   0  0  0  0  0  0  0  0  0  0  0  0
   48.1670   29.6000   47.9010 C   0  0  0  0  0  0  0  0  0  0  0  0
   47.2160   29.0250   46.9460 C   0  0  0  0  0  0  0  0  0  0  0  0
   43.7062   36.6131   44.7276 H   0  0  0  0  0  0  0  0  0  0  0  0
   44.9743   36.3938   42.5870 H   0  0  0  0  0  0  0  0  0  0  0  0
   46.7315   34.5840   42.3684 H   0  0  0  0  0  0  0  0  0  0  0  0
   47.8650   32.5611   45.9491 H   0  0  0  0  0  0  0  0  0  0  0  0
   44.1521   33.2229   48.0240 H   0  0  0  0  0  0  0  0  0  0  0  0
   48.8975   32.4593   49.5857 H   0  0  0  0  0  0  0  0  0  0  0  0
   50.7537   31.0500   50.4535 H   0  0  0  0  0  0  0  0  0  0  0  0
   50.9296   28.6722   49.6534 H   0  0  0  0  0  0  0  0  0  0  0  0
   49.2951   27.7621   48.0473 H   0  0  0  0  0  0  0  0  0  0  0  0
   46.3996   28.5314   47.4936 H   0  0  0  0  0  0  0  0  0  0  0  0
   46.8025   29.8246   46.3137 H   0  0  0  0  0  0  0  0  0  0  0  0
   47.7319   28.2874   46.3137 H   0  0  0  0  0  0  0  0  0  0  0  0
  1  6  2  0
  2  1  1  0
  3  2  2  0
  3  4  1  0
  4  5  2  0
  5  6  1  0
  5  7  1  0
  7  8  1  0
  7 11  1  0
  8  9  2  0
  9 12  1  0
  9 10  1  0
 11 10  2  0
 12 13  2  0
 13 14  1  0
 15 14  2  0
 16 15  1  0
 17 12  1  0
 17 16  2  0
 18 17  1  0
  1 19  1  0
  2 20  1  0
  3 21  1  0
  8 22  1  0
 11 23  1  0
 13 24  1  0
 14 25  1  0
 15 26  1  0
 16 27  1  0
 18 28  1  0
 18 29  1  0
 18 30  1  0
M  ISO  8  19  14  20  14  21  14  22  14  23  14  24  14  25  14  26  14
M  ISO  4  27  14  28   8  29   8  30   8
M  END
>  <minimizedAffinity>  (1) 
-5.68114996

>  <minimizedRMSD>  (1) 
0.275127172

$$$$
