
     RDKit          3D

 45 49  0  0  0  0  0  0  0  0999 V2000
   48.2210   31.0910   48.4080 C   0  0  0  0  0  0  0  0  0  0  0  0
   49.2090   31.7100   49.1580 C   0  0  0  0  0  0  0  0  0  0  0  0
   50.2630   30.9980   49.6590 C   0  0  0  0  0  0  0  0  0  0  0  0
   50.3300   29.6430   49.4050 C   0  0  0  0  0  0  0  0  0  0  0  0
   49.3480   29.0330   48.6610 C   0  0  0  0  0  0  0  0  0  0  0  0
   48.2790   29.7470   48.1500 C   0  0  0  0  0  0  0  0  0  0  0  0
   44.4020   35.7890   44.5940 C   0  0  0  0  0  0  0  0  0  0  0  0
   45.1250   35.6910   43.4010 C   0  0  0  0  0  0  0  0  0  0  0  0
   46.1350   34.7520   43.3060 C   0  0  0  0  0  0  0  0  0  0  0  0
   46.3780   33.9620   44.3910 N   0  0  0  0  0  0  0  0  0  0  0  0
   45.6530   34.0880   45.5350 C   0  0  0  0  0  0  0  0  0  0  0  0
   44.6690   34.9790   45.6700 N   0  0  0  0  0  0  0  0  0  0  0  0
   45.9230   33.2520   46.6530 N   0  0  0  0  0  0  0  0  0  0  0  0
   47.1240   32.6540   46.7360 C   0  0  0  0  0  0  0  0  0  0  0  0
   47.1240   31.9100   47.9030 C   0  0  0  0  0  0  0  0  0  0  0  0
   45.9440   32.0610   48.5090 N   0  0  0  0  0  0  0  0  0  0  0  0
   45.2000   32.8710   47.7670 C   0  0  0  0  0  0  0  0  0  0  0  0
   49.3840   27.5880   48.3670 C   0  0  0  0  0  0  0  0  0  0  0  0
   48.8030   27.0450   47.2340 C   0  0  0  0  0  0  0  0  0  0  0  0
   48.8350   25.6940   46.9590 C   0  0  0  0  0  0  0  0  0  0  0  0
   49.4730   24.8640   47.8550 C   0  0  0  0  0  0  0  0  0  0  0  0
   50.0640   25.3880   49.0010 C   0  0  0  0  0  0  0  0  0  0  0  0
   50.7120   24.5770   49.9170 C   0  0  0  0  0  0  0  0  0  0  0  0
   51.3060   25.0820   51.0650 C   0  0  0  0  0  0  0  0  0  0  0  0
   51.2350   26.4490   51.2780 C   0  0  0  0  0  0  0  0  0  0  0  0
   50.5960   27.3060   50.3870 C   0  0  0  0  0  0  0  0  0  0  0  0
   50.0270   26.7420   49.2680 C   0  0  0  0  0  0  0  0  0  0  0  0
   47.2880   29.0960   47.3920 N   0  0  0  0  0  0  0  0  0  0  0  0
   49.1439   32.7906   49.3530 H   0  0  0  0  0  0  0  0  0  0  0  0
   51.0432   31.4958   50.2535 H   0  0  0  0  0  0  0  0  0  0  0  0
   51.1696   29.0509   49.7981 H   0  0  0  0  0  0  0  0  0  0  0  0
   43.5976   36.5352   44.6725 H   0  0  0  0  0  0  0  0  0  0  0  0
   44.8937   36.3506   42.5517 H   0  0  0  0  0  0  0  0  0  0  0  0
   46.7247   34.6452   42.3836 H   0  0  0  0  0  0  0  0  0  0  0  0
   47.9495   32.7396   46.0140 H   0  0  0  0  0  0  0  0  0  0  0  0
   44.1730   33.1881   48.0010 H   0  0  0  0  0  0  0  0  0  0  0  0
   48.2963   27.7170   46.5257 H   0  0  0  0  0  0  0  0  0  0  0  0
   48.3646   25.2904   46.0502 H   0  0  0  0  0  0  0  0  0  0  0  0
   49.5154   23.7816   47.6635 H   0  0  0  0  0  0  0  0  0  0  0  0
   50.7576   23.4943   49.7282 H   0  0  0  0  0  0  0  0  0  0  0  0
   51.8154   24.4200   51.7808 H   0  0  0  0  0  0  0  0  0  0  0  0
   51.6992   26.8711   52.1815 H   0  0  0  0  0  0  0  0  0  0  0  0
   50.5477   28.3897   50.5696 H   0  0  0  0  0  0  0  0  0  0  0  0
   47.3577   28.0839   47.2139 H   0  0  0  0  0  0  0  0  0  0  0  0
   46.4929   29.6316   47.0153 H   0  0  0  0  0  0  0  0  0  0  0  0
  1  2  2  0
  2  3  1  0
  4  3  2  0
  5  4  1  0
  6  1  1  0
  6  5  2  0
  7 12  2  0
  8  7  1  0
  9  8  2  0
  9 10  1  0
 10 11  2  0
 11 12  1  0
 11 13  1  0
 13 14  1  0
 13 17  1  0
 14 15  2  0
 15  1  1  0
 15 16  1  0
 17 16  2  0
 18  5  1  0
 18 27  1  0
 19 18  2  0
 20 19  1  0
 20 21  2  0
 21 22  1  0
 22 27  2  0
 22 23  1  0
 23 24  2  0
 24 25  1  0
 26 25  2  0
 27 26  1  0
 28  6  1  0
  2 29  1  0
  3 30  1  0
  4 31  1  0
  7 32  1  0
  8 33  1  0
  9 34  1  0
 14 35  1  0
 17 36  1  0
 19 37  1  0
 20 38  1  0
 21 39  1  0
 23 40  1  0
 24 41  1  0
 25 42  1  0
 26 43  1  0
 28 44  1  0
 28 45  1  0
M  ISO  8  29  14  30  14  31  14  32  14  33  14  34  14  35  14  36  14
M  ISO  7  37  14  38  14  39  14  40  14  41  14  42  14  43  14
M  END
>  <minimizedAffinity>  (1) 
-6.57898712

>  <minimizedRMSD>  (1) 
0.33022657

$$$$
