
     RDKit          3D

 40 43  0  0  0  0  0  0  0  0999 V2000
   48.6900   31.1280   48.8330 C   0  0  0  0  0  0  0  0  0  0  0  0
   49.6770   31.8660   49.4420 C   0  0  0  0  0  0  0  0  0  0  0  0
   50.8030   31.2870   49.9620 C   0  0  0  0  0  0  0  0  0  0  0  0
   50.9250   29.9150   49.8600 C   0  0  0  0  0  0  0  0  0  0  0  0
   49.9470   29.1650   49.2560 C   0  0  0  0  0  0  0  0  0  0  0  0
   48.8080   29.7670   48.7290 C   0  0  0  0  0  0  0  0  0  0  0  0
   44.4290   35.3280   44.9260 C   0  0  0  0  0  0  0  0  0  0  0  0
   45.1380   35.2750   43.7410 C   0  0  0  0  0  0  0  0  0  0  0  0
   46.2310   34.4330   43.6640 C   0  0  0  0  0  0  0  0  0  0  0  0
   46.5720   33.6930   44.7440 N   0  0  0  0  0  0  0  0  0  0  0  0
   45.8410   33.7740   45.9060 C   0  0  0  0  0  0  0  0  0  0  0  0
   44.7800   34.5780   46.0090 N   0  0  0  0  0  0  0  0  0  0  0  0
   46.1930   32.9970   47.0500 N   0  0  0  0  0  0  0  0  0  0  0  0
   47.4540   32.5340   47.1140 C   0  0  0  0  0  0  0  0  0  0  0  0
   47.5330   31.8200   48.3100 C   0  0  0  0  0  0  0  0  0  0  0  0
   46.3340   31.8710   48.9220 N   0  0  0  0  0  0  0  0  0  0  0  0
   45.5140   32.5820   48.1660 C   0  0  0  0  0  0  0  0  0  0  0  0
   50.1710   27.7530   49.2010 N   0  0  0  0  0  0  0  0  0  0  0  0
   50.0180   27.1730   47.9960 C   0  0  0  0  0  0  0  0  0  0  0  0
   50.2340   25.8110   47.9470 C   0  0  0  0  0  0  0  0  0  0  0  0
   50.5820   25.1730   49.1210 C   0  0  0  0  0  0  0  0  0  0  0  0
   50.8160   23.7690   49.1230 N   0  0  0  0  0  0  0  0  0  0  0  0
   50.7230   25.8130   50.3140 N   0  0  0  0  0  0  0  0  0  0  0  0
   50.5080   27.1610   50.3600 C   0  0  0  0  0  0  0  0  0  0  0  0
   50.6160   27.8310   51.4190 O   0  0  0  0  0  0  0  0  0  0  0  0
   47.8210   28.9760   48.1150 N   0  0  0  0  0  0  0  0  0  0  0  0
   49.5580   32.9572   49.5137 H   0  0  0  0  0  0  0  0  0  0  0  0
   51.5837   31.8934   50.4444 H   0  0  0  0  0  0  0  0  0  0  0  0
   51.8171   29.4172   50.2679 H   0  0  0  0  0  0  0  0  0  0  0  0
   43.5567   35.9943   44.9974 H   0  0  0  0  0  0  0  0  0  0  0  0
   44.8391   35.8891   42.8787 H   0  0  0  0  0  0  0  0  0  0  0  0
   46.8169   34.3652   42.7355 H   0  0  0  0  0  0  0  0  0  0  0  0
   48.2561   32.6865   46.3769 H   0  0  0  0  0  0  0  0  0  0  0  0
   44.4612   32.8036   48.3950 H   0  0  0  0  0  0  0  0  0  0  0  0
   49.7373   27.7507   47.1030 H   0  0  0  0  0  0  0  0  0  0  0  0
   50.1324   25.2526   47.0047 H   0  0  0  0  0  0  0  0  0  0  0  0
   51.0757   23.2914   49.9979 H   0  0  0  0  0  0  0  0  0  0  0  0
   50.7256   23.2306   48.2496 H   0  0  0  0  0  0  0  0  0  0  0  0
   47.9431   27.9551   48.0546 H   0  0  0  0  0  0  0  0  0  0  0  0
   46.9758   29.4175   47.7256 H   0  0  0  0  0  0  0  0  0  0  0  0
  1  2  2  0
  2  3  1  0
  4  3  2  0
  5  4  1  0
  6  1  1  0
  6  5  2  0
  7 12  2  0
  8  7  1  0
  9  8  2  0
  9 10  1  0
 10 11  2  0
 11 12  1  0
 11 13  1  0
 13 14  1  0
 13 17  1  0
 14 15  2  0
 15  1  1  0
 15 16  1  0
 17 16  2  0
 18  5  1  0
 18 24  1  0
 19 18  1  0
 20 19  2  0
 20 21  1  0
 21 22  1  0
 21 23  2  0
 23 24  1  0
 24 25  2  0
 26  6  1  0
  2 27  1  0
  3 28  1  0
  4 29  1  0
  7 30  1  0
  8 31  1  0
  9 32  1  0
 14 33  1  0
 17 34  1  0
 19 35  1  0
 20 36  1  0
 22 37  1  0
 22 38  1  0
 26 39  1  0
 26 40  1  0
M  ISO  8  27  14  28  14  29  14  30  14  31  14  32  14  33  14  34  14
M  ISO  2  35  14  36  14
M  END
>  <minimizedAffinity>  (1) 
-5.88018131

>  <minimizedRMSD>  (1) 
1.10631788

$$$$
