
     RDKit          3D

 40 44  0  0  0  0  0  0  0  0999 V2000
   48.3640   31.0820   48.5820 C   0  0  0  0  0  0  0  0  0  0  0  0
   49.3700   31.7250   49.2440 C   0  0  0  0  0  0  0  0  0  0  0  0
   50.4550   31.0570   49.7600 C   0  0  0  0  0  0  0  0  0  0  0  0
   50.4970   29.6770   49.5830 C   0  0  0  0  0  0  0  0  0  0  0  0
   49.4850   29.0150   48.9160 C   0  0  0  0  0  0  0  0  0  0  0  0
   48.4100   29.7170   48.4100 C   0  0  0  0  0  0  0  0  0  0  0  0
   44.4210   35.6180   44.7070 C   0  0  0  0  0  0  0  0  0  0  0  0
   45.1280   35.5330   43.5230 C   0  0  0  0  0  0  0  0  0  0  0  0
   46.1700   34.6160   43.4330 C   0  0  0  0  0  0  0  0  0  0  0  0
   46.4430   33.8470   44.5160 N   0  0  0  0  0  0  0  0  0  0  0  0
   45.7260   33.9570   45.6650 C   0  0  0  0  0  0  0  0  0  0  0  0
   44.7260   34.8300   45.7640 N   0  0  0  0  0  0  0  0  0  0  0  0
   46.0190   33.1420   46.8060 N   0  0  0  0  0  0  0  0  0  0  0  0
   47.2410   32.5890   46.8760 C   0  0  0  0  0  0  0  0  0  0  0  0
   47.2500   31.8610   48.0670 C   0  0  0  0  0  0  0  0  0  0  0  0
   46.0580   31.9900   48.6760 N   0  0  0  0  0  0  0  0  0  0  0  0
   45.2960   32.7680   47.9190 C   0  0  0  0  0  0  0  0  0  0  0  0
   49.5130   27.5930   48.7260 N   0  0  0  0  0  0  0  0  0  0  0  0
   48.9010   27.0920   47.6370 C   0  0  0  0  0  0  0  0  0  0  0  0
   49.0800   25.7430   47.7060 N   0  0  0  0  0  0  0  0  0  0  0  0
   49.7880   25.4290   48.8150 C   0  0  0  0  0  0  0  0  0  0  0  0
   50.2820   24.3010   49.4370 C   0  0  0  0  0  0  0  0  0  0  0  0
   50.9820   24.3830   50.5990 N   0  0  0  0  0  0  0  0  0  0  0  0
   51.2270   25.5690   51.1990 C   0  0  0  0  0  0  0  0  0  0  0  0
   50.7580   26.7120   50.6180 N   0  0  0  0  0  0  0  0  0  0  0  0
   50.0650   26.6160   49.4680 C   0  0  0  0  0  0  0  0  0  0  0  0
   47.3840   29.0070   47.7280 N   0  0  0  0  0  0  0  0  0  0  0  0
   49.3103   32.8162   49.3689 H   0  0  0  0  0  0  0  0  0  0  0  0
   51.2569   31.5910   50.2909 H   0  0  0  0  0  0  0  0  0  0  0  0
   51.3487   29.1053   49.9802 H   0  0  0  0  0  0  0  0  0  0  0  0
   43.5950   36.3395   44.7920 H   0  0  0  0  0  0  0  0  0  0  0  0
   44.8721   36.1773   42.6690 H   0  0  0  0  0  0  0  0  0  0  0  0
   46.7569   34.5173   42.5079 H   0  0  0  0  0  0  0  0  0  0  0  0
   48.0606   32.6886   46.1492 H   0  0  0  0  0  0  0  0  0  0  0  0
   44.2606   33.0652   48.1417 H   0  0  0  0  0  0  0  0  0  0  0  0
   48.3682   27.6536   46.8555 H   0  0  0  0  0  0  0  0  0  0  0  0
   50.1056   23.3147   48.9830 H   0  0  0  0  0  0  0  0  0  0  0  0
   51.7950   25.6126   52.1400 H   0  0  0  0  0  0  0  0  0  0  0  0
   47.4508   27.9851   47.6175 H   0  0  0  0  0  0  0  0  0  0  0  0
   46.5740   29.5146   47.3445 H   0  0  0  0  0  0  0  0  0  0  0  0
  1  2  2  0
  2  3  1  0
  4  3  2  0
  5  4  1  0
  6  1  1  0
  6  5  2  0
  7 12  2  0
  8  7  1  0
  9  8  2  0
  9 10  1  0
 10 11  2  0
 11 12  1  0
 11 13  1  0
 13 14  1  0
 13 17  1  0
 14 15  2  0
 15  1  1  0
 15 16  1  0
 17 16  2  0
 18  5  1  0
 18 26  1  0
 19 20  2  0
 19 18  1  0
 20 21  1  0
 21 22  1  0
 21 26  2  0
 22 23  2  0
 23 24  1  0
 25 24  2  0
 26 25  1  0
 27  6  1  0
  2 28  1  0
  3 29  1  0
  4 30  1  0
  7 31  1  0
  8 32  1  0
  9 33  1  0
 14 34  1  0
 17 35  1  0
 19 36  1  0
 22 37  1  0
 24 38  1  0
 27 39  1  0
 27 40  1  0
M  ISO  8  28  14  29  14  30  14  31  14  32  14  33  14  34  14  35  14
M  ISO  3  36  14  37  14  38  14
M  END
>  <minimizedAffinity>  (1) 
-6.40745211

>  <minimizedRMSD>  (1) 
0.716378212

$$$$
