
     RDKit          3D

 37 40  0  0  0  0  0  0  0  0999 V2000
   48.1530   30.8990   48.3870 C   0  0  0  0  0  0  0  0  0  0  0  0
   49.0970   31.4540   49.2250 C   0  0  0  0  0  0  0  0  0  0  0  0
   50.1360   30.7040   49.7330 C   0  0  0  0  0  0  0  0  0  0  0  0
   50.2030   29.3750   49.3750 C   0  0  0  0  0  0  0  0  0  0  0  0
   49.2640   28.8210   48.5420 C   0  0  0  0  0  0  0  0  0  0  0  0
   48.2270   29.5710   48.0370 C   0  0  0  0  0  0  0  0  0  0  0  0
   44.4840   35.7510   44.6180 C   0  0  0  0  0  0  0  0  0  0  0  0
   45.2180   35.6620   43.4260 C   0  0  0  0  0  0  0  0  0  0  0  0
   46.2100   34.7030   43.3360 C   0  0  0  0  0  0  0  0  0  0  0  0
   46.4330   33.8910   44.3990 N   0  0  0  0  0  0  0  0  0  0  0  0
   45.6900   34.0100   45.5540 C   0  0  0  0  0  0  0  0  0  0  0  0
   44.7280   34.9240   45.6730 N   0  0  0  0  0  0  0  0  0  0  0  0
   45.9430   33.1490   46.6510 N   0  0  0  0  0  0  0  0  0  0  0  0
   47.1250   32.5230   46.7200 C   0  0  0  0  0  0  0  0  0  0  0  0
   47.0840   31.7560   47.8910 C   0  0  0  0  0  0  0  0  0  0  0  0
   45.9060   31.9320   48.4900 N   0  0  0  0  0  0  0  0  0  0  0  0
   45.1930   32.7770   47.7540 C   0  0  0  0  0  0  0  0  0  0  0  0
   49.3250   27.4170   48.1570 C   0  0  0  0  0  0  0  0  0  0  0  0
   49.2320   26.3540   49.0290 C   0  0  0  0  0  0  0  0  0  0  0  0
   49.2920   25.0340   48.6360 C   0  0  0  0  0  0  0  0  0  0  0  0
   49.4520   24.7580   47.3140 N   0  0  0  0  0  0  0  0  0  0  0  0
   49.5450   25.8020   46.4410 C   0  0  0  0  0  0  0  0  0  0  0  0
   49.4820   27.0750   46.8660 N   0  0  0  0  0  0  0  0  0  0  0  0
   47.2740   28.9840   47.1840 N   0  0  0  0  0  0  0  0  0  0  0  0
   49.0193   32.5178   49.4938 H   0  0  0  0  0  0  0  0  0  0  0  0
   50.8863   31.1513   50.4016 H   0  0  0  0  0  0  0  0  0  0  0  0
   51.0207   28.7495   49.7625 H   0  0  0  0  0  0  0  0  0  0  0  0
   43.6907   36.5082   44.7033 H   0  0  0  0  0  0  0  0  0  0  0  0
   45.0096   36.3383   42.5838 H   0  0  0  0  0  0  0  0  0  0  0  0
   46.8078   34.6005   42.4183 H   0  0  0  0  0  0  0  0  0  0  0  0
   47.9569   32.5963   46.0041 H   0  0  0  0  0  0  0  0  0  0  0  0
   44.1746   33.1241   47.9829 H   0  0  0  0  0  0  0  0  0  0  0  0
   49.1025   26.5711   50.0996 H   0  0  0  0  0  0  0  0  0  0  0  0
   49.2123   24.2228   49.3746 H   0  0  0  0  0  0  0  0  0  0  0  0
   49.6741   25.5976   45.3679 H   0  0  0  0  0  0  0  0  0  0  0  0
   47.3498   27.9873   46.9356 H   0  0  0  0  0  0  0  0  0  0  0  0
   46.5007   29.5511   46.8080 H   0  0  0  0  0  0  0  0  0  0  0  0
  1  2  2  0
  2  3  1  0
  4  3  2  0
  5  4  1  0
  6  1  1  0
  6  5  2  0
  7 12  2  0
  8  7  1  0
  9  8  2  0
  9 10  1  0
 10 11  2  0
 11 12  1  0
 11 13  1  0
 13 14  1  0
 13 17  1  0
 14 15  2  0
 15  1  1  0
 15 16  1  0
 17 16  2  0
 18  5  1  0
 18 19  2  0
 20 19  1  0
 21 20  2  0
 22 23  2  0
 22 21  1  0
 23 18  1  0
 24  6  1  0
  2 25  1  0
  3 26  1  0
  4 27  1  0
  7 28  1  0
  8 29  1  0
  9 30  1  0
 14 31  1  0
 17 32  1  0
 19 33  1  0
 20 34  1  0
 22 35  1  0
 24 36  1  0
 24 37  1  0
M  ISO  8  25  14  26  14  27  14  28  14  29  14  30  14  31  14  32  14
M  ISO  3  33  14  34  14  35  14
M  END
>  <minimizedAffinity>  (1) 
-5.81626749

>  <minimizedRMSD>  (1) 
0.244130045

$$$$
