
     RDKit          3D

 32 34  0  0  0  0  0  0  0  0999 V2000
   44.4490   35.8380   44.5330 C   0  0  0  0  0  0  0  0  0  0  0  0
   45.1730   35.7280   43.3510 C   0  0  0  0  0  0  0  0  0  0  0  0
   46.1570   34.7630   43.2670 C   0  0  0  0  0  0  0  0  0  0  0  0
   46.3690   33.9640   44.3500 N   0  0  0  0  0  0  0  0  0  0  0  0
   45.6370   34.1010   45.4970 C   0  0  0  0  0  0  0  0  0  0  0  0
   44.6780   35.0240   45.6100 N   0  0  0  0  0  0  0  0  0  0  0  0
   45.8820   33.2550   46.6040 N   0  0  0  0  0  0  0  0  0  0  0  0
   47.0600   32.6190   46.6790 C   0  0  0  0  0  0  0  0  0  0  0  0
   47.0290   31.8730   47.8460 C   0  0  0  0  0  0  0  0  0  0  0  0
   45.8390   32.0660   48.4580 N   0  0  0  0  0  0  0  0  0  0  0  0
   45.1320   32.9040   47.7150 C   0  0  0  0  0  0  0  0  0  0  0  0
   48.0740   31.0160   48.3580 C   0  0  0  0  0  0  0  0  0  0  0  0
   49.0290   31.5560   49.1850 C   0  0  0  0  0  0  0  0  0  0  0  0
   50.0500   30.8080   49.7090 C   0  0  0  0  0  0  0  0  0  0  0  0
   50.0960   29.4640   49.3790 C   0  0  0  0  0  0  0  0  0  0  0  0
   49.1510   28.9070   48.5550 C   0  0  0  0  0  0  0  0  0  0  0  0
   48.1280   29.6860   48.0380 C   0  0  0  0  0  0  0  0  0  0  0  0
   47.1690   29.0810   47.1900 N   0  0  0  0  0  0  0  0  0  0  0  0
   49.2000   27.4520   48.1980 C   0  0  0  0  0  0  0  0  0  0  0  0
   43.6647   36.6059   44.6054 H   0  0  0  0  0  0  0  0  0  0  0  0
   44.9663   36.3953   42.5013 H   0  0  0  0  0  0  0  0  0  0  0  0
   46.7535   34.6426   42.3507 H   0  0  0  0  0  0  0  0  0  0  0  0
   47.8875   32.6779   45.9567 H   0  0  0  0  0  0  0  0  0  0  0  0
   44.1171   33.2622   47.9423 H   0  0  0  0  0  0  0  0  0  0  0  0
   48.9718   32.6257   49.4349 H   0  0  0  0  0  0  0  0  0  0  0  0
   50.8063   31.2589   50.3683 H   0  0  0  0  0  0  0  0  0  0  0  0
   50.9018   28.8338   49.7833 H   0  0  0  0  0  0  0  0  0  0  0  0
   47.2376   28.0775   46.9685 H   0  0  0  0  0  0  0  0  0  0  0  0
   46.4027   29.6444   46.7947 H   0  0  0  0  0  0  0  0  0  0  0  0
   49.2203   26.8492   49.1179 H   0  0  0  0  0  0  0  0  0  0  0  0
   48.3102   27.1893   47.6070 H   0  0  0  0  0  0  0  0  0  0  0  0
   50.1055   27.2497   47.6070 H   0  0  0  0  0  0  0  0  0  0  0  0
  1  6  2  0
  2  1  1  0
  3  2  2  0
  3  4  1  0
  4  5  2  0
  5  6  1  0
  5  7  1  0
  7  8  1  0
  7 11  1  0
  8  9  2  0
  9 12  1  0
  9 10  1  0
 11 10  2  0
 12 13  2  0
 13 14  1  0
 15 14  2  0
 16 15  1  0
 17 12  1  0
 17 16  2  0
 18 17  1  0
 19 16  1  0
  1 20  1  0
  2 21  1  0
  3 22  1  0
  8 23  1  0
 11 24  1  0
 13 25  1  0
 14 26  1  0
 15 27  1  0
 18 28  1  0
 18 29  1  0
 19 30  1  0
 19 31  1  0
 19 32  1  0
M  ISO  8  20  14  21  14  22  14  23  14  24  14  25  14  26  14  27  14
M  ISO  3  30   8  31   8  32   8
M  END
>  <minimizedAffinity>  (1) 
-5.72406864

>  <minimizedRMSD>  (1) 
0.0623904578

$$$$
