
     RDKit          3D

 39 42  0  0  0  0  0  0  0  0999 V2000
   48.1220   30.9130   48.3820 C   0  0  0  0  0  0  0  0  0  0  0  0
   48.9790   31.4160   49.3500 C   0  0  0  0  0  0  0  0  0  0  0  0
   50.0020   30.6590   49.8640 C   0  0  0  0  0  0  0  0  0  0  0  0
   50.1580   29.3680   49.3840 C   0  0  0  0  0  0  0  0  0  0  0  0
   49.3130   28.8640   48.4240 C   0  0  0  0  0  0  0  0  0  0  0  0
   48.2850   29.6400   47.9170 C   0  0  0  0  0  0  0  0  0  0  0  0
   44.4890   35.7910   44.6380 C   0  0  0  0  0  0  0  0  0  0  0  0
   45.1980   35.6900   43.4460 C   0  0  0  0  0  0  0  0  0  0  0  0
   46.1770   34.7020   43.3240 C   0  0  0  0  0  0  0  0  0  0  0  0
   46.3930   33.8820   44.3830 N   0  0  0  0  0  0  0  0  0  0  0  0
   45.6800   34.0120   45.5320 C   0  0  0  0  0  0  0  0  0  0  0  0
   44.7280   34.9570   45.6780 N   0  0  0  0  0  0  0  0  0  0  0  0
   45.8860   33.1620   46.6650 N   0  0  0  0  0  0  0  0  0  0  0  0
   47.0850   32.5260   46.7220 C   0  0  0  0  0  0  0  0  0  0  0  0
   47.0600   31.7710   47.8840 C   0  0  0  0  0  0  0  0  0  0  0  0
   45.8780   31.9560   48.4970 N   0  0  0  0  0  0  0  0  0  0  0  0
   45.1630   32.7960   47.7650 C   0  0  0  0  0  0  0  0  0  0  0  0
   49.5730   27.4970   47.9980 C   0  0  0  0  0  0  0  0  0  0  0  0
   50.3740   27.2720   46.8950 C   0  0  0  0  0  0  0  0  0  0  0  0
   50.6330   25.9720   46.4730 C   0  0  0  0  0  0  0  0  0  0  0  0
   50.0500   24.9400   47.2120 C   0  0  0  0  0  0  0  0  0  0  0  0
   49.2480   25.1610   48.3160 C   0  0  0  0  0  0  0  0  0  0  0  0
   49.0050   26.4750   48.7170 C   0  0  0  0  0  0  0  0  0  0  0  0
   47.4340   29.0970   46.9330 N   0  0  0  0  0  0  0  0  0  0  0  0
   48.8355   32.4442   49.7136 H   0  0  0  0  0  0  0  0  0  0  0  0
   50.6768   31.0640   50.6326 H   0  0  0  0  0  0  0  0  0  0  0  0
   50.9695   28.7379   49.7769 H   0  0  0  0  0  0  0  0  0  0  0  0
   43.7156   36.5667   44.7386 H   0  0  0  0  0  0  0  0  0  0  0  0
   44.9909   36.3774   42.6126 H   0  0  0  0  0  0  0  0  0  0  0  0
   46.7567   34.5916   42.3957 H   0  0  0  0  0  0  0  0  0  0  0  0
   47.9074   32.5959   45.9948 H   0  0  0  0  0  0  0  0  0  0  0  0
   44.1474   33.1442   48.0045 H   0  0  0  0  0  0  0  0  0  0  0  0
   50.8079   28.1228   46.3492 H   0  0  0  0  0  0  0  0  0  0  0  0
   51.2673   25.7664   45.5982 H   0  0  0  0  0  0  0  0  0  0  0  0
   50.2380   23.9019   46.9006 H   0  0  0  0  0  0  0  0  0  0  0  0
   48.8096   24.3166   48.8680 H   0  0  0  0  0  0  0  0  0  0  0  0
   48.3716   26.6875   49.5909 H   0  0  0  0  0  0  0  0  0  0  0  0
   47.5803   28.1332   46.6005 H   0  0  0  0  0  0  0  0  0  0  0  0
   46.6659   29.6641   46.5465 H   0  0  0  0  0  0  0  0  0  0  0  0
  1  2  2  0
  2  3  1  0
  4  3  2  0
  5  4  1  0
  6  1  1  0
  6  5  2  0
  7 12  2  0
  8  7  1  0
  9  8  2  0
  9 10  1  0
 10 11  2  0
 11 12  1  0
 11 13  1  0
 13 14  1  0
 13 17  1  0
 14 15  2  0
 15  1  1  0
 15 16  1  0
 17 16  2  0
 18  5  1  0
 18 23  1  0
 19 18  2  0
 20 19  1  0
 20 21  2  0
 21 22  1  0
 22 23  2  0
 24  6  1  0
  2 25  1  0
  3 26  1  0
  4 27  1  0
  7 28  1  0
  8 29  1  0
  9 30  1  0
 14 31  1  0
 17 32  1  0
 19 33  1  0
 20 34  1  0
 21 35  1  0
 22 36  1  0
 23 37  1  0
 24 38  1  0
 24 39  1  0
M  ISO  8  25  14  26  14  27  14  28  14  29  14  30  14  31  14  32  14
M  ISO  5  33  14  34  14  35  14  36  14  37  14
M  END
>  <minimizedAffinity>  (1) 
-5.79618216

>  <minimizedRMSD>  (1) 
0.561390102

$$$$
