
     RDKit          3D

 36 39  0  0  0  0  0  0  0  0999 V2000
   48.1340   30.9780   48.3930 C   0  0  0  0  0  0  0  0  0  0  0  0
   49.0800   31.5370   49.2220 C   0  0  0  0  0  0  0  0  0  0  0  0
   50.1110   30.8020   49.7380 C   0  0  0  0  0  0  0  0  0  0  0  0
   50.1830   29.4510   49.3990 C   0  0  0  0  0  0  0  0  0  0  0  0
   49.2410   28.8900   48.5720 C   0  0  0  0  0  0  0  0  0  0  0  0
   48.2020   29.6430   48.0560 C   0  0  0  0  0  0  0  0  0  0  0  0
   44.4600   35.7960   44.5960 C   0  0  0  0  0  0  0  0  0  0  0  0
   45.1790   35.7010   43.4190 C   0  0  0  0  0  0  0  0  0  0  0  0
   46.1820   34.7340   43.3100 C   0  0  0  0  0  0  0  0  0  0  0  0
   46.4020   33.9270   44.3820 N   0  0  0  0  0  0  0  0  0  0  0  0
   45.6690   34.0520   45.5320 C   0  0  0  0  0  0  0  0  0  0  0  0
   44.7020   34.9710   45.6570 N   0  0  0  0  0  0  0  0  0  0  0  0
   45.9050   33.2060   46.6420 N   0  0  0  0  0  0  0  0  0  0  0  0
   47.1040   32.5800   46.7160 C   0  0  0  0  0  0  0  0  0  0  0  0
   47.0710   31.8250   47.8860 C   0  0  0  0  0  0  0  0  0  0  0  0
   45.8780   32.0000   48.4940 N   0  0  0  0  0  0  0  0  0  0  0  0
   45.1690   32.8380   47.7390 C   0  0  0  0  0  0  0  0  0  0  0  0
   49.3020   27.4760   48.2080 C   0  0  0  0  0  0  0  0  0  0  0  0
   49.3290   26.3770   49.0410 C   0  0  0  0  0  0  0  0  0  0  0  0
   49.3870   25.2480   48.2580 C   0  0  0  0  0  0  0  0  0  0  0  0
   49.3940   25.6660   46.9600 N   0  0  0  0  0  0  0  0  0  0  0  0
   49.3430   26.9870   46.9630 N   0  0  0  0  0  0  0  0  0  0  0  0
   47.2500   29.0430   47.2120 N   0  0  0  0  0  0  0  0  0  0  0  0
   49.0045   32.6045   49.4764 H   0  0  0  0  0  0  0  0  0  0  0  0
   50.8600   31.2617   50.3996 H   0  0  0  0  0  0  0  0  0  0  0  0
   50.9997   28.8307   49.7967 H   0  0  0  0  0  0  0  0  0  0  0  0
   43.6708   36.5576   44.6802 H   0  0  0  0  0  0  0  0  0  0  0  0
   44.9643   36.3780   42.5790 H   0  0  0  0  0  0  0  0  0  0  0  0
   46.7733   34.6293   42.3884 H   0  0  0  0  0  0  0  0  0  0  0  0
   47.9344   32.6530   45.9983 H   0  0  0  0  0  0  0  0  0  0  0  0
   44.1483   33.1824   47.9617 H   0  0  0  0  0  0  0  0  0  0  0  0
   49.3078   26.3997   50.1406 H   0  0  0  0  0  0  0  0  0  0  0  0
   49.4212   24.2068   48.6112 H   0  0  0  0  0  0  0  0  0  0  0  0
   49.4322   25.0613   46.1271 H   0  0  0  0  0  0  0  0  0  0  0  0
   47.3269   28.0429   46.9779 H   0  0  0  0  0  0  0  0  0  0  0  0
   46.4760   29.6037   46.8281 H   0  0  0  0  0  0  0  0  0  0  0  0
  1  2  2  0
  2  3  1  0
  4  3  2  0
  5  4  1  0
  6  1  1  0
  6  5  2  0
  7 12  2  0
  8  7  1  0
  9  8  2  0
  9 10  1  0
 10 11  2  0
 11 12  1  0
 11 13  1  0
 13 14  1  0
 13 17  1  0
 14 15  2  0
 15  1  1  0
 15 16  1  0
 17 16  2  0
 18  5  1  0
 18 19  1  0
 20 19  2  0
 21 22  1  0
 21 20  1  0
 22 18  2  0
 23  6  1  0
  2 24  1  0
  3 25  1  0
  4 26  1  0
  7 27  1  0
  8 28  1  0
  9 29  1  0
 14 30  1  0
 17 31  1  0
 19 32  1  0
 20 33  1  0
 21 34  1  0
 23 35  1  0
 23 36  1  0
M  ISO  8  24  14  25  14  26  14  27  14  28  14  29  14  30  14  31  14
M  ISO  3  32  14  33  14  34   9
M  END
>  <minimizedAffinity>  (1) 
-5.78074074

>  <minimizedRMSD>  (1) 
0.366058141

$$$$
