
     RDKit          3D

 35 38  0  0  0  0  0  0  0  0999 V2000
   48.0700   31.0400   48.3770 C   0  0  0  0  0  0  0  0  0  0  0  0
   49.0220   31.6000   49.2010 C   0  0  0  0  0  0  0  0  0  0  0  0
   50.0470   30.8630   49.7280 C   0  0  0  0  0  0  0  0  0  0  0  0
   50.1090   29.5270   49.4110 C   0  0  0  0  0  0  0  0  0  0  0  0
   49.1550   28.9390   48.5800 C   0  0  0  0  0  0  0  0  0  0  0  0
   48.1360   29.6970   48.0610 C   0  0  0  0  0  0  0  0  0  0  0  0
   44.4400   35.8510   44.5350 C   0  0  0  0  0  0  0  0  0  0  0  0
   45.1670   35.7280   43.3420 C   0  0  0  0  0  0  0  0  0  0  0  0
   46.1470   34.7540   43.2590 C   0  0  0  0  0  0  0  0  0  0  0  0
   46.3600   33.9620   44.3380 N   0  0  0  0  0  0  0  0  0  0  0  0
   45.6350   34.1060   45.4860 C   0  0  0  0  0  0  0  0  0  0  0  0
   44.6880   35.0340   45.5920 N   0  0  0  0  0  0  0  0  0  0  0  0
   45.8780   33.2590   46.6000 N   0  0  0  0  0  0  0  0  0  0  0  0
   47.0620   32.6350   46.6830 C   0  0  0  0  0  0  0  0  0  0  0  0
   47.0180   31.8860   47.8600 C   0  0  0  0  0  0  0  0  0  0  0  0
   45.8180   32.0720   48.4570 N   0  0  0  0  0  0  0  0  0  0  0  0
   45.1200   32.9030   47.7030 C   0  0  0  0  0  0  0  0  0  0  0  0
   49.3360   27.5520   48.3340 N   0  0  0  0  0  0  0  0  0  0  0  0
   49.5800   26.5350   49.1740 C   0  0  0  0  0  0  0  0  0  0  0  0
   49.6880   25.3560   48.5380 N   0  0  0  0  0  0  0  0  0  0  0  0
   49.5040   25.6410   47.2380 C   0  0  0  0  0  0  0  0  0  0  0  0
   49.3010   26.9430   47.1620 N   0  0  0  0  0  0  0  0  0  0  0  0
   47.1760   29.1050   47.2270 N   0  0  0  0  0  0  0  0  0  0  0  0
   48.9558   32.6712   49.4421 H   0  0  0  0  0  0  0  0  0  0  0  0
   50.7983   31.3253   50.3851 H   0  0  0  0  0  0  0  0  0  0  0  0
   50.9241   28.9114   49.8192 H   0  0  0  0  0  0  0  0  0  0  0  0
   43.6577   36.6200   44.6162 H   0  0  0  0  0  0  0  0  0  0  0  0
   44.9625   36.3922   42.4894 H   0  0  0  0  0  0  0  0  0  0  0  0
   46.7382   34.6260   42.3402 H   0  0  0  0  0  0  0  0  0  0  0  0
   47.8968   32.7001   45.9697 H   0  0  0  0  0  0  0  0  0  0  0  0
   44.1003   33.2555   47.9172 H   0  0  0  0  0  0  0  0  0  0  0  0
   49.6806   26.6530   50.2630 H   0  0  0  0  0  0  0  0  0  0  0  0
   49.5195   24.9282   46.4003 H   0  0  0  0  0  0  0  0  0  0  0  0
   47.2387   28.1022   47.0005 H   0  0  0  0  0  0  0  0  0  0  0  0
   46.4084   29.6731   46.8411 H   0  0  0  0  0  0  0  0  0  0  0  0
  1  2  2  0
  2  3  1  0
  4  3  2  0
  5  4  1  0
  6  1  1  0
  6  5  2  0
  7 12  2  0
  8  7  1  0
  9  8  2  0
  9 10  1  0
 10 11  2  0
 11 12  1  0
 11 13  1  0
 13 14  1  0
 13 17  1  0
 14 15  2  0
 15  1  1  0
 15 16  1  0
 17 16  2  0
 18  5  1  0
 18 19  1  0
 20 19  2  0
 21 20  1  0
 22 21  2  0
 22 18  1  0
 23  6  1  0
  2 24  1  0
  3 25  1  0
  4 26  1  0
  7 27  1  0
  8 28  1  0
  9 29  1  0
 14 30  1  0
 17 31  1  0
 19 32  1  0
 21 33  1  0
 23 34  1  0
 23 35  1  0
M  ISO  8  24  14  25  14  26  14  27  14  28  14  29  14  30  14  31  14
M  ISO  2  32  14  33  14
M  END
>  <minimizedAffinity>  (1) 
-5.78638029

>  <minimizedRMSD>  (1) 
0.281955987

$$$$
