
     RDKit          3D

 45 47  0  0  0  0  0  0  0  0999 V2000
   45.4530   35.0620   42.7580 C   0  0  0  0  0  0  0  0  0  0  0  0
   45.0580   34.5810   45.1550 C   0  0  0  0  0  0  0  0  0  0  0  0
   45.7910   34.2870   43.9830 C   0  0  0  0  0  0  0  0  0  0  0  0
   46.7620   33.2950   44.0840 C   0  0  0  0  0  0  0  0  0  0  0  0
   46.9650   32.6740   45.2500 N   0  0  0  0  0  0  0  0  0  0  0  0
   46.2400   32.9840   46.3600 C   0  0  0  0  0  0  0  0  0  0  0  0
   45.2790   33.9470   46.3050 N   0  0  0  0  0  0  0  0  0  0  0  0
   46.5860   34.9470   41.7690 C   0  0  0  0  0  0  0  0  0  0  0  0
   45.2380   36.5040   43.1200 C   0  0  0  0  0  0  0  0  0  0  0  0
   44.1580   34.5250   42.1820 C   0  0  0  0  0  0  0  0  0  0  0  0
   43.3000   35.5700   41.9470 O   0  0  0  0  0  0  0  0  0  0  0  0
   42.1860   35.3410   41.1540 C   0  0  0  0  0  0  0  0  0  0  0  0
   40.9810   36.0160   41.2990 C   0  0  0  0  0  0  0  0  0  0  0  0
   40.1380   35.4950   40.3220 C   0  0  0  0  0  0  0  0  0  0  0  0
   40.8000   34.5540   39.6220 N   0  0  0  0  0  0  0  0  0  0  0  0
   42.0180   34.4660   40.1220 N   0  0  0  0  0  0  0  0  0  0  0  0
   38.5070   31.7130   37.6580 N   0  0  0  0  0  0  0  0  0  0  0  0
   39.9330   31.4610   37.7460 C   0  0  0  0  0  0  0  0  0  0  0  0
   40.4370   32.2810   38.9320 C   0  0  0  0  0  0  0  0  0  0  0  0
   40.3600   33.7310   38.5130 C   0  0  0  0  0  0  0  0  0  0  0  0
   38.9010   34.0610   38.2690 C   0  0  0  0  0  0  0  0  0  0  0  0
   38.1990   33.0830   37.3830 C   0  0  0  0  0  0  0  0  0  0  0  0
   44.2804   35.3581   45.1160 H   0  0  0  0  0  0  0  0  0  0  0  0
   47.3626   33.0219   43.2038 H   0  0  0  0  0  0  0  0  0  0  0  0
   46.4314   32.4544   47.3049 H   0  0  0  0  0  0  0  0  0  0  0  0
   47.5380   34.8504   42.3116 H   0  0  0  0  0  0  0  0  0  0  0  0
   46.4325   34.0598   41.1371 H   0  0  0  0  0  0  0  0  0  0  0  0
   46.6139   35.8469   41.1371 H   0  0  0  0  0  0  0  0  0  0  0  0
   45.2224   36.6088   44.2149 H   0  0  0  0  0  0  0  0  0  0  0  0
   46.0554   37.1120   42.7051 H   0  0  0  0  0  0  0  0  0  0  0  0
   44.2788   36.8471   42.7051 H   0  0  0  0  0  0  0  0  0  0  0  0
   44.3653   33.9999   41.2379 H   0  0  0  0  0  0  0  0  0  0  0  0
   43.6995   33.8241   42.8951 H   0  0  0  0  0  0  0  0  0  0  0  0
   40.7425   36.7995   42.0334 H   0  0  0  0  0  0  0  0  0  0  0  0
   39.0963   35.8029   40.1489 H   0  0  0  0  0  0  0  0  0  0  0  0
   38.1164   31.1306   36.9036 H   0  0  0  0  0  0  0  0  0  0  0  0
   40.1216   30.3905   37.9146 H   0  0  0  0  0  0  0  0  0  0  0  0
   40.4484   31.7421   36.8158 H   0  0  0  0  0  0  0  0  0  0  0  0
   39.8020   32.1055   39.8129 H   0  0  0  0  0  0  0  0  0  0  0  0
   41.4650   31.9988   39.2033 H   0  0  0  0  0  0  0  0  0  0  0  0
   40.9766   33.9073   37.6193 H   0  0  0  0  0  0  0  0  0  0  0  0
   38.3837   34.0825   39.2395 H   0  0  0  0  0  0  0  0  0  0  0  0
   38.8751   35.0333   37.7552 H   0  0  0  0  0  0  0  0  0  0  0  0
   38.4813   33.2972   36.3416 H   0  0  0  0  0  0  0  0  0  0  0  0
   37.1218   33.2070   37.5681 H   0  0  0  0  0  0  0  0  0  0  0  0
  1  9  1  0
  1  3  1  0
  2  7  2  0
  3  4  2  0
  3  2  1  0
  4  5  1  0
  5  6  2  0
  7  6  1  0
  8  1  1  0
 10  1  1  0
 11 10  1  0
 12 13  1  0
 12 11  1  0
 14 13  2  0
 15 16  1  0
 15 14  1  0
 16 12  2  0
 17 18  1  0
 18 19  1  0
 20 19  1  0
 20 15  1  0
 21 20  1  0
 22 17  1  0
 22 21  1  0
  2 23  1  0
  4 24  1  0
  6 25  1  0
  8 26  1  0
  8 27  1  0
  8 28  1  0
  9 29  1  0
  9 30  1  0
  9 31  1  0
 10 32  1  0
 10 33  1  0
 13 34  1  0
 14 35  1  0
 17 36  1  0
 18 37  1  0
 18 38  1  0
 19 39  1  0
 19 40  1  0
 20 41  1  0
 21 42  1  0
 21 43  1  0
 22 44  1  0
 22 45  1  0
M  ISO  8  23  14  24  14  25  14  26   8  27   8  28   8  29   8  30   8
M  ISO  8  31   8  32   8  33   8  34  14  35  14  36   5  37  13  38  13
M  ISO  7  39  13  40  13  41  13  42  13  43  13  44  13  45  13
M  END
>  <minimizedAffinity>  (1) 
-5.67095661

>  <minimizedRMSD>  (1) 
1.73510683

$$$$
