
     RDKit          3D

 30 32  0  0  0  0  0  0  0  0999 V2000
   44.4440   35.8550   44.4890 C   0  0  0  0  0  0  0  0  0  0  0  0
   45.1720   35.7400   43.3200 C   0  0  0  0  0  0  0  0  0  0  0  0
   46.1690   34.7740   43.2340 C   0  0  0  0  0  0  0  0  0  0  0  0
   46.3710   33.9830   44.3240 N   0  0  0  0  0  0  0  0  0  0  0  0
   45.6310   34.1240   45.4660 C   0  0  0  0  0  0  0  0  0  0  0  0
   44.6680   35.0460   45.5690 N   0  0  0  0  0  0  0  0  0  0  0  0
   45.8660   33.2840   46.5870 N   0  0  0  0  0  0  0  0  0  0  0  0
   47.0540   32.6470   46.6600 C   0  0  0  0  0  0  0  0  0  0  0  0
   47.0040   31.9110   47.8400 C   0  0  0  0  0  0  0  0  0  0  0  0
   45.8130   32.1080   48.4490 N   0  0  0  0  0  0  0  0  0  0  0  0
   45.1190   32.9430   47.6880 C   0  0  0  0  0  0  0  0  0  0  0  0
   48.0630   31.0480   48.3650 C   0  0  0  0  0  0  0  0  0  0  0  0
   49.0080   31.5970   49.1870 C   0  0  0  0  0  0  0  0  0  0  0  0
   50.0240   30.8520   49.7130 C   0  0  0  0  0  0  0  0  0  0  0  0
   50.0800   29.5060   49.3900 C   0  0  0  0  0  0  0  0  0  0  0  0
   49.1350   28.9500   48.5640 C   0  0  0  0  0  0  0  0  0  0  0  0
   48.1140   29.7180   48.0410 C   0  0  0  0  0  0  0  0  0  0  0  0
   47.1500   29.1170   47.1900 N   0  0  0  0  0  0  0  0  0  0  0  0
   49.1850   27.2040   48.1290 S   0  0  0  0  0  0  0  0  0  0  0  0
   43.6585   36.6224   44.5531 H   0  0  0  0  0  0  0  0  0  0  0  0
   44.9655   36.4043   42.4679 H   0  0  0  0  0  0  0  0  0  0  0  0
   46.7709   34.6536   42.3212 H   0  0  0  0  0  0  0  0  0  0  0  0
   47.8843   32.6987   45.9404 H   0  0  0  0  0  0  0  0  0  0  0  0
   44.1035   33.3060   47.9046 H   0  0  0  0  0  0  0  0  0  0  0  0
   48.9479   32.6679   49.4310 H   0  0  0  0  0  0  0  0  0  0  0  0
   50.7762   31.3072   50.3740 H   0  0  0  0  0  0  0  0  0  0  0  0
   50.8866   28.8790   49.7979 H   0  0  0  0  0  0  0  0  0  0  0  0
   47.2156   28.1140   46.9650 H   0  0  0  0  0  0  0  0  0  0  0  0
   46.3849   29.6839   46.7974 H   0  0  0  0  0  0  0  0  0  0  0  0
   49.2066   26.4490   49.2720 H   0  0  0  0  0  0  0  0  0  0  0  0
  1  6  2  0
  2  1  1  0
  3  2  2  0
  3  4  1  0
  4  5  2  0
  5  6  1  0
  5  7  1  0
  7  8  1  0
  7 11  1  0
  8  9  2  0
  9 12  1  0
  9 10  1  0
 11 10  2  0
 12 13  2  0
 13 14  1  0
 15 14  2  0
 16 15  1  0
 17 12  1  0
 17 16  2  0
 18 17  1  0
 19 16  1  0
  1 20  1  0
  2 21  1  0
  3 22  1  0
  8 23  1  0
 11 24  1  0
 13 25  1  0
 14 26  1  0
 15 27  1  0
 18 28  1  0
 18 29  1  0
 19 30  1  0
M  ISO  8  20  14  21  14  22  14  23  14  24  14  25  14  26  14  27  14
M  ISO  1  30  11
M  END
>  <minimizedAffinity>  (1) 
-5.69349432

>  <minimizedRMSD>  (1) 
0.102164157

$$$$
