
     RDKit          3D

 31 33  0  0  0  0  0  0  0  0999 V2000
   44.4400   35.8220   44.5300 C   0  0  0  0  0  0  0  0  0  0  0  0
   45.1790   35.7170   43.3530 C   0  0  0  0  0  0  0  0  0  0  0  0
   46.1860   34.7560   43.2650 C   0  0  0  0  0  0  0  0  0  0  0  0
   46.3960   33.9630   44.3490 N   0  0  0  0  0  0  0  0  0  0  0  0
   45.6580   34.0910   45.4830 C   0  0  0  0  0  0  0  0  0  0  0  0
   44.6770   35.0100   45.5990 N   0  0  0  0  0  0  0  0  0  0  0  0
   45.8870   33.2540   46.6130 N   0  0  0  0  0  0  0  0  0  0  0  0
   47.0820   32.6330   46.6870 C   0  0  0  0  0  0  0  0  0  0  0  0
   47.0560   31.8940   47.8550 C   0  0  0  0  0  0  0  0  0  0  0  0
   45.8610   32.0800   48.4590 N   0  0  0  0  0  0  0  0  0  0  0  0
   45.1480   32.9030   47.7110 C   0  0  0  0  0  0  0  0  0  0  0  0
   48.1140   31.0450   48.3860 C   0  0  0  0  0  0  0  0  0  0  0  0
   49.0540   31.6180   49.2190 C   0  0  0  0  0  0  0  0  0  0  0  0
   50.0750   30.8770   49.7530 C   0  0  0  0  0  0  0  0  0  0  0  0
   50.1420   29.5190   49.4330 C   0  0  0  0  0  0  0  0  0  0  0  0
   49.2000   28.9640   48.6030 C   0  0  0  0  0  0  0  0  0  0  0  0
   48.1750   29.7030   48.0650 C   0  0  0  0  0  0  0  0  0  0  0  0
   47.2200   29.1060   47.2150 N   0  0  0  0  0  0  0  0  0  0  0  0
   49.2980   27.5430   48.2870 C   0  0  0  0  0  0  0  0  0  0  0  0
   49.3850   26.6300   49.1210 O   0  0  0  0  0  0  0  0  0  0  0  0
   43.6452   36.5794   44.5981 H   0  0  0  0  0  0  0  0  0  0  0  0
   44.9705   36.3841   42.5036 H   0  0  0  0  0  0  0  0  0  0  0  0
   46.7885   34.6438   42.3515 H   0  0  0  0  0  0  0  0  0  0  0  0
   47.9090   32.7008   45.9649 H   0  0  0  0  0  0  0  0  0  0  0  0
   44.1280   33.2495   47.9337 H   0  0  0  0  0  0  0  0  0  0  0  0
   48.9818   32.6892   49.4583 H   0  0  0  0  0  0  0  0  0  0  0  0
   50.8217   31.3388   50.4157 H   0  0  0  0  0  0  0  0  0  0  0  0
   50.9486   28.8951   49.8456 H   0  0  0  0  0  0  0  0  0  0  0  0
   47.2863   28.1031   46.9900 H   0  0  0  0  0  0  0  0  0  0  0  0
   46.4566   29.6731   46.8195 H   0  0  0  0  0  0  0  0  0  0  0  0
   49.2944   27.2593   47.2242 H   0  0  0  0  0  0  0  0  0  0  0  0
  1  6  2  0
  2  1  1  0
  3  2  2  0
  3  4  1  0
  4  5  2  0
  5  6  1  0
  5  7  1  0
  7  8  1  0
  7 11  1  0
  8  9  2  0
  9 12  1  0
  9 10  1  0
 11 10  2  0
 12 13  2  0
 13 14  1  0
 15 14  2  0
 16 15  1  0
 17 12  1  0
 17 16  2  0
 18 17  1  0
 19 16  1  0
 19 20  2  0
  1 21  1  0
  2 22  1  0
  3 23  1  0
  8 24  1  0
 11 25  1  0
 13 26  1  0
 14 27  1  0
 15 28  1  0
 18 29  1  0
 18 30  1  0
 19 31  1  0
M  ISO  8  21  14  22  14  23  14  24  14  25  14  26  14  27  14  28  14
M  ISO  1  31   6
M  END
>  <minimizedAffinity>  (1) 
-5.61238861

>  <minimizedRMSD>  (1) 
0.104488112

$$$$
