
     RDKit          3D

 38 41  0  0  0  0  0  0  0  0999 V2000
   48.0210   30.7330   48.4180 C   0  0  0  0  0  0  0  0  0  0  0  0
   48.7710   31.1430   49.4990 C   0  0  0  0  0  0  0  0  0  0  0  0
   49.7550   30.3360   50.0270 C   0  0  0  0  0  0  0  0  0  0  0  0
   49.9660   29.0830   49.4260 C   0  0  0  0  0  0  0  0  0  0  0  0
   49.2050   28.6990   48.3520 C   0  0  0  0  0  0  0  0  0  0  0  0
   48.2300   29.5080   47.8340 C   0  0  0  0  0  0  0  0  0  0  0  0
   44.5430   35.7460   44.6790 C   0  0  0  0  0  0  0  0  0  0  0  0
   45.2580   35.6150   43.4890 C   0  0  0  0  0  0  0  0  0  0  0  0
   46.2040   34.6070   43.3790 C   0  0  0  0  0  0  0  0  0  0  0  0
   46.4030   33.7830   44.4330 N   0  0  0  0  0  0  0  0  0  0  0  0
   45.6830   33.9390   45.5870 C   0  0  0  0  0  0  0  0  0  0  0  0
   44.7600   34.9080   45.7200 N   0  0  0  0  0  0  0  0  0  0  0  0
   45.8770   33.0820   46.7100 N   0  0  0  0  0  0  0  0  0  0  0  0
   47.0430   32.3920   46.7550 C   0  0  0  0  0  0  0  0  0  0  0  0
   46.9950   31.6470   47.9160 C   0  0  0  0  0  0  0  0  0  0  0  0
   45.8310   31.8880   48.5420 N   0  0  0  0  0  0  0  0  0  0  0  0
   45.1500   32.7580   47.8130 C   0  0  0  0  0  0  0  0  0  0  0  0
   47.4610   29.0870   46.7270 N   0  0  0  0  0  0  0  0  0  0  0  0
   49.4720   27.4010   47.7830 C   0  0  0  0  0  0  0  0  0  0  0  0
   50.0040   27.1510   46.7110 O   0  0  0  0  0  0  0  0  0  0  0  0
   49.0630   26.1400   48.5650 C   0  0  0  0  0  0  0  0  0  0  0  0
   47.8830   25.4520   48.7170 C   0  0  0  0  0  0  0  0  0  0  0  0
   47.9680   24.3720   49.5150 C   0  0  0  0  0  0  0  0  0  0  0  0
   49.1160   23.9890   50.1210 C   0  0  0  0  0  0  0  0  0  0  0  0
   50.3710   25.2370   49.5890 S   0  0  0  0  0  0  0  0  0  0  0  0
   48.5812   32.1295   49.9471 H   0  0  0  0  0  0  0  0  0  0  0  0
   50.3551   30.6612   50.8896 H   0  0  0  0  0  0  0  0  0  0  0  0
   50.7426   28.4096   49.8178 H   0  0  0  0  0  0  0  0  0  0  0  0
   43.7907   36.5429   44.7734 H   0  0  0  0  0  0  0  0  0  0  0  0
   45.0742   36.3015   42.6494 H   0  0  0  0  0  0  0  0  0  0  0  0
   46.7819   34.4799   42.4517 H   0  0  0  0  0  0  0  0  0  0  0  0
   47.8592   32.4200   46.0181 H   0  0  0  0  0  0  0  0  0  0  0  0
   44.1546   33.1557   48.0599 H   0  0  0  0  0  0  0  0  0  0  0  0
   46.7294   29.7027   46.3441 H   0  0  0  0  0  0  0  0  0  0  0  0
   47.6316   28.1642   46.3025 H   0  0  0  0  0  0  0  0  0  0  0  0
   46.9471   25.7587   48.2271 H   0  0  0  0  0  0  0  0  0  0  0  0
   47.0615   23.7719   49.6828 H   0  0  0  0  0  0  0  0  0  0  0  0
   49.2685   23.1249   50.7843 H   0  0  0  0  0  0  0  0  0  0  0  0
  1  2  2  0
  2  3  1  0
  4  3  2  0
  5  4  1  0
  6  5  2  0
  6  1  1  0
  7 12  2  0
  8  7  1  0
  9  8  2  0
  9 10  1  0
 10 11  2  0
 11 12  1  0
 11 13  1  0
 13 14  1  0
 13 17  1  0
 14 15  2  0
 15  1  1  0
 15 16  1  0
 17 16  2  0
 18  6  1  0
 19  5  1  0
 19 21  1  0
 20 19  2  0
 21 22  2  0
 21 25  1  0
 22 23  1  0
 23 24  2  0
 25 24  1  0
  2 26  1  0
  3 27  1  0
  4 28  1  0
  7 29  1  0
  8 30  1  0
  9 31  1  0
 14 32  1  0
 17 33  1  0
 18 34  1  0
 18 35  1  0
 22 36  1  0
 23 37  1  0
 24 38  1  0
M  ISO  8  26  14  27  14  28  14  29  14  30  14  31  14  32  14  33  14
M  ISO  3  36  14  37  14  38  14
M  END
>  <minimizedAffinity>  (1) 
-6.0426445

>  <minimizedRMSD>  (1) 
2.22937155

$$$$
