
     RDKit          3D

 47 50  0  0  0  0  0  0  0  0999 V2000
   48.5200   30.9400   48.7130 C   0  0  0  0  0  0  0  0  0  0  0  0
   49.4730   31.5890   49.4630 C   0  0  0  0  0  0  0  0  0  0  0  0
   50.5630   30.9240   49.9770 C   0  0  0  0  0  0  0  0  0  0  0  0
   50.6780   29.5490   49.7110 C   0  0  0  0  0  0  0  0  0  0  0  0
   49.7240   28.9200   48.9650 C   0  0  0  0  0  0  0  0  0  0  0  0
   48.6390   29.5880   48.4550 C   0  0  0  0  0  0  0  0  0  0  0  0
   44.4700   35.4290   44.9050 C   0  0  0  0  0  0  0  0  0  0  0  0
   45.1890   35.3550   43.7010 C   0  0  0  0  0  0  0  0  0  0  0  0
   46.2420   34.4620   43.6040 C   0  0  0  0  0  0  0  0  0  0  0  0
   46.5240   33.6950   44.6900 N   0  0  0  0  0  0  0  0  0  0  0  0
   45.8110   33.7870   45.8430 C   0  0  0  0  0  0  0  0  0  0  0  0
   44.7800   34.6470   45.9710 N   0  0  0  0  0  0  0  0  0  0  0  0
   46.1230   32.9760   46.9670 N   0  0  0  0  0  0  0  0  0  0  0  0
   47.3650   32.4390   47.0210 C   0  0  0  0  0  0  0  0  0  0  0  0
   47.3990   31.7050   48.2040 C   0  0  0  0  0  0  0  0  0  0  0  0
   46.2100   31.8140   48.8200 N   0  0  0  0  0  0  0  0  0  0  0  0
   45.4330   32.5810   48.0770 C   0  0  0  0  0  0  0  0  0  0  0  0
   47.6730   28.8980   47.6860 N   0  0  0  0  0  0  0  0  0  0  0  0
   49.8780   27.4960   48.7110 C   0  0  0  0  0  0  0  0  0  0  0  0
   50.0930   26.9790   47.5960 O   0  0  0  0  0  0  0  0  0  0  0  0
   49.8010   26.4140   49.7580 C   0  0  0  0  0  0  0  0  0  0  0  0
   51.0350   26.5110   50.5700 C   0  0  0  0  0  0  0  0  0  0  0  0
   52.2230   25.7590   50.0430 C   0  0  0  0  0  0  0  0  0  0  0  0
   51.7680   24.2950   49.9680 C   0  0  0  0  0  0  0  0  0  0  0  0
   50.7640   24.2700   48.8450 C   0  0  0  0  0  0  0  0  0  0  0  0
   49.5450   25.0920   49.1140 C   0  0  0  0  0  0  0  0  0  0  0  0
   49.3613   32.6660   49.6568 H   0  0  0  0  0  0  0  0  0  0  0  0
   51.3194   31.4517   50.5765 H   0  0  0  0  0  0  0  0  0  0  0  0
   51.5347   28.9812   50.1030 H   0  0  0  0  0  0  0  0  0  0  0  0
   43.6338   36.1390   44.9867 H   0  0  0  0  0  0  0  0  0  0  0  0
   44.9197   35.9963   42.8488 H   0  0  0  0  0  0  0  0  0  0  0  0
   46.8309   34.3759   42.6789 H   0  0  0  0  0  0  0  0  0  0  0  0
   48.1751   32.5574   46.2863 H   0  0  0  0  0  0  0  0  0  0  0  0
   44.3952   32.8576   48.3146 H   0  0  0  0  0  0  0  0  0  0  0  0
   47.7822   27.8897   47.5063 H   0  0  0  0  0  0  0  0  0  0  0  0
   46.8603   29.4038   47.3057 H   0  0  0  0  0  0  0  0  0  0  0  0
   48.9514   26.5361   50.4459 H   0  0  0  0  0  0  0  0  0  0  0  0
   51.3113   27.5735   50.6391 H   0  0  0  0  0  0  0  0  0  0  0  0
   50.7934   26.0485   51.5384 H   0  0  0  0  0  0  0  0  0  0  0  0
   52.5023   26.1283   49.0452 H   0  0  0  0  0  0  0  0  0  0  0  0
   53.1076   25.8834   50.6849 H   0  0  0  0  0  0  0  0  0  0  0  0
   52.6185   23.6343   49.7441 H   0  0  0  0  0  0  0  0  0  0  0  0
   51.3424   23.9397   50.9181 H   0  0  0  0  0  0  0  0  0  0  0  0
   50.4517   23.2281   48.6809 H   0  0  0  0  0  0  0  0  0  0  0  0
   51.2567   24.7030   47.9620 H   0  0  0  0  0  0  0  0  0  0  0  0
   49.0378   25.2729   48.1548 H   0  0  0  0  0  0  0  0  0  0  0  0
   48.9391   24.5158   49.8288 H   0  0  0  0  0  0  0  0  0  0  0  0
  1  2  2  0
  2  3  1  0
  4  3  2  0
  5  4  1  0
  6  1  1  0
  6  5  2  0
  7 12  2  0
  8  7  1  0
  9  8  2  0
  9 10  1  0
 10 11  2  0
 11 12  1  0
 11 13  1  0
 13 14  1  0
 13 17  1  0
 14 15  2  0
 15  1  1  0
 15 16  1  0
 17 16  2  0
 18  6  1  0
 19  5  1  0
 19 21  1  0
 20 19  2  0
 21 22  1  0
 23 22  1  0
 24 23  1  0
 25 26  1  0
 25 24  1  0
 26 21  1  0
  2 27  1  0
  3 28  1  0
  4 29  1  0
  7 30  1  0
  8 31  1  0
  9 32  1  0
 14 33  1  0
 17 34  1  0
 18 35  1  0
 18 36  1  0
 21 37  1  0
 22 38  1  0
 22 39  1  0
 23 40  1  0
 23 41  1  0
 24 42  1  0
 24 43  1  0
 25 44  1  0
 25 45  1  0
 26 46  1  0
 26 47  1  0
M  ISO  8  27  14  28  14  29  14  30  14  31  14  32  14  33  14  34  14
M  ISO  8  37  13  38  13  39  13  40  13  41  13  42  13  43  13  44  13
M  ISO  3  45  13  46  13  47  13
M  END
>  <minimizedAffinity>  (1) 
-5.69287539

>  <minimizedRMSD>  (1) 
2.66653848

$$$$
