
     RDKit          3D

 32 34  0  0  0  0  0  0  0  0999 V2000
   44.4450   35.8000   44.5750 C   0  0  0  0  0  0  0  0  0  0  0  0
   45.1820   35.7010   43.4070 C   0  0  0  0  0  0  0  0  0  0  0  0
   46.2010   34.7420   43.2980 C   0  0  0  0  0  0  0  0  0  0  0  0
   46.4140   33.9420   44.3770 N   0  0  0  0  0  0  0  0  0  0  0  0
   45.6800   34.0590   45.5030 C   0  0  0  0  0  0  0  0  0  0  0  0
   44.6950   34.9770   45.6230 N   0  0  0  0  0  0  0  0  0  0  0  0
   45.8960   33.2230   46.6470 N   0  0  0  0  0  0  0  0  0  0  0  0
   47.0990   32.6010   46.7080 C   0  0  0  0  0  0  0  0  0  0  0  0
   47.0800   31.8660   47.8720 C   0  0  0  0  0  0  0  0  0  0  0  0
   45.8880   32.0500   48.4880 N   0  0  0  0  0  0  0  0  0  0  0  0
   45.1730   32.8720   47.7440 C   0  0  0  0  0  0  0  0  0  0  0  0
   48.1470   31.0140   48.3980 C   0  0  0  0  0  0  0  0  0  0  0  0
   49.0960   31.5870   49.2220 C   0  0  0  0  0  0  0  0  0  0  0  0
   50.1130   30.8370   49.7390 C   0  0  0  0  0  0  0  0  0  0  0  0
   50.1750   29.4880   49.4220 C   0  0  0  0  0  0  0  0  0  0  0  0
   49.2310   28.9270   48.6040 C   0  0  0  0  0  0  0  0  0  0  0  0
   48.1980   29.6720   48.0740 C   0  0  0  0  0  0  0  0  0  0  0  0
   47.2300   29.0790   47.2300 N   0  0  0  0  0  0  0  0  0  0  0  0
   49.3120   27.5020   48.2790 C   0  0  0  0  0  0  0  0  0  0  0  0
   49.3210   26.5990   49.1320 O   0  0  0  0  0  0  0  0  0  0  0  0
   49.3880   27.0470   46.9490 O   0  0  0  0  0  0  0  0  0  0  0  0
   43.6483   36.5543   44.6534 H   0  0  0  0  0  0  0  0  0  0  0  0
   44.9687   36.3745   42.5638 H   0  0  0  0  0  0  0  0  0  0  0  0
   46.8004   34.6420   42.3811 H   0  0  0  0  0  0  0  0  0  0  0  0
   47.9198   32.6694   45.9789 H   0  0  0  0  0  0  0  0  0  0  0  0
   44.1546   33.2182   47.9742 H   0  0  0  0  0  0  0  0  0  0  0  0
   49.0317   32.6581   49.4641 H   0  0  0  0  0  0  0  0  0  0  0  0
   50.8690   31.2939   50.3946 H   0  0  0  0  0  0  0  0  0  0  0  0
   50.9859   28.8663   49.8294 H   0  0  0  0  0  0  0  0  0  0  0  0
   47.2896   28.0761   47.0031 H   0  0  0  0  0  0  0  0  0  0  0  0
   46.4655   29.6501   46.8424 H   0  0  0  0  0  0  0  0  0  0  0  0
   49.4418   26.0767   46.7601 H   0  0  0  0  0  0  0  0  0  0  0  0
  1  6  2  0
  2  1  1  0
  3  2  2  0
  3  4  1  0
  4  5  2  0
  5  6  1  0
  5  7  1  0
  7  8  1  0
  7 11  1  0
  8  9  2  0
  9 12  1  0
  9 10  1  0
 11 10  2  0
 12 13  2  0
 13 14  1  0
 15 14  2  0
 16 15  1  0
 17 12  1  0
 17 16  2  0
 18 17  1  0
 19 16  1  0
 19 20  2  0
 21 19  1  0
  1 22  1  0
  2 23  1  0
  3 24  1  0
  8 25  1  0
 11 26  1  0
 13 27  1  0
 14 28  1  0
 15 29  1  0
 18 30  1  0
 18 31  1  0
 21 32  1  0
M  ISO  8  22  14  23  14  24  14  25  14  26  14  27  14  28  14  29  14
M  ISO  1  32   3
M  END
>  <minimizedAffinity>  (1) 
-5.64838934

>  <minimizedRMSD>  (1) 
0.0557289533

$$$$
