
     RDKit          3D

 38 41  0  0  0  0  0  0  0  0999 V2000
   48.0860   31.0290   48.3630 C   0  0  0  0  0  0  0  0  0  0  0  0
   49.0210   31.5980   49.2180 C   0  0  0  0  0  0  0  0  0  0  0  0
   50.0400   30.8470   49.7520 C   0  0  0  0  0  0  0  0  0  0  0  0
   50.1140   29.4870   49.4110 C   0  0  0  0  0  0  0  0  0  0  0  0
   49.1830   28.9470   48.5660 C   0  0  0  0  0  0  0  0  0  0  0  0
   48.1620   29.6960   48.0310 C   0  0  0  0  0  0  0  0  0  0  0  0
   44.4400   35.8360   44.5230 C   0  0  0  0  0  0  0  0  0  0  0  0
   45.1780   35.7290   43.3520 C   0  0  0  0  0  0  0  0  0  0  0  0
   46.1890   34.7650   43.2540 C   0  0  0  0  0  0  0  0  0  0  0  0
   46.3950   33.9680   44.3330 N   0  0  0  0  0  0  0  0  0  0  0  0
   45.6540   34.0940   45.4730 C   0  0  0  0  0  0  0  0  0  0  0  0
   44.6780   35.0140   45.5850 N   0  0  0  0  0  0  0  0  0  0  0  0
   45.8750   33.2540   46.6040 N   0  0  0  0  0  0  0  0  0  0  0  0
   47.0740   32.6240   46.6670 C   0  0  0  0  0  0  0  0  0  0  0  0
   47.0370   31.8840   47.8370 C   0  0  0  0  0  0  0  0  0  0  0  0
   45.8480   32.0760   48.4450 N   0  0  0  0  0  0  0  0  0  0  0  0
   45.1430   32.9060   47.6980 C   0  0  0  0  0  0  0  0  0  0  0  0
   47.2180   29.1040   47.1610 N   0  0  0  0  0  0  0  0  0  0  0  0
   49.3010   27.5360   48.2430 C   0  0  0  0  0  0  0  0  0  0  0  0
   48.3750   26.7010   48.3370 O   0  0  0  0  0  0  0  0  0  0  0  0
   50.5820   27.0160   47.7660 C   0  0  0  0  0  0  0  0  0  0  0  0
   51.3650   26.0490   48.3630 C   0  0  0  0  0  0  0  0  0  0  0  0
   52.5030   25.8350   47.5990 C   0  0  0  0  0  0  0  0  0  0  0  0
   52.3370   26.7240   46.5350 C   0  0  0  0  0  0  0  0  0  0  0  0
   51.2200   27.3770   46.6790 O   0  0  0  0  0  0  0  0  0  0  0  0
   48.9445   32.6657   49.4713 H   0  0  0  0  0  0  0  0  0  0  0  0
   50.7790   31.2997   50.4294 H   0  0  0  0  0  0  0  0  0  0  0  0
   50.9175   28.8579   49.8216 H   0  0  0  0  0  0  0  0  0  0  0  0
   43.6493   36.5972   44.5956 H   0  0  0  0  0  0  0  0  0  0  0  0
   44.9695   36.3987   42.5046 H   0  0  0  0  0  0  0  0  0  0  0  0
   46.7915   34.6581   42.3399 H   0  0  0  0  0  0  0  0  0  0  0  0
   47.8999   32.6872   45.9432 H   0  0  0  0  0  0  0  0  0  0  0  0
   44.1262   33.2599   47.9237 H   0  0  0  0  0  0  0  0  0  0  0  0
   47.2918   28.1043   46.9244 H   0  0  0  0  0  0  0  0  0  0  0  0
   46.4564   29.6724   46.7637 H   0  0  0  0  0  0  0  0  0  0  0  0
   51.1237   25.5277   49.3011 H   0  0  0  0  0  0  0  0  0  0  0  0
   53.3322   25.1367   47.7855 H   0  0  0  0  0  0  0  0  0  0  0  0
   53.0431   26.8530   45.7014 H   0  0  0  0  0  0  0  0  0  0  0  0
  1  2  2  0
  2  3  1  0
  4  3  2  0
  5  4  1  0
  6  1  1  0
  6  5  2  0
  7 12  2  0
  8  7  1  0
  9  8  2  0
  9 10  1  0
 10 11  2  0
 11 12  1  0
 11 13  1  0
 13 14  1  0
 13 17  1  0
 14 15  2  0
 15  1  1  0
 15 16  1  0
 17 16  2  0
 18  6  1  0
 19 20  2  0
 19  5  1  0
 21 19  1  0
 21 22  2  0
 23 22  1  0
 24 25  1  0
 24 23  2  0
 25 21  1  0
  2 26  1  0
  3 27  1  0
  4 28  1  0
  7 29  1  0
  8 30  1  0
  9 31  1  0
 14 32  1  0
 17 33  1  0
 18 34  1  0
 18 35  1  0
 22 36  1  0
 23 37  1  0
 24 38  1  0
M  ISO  8  26  14  27  14  28  14  29  14  30  14  31  14  32  14  33  14
M  ISO  3  36  14  37  14  38  14
M  END
>  <minimizedAffinity>  (1) 
-5.47065163

>  <minimizedRMSD>  (1) 
1.31896079

$$$$
