
     RDKit          3D

 37 40  0  0  0  0  0  0  0  0999 V2000
   48.1500   30.9620   48.3800 C   0  0  0  0  0  0  0  0  0  0  0  0
   49.0560   31.5170   49.2640 C   0  0  0  0  0  0  0  0  0  0  0  0
   50.0830   30.7790   49.7840 C   0  0  0  0  0  0  0  0  0  0  0  0
   50.2010   29.4500   49.4020 C   0  0  0  0  0  0  0  0  0  0  0  0
   49.3040   28.8980   48.5270 C   0  0  0  0  0  0  0  0  0  0  0  0
   48.2700   29.6460   48.0060 C   0  0  0  0  0  0  0  0  0  0  0  0
   44.4600   35.7840   44.6090 C   0  0  0  0  0  0  0  0  0  0  0  0
   45.1880   35.7000   43.4330 C   0  0  0  0  0  0  0  0  0  0  0  0
   46.2010   34.7410   43.3190 C   0  0  0  0  0  0  0  0  0  0  0  0
   46.4250   33.9240   44.3810 N   0  0  0  0  0  0  0  0  0  0  0  0
   45.6890   34.0360   45.5180 C   0  0  0  0  0  0  0  0  0  0  0  0
   44.7060   34.9530   45.6560 N   0  0  0  0  0  0  0  0  0  0  0  0
   45.9200   33.1800   46.6420 N   0  0  0  0  0  0  0  0  0  0  0  0
   47.1140   32.5650   46.7080 C   0  0  0  0  0  0  0  0  0  0  0  0
   47.0850   31.8080   47.8700 C   0  0  0  0  0  0  0  0  0  0  0  0
   45.8980   31.9780   48.4690 N   0  0  0  0  0  0  0  0  0  0  0  0
   45.1810   32.8080   47.7330 C   0  0  0  0  0  0  0  0  0  0  0  0
   47.3450   29.0670   47.0980 N   0  0  0  0  0  0  0  0  0  0  0  0
   49.4360   27.4940   48.1230 C   0  0  0  0  0  0  0  0  0  0  0  0
   48.8640   26.5700   48.7470 O   0  0  0  0  0  0  0  0  0  0  0  0
   50.2670   27.1570   46.9440 C   0  0  0  0  0  0  0  0  0  0  0  0
   51.4670   26.3750   47.1490 C   0  0  0  0  0  0  0  0  0  0  0  0
   52.1230   26.2290   45.4460 S   0  0  0  0  0  0  0  0  0  0  0  0
   50.6800   27.2410   44.7330 C   0  0  0  0  0  0  0  0  0  0  0  0
   50.0440   27.4880   45.6970 N   0  0  0  0  0  0  0  0  0  0  0  0
   48.9488   32.5725   49.5548 H   0  0  0  0  0  0  0  0  0  0  0  0
   50.7987   31.2280   50.4884 H   0  0  0  0  0  0  0  0  0  0  0  0
   51.0202   28.8362   49.8047 H   0  0  0  0  0  0  0  0  0  0  0  0
   43.6656   36.5398   44.6971 H   0  0  0  0  0  0  0  0  0  0  0  0
   44.9717   36.3809   42.5966 H   0  0  0  0  0  0  0  0  0  0  0  0
   46.7969   34.6517   42.3987 H   0  0  0  0  0  0  0  0  0  0  0  0
   47.9426   32.6456   45.9890 H   0  0  0  0  0  0  0  0  0  0  0  0
   44.1586   33.1449   47.9593 H   0  0  0  0  0  0  0  0  0  0  0  0
   47.4428   28.0792   46.8231 H   0  0  0  0  0  0  0  0  0  0  0  0
   46.5761   29.6347   46.7141 H   0  0  0  0  0  0  0  0  0  0  0  0
   51.8788   25.9722   48.0861 H   0  0  0  0  0  0  0  0  0  0  0  0
   50.4866   27.5245   43.6879 H   0  0  0  0  0  0  0  0  0  0  0  0
  1  2  2  0
  2  3  1  0
  4  3  2  0
  5  4  1  0
  6  1  1  0
  6  5  2  0
  7 12  2  0
  8  7  1  0
  9  8  2  0
  9 10  1  0
 10 11  2  0
 11 12  1  0
 11 13  1  0
 13 14  1  0
 13 17  1  0
 14 15  2  0
 15  1  1  0
 15 16  1  0
 17 16  2  0
 18  6  1  0
 19  5  1  0
 19 20  2  0
 21 22  2  0
 21 19  1  0
 23 22  1  0
 24 23  1  0
 24 25  2  0
 25 21  1  0
  2 26  1  0
  3 27  1  0
  4 28  1  0
  7 29  1  0
  8 30  1  0
  9 31  1  0
 14 32  1  0
 17 33  1  0
 18 34  1  0
 18 35  1  0
 22 36  1  0
 24 37  1  0
M  ISO  8  26  14  27  14  28  14  29  14  30  14  31  14  32  14  33  14
M  ISO  2  36  14  37  14
M  END
>  <minimizedAffinity>  (1) 
-5.47889709

>  <minimizedRMSD>  (1) 
0.840730608

$$$$
