
     RDKit          3D

 29 31  0  0  1  0  0  0  0  0999 V2000
   46.2700   35.1330   42.2860 C   0  0  2  0  0  0  0  0  0  0  0  0
   45.1790   34.9680   44.5010 C   0  0  0  0  0  0  0  0  0  0  0  0
   46.1690   34.4860   43.5990 C   0  0  0  0  0  0  0  0  0  0  0  0
   47.0040   33.4200   44.0100 C   0  0  0  0  0  0  0  0  0  0  0  0
   46.8000   32.9300   45.2500 N   0  0  0  0  0  0  0  0  0  0  0  0
   45.8600   33.4080   46.0720 C   0  0  0  0  0  0  0  0  0  0  0  0
   45.0630   34.4080   45.7080 N   0  0  0  0  0  0  0  0  0  0  0  0
   45.4830   34.5530   41.2470 N   0  0  0  0  0  0  0  0  0  0  0  0
   45.9470   33.6600   40.3470 C   0  0  0  0  0  0  0  0  0  0  0  0
   44.9810   33.3070   39.5110 N   0  0  0  0  0  0  0  0  0  0  0  0
   43.8660   33.9710   39.8590 C   0  0  0  0  0  0  0  0  0  0  0  0
   42.6150   33.9320   39.2870 C   0  0  0  0  0  0  0  0  0  0  0  0
   41.6590   34.7220   39.8570 N   0  0  0  0  0  0  0  0  0  0  0  0
   41.9970   35.4880   40.9350 C   0  0  0  0  0  0  0  0  0  0  0  0
   43.2320   35.5310   41.5040 N   0  0  0  0  0  0  0  0  0  0  0  0
   44.1930   34.7620   40.9640 C   0  0  0  0  0  0  0  0  0  0  0  0
   42.3360   33.1100   38.1650 N   0  0  0  0  0  0  0  0  0  0  0  0
   47.7360   35.1850   41.9180 C   0  0  0  0  0  0  0  0  0  0  0  0
   45.8379   36.1401   42.3810 H   0  0  0  0  0  0  0  0  0  0  0  0
   44.5153   35.7944   44.2066 H   0  0  0  0  0  0  0  0  0  0  0  0
   47.7825   33.0104   43.3496 H   0  0  0  0  0  0  0  0  0  0  0  0
   45.7435   32.9640   47.0717 H   0  0  0  0  0  0  0  0  0  0  0  0
   46.9787   33.2799   40.3125 H   0  0  0  0  0  0  0  0  0  0  0  0
   41.2113   36.1183   41.3772 H   0  0  0  0  0  0  0  0  0  0  0  0
   43.0794   32.5250   37.7576 H   0  0  0  0  0  0  0  0  0  0  0  0
   41.3900   33.0982   37.7577 H   0  0  0  0  0  0  0  0  0  0  0  0
   48.3436   35.2066   42.8347 H   0  0  0  0  0  0  0  0  0  0  0  0
   47.9972   34.2956   41.3258 H   0  0  0  0  0  0  0  0  0  0  0  0
   47.9335   36.0907   41.3258 H   0  0  0  0  0  0  0  0  0  0  0  0
  1  3  1  0
  2  7  2  0
  3  4  2  0
  3  2  1  0
  4  5  1  0
  5  6  2  0
  7  6  1  0
  8  1  1  0
  9  8  1  0
 10 11  1  0
 10  9  2  0
 11 16  2  0
 12 13  2  0
 12 11  1  0
 13 14  1  0
 14 15  2  0
 16  8  1  0
 16 15  1  0
 17 12  1  0
 18  1  1  0
  1 19  1  1
  2 20  1  0
  4 21  1  0
  6 22  1  0
  9 23  1  0
 14 24  1  0
 17 25  1  0
 17 26  1  0
 18 27  1  0
 18 28  1  0
 18 29  1  0
M  ISO  8  19   8  20  14  21  14  22  14  23  14  24  14  27   8  28   8
M  ISO  1  29   8
M  END
>  <minimizedAffinity>  (1) 
-5.14914703

>  <minimizedRMSD>  (1) 
2.73489547

$$$$
