
     RDKit          3D

 32 33  0  0  1  0  0  0  0  0999 V2000
   45.9760   32.7240   45.4530 C   0  0  2  0  0  0  0  0  0  0  0  0
   44.8740   34.8980   45.2650 C   0  0  0  0  0  0  0  0  0  0  0  0
   45.7490   33.9480   44.7110 C   0  0  0  0  0  0  0  0  0  0  0  0
   46.3150   34.2510   43.4790 C   0  0  0  0  0  0  0  0  0  0  0  0
   46.0080   35.4190   42.8820 N   0  0  0  0  0  0  0  0  0  0  0  0
   45.1620   36.3150   43.4400 C   0  0  0  0  0  0  0  0  0  0  0  0
   44.5920   36.0590   44.6340 N   0  0  0  0  0  0  0  0  0  0  0  0
   46.2380   32.8320   46.9150 C   0  0  0  0  0  0  0  0  0  0  0  0
   45.0440   32.7080   47.7900 C   0  0  0  0  0  0  0  0  0  0  0  0
   44.9930   31.2730   48.3280 C   0  0  0  0  0  0  0  0  0  0  0  0
   46.0760   31.2340   49.3830 C   0  0  0  0  0  0  0  0  0  0  0  0
   47.3880   31.5070   48.7340 C   0  0  0  0  0  0  0  0  0  0  0  0
   47.3670   31.9110   47.3080 C   0  0  0  0  0  0  0  0  0  0  0  0
   47.1080   31.9620   44.8020 C   0  0  0  0  0  0  0  0  0  0  0  0
   45.0082   32.2034   45.4037 H   0  0  0  0  0  0  0  0  0  0  0  0
   44.4060   34.6908   46.2387 H   0  0  0  0  0  0  0  0  0  0  0  0
   47.0064   33.5448   42.9961 H   0  0  0  0  0  0  0  0  0  0  0  0
   44.9384   37.2565   42.9169 H   0  0  0  0  0  0  0  0  0  0  0  0
   46.5520   33.8709   47.0943 H   0  0  0  0  0  0  0  0  0  0  0  0
   45.1203   33.4174   48.6273 H   0  0  0  0  0  0  0  0  0  0  0  0
   44.1301   32.9338   47.2210 H   0  0  0  0  0  0  0  0  0  0  0  0
   44.0093   31.0569   48.7704 H   0  0  0  0  0  0  0  0  0  0  0  0
   45.1456   30.5215   47.5393 H   0  0  0  0  0  0  0  0  0  0  0  0
   45.8753   31.9992   50.1474 H   0  0  0  0  0  0  0  0  0  0  0  0
   46.0950   30.2443   49.8627 H   0  0  0  0  0  0  0  0  0  0  0  0
   47.8754   32.3147   49.2997 H   0  0  0  0  0  0  0  0  0  0  0  0
   47.9174   30.5429   48.7479 H   0  0  0  0  0  0  0  0  0  0  0  0
   47.2898   30.9992   46.6976 H   0  0  0  0  0  0  0  0  0  0  0  0
   48.2946   32.4776   47.1388 H   0  0  0  0  0  0  0  0  0  0  0  0
   47.7530   31.5278   45.5802 H   0  0  0  0  0  0  0  0  0  0  0  0
   46.6958   31.1568   44.1761 H   0  0  0  0  0  0  0  0  0  0  0  0
   47.6988   32.6469   44.1761 H   0  0  0  0  0  0  0  0  0  0  0  0
  1  8  1  0
  3  2  2  0
  3  1  1  0
  4  3  1  0
  5  6  1  0
  5  4  2  0
  6  7  2  0
  7  2  1  0
  8 13  1  0
  8  9  1  0
  9 10  1  0
 10 11  1  0
 12 11  1  0
 13 12  1  0
 14  1  1  0
  1 15  1  1
  2 16  1  0
  4 17  1  0
  6 18  1  0
  8 19  1  0
  9 20  1  0
  9 21  1  0
 10 22  1  0
 10 23  1  0
 11 24  1  0
 11 25  1  0
 12 26  1  0
 12 27  1  0
 13 28  1  0
 13 29  1  0
 14 30  1  0
 14 31  1  0
 14 32  1  0
M  ISO  8  15   8  16  14  17  14  18  14  19  13  20  13  21  13  22  13
M  ISO  8  23  13  24  13  25  13  26  13  27  13  28  13  29  13  30   8
M  ISO  2  31   8  32   8
M  END
>  <minimizedAffinity>  (1) 
-4.84728813

>  <minimizedRMSD>  (1) 
6.42197466

$$$$
