
     RDKit          3D

 31 32  0  0  1  0  0  0  0  0999 V2000
   46.6760   34.9520   41.7640 C   0  0  2  0  0  0  0  0  0  0  0  0
   45.0900   35.9770   43.3900 C   0  0  0  0  0  0  0  0  0  0  0  0
   46.0300   34.9610   43.0480 C   0  0  0  0  0  0  0  0  0  0  0  0
   46.2670   34.0270   44.0460 C   0  0  0  0  0  0  0  0  0  0  0  0
   45.6270   34.1180   45.2390 N   0  0  0  0  0  0  0  0  0  0  0  0
   44.7400   35.1090   45.5080 C   0  0  0  0  0  0  0  0  0  0  0  0
   44.4720   36.0440   44.5730 N   0  0  0  0  0  0  0  0  0  0  0  0
   46.3430   33.9060   40.9200 N   0  0  0  0  0  0  0  0  0  0  0  0
   45.1230   33.2330   40.9570 C   0  0  0  0  0  0  0  0  0  0  0  0
   44.3410   33.6790   39.7120 C   0  0  0  0  0  0  0  0  0  0  0  0
   45.0110   32.9850   38.5490 C   0  0  0  0  0  0  0  0  0  0  0  0
   46.4890   32.8280   38.7250 C   0  0  0  0  0  0  0  0  0  0  0  0
   47.1230   33.7360   39.7340 C   0  0  0  0  0  0  0  0  0  0  0  0
   48.2000   35.0640   42.0120 C   0  0  0  0  0  0  0  0  0  0  0  0
   46.2999   35.8163   41.1970 H   0  0  0  0  0  0  0  0  0  0  0  0
   44.8610   36.7477   42.6392 H   0  0  0  0  0  0  0  0  0  0  0  0
   46.9786   33.2071   43.8690 H   0  0  0  0  0  0  0  0  0  0  0  0
   44.2401   35.1500   46.4870 H   0  0  0  0  0  0  0  0  0  0  0  0
   45.2879   32.1457   40.9329 H   0  0  0  0  0  0  0  0  0  0  0  0
   44.5689   33.4641   41.8787 H   0  0  0  0  0  0  0  0  0  0  0  0
   43.2875   33.3720   39.7886 H   0  0  0  0  0  0  0  0  0  0  0  0
   44.3467   34.7727   39.5948 H   0  0  0  0  0  0  0  0  0  0  0  0
   44.8285   33.5746   37.6384 H   0  0  0  0  0  0  0  0  0  0  0  0
   44.5818   31.9745   38.4815 H   0  0  0  0  0  0  0  0  0  0  0  0
   46.6843   31.7905   39.0341 H   0  0  0  0  0  0  0  0  0  0  0  0
   46.9365   33.0966   37.7567 H   0  0  0  0  0  0  0  0  0  0  0  0
   48.0988   33.3143   40.0169 H   0  0  0  0  0  0  0  0  0  0  0  0
   47.2159   34.7262   39.2640 H   0  0  0  0  0  0  0  0  0  0  0  0
   48.3953   35.0784   43.0944 H   0  0  0  0  0  0  0  0  0  0  0  0
   48.7096   34.2009   41.5589 H   0  0  0  0  0  0  0  0  0  0  0  0
   48.5780   35.9923   41.5589 H   0  0  0  0  0  0  0  0  0  0  0  0
  1 14  1  0
  1  3  1  0
  2  7  2  0
  3  2  1  0
  3  4  2  0
  4  5  1  0
  5  6  2  0
  7  6  1  0
  8  9  1  0
  8  1  1  0
 10  9  1  0
 11 12  1  0
 11 10  1  0
 12 13  1  0
 13  8  1  0
  1 15  1  6
  2 16  1  0
  4 17  1  0
  6 18  1  0
  9 19  1  0
  9 20  1  0
 10 21  1  0
 10 22  1  0
 11 23  1  0
 11 24  1  0
 12 25  1  0
 12 26  1  0
 13 27  1  0
 13 28  1  0
 14 29  1  0
 14 30  1  0
 14 31  1  0
M  ISO  8  15   8  16  14  17  14  18  14  19  13  20  13  21  13  22  13
M  ISO  8  23  13  24  13  25  13  26  13  27  13  28  13  29   8  30   8
M  ISO  1  31   8
M  END
>  <minimizedAffinity>  (1) 
-4.03931332

>  <minimizedRMSD>  (1) 
0.899888158

$$$$
