
     RDKit          3D

 23 23  0  0  1  0  0  0  0  0999 V2000
   46.0910   35.2360   42.5120 C   0  0  2  0  0  0  0  0  0  0  0  0
   45.1460   34.8910   44.7660 C   0  0  0  0  0  0  0  0  0  0  0  0
   46.0890   34.5460   43.7610 C   0  0  0  0  0  0  0  0  0  0  0  0
   46.9560   33.5140   44.0570 C   0  0  0  0  0  0  0  0  0  0  0  0
   46.8580   32.8910   45.2750 N   0  0  0  0  0  0  0  0  0  0  0  0
   45.9370   33.2550   46.2030 C   0  0  0  0  0  0  0  0  0  0  0  0
   45.0730   34.2640   45.9490 N   0  0  0  0  0  0  0  0  0  0  0  0
   45.1950   34.4970   41.6160 N   0  0  0  0  0  0  0  0  0  0  0  0
   44.0420   35.1240   41.1280 C   0  0  0  0  0  0  0  0  0  0  0  0
   43.4470   36.0380   41.8120 N   0  0  0  0  0  0  0  0  0  0  0  0
   43.5120   34.7420   39.8420 N   0  0  0  0  0  0  0  0  0  0  0  0
   42.5980   36.4960   41.4450 H   0  0  0  0  0  0  0  0  0  0  0  0
   47.5200   35.1410   41.9270 C   0  0  0  0  0  0  0  0  0  0  0  0
   45.7795   36.2848   42.6257 H   0  0  0  0  0  0  0  0  0  0  0  0
   44.4421   35.7118   44.5640 H   0  0  0  0  0  0  0  0  0  0  0  0
   47.7146   33.1957   43.3268 H   0  0  0  0  0  0  0  0  0  0  0  0
   45.8930   32.7266   47.1668 H   0  0  0  0  0  0  0  0  0  0  0  0
   45.4119   33.5263   41.3484 H   0  0  0  0  0  0  0  0  0  0  0  0
   42.6642   35.1997   39.4778 H   0  0  0  0  0  0  0  0  0  0  0  0
   43.9814   34.0116   39.2879 H   0  0  0  0  0  0  0  0  0  0  0  0
   48.2500   35.0925   42.7484 H   0  0  0  0  0  0  0  0  0  0  0  0
   47.6035   34.2353   41.3083 H   0  0  0  0  0  0  0  0  0  0  0  0
   47.7226   36.0277   41.3083 H   0  0  0  0  0  0  0  0  0  0  0  0
  1  3  1  0
  2  7  2  0
  3  4  2  0
  3  2  1  0
  4  5  1  0
  5  6  2  0
  7  6  1  0
  8  1  1  0
  9  8  1  0
  9 10  2  0
 11  9  1  0
 12 10  1  0
 13  1  1  0
  1 14  1  1
  2 15  1  0
  4 16  1  0
  6 17  1  0
  8 18  1  0
 11 19  1  0
 11 20  1  0
 13 21  1  0
 13 22  1  0
 13 23  1  0
M  ISO  7  14   8  15  14  16  14  17  14  21   8  22   8  23   8
M  END
>  <minimizedAffinity>  (1) 
-4.08102322

>  <minimizedRMSD>  (1) 
1.98757088

$$$$
