
     RDKit          3D

 28 29  0  0  1  0  0  0  0  0999 V2000
   46.7900   34.9460   41.9050 C   0  0  2  0  0  0  0  0  0  0  0  0
   45.2210   35.9880   43.4680 C   0  0  0  0  0  0  0  0  0  0  0  0
   46.1100   34.9230   43.1760 C   0  0  0  0  0  0  0  0  0  0  0  0
   46.2430   33.9550   44.1600 C   0  0  0  0  0  0  0  0  0  0  0  0
   45.5390   34.0770   45.3060 N   0  0  0  0  0  0  0  0  0  0  0  0
   44.6970   35.1130   45.5460 C   0  0  0  0  0  0  0  0  0  0  0  0
   44.5350   36.0810   44.6180 N   0  0  0  0  0  0  0  0  0  0  0  0
   46.4800   33.9130   40.9760 N   0  0  0  0  0  0  0  0  0  0  0  0
   45.1680   33.9110   40.4240 C   0  0  0  0  0  0  0  0  0  0  0  0
   45.2810   32.8910   39.2930 C   0  0  0  0  0  0  0  0  0  0  0  0
   46.6690   33.1400   38.7470 C   0  0  0  0  0  0  0  0  0  0  0  0
   47.3380   33.9810   39.8170 C   0  0  0  0  0  0  0  0  0  0  0  0
   48.3080   34.9530   42.2110 C   0  0  0  0  0  0  0  0  0  0  0  0
   46.4345   35.8470   41.3836 H   0  0  0  0  0  0  0  0  0  0  0  0
   45.0866   36.7778   42.7143 H   0  0  0  0  0  0  0  0  0  0  0  0
   46.9146   33.0971   44.0088 H   0  0  0  0  0  0  0  0  0  0  0  0
   44.1460   35.1649   46.4966 H   0  0  0  0  0  0  0  0  0  0  0  0
   44.4242   33.5950   41.1703 H   0  0  0  0  0  0  0  0  0  0  0  0
   44.8355   34.9033   40.0852 H   0  0  0  0  0  0  0  0  0  0  0  0
   45.1852   31.8642   39.6757 H   0  0  0  0  0  0  0  0  0  0  0  0
   44.4916   32.9963   38.5342 H   0  0  0  0  0  0  0  0  0  0  0  0
   47.2077   32.1921   38.6009 H   0  0  0  0  0  0  0  0  0  0  0  0
   46.6554   33.6360   37.7653 H   0  0  0  0  0  0  0  0  0  0  0  0
   48.3327   33.5757   40.0544 H   0  0  0  0  0  0  0  0  0  0  0  0
   47.4784   35.0193   39.4820 H   0  0  0  0  0  0  0  0  0  0  0  0
   48.4625   34.9537   43.3001 H   0  0  0  0  0  0  0  0  0  0  0  0
   48.7740   34.0570   41.7751 H   0  0  0  0  0  0  0  0  0  0  0  0
   48.7658   35.8533   41.7751 H   0  0  0  0  0  0  0  0  0  0  0  0
  1 13  1  0
  1  3  1  0
  2  7  2  0
  3  2  1  0
  3  4  2  0
  4  5  1  0
  5  6  2  0
  7  6  1  0
  8  1  1  0
  9  8  1  0
 10  9  1  0
 11 10  1  0
 11 12  1  0
 12  8  1  0
  1 14  1  6
  2 15  1  0
  4 16  1  0
  6 17  1  0
  9 18  1  0
  9 19  1  0
 10 20  1  0
 10 21  1  0
 11 22  1  0
 11 23  1  0
 12 24  1  0
 12 25  1  0
 13 26  1  0
 13 27  1  0
 13 28  1  0
M  ISO  8  14   8  15  14  16  14  17  14  18  13  19  13  20  13  21  13
M  ISO  7  22  13  23  13  24  13  25  13  26   8  27   8  28   8
M  END
>  <minimizedAffinity>  (1) 
-3.98628974

>  <minimizedRMSD>  (1) 
1.18084431

$$$$
