
     RDKit          3D

 18 18  0  0  1  0  0  0  0  0999 V2000
   45.1770   35.2690   44.0680 C   0  0  0  0  0  0  0  0  0  0  0  0
   46.2280   34.6960   43.3450 C   0  0  0  0  0  0  0  0  0  0  0  0
   46.9310   33.6760   43.9610 C   0  0  0  0  0  0  0  0  0  0  0  0
   46.5790   33.2740   45.2240 N   0  0  0  0  0  0  0  0  0  0  0  0
   45.5500   33.8540   45.8950 C   0  0  0  0  0  0  0  0  0  0  0  0
   44.8490   34.8540   45.3160 N   0  0  0  0  0  0  0  0  0  0  0  0
   46.5600   35.1090   42.0180 C   0  0  1  0  0  0  0  0  0  0  0  0
   48.1050   35.1690   41.8930 C   0  0  0  0  0  0  0  0  0  0  0  0
   46.1790   34.0290   41.0840 N   0  0  0  0  0  0  0  0  0  0  0  0
   44.5974   36.0833   43.6088 H   0  0  0  0  0  0  0  0  0  0  0  0
   47.7687   33.1895   43.4399 H   0  0  0  0  0  0  0  0  0  0  0  0
   45.2881   33.5107   46.9067 H   0  0  0  0  0  0  0  0  0  0  0  0
   46.0653   36.0685   41.8067 H   0  0  0  0  0  0  0  0  0  0  0  0
   48.5537   35.1864   42.8972 H   0  0  0  0  0  0  0  0  0  0  0  0
   48.4633   34.2841   41.3466 H   0  0  0  0  0  0  0  0  0  0  0  0
   48.3936   36.0790   41.3466 H   0  0  0  0  0  0  0  0  0  0  0  0
   45.8863   33.1993   41.6196 H   0  0  0  0  0  0  0  0  0  0  0  0
   45.3995   34.3473   40.4907 H   0  0  0  0  0  0  0  0  0  0  0  0
  1  6  2  0
  2  3  2  0
  2  1  1  0
  3  4  1  0
  4  5  2  0
  6  5  1  0
  7  2  1  0
  8  7  1  0
  9  7  1  0
  1 10  1  0
  3 11  1  0
  5 12  1  0
  7 13  1  6
  8 14  1  0
  8 15  1  0
  8 16  1  0
  9 17  1  0
  9 18  1  0
M  ISO  8  10  14  11  14  12  14  13   8  14   8  15   8  16   8  17   5
M  ISO  1  18   5
M  END
>  <minimizedAffinity>  (1) 
-3.15475893

>  <minimizedRMSD>  (1) 
0.173921302

$$$$
