
     RDKit          3D

 37 40  0  0  1  0  0  0  0  0999 V2000
   46.0670   33.8170   40.8890 C   0  0  2  0  0  0  0  0  0  0  0  0
   46.1390   33.0290   38.5400 C   0  0  0  0  0  0  0  0  0  0  0  0
   46.6950   33.7170   39.6020 C   0  0  0  0  0  0  0  0  0  0  0  0
   47.9500   34.3500   39.3670 C   0  0  0  0  0  0  0  0  0  0  0  0
   48.5260   34.2490   38.1350 N   0  0  0  0  0  0  0  0  0  0  0  0
   47.9270   33.5650   37.1490 C   0  0  0  0  0  0  0  0  0  0  0  0
   46.7610   32.9680   37.3430 N   0  0  0  0  0  0  0  0  0  0  0  0
   44.5680   33.9270   40.8230 C   0  0  0  0  0  0  0  0  0  0  0  0
   43.7510   32.9680   41.4100 C   0  0  0  0  0  0  0  0  0  0  0  0
   42.4750   33.3990   41.1440 C   0  0  0  0  0  0  0  0  0  0  0  0
   42.5640   34.5870   40.4150 C   0  0  0  0  0  0  0  0  0  0  0  0
   43.8340   34.8460   40.2590 O   0  0  0  0  0  0  0  0  0  0  0  0
   46.6740   34.8970   41.7170 C   0  0  0  0  0  0  0  0  0  0  0  0
   45.8230   35.2860   42.8600 C   0  0  0  0  0  0  0  0  0  0  0  0
   44.9240   36.2590   43.2080 C   0  0  0  0  0  0  0  0  0  0  0  0
   44.4580   36.1100   44.4570 N   0  0  0  0  0  0  0  0  0  0  0  0
   45.0280   35.0230   45.0100 C   0  0  0  0  0  0  0  0  0  0  0  0
   44.9170   34.4070   46.2300 C   0  0  0  0  0  0  0  0  0  0  0  0
   45.6180   33.2720   46.5450 C   0  0  0  0  0  0  0  0  0  0  0  0
   46.4740   32.7160   45.6090 C   0  0  0  0  0  0  0  0  0  0  0  0
   46.5500   33.3710   44.4010 C   0  0  0  0  0  0  0  0  0  0  0  0
   45.8620   34.5170   44.0390 C   0  0  0  0  0  0  0  0  0  0  0  0
   46.2660   32.8604   41.3944 H   0  0  0  0  0  0  0  0  0  0  0  0
   45.1719   32.5218   38.6723 H   0  0  0  0  0  0  0  0  0  0  0  0
   48.4482   34.9134   40.1698 H   0  0  0  0  0  0  0  0  0  0  0  0
   48.4118   33.4989   36.1638 H   0  0  0  0  0  0  0  0  0  0  0  0
   44.0574   32.0676   41.9626 H   0  0  0  0  0  0  0  0  0  0  0  0
   41.5457   32.8969   41.4511 H   0  0  0  0  0  0  0  0  0  0  0  0
   41.7230   35.1904   40.0427 H   0  0  0  0  0  0  0  0  0  0  0  0
   47.6413   34.5429   42.1030 H   0  0  0  0  0  0  0  0  0  0  0  0
   46.7916   35.7819   41.0742 H   0  0  0  0  0  0  0  0  0  0  0  0
   44.6174   37.0742   42.5361 H   0  0  0  0  0  0  0  0  0  0  0  0
   43.7746   36.7274   44.9183 H   0  0  0  0  0  0  0  0  0  0  0  0
   44.2413   34.8391   46.9828 H   0  0  0  0  0  0  0  0  0  0  0  0
   45.5014   32.8059   47.5345 H   0  0  0  0  0  0  0  0  0  0  0  0
   47.0571   31.8070   45.8182 H   0  0  0  0  0  0  0  0  0  0  0  0
   47.2254   32.9408   43.6469 H   0  0  0  0  0  0  0  0  0  0  0  0
  1 13  1  0
  2  3  2  0
  3  1  1  0
  4  3  1  0
  5  4  2  0
  6  7  2  0
  6  5  1  0
  7  2  1  0
  8  1  1  0
  8  9  2  0
 10  9  1  0
 11 10  2  0
 12 11  1  0
 12  8  1  0
 13 14  1  0
 14 15  2  0
 14 22  1  0
 15 16  1  0
 16 17  1  0
 17 18  2  0
 18 19  1  0
 20 19  2  0
 21 20  1  0
 22 21  2  0
 22 17  1  0
  1 23  1  1
  2 24  1  0
  4 25  1  0
  6 26  1  0
  9 27  1  0
 10 28  1  0
 11 29  1  0
 13 30  1  0
 13 31  1  0
 15 32  1  0
 16 33  1  0
 18 34  1  0
 19 35  1  0
 20 36  1  0
 21 37  1  0
M  ISO  8  23   8  24  14  25  14  26  14  27  14  28  14  29  14  30   8
M  ISO  7  31   8  32  14  33   9  34  14  35  14  36  14  37  14
M  END
>  <minimizedAffinity>  (1) 
-5.53504992

>  <minimizedRMSD>  (1) 
5.48442554

$$$$
