
     RDKit          3D

 33 35  0  0  1  0  0  0  0  0999 V2000
   47.3240   34.1240   40.0310 C   0  0  2  0  0  0  0  0  0  0  0  0
   48.3430   34.4310   37.8100 C   0  0  0  0  0  0  0  0  0  0  0  0
   47.7280   33.6240   38.7500 C   0  0  0  0  0  0  0  0  0  0  0  0
   47.5100   32.2720   38.3930 C   0  0  0  0  0  0  0  0  0  0  0  0
   47.9050   31.8300   37.1690 N   0  0  0  0  0  0  0  0  0  0  0  0
   48.4980   32.6690   36.2970 C   0  0  0  0  0  0  0  0  0  0  0  0
   48.7160   33.9550   36.6140 N   0  0  0  0  0  0  0  0  0  0  0  0
   48.4540   34.2900   41.0080 C   0  0  0  0  0  0  0  0  0  0  0  0
   48.7370   35.5170   41.5860 C   0  0  0  0  0  0  0  0  0  0  0  0
   49.8050   35.2760   42.3950 C   0  0  0  0  0  0  0  0  0  0  0  0
   50.1410   33.9130   42.2870 C   0  0  0  0  0  0  0  0  0  0  0  0
   49.3040   33.3800   41.4480 O   0  0  0  0  0  0  0  0  0  0  0  0
   46.2150   33.3060   40.6170 C   0  0  0  0  0  0  0  0  0  0  0  0
   44.9020   33.9660   40.6770 C   0  0  0  0  0  0  0  0  0  0  0  0
   43.7840   33.8770   39.8990 C   0  0  0  0  0  0  0  0  0  0  0  0
   42.6550   34.6280   40.1430 C   0  0  0  0  0  0  0  0  0  0  0  0
   42.5830   35.5170   41.1920 C   0  0  0  0  0  0  0  0  0  0  0  0
   43.6970   35.6290   41.9980 C   0  0  0  0  0  0  0  0  0  0  0  0
   44.8200   34.8730   41.7420 C   0  0  0  0  0  0  0  0  0  0  0  0
   46.9449   35.1388   39.8401 H   0  0  0  0  0  0  0  0  0  0  0  0
   48.5303   35.4881   38.0497 H   0  0  0  0  0  0  0  0  0  0  0  0
   47.0246   31.5836   39.1004 H   0  0  0  0  0  0  0  0  0  0  0  0
   48.8081   32.2943   35.3104 H   0  0  0  0  0  0  0  0  0  0  0  0
   48.2153   36.4723   41.4268 H   0  0  0  0  0  0  0  0  0  0  0  0
   50.3173   36.0183   43.0247 H   0  0  0  0  0  0  0  0  0  0  0  0
   50.9575   33.3970   42.8133 H   0  0  0  0  0  0  0  0  0  0  0  0
   46.1086   32.3953   40.0093 H   0  0  0  0  0  0  0  0  0  0  0  0
   46.5027   33.1128   41.6610 H   0  0  0  0  0  0  0  0  0  0  0  0
   43.7844   33.1811   39.0471 H   0  0  0  0  0  0  0  0  0  0  0  0
   41.7849   34.5140   39.4798 H   0  0  0  0  0  0  0  0  0  0  0  0
   41.6769   36.1119   41.3792 H   0  0  0  0  0  0  0  0  0  0  0  0
   43.6886   36.3254   42.8494 H   0  0  0  0  0  0  0  0  0  0  0  0
   45.6915   34.9865   42.4035 H   0  0  0  0  0  0  0  0  0  0  0  0
  1 13  1  0
  1  8  1  0
  2  3  2  0
  3  1  1  0
  4  3  1  0
  5  4  2  0
  6  7  2  0
  6  5  1  0
  7  2  1  0
  8 12  1  0
  8  9  2  0
  9 10  1  0
 11 10  2  0
 12 11  1  0
 13 14  1  0
 14 19  2  0
 15 16  2  0
 15 14  1  0
 16 17  1  0
 17 18  2  0
 19 18  1  0
  1 20  1  6
  2 21  1  0
  4 22  1  0
  6 23  1  0
  9 24  1  0
 10 25  1  0
 11 26  1  0
 13 27  1  0
 13 28  1  0
 15 29  1  0
 16 30  1  0
 17 31  1  0
 18 32  1  0
 19 33  1  0
M  ISO  8  20   8  21  14  22  14  23  14  24  14  25  14  26  14  27   8
M  ISO  6  28   8  29  14  30  14  31  14  32  14  33  14
M  END
>  <minimizedAffinity>  (1) 
-5.12413406

>  <minimizedRMSD>  (1) 
6.23063087

$$$$
