
     RDKit          3D

 31 33  0  0  1  0  0  0  0  0999 V2000
   46.9720   33.2720   44.5120 C   0  0  2  0  0  0  0  0  0  0  0  0
   45.9320   31.1600   45.2610 C   0  0  0  0  0  0  0  0  0  0  0  0
   46.5870   32.3490   45.5430 C   0  0  0  0  0  0  0  0  0  0  0  0
   46.8470   32.6180   46.9170 C   0  0  0  0  0  0  0  0  0  0  0  0
   46.4530   31.7230   47.8560 N   0  0  0  0  0  0  0  0  0  0  0  0
   45.8200   30.5870   47.5070 C   0  0  0  0  0  0  0  0  0  0  0  0
   45.5660   30.3120   46.2400 N   0  0  0  0  0  0  0  0  0  0  0  0
   45.9770   34.3810   44.3030 C   0  0  0  0  0  0  0  0  0  0  0  0
   45.8960   35.0700   43.1070 C   0  0  0  0  0  0  0  0  0  0  0  0
   44.8870   35.9930   43.3040 C   0  0  0  0  0  0  0  0  0  0  0  0
   44.3950   35.8290   44.6090 C   0  0  0  0  0  0  0  0  0  0  0  0
   45.0820   34.8600   45.1490 O   0  0  0  0  0  0  0  0  0  0  0  0
   47.2210   32.5580   43.2200 C   0  0  0  0  0  0  0  0  0  0  0  0
   48.5820   32.4940   42.7370 C   0  0  0  0  0  0  0  0  0  0  0  0
   49.3580   31.4810   42.2270 C   0  0  0  0  0  0  0  0  0  0  0  0
   50.6550   31.6130   41.8150 C   0  0  0  0  0  0  0  0  0  0  0  0
   51.2080   32.8560   41.9270 N   0  0  0  0  0  0  0  0  0  0  0  0
   50.4750   33.8870   42.4260 C   0  0  0  0  0  0  0  0  0  0  0  0
   49.1830   33.7220   42.8290 N   0  0  0  0  0  0  0  0  0  0  0  0
   47.9050   33.7396   44.8595 H   0  0  0  0  0  0  0  0  0  0  0  0
   45.7067   30.9043   44.2151 H   0  0  0  0  0  0  0  0  0  0  0  0
   47.3627   33.5432   47.2137 H   0  0  0  0  0  0  0  0  0  0  0  0
   45.5098   29.8775   48.2883 H   0  0  0  0  0  0  0  0  0  0  0  0
   46.5003   34.9173   42.2006 H   0  0  0  0  0  0  0  0  0  0  0  0
   44.5311   36.7281   42.5671 H   0  0  0  0  0  0  0  0  0  0  0  0
   43.5873   36.4054   45.0838 H   0  0  0  0  0  0  0  0  0  0  0  0
   46.8676   31.5236   43.3433 H   0  0  0  0  0  0  0  0  0  0  0  0
   46.6871   33.1551   42.4660 H   0  0  0  0  0  0  0  0  0  0  0  0
   48.8992   30.4847   42.1436 H   0  0  0  0  0  0  0  0  0  0  0  0
   51.2237   30.7612   41.4138 H   0  0  0  0  0  0  0  0  0  0  0  0
   50.9374   34.8818   42.5068 H   0  0  0  0  0  0  0  0  0  0  0  0
  1  3  1  0
  2  3  2  0
  2  7  1  0
  3  4  1  0
  4  5  2  0
  6  5  1  0
  7  6  2  0
  8  1  1  0
  8 12  1  0
  9 10  1  0
  9  8  2  0
 10 11  2  0
 11 12  1  0
 13  1  1  0
 14 19  1  0
 14 13  1  0
 15 14  2  0
 16 17  2  0
 16 15  1  0
 17 18  1  0
 18 19  2  0
  1 20  1  1
  2 21  1  0
  4 22  1  0
  6 23  1  0
  9 24  1  0
 10 25  1  0
 11 26  1  0
 13 27  1  0
 13 28  1  0
 15 29  1  0
 16 30  1  0
 18 31  1  0
M  ISO  8  20   8  21  14  22  14  23  14  24  14  25  14  26  14  27   8
M  ISO  4  28   8  29  14  30  14  31  14
M  END
>  <minimizedAffinity>  (1) 
-4.75522184

>  <minimizedRMSD>  (1) 
4.63891315

$$$$
