
     RDKit          3D

 33 35  0  0  1  0  0  0  0  0999 V2000
   47.3280   34.1350   40.0290 C   0  0  2  0  0  0  0  0  0  0  0  0
   48.3410   34.4290   37.8120 C   0  0  0  0  0  0  0  0  0  0  0  0
   47.7300   33.6210   38.7540 C   0  0  0  0  0  0  0  0  0  0  0  0
   47.5140   32.2820   38.3990 C   0  0  0  0  0  0  0  0  0  0  0  0
   47.8980   31.8310   37.1780 N   0  0  0  0  0  0  0  0  0  0  0  0
   48.4890   32.6660   36.2990 C   0  0  0  0  0  0  0  0  0  0  0  0
   48.7100   33.9510   36.6130 N   0  0  0  0  0  0  0  0  0  0  0  0
   48.4570   34.2940   41.0090 C   0  0  0  0  0  0  0  0  0  0  0  0
   48.7450   35.5260   41.5940 C   0  0  0  0  0  0  0  0  0  0  0  0
   49.8110   35.2700   42.4030 C   0  0  0  0  0  0  0  0  0  0  0  0
   50.1410   33.9040   42.2910 C   0  0  0  0  0  0  0  0  0  0  0  0
   49.3010   33.3760   41.4470 O   0  0  0  0  0  0  0  0  0  0  0  0
   46.2170   33.3280   40.6230 C   0  0  0  0  0  0  0  0  0  0  0  0
   44.9160   33.9660   40.6720 C   0  0  0  0  0  0  0  0  0  0  0  0
   43.7860   33.8890   39.9030 C   0  0  0  0  0  0  0  0  0  0  0  0
   42.6470   34.6260   40.1350 C   0  0  0  0  0  0  0  0  0  0  0  0
   42.5860   35.5100   41.1890 C   0  0  0  0  0  0  0  0  0  0  0  0
   43.6960   35.6270   41.9950 C   0  0  0  0  0  0  0  0  0  0  0  0
   44.8370   34.8670   41.7370 C   0  0  0  0  0  0  0  0  0  0  0  0
   46.9576   35.1506   39.8257 H   0  0  0  0  0  0  0  0  0  0  0  0
   48.5286   35.4863   38.0506 H   0  0  0  0  0  0  0  0  0  0  0  0
   47.0325   31.5959   39.1113 H   0  0  0  0  0  0  0  0  0  0  0  0
   48.7937   32.2882   35.3119 H   0  0  0  0  0  0  0  0  0  0  0  0
   48.2297   36.4852   41.4382 H   0  0  0  0  0  0  0  0  0  0  0  0
   50.3274   36.0057   43.0371 H   0  0  0  0  0  0  0  0  0  0  0  0
   50.9543   33.3825   42.8170 H   0  0  0  0  0  0  0  0  0  0  0  0
   46.1168   32.4073   40.0295 H   0  0  0  0  0  0  0  0  0  0  0  0
   46.5027   33.1624   41.6723 H   0  0  0  0  0  0  0  0  0  0  0  0
   43.7885   33.1965   39.0483 H   0  0  0  0  0  0  0  0  0  0  0  0
   41.7772   34.5077   39.4721 H   0  0  0  0  0  0  0  0  0  0  0  0
   41.6799   36.1034   41.3808 H   0  0  0  0  0  0  0  0  0  0  0  0
   43.6831   36.3232   42.8466 H   0  0  0  0  0  0  0  0  0  0  0  0
   45.7088   34.9816   42.3980 H   0  0  0  0  0  0  0  0  0  0  0  0
  1 13  1  0
  1  8  1  0
  2  3  2  0
  3  1  1  0
  4  3  1  0
  5  4  2  0
  6  7  2  0
  6  5  1  0
  7  2  1  0
  8 12  1  0
  8  9  2  0
  9 10  1  0
 11 10  2  0
 12 11  1  0
 13 14  1  0
 14 19  2  0
 15 16  2  0
 15 14  1  0
 16 17  1  0
 17 18  2  0
 19 18  1  0
  1 20  1  6
  2 21  1  0
  4 22  1  0
  6 23  1  0
  9 24  1  0
 10 25  1  0
 11 26  1  0
 13 27  1  0
 13 28  1  0
 15 29  1  0
 16 30  1  0
 17 31  1  0
 18 32  1  0
 19 33  1  0
M  ISO  8  20   8  21  14  22  14  23  14  24  14  25  14  26  14  27   8
M  ISO  6  28   8  29  14  30  14  31  14  32  14  33  14
M  END
>  <minimizedAffinity>  (1) 
-5.13470125

>  <minimizedRMSD>  (1) 
6.23165369

$$$$
