
     RDKit          3D

 30 32  0  0  1  0  0  0  0  0999 V2000
   45.3840   35.0950   41.3730 C   0  0  2  0  0  0  0  0  0  0  0  0
   42.9910   35.3810   41.9000 C   0  0  0  0  0  0  0  0  0  0  0  0
   44.0040   34.7410   41.2030 C   0  0  0  0  0  0  0  0  0  0  0  0
   43.6040   33.7020   40.3190 C   0  0  0  0  0  0  0  0  0  0  0  0
   42.2890   33.4000   40.2050 N   0  0  0  0  0  0  0  0  0  0  0  0
   41.3580   34.0660   40.9130 C   0  0  0  0  0  0  0  0  0  0  0  0
   41.7000   35.0340   41.7420 N   0  0  0  0  0  0  0  0  0  0  0  0
   46.3370   33.9950   41.0060 C   0  0  0  0  0  0  0  0  0  0  0  0
   47.5460   34.2620   40.3870 C   0  0  0  0  0  0  0  0  0  0  0  0
   48.1210   33.0170   40.2150 C   0  0  0  0  0  0  0  0  0  0  0  0
   47.2510   32.0600   40.7300 C   0  0  0  0  0  0  0  0  0  0  0  0
   46.2030   32.6930   41.1900 O   0  0  0  0  0  0  0  0  0  0  0  0
   45.6380   35.5990   42.7650 C   0  0  0  0  0  0  0  0  0  0  0  0
   46.1130   34.4650   43.6180 C   0  0  0  0  0  0  0  0  0  0  0  0
   45.2700   33.6330   44.3290 C   0  0  0  0  0  0  0  0  0  0  0  0
   46.0040   32.6760   45.0240 C   0  0  0  0  0  0  0  0  0  0  0  0
   47.2920   32.9800   44.6930 N   0  0  0  0  0  0  0  0  0  0  0  0
   47.3640   34.0340   43.8640 N   0  0  0  0  0  0  0  0  0  0  0  0
   45.5834   35.9090   40.6605 H   0  0  0  0  0  0  0  0  0  0  0  0
   43.2480   36.1911   42.5983 H   0  0  0  0  0  0  0  0  0  0  0  0
   44.3543   33.1496   39.7342 H   0  0  0  0  0  0  0  0  0  0  0  0
   40.2969   33.7996   40.7989 H   0  0  0  0  0  0  0  0  0  0  0  0
   47.9555   35.2412   40.0981 H   0  0  0  0  0  0  0  0  0  0  0  0
   49.0980   32.8168   39.7510 H   0  0  0  0  0  0  0  0  0  0  0  0
   47.4147   30.9724   40.7469 H   0  0  0  0  0  0  0  0  0  0  0  0
   46.4062   36.3858   42.7373 H   0  0  0  0  0  0  0  0  0  0  0  0
   44.7093   36.0137   43.1839 H   0  0  0  0  0  0  0  0  0  0  0  0
   44.1732   33.7152   44.3438 H   0  0  0  0  0  0  0  0  0  0  0  0
   45.6360   31.8724   45.6789 H   0  0  0  0  0  0  0  0  0  0  0  0
   48.1126   32.4621   45.0383 H   0  0  0  0  0  0  0  0  0  0  0  0
  1 13  1  0
  3  1  1  0
  3  2  2  0
  4  3  1  0
  5  4  2  0
  5  6  1  0
  6  7  2  0
  7  2  1  0
  8 12  1  0
  8  1  1  0
  9  8  2  0
 10  9  1  0
 10 11  2  0
 11 12  1  0
 13 14  1  0
 14 18  2  0
 14 15  1  0
 15 16  2  0
 17 16  1  0
 18 17  1  0
  1 19  1  6
  2 20  1  0
  4 21  1  0
  6 22  1  0
  9 23  1  0
 10 24  1  0
 11 25  1  0
 13 26  1  0
 13 27  1  0
 15 28  1  0
 16 29  1  0
 17 30  1  0
M  ISO  8  19   8  20  14  21  14  22  14  23  14  24  14  25  14  26   8
M  ISO  4  27   8  28  14  29  14  30   9
M  END
>  <minimizedAffinity>  (1) 
-4.0562067

>  <minimizedRMSD>  (1) 
3.97377896

$$$$
