
     RDKit          3D

 29 31  0  0  1  0  0  0  0  0999 V2000
   44.9920   34.0400   42.2460 C   0  0  2  0  0  0  0  0  0  0  0  0
   42.8490   33.0670   41.5020 C   0  0  0  0  0  0  0  0  0  0  0  0
   43.6870   34.1600   41.6610 C   0  0  0  0  0  0  0  0  0  0  0  0
   43.1870   35.4030   41.1980 C   0  0  0  0  0  0  0  0  0  0  0  0
   41.9530   35.4610   40.6410 N   0  0  0  0  0  0  0  0  0  0  0  0
   41.1950   34.3550   40.5220 C   0  0  0  0  0  0  0  0  0  0  0  0
   41.6370   33.1670   40.9480 N   0  0  0  0  0  0  0  0  0  0  0  0
   45.0090   34.2870   43.7270 C   0  0  0  0  0  0  0  0  0  0  0  0
   45.6210   33.4020   44.5980 C   0  0  0  0  0  0  0  0  0  0  0  0
   45.4250   33.9610   45.8460 C   0  0  0  0  0  0  0  0  0  0  0  0
   44.7060   35.1550   45.6820 C   0  0  0  0  0  0  0  0  0  0  0  0
   44.4920   35.2910   44.3990 O   0  0  0  0  0  0  0  0  0  0  0  0
   45.9760   34.9290   41.5400 C   0  0  0  0  0  0  0  0  0  0  0  0
   46.6910   34.2080   40.4970 N   0  0  0  0  0  0  0  0  0  0  0  0
   48.0030   34.3540   40.2330 C   0  0  0  0  0  0  0  0  0  0  0  0
   48.3920   33.5510   39.2050 N   0  0  0  0  0  0  0  0  0  0  0  0
   47.2640   32.9100   38.8530 C   0  0  0  0  0  0  0  0  0  0  0  0
   46.2270   33.3000   39.6300 N   0  0  0  0  0  0  0  0  0  0  0  0
   45.2954   32.9914   42.1102 H   0  0  0  0  0  0  0  0  0  0  0  0
   43.1947   32.0806   41.8447 H   0  0  0  0  0  0  0  0  0  0  0  0
   43.7964   36.3141   41.2902 H   0  0  0  0  0  0  0  0  0  0  0  0
   40.1962   34.4296   40.0672 H   0  0  0  0  0  0  0  0  0  0  0  0
   46.1444   32.4663   44.3522 H   0  0  0  0  0  0  0  0  0  0  0  0
   45.7722   33.5428   46.8023 H   0  0  0  0  0  0  0  0  0  0  0  0
   44.3848   35.8429   46.4780 H   0  0  0  0  0  0  0  0  0  0  0  0
   45.4347   35.7719   41.0855 H   0  0  0  0  0  0  0  0  0  0  0  0
   46.7092   35.2876   42.2774 H   0  0  0  0  0  0  0  0  0  0  0  0
   48.6741   35.0344   40.7777 H   0  0  0  0  0  0  0  0  0  0  0  0
   47.1935   32.1689   38.0432 H   0  0  0  0  0  0  0  0  0  0  0  0
  1  8  1  0
  2  3  2  0
  3  1  1  0
  4  3  1  0
  5  4  2  0
  6  5  1  0
  6  7  2  0
  7  2  1  0
  8 12  1  0
  8  9  2  0
  9 10  1  0
 11 10  2  0
 12 11  1  0
 13  1  1  0
 14 13  1  0
 15 14  1  0
 16 15  2  0
 17 16  1  0
 17 18  2  0
 18 14  1  0
  1 19  1  1
  2 20  1  0
  4 21  1  0
  6 22  1  0
  9 23  1  0
 10 24  1  0
 11 25  1  0
 13 26  1  0
 13 27  1  0
 15 28  1  0
 17 29  1  0
M  ISO  8  19   8  20  14  21  14  22  14  23  14  24  14  25  14  26   8
M  ISO  3  27   8  28  14  29  14
M  END
>  <minimizedAffinity>  (1) 
-4.16325855

>  <minimizedRMSD>  (1) 
5.51098204

$$$$
