
     RDKit          3D

 34 37  0  0  1  0  0  0  0  0999 V2000
   44.3360   33.3580   38.9310 C   0  0  2  0  0  0  0  0  0  0  0  0
   42.8280   35.2350   38.4310 C   0  0  0  0  0  0  0  0  0  0  0  0
   43.0510   33.8810   38.5730 C   0  0  0  0  0  0  0  0  0  0  0  0
   41.9450   33.0090   38.3520 C   0  0  0  0  0  0  0  0  0  0  0  0
   40.7430   33.5420   38.0170 N   0  0  0  0  0  0  0  0  0  0  0  0
   40.5900   34.8750   37.8940 C   0  0  0  0  0  0  0  0  0  0  0  0
   41.6180   35.7110   38.0980 N   0  0  0  0  0  0  0  0  0  0  0  0
   45.0690   32.7090   37.7960 C   0  0  0  0  0  0  0  0  0  0  0  0
   45.5460   31.4060   37.8730 C   0  0  0  0  0  0  0  0  0  0  0  0
   46.1450   31.1770   36.6690 C   0  0  0  0  0  0  0  0  0  0  0  0
   46.0120   32.3470   35.8990 C   0  0  0  0  0  0  0  0  0  0  0  0
   45.3700   33.2170   36.6130 O   0  0  0  0  0  0  0  0  0  0  0  0
   44.2570   32.4490   40.1130 C   0  0  0  0  0  0  0  0  0  0  0  0
   44.9710   32.8480   41.2720 N   0  0  0  0  0  0  0  0  0  0  0  0
   44.4390   32.5360   42.4960 C   0  0  0  0  0  0  0  0  0  0  0  0
   45.2150   32.9380   43.5220 N   0  0  0  0  0  0  0  0  0  0  0  0
   46.3110   33.5420   42.9940 C   0  0  0  0  0  0  0  0  0  0  0  0
   47.4480   34.1610   43.4540 C   0  0  0  0  0  0  0  0  0  0  0  0
   48.3640   34.6850   42.6180 N   0  0  0  0  0  0  0  0  0  0  0  0
   48.1290   34.5840   41.2970 C   0  0  0  0  0  0  0  0  0  0  0  0
   47.0300   33.9840   40.8470 N   0  0  0  0  0  0  0  0  0  0  0  0
   46.0920   33.4480   41.6410 C   0  0  0  0  0  0  0  0  0  0  0  0
   44.9347   34.2373   39.2110 H   0  0  0  0  0  0  0  0  0  0  0  0
   43.6580   35.9382   38.5939 H   0  0  0  0  0  0  0  0  0  0  0  0
   42.0643   31.9200   38.4516 H   0  0  0  0  0  0  0  0  0  0  0  0
   39.6058   35.2839   37.6218 H   0  0  0  0  0  0  0  0  0  0  0  0
   45.4594   30.7104   38.7207 H   0  0  0  0  0  0  0  0  0  0  0  0
   46.6418   30.2465   36.3568 H   0  0  0  0  0  0  0  0  0  0  0  0
   46.3857   32.4963   34.8753 H   0  0  0  0  0  0  0  0  0  0  0  0
   43.1968   32.3545   40.3906 H   0  0  0  0  0  0  0  0  0  0  0  0
   44.7322   31.5113   39.7890 H   0  0  0  0  0  0  0  0  0  0  0  0
   43.4803   32.0129   42.6271 H   0  0  0  0  0  0  0  0  0  0  0  0
   47.6151   34.2306   44.5390 H   0  0  0  0  0  0  0  0  0  0  0  0
   48.8529   35.0017   40.5818 H   0  0  0  0  0  0  0  0  0  0  0  0
  1 13  1  0
  2  3  2  0
  3  1  1  0
  4  3  1  0
  5  4  2  0
  6  5  1  0
  6  7  2  0
  7  2  1  0
  8  9  2  0
  8  1  1  0
 10  9  1  0
 11 12  1  0
 11 10  2  0
 12  8  1  0
 13 14  1  0
 14 22  1  0
 14 15  1  0
 15 16  2  0
 17 18  2  0
 17 16  1  0
 19 18  1  0
 20 19  2  0
 21 20  1  0
 21 22  2  0
 22 17  1  0
  1 23  1  1
  2 24  1  0
  4 25  1  0
  6 26  1  0
  9 27  1  0
 10 28  1  0
 11 29  1  0
 13 30  1  0
 13 31  1  0
 15 32  1  0
 18 33  1  0
 20 34  1  0
M  ISO  8  23   8  24  14  25  14  26  14  27  14  28  14  29  14  30   8
M  ISO  4  31   8  32  14  33  14  34  14
M  END
>  <minimizedAffinity>  (1) 
-3.93178368

>  <minimizedRMSD>  (1) 
5.83244324

$$$$
