
     RDKit          3D

 30 32  0  0  1  0  0  0  0  0999 V2000
   46.5550   34.2460   40.7390 C   0  0  2  0  0  0  0  0  0  0  0  0
   48.5390   35.4310   41.5870 C   0  0  0  0  0  0  0  0  0  0  0  0
   47.8500   34.2510   41.3580 C   0  0  0  0  0  0  0  0  0  0  0  0
   48.4790   33.0550   41.7550 C   0  0  0  0  0  0  0  0  0  0  0  0
   49.7070   33.1010   42.3340 N   0  0  0  0  0  0  0  0  0  0  0  0
   50.3280   34.2800   42.5310 C   0  0  0  0  0  0  0  0  0  0  0  0
   49.7560   35.4220   42.1650 N   0  0  0  0  0  0  0  0  0  0  0  0
   45.4550   34.7570   41.6270 C   0  0  0  0  0  0  0  0  0  0  0  0
   44.1660   34.9400   41.1290 C   0  0  0  0  0  0  0  0  0  0  0  0
   43.4670   35.4120   42.2260 C   0  0  0  0  0  0  0  0  0  0  0  0
   44.3450   35.4930   43.3180 C   0  0  0  0  0  0  0  0  0  0  0  0
   45.5110   35.0910   42.9000 O   0  0  0  0  0  0  0  0  0  0  0  0
   46.2320   32.9060   40.1610 C   0  0  0  0  0  0  0  0  0  0  0  0
   46.3670   32.9160   38.7280 N   0  0  0  0  0  0  0  0  0  0  0  0
   45.2670   33.0670   37.9890 N   0  0  0  0  0  0  0  0  0  0  0  0
   45.5270   33.0470   36.6910 C   0  0  0  0  0  0  0  0  0  0  0  0
   46.8710   32.8720   36.5430 C   0  0  0  0  0  0  0  0  0  0  0  0
   47.3420   32.7970   37.8240 C   0  0  0  0  0  0  0  0  0  0  0  0
   46.6145   34.9672   39.9106 H   0  0  0  0  0  0  0  0  0  0  0  0
   48.0858   36.3891   41.2926 H   0  0  0  0  0  0  0  0  0  0  0  0
   47.9783   32.0884   41.5970 H   0  0  0  0  0  0  0  0  0  0  0  0
   51.3222   34.2976   43.0013 H   0  0  0  0  0  0  0  0  0  0  0  0
   43.7944   34.7542   40.1105 H   0  0  0  0  0  0  0  0  0  0  0  0
   42.4001   35.6794   42.2399 H   0  0  0  0  0  0  0  0  0  0  0  0
   44.0955   35.8318   44.3343 H   0  0  0  0  0  0  0  0  0  0  0  0
   46.9196   32.1576   40.5818 H   0  0  0  0  0  0  0  0  0  0  0  0
   45.1905   32.6575   40.4131 H   0  0  0  0  0  0  0  0  0  0  0  0
   44.7921   33.1524   35.8793 H   0  0  0  0  0  0  0  0  0  0  0  0
   47.4450   32.8062   35.6069 H   0  0  0  0  0  0  0  0  0  0  0  0
   48.4022   32.6550   38.0804 H   0  0  0  0  0  0  0  0  0  0  0  0
  1  3  1  0
  1  8  1  0
  2  7  2  0
  3  2  1  0
  3  4  2  0
  4  5  1  0
  5  6  2  0
  7  6  1  0
  8 12  1  0
  9  8  2  0
  9 10  1  0
 10 11  2  0
 12 11  1  0
 13  1  1  0
 14 13  1  0
 15 14  1  0
 16 15  2  0
 17 16  1  0
 17 18  2  0
 18 14  1  0
  1 19  1  6
  2 20  1  0
  4 21  1  0
  6 22  1  0
  9 23  1  0
 10 24  1  0
 11 25  1  0
 13 26  1  0
 13 27  1  0
 16 28  1  0
 17 29  1  0
 18 30  1  0
M  ISO  8  19   8  20  14  21  14  22  14  23  14  24  14  25  14  26   8
M  ISO  4  27   8  28  14  29  14  30  14
M  END
>  <minimizedAffinity>  (1) 
-4.22014952

>  <minimizedRMSD>  (1) 
5.58531141

$$$$
