
     RDKit          3D

 44 48  0  0  1  0  0  0  0  0999 V2000
   44.6970   32.9180   40.3230 C   0  0  0  0  0  0  0  0  0  0  0  0
   45.5450   32.9500   39.1690 N   0  0  0  0  0  0  0  0  0  0  0  0
   45.0180   33.2050   37.9680 N   0  0  0  0  0  0  0  0  0  0  0  0
   45.9150   33.2270   37.0030 C   0  0  0  0  0  0  0  0  0  0  0  0
   47.1320   32.9730   37.5760 C   0  0  0  0  0  0  0  0  0  0  0  0
   46.8390   32.8100   38.9190 C   0  0  0  0  0  0  0  0  0  0  0  0
   47.9080   32.5750   39.8760 C   0  0  0  0  0  0  0  0  0  0  0  0
   48.3150   31.2690   39.9760 N   0  0  0  0  0  0  0  0  0  0  0  0
   49.2620   30.8750   40.8170 C   0  0  0  0  0  0  0  0  0  0  0  0
   49.9100   31.7260   41.6530 N   0  0  0  0  0  0  0  0  0  0  0  0
   49.5400   33.0330   41.5930 C   0  0  0  0  0  0  0  0  0  0  0  0
   50.1090   33.9850   42.4110 C   0  0  0  0  0  0  0  0  0  0  0  0
   49.7120   35.3260   42.3720 C   0  0  0  0  0  0  0  0  0  0  0  0
   48.7060   35.7030   41.4740 C   0  0  0  0  0  0  0  0  0  0  0  0
   48.1700   34.7160   40.6780 C   0  0  0  0  0  0  0  0  0  0  0  0
   48.5570   33.4170   40.7140 C   0  0  0  0  0  0  0  0  0  0  0  0
   44.3230   34.2800   40.7750 C   0  0  2  0  0  0  0  0  0  0  0  0
   44.9210   33.5350   43.0390 C   0  0  0  0  0  0  0  0  0  0  0  0
   44.6000   34.5250   42.1420 C   0  0  0  0  0  0  0  0  0  0  0  0
   44.5340   35.8210   42.6600 C   0  0  0  0  0  0  0  0  0  0  0  0
   44.7730   36.0740   43.9710 N   0  0  0  0  0  0  0  0  0  0  0  0
   45.0840   35.0370   44.7970 C   0  0  0  0  0  0  0  0  0  0  0  0
   45.1550   33.8050   44.3360 N   0  0  0  0  0  0  0  0  0  0  0  0
   42.8970   34.6300   40.3810 C   0  0  0  0  0  0  0  0  0  0  0  0
   41.8120   34.1170   41.1030 C   0  0  0  0  0  0  0  0  0  0  0  0
   40.7210   34.6580   40.4380 C   0  0  0  0  0  0  0  0  0  0  0  0
   41.1870   35.4550   39.3690 C   0  0  0  0  0  0  0  0  0  0  0  0
   42.4890   35.3990   39.3850 O   0  0  0  0  0  0  0  0  0  0  0  0
   45.2273   32.4059   41.1394 H   0  0  0  0  0  0  0  0  0  0  0  0
   43.7741   32.3844   40.0520 H   0  0  0  0  0  0  0  0  0  0  0  0
   45.7220   33.4144   35.9364 H   0  0  0  0  0  0  0  0  0  0  0  0
   48.1139   32.9125   37.0839 H   0  0  0  0  0  0  0  0  0  0  0  0
   49.5349   29.8096   40.8380 H   0  0  0  0  0  0  0  0  0  0  0  0
   50.8981   33.6818   43.1149 H   0  0  0  0  0  0  0  0  0  0  0  0
   50.1808   36.0693   43.0336 H   0  0  0  0  0  0  0  0  0  0  0  0
   48.3584   36.7445   41.4074 H   0  0  0  0  0  0  0  0  0  0  0  0
   47.3784   34.9988   39.9685 H   0  0  0  0  0  0  0  0  0  0  0  0
   44.9833   34.9740   40.2344 H   0  0  0  0  0  0  0  0  0  0  0  0
   44.9884   32.4948   42.6876 H   0  0  0  0  0  0  0  0  0  0  0  0
   44.2824   36.6555   41.9890 H   0  0  0  0  0  0  0  0  0  0  0  0
   45.2783   35.2304   45.8623 H   0  0  0  0  0  0  0  0  0  0  0  0
   41.8222   33.4514   41.9787 H   0  0  0  0  0  0  0  0  0  0  0  0
   39.6656   34.4931   40.7004 H   0  0  0  0  0  0  0  0  0  0  0  0
   40.5667   36.0179   38.6560 H   0  0  0  0  0  0  0  0  0  0  0  0
  1 17  1  0
  2  1  1  0
  3  2  1  0
  4  5  1  0
  4  3  2  0
  5  6  2  0
  6  2  1  0
  6  7  1  0
  7  8  2  0
  7 16  1  0
  8  9  1  0
  9 10  2  0
 11 10  1  0
 11 12  2  0
 13 12  1  0
 14 13  2  0
 15 16  2  0
 15 14  1  0
 16 11  1  0
 17 19  1  0
 18 23  2  0
 19 20  2  0
 19 18  1  0
 20 21  1  0
 21 22  2  0
 23 22  1  0
 24 17  1  0
 24 25  2  0
 26 25  1  0
 27 28  1  0
 27 26  2  0
 28 24  1  0
  1 29  1  0
  1 30  1  0
  4 31  1  0
  5 32  1  0
  9 33  1  0
 12 34  1  0
 13 35  1  0
 14 36  1  0
 15 37  1  0
 17 38  1  6
 18 39  1  0
 20 40  1  0
 22 41  1  0
 25 42  1  0
 26 43  1  0
 27 44  1  0
M  ISO  8  29   8  30   8  31  14  32  14  33  14  34  14  35  14  36  14
M  ISO  8  37  14  38   8  39  14  40  14  41  14  42  14  43  14  44  14
M  END
>  <minimizedAffinity>  (1) 
-6.50352144

>  <minimizedRMSD>  (1) 
3.68171072

$$$$
