
     RDKit          3D

 44 48  0  0  1  0  0  0  0  0999 V2000
   46.1230   34.0060   40.2240 C   0  0  0  0  0  0  0  0  0  0  0  0
   45.4030   33.2510   39.2260 N   0  0  0  0  0  0  0  0  0  0  0  0
   45.9420   33.1000   38.0410 N   0  0  0  0  0  0  0  0  0  0  0  0
   45.1620   32.4510   37.2100 C   0  0  0  0  0  0  0  0  0  0  0  0
   44.0380   32.1530   37.8880 C   0  0  0  0  0  0  0  0  0  0  0  0
   44.1960   32.6580   39.1550 C   0  0  0  0  0  0  0  0  0  0  0  0
   43.1390   32.5910   40.0990 C   0  0  0  0  0  0  0  0  0  0  0  0
   42.6100   32.2490   41.2910 C   0  0  0  0  0  0  0  0  0  0  0  0
   41.6170   32.8020   41.9730 N   0  0  0  0  0  0  0  0  0  0  0  0
   41.2910   33.7860   41.1310 C   0  0  0  0  0  0  0  0  0  0  0  0
   40.3170   34.7270   41.3200 C   0  0  0  0  0  0  0  0  0  0  0  0
   40.1210   35.6990   40.3810 C   0  0  0  0  0  0  0  0  0  0  0  0
   40.9140   35.7280   39.2370 C   0  0  0  0  0  0  0  0  0  0  0  0
   41.8480   34.7410   39.1580 C   0  0  0  0  0  0  0  0  0  0  0  0
   42.1660   33.6770   40.0350 C   0  0  0  0  0  0  0  0  0  0  0  0
   47.0940   33.1760   40.9450 C   0  0  2  0  0  0  0  0  0  0  0  0
   46.4580   30.9410   41.7420 C   0  0  0  0  0  0  0  0  0  0  0  0
   46.4890   32.3200   41.9040 C   0  0  0  0  0  0  0  0  0  0  0  0
   45.8610   32.8560   43.0400 C   0  0  0  0  0  0  0  0  0  0  0  0
   45.2500   32.0400   43.9340 N   0  0  0  0  0  0  0  0  0  0  0  0
   45.2500   30.6920   43.7240 C   0  0  0  0  0  0  0  0  0  0  0  0
   45.8440   30.1520   42.6490 N   0  0  0  0  0  0  0  0  0  0  0  0
   48.2520   33.9800   41.5100 C   0  0  0  0  0  0  0  0  0  0  0  0
   48.3420   35.3500   41.2990 C   0  0  0  0  0  0  0  0  0  0  0  0
   49.5120   35.6960   41.9570 C   0  0  0  0  0  0  0  0  0  0  0  0
   50.0630   34.5390   42.5250 C   0  0  0  0  0  0  0  0  0  0  0  0
   49.2700   33.5500   42.2270 O   0  0  0  0  0  0  0  0  0  0  0  0
   45.4026   34.4182   40.9459 H   0  0  0  0  0  0  0  0  0  0  0  0
   46.6750   34.8076   39.7114 H   0  0  0  0  0  0  0  0  0  0  0  0
   45.3834   32.1991   36.1624 H   0  0  0  0  0  0  0  0  0  0  0  0
   43.1626   31.6102   37.5019 H   0  0  0  0  0  0  0  0  0  0  0  0
   43.0745   31.3756   41.7722 H   0  0  0  0  0  0  0  0  0  0  0  0
   41.2143   32.5471   42.8861 H   0  0  0  0  0  0  0  0  0  0  0  0
   39.6932   34.7011   42.2257 H   0  0  0  0  0  0  0  0  0  0  0  0
   39.3381   36.4576   40.5282 H   0  0  0  0  0  0  0  0  0  0  0  0
   40.7946   36.4921   38.4548 H   0  0  0  0  0  0  0  0  0  0  0  0
   42.4667   34.7769   38.2492 H   0  0  0  0  0  0  0  0  0  0  0  0
   47.5355   32.5074   40.1913 H   0  0  0  0  0  0  0  0  0  0  0  0
   46.9397   30.4862   40.8639 H   0  0  0  0  0  0  0  0  0  0  0  0
   45.8648   33.9435   43.2054 H   0  0  0  0  0  0  0  0  0  0  0  0
   44.7524   30.0339   44.4515 H   0  0  0  0  0  0  0  0  0  0  0  0
   47.6518   36.0025   40.7440 H   0  0  0  0  0  0  0  0  0  0  0  0
   49.9368   36.7086   42.0224 H   0  0  0  0  0  0  0  0  0  0  0  0
   50.9911   34.4779   43.1123 H   0  0  0  0  0  0  0  0  0  0  0  0
  1 16  1  0
  2  1  1  0
  3  2  1  0
  4  5  1  0
  4  3  2  0
  5  6  2  0
  6  2  1  0
  6  7  1  0
  7  8  2  0
  8  9  1  0
 10 11  2  0
 10  9  1  0
 12 11  1  0
 13 12  2  0
 14 13  1  0
 14 15  2  0
 15  7  1  0
 15 10  1  0
 16 23  1  0
 16 18  1  0
 17 18  2  0
 17 22  1  0
 18 19  1  0
 19 20  2  0
 21 20  1  0
 22 21  2  0
 23 27  1  0
 24 23  2  0
 24 25  1  0
 25 26  2  0
 27 26  1  0
  1 28  1  0
  1 29  1  0
  4 30  1  0
  5 31  1  0
  8 32  1  0
  9 33  1  0
 11 34  1  0
 12 35  1  0
 13 36  1  0
 14 37  1  0
 16 38  1  6
 17 39  1  0
 19 40  1  0
 21 41  1  0
 24 42  1  0
 25 43  1  0
 26 44  1  0
M  ISO  8  28   8  29   8  30  14  31  14  32  14  33   9  34  14  35  14
M  ISO  8  36  14  37  14  38   8  39  14  40  14  41  14  42  14  43  14
M  ISO  1  44  14
M  END
>  <minimizedAffinity>  (1) 
-5.50708437

>  <minimizedRMSD>  (1) 
6.17866755

$$$$
