
     RDKit          3D

 44 47  0  0  1  0  0  0  0  0999 V2000
   46.5140   34.0920   41.9200 C   0  0  2  0  0  0  0  0  0  0  0  0
   48.7530   35.0570   42.2620 C   0  0  0  0  0  0  0  0  0  0  0  0
   47.9130   33.9780   42.1210 C   0  0  0  0  0  0  0  0  0  0  0  0
   48.5200   32.7210   42.1570 C   0  0  0  0  0  0  0  0  0  0  0  0
   49.8600   32.5880   42.3220 N   0  0  0  0  0  0  0  0  0  0  0  0
   50.6270   33.7050   42.4560 C   0  0  0  0  0  0  0  0  0  0  0  0
   50.0760   34.9100   42.4250 N   0  0  0  0  0  0  0  0  0  0  0  0
   45.7860   34.6670   43.1270 C   0  0  0  0  0  0  0  0  0  0  0  0
   45.1830   35.9330   43.0530 C   0  0  0  0  0  0  0  0  0  0  0  0
   44.6450   36.0850   44.3220 C   0  0  0  0  0  0  0  0  0  0  0  0
   44.9400   34.9390   45.0790 C   0  0  0  0  0  0  0  0  0  0  0  0
   45.6220   34.1250   44.3210 O   0  0  0  0  0  0  0  0  0  0  0  0
   45.8740   32.8670   41.4150 C   0  0  0  0  0  0  0  0  0  0  0  0
   45.3880   33.0340   40.0710 N   0  0  0  0  0  0  0  0  0  0  0  0
   44.0890   33.2050   39.8540 N   0  0  0  0  0  0  0  0  0  0  0  0
   43.7990   33.3280   38.5730 C   0  0  0  0  0  0  0  0  0  0  0  0
   44.9690   33.2350   37.8790 C   0  0  0  0  0  0  0  0  0  0  0  0
   45.9240   33.0530   38.8630 C   0  0  0  0  0  0  0  0  0  0  0  0
   47.3320   32.9000   38.6690 N   0  0  0  0  0  0  0  0  0  0  0  0
   48.1980   31.7220   38.4950 C   0  0  0  0  0  0  0  0  0  0  0  0
   49.0900   32.0980   37.3070 C   0  0  0  0  0  0  0  0  0  0  0  0
   48.4800   33.1150   36.4780 N   0  0  0  0  0  0  0  0  0  0  0  0
   48.3440   34.3950   37.1420 C   0  0  0  0  0  0  0  0  0  0  0  0
   48.1110   34.1390   38.6210 C   0  0  0  0  0  0  0  0  0  0  0  0
   46.4131   34.8270   41.1078 H   0  0  0  0  0  0  0  0  0  0  0  0
   48.3274   36.0711   42.2405 H   0  0  0  0  0  0  0  0  0  0  0  0
   47.8986   31.8197   42.0493 H   0  0  0  0  0  0  0  0  0  0  0  0
   51.7142   33.6064   42.5913 H   0  0  0  0  0  0  0  0  0  0  0  0
   45.1466   36.6292   42.2022 H   0  0  0  0  0  0  0  0  0  0  0  0
   44.0800   36.9593   44.6775 H   0  0  0  0  0  0  0  0  0  0  0  0
   44.6481   34.7599   46.1243 H   0  0  0  0  0  0  0  0  0  0  0  0
   46.6095   32.0492   41.4288 H   0  0  0  0  0  0  0  0  0  0  0  0
   45.0156   32.6371   42.0633 H   0  0  0  0  0  0  0  0  0  0  0  0
   42.7974   33.4780   38.1436 H   0  0  0  0  0  0  0  0  0  0  0  0
   45.1185   33.2915   36.7907 H   0  0  0  0  0  0  0  0  0  0  0  0
   48.8014   31.5423   39.3970 H   0  0  0  0  0  0  0  0  0  0  0  0
   47.6287   30.7964   38.3240 H   0  0  0  0  0  0  0  0  0  0  0  0
   50.0495   32.4776   37.6882 H   0  0  0  0  0  0  0  0  0  0  0  0
   49.2373   31.1982   36.6917 H   0  0  0  0  0  0  0  0  0  0  0  0
   47.5428   32.7905   36.2001 H   0  0  0  0  0  0  0  0  0  0  0  0
   49.2627   34.9846   37.0062 H   0  0  0  0  0  0  0  0  0  0  0  0
   47.4999   34.9569   36.7156 H   0  0  0  0  0  0  0  0  0  0  0  0
   49.0685   34.0152   39.1482 H   0  0  0  0  0  0  0  0  0  0  0  0
   47.5902   34.9756   39.1098 H   0  0  0  0  0  0  0  0  0  0  0  0
  1  3  1  0
  1  8  1  0
  2  7  2  0
  3  4  2  0
  3  2  1  0
  4  5  1  0
  5  6  2  0
  7  6  1  0
  8 12  1  0
  9  8  2  0
  9 10  1  0
 10 11  2  0
 12 11  1  0
 13  1  1  0
 14 13  1  0
 15 14  1  0
 16 15  2  0
 17 16  1  0
 17 18  2  0
 18 14  1  0
 19 18  1  0
 20 19  1  0
 21 20  1  0
 22 23  1  0
 22 21  1  0
 23 24  1  0
 24 19  1  0
  1 25  1  6
  2 26  1  0
  4 27  1  0
  6 28  1  0
  9 29  1  0
 10 30  1  0
 11 31  1  0
 13 32  1  0
 13 33  1  0
 16 34  1  0
 17 35  1  0
 20 36  1  0
 20 37  1  0
 21 38  1  0
 21 39  1  0
 22 40  1  0
 23 41  1  0
 23 42  1  0
 24 43  1  0
 24 44  1  0
M  ISO  8  25   8  26  14  27  14  28  14  29  14  30  14  31  14  32   8
M  ISO  8  33   8  34  14  35  14  36  13  37  13  38  13  39  13  40   5
M  ISO  4  41  13  42  13  43  13  44  13
M  END
>  <minimizedAffinity>  (1) 
-5.13335943

>  <minimizedRMSD>  (1) 
2.00832844

$$$$
