
     RDKit          3D

 37 40  0  0  1  0  0  0  0  0999 V2000
   46.7150   34.1520   40.5410 C   0  0  2  0  0  0  0  0  0  0  0  0
   48.5990   35.5050   41.3610 C   0  0  0  0  0  0  0  0  0  0  0  0
   47.9090   34.2940   41.2950 C   0  0  0  0  0  0  0  0  0  0  0  0
   48.4580   33.1950   41.9710 C   0  0  0  0  0  0  0  0  0  0  0  0
   49.6240   33.3330   42.6540 N   0  0  0  0  0  0  0  0  0  0  0  0
   50.2570   34.5420   42.6840 C   0  0  0  0  0  0  0  0  0  0  0  0
   49.7480   35.6100   42.0470 N   0  0  0  0  0  0  0  0  0  0  0  0
   45.4740   34.6040   41.2910 C   0  0  0  0  0  0  0  0  0  0  0  0
   44.2130   34.5230   40.7120 C   0  0  0  0  0  0  0  0  0  0  0  0
   43.3820   35.0210   41.6910 C   0  0  0  0  0  0  0  0  0  0  0  0
   44.1580   35.3770   42.8020 C   0  0  0  0  0  0  0  0  0  0  0  0
   45.3970   35.1070   42.5060 O   0  0  0  0  0  0  0  0  0  0  0  0
   46.5770   32.8170   39.9400 C   0  0  0  0  0  0  0  0  0  0  0  0
   46.9070   32.7970   38.5480 N   0  0  0  0  0  0  0  0  0  0  0  0
   45.9620   33.0500   37.6370 N   0  0  0  0  0  0  0  0  0  0  0  0
   46.4140   32.9300   36.4170 C   0  0  0  0  0  0  0  0  0  0  0  0
   47.7260   32.5770   36.5130 C   0  0  0  0  0  0  0  0  0  0  0  0
   47.9920   32.5080   37.8670 C   0  0  0  0  0  0  0  0  0  0  0  0
   49.3270   32.0780   38.2060 C   0  0  0  0  0  0  0  0  0  0  0  0
   49.9610   31.4560   39.2460 C   0  0  0  0  0  0  0  0  0  0  0  0
   51.2750   31.3440   39.1380 N   0  0  0  0  0  0  0  0  0  0  0  0
   51.5850   31.9160   37.9630 C   0  0  0  0  0  0  0  0  0  0  0  0
   50.4220   32.3370   37.4430 N   0  0  0  0  0  0  0  0  0  0  0  0
   46.8104   34.8508   39.6968 H   0  0  0  0  0  0  0  0  0  0  0  0
   48.1951   36.3873   40.8429 H   0  0  0  0  0  0  0  0  0  0  0  0
   47.9450   32.2222   41.9482 H   0  0  0  0  0  0  0  0  0  0  0  0
   51.2008   34.6438   43.2397 H   0  0  0  0  0  0  0  0  0  0  0  0
   43.9436   34.1508   39.7126 H   0  0  0  0  0  0  0  0  0  0  0  0
   42.2894   35.1225   41.6135 H   0  0  0  0  0  0  0  0  0  0  0  0
   43.7899   35.8042   43.7465 H   0  0  0  0  0  0  0  0  0  0  0  0
   47.2460   32.1227   40.4695 H   0  0  0  0  0  0  0  0  0  0  0  0
   45.5220   32.5199   40.0338 H   0  0  0  0  0  0  0  0  0  0  0  0
   45.8437   33.0846   35.4892 H   0  0  0  0  0  0  0  0  0  0  0  0
   48.4264   32.3869   35.6864 H   0  0  0  0  0  0  0  0  0  0  0  0
   49.4122   31.0724   40.1187 H   0  0  0  0  0  0  0  0  0  0  0  0
   52.5860   32.0182   37.5186 H   0  0  0  0  0  0  0  0  0  0  0  0
   50.3633   32.8196   36.5350 H   0  0  0  0  0  0  0  0  0  0  0  0
  1  8  1  0
  1  3  1  0
  2  7  2  0
  3  2  1  0
  3  4  2  0
  4  5  1  0
  5  6  2  0
  7  6  1  0
  8 12  1  0
  9  8  2  0
  9 10  1  0
 10 11  2  0
 12 11  1  0
 13  1  1  0
 14 13  1  0
 15 14  1  0
 16 17  1  0
 16 15  2  0
 17 18  2  0
 18 19  1  0
 18 14  1  0
 19 20  2  0
 21 20  1  0
 22 21  2  0
 23 22  1  0
 23 19  1  0
  1 24  1  6
  2 25  1  0
  4 26  1  0
  6 27  1  0
  9 28  1  0
 10 29  1  0
 11 30  1  0
 13 31  1  0
 13 32  1  0
 16 33  1  0
 17 34  1  0
 20 35  1  0
 22 36  1  0
 23 37  1  0
M  ISO  8  24   8  25  14  26  14  27  14  28  14  29  14  30  14  31   8
M  ISO  6  32   8  33  14  34  14  35  14  36  14  37   9
M  END
>  <minimizedAffinity>  (1) 
-4.78553534

>  <minimizedRMSD>  (1) 
0.657579422

$$$$
