
     RDKit          3D

 45 48  0  0  1  0  0  0  0  0999 V2000
   46.5090   34.2310   40.7940 C   0  0  2  0  0  0  0  0  0  0  0  0
   48.5280   35.4740   41.4340 C   0  0  0  0  0  0  0  0  0  0  0  0
   47.7730   34.3270   41.4320 C   0  0  0  0  0  0  0  0  0  0  0  0
   48.3260   33.2210   42.0750 C   0  0  0  0  0  0  0  0  0  0  0  0
   49.5440   33.2830   42.6640 N   0  0  0  0  0  0  0  0  0  0  0  0
   50.2400   34.4530   42.6290 C   0  0  0  0  0  0  0  0  0  0  0  0
   49.7290   35.5280   42.0200 N   0  0  0  0  0  0  0  0  0  0  0  0
   45.3680   34.7680   41.6410 C   0  0  0  0  0  0  0  0  0  0  0  0
   44.0890   34.9290   41.0890 C   0  0  0  0  0  0  0  0  0  0  0  0
   43.3590   35.4290   42.1610 C   0  0  0  0  0  0  0  0  0  0  0  0
   44.2160   35.5430   43.2810 C   0  0  0  0  0  0  0  0  0  0  0  0
   45.3940   35.1340   42.9050 O   0  0  0  0  0  0  0  0  0  0  0  0
   46.2150   32.9020   40.2290 C   0  0  0  0  0  0  0  0  0  0  0  0
   46.2910   32.8740   38.8040 N   0  0  0  0  0  0  0  0  0  0  0  0
   45.2160   33.1570   38.0890 N   0  0  0  0  0  0  0  0  0  0  0  0
   45.4350   33.0720   36.7910 C   0  0  0  0  0  0  0  0  0  0  0  0
   46.7470   32.7070   36.6250 C   0  0  0  0  0  0  0  0  0  0  0  0
   47.2190   32.6020   37.9040 C   0  0  0  0  0  0  0  0  0  0  0  0
   48.5810   32.2670   38.1470 N   0  0  0  0  0  0  0  0  0  0  0  0
   49.2690   31.5830   39.2200 C   0  0  0  0  0  0  0  0  0  0  0  0
   50.7180   31.4290   38.8470 C   0  0  0  0  0  0  0  0  0  0  0  0
   50.7810   30.6050   37.5640 C   0  0  0  0  0  0  0  0  0  0  0  0
   50.1440   31.4070   36.4800 C   0  0  0  0  0  0  0  0  0  0  0  0
   49.4880   32.6790   37.0580 C   0  0  0  0  0  0  0  0  0  0  0  0
   46.5925   34.9005   39.9252 H   0  0  0  0  0  0  0  0  0  0  0  0
   48.1338   36.3741   40.9395 H   0  0  0  0  0  0  0  0  0  0  0  0
   47.7611   32.2776   42.1047 H   0  0  0  0  0  0  0  0  0  0  0  0
   51.2297   34.5141   43.1052 H   0  0  0  0  0  0  0  0  0  0  0  0
   43.7490   34.7138   40.0653 H   0  0  0  0  0  0  0  0  0  0  0  0
   42.2912   35.6926   42.1418 H   0  0  0  0  0  0  0  0  0  0  0  0
   43.9394   35.9083   44.2810 H   0  0  0  0  0  0  0  0  0  0  0  0
   46.9405   32.1807   40.6332 H   0  0  0  0  0  0  0  0  0  0  0  0
   45.1826   32.6458   40.5091 H   0  0  0  0  0  0  0  0  0  0  0  0
   44.7029   33.2588   35.9915 H   0  0  0  0  0  0  0  0  0  0  0  0
   47.2913   32.5384   35.6841 H   0  0  0  0  0  0  0  0  0  0  0  0
   49.1862   32.1708   40.1461 H   0  0  0  0  0  0  0  0  0  0  0  0
   48.8177   30.5930   39.3818 H   0  0  0  0  0  0  0  0  0  0  0  0
   51.1691   32.4182   38.6796 H   0  0  0  0  0  0  0  0  0  0  0  0
   51.2729   30.9286   39.6543 H   0  0  0  0  0  0  0  0  0  0  0  0
   51.8290   30.3920   37.3063 H   0  0  0  0  0  0  0  0  0  0  0  0
   50.2563   29.6471   37.6945 H   0  0  0  0  0  0  0  0  0  0  0  0
   49.3746   30.7972   35.9838 H   0  0  0  0  0  0  0  0  0  0  0  0
   50.9185   31.7047   35.7578 H   0  0  0  0  0  0  0  0  0  0  0  0
   50.2629   33.3531   37.4519 H   0  0  0  0  0  0  0  0  0  0  0  0
   48.9289   33.2115   36.2746 H   0  0  0  0  0  0  0  0  0  0  0  0
  1  3  1  0
  1  8  1  0
  2  7  2  0
  3  2  1  0
  3  4  2  0
  4  5  1  0
  6  5  2  0
  7  6  1  0
  8 12  1  0
  9  8  2  0
  9 10  1  0
 10 11  2  0
 12 11  1  0
 13  1  1  0
 14 13  1  0
 15 14  1  0
 16 15  2  0
 17 16  1  0
 17 18  2  0
 18 19  1  0
 18 14  1  0
 19 20  1  0
 21 20  1  0
 22 21  1  0
 23 24  1  0
 23 22  1  0
 24 19  1  0
  1 25  1  6
  2 26  1  0
  4 27  1  0
  6 28  1  0
  9 29  1  0
 10 30  1  0
 11 31  1  0
 13 32  1  0
 13 33  1  0
 16 34  1  0
 17 35  1  0
 20 36  1  0
 20 37  1  0
 21 38  1  0
 21 39  1  0
 22 40  1  0
 22 41  1  0
 23 42  1  0
 23 43  1  0
 24 44  1  0
 24 45  1  0
M  ISO  8  25   8  26  14  27  14  28  14  29  14  30  14  31  14  32   8
M  ISO  8  33   8  34  14  35  14  36  13  37  13  38  13  39  13  40  13
M  ISO  5  41  13  42  13  43  13  44  13  45  13
M  END
>  <minimizedAffinity>  (1) 
-4.65533209

>  <minimizedRMSD>  (1) 
0.405607402

$$$$
