
     RDKit          3D

 37 40  0  0  1  0  0  0  0  0999 V2000
   46.5330   34.2080   40.7630 C   0  0  2  0  0  0  0  0  0  0  0  0
   48.5300   35.4520   41.4850 C   0  0  0  0  0  0  0  0  0  0  0  0
   47.7960   34.2740   41.4070 C   0  0  0  0  0  0  0  0  0  0  0  0
   48.3660   33.1140   41.9620 C   0  0  0  0  0  0  0  0  0  0  0  0
   49.5920   33.1730   42.5440 N   0  0  0  0  0  0  0  0  0  0  0  0
   50.2660   34.3580   42.5900 C   0  0  0  0  0  0  0  0  0  0  0  0
   49.7410   35.4780   42.0700 N   0  0  0  0  0  0  0  0  0  0  0  0
   45.3970   34.7420   41.6170 C   0  0  0  0  0  0  0  0  0  0  0  0
   44.1210   34.9140   41.0880 C   0  0  0  0  0  0  0  0  0  0  0  0
   43.4000   35.4060   42.1570 C   0  0  0  0  0  0  0  0  0  0  0  0
   44.2500   35.5090   43.2620 C   0  0  0  0  0  0  0  0  0  0  0  0
   45.4290   35.1000   42.8860 O   0  0  0  0  0  0  0  0  0  0  0  0
   46.2500   32.8910   40.1800 C   0  0  0  0  0  0  0  0  0  0  0  0
   46.3440   32.8850   38.7490 N   0  0  0  0  0  0  0  0  0  0  0  0
   45.2820   33.1910   38.0190 N   0  0  0  0  0  0  0  0  0  0  0  0
   45.5080   33.0920   36.7350 C   0  0  0  0  0  0  0  0  0  0  0  0
   46.8060   32.6940   36.6020 C   0  0  0  0  0  0  0  0  0  0  0  0
   47.2900   32.5800   37.8830 C   0  0  0  0  0  0  0  0  0  0  0  0
   48.6580   32.1130   37.9930 C   0  0  0  0  0  0  0  0  0  0  0  0
   49.6210   31.9310   38.8330 C   0  0  0  0  0  0  0  0  0  0  0  0
   50.8740   31.5130   38.5900 C   0  0  0  0  0  0  0  0  0  0  0  0
   51.1580   31.2490   37.2590 C   0  0  0  0  0  0  0  0  0  0  0  0
   49.5550   31.6350   36.4630 S   0  0  0  0  0  0  0  0  0  0  0  0
   46.6036   34.8969   39.9084 H   0  0  0  0  0  0  0  0  0  0  0  0
   48.1137   36.3779   41.0614 H   0  0  0  0  0  0  0  0  0  0  0  0
   47.8195   32.1601   41.9248 H   0  0  0  0  0  0  0  0  0  0  0  0
   51.2587   34.3962   43.0623 H   0  0  0  0  0  0  0  0  0  0  0  0
   43.7719   34.7077   40.0655 H   0  0  0  0  0  0  0  0  0  0  0  0
   42.3330   35.6729   42.1420 H   0  0  0  0  0  0  0  0  0  0  0  0
   43.9745   35.8690   44.2643 H   0  0  0  0  0  0  0  0  0  0  0  0
   46.9724   32.1658   40.5827 H   0  0  0  0  0  0  0  0  0  0  0  0
   45.2156   32.6268   40.4451 H   0  0  0  0  0  0  0  0  0  0  0  0
   44.7931   33.2904   35.9229 H   0  0  0  0  0  0  0  0  0  0  0  0
   47.3510   32.5041   35.6656 H   0  0  0  0  0  0  0  0  0  0  0  0
   49.3845   32.1464   39.8855 H   0  0  0  0  0  0  0  0  0  0  0  0
   51.6203   31.3892   39.3886 H   0  0  0  0  0  0  0  0  0  0  0  0
   52.0963   30.9005   36.8028 H   0  0  0  0  0  0  0  0  0  0  0  0
  1  3  1  0
  1  8  1  0
  2  7  2  0
  3  2  1  0
  3  4  2  0
  4  5  1  0
  5  6  2  0
  7  6  1  0
  8 12  1  0
  9  8  2  0
  9 10  1  0
 10 11  2  0
 12 11  1  0
 13  1  1  0
 14 13  1  0
 15 14  1  0
 16 15  2  0
 17 16  1  0
 17 18  2  0
 18 19  1  0
 18 14  1  0
 19 20  2  0
 21 20  1  0
 22 21  2  0
 23 22  1  0
 23 19  1  0
  1 24  1  6
  2 25  1  0
  4 26  1  0
  6 27  1  0
  9 28  1  0
 10 29  1  0
 11 30  1  0
 13 31  1  0
 13 32  1  0
 16 33  1  0
 17 34  1  0
 20 35  1  0
 21 36  1  0
 22 37  1  0
M  ISO  8  24   8  25  14  26  14  27  14  28  14  29  14  30  14  31   8
M  ISO  6  32   8  33  14  34  14  35  14  36  14  37  14
M  END
>  <minimizedAffinity>  (1) 
-4.6638546

>  <minimizedRMSD>  (1) 
0.477549046

$$$$
