
     RDKit          3D

 35 38  0  0  1  0  0  0  0  0999 V2000
   46.5880   34.0870   40.6340 C   0  0  2  0  0  0  0  0  0  0  0  0
   48.4840   35.3810   41.5330 C   0  0  0  0  0  0  0  0  0  0  0  0
   47.8500   34.1870   41.2740 C   0  0  0  0  0  0  0  0  0  0  0  0
   48.5320   33.0310   41.6590 C   0  0  0  0  0  0  0  0  0  0  0  0
   49.7510   33.0970   42.2530 N   0  0  0  0  0  0  0  0  0  0  0  0
   50.3130   34.3160   42.4760 C   0  0  0  0  0  0  0  0  0  0  0  0
   49.6900   35.4250   42.1230 N   0  0  0  0  0  0  0  0  0  0  0  0
   45.4480   34.6380   41.4800 C   0  0  0  0  0  0  0  0  0  0  0  0
   44.1740   34.8210   40.9160 C   0  0  0  0  0  0  0  0  0  0  0  0
   43.4510   35.3290   41.9910 C   0  0  0  0  0  0  0  0  0  0  0  0
   44.2890   35.4240   43.1050 C   0  0  0  0  0  0  0  0  0  0  0  0
   45.4700   35.0000   42.7520 O   0  0  0  0  0  0  0  0  0  0  0  0
   46.2750   32.7550   40.0920 C   0  0  0  0  0  0  0  0  0  0  0  0
   46.3170   32.7500   38.6460 N   0  0  0  0  0  0  0  0  0  0  0  0
   45.2730   33.1910   37.9450 N   0  0  0  0  0  0  0  0  0  0  0  0
   45.4510   33.1180   36.6480 C   0  0  0  0  0  0  0  0  0  0  0  0
   46.7000   32.5930   36.4470 C   0  0  0  0  0  0  0  0  0  0  0  0
   47.1860   32.3860   37.7150 C   0  0  0  0  0  0  0  0  0  0  0  0
   48.5000   31.8330   38.1160 C   0  0  0  0  0  0  0  0  0  0  0  0
   48.8930   30.7850   38.8460 N   0  0  0  0  0  0  0  0  0  0  0  0
   50.1920   30.7720   38.8720 O   0  0  0  0  0  0  0  0  0  0  0  0
   50.6890   31.7570   38.1960 C   0  0  0  0  0  0  0  0  0  0  0  0
   49.6350   32.4600   37.6960 N   0  0  0  0  0  0  0  0  0  0  0  0
   46.6868   34.7389   39.7535 H   0  0  0  0  0  0  0  0  0  0  0  0
   47.9908   36.3226   41.2498 H   0  0  0  0  0  0  0  0  0  0  0  0
   48.0728   32.0480   41.4775 H   0  0  0  0  0  0  0  0  0  0  0  0
   51.3002   34.3782   42.9571 H   0  0  0  0  0  0  0  0  0  0  0  0
   43.8356   34.6157   39.8897 H   0  0  0  0  0  0  0  0  0  0  0  0
   42.3881   35.6111   41.9675 H   0  0  0  0  0  0  0  0  0  0  0  0
   44.0032   35.7910   44.1018 H   0  0  0  0  0  0  0  0  0  0  0  0
   47.0103   32.0315   40.4738 H   0  0  0  0  0  0  0  0  0  0  0  0
   45.2577   32.4825   40.4096 H   0  0  0  0  0  0  0  0  0  0  0  0
   44.7344   33.4205   35.8702 H   0  0  0  0  0  0  0  0  0  0  0  0
   47.1996   32.3848   35.4894 H   0  0  0  0  0  0  0  0  0  0  0  0
   51.7560   31.9829   38.0529 H   0  0  0  0  0  0  0  0  0  0  0  0
  1  3  1  0
  1  8  1  0
  2  7  2  0
  3  2  1  0
  3  4  2  0
  4  5  1  0
  5  6  2  0
  7  6  1  0
  8 12  1  0
  9  8  2  0
  9 10  1  0
 10 11  2  0
 12 11  1  0
 13  1  1  0
 14 13  1  0
 15 14  1  0
 16 15  2  0
 17 16  1  0
 17 18  2  0
 18 19  1  0
 18 14  1  0
 19 20  2  0
 20 21  1  0
 22 21  1  0
 23 19  1  0
 23 22  2  0
  1 24  1  6
  2 25  1  0
  4 26  1  0
  6 27  1  0
  9 28  1  0
 10 29  1  0
 11 30  1  0
 13 31  1  0
 13 32  1  0
 16 33  1  0
 17 34  1  0
 22 35  1  0
M  ISO  8  24   8  25  14  26  14  27  14  28  14  29  14  30  14  31   8
M  ISO  4  32   8  33  14  34  14  35  14
M  END
>  <minimizedAffinity>  (1) 
-4.52172709

>  <minimizedRMSD>  (1) 
0.567056119

$$$$
