
     RDKit          3D

 31 33  0  0  1  0  0  0  0  0999 V2000
   46.5720   34.2600   40.7730 C   0  0  2  0  0  0  0  0  0  0  0  0
   48.5620   35.4850   41.5530 C   0  0  0  0  0  0  0  0  0  0  0  0
   47.8390   34.3230   41.4060 C   0  0  0  0  0  0  0  0  0  0  0  0
   48.4370   33.1620   41.9010 C   0  0  0  0  0  0  0  0  0  0  0  0
   49.6590   33.1930   42.4890 N   0  0  0  0  0  0  0  0  0  0  0  0
   50.3150   34.3810   42.5980 C   0  0  0  0  0  0  0  0  0  0  0  0
   49.7700   35.4910   42.1390 N   0  0  0  0  0  0  0  0  0  0  0  0
   45.4420   34.7740   41.6530 C   0  0  0  0  0  0  0  0  0  0  0  0
   44.1510   34.9340   41.1230 C   0  0  0  0  0  0  0  0  0  0  0  0
   43.4400   35.4120   42.2210 C   0  0  0  0  0  0  0  0  0  0  0  0
   44.3060   35.5150   43.3180 C   0  0  0  0  0  0  0  0  0  0  0  0
   45.4870   35.1230   42.9260 O   0  0  0  0  0  0  0  0  0  0  0  0
   46.2530   32.9490   40.1780 C   0  0  0  0  0  0  0  0  0  0  0  0
   46.3890   32.9750   38.7410 N   0  0  0  0  0  0  0  0  0  0  0  0
   45.3140   33.0510   37.9670 N   0  0  0  0  0  0  0  0  0  0  0  0
   45.5930   33.0550   36.6840 C   0  0  0  0  0  0  0  0  0  0  0  0
   46.9500   32.9770   36.5740 C   0  0  0  0  0  0  0  0  0  0  0  0
   47.3960   32.9300   37.8720 C   0  0  0  0  0  0  0  0  0  0  0  0
   48.7220   32.8450   38.3470 O   0  0  0  0  0  0  0  0  0  0  0  0
   46.6612   34.9530   39.9234 H   0  0  0  0  0  0  0  0  0  0  0  0
   48.1403   36.4307   41.1817 H   0  0  0  0  0  0  0  0  0  0  0  0
   47.9061   32.2027   41.8122 H   0  0  0  0  0  0  0  0  0  0  0  0
   51.3069   34.4154   43.0724 H   0  0  0  0  0  0  0  0  0  0  0  0
   43.7933   34.7332   40.1023 H   0  0  0  0  0  0  0  0  0  0  0  0
   42.3701   35.6677   42.2263 H   0  0  0  0  0  0  0  0  0  0  0  0
   44.0385   35.8632   44.3266 H   0  0  0  0  0  0  0  0  0  0  0  0
   46.9388   32.1933   40.5887 H   0  0  0  0  0  0  0  0  0  0  0  0
   45.2091   32.7030   40.4223 H   0  0  0  0  0  0  0  0  0  0  0  0
   44.8705   33.1106   35.8564 H   0  0  0  0  0  0  0  0  0  0  0  0
   47.5516   32.9564   35.6533 H   0  0  0  0  0  0  0  0  0  0  0  0
   48.8982   32.8190   39.3208 H   0  0  0  0  0  0  0  0  0  0  0  0
  1  3  1  0
  1  8  1  0
  2  7  2  0
  3  2  1  0
  3  4  2  0
  4  5  1  0
  5  6  2  0
  7  6  1  0
  8 12  1  0
  9  8  2  0
  9 10  1  0
 10 11  2  0
 12 11  1  0
 13  1  1  0
 14 13  1  0
 15 14  1  0
 16 15  2  0
 17 16  1  0
 17 18  2  0
 18 19  1  0
 18 14  1  0
  1 20  1  6
  2 21  1  0
  4 22  1  0
  6 23  1  0
  9 24  1  0
 10 25  1  0
 11 26  1  0
 13 27  1  0
 13 28  1  0
 16 29  1  0
 17 30  1  0
 19 31  1  0
M  ISO  8  20   8  21  14  22  14  23  14  24  14  25  14  26  14  27   8
M  ISO  4  28   8  29  14  30  14  31   3
M  END
>  <minimizedAffinity>  (1) 
-4.35024118

>  <minimizedRMSD>  (1) 
0.12363781

$$$$
