
     RDKit          3D

 45 48  0  0  1  0  0  0  0  0999 V2000
   46.7090   32.1450   39.9820 C   0  0  0  0  0  0  0  0  0  0  0  0
   46.8170   31.8010   38.5680 N   0  0  0  0  0  0  0  0  0  0  0  0
   46.1880   30.7440   38.0870 N   0  0  0  0  0  0  0  0  0  0  0  0
   46.3760   30.5510   36.8070 C   0  0  0  0  0  0  0  0  0  0  0  0
   47.1890   31.5460   36.3880 C   0  0  0  0  0  0  0  0  0  0  0  0
   47.4350   32.2960   37.5150 C   0  0  0  0  0  0  0  0  0  0  0  0
   47.7250   31.8380   35.0920 N   0  0  0  0  0  0  0  0  0  0  0  0
   48.9850   31.5790   34.7140 C   0  0  0  0  0  0  0  0  0  0  0  0
   49.3370   31.9250   33.4270 C   0  0  0  0  0  0  0  0  0  0  0  0
   50.7300   31.6520   32.9700 C   0  0  0  0  0  0  0  0  0  0  0  0
   48.4040   32.5080   32.5970 C   0  0  0  0  0  0  0  0  0  0  0  0
   48.7420   32.8180   31.4200 O   0  0  0  0  0  0  0  0  0  0  0  0
   47.1580   32.7460   33.0200 N   0  0  0  0  0  0  0  0  0  0  0  0
   46.8160   32.4080   34.2760 C   0  0  0  0  0  0  0  0  0  0  0  0
   45.6240   32.6680   34.5890 O   0  0  0  0  0  0  0  0  0  0  0  0
   48.2500   33.4920   37.6530 N   0  0  0  0  0  0  0  0  0  0  0  0
   46.7010   33.5890   40.1770 C   0  0  2  0  0  0  0  0  0  0  0  0
   48.3320   35.3230   40.8090 C   0  0  0  0  0  0  0  0  0  0  0  0
   47.7190   34.1160   40.9910 C   0  0  0  0  0  0  0  0  0  0  0  0
   48.1900   33.3670   42.0580 C   0  0  0  0  0  0  0  0  0  0  0  0
   49.1900   33.7920   42.8700 N   0  0  0  0  0  0  0  0  0  0  0  0
   49.7460   35.0210   42.6070 C   0  0  0  0  0  0  0  0  0  0  0  0
   49.3200   35.7580   41.6010 N   0  0  0  0  0  0  0  0  0  0  0  0
   45.3080   34.1140   40.5700 C   0  0  0  0  0  0  0  0  0  0  0  0
   44.1720   33.6980   39.8340 C   0  0  0  0  0  0  0  0  0  0  0  0
   43.1490   34.3830   40.4910 C   0  0  0  0  0  0  0  0  0  0  0  0
   43.7070   35.1420   41.5460 C   0  0  0  0  0  0  0  0  0  0  0  0
   44.9960   34.9400   41.5440 O   0  0  0  0  0  0  0  0  0  0  0  0
   47.5659   31.7154   40.5216 H   0  0  0  0  0  0  0  0  0  0  0  0
   45.7624   31.7377   40.3669 H   0  0  0  0  0  0  0  0  0  0  0  0
   45.9560   29.7402   36.1937 H   0  0  0  0  0  0  0  0  0  0  0  0
   49.7059   31.1111   35.4005 H   0  0  0  0  0  0  0  0  0  0  0  0
   51.3844   31.5238   33.8448 H   0  0  0  0  0  0  0  0  0  0  0  0
   50.7438   30.7341   32.3640 H   0  0  0  0  0  0  0  0  0  0  0  0
   51.0893   32.4968   32.3640 H   0  0  0  0  0  0  0  0  0  0  0  0
   46.4686   33.1828   32.3916 H   0  0  0  0  0  0  0  0  0  0  0  0
   48.3415   33.9498   38.5711 H   0  0  0  0  0  0  0  0  0  0  0  0
   48.7359   33.8816   36.8326 H   0  0  0  0  0  0  0  0  0  0  0  0
   46.9504   33.9807   39.1798 H   0  0  0  0  0  0  0  0  0  0  0  0
   48.0006   35.9634   39.9783 H   0  0  0  0  0  0  0  0  0  0  0  0
   47.7332   32.3858   42.2547 H   0  0  0  0  0  0  0  0  0  0  0  0
   50.5592   35.3953   43.2461 H   0  0  0  0  0  0  0  0  0  0  0  0
   44.1119   33.0160   38.9730 H   0  0  0  0  0  0  0  0  0  0  0  0
   42.0812   34.3397   40.2305 H   0  0  0  0  0  0  0  0  0  0  0  0
   43.1531   35.7874   42.2436 H   0  0  0  0  0  0  0  0  0  0  0  0
  1 17  1  0
  2  1  1  0
  3  2  1  0
  4  3  2  0
  5  4  1  0
  5  6  2  0
  6 16  1  0
  6  2  1  0
  7  5  1  0
  8  7  1  0
  9  8  2  0
 10  9  1  0
 11 13  1  0
 11  9  1  0
 12 11  2  0
 13 14  1  0
 14 15  2  0
 14  7  1  0
 17 24  1  0
 17 19  1  0
 18 19  2  0
 18 23  1  0
 19 20  1  0
 20 21  2  0
 22 21  1  0
 23 22  2  0
 24 28  1  0
 25 26  1  0
 25 24  2  0
 26 27  2  0
 28 27  1  0
  1 29  1  0
  1 30  1  0
  4 31  1  0
  8 32  1  0
 10 33  1  0
 10 34  1  0
 10 35  1  0
 13 36  1  0
 16 37  1  0
 16 38  1  0
 17 39  1  6
 18 40  1  0
 20 41  1  0
 22 42  1  0
 25 43  1  0
 26 44  1  0
 27 45  1  0
M  ISO  8  29   8  30   8  31  14  32  14  33   8  34   8  35   8  36   9
M  ISO  7  39   8  40  14  41  14  42  14  43  14  44  14  45  14
M  END
>  <minimizedAffinity>  (1) 
-5.80133152

>  <minimizedRMSD>  (1) 
1.29948568

$$$$
