
     RDKit          3D

 46 50  0  0  1  0  0  0  0  0999 V2000
   45.8290   32.6090   42.5000 C   0  0  0  0  0  0  0  0  0  0  0  0
   44.7830   33.5100   42.0370 N   0  0  0  0  0  0  0  0  0  0  0  0
   44.4530   34.5780   42.7460 N   0  0  0  0  0  0  0  0  0  0  0  0
   43.4970   35.2780   42.1810 C   0  0  0  0  0  0  0  0  0  0  0  0
   43.1590   34.6670   41.0410 C   0  0  0  0  0  0  0  0  0  0  0  0
   43.9820   33.5770   40.9960 C   0  0  0  0  0  0  0  0  0  0  0  0
   42.2290   34.8520   39.9510 C   0  0  0  0  0  0  0  0  0  0  0  0
   42.5920   35.4850   38.8450 N   0  0  0  0  0  0  0  0  0  0  0  0
   41.8450   35.7290   37.7730 C   0  0  0  0  0  0  0  0  0  0  0  0
   40.5650   35.3340   37.6950 N   0  0  0  0  0  0  0  0  0  0  0  0
   40.0810   34.6800   38.7600 C   0  0  0  0  0  0  0  0  0  0  0  0
   38.7780   34.2500   38.7490 C   0  0  0  0  0  0  0  0  0  0  0  0
   38.2270   33.5700   39.8320 C   0  0  0  0  0  0  0  0  0  0  0  0
   39.0590   33.3410   40.9360 C   0  0  0  0  0  0  0  0  0  0  0  0
   40.3450   33.8030   40.8630 C   0  0  0  0  0  0  0  0  0  0  0  0
   40.9250   34.4720   39.8230 C   0  0  0  0  0  0  0  0  0  0  0  0
   44.0460   32.5270   39.9820 N   0  0  0  0  0  0  0  0  0  0  0  0
   46.7210   33.2670   43.4530 C   0  0  2  0  0  0  0  0  0  0  0  0
   48.7600   34.5250   42.8920 C   0  0  0  0  0  0  0  0  0  0  0  0
   48.0740   33.3600   43.0760 C   0  0  0  0  0  0  0  0  0  0  0  0
   48.7930   32.2040   42.8300 C   0  0  0  0  0  0  0  0  0  0  0  0
   50.0910   32.2150   42.4340 N   0  0  0  0  0  0  0  0  0  0  0  0
   50.6980   33.4350   42.2760 C   0  0  0  0  0  0  0  0  0  0  0  0
   50.0410   34.5550   42.5020 N   0  0  0  0  0  0  0  0  0  0  0  0
   46.5350   32.7150   44.8790 C   0  0  0  0  0  0  0  0  0  0  0  0
   46.0910   31.4000   45.0780 C   0  0  0  0  0  0  0  0  0  0  0  0
   46.0570   31.3040   46.4620 C   0  0  0  0  0  0  0  0  0  0  0  0
   46.4710   32.5370   47.0080 C   0  0  0  0  0  0  0  0  0  0  0  0
   46.7490   33.3550   46.0220 O   0  0  0  0  0  0  0  0  0  0  0  0
   46.4177   32.2705   41.6347 H   0  0  0  0  0  0  0  0  0  0  0  0
   45.3512   31.7574   43.0065 H   0  0  0  0  0  0  0  0  0  0  0  0
   43.0526   36.2036   42.5757 H   0  0  0  0  0  0  0  0  0  0  0  0
   42.2892   36.2707   36.9249 H   0  0  0  0  0  0  0  0  0  0  0  0
   38.1545   34.4470   37.8644 H   0  0  0  0  0  0  0  0  0  0  0  0
   37.1820   33.2268   39.8213 H   0  0  0  0  0  0  0  0  0  0  0  0
   38.6925   32.8103   41.8271 H   0  0  0  0  0  0  0  0  0  0  0  0
   40.9826   33.6146   41.7394 H   0  0  0  0  0  0  0  0  0  0  0  0
   44.7239   31.7576   40.0794 H   0  0  0  0  0  0  0  0  0  0  0  0
   43.4132   32.5562   39.1698 H   0  0  0  0  0  0  0  0  0  0  0  0
   46.3952   34.3176   43.4445 H   0  0  0  0  0  0  0  0  0  0  0  0
   48.2402   35.4777   43.0711 H   0  0  0  0  0  0  0  0  0  0  0  0
   48.2910   31.2341   42.9610 H   0  0  0  0  0  0  0  0  0  0  0  0
   51.7494   33.4792   41.9557 H   0  0  0  0  0  0  0  0  0  0  0  0
   45.8346   30.6378   44.3275 H   0  0  0  0  0  0  0  0  0  0  0  0
   45.7574   30.4153   47.0369 H   0  0  0  0  0  0  0  0  0  0  0  0
   46.5476   32.7723   48.0798 H   0  0  0  0  0  0  0  0  0  0  0  0
  1 18  1  0
  2  1  1  0
  2  3  1  0
  4  3  2  0
  5  4  1  0
  6  5  2  0
  6  2  1  0
  7  5  1  0
  8  7  2  0
  9  8  1  0
 10  9  2  0
 10 11  1  0
 11 16  2  0
 12 11  1  0
 12 13  2  0
 13 14  1  0
 15 14  2  0
 16  7  1  0
 16 15  1  0
 17  6  1  0
 18 25  1  0
 19 20  2  0
 20 18  1  0
 21 20  1  0
 22 21  2  0
 23 22  1  0
 23 24  2  0
 24 19  1  0
 25 26  2  0
 25 29  1  0
 26 27  1  0
 27 28  2  0
 29 28  1  0
  1 30  1  0
  1 31  1  0
  4 32  1  0
  9 33  1  0
 12 34  1  0
 13 35  1  0
 14 36  1  0
 15 37  1  0
 17 38  1  0
 17 39  1  0
 18 40  1  1
 19 41  1  0
 21 42  1  0
 23 43  1  0
 26 44  1  0
 27 45  1  0
 28 46  1  0
M  ISO  8  30   8  31   8  32  14  33  14  34  14  35  14  36  14  37  14
M  ISO  7  40   8  41  14  42  14  43  14  44  14  45  14  46  14
M  END
>  <minimizedAffinity>  (1) 
-6.59525537

>  <minimizedRMSD>  (1) 
6.76429653

$$$$
