
     RDKit          3D

 45 49  0  0  1  0  0  0  0  0999 V2000
   46.2220   32.8000   40.2030 C   0  0  0  0  0  0  0  0  0  0  0  0
   46.2960   32.7820   38.7460 N   0  0  0  0  0  0  0  0  0  0  0  0
   45.2750   33.1990   38.0150 N   0  0  0  0  0  0  0  0  0  0  0  0
   45.4730   33.1240   36.7310 C   0  0  0  0  0  0  0  0  0  0  0  0
   46.7290   32.6170   36.5780 C   0  0  0  0  0  0  0  0  0  0  0  0
   47.1910   32.4230   37.8520 C   0  0  0  0  0  0  0  0  0  0  0  0
   47.4490   32.3300   35.3780 N   0  0  0  0  0  0  0  0  0  0  0  0
   48.6170   32.9100   35.0330 C   0  0  0  0  0  0  0  0  0  0  0  0
   49.0120   32.4190   33.8640 N   0  0  0  0  0  0  0  0  0  0  0  0
   48.0990   31.5070   33.4320 C   0  0  0  0  0  0  0  0  0  0  0  0
   48.0710   30.7400   32.2850 C   0  0  0  0  0  0  0  0  0  0  0  0
   46.9970   29.9380   32.1920 N   0  0  0  0  0  0  0  0  0  0  0  0
   46.0290   29.8710   33.1120 C   0  0  0  0  0  0  0  0  0  0  0  0
   46.0590   30.6290   34.2430 N   0  0  0  0  0  0  0  0  0  0  0  0
   47.1180   31.4630   34.4010 C   0  0  0  0  0  0  0  0  0  0  0  0
   49.1070   30.8200   31.3130 N   0  0  0  0  0  0  0  0  0  0  0  0
   48.4730   31.9020   38.2820 N   0  0  0  0  0  0  0  0  0  0  0  0
   46.5610   34.1160   40.7370 C   0  0  2  0  0  0  0  0  0  0  0  0
   48.4860   35.4110   41.5600 C   0  0  0  0  0  0  0  0  0  0  0  0
   47.8210   34.2380   41.3480 C   0  0  0  0  0  0  0  0  0  0  0  0
   48.4940   33.0870   41.7570 C   0  0  0  0  0  0  0  0  0  0  0  0
   49.7250   33.1230   42.3240 N   0  0  0  0  0  0  0  0  0  0  0  0
   50.3150   34.3510   42.4980 C   0  0  0  0  0  0  0  0  0  0  0  0
   49.7040   35.4560   42.1220 N   0  0  0  0  0  0  0  0  0  0  0  0
   45.4310   34.6910   41.6090 C   0  0  0  0  0  0  0  0  0  0  0  0
   44.1490   34.8970   41.0530 C   0  0  0  0  0  0  0  0  0  0  0  0
   43.4430   35.4140   42.1320 C   0  0  0  0  0  0  0  0  0  0  0  0
   44.3120   35.4900   43.2470 C   0  0  0  0  0  0  0  0  0  0  0  0
   45.4840   35.0450   42.8800 O   0  0  0  0  0  0  0  0  0  0  0  0
   46.9264   32.0577   40.6064 H   0  0  0  0  0  0  0  0  0  0  0  0
   45.1904   32.5607   40.5004 H   0  0  0  0  0  0  0  0  0  0  0  0
   44.7715   33.4106   35.9336 H   0  0  0  0  0  0  0  0  0  0  0  0
   49.1546   33.6664   35.6237 H   0  0  0  0  0  0  0  0  0  0  0  0
   45.1848   29.1844   32.9508 H   0  0  0  0  0  0  0  0  0  0  0  0
   49.0636   30.2372   30.4649 H   0  0  0  0  0  0  0  0  0  0  0  0
   49.9004   31.4607   31.4575 H   0  0  0  0  0  0  0  0  0  0  0  0
   48.6816   31.8120   39.2866 H   0  0  0  0  0  0  0  0  0  0  0  0
   49.1756   31.6217   37.5830 H   0  0  0  0  0  0  0  0  0  0  0  0
   46.6603   34.7403   39.8368 H   0  0  0  0  0  0  0  0  0  0  0  0
   48.0061   36.3540   41.2592 H   0  0  0  0  0  0  0  0  0  0  0  0
   48.0067   32.1113   41.6139 H   0  0  0  0  0  0  0  0  0  0  0  0
   51.3123   34.4128   42.9580 H   0  0  0  0  0  0  0  0  0  0  0  0
   43.7995   34.6990   40.0290 H   0  0  0  0  0  0  0  0  0  0  0  0
   42.3848   35.7143   42.1217 H   0  0  0  0  0  0  0  0  0  0  0  0
   44.0464   35.8596   44.2484 H   0  0  0  0  0  0  0  0  0  0  0  0
  1 18  1  0
  2  1  1  0
  3  2  1  0
  4  3  2  0
  5  4  1  0
  5  6  2  0
  6 17  1  0
  6  2  1  0
  7  5  1  0
  8  7  1  0
  9  8  2  0
 10  9  1  0
 10 15  2  0
 11 10  1  0
 12 11  2  0
 12 13  1  0
 13 14  2  0
 14 15  1  0
 15  7  1  0
 16 11  1  0
 18 20  1  0
 18 25  1  0
 19 24  2  0
 20 19  1  0
 20 21  2  0
 21 22  1  0
 22 23  2  0
 24 23  1  0
 25 29  1  0
 26 25  2  0
 26 27  1  0
 27 28  2  0
 29 28  1  0
  1 30  1  0
  1 31  1  0
  4 32  1  0
  8 33  1  0
 13 34  1  0
 16 35  1  0
 16 36  1  0
 17 37  1  0
 17 38  1  0
 18 39  1  6
 19 40  1  0
 21 41  1  0
 23 42  1  0
 26 43  1  0
 27 44  1  0
 28 45  1  0
M  ISO  8  30   8  31   8  32  14  33  14  34  14  39   8  40  14  41  14
M  ISO  4  42  14  43  14  44  14  45  14
M  END
>  <minimizedAffinity>  (1) 
-5.94258165

>  <minimizedRMSD>  (1) 
0.625097752

$$$$
