
     RDKit          3D

 41 44  0  0  1  0  0  0  0  0999 V2000
   46.5930   34.0700   40.6330 C   0  0  2  0  0  0  0  0  0  0  0  0
   48.4760   35.3950   41.4900 C   0  0  0  0  0  0  0  0  0  0  0  0
   47.8330   34.2110   41.2790 C   0  0  0  0  0  0  0  0  0  0  0  0
   48.5050   33.0750   41.7280 C   0  0  0  0  0  0  0  0  0  0  0  0
   49.7150   33.1330   42.3330 N   0  0  0  0  0  0  0  0  0  0  0  0
   50.2870   34.3690   42.5020 C   0  0  0  0  0  0  0  0  0  0  0  0
   49.6740   35.4620   42.0890 N   0  0  0  0  0  0  0  0  0  0  0  0
   45.4290   34.6450   41.4610 C   0  0  0  0  0  0  0  0  0  0  0  0
   44.1550   34.7950   40.8800 C   0  0  0  0  0  0  0  0  0  0  0  0
   43.4120   35.3300   41.9230 C   0  0  0  0  0  0  0  0  0  0  0  0
   44.2500   35.4700   43.0430 C   0  0  0  0  0  0  0  0  0  0  0  0
   45.4510   35.0480   42.7240 O   0  0  0  0  0  0  0  0  0  0  0  0
   46.2800   32.7390   40.1160 C   0  0  0  0  0  0  0  0  0  0  0  0
   46.3480   32.7060   38.6600 N   0  0  0  0  0  0  0  0  0  0  0  0
   45.3190   33.1130   37.9300 N   0  0  0  0  0  0  0  0  0  0  0  0
   45.5300   33.0170   36.6370 C   0  0  0  0  0  0  0  0  0  0  0  0
   46.7740   32.5160   36.4880 C   0  0  0  0  0  0  0  0  0  0  0  0
   47.2340   32.3420   37.7650 C   0  0  0  0  0  0  0  0  0  0  0  0
   47.4520   32.2330   35.2320 C   0  0  0  0  0  0  0  0  0  0  0  0
   48.6200   32.8080   34.7830 C   0  0  0  0  0  0  0  0  0  0  0  0
   49.1940   32.4820   33.5790 C   0  0  0  0  0  0  0  0  0  0  0  0
   48.6360   31.5570   32.7470 C   0  0  0  0  0  0  0  0  0  0  0  0
   47.4550   30.9780   33.2050 C   0  0  0  0  0  0  0  0  0  0  0  0
   46.9330   31.3260   34.3810 N   0  0  0  0  0  0  0  0  0  0  0  0
   48.5210   31.8340   38.1870 N   0  0  0  0  0  0  0  0  0  0  0  0
   46.7162   34.6837   39.7285 H   0  0  0  0  0  0  0  0  0  0  0  0
   47.9955   36.3270   41.1575 H   0  0  0  0  0  0  0  0  0  0  0  0
   48.0331   32.0917   41.5850 H   0  0  0  0  0  0  0  0  0  0  0  0
   51.2702   34.4496   42.9886 H   0  0  0  0  0  0  0  0  0  0  0  0
   43.8307   34.5500   39.8578 H   0  0  0  0  0  0  0  0  0  0  0  0
   42.3463   35.5993   41.8804 H   0  0  0  0  0  0  0  0  0  0  0  0
   43.9491   35.8672   44.0237 H   0  0  0  0  0  0  0  0  0  0  0  0
   47.0022   32.0170   40.5248 H   0  0  0  0  0  0  0  0  0  0  0  0
   45.2554   32.4804   40.4214 H   0  0  0  0  0  0  0  0  0  0  0  0
   44.8302   33.2911   35.8338 H   0  0  0  0  0  0  0  0  0  0  0  0
   49.1140   33.5602   35.4156 H   0  0  0  0  0  0  0  0  0  0  0  0
   50.1277   32.9797   33.2780 H   0  0  0  0  0  0  0  0  0  0  0  0
   49.0874   31.2868   31.7809 H   0  0  0  0  0  0  0  0  0  0  0  0
   46.9460   30.2231   32.5877 H   0  0  0  0  0  0  0  0  0  0  0  0
   48.7393   31.7541   39.1904 H   0  0  0  0  0  0  0  0  0  0  0  0
   49.2191   31.5522   37.4841 H   0  0  0  0  0  0  0  0  0  0  0  0
  1  3  1  0
  1  8  1  0
  2  7  2  0
  3  2  1  0
  3  4  2  0
  4  5  1  0
  5  6  2  0
  7  6  1  0
  8 12  1  0
  9  8  2  0
  9 10  1  0
 10 11  2  0
 12 11  1  0
 13  1  1  0
 14 13  1  0
 15 14  1  0
 16 15  2  0
 17 16  1  0
 17 18  2  0
 18 25  1  0
 18 14  1  0
 19 17  1  0
 20 19  2  0
 21 20  1  0
 22 23  1  0
 22 21  2  0
 23 24  2  0
 24 19  1  0
  1 26  1  6
  2 27  1  0
  4 28  1  0
  6 29  1  0
  9 30  1  0
 10 31  1  0
 11 32  1  0
 13 33  1  0
 13 34  1  0
 16 35  1  0
 20 36  1  0
 21 37  1  0
 22 38  1  0
 23 39  1  0
 25 40  1  0
 25 41  1  0
M  ISO  8  26   8  27  14  28  14  29  14  30  14  31  14  32  14  33   8
M  ISO  6  34   8  35  14  36  14  37  14  38  14  39  14
M  END
>  <minimizedAffinity>  (1) 
-5.21640635

>  <minimizedRMSD>  (1) 
0.55218792

$$$$
