
     RDKit          3D

 46 49  0  0  1  0  0  0  0  0999 V2000
   46.5180   34.1040   40.6430 C   0  0  2  0  0  0  0  0  0  0  0  0
   48.4660   35.4230   41.3750 C   0  0  0  0  0  0  0  0  0  0  0  0
   47.7490   34.2630   41.3030 C   0  0  0  0  0  0  0  0  0  0  0  0
   48.3320   33.1600   41.9260 C   0  0  0  0  0  0  0  0  0  0  0  0
   49.5280   33.2250   42.5600 N   0  0  0  0  0  0  0  0  0  0  0  0
   50.1750   34.4360   42.5790 C   0  0  0  0  0  0  0  0  0  0  0  0
   49.6500   35.5020   41.9980 N   0  0  0  0  0  0  0  0  0  0  0  0
   45.3410   34.6820   41.4500 C   0  0  0  0  0  0  0  0  0  0  0  0
   44.0670   34.7870   40.8550 C   0  0  0  0  0  0  0  0  0  0  0  0
   43.3140   35.3450   41.8860 C   0  0  0  0  0  0  0  0  0  0  0  0
   44.1540   35.5370   43.0080 C   0  0  0  0  0  0  0  0  0  0  0  0
   45.3420   35.1240   42.6850 O   0  0  0  0  0  0  0  0  0  0  0  0
   46.2250   32.7720   40.1230 C   0  0  0  0  0  0  0  0  0  0  0  0
   46.4990   32.6930   38.6910 N   0  0  0  0  0  0  0  0  0  0  0  0
   45.5660   33.0210   37.8090 N   0  0  0  0  0  0  0  0  0  0  0  0
   45.9520   32.9010   36.5630 C   0  0  0  0  0  0  0  0  0  0  0  0
   47.2340   32.4620   36.6160 C   0  0  0  0  0  0  0  0  0  0  0  0
   47.5290   32.3490   37.9470 C   0  0  0  0  0  0  0  0  0  0  0  0
   48.1120   32.1730   35.5310 N   0  0  0  0  0  0  0  0  0  0  0  0
   49.4580   31.7030   35.8220 C   0  0  0  0  0  0  0  0  0  0  0  0
   50.1580   31.1640   34.6240 C   0  0  0  0  0  0  0  0  0  0  0  0
   50.0130   31.9030   33.4160 N   0  0  0  0  0  0  0  0  0  0  0  0
   49.0280   32.9440   33.5090 C   0  0  0  0  0  0  0  0  0  0  0  0
   47.7730   32.3100   34.1250 C   0  0  0  0  0  0  0  0  0  0  0  0
   48.7620   31.9210   38.5630 N   0  0  0  0  0  0  0  0  0  0  0  0
   46.6457   34.7092   39.7334 H   0  0  0  0  0  0  0  0  0  0  0  0
   48.0557   36.3280   40.9032 H   0  0  0  0  0  0  0  0  0  0  0  0
   47.7993   32.1979   41.9018 H   0  0  0  0  0  0  0  0  0  0  0  0
   51.1472   34.5211   43.0864 H   0  0  0  0  0  0  0  0  0  0  0  0
   43.7501   34.5024   39.8408 H   0  0  0  0  0  0  0  0  0  0  0  0
   42.2439   35.5948   41.8359 H   0  0  0  0  0  0  0  0  0  0  0  0
   43.8549   35.9597   43.9785 H   0  0  0  0  0  0  0  0  0  0  0  0
   46.8502   32.0357   40.6492 H   0  0  0  0  0  0  0  0  0  0  0  0
   45.1578   32.5611   40.2859 H   0  0  0  0  0  0  0  0  0  0  0  0
   45.3592   33.1125   35.6608 H   0  0  0  0  0  0  0  0  0  0  0  0
   50.0440   32.5438   36.2216 H   0  0  0  0  0  0  0  0  0  0  0  0
   49.3697   30.8818   36.5485 H   0  0  0  0  0  0  0  0  0  0  0  0
   51.2316   31.1148   34.8585 H   0  0  0  0  0  0  0  0  0  0  0  0
   49.6875   30.1895   34.4266 H   0  0  0  0  0  0  0  0  0  0  0  0
   49.7349   31.2542   32.6659 H   0  0  0  0  0  0  0  0  0  0  0  0
   49.3959   33.7577   34.1513 H   0  0  0  0  0  0  0  0  0  0  0  0
   48.8100   33.3720   32.5194 H   0  0  0  0  0  0  0  0  0  0  0  0
   46.8984   32.9642   33.9942 H   0  0  0  0  0  0  0  0  0  0  0  0
   47.5047   31.3521   33.6556 H   0  0  0  0  0  0  0  0  0  0  0  0
   48.8396   31.8852   39.5895 H   0  0  0  0  0  0  0  0  0  0  0  0
   49.5644   31.6513   37.9762 H   0  0  0  0  0  0  0  0  0  0  0  0
  1  3  1  0
  1  8  1  0
  2  7  2  0
  3  2  1  0
  3  4  2  0
  4  5  1  0
  5  6  2  0
  7  6  1  0
  8 12  1  0
  9  8  2  0
  9 10  1  0
 10 11  2  0
 12 11  1  0
 13  1  1  0
 14 13  1  0
 15 14  1  0
 16 17  1  0
 16 15  2  0
 17 18  2  0
 18 25  1  0
 18 14  1  0
 19 20  1  0
 19 17  1  0
 21 20  1  0
 22 23  1  0
 22 21  1  0
 23 24  1  0
 24 19  1  0
  1 26  1  6
  2 27  1  0
  4 28  1  0
  6 29  1  0
  9 30  1  0
 10 31  1  0
 11 32  1  0
 13 33  1  0
 13 34  1  0
 16 35  1  0
 20 36  1  0
 20 37  1  0
 21 38  1  0
 21 39  1  0
 22 40  1  0
 23 41  1  0
 23 42  1  0
 24 43  1  0
 24 44  1  0
 25 45  1  0
 25 46  1  0
M  ISO  8  26   8  27  14  28  14  29  14  30  14  31  14  32  14  33   8
M  ISO  8  34   8  35  14  36  13  37  13  38  13  39  13  40   5  41  13
M  ISO  3  42  13  43  13  44  13
M  END
>  <minimizedAffinity>  (1) 
-5.1311183

>  <minimizedRMSD>  (1) 
0.626964808

$$$$
