
     RDKit          3D

 39 42  0  0  1  0  0  0  0  0999 V2000
   46.5690   34.1580   40.7560 C   0  0  2  0  0  0  0  0  0  0  0  0
   48.5110   35.4360   41.5470 C   0  0  0  0  0  0  0  0  0  0  0  0
   47.8270   34.2710   41.3690 C   0  0  0  0  0  0  0  0  0  0  0  0
   48.4780   33.1260   41.8210 C   0  0  0  0  0  0  0  0  0  0  0  0
   49.7040   33.1580   42.3970 N   0  0  0  0  0  0  0  0  0  0  0  0
   50.3140   34.3800   42.5330 C   0  0  0  0  0  0  0  0  0  0  0  0
   49.7230   35.4830   42.1160 N   0  0  0  0  0  0  0  0  0  0  0  0
   45.4340   34.7210   41.6300 C   0  0  0  0  0  0  0  0  0  0  0  0
   44.1560   34.9120   41.0880 C   0  0  0  0  0  0  0  0  0  0  0  0
   43.4390   35.4180   42.1570 C   0  0  0  0  0  0  0  0  0  0  0  0
   44.3090   35.5040   43.2720 C   0  0  0  0  0  0  0  0  0  0  0  0
   45.4900   35.0770   42.9060 O   0  0  0  0  0  0  0  0  0  0  0  0
   46.2270   32.8410   40.2220 C   0  0  0  0  0  0  0  0  0  0  0  0
   46.2990   32.8210   38.7660 N   0  0  0  0  0  0  0  0  0  0  0  0
   45.2420   33.1650   38.0420 N   0  0  0  0  0  0  0  0  0  0  0  0
   45.4530   33.0920   36.7530 C   0  0  0  0  0  0  0  0  0  0  0  0
   46.7310   32.6740   36.5840 C   0  0  0  0  0  0  0  0  0  0  0  0
   47.2100   32.5220   37.8740 C   0  0  0  0  0  0  0  0  0  0  0  0
   47.4770   32.4250   35.3960 N   0  0  0  0  0  0  0  0  0  0  0  0
   46.9250   31.6710   34.4240 C   0  0  0  0  0  0  0  0  0  0  0  0
   47.8240   31.5680   33.3780 C   0  0  0  0  0  0  0  0  0  0  0  0
   48.9080   32.2690   33.7430 N   0  0  0  0  0  0  0  0  0  0  0  0
   48.7000   32.7930   34.9720 C   0  0  0  0  0  0  0  0  0  0  0  0
   48.5300   32.0970   38.3030 N   0  0  0  0  0  0  0  0  0  0  0  0
   46.6742   34.7928   39.8638 H   0  0  0  0  0  0  0  0  0  0  0  0
   48.0494   36.3758   41.2099 H   0  0  0  0  0  0  0  0  0  0  0  0
   47.9756   32.1543   41.7055 H   0  0  0  0  0  0  0  0  0  0  0  0
   51.3098   34.4403   42.9963 H   0  0  0  0  0  0  0  0  0  0  0  0
   43.8085   34.7094   40.0642 H   0  0  0  0  0  0  0  0  0  0  0  0
   42.3770   35.7042   42.1438 H   0  0  0  0  0  0  0  0  0  0  0  0
   44.0377   35.8677   44.2741 H   0  0  0  0  0  0  0  0  0  0  0  0
   46.9307   32.0978   40.6251 H   0  0  0  0  0  0  0  0  0  0  0  0
   45.1950   32.6044   40.5204 H   0  0  0  0  0  0  0  0  0  0  0  0
   44.7303   33.3256   35.9573 H   0  0  0  0  0  0  0  0  0  0  0  0
   45.9252   31.2135   34.4574 H   0  0  0  0  0  0  0  0  0  0  0  0
   47.6791   31.0205   32.4350 H   0  0  0  0  0  0  0  0  0  0  0  0
   49.4122   33.4166   35.5322 H   0  0  0  0  0  0  0  0  0  0  0  0
   48.7479   32.0287   39.3074 H   0  0  0  0  0  0  0  0  0  0  0  0
   49.2487   31.8638   37.6030 H   0  0  0  0  0  0  0  0  0  0  0  0
  1  3  1  0
  1  8  1  0
  2  7  2  0
  3  2  1  0
  3  4  2  0
  4  5  1  0
  5  6  2  0
  7  6  1  0
  8 12  1  0
  9  8  2  0
  9 10  1  0
 10 11  2  0
 12 11  1  0
 13  1  1  0
 14 13  1  0
 15 14  1  0
 16 15  2  0
 17 16  1  0
 17 18  2  0
 18 24  1  0
 18 14  1  0
 19 17  1  0
 20 19  1  0
 21 22  1  0
 21 20  2  0
 22 23  2  0
 23 19  1  0
  1 25  1  6
  2 26  1  0
  4 27  1  0
  6 28  1  0
  9 29  1  0
 10 30  1  0
 11 31  1  0
 13 32  1  0
 13 33  1  0
 16 34  1  0
 20 35  1  0
 21 36  1  0
 23 37  1  0
 24 38  1  0
 24 39  1  0
M  ISO  8  25   8  26  14  27  14  28  14  29  14  30  14  31  14  32   8
M  ISO  5  33   8  34  14  35  14  36  14  37  14
M  END
>  <minimizedAffinity>  (1) 
-5.02952719

>  <minimizedRMSD>  (1) 
0.35534209

$$$$
