
     RDKit          3D

 39 42  0  0  1  0  0  0  0  0999 V2000
   46.5740   34.1470   40.7800 C   0  0  2  0  0  0  0  0  0  0  0  0
   48.5130   35.4450   41.5660 C   0  0  0  0  0  0  0  0  0  0  0  0
   47.8370   34.2720   41.3850 C   0  0  0  0  0  0  0  0  0  0  0  0
   48.5000   33.1270   41.8230 C   0  0  0  0  0  0  0  0  0  0  0  0
   49.7300   33.1680   42.3900 N   0  0  0  0  0  0  0  0  0  0  0  0
   50.3290   34.3950   42.5290 C   0  0  0  0  0  0  0  0  0  0  0  0
   49.7300   35.4980   42.1260 N   0  0  0  0  0  0  0  0  0  0  0  0
   45.4430   34.7190   41.6540 C   0  0  0  0  0  0  0  0  0  0  0  0
   44.1620   34.9190   41.0980 C   0  0  0  0  0  0  0  0  0  0  0  0
   43.4610   35.4380   42.1880 C   0  0  0  0  0  0  0  0  0  0  0  0
   44.3330   35.5190   43.2990 C   0  0  0  0  0  0  0  0  0  0  0  0
   45.5030   35.0770   42.9250 O   0  0  0  0  0  0  0  0  0  0  0  0
   46.2360   32.8280   40.2510 C   0  0  0  0  0  0  0  0  0  0  0  0
   46.2750   32.8140   38.7930 N   0  0  0  0  0  0  0  0  0  0  0  0
   45.1750   33.0600   38.0950 N   0  0  0  0  0  0  0  0  0  0  0  0
   45.3580   33.0100   36.7970 C   0  0  0  0  0  0  0  0  0  0  0  0
   46.6650   32.7140   36.6140 C   0  0  0  0  0  0  0  0  0  0  0  0
   47.1910   32.6020   37.8730 C   0  0  0  0  0  0  0  0  0  0  0  0
   47.4180   32.5360   35.3750 C   0  0  0  0  0  0  0  0  0  0  0  0
   46.9870   31.9730   34.1900 C   0  0  0  0  0  0  0  0  0  0  0  0
   47.9880   31.9800   33.2380 C   0  0  0  0  0  0  0  0  0  0  0  0
   49.0440   32.5810   33.9310 C   0  0  0  0  0  0  0  0  0  0  0  0
   48.6760   32.8830   35.1510 O   0  0  0  0  0  0  0  0  0  0  0  0
   48.5520   32.2970   38.2630 N   0  0  0  0  0  0  0  0  0  0  0  0
   46.6698   34.7729   39.8805 H   0  0  0  0  0  0  0  0  0  0  0  0
   48.0403   36.3831   41.2395 H   0  0  0  0  0  0  0  0  0  0  0  0
   48.0054   32.1518   41.7037 H   0  0  0  0  0  0  0  0  0  0  0  0
   51.3278   34.4593   42.9853 H   0  0  0  0  0  0  0  0  0  0  0  0
   43.8088   34.7189   40.0757 H   0  0  0  0  0  0  0  0  0  0  0  0
   42.4021   35.7358   42.1837 H   0  0  0  0  0  0  0  0  0  0  0  0
   44.0713   35.8891   44.3013 H   0  0  0  0  0  0  0  0  0  0  0  0
   46.9578   32.0923   40.6355 H   0  0  0  0  0  0  0  0  0  0  0  0
   45.2145   32.5771   40.5727 H   0  0  0  0  0  0  0  0  0  0  0  0
   44.6016   33.1753   36.0156 H   0  0  0  0  0  0  0  0  0  0  0  0
   45.9765   31.5707   34.0253 H   0  0  0  0  0  0  0  0  0  0  0  0
   47.9615   31.6090   32.2028 H   0  0  0  0  0  0  0  0  0  0  0  0
   50.0423   32.7728   33.5107 H   0  0  0  0  0  0  0  0  0  0  0  0
   48.8026   32.2457   39.2607 H   0  0  0  0  0  0  0  0  0  0  0  0
   49.2693   32.1313   37.5426 H   0  0  0  0  0  0  0  0  0  0  0  0
  1  3  1  0
  1  8  1  0
  2  7  2  0
  3  2  1  0
  3  4  2  0
  4  5  1  0
  5  6  2  0
  7  6  1  0
  8 12  1  0
  9  8  2  0
  9 10  1  0
 10 11  2  0
 12 11  1  0
 13  1  1  0
 14 13  1  0
 15 14  1  0
 16 15  2  0
 17 16  1  0
 17 18  2  0
 18 24  1  0
 18 14  1  0
 19 17  1  0
 20 19  2  0
 21 22  2  0
 21 20  1  0
 22 23  1  0
 23 19  1  0
  1 25  1  6
  2 26  1  0
  4 27  1  0
  6 28  1  0
  9 29  1  0
 10 30  1  0
 11 31  1  0
 13 32  1  0
 13 33  1  0
 16 34  1  0
 20 35  1  0
 21 36  1  0
 22 37  1  0
 24 38  1  0
 24 39  1  0
M  ISO  8  25   8  26  14  27  14  28  14  29  14  30  14  31  14  32   8
M  ISO  5  33   8  34  14  35  14  36  14  37  14
M  END
>  <minimizedAffinity>  (1) 
-5.06733942

>  <minimizedRMSD>  (1) 
0.303682327

$$$$
