
     RDKit          3D

 38 41  0  0  1  0  0  0  0  0999 V2000
   46.5870   34.1430   40.7540 C   0  0  2  0  0  0  0  0  0  0  0  0
   48.5140   35.4440   41.5500 C   0  0  0  0  0  0  0  0  0  0  0  0
   47.8420   34.2700   41.3720 C   0  0  0  0  0  0  0  0  0  0  0  0
   48.5010   33.1300   41.8250 C   0  0  0  0  0  0  0  0  0  0  0  0
   49.7260   33.1720   42.4020 N   0  0  0  0  0  0  0  0  0  0  0  0
   50.3270   34.3980   42.5390 C   0  0  0  0  0  0  0  0  0  0  0  0
   49.7280   35.4950   42.1200 N   0  0  0  0  0  0  0  0  0  0  0  0
   45.4440   34.7070   41.6180 C   0  0  0  0  0  0  0  0  0  0  0  0
   44.1650   34.8950   41.0640 C   0  0  0  0  0  0  0  0  0  0  0  0
   43.4460   35.4050   42.1330 C   0  0  0  0  0  0  0  0  0  0  0  0
   44.3110   35.4980   43.2500 C   0  0  0  0  0  0  0  0  0  0  0  0
   45.4910   35.0680   42.8900 O   0  0  0  0  0  0  0  0  0  0  0  0
   46.2580   32.8220   40.2190 C   0  0  0  0  0  0  0  0  0  0  0  0
   46.2990   32.8140   38.7640 N   0  0  0  0  0  0  0  0  0  0  0  0
   45.2040   33.0740   38.0600 N   0  0  0  0  0  0  0  0  0  0  0  0
   45.3980   33.0220   36.7750 C   0  0  0  0  0  0  0  0  0  0  0  0
   46.6990   32.7110   36.5690 C   0  0  0  0  0  0  0  0  0  0  0  0
   47.2140   32.5920   37.8470 C   0  0  0  0  0  0  0  0  0  0  0  0
   47.4280   32.5320   35.3590 N   0  0  0  0  0  0  0  0  0  0  0  0
   46.9510   32.0030   34.2190 C   0  0  0  0  0  0  0  0  0  0  0  0
   47.8960   31.9750   33.2610 N   0  0  0  0  0  0  0  0  0  0  0  0
   48.9940   32.5010   33.8210 C   0  0  0  0  0  0  0  0  0  0  0  0
   48.6890   32.8330   35.0930 N   0  0  0  0  0  0  0  0  0  0  0  0
   48.5740   32.2760   38.2450 N   0  0  0  0  0  0  0  0  0  0  0  0
   46.6910   34.7726   39.8580 H   0  0  0  0  0  0  0  0  0  0  0  0
   48.0447   36.3807   41.2149 H   0  0  0  0  0  0  0  0  0  0  0  0
   48.0061   32.1544   41.7095 H   0  0  0  0  0  0  0  0  0  0  0  0
   51.3213   34.4663   43.0044 H   0  0  0  0  0  0  0  0  0  0  0  0
   43.8217   34.6889   40.0395 H   0  0  0  0  0  0  0  0  0  0  0  0
   42.3835   35.6894   42.1166 H   0  0  0  0  0  0  0  0  0  0  0  0
   44.0368   35.8684   44.2488 H   0  0  0  0  0  0  0  0  0  0  0  0
   46.9841   32.0897   40.6017 H   0  0  0  0  0  0  0  0  0  0  0  0
   45.2378   32.5629   40.5384 H   0  0  0  0  0  0  0  0  0  0  0  0
   44.6414   33.1988   35.9963 H   0  0  0  0  0  0  0  0  0  0  0  0
   45.9212   31.6398   34.0862 H   0  0  0  0  0  0  0  0  0  0  0  0
   49.9695   32.6377   33.3314 H   0  0  0  0  0  0  0  0  0  0  0  0
   48.8184   32.2198   39.2440 H   0  0  0  0  0  0  0  0  0  0  0  0
   49.2945   32.1080   37.5283 H   0  0  0  0  0  0  0  0  0  0  0  0
  1  3  1  0
  1  8  1  0
  2  7  2  0
  3  2  1  0
  3  4  2  0
  4  5  1  0
  5  6  2  0
  7  6  1  0
  8 12  1  0
  9  8  2  0
  9 10  1  0
 10 11  2  0
 12 11  1  0
 13  1  1  0
 14 13  1  0
 15 14  1  0
 16 15  2  0
 17 16  1  0
 17 18  2  0
 18 24  1  0
 18 14  1  0
 19 17  1  0
 20 19  1  0
 21 22  1  0
 21 20  2  0
 22 23  2  0
 23 19  1  0
  1 25  1  6
  2 26  1  0
  4 27  1  0
  6 28  1  0
  9 29  1  0
 10 30  1  0
 11 31  1  0
 13 32  1  0
 13 33  1  0
 16 34  1  0
 20 35  1  0
 22 36  1  0
 24 37  1  0
 24 38  1  0
M  ISO  8  25   8  26  14  27  14  28  14  29  14  30  14  31  14  32   8
M  ISO  4  33   8  34  14  35  14  36  14
M  END
>  <minimizedAffinity>  (1) 
-5.1141572

>  <minimizedRMSD>  (1) 
0.288677871

$$$$
