
     RDKit          3D

 33 35  0  0  1  0  0  0  0  0999 V2000
   46.5910   34.2150   40.7650 C   0  0  2  0  0  0  0  0  0  0  0  0
   48.5570   35.4740   41.5430 C   0  0  0  0  0  0  0  0  0  0  0  0
   47.8420   34.3200   41.3990 C   0  0  0  0  0  0  0  0  0  0  0  0
   48.4470   33.1790   41.9060 C   0  0  0  0  0  0  0  0  0  0  0  0
   49.6650   33.1980   42.5020 N   0  0  0  0  0  0  0  0  0  0  0  0
   50.3090   34.4070   42.5990 C   0  0  0  0  0  0  0  0  0  0  0  0
   49.7610   35.5090   42.1280 N   0  0  0  0  0  0  0  0  0  0  0  0
   45.4440   34.7440   41.6460 C   0  0  0  0  0  0  0  0  0  0  0  0
   44.1530   34.9060   41.0880 C   0  0  0  0  0  0  0  0  0  0  0  0
   43.4350   35.3920   42.1820 C   0  0  0  0  0  0  0  0  0  0  0  0
   44.3000   35.4900   43.2900 C   0  0  0  0  0  0  0  0  0  0  0  0
   45.4880   35.0920   42.9200 O   0  0  0  0  0  0  0  0  0  0  0  0
   46.2690   32.9180   40.1770 C   0  0  0  0  0  0  0  0  0  0  0  0
   46.3620   32.9590   38.7210 N   0  0  0  0  0  0  0  0  0  0  0  0
   45.2710   33.0860   37.9840 N   0  0  0  0  0  0  0  0  0  0  0  0
   45.5010   33.1030   36.6980 C   0  0  0  0  0  0  0  0  0  0  0  0
   46.8460   32.9780   36.5430 C   0  0  0  0  0  0  0  0  0  0  0  0
   47.3300   32.8930   37.8330 C   0  0  0  0  0  0  0  0  0  0  0  0
   48.7090   32.7490   38.2790 N   0  0  0  0  0  0  0  0  0  0  0  0
   47.6080   32.9390   35.3970 O   0  0  0  0  0  0  0  0  0  0  0  0
   46.6977   34.8765   39.8926 H   0  0  0  0  0  0  0  0  0  0  0  0
   48.1269   36.4125   41.1633 H   0  0  0  0  0  0  0  0  0  0  0  0
   47.9167   32.2190   41.8210 H   0  0  0  0  0  0  0  0  0  0  0  0
   51.2982   34.4563   43.0776 H   0  0  0  0  0  0  0  0  0  0  0  0
   43.8073   34.7027   40.0637 H   0  0  0  0  0  0  0  0  0  0  0  0
   42.3671   35.6557   42.1795 H   0  0  0  0  0  0  0  0  0  0  0  0
   44.0224   35.8415   44.2947 H   0  0  0  0  0  0  0  0  0  0  0  0
   46.9741   32.1657   40.5602 H   0  0  0  0  0  0  0  0  0  0  0  0
   45.2361   32.6584   40.4521 H   0  0  0  0  0  0  0  0  0  0  0  0
   44.7529   33.1995   35.8974 H   0  0  0  0  0  0  0  0  0  0  0  0
   48.9221   32.6982   39.2854 H   0  0  0  0  0  0  0  0  0  0  0  0
   49.4711   32.6979   37.5880 H   0  0  0  0  0  0  0  0  0  0  0  0
   48.5913   32.8423   35.4594 H   0  0  0  0  0  0  0  0  0  0  0  0
  1  3  1  0
  1  8  1  0
  2  7  2  0
  3  2  1  0
  3  4  2  0
  4  5  1  0
  5  6  2  0
  7  6  1  0
  8 12  1  0
  9  8  2  0
  9 10  1  0
 10 11  2  0
 12 11  1  0
 13  1  1  0
 14 13  1  0
 15 14  1  0
 16 15  2  0
 17 16  1  0
 17 18  2  0
 18 19  1  0
 18 14  1  0
 20 17  1  0
  1 21  1  6
  2 22  1  0
  4 23  1  0
  6 24  1  0
  9 25  1  0
 10 26  1  0
 11 27  1  0
 13 28  1  0
 13 29  1  0
 16 30  1  0
 19 31  1  0
 19 32  1  0
 20 33  1  0
M  ISO  8  21   8  22  14  23  14  24  14  25  14  26  14  27  14  28   8
M  ISO  3  29   8  30  14  33   3
M  END
>  <minimizedAffinity>  (1) 
-4.69628859

>  <minimizedRMSD>  (1) 
0.0439284481

$$$$
