
     RDKit          3D

 35 37  0  0  1  0  0  0  0  0999 V2000
   44.7380   34.4710   42.8160 C   0  0  0  0  0  0  0  0  0  0  0  0
   44.1930   35.6850   43.2380 C   0  0  0  0  0  0  0  0  0  0  0  0
   44.3200   35.9780   44.5720 C   0  0  0  0  0  0  0  0  0  0  0  0
   44.9090   35.2070   45.4590 N   0  0  0  0  0  0  0  0  0  0  0  0
   45.4360   34.0250   45.0310 C   0  0  0  0  0  0  0  0  0  0  0  0
   45.3570   33.6560   43.7330 N   0  0  0  0  0  0  0  0  0  0  0  0
   46.1300   33.0590   45.9340 C   0  0  1  0  0  0  0  0  0  0  0  0
   45.4660   32.8250   47.2370 C   0  0  0  0  0  0  0  0  0  0  0  0
   46.4250   32.1310   48.1550 C   0  0  0  0  0  0  0  0  0  0  0  0
   47.3040   31.1170   47.5450 C   0  0  0  0  0  0  0  0  0  0  0  0
   47.3520   30.9720   46.0820 C   0  0  0  0  0  0  0  0  0  0  0  0
   46.2690   31.6820   45.3100 C   0  0  0  0  0  0  0  0  0  0  0  0
   44.6640   34.0740   41.4720 O   0  0  0  0  0  0  0  0  0  0  0  0
   43.4010   34.0400   40.8510 C   0  0  0  0  0  0  0  0  0  0  0  0
   43.1120   34.8520   39.9640 O   0  0  0  0  0  0  0  0  0  0  0  0
   42.9510   31.7450   41.8420 C   0  0  0  0  0  0  0  0  0  0  0  0
   42.5000   32.9770   41.3490 C   0  0  0  0  0  0  0  0  0  0  0  0
   41.1350   33.2490   41.3110 C   0  0  0  0  0  0  0  0  0  0  0  0
   40.2720   32.2700   41.7730 N   0  0  0  0  0  0  0  0  0  0  0  0
   40.7610   31.1030   42.2370 C   0  0  0  0  0  0  0  0  0  0  0  0
   42.0590   30.8430   42.2720 N   0  0  0  0  0  0  0  0  0  0  0  0
   43.6894   36.3690   42.5391 H   0  0  0  0  0  0  0  0  0  0  0  0
   43.8972   36.9297   44.9262 H   0  0  0  0  0  0  0  0  0  0  0  0
   47.0998   33.5527   46.0944 H   0  0  0  0  0  0  0  0  0  0  0  0
   45.1660   33.7878   47.6763 H   0  0  0  0  0  0  0  0  0  0  0  0
   44.5722   32.2005   47.0919 H   0  0  0  0  0  0  0  0  0  0  0  0
   46.4709   32.3659   49.2286 H   0  0  0  0  0  0  0  0  0  0  0  0
   47.9233   30.4695   48.1831 H   0  0  0  0  0  0  0  0  0  0  0  0
   48.3212   31.3615   45.7371 H   0  0  0  0  0  0  0  0  0  0  0  0
   47.2010   29.9002   45.8858 H   0  0  0  0  0  0  0  0  0  0  0  0
   45.3206   31.1305   45.3903 H   0  0  0  0  0  0  0  0  0  0  0  0
   46.5214   31.7520   44.2417 H   0  0  0  0  0  0  0  0  0  0  0  0
   44.0274   31.5209   41.8755 H   0  0  0  0  0  0  0  0  0  0  0  0
   40.7558   34.2077   40.9275 H   0  0  0  0  0  0  0  0  0  0  0  0
   40.0570   30.3394   42.5995 H   0  0  0  0  0  0  0  0  0  0  0  0
  1  2  2  0
  1  6  1  0
  2  3  1  0
  3  4  2  0
  5  4  1  0
  6  5  2  0
  7  5  1  0
  7  8  1  0
  8  9  1  0
 10  9  2  0
 11 10  1  0
 12  7  1  0
 12 11  1  0
 13  1  1  0
 14 17  1  0
 14 13  1  0
 15 14  2  0
 16 21  2  0
 17 16  1  0
 18 17  2  0
 18 19  1  0
 19 20  2  0
 20 21  1  0
  2 22  1  0
  3 23  1  0
  7 24  1  1
  8 25  1  0
  8 26  1  0
  9 27  1  0
 10 28  1  0
 11 29  1  0
 11 30  1  0
 12 31  1  0
 12 32  1  0
 16 33  1  0
 18 34  1  0
 20 35  1  0
M  ISO  8  22  14  23  14  24  13  25  13  26  13  27  13  28  13  29  13
M  ISO  6  30  13  31  13  32  13  33  14  34  14  35  14
M  END
>  <minimizedAffinity>  (1) 
-5.03894043

>  <minimizedRMSD>  (1) 
5.42914391

$$$$
