
     RDKit          3D

 35 38  0  0  0  0  0  0  0  0999 V2000
   42.7970   32.6390   39.2570 C   0  0  0  0  0  0  0  0  0  0  0  0
   41.9660   33.6760   38.8510 C   0  0  0  0  0  0  0  0  0  0  0  0
   42.2940   34.9290   39.2970 C   0  0  0  0  0  0  0  0  0  0  0  0
   43.3280   35.2020   40.0720 N   0  0  0  0  0  0  0  0  0  0  0  0
   44.1280   34.1810   40.4590 C   0  0  0  0  0  0  0  0  0  0  0  0
   43.8760   32.9120   40.0620 N   0  0  0  0  0  0  0  0  0  0  0  0
   45.2510   34.4420   41.2940 N   0  0  0  0  0  0  0  0  0  0  0  0
   45.2140   34.8840   42.5580 C   0  0  0  0  0  0  0  0  0  0  0  0
   46.4640   35.0200   43.0430 N   0  0  0  0  0  0  0  0  0  0  0  0
   47.3030   34.6560   42.0580 C   0  0  0  0  0  0  0  0  0  0  0  0
   48.6890   34.5780   41.9370 C   0  0  0  0  0  0  0  0  0  0  0  0
   49.4260   34.8970   42.9080 O   0  0  0  0  0  0  0  0  0  0  0  0
   49.1870   34.1550   40.7580 N   0  0  0  0  0  0  0  0  0  0  0  0
   48.4420   33.8030   39.6940 C   0  0  0  0  0  0  0  0  0  0  0  0
   49.1340   33.3770   38.5220 N   0  0  0  0  0  0  0  0  0  0  0  0
   47.0820   33.8720   39.7880 N   0  0  0  0  0  0  0  0  0  0  0  0
   46.5420   34.2900   40.9520 C   0  0  0  0  0  0  0  0  0  0  0  0
   42.5550   31.3030   38.8580 O   0  0  0  0  0  0  0  0  0  0  0  0
   41.3370   30.7050   39.2410 C   0  0  0  0  0  0  0  0  0  0  0  0
   40.4710   30.4700   38.3770 O   0  0  0  0  0  0  0  0  0  0  0  0
   41.7530   29.2580   41.2700 C   0  0  0  0  0  0  0  0  0  0  0  0
   41.2150   30.4100   40.6720 C   0  0  0  0  0  0  0  0  0  0  0  0
   40.5260   31.3400   41.4500 C   0  0  0  0  0  0  0  0  0  0  0  0
   40.4060   31.0740   42.7980 N   0  0  0  0  0  0  0  0  0  0  0  0
   40.9380   29.9550   43.3260 C   0  0  0  0  0  0  0  0  0  0  0  0
   41.5950   29.0700   42.5830 N   0  0  0  0  0  0  0  0  0  0  0  0
   41.0921   33.5003   38.2064 H   0  0  0  0  0  0  0  0  0  0  0  0
   41.6512   35.7664   38.9880 H   0  0  0  0  0  0  0  0  0  0  0  0
   44.2944   35.1045   43.1200 H   0  0  0  0  0  0  0  0  0  0  0  0
   50.2111   34.0970   40.6648 H   0  0  0  0  0  0  0  0  0  0  0  0
   50.1635   33.3468   38.5142 H   0  0  0  0  0  0  0  0  0  0  0  0
   48.6042   33.0995   37.6834 H   0  0  0  0  0  0  0  0  0  0  0  0
   42.2981   28.5194   40.6639 H   0  0  0  0  0  0  0  0  0  0  0  0
   40.0953   32.2497   41.0061 H   0  0  0  0  0  0  0  0  0  0  0  0
   40.8255   29.7679   44.4041 H   0  0  0  0  0  0  0  0  0  0  0  0
  1  6  1  0
  2  1  2  0
  2  3  1  0
  3  4  2  0
  4  5  1  0
  5  7  1  0
  6  5  2  0
  7  8  1  0
  8  9  2  0
 10  9  1  0
 11 10  1  0
 11 12  2  0
 13 11  1  0
 14 16  2  0
 14 13  1  0
 15 14  1  0
 16 17  1  0
 17  7  1  0
 17 10  2  0
 18 19  1  0
 18  1  1  0
 19 22  1  0
 20 19  2  0
 21 26  2  0
 22 21  1  0
 22 23  2  0
 23 24  1  0
 24 25  2  0
 26 25  1  0
  2 27  1  0
  3 28  1  0
  8 29  1  0
 13 30  1  0
 15 31  1  0
 15 32  1  0
 21 33  1  0
 23 34  1  0
 25 35  1  0
M  ISO  7  27  14  28  14  29  14  30   9  33  14  34  14  35  14
M  END
>  <minimizedAffinity>  (1) 
-5.26870441

>  <minimizedRMSD>  (1) 
6.15312433

$$$$
