
     RDKit          3D

 27 29  0  0  0  0  0  0  0  0999 V2000
   46.2610   34.2100   40.7420 C   0  0  0  0  0  0  0  0  0  0  0  0
   46.7380   33.4570   39.6790 C   0  0  0  0  0  0  0  0  0  0  0  0
   45.8100   32.9850   38.7880 C   0  0  0  0  0  0  0  0  0  0  0  0
   44.5060   33.1940   38.8700 N   0  0  0  0  0  0  0  0  0  0  0  0
   44.0660   33.9370   39.9260 C   0  0  0  0  0  0  0  0  0  0  0  0
   44.9290   34.4400   40.8520 N   0  0  0  0  0  0  0  0  0  0  0  0
   42.6050   34.1750   40.0220 C   0  0  0  0  0  0  0  0  0  0  0  0
   42.2310   34.4640   41.3430 C   0  0  0  0  0  0  0  0  0  0  0  0
   40.4050   34.7190   41.2260 S   0  0  0  0  0  0  0  0  0  0  0  0
   40.4800   34.3780   39.3560 C   0  0  0  0  0  0  0  0  0  0  0  0
   41.5750   34.1850   39.1970 N   0  0  0  0  0  0  0  0  0  0  0  0
   47.1340   34.7370   41.7090 O   0  0  0  0  0  0  0  0  0  0  0  0
   47.6300   33.8700   42.7190 C   0  0  0  0  0  0  0  0  0  0  0  0
   48.6690   33.2240   42.5170 O   0  0  0  0  0  0  0  0  0  0  0  0
   45.7770   34.7530   44.2060 C   0  0  0  0  0  0  0  0  0  0  0  0
   46.8220   33.8300   43.9500 C   0  0  0  0  0  0  0  0  0  0  0  0
   47.1250   32.8330   44.8740 C   0  0  0  0  0  0  0  0  0  0  0  0
   46.3780   32.7900   46.0220 N   0  0  0  0  0  0  0  0  0  0  0  0
   45.3830   33.6860   46.2410 C   0  0  0  0  0  0  0  0  0  0  0  0
   45.0860   34.6410   45.3640 N   0  0  0  0  0  0  0  0  0  0  0  0
   47.8112   33.2485   39.5570 H   0  0  0  0  0  0  0  0  0  0  0  0
   46.1768   32.3872   37.9406 H   0  0  0  0  0  0  0  0  0  0  0  0
   42.8718   34.5243   42.2351 H   0  0  0  0  0  0  0  0  0  0  0  0
   39.6622   34.3715   38.6204 H   0  0  0  0  0  0  0  0  0  0  0  0
   45.5333   35.5424   43.4797 H   0  0  0  0  0  0  0  0  0  0  0  0
   47.9321   32.1087   44.6896 H   0  0  0  0  0  0  0  0  0  0  0  0
   44.8034   33.6206   47.1736 H   0  0  0  0  0  0  0  0  0  0  0  0
  1  6  1  0
  1 12  1  0
  2  1  2  0
  3  4  2  0
  3  2  1  0
  4  5  1  0
  5  7  1  0
  5  6  2  0
  7  8  2  0
  9  8  1  0
 10  9  1  0
 11 10  2  0
 11  7  1  0
 12 13  1  0
 13 16  1  0
 14 13  2  0
 15 20  2  0
 16 15  1  0
 16 17  2  0
 17 18  1  0
 18 19  2  0
 20 19  1  0
  2 21  1  0
  3 22  1  0
  8 23  1  0
 10 24  1  0
 15 25  1  0
 17 26  1  0
 19 27  1  0
M  ISO  7  21  14  22  14  23  14  24  14  25  14  26  14  27  14
M  END
>  <minimizedAffinity>  (1) 
-4.42613506

>  <minimizedRMSD>  (1) 
6.57812262

$$$$
