
     RDKit          3D

 32 34  0  0  0  0  0  0  0  0999 V2000
   45.4291   33.1144   42.2828 C   0  0  0  0  0  0  0  0  0  0  0  0
   44.4120   33.3456   41.6120 O   0  0  0  0  0  0  0  0  0  0  0  0
   45.9453   32.0482   44.5270 C   0  0  0  0  0  0  0  0  0  0  0  0
   45.5190   33.1354   43.7512 C   0  0  0  0  0  0  0  0  0  0  0  0
   45.1500   34.3261   44.3841 C   0  0  0  0  0  0  0  0  0  0  0  0
   45.2222   34.3801   45.7575 N   0  0  0  0  0  0  0  0  0  0  0  0
   45.6373   33.3104   46.4554 C   0  0  0  0  0  0  0  0  0  0  0  0
   45.9952   32.1586   45.8583 N   0  0  0  0  0  0  0  0  0  0  0  0
   46.6351   32.7976   41.6219 O   0  0  0  0  0  0  0  0  0  0  0  0
   47.7472   33.6428   41.8123 C   0  0  0  0  0  0  0  0  0  0  0  0
   47.7352   34.9621   41.3621 C   0  0  0  0  0  0  0  0  0  0  0  0
   48.8724   35.7025   41.5985 C   0  0  0  0  0  0  0  0  0  0  0  0
   49.9533   35.2643   42.2085 N   0  0  0  0  0  0  0  0  0  0  0  0
   49.9497   33.9682   42.6442 C   0  0  0  0  0  0  0  0  0  0  0  0
   48.8550   33.1678   42.4462 N   0  0  0  0  0  0  0  0  0  0  0  0
   46.2120   31.1619   43.9363 H   0  0  0  0  0  0  0  0  0  0  0  0
   44.8089   35.2185   43.8812 H   0  0  0  0  0  0  0  0  0  0  0  0
   45.6728   33.4132   47.5292 H   0  0  0  0  0  0  0  0  0  0  0  0
   46.8671   35.3536   40.8588 H   0  0  0  0  0  0  0  0  0  0  0  0
   48.8939   36.7328   41.2601 H   0  0  0  0  0  0  0  0  0  0  0  0
   51.0667   33.3764   43.3214 N   0  0  0  0  0  0  0  0  0  0  0  0
   51.4123   33.9654   44.4811 C   0  0  0  0  0  0  0  0  0  0  0  0
   52.4811   33.4381   45.1769 C   0  0  0  0  0  0  0  0  0  0  0  0
   53.1114   32.3429   44.6223 C   0  0  0  0  0  0  0  0  0  0  0  0
   54.2164   31.7693   45.3068 N   0  0  0  0  0  0  0  0  0  0  0  0
   52.7281   31.7869   43.4558 N   0  0  0  0  0  0  0  0  0  0  0  0
   51.6765   32.3061   42.7715 C   0  0  0  0  0  0  0  0  0  0  0  0
   51.2223   31.8811   41.6770 O   0  0  0  0  0  0  0  0  0  0  0  0
   50.8780   34.8234   44.8648 H   0  0  0  0  0  0  0  0  0  0  0  0
   52.8311   33.8352   46.1060 H   0  0  0  0  0  0  0  0  0  0  0  0
   55.1463   32.0814   44.9235 H   0  0  0  0  0  0  0  0  0  0  0  0
   55.2465   31.6619   45.4291 H   0  0  0  0  0  0  0  0  0  0  0  0
  1  4  1  0
  2  1  2  0
  3  8  2  0
  4  5  2  0
  4  3  1  0
  5  6  1  0
  6  7  2  0
  8  7  1  0
  9 10  1  0
  9  1  1  0
 10 15  2  0
 11 12  2  0
 11 10  1  0
 12 13  1  0
 13 14  2  0
 15 14  1  0
  3 16  1  0
  5 17  1  0
  7 18  1  0
 11 19  1  0
 12 20  1  0
 21 22  1  0
 22 23  2  0
 23 24  1  0
 24 25  1  0
 24 26  2  0
 26 27  1  0
 27 28  2  0
 27 21  1  0
 22 29  1  0
 23 30  1  0
 25 31  1  0
 25 32  1  0
 14 21  1  0
M  END
>  <DihAtoms>  (1) 
12,13,20,21

>  <DihDeg>  (1) 
-74.14949156999322

$$$$
