
     RDKit          3D

 23 24  0  0  0  0  0  0  0  0999 V2000
   44.5250   34.1410   42.8060 O   0  0  0  0  0  0  0  0  0  0  0  0
   43.6540   34.0340   41.7060 C   0  0  0  0  0  0  0  0  0  0  0  0
   43.9740   33.2640   40.5950 C   0  0  0  0  0  0  0  0  0  0  0  0
   43.0560   33.2270   39.5780 C   0  0  0  0  0  0  0  0  0  0  0  0
   41.8960   33.8690   39.5840 N   0  0  0  0  0  0  0  0  0  0  0  0
   41.6050   34.6130   40.6780 C   0  0  0  0  0  0  0  0  0  0  0  0
   42.4610   34.7000   41.7230 N   0  0  0  0  0  0  0  0  0  0  0  0
   40.3480   35.3510   40.7610 C   0  0  0  0  0  0  0  0  0  0  0  0
   40.2590   36.5570   40.4160 O   0  0  0  0  0  0  0  0  0  0  0  0
   45.5350   35.1370   42.7630 C   0  0  0  0  0  0  0  0  0  0  0  0
   45.2530   36.3230   42.9850 O   0  0  0  0  0  0  0  0  0  0  0  0
   47.7160   34.0110   43.3980 C   0  0  0  0  0  0  0  0  0  0  0  0
   46.8790   34.6250   42.4440 C   0  0  0  0  0  0  0  0  0  0  0  0
   47.3100   34.7720   41.1220 C   0  0  0  0  0  0  0  0  0  0  0  0
   48.5630   34.3010   40.8020 N   0  0  0  0  0  0  0  0  0  0  0  0
   49.3320   33.7200   41.7450 C   0  0  0  0  0  0  0  0  0  0  0  0
   48.9280   33.5760   43.0130 N   0  0  0  0  0  0  0  0  0  0  0  0
   44.9217   32.7088   40.5342 H   0  0  0  0  0  0  0  0  0  0  0  0
   43.2992   32.6209   38.6929 H   0  0  0  0  0  0  0  0  0  0  0  0
   39.4514   34.8364   41.1368 H   0  0  0  0  0  0  0  0  0  0  0  0
   47.3829   33.8901   44.4393 H   0  0  0  0  0  0  0  0  0  0  0  0
   46.6700   35.2475   40.3642 H   0  0  0  0  0  0  0  0  0  0  0  0
   50.3286   33.3505   41.4617 H   0  0  0  0  0  0  0  0  0  0  0  0
  2  7  1  0
  2  1  1  0
  3  2  2  0
  4  5  2  0
  4  3  1  0
  5  6  1  0
  6  8  1  0
  6  7  2  0
  9  8  2  0
 10  1  1  0
 10 11  2  0
 13 10  1  0
 13 12  2  0
 14 13  1  0
 15 14  2  0
 15 16  1  0
 16 17  2  0
 17 12  1  0
  3 18  1  0
  4 19  1  0
  8 20  1  0
 12 21  1  0
 14 22  1  0
 16 23  1  0
M  ISO  6  18  14  19  14  20   6  21  14  22  14  23  14
M  END
>  <minimizedAffinity>  (1) 
-3.99334741

>  <minimizedRMSD>  (1) 
6.40970421

$$$$
