
     RDKit          3D

 47 50  0  0  0  0  0  0  0  0999 V2000
   42.7750   34.5950   40.9410 C   0  0  0  0  0  0  0  0  0  0  0  0
   42.9750   35.3330   39.7920 C   0  0  0  0  0  0  0  0  0  0  0  0
   41.9950   34.9540   38.8840 C   0  0  0  0  0  0  0  0  0  0  0  0
   41.2370   34.0150   39.4890 N   0  0  0  0  0  0  0  0  0  0  0  0
   41.6990   33.8020   40.7050 N   0  0  0  0  0  0  0  0  0  0  0  0
   40.1290   33.4160   38.8080 C   0  0  0  0  0  0  0  0  0  0  0  0
   38.9260   34.0140   38.5070 C   0  0  0  0  0  0  0  0  0  0  0  0
   38.1040   33.1180   37.8420 C   0  0  0  0  0  0  0  0  0  0  0  0
   38.8320   32.0020   37.7600 N   0  0  0  0  0  0  0  0  0  0  0  0
   40.0330   32.1730   38.3310 N   0  0  0  0  0  0  0  0  0  0  0  0
   38.5120   30.7420   37.1820 C   0  0  0  0  0  0  0  0  0  0  0  0
   38.3080   29.6590   38.0230 C   0  0  0  0  0  0  0  0  0  0  0  0
   37.9910   28.3760   37.5920 C   0  0  0  0  0  0  0  0  0  0  0  0
   37.8690   28.1610   36.2430 C   0  0  0  0  0  0  0  0  0  0  0  0
   38.0690   29.2330   35.3700 C   0  0  0  0  0  0  0  0  0  0  0  0
   38.3830   30.4960   35.8290 C   0  0  0  0  0  0  0  0  0  0  0  0
   43.5750   34.7200   42.0540 O   0  0  0  0  0  0  0  0  0  0  0  0
   44.8130   34.0870   42.0540 C   0  0  0  0  0  0  0  0  0  0  0  0
   45.7560   34.8910   42.9340 C   0  0  0  0  0  0  0  0  0  0  0  0
   45.1470   34.4710   45.2960 C   0  0  0  0  0  0  0  0  0  0  0  0
   45.9770   34.1530   44.1960 C   0  0  0  0  0  0  0  0  0  0  0  0
   46.9250   33.1650   44.4210 C   0  0  0  0  0  0  0  0  0  0  0  0
   47.0160   32.5720   45.6210 N   0  0  0  0  0  0  0  0  0  0  0  0
   46.2040   32.9080   46.6400 C   0  0  0  0  0  0  0  0  0  0  0  0
   45.2560   33.8690   46.4800 N   0  0  0  0  0  0  0  0  0  0  0  0
   47.0650   35.1260   42.2380 C   0  0  0  0  0  0  0  0  0  0  0  0
   45.0970   36.2030   43.2150 C   0  0  0  0  0  0  0  0  0  0  0  0
   43.7636   36.0818   39.6264 H   0  0  0  0  0  0  0  0  0  0  0  0
   41.8616   35.3450   37.8645 H   0  0  0  0  0  0  0  0  0  0  0  0
   38.6568   35.0507   38.7575 H   0  0  0  0  0  0  0  0  0  0  0  0
   37.0839   33.2878   37.4671 H   0  0  0  0  0  0  0  0  0  0  0  0
   38.4036   29.8264   39.1060 H   0  0  0  0  0  0  0  0  0  0  0  0
   37.8424   27.5574   38.3116 H   0  0  0  0  0  0  0  0  0  0  0  0
   37.6182   27.1625   35.8555 H   0  0  0  0  0  0  0  0  0  0  0  0
   37.9736   29.0658   34.2870 H   0  0  0  0  0  0  0  0  0  0  0  0
   38.5321   31.3151   35.1101 H   0  0  0  0  0  0  0  0  0  0  0  0
   44.7100   33.0670   42.4528 H   0  0  0  0  0  0  0  0  0  0  0  0
   45.2087   34.0250   41.0295 H   0  0  0  0  0  0  0  0  0  0  0  0
   44.3789   35.2481   45.1690 H   0  0  0  0  0  0  0  0  0  0  0  0
   47.6061   32.8662   43.6105 H   0  0  0  0  0  0  0  0  0  0  0  0
   46.3082   32.4008   47.6105 H   0  0  0  0  0  0  0  0  0  0  0  0
   47.8581   35.2684   42.9869 H   0  0  0  0  0  0  0  0  0  0  0  0
   47.3068   34.2569   41.6086 H   0  0  0  0  0  0  0  0  0  0  0  0
   46.9894   36.0249   41.6086 H   0  0  0  0  0  0  0  0  0  0  0  0
   45.0229   36.3506   44.3025 H   0  0  0  0  0  0  0  0  0  0  0  0
   45.6942   37.0151   42.7746 H   0  0  0  0  0  0  0  0  0  0  0  0
   44.0890   36.2088   42.7746 H   0  0  0  0  0  0  0  0  0  0  0  0
  1 17  1  0
  2  1  1  0
  3  4  1  0
  3  2  2  0
  4  5  1  0
  5  1  2  0
  6  4  1  0
  7  6  1  0
  8  7  2  0
  9  8  1  0
  9 10  1  0
 10  6  2  0
 11  9  1  0
 11 12  2  0
 13 12  1  0
 14 13  2  0
 15 16  2  0
 15 14  1  0
 16 11  1  0
 17 18  1  0
 18 19  1  0
 19 27  1  0
 19 21  1  0
 20 25  2  0
 21 22  2  0
 21 20  1  0
 22 23  1  0
 23 24  2  0
 25 24  1  0
 26 19  1  0
  2 28  1  0
  3 29  1  0
  7 30  1  0
  8 31  1  0
 12 32  1  0
 13 33  1  0
 14 34  1  0
 15 35  1  0
 16 36  1  0
 18 37  1  0
 18 38  1  0
 20 39  1  0
 22 40  1  0
 24 41  1  0
 26 42  1  0
 26 43  1  0
 26 44  1  0
 27 45  1  0
 27 46  1  0
 27 47  1  0
M  ISO  8  28  14  29  14  30  14  31  14  32  14  33  14  34  14  35  14
M  ISO  8  36  14  37   8  38   8  39  14  40  14  41  14  42   8  43   8
M  ISO  4  44   8  45   8  46   8  47   8
M  END
>  <minimizedAffinity>  (1) 
-6.03294945

>  <minimizedRMSD>  (1) 
2.49400234

$$$$
