
     RDKit          3D

 27 28  0  0  0  0  0  0  0  0999 V2000
   44.1710   34.6540   42.5660 O   0  0  0  0  0  0  0  0  0  0  0  0
   43.7870   34.4490   41.2270 C   0  0  0  0  0  0  0  0  0  0  0  0
   44.4900   33.5640   40.4160 C   0  0  0  0  0  0  0  0  0  0  0  0
   44.0140   33.4510   39.1160 C   0  0  0  0  0  0  0  0  0  0  0  0
   42.9740   34.1030   38.6190 N   0  0  0  0  0  0  0  0  0  0  0  0
   42.3190   34.9530   39.4450 C   0  0  0  0  0  0  0  0  0  0  0  0
   42.7120   35.1300   40.7300 N   0  0  0  0  0  0  0  0  0  0  0  0
   41.1540   35.7040   38.9380 C   0  0  0  0  0  0  0  0  0  0  0  0
   41.3330   36.2270   37.5320 C   0  0  0  0  0  0  0  0  0  0  0  0
   45.3040   35.4790   42.8160 C   0  0  0  0  0  0  0  0  0  0  0  0
   45.1430   36.6980   43.0290 O   0  0  0  0  0  0  0  0  0  0  0  0
   46.8970   33.6820   43.6200 C   0  0  0  0  0  0  0  0  0  0  0  0
   46.5990   34.7830   42.7980 C   0  0  0  0  0  0  0  0  0  0  0  0
   47.5570   35.2650   41.9090 C   0  0  0  0  0  0  0  0  0  0  0  0
   48.7780   34.6340   41.8700 N   0  0  0  0  0  0  0  0  0  0  0  0
   49.0200   33.5730   42.6840 C   0  0  0  0  0  0  0  0  0  0  0  0
   48.1040   33.1180   43.5280 N   0  0  0  0  0  0  0  0  0  0  0  0
   45.3593   32.9953   40.7778 H   0  0  0  0  0  0  0  0  0  0  0  0
   44.5455   32.7622   38.4429 H   0  0  0  0  0  0  0  0  0  0  0  0
   40.2787   35.0379   38.9518 H   0  0  0  0  0  0  0  0  0  0  0  0
   41.0263   36.5789   39.5924 H   0  0  0  0  0  0  0  0  0  0  0  0
   41.6890   37.2671   37.5702 H   0  0  0  0  0  0  0  0  0  0  0  0
   42.0699   35.6065   37.0010 H   0  0  0  0  0  0  0  0  0  0  0  0
   40.3704   36.1882   37.0010 H   0  0  0  0  0  0  0  0  0  0  0  0
   46.1493   33.2921   44.3263 H   0  0  0  0  0  0  0  0  0  0  0  0
   47.3430   36.1250   41.2574 H   0  0  0  0  0  0  0  0  0  0  0  0
   50.0017   33.0786   42.6416 H   0  0  0  0  0  0  0  0  0  0  0  0
  1 10  1  0
  2  1  1  0
  3  2  2  0
  4  3  1  0
  5  4  2  0
  5  6  1  0
  6  7  2  0
  7  2  1  0
  8  6  1  0
  9  8  1  0
 10 11  2  0
 13 10  1  0
 13 12  2  0
 14 13  1  0
 15 14  2  0
 15 16  1  0
 16 17  2  0
 17 12  1  0
  3 18  1  0
  4 19  1  0
  8 20  1  0
  8 21  1  0
  9 22  1  0
  9 23  1  0
  9 24  1  0
 12 25  1  0
 14 26  1  0
 16 27  1  0
M  ISO  8  18  14  19  14  20   8  21   8  22   8  23   8  24   8  25  14
M  ISO  2  26  14  27  14
M  END
>  <minimizedAffinity>  (1) 
-4.35944986

>  <minimizedRMSD>  (1) 
6.11932993

$$$$
