
     RDKit          3D

 42 45  0  0  0  0  0  0  0  0999 V2000
   44.9310   34.0960   41.9320 C   0  0  0  0  0  0  0  0  0  0  0  0
   45.8290   34.9090   42.8570 C   0  0  0  0  0  0  0  0  0  0  0  0
   45.1830   34.4800   45.2080 C   0  0  0  0  0  0  0  0  0  0  0  0
   46.0200   34.1590   44.1150 C   0  0  0  0  0  0  0  0  0  0  0  0
   46.9450   33.1560   44.3470 C   0  0  0  0  0  0  0  0  0  0  0  0
   47.0200   32.5480   45.5350 N   0  0  0  0  0  0  0  0  0  0  0  0
   46.1990   32.8880   46.5510 C   0  0  0  0  0  0  0  0  0  0  0  0
   45.2690   33.8640   46.3880 N   0  0  0  0  0  0  0  0  0  0  0  0
   47.1550   35.1830   42.2110 C   0  0  0  0  0  0  0  0  0  0  0  0
   45.1340   36.2040   43.1340 C   0  0  0  0  0  0  0  0  0  0  0  0
   43.6350   34.5830   42.0500 O   0  0  0  0  0  0  0  0  0  0  0  0
   42.8020   34.4880   40.9580 C   0  0  0  0  0  0  0  0  0  0  0  0
   42.8990   35.3360   39.8720 C   0  0  0  0  0  0  0  0  0  0  0  0
   41.9100   34.9510   38.9710 C   0  0  0  0  0  0  0  0  0  0  0  0
   41.2550   33.9070   39.5170 N   0  0  0  0  0  0  0  0  0  0  0  0
   41.7820   33.6320   40.6930 N   0  0  0  0  0  0  0  0  0  0  0  0
   40.1740   33.2830   38.8260 C   0  0  0  0  0  0  0  0  0  0  0  0
   38.9130   33.8380   38.6160 C   0  0  0  0  0  0  0  0  0  0  0  0
   38.1340   32.9180   37.8960 C   0  0  0  0  0  0  0  0  0  0  0  0
   38.9350   31.8680   37.7030 N   0  0  0  0  0  0  0  0  0  0  0  0
   40.1430   32.0780   38.2520 N   0  0  0  0  0  0  0  0  0  0  0  0
   38.6750   30.6390   37.0330 C   0  0  0  0  0  0  0  0  0  0  0  0
   38.7650   30.1540   35.7720 N   0  0  0  0  0  0  0  0  0  0  0  0
   38.3760   28.9190   35.7590 O   0  0  0  0  0  0  0  0  0  0  0  0
   38.0190   28.5190   36.9490 C   0  0  0  0  0  0  0  0  0  0  0  0
   38.2020   29.5960   37.7660 N   0  0  0  0  0  0  0  0  0  0  0  0
   44.9587   33.0356   42.2230 H   0  0  0  0  0  0  0  0  0  0  0  0
   45.2774   34.1832   40.8916 H   0  0  0  0  0  0  0  0  0  0  0  0
   44.4292   35.2709   45.0801 H   0  0  0  0  0  0  0  0  0  0  0  0
   47.6296   32.8543   43.5406 H   0  0  0  0  0  0  0  0  0  0  0  0
   46.2839   32.3707   47.5181 H   0  0  0  0  0  0  0  0  0  0  0  0
   47.9164   35.3403   42.9891 H   0  0  0  0  0  0  0  0  0  0  0  0
   47.4422   34.3252   41.5851 H   0  0  0  0  0  0  0  0  0  0  0  0
   47.0787   36.0843   41.5851 H   0  0  0  0  0  0  0  0  0  0  0  0
   45.0544   36.3522   44.2211 H   0  0  0  0  0  0  0  0  0  0  0  0
   45.7096   37.0308   42.6923 H   0  0  0  0  0  0  0  0  0  0  0  0
   44.1268   36.1814   42.6923 H   0  0  0  0  0  0  0  0  0  0  0  0
   43.6192   36.1575   39.7437 H   0  0  0  0  0  0  0  0  0  0  0  0
   41.7017   35.4130   37.9947 H   0  0  0  0  0  0  0  0  0  0  0  0
   38.5832   34.8304   38.9571 H   0  0  0  0  0  0  0  0  0  0  0  0
   37.0921   33.0366   37.5639 H   0  0  0  0  0  0  0  0  0  0  0  0
   37.6485   27.5230   37.2333 H   0  0  0  0  0  0  0  0  0  0  0  0
  1 11  1  0
  1  2  1  0
  2 10  1  0
  2  4  1  0
  3  8  2  0
  4  5  2  0
  4  3  1  0
  5  6  1  0
  6  7  2  0
  8  7  1  0
  9  2  1  0
 12 11  1  0
 13 12  1  0
 14 15  1  0
 14 13  2  0
 15 16  1  0
 16 12  2  0
 17 15  1  0
 18 17  1  0
 19 18  2  0
 20 19  1  0
 20 21  1  0
 21 17  2  0
 22 20  1  0
 22 26  1  0
 23 22  2  0
 24 23  1  0
 24 25  1  0
 25 26  2  0
  1 27  1  0
  1 28  1  0
  3 29  1  0
  5 30  1  0
  7 31  1  0
  9 32  1  0
  9 33  1  0
  9 34  1  0
 10 35  1  0
 10 36  1  0
 10 37  1  0
 13 38  1  0
 14 39  1  0
 18 40  1  0
 19 41  1  0
 25 42  1  0
M  ISO  8  27   8  28   8  29  14  30  14  31  14  32   8  33   8  34   8
M  ISO  8  35   8  36   8  37   8  38  14  39  14  40  14  41  14  42  14
M  END
>  <minimizedAffinity>  (1) 
-6.00986433

>  <minimizedRMSD>  (1) 
2.1897347

$$$$
