
     RDKit          3D

 49 53  0  0  0  0  0  0  0  0999 V2000
   47.6700   32.5300   39.9120 C   0  0  0  0  0  0  0  0  0  0  0  0
   48.3960   33.4670   39.1550 C   0  0  0  0  0  0  0  0  0  0  0  0
   48.5410   34.7100   39.7260 C   0  0  0  0  0  0  0  0  0  0  0  0
   48.0570   35.0720   40.9000 N   0  0  0  0  0  0  0  0  0  0  0  0
   47.3610   34.1440   41.6070 C   0  0  0  0  0  0  0  0  0  0  0  0
   47.1600   32.8870   41.1370 N   0  0  0  0  0  0  0  0  0  0  0  0
   46.8050   34.4520   42.8830 N   0  0  0  0  0  0  0  0  0  0  0  0
   45.8280   35.5070   43.1020 C   0  0  0  0  0  0  0  0  0  0  0  0
   44.9090   34.9930   44.1920 C   0  0  0  0  0  0  0  0  0  0  0  0
   44.7880   33.5410   44.1640 N   0  0  0  0  0  0  0  0  0  0  0  0
   45.9990   32.8280   44.4090 C   0  0  0  0  0  0  0  0  0  0  0  0
   47.1800   33.7190   44.0800 C   0  0  0  0  0  0  0  0  0  0  0  0
   47.4560   31.2160   39.4270 O   0  0  0  0  0  0  0  0  0  0  0  0
   46.4190   31.0150   38.4850 C   0  0  0  0  0  0  0  0  0  0  0  0
   46.5750   30.2090   37.5620 O   0  0  0  0  0  0  0  0  0  0  0  0
   44.3400   31.5920   39.7800 C   0  0  0  0  0  0  0  0  0  0  0  0
   45.2120   31.8200   38.7130 C   0  0  0  0  0  0  0  0  0  0  0  0
   44.9540   32.8530   37.8330 C   0  0  0  0  0  0  0  0  0  0  0  0
   43.8510   33.6270   38.0310 N   0  0  0  0  0  0  0  0  0  0  0  0
   43.0250   33.4000   39.0600 C   0  0  0  0  0  0  0  0  0  0  0  0
   43.2660   32.4100   39.9020 N   0  0  0  0  0  0  0  0  0  0  0  0
   41.7940   34.0980   39.4690 C   0  0  0  0  0  0  0  0  0  0  0  0
   41.7380   35.1590   40.3180 N   0  0  0  0  0  0  0  0  0  0  0  0
   40.6510   35.7960   40.6940 C   0  0  0  0  0  0  0  0  0  0  0  0
   39.4400   35.4300   40.2450 N   0  0  0  0  0  0  0  0  0  0  0  0
   39.3760   34.3890   39.3980 C   0  0  0  0  0  0  0  0  0  0  0  0
   38.1180   34.0400   38.9580 C   0  0  0  0  0  0  0  0  0  0  0  0
   37.9700   32.9840   38.0870 C   0  0  0  0  0  0  0  0  0  0  0  0
   39.1310   32.3110   37.6920 C   0  0  0  0  0  0  0  0  0  0  0  0
   40.3550   32.7180   38.1750 C   0  0  0  0  0  0  0  0  0  0  0  0
   40.5370   33.7530   39.0320 C   0  0  0  0  0  0  0  0  0  0  0  0
   48.8203   33.2217   38.1702 H   0  0  0  0  0  0  0  0  0  0  0  0
   49.1062   35.4639   39.1584 H   0  0  0  0  0  0  0  0  0  0  0  0
   46.3279   36.4318   43.4259 H   0  0  0  0  0  0  0  0  0  0  0  0
   45.2740   35.7455   42.1821 H   0  0  0  0  0  0  0  0  0  0  0  0
   45.3123   35.2970   45.1692 H   0  0  0  0  0  0  0  0  0  0  0  0
   43.9096   35.4206   44.0236 H   0  0  0  0  0  0  0  0  0  0  0  0
   44.1037   33.2639   44.8822 H   0  0  0  0  0  0  0  0  0  0  0  0
   46.0444   32.5338   45.4679 H   0  0  0  0  0  0  0  0  0  0  0  0
   46.0302   31.9270   43.7787 H   0  0  0  0  0  0  0  0  0  0  0  0
   48.0770   33.1110   43.8910 H   0  0  0  0  0  0  0  0  0  0  0  0
   47.4171   34.3986   44.9118 H   0  0  0  0  0  0  0  0  0  0  0  0
   44.5186   30.7768   40.4966 H   0  0  0  0  0  0  0  0  0  0  0  0
   45.6285   33.0473   36.9860 H   0  0  0  0  0  0  0  0  0  0  0  0
   40.7354   36.6443   41.3892 H   0  0  0  0  0  0  0  0  0  0  0  0
   37.2366   34.6019   39.3007 H   0  0  0  0  0  0  0  0  0  0  0  0
   36.9792   32.6819   37.7168 H   0  0  0  0  0  0  0  0  0  0  0  0
   39.0667   31.4598   36.9982 H   0  0  0  0  0  0  0  0  0  0  0  0
   41.2462   32.1654   37.8427 H   0  0  0  0  0  0  0  0  0  0  0  0
  1  6  2  0
  2  3  2  0
  2  1  1  0
  3  4  1  0
  4  5  2  0
  5  7  1  0
  6  5  1  0
  7  8  1  0
  7 12  1  0
  8  9  1  0
 10  9  1  0
 10 11  1  0
 12 11  1  0
 13  1  1  0
 14 17  1  0
 14 13  1  0
 15 14  2  0
 16 21  2  0
 17 16  1  0
 18 19  1  0
 18 17  2  0
 19 20  2  0
 20 22  1  0
 20 21  1  0
 22 23  2  0
 23 24  1  0
 25 24  2  0
 26 25  1  0
 27 26  2  0
 28 27  1  0
 29 28  2  0
 29 30  1  0
 30 31  2  0
 31 26  1  0
 31 22  1  0
  2 32  1  0
  3 33  1  0
  8 34  1  0
  8 35  1  0
  9 36  1  0
  9 37  1  0
 10 38  1  0
 11 39  1  0
 11 40  1  0
 12 41  1  0
 12 42  1  0
 16 43  1  0
 18 44  1  0
 24 45  1  0
 27 46  1  0
 28 47  1  0
 29 48  1  0
 30 49  1  0
M  ISO  8  32  14  33  14  34  13  35  13  36  13  37  13  38   5  39  13
M  ISO  8  40  13  41  13  42  13  43  14  44  14  45  14  46  14  47  14
M  ISO  2  48  14  49  14
M  END
>  <minimizedAffinity>  (1) 
-6.19401073

>  <minimizedRMSD>  (1) 
1.57793319

$$$$
