
     RDKit          3D

 48 51  0  0  0  0  0  0  0  0999 V2000
   46.9570   33.2990   39.1160 C   0  0  0  0  0  0  0  0  0  0  0  0
   48.0210   34.0900   38.6790 C   0  0  0  0  0  0  0  0  0  0  0  0
   48.5400   34.9550   39.6160 C   0  0  0  0  0  0  0  0  0  0  0  0
   48.1250   35.0880   40.8510 N   0  0  0  0  0  0  0  0  0  0  0  0
   47.0850   34.3030   41.2540 C   0  0  0  0  0  0  0  0  0  0  0  0
   46.5090   33.4260   40.4090 N   0  0  0  0  0  0  0  0  0  0  0  0
   46.5740   34.3820   42.5700 N   0  0  0  0  0  0  0  0  0  0  0  0
   46.0090   35.5700   43.1640 C   0  0  0  0  0  0  0  0  0  0  0  0
   44.8940   35.1060   44.0620 C   0  0  0  0  0  0  0  0  0  0  0  0
   44.2820   33.8900   43.5800 N   0  0  0  0  0  0  0  0  0  0  0  0
   45.1500   32.7570   43.5370 C   0  0  0  0  0  0  0  0  0  0  0  0
   46.5820   33.2210   43.4600 C   0  0  0  0  0  0  0  0  0  0  0  0
   46.3440   32.3790   38.2530 O   0  0  0  0  0  0  0  0  0  0  0  0
   45.2330   32.8070   37.4930 C   0  0  0  0  0  0  0  0  0  0  0  0
   45.3870   33.4390   36.4470 O   0  0  0  0  0  0  0  0  0  0  0  0
   43.5700   31.1150   38.3880 C   0  0  0  0  0  0  0  0  0  0  0  0
   43.9240   32.4310   38.0590 C   0  0  0  0  0  0  0  0  0  0  0  0
   42.9990   33.4640   38.2730 C   0  0  0  0  0  0  0  0  0  0  0  0
   41.7720   33.1470   38.7990 N   0  0  0  0  0  0  0  0  0  0  0  0
   41.4840   31.8510   39.0990 C   0  0  0  0  0  0  0  0  0  0  0  0
   42.3640   30.8560   38.8980 N   0  0  0  0  0  0  0  0  0  0  0  0
   40.2410   31.4310   39.6470 N   0  0  0  0  0  0  0  0  0  0  0  0
   39.3860   30.5040   39.1810 C   0  0  0  0  0  0  0  0  0  0  0  0
   38.2250   30.2550   39.8800 C   0  0  0  0  0  0  0  0  0  0  0  0
   37.3160   29.2250   39.3300 C   0  0  0  0  0  0  0  0  0  0  0  0
   37.9110   30.9280   41.0410 C   0  0  0  0  0  0  0  0  0  0  0  0
   36.8470   30.6700   41.6420 O   0  0  0  0  0  0  0  0  0  0  0  0
   38.7910   31.8460   41.4710 N   0  0  0  0  0  0  0  0  0  0  0  0
   39.9430   32.0980   40.7850 C   0  0  0  0  0  0  0  0  0  0  0  0
   40.6610   32.9940   41.3290 O   0  0  0  0  0  0  0  0  0  0  0  0
   48.4180   34.0265   37.6551 H   0  0  0  0  0  0  0  0  0  0  0  0
   49.3789   35.5918   39.2987 H   0  0  0  0  0  0  0  0  0  0  0  0
   46.7727   36.1027   43.7497 H   0  0  0  0  0  0  0  0  0  0  0  0
   45.6393   36.2638   42.3946 H   0  0  0  0  0  0  0  0  0  0  0  0
   45.3003   34.9246   45.0680 H   0  0  0  0  0  0  0  0  0  0  0  0
   44.1232   35.8905   44.0799 H   0  0  0  0  0  0  0  0  0  0  0  0
   43.4901   33.6633   44.1984 H   0  0  0  0  0  0  0  0  0  0  0  0
   45.0091   32.1529   44.4454 H   0  0  0  0  0  0  0  0  0  0  0  0
   44.9144   32.1492   42.6510 H   0  0  0  0  0  0  0  0  0  0  0  0
   47.2212   32.4262   43.0480 H   0  0  0  0  0  0  0  0  0  0  0  0
   46.9812   33.4734   44.4534 H   0  0  0  0  0  0  0  0  0  0  0  0
   44.2861   30.2959   38.2259 H   0  0  0  0  0  0  0  0  0  0  0  0
   43.2519   34.5053   38.0245 H   0  0  0  0  0  0  0  0  0  0  0  0
   39.6099   29.9527   38.2558 H   0  0  0  0  0  0  0  0  0  0  0  0
   36.8357   28.6808   40.1565 H   0  0  0  0  0  0  0  0  0  0  0  0
   36.5449   29.7086   38.7123 H   0  0  0  0  0  0  0  0  0  0  0  0
   37.8917   28.5200   38.7123 H   0  0  0  0  0  0  0  0  0  0  0  0
   38.5927   32.3701   42.3353 H   0  0  0  0  0  0  0  0  0  0  0  0
  1  6  1  0
  2  1  2  0
  2  3  1  0
  3  4  2  0
  4  5  1  0
  5  7  1  0
  6  5  2  0
  7  8  1  0
  7 12  1  0
  8  9  1  0
 10  9  1  0
 11 10  1  0
 12 11  1  0
 13  1  1  0
 14 17  1  0
 14 13  1  0
 15 14  2  0
 16 21  2  0
 17 18  2  0
 17 16  1  0
 18 19  1  0
 19 20  2  0
 20 22  1  0
 21 20  1  0
 22 29  1  0
 23 22  1  0
 23 24  2  0
 24 26  1  0
 25 24  1  0
 26 28  1  0
 26 27  2  0
 29 30  2  0
 29 28  1  0
  2 31  1  0
  3 32  1  0
  8 33  1  0
  8 34  1  0
  9 35  1  0
  9 36  1  0
 10 37  1  0
 11 38  1  0
 11 39  1  0
 12 40  1  0
 12 41  1  0
 16 42  1  0
 18 43  1  0
 23 44  1  0
 25 45  1  0
 25 46  1  0
 25 47  1  0
 28 48  1  0
M  ISO  8  31  14  32  14  33  13  34  13  35  13  36  13  37   5  38  13
M  ISO  8  39  13  40  13  41  13  42  14  43  14  44  14  45   8  46   8
M  ISO  2  47   8  48   9
M  END
>  <minimizedAffinity>  (1) 
-6.13777018

>  <minimizedRMSD>  (1) 
1.42082858

$$$$
