
     RDKit          3D

 48 51  0  0  0  0  0  0  0  0999 V2000
   47.3650   32.6400   39.7910 C   0  0  0  0  0  0  0  0  0  0  0  0
   48.1770   33.5240   39.0660 C   0  0  0  0  0  0  0  0  0  0  0  0
   48.4460   34.7270   39.6830 C   0  0  0  0  0  0  0  0  0  0  0  0
   48.0000   35.0880   40.8770 N   0  0  0  0  0  0  0  0  0  0  0  0
   47.2200   34.2100   41.5460 C   0  0  0  0  0  0  0  0  0  0  0  0
   46.9000   32.9990   41.0220 N   0  0  0  0  0  0  0  0  0  0  0  0
   46.7030   34.5180   42.8290 N   0  0  0  0  0  0  0  0  0  0  0  0
   45.8260   35.6430   43.1110 C   0  0  0  0  0  0  0  0  0  0  0  0
   44.8760   35.1800   44.1820 C   0  0  0  0  0  0  0  0  0  0  0  0
   44.6280   33.7490   44.1040 N   0  0  0  0  0  0  0  0  0  0  0  0
   45.7570   32.9210   44.3060 C   0  0  0  0  0  0  0  0  0  0  0  0
   47.0180   33.7100   43.9940 C   0  0  0  0  0  0  0  0  0  0  0  0
   47.0280   31.3730   39.2460 O   0  0  0  0  0  0  0  0  0  0  0  0
   46.0660   31.3260   38.2190 C   0  0  0  0  0  0  0  0  0  0  0  0
   46.3830   30.9170   37.0910 O   0  0  0  0  0  0  0  0  0  0  0  0
   43.8800   31.0570   39.4650 C   0  0  0  0  0  0  0  0  0  0  0  0
   44.7240   31.7880   38.6080 C   0  0  0  0  0  0  0  0  0  0  0  0
   44.2850   33.0020   38.0970 C   0  0  0  0  0  0  0  0  0  0  0  0
   43.0330   33.4560   38.4450 N   0  0  0  0  0  0  0  0  0  0  0  0
   42.2580   32.7060   39.2810 C   0  0  0  0  0  0  0  0  0  0  0  0
   42.6780   31.5500   39.7650 N   0  0  0  0  0  0  0  0  0  0  0  0
   40.9660   33.1830   39.6340 N   0  0  0  0  0  0  0  0  0  0  0  0
   40.0740   33.7320   38.6420 C   0  0  0  0  0  0  0  0  0  0  0  0
   38.9020   34.4460   39.1990 C   0  0  0  0  0  0  0  0  0  0  0  0
   38.2810   33.8100   40.2560 O   0  0  0  0  0  0  0  0  0  0  0  0
   38.9600   32.7540   40.8020 C   0  0  0  0  0  0  0  0  0  0  0  0
   40.4130   33.1790   40.9640 C   0  0  0  0  0  0  0  0  0  0  0  0
   48.5731   33.2740   38.0707 H   0  0  0  0  0  0  0  0  0  0  0  0
   49.0809   35.4435   39.1413 H   0  0  0  0  0  0  0  0  0  0  0  0
   46.4122   36.5028   43.4676 H   0  0  0  0  0  0  0  0  0  0  0  0
   45.2852   35.9643   42.2086 H   0  0  0  0  0  0  0  0  0  0  0  0
   45.3085   35.4130   45.1662 H   0  0  0  0  0  0  0  0  0  0  0  0
   43.9180   35.7008   44.0370 H   0  0  0  0  0  0  0  0  0  0  0  0
   43.9272   33.5094   44.8198 H   0  0  0  0  0  0  0  0  0  0  0  0
   45.7835   32.5840   45.3528 H   0  0  0  0  0  0  0  0  0  0  0  0
   45.6959   32.0450   43.6435 H   0  0  0  0  0  0  0  0  0  0  0  0
   47.8516   33.0274   43.7723 H   0  0  0  0  0  0  0  0  0  0  0  0
   47.3263   34.3329   44.8466 H   0  0  0  0  0  0  0  0  0  0  0  0
   44.2073   30.0929   39.8813 H   0  0  0  0  0  0  0  0  0  0  0  0
   44.9268   33.5911   37.4254 H   0  0  0  0  0  0  0  0  0  0  0  0
   39.7072   32.9061   38.0149 H   0  0  0  0  0  0  0  0  0  0  0  0
   40.6543   34.4759   38.0765 H   0  0  0  0  0  0  0  0  0  0  0  0
   39.2372   35.4350   39.5448 H   0  0  0  0  0  0  0  0  0  0  0  0
   38.1586   34.4961   38.3898 H   0  0  0  0  0  0  0  0  0  0  0  0
   38.5318   32.4987   41.7825 H   0  0  0  0  0  0  0  0  0  0  0  0
   38.8852   31.8684   40.1538 H   0  0  0  0  0  0  0  0  0  0  0  0
   40.9532   32.4643   41.6023 H   0  0  0  0  0  0  0  0  0  0  0  0
   40.4975   34.1657   41.4429 H   0  0  0  0  0  0  0  0  0  0  0  0
  1  6  2  0
  2  3  2  0
  2  1  1  0
  3  4  1  0
  4  5  2  0
  5  7  1  0
  6  5  1  0
  7  8  1  0
  7 12  1  0
  8  9  1  0
 10  9  1  0
 10 11  1  0
 12 11  1  0
 13  1  1  0
 14 17  1  0
 14 13  1  0
 15 14  2  0
 16 21  2  0
 17 16  1  0
 18 19  1  0
 18 17  2  0
 19 20  2  0
 20 22  1  0
 20 21  1  0
 22 27  1  0
 23 24  1  0
 23 22  1  0
 24 25  1  0
 25 26  1  0
 26 27  1  0
  2 28  1  0
  3 29  1  0
  8 30  1  0
  8 31  1  0
  9 32  1  0
  9 33  1  0
 10 34  1  0
 11 35  1  0
 11 36  1  0
 12 37  1  0
 12 38  1  0
 16 39  1  0
 18 40  1  0
 23 41  1  0
 23 42  1  0
 24 43  1  0
 24 44  1  0
 26 45  1  0
 26 46  1  0
 27 47  1  0
 27 48  1  0
M  ISO  8  28  14  29  14  30  13  31  13  32  13  33  13  34   5  35  13
M  ISO  8  36  13  37  13  38  13  39  14  40  14  41  13  42  13  43  13
M  ISO  5  44  13  45  13  46  13  47  13  48  13
M  END
>  <minimizedAffinity>  (1) 
-5.50473785

>  <minimizedRMSD>  (1) 
0.634563446

$$$$
