
     RDKit          3D

 38 40  0  0  0  0  0  0  0  0999 V2000
   46.2440   32.6000   39.1510 C   0  0  0  0  0  0  0  0  0  0  0  0
   47.2140   33.2630   38.4040 C   0  0  0  0  0  0  0  0  0  0  0  0
   47.9320   34.2190   39.0660 C   0  0  0  0  0  0  0  0  0  0  0  0
   47.7770   34.5520   40.3310 N   0  0  0  0  0  0  0  0  0  0  0  0
   46.8230   33.8900   41.0360 C   0  0  0  0  0  0  0  0  0  0  0  0
   46.0540   32.9230   40.4770 N   0  0  0  0  0  0  0  0  0  0  0  0
   46.5840   34.1830   42.4130 N   0  0  0  0  0  0  0  0  0  0  0  0
   46.1810   35.4980   42.8950 C   0  0  0  0  0  0  0  0  0  0  0  0
   45.2390   35.2390   44.0530 C   0  0  0  0  0  0  0  0  0  0  0  0
   44.5220   33.9850   43.9010 N   0  0  0  0  0  0  0  0  0  0  0  0
   45.3240   32.8160   43.8630 C   0  0  0  0  0  0  0  0  0  0  0  0
   46.7270   33.1820   43.4430 C   0  0  0  0  0  0  0  0  0  0  0  0
   45.4420   31.5910   38.5670 O   0  0  0  0  0  0  0  0  0  0  0  0
   44.2740   31.9760   37.8820 C   0  0  0  0  0  0  0  0  0  0  0  0
   44.2010   31.7910   36.6620 O   0  0  0  0  0  0  0  0  0  0  0  0
   42.4950   31.8450   39.6780 C   0  0  0  0  0  0  0  0  0  0  0  0
   43.2250   32.5820   38.7350 C   0  0  0  0  0  0  0  0  0  0  0  0
   42.9860   33.9450   38.5590 C   0  0  0  0  0  0  0  0  0  0  0  0
   42.0130   34.5240   39.3450 N   0  0  0  0  0  0  0  0  0  0  0  0
   41.3380   33.7770   40.2370 C   0  0  0  0  0  0  0  0  0  0  0  0
   41.5620   32.4850   40.4070 N   0  0  0  0  0  0  0  0  0  0  0  0
   40.3150   34.4240   41.0510 C   0  0  0  0  0  0  0  0  0  0  0  0
   39.7580   35.5130   40.7620 O   0  0  0  0  0  0  0  0  0  0  0  0
   39.8380   33.9240   42.2320 O   0  0  0  0  0  0  0  0  0  0  0  0
   47.3919   33.0310   37.3436 H   0  0  0  0  0  0  0  0  0  0  0  0
   48.7040   34.7553   38.4946 H   0  0  0  0  0  0  0  0  0  0  0  0
   47.0586   36.0676   43.2345 H   0  0  0  0  0  0  0  0  0  0  0  0
   45.6984   36.0902   42.1036 H   0  0  0  0  0  0  0  0  0  0  0  0
   45.8228   35.2037   44.9846 H   0  0  0  0  0  0  0  0  0  0  0  0
   44.4991   36.0526   44.0777 H   0  0  0  0  0  0  0  0  0  0  0  0
   43.8704   33.8955   44.6936 H   0  0  0  0  0  0  0  0  0  0  0  0
   45.3485   32.3555   44.8617 H   0  0  0  0  0  0  0  0  0  0  0  0
   44.8992   32.1031   43.1410 H   0  0  0  0  0  0  0  0  0  0  0  0
   47.2507   32.2989   43.0481 H   0  0  0  0  0  0  0  0  0  0  0  0
   47.3172   33.5578   44.2918 H   0  0  0  0  0  0  0  0  0  0  0  0
   42.6802   30.7699   39.8187 H   0  0  0  0  0  0  0  0  0  0  0  0
   43.5516   34.5343   37.8222 H   0  0  0  0  0  0  0  0  0  0  0  0
   39.1414   34.4177   42.7332 H   0  0  0  0  0  0  0  0  0  0  0  0
  1  6  2  0
  2  3  2  0
  2  1  1  0
  3  4  1  0
  4  5  2  0
  5  7  1  0
  6  5  1  0
  7  8  1  0
  7 12  1  0
  8  9  1  0
 10  9  1  0
 11 10  1  0
 12 11  1  0
 13  1  1  0
 14 13  1  0
 14 17  1  0
 15 14  2  0
 16 21  2  0
 17 16  1  0
 18 17  2  0
 18 19  1  0
 19 20  2  0
 20 21  1  0
 20 22  1  0
 22 24  1  0
 23 22  2  0
  2 25  1  0
  3 26  1  0
  8 27  1  0
  8 28  1  0
  9 29  1  0
  9 30  1  0
 10 31  1  0
 11 32  1  0
 11 33  1  0
 12 34  1  0
 12 35  1  0
 16 36  1  0
 18 37  1  0
 24 38  1  0
M  ISO  8  25  14  26  14  27  13  28  13  29  13  30  13  31   5  32  13
M  ISO  6  33  13  34  13  35  13  36  14  37  14  38   3
M  END
>  <minimizedAffinity>  (1) 
-5.07242584

>  <minimizedRMSD>  (1) 
1.60435975

$$$$
