
     RDKit          3D

 35 36  0  0  0  0  0  0  0  0999 V2000
   46.8550   33.6170   43.2860 C   0  0  0  0  0  0  0  0  0  0  0  0
   50.1970   32.1020   42.2840 C   0  0  0  0  0  0  0  0  0  0  0  0
   48.8280   32.1450   42.6310 C   0  0  0  0  0  0  0  0  0  0  0  0
   48.2620   33.4040   42.9190 C   0  0  0  0  0  0  0  0  0  0  0  0
   49.0780   34.5030   42.8430 N   0  0  0  0  0  0  0  0  0  0  0  0
   50.3860   34.4150   42.5060 C   0  0  0  0  0  0  0  0  0  0  0  0
   50.9390   33.2150   42.2280 N   0  0  0  0  0  0  0  0  0  0  0  0
   46.0280   32.6270   42.4690 C   0  0  0  0  0  0  0  0  0  0  0  0
   46.5710   33.4660   44.7420 C   0  0  0  0  0  0  0  0  0  0  0  0
   46.4310   34.9910   42.8530 C   0  0  0  0  0  0  0  0  0  0  0  0
   45.0310   35.1260   42.5560 N   0  0  0  0  0  0  0  0  0  0  0  0
   44.6560   34.7850   41.2870 C   0  0  0  0  0  0  0  0  0  0  0  0
   43.3490   34.8600   40.8570 C   0  0  0  0  0  0  0  0  0  0  0  0
   42.9310   34.4920   39.4800 C   0  0  0  0  0  0  0  0  0  0  0  0
   42.3720   35.2890   41.7150 C   0  0  0  0  0  0  0  0  0  0  0  0
   41.1660   35.3630   41.3350 O   0  0  0  0  0  0  0  0  0  0  0  0
   42.7680   35.6190   42.9620 N   0  0  0  0  0  0  0  0  0  0  0  0
   44.0350   35.5390   43.3550 C   0  0  0  0  0  0  0  0  0  0  0  0
   44.3910   35.8500   44.5180 O   0  0  0  0  0  0  0  0  0  0  0  0
   50.6635   31.1326   42.0548 H   0  0  0  0  0  0  0  0  0  0  0  0
   48.2238   31.2268   42.6750 H   0  0  0  0  0  0  0  0  0  0  0  0
   51.0014   35.3255   42.4584 H   0  0  0  0  0  0  0  0  0  0  0  0
   45.4737   31.9634   43.1490 H   0  0  0  0  0  0  0  0  0  0  0  0
   45.3180   33.1780   41.8347 H   0  0  0  0  0  0  0  0  0  0  0  0
   46.6966   32.0264   41.8347 H   0  0  0  0  0  0  0  0  0  0  0  0
   47.3953   33.9043   45.3237 H   0  0  0  0  0  0  0  0  0  0  0  0
   45.6324   33.9842   44.9882 H   0  0  0  0  0  0  0  0  0  0  0  0
   46.4757   32.3981   44.9882 H   0  0  0  0  0  0  0  0  0  0  0  0
   46.6786   35.6956   43.6606 H   0  0  0  0  0  0  0  0  0  0  0  0
   46.9671   35.1985   41.9152 H   0  0  0  0  0  0  0  0  0  0  0  0
   45.4261   34.4377   40.5825 H   0  0  0  0  0  0  0  0  0  0  0  0
   42.1062   33.7659   39.5289 H   0  0  0  0  0  0  0  0  0  0  0  0
   42.5951   35.3929   38.9457 H   0  0  0  0  0  0  0  0  0  0  0  0
   43.7821   34.0447   38.9457 H   0  0  0  0  0  0  0  0  0  0  0  0
   42.0606   35.9457   43.6356 H   0  0  0  0  0  0  0  0  0  0  0  0
  1  9  1  0
  2  3  2  0
  3  4  1  0
  4  1  1  0
  5  4  2  0
  6  5  1  0
  7  2  1  0
  7  6  2  0
  8  1  1  0
 10  1  1  0
 11 10  1  0
 11 18  1  0
 12 11  1  0
 13 12  2  0
 13 15  1  0
 14 13  1  0
 15 17  1  0
 16 15  2  0
 17 18  1  0
 18 19  2  0
  2 20  1  0
  3 21  1  0
  6 22  1  0
  8 23  1  0
  8 24  1  0
  8 25  1  0
  9 26  1  0
  9 27  1  0
  9 28  1  0
 10 29  1  0
 10 30  1  0
 12 31  1  0
 14 32  1  0
 14 33  1  0
 14 34  1  0
 17 35  1  0
M  ISO  8  20  14  21  14  22  14  23   8  24   8  25   8  26   8  27   8
M  ISO  8  28   8  29   8  30   8  31  14  32   8  33   8  34   8  35   9
M  END
>  <minimizedAffinity>  (1) 
-5.3367753

>  <minimizedRMSD>  (1) 
6.31553984

$$$$
