
     RDKit          3D

 33 34  0  0  0  0  0  0  0  0999 V2000
   46.7290   34.2330   42.0210 C   0  0  0  0  0  0  0  0  0  0  0  0
   44.5490   36.0590   44.5510 C   0  0  0  0  0  0  0  0  0  0  0  0
   45.1990   35.7980   43.3340 C   0  0  0  0  0  0  0  0  0  0  0  0
   45.9870   34.6350   43.2440 C   0  0  0  0  0  0  0  0  0  0  0  0
   46.0680   33.8400   44.3410 N   0  0  0  0  0  0  0  0  0  0  0  0
   45.4320   34.1140   45.5010 C   0  0  0  0  0  0  0  0  0  0  0  0
   44.6700   35.2320   45.5990 N   0  0  0  0  0  0  0  0  0  0  0  0
   45.7410   34.2590   40.8800 C   0  0  0  0  0  0  0  0  0  0  0  0
   47.9090   35.1000   41.7170 C   0  0  0  0  0  0  0  0  0  0  0  0
   47.2190   32.8290   42.1880 C   0  0  0  0  0  0  0  0  0  0  0  0
   48.5330   32.5690   41.6880 N   0  0  0  0  0  0  0  0  0  0  0  0
   49.5360   32.8540   42.5680 C   0  0  0  0  0  0  0  0  0  0  0  0
   50.8770   32.6580   42.2340 C   0  0  0  0  0  0  0  0  0  0  0  0
   51.1910   32.1690   40.9950 C   0  0  0  0  0  0  0  0  0  0  0  0
   52.5420   31.9680   40.6490 N   0  0  0  0  0  0  0  0  0  0  0  0
   50.1810   31.9100   40.1760 N   0  0  0  0  0  0  0  0  0  0  0  0
   48.8910   32.0930   40.4840 C   0  0  0  0  0  0  0  0  0  0  0  0
   47.9620   31.8450   39.7090 O   0  0  0  0  0  0  0  0  0  0  0  0
   43.9272   36.9614   44.6464 H   0  0  0  0  0  0  0  0  0  0  0  0
   45.0957   36.4809   42.4778 H   0  0  0  0  0  0  0  0  0  0  0  0
   45.5314   33.4348   46.3606 H   0  0  0  0  0  0  0  0  0  0  0  0
   44.7174   34.2859   41.2819 H   0  0  0  0  0  0  0  0  0  0  0  0
   45.9165   35.1528   40.2633 H   0  0  0  0  0  0  0  0  0  0  0  0
   45.8692   33.3572   40.2633 H   0  0  0  0  0  0  0  0  0  0  0  0
   48.3682   35.4374   42.6579 H   0  0  0  0  0  0  0  0  0  0  0  0
   48.6452   34.5264   41.1347 H   0  0  0  0  0  0  0  0  0  0  0  0
   47.5816   35.9739   41.1347 H   0  0  0  0  0  0  0  0  0  0  0  0
   47.2134   32.5943   43.2627 H   0  0  0  0  0  0  0  0  0  0  0  0
   46.5408   32.2010   41.5917 H   0  0  0  0  0  0  0  0  0  0  0  0
   49.2820   33.2472   43.5634 H   0  0  0  0  0  0  0  0  0  0  0  0
   51.6714   32.8936   42.9575 H   0  0  0  0  0  0  0  0  0  0  0  0
   52.7861   31.6003   39.7183 H   0  0  0  0  0  0  0  0  0  0  0  0
   53.2855   32.1888   41.3267 H   0  0  0  0  0  0  0  0  0  0  0  0
  1 10  1  0
  1  4  1  0
  2  7  2  0
  3  2  1  0
  4  3  2  0
  4  5  1  0
  5  6  2  0
  6  7  1  0
  8  1  1  0
  9  1  1  0
 11 10  1  0
 11 12  1  0
 13 12  2  0
 14 13  1  0
 15 14  1  0
 16 17  1  0
 16 14  2  0
 17 11  1  0
 18 17  2  0
  2 19  1  0
  3 20  1  0
  6 21  1  0
  8 22  1  0
  8 23  1  0
  8 24  1  0
  9 25  1  0
  9 26  1  0
  9 27  1  0
 10 28  1  0
 10 29  1  0
 12 30  1  0
 13 31  1  0
 15 32  1  0
 15 33  1  0
M  ISO  8  19  14  20  14  21  14  22   8  23   8  24   8  25   8  26   8
M  ISO  5  27   8  28   8  29   8  30  14  31  14
M  END
>  <minimizedAffinity>  (1) 
-5.280931

>  <minimizedRMSD>  (1) 
1.24332762

$$$$
