
     RDKit          3D

 38 39  0  0  0  0  0  0  0  0999 V2000
   47.4900   34.4990   41.9280 C   0  0  0  0  0  0  0  0  0  0  0  0
   44.7180   35.7240   44.2580 C   0  0  0  0  0  0  0  0  0  0  0  0
   45.5380   35.6610   43.1200 C   0  0  0  0  0  0  0  0  0  0  0  0
   46.5400   34.6730   43.0740 C   0  0  0  0  0  0  0  0  0  0  0  0
   46.6510   33.8430   44.1350 N   0  0  0  0  0  0  0  0  0  0  0  0
   45.8440   33.9270   45.2210 C   0  0  0  0  0  0  0  0  0  0  0  0
   44.8800   34.8700   45.2750 N   0  0  0  0  0  0  0  0  0  0  0  0
   46.6400   34.2620   40.7070 C   0  0  0  0  0  0  0  0  0  0  0  0
   48.4080   35.6730   41.7200 C   0  0  0  0  0  0  0  0  0  0  0  0
   48.3460   33.3150   42.2180 C   0  0  0  0  0  0  0  0  0  0  0  0
   49.5240   33.0390   41.3780 C   0  0  0  0  0  0  0  0  0  0  0  0
   50.7160   32.8430   42.3390 C   0  0  0  0  0  0  0  0  0  0  0  0
   51.2380   31.4480   42.3460 C   0  0  0  0  0  0  0  0  0  0  0  0
   51.8150   31.1380   40.9870 C   0  0  0  0  0  0  0  0  0  0  0  0
   50.8060   31.4910   39.9370 C   0  0  0  0  0  0  0  0  0  0  0  0
   49.4320   31.7650   40.5810 C   0  0  0  0  0  0  0  0  0  0  0  0
   43.9290   36.4884   44.3143 H   0  0  0  0  0  0  0  0  0  0  0  0
   45.4011   36.3652   42.2861 H   0  0  0  0  0  0  0  0  0  0  0  0
   45.9749   33.2262   46.0587 H   0  0  0  0  0  0  0  0  0  0  0  0
   45.6234   33.9786   41.0173 H   0  0  0  0  0  0  0  0  0  0  0  0
   46.5967   35.1823   40.1061 H   0  0  0  0  0  0  0  0  0  0  0  0
   47.0792   33.4520   40.1061 H   0  0  0  0  0  0  0  0  0  0  0  0
   48.7200   36.0720   42.6965 H   0  0  0  0  0  0  0  0  0  0  0  0
   49.2951   35.3494   41.1557 H   0  0  0  0  0  0  0  0  0  0  0  0
   47.8800   36.4559   41.1557 H   0  0  0  0  0  0  0  0  0  0  0  0
   48.7105   33.4307   43.2494 H   0  0  0  0  0  0  0  0  0  0  0  0
   47.6810   32.4634   42.0117 H   0  0  0  0  0  0  0  0  0  0  0  0
   49.6185   33.8764   40.6710 H   0  0  0  0  0  0  0  0  0  0  0  0
   51.5278   33.5190   42.0322 H   0  0  0  0  0  0  0  0  0  0  0  0
   50.3577   33.0641   43.3552 H   0  0  0  0  0  0  0  0  0  0  0  0
   52.0219   31.3504   43.1115 H   0  0  0  0  0  0  0  0  0  0  0  0
   50.4234   30.7453   42.5753 H   0  0  0  0  0  0  0  0  0  0  0  0
   52.7306   31.7276   40.8318 H   0  0  0  0  0  0  0  0  0  0  0  0
   52.0599   30.0675   40.9224 H   0  0  0  0  0  0  0  0  0  0  0  0
   50.7135   30.6552   39.2279 H   0  0  0  0  0  0  0  0  0  0  0  0
   51.1406   32.3977   39.4117 H   0  0  0  0  0  0  0  0  0  0  0  0
   48.6690   31.8726   39.7960 H   0  0  0  0  0  0  0  0  0  0  0  0
   49.1499   30.9289   41.2378 H   0  0  0  0  0  0  0  0  0  0  0  0
  1 10  1  0
  1  4  1  0
  2  7  2  0
  3  2  1  0
  4  3  2  0
  4  5  1  0
  5  6  2  0
  6  7  1  0
  8  1  1  0
  9  1  1  0
 11 10  1  0
 11 12  1  0
 12 13  1  0
 14 13  1  0
 15 16  1  0
 15 14  1  0
 16 11  1  0
  2 17  1  0
  3 18  1  0
  6 19  1  0
  8 20  1  0
  8 21  1  0
  8 22  1  0
  9 23  1  0
  9 24  1  0
  9 25  1  0
 10 26  1  0
 10 27  1  0
 11 28  1  0
 12 29  1  0
 12 30  1  0
 13 31  1  0
 13 32  1  0
 14 33  1  0
 14 34  1  0
 15 35  1  0
 15 36  1  0
 16 37  1  0
 16 38  1  0
M  ISO  8  17  14  18  14  19  14  20   8  21   8  22   8  23   8  24   8
M  ISO  8  25   8  26   8  27   8  28  13  29  13  30  13  31  13  32  13
M  ISO  6  33  13  34  13  35  13  36  13  37  13  38  13
M  END
>  <minimizedAffinity>  (1) 
-4.67330933

>  <minimizedRMSD>  (1) 
1.55534852

$$$$
