
     RDKit          3D

 29 30  0  0  0  0  0  0  0  0999 V2000
   47.4440   34.3180   42.1330 C   0  0  0  0  0  0  0  0  0  0  0  0
   44.6960   36.1120   44.0560 C   0  0  0  0  0  0  0  0  0  0  0  0
   45.6100   35.8390   43.0220 C   0  0  0  0  0  0  0  0  0  0  0  0
   46.4450   34.7040   43.1730 C   0  0  0  0  0  0  0  0  0  0  0  0
   46.3350   33.9420   44.2860 N   0  0  0  0  0  0  0  0  0  0  0  0
   45.4410   34.2360   45.2670 C   0  0  0  0  0  0  0  0  0  0  0  0
   44.6230   35.3200   45.1500 N   0  0  0  0  0  0  0  0  0  0  0  0
   46.6560   33.7930   40.9360 C   0  0  0  0  0  0  0  0  0  0  0  0
   48.3890   35.3890   41.7440 C   0  0  0  0  0  0  0  0  0  0  0  0
   48.2290   33.1580   42.6600 C   0  0  0  0  0  0  0  0  0  0  0  0
   49.2810   32.6480   41.7790 C   0  0  0  0  0  0  0  0  0  0  0  0
   50.6030   32.7330   42.1860 C   0  0  0  0  0  0  0  0  0  0  0  0
   51.3610   32.2090   41.2280 N   0  0  0  0  0  0  0  0  0  0  0  0
   50.5770   31.7930   40.2260 C   0  0  0  0  0  0  0  0  0  0  0  0
   49.3150   32.0630   40.5680 N   0  0  0  0  0  0  0  0  0  0  0  0
   44.0300   36.9836   43.9735 H   0  0  0  0  0  0  0  0  0  0  0  0
   45.6740   36.4813   42.1313 H   0  0  0  0  0  0  0  0  0  0  0  0
   45.3774   33.5961   46.1594 H   0  0  0  0  0  0  0  0  0  0  0  0
   45.7898   33.2159   41.2918 H   0  0  0  0  0  0  0  0  0  0  0  0
   46.3072   34.6398   40.3267 H   0  0  0  0  0  0  0  0  0  0  0  0
   47.3031   33.1449   40.3267 H   0  0  0  0  0  0  0  0  0  0  0  0
   48.8034   35.8586   42.6483 H   0  0  0  0  0  0  0  0  0  0  0  0
   49.2064   34.9579   41.1473 H   0  0  0  0  0  0  0  0  0  0  0  0
   47.8595   36.1463   41.1473 H   0  0  0  0  0  0  0  0  0  0  0  0
   48.7007   33.4704   43.6033 H   0  0  0  0  0  0  0  0  0  0  0  0
   47.5077   32.3351   42.7716 H   0  0  0  0  0  0  0  0  0  0  0  0
   50.9618   33.1590   43.1346 H   0  0  0  0  0  0  0  0  0  0  0  0
   50.9110   31.3164   39.2926 H   0  0  0  0  0  0  0  0  0  0  0  0
   48.4887   31.8541   39.9896 H   0  0  0  0  0  0  0  0  0  0  0  0
  1 10  1  0
  1  4  1  0
  2  7  2  0
  3  4  2  0
  3  2  1  0
  4  5  1  0
  5  6  2  0
  7  6  1  0
  8  1  1  0
  9  1  1  0
 11 12  2  0
 11 10  1  0
 13 12  1  0
 14 15  1  0
 14 13  2  0
 15 11  1  0
  2 16  1  0
  3 17  1  0
  6 18  1  0
  8 19  1  0
  8 20  1  0
  8 21  1  0
  9 22  1  0
  9 23  1  0
  9 24  1  0
 10 25  1  0
 10 26  1  0
 12 27  1  0
 14 28  1  0
 15 29  1  0
M  ISO  8  16  14  17  14  18  14  19   8  20   8  21   8  22   8  23   8
M  ISO  6  24   8  25   8  26   8  27  14  28  14  29   9
M  END
>  <minimizedAffinity>  (1) 
-4.42734814

>  <minimizedRMSD>  (1) 
0.891094983

$$$$
