
     RDKit          3D

 29 30  0  0  0  0  0  0  0  0999 V2000
   47.5850   34.5070   41.9870 C   0  0  0  0  0  0  0  0  0  0  0  0
   44.7410   35.9250   44.0770 C   0  0  0  0  0  0  0  0  0  0  0  0
   45.6540   35.7870   43.0140 C   0  0  0  0  0  0  0  0  0  0  0  0
   46.5950   34.7410   43.0440 C   0  0  0  0  0  0  0  0  0  0  0  0
   46.5620   33.9160   44.1140 N   0  0  0  0  0  0  0  0  0  0  0  0
   45.6900   34.0460   45.1320 C   0  0  0  0  0  0  0  0  0  0  0  0
   44.7780   35.0520   45.1130 N   0  0  0  0  0  0  0  0  0  0  0  0
   46.8380   34.1770   40.7110 C   0  0  0  0  0  0  0  0  0  0  0  0
   48.5380   35.6480   41.7700 C   0  0  0  0  0  0  0  0  0  0  0  0
   48.4190   33.3070   42.3360 C   0  0  0  0  0  0  0  0  0  0  0  0
   49.8390   33.3510   41.9030 C   0  0  0  0  0  0  0  0  0  0  0  0
   50.6920   32.1590   42.3830 C   0  0  0  0  0  0  0  0  0  0  0  0
   50.2780   32.2210   40.9820 C   0  0  0  0  0  0  0  0  0  0  0  0
   44.0005   36.7383   44.0666 H   0  0  0  0  0  0  0  0  0  0  0  0
   45.6320   36.4900   42.1683 H   0  0  0  0  0  0  0  0  0  0  0  0
   45.7164   33.3403   45.9754 H   0  0  0  0  0  0  0  0  0  0  0  0
   45.8582   33.7442   40.9612 H   0  0  0  0  0  0  0  0  0  0  0  0
   46.6938   35.0952   40.1226 H   0  0  0  0  0  0  0  0  0  0  0  0
   47.4196   33.4521   40.1226 H   0  0  0  0  0  0  0  0  0  0  0  0
   48.8666   36.0414   42.7433 H   0  0  0  0  0  0  0  0  0  0  0  0
   49.4119   35.2932   41.2039 H   0  0  0  0  0  0  0  0  0  0  0  0
   48.0332   36.4447   41.2039 H   0  0  0  0  0  0  0  0  0  0  0  0
   48.4044   33.1941   43.4301 H   0  0  0  0  0  0  0  0  0  0  0  0
   47.9690   32.4649   41.7897 H   0  0  0  0  0  0  0  0  0  0  0  0
   49.9205   34.4480   41.9046 H   0  0  0  0  0  0  0  0  0  0  0  0
   51.7480   32.3133   42.6494 H   0  0  0  0  0  0  0  0  0  0  0  0
   50.5953   31.4127   43.1853 H   0  0  0  0  0  0  0  0  0  0  0  0
   49.5318   31.5070   40.6033 H   0  0  0  0  0  0  0  0  0  0  0  0
   50.8157   32.1811   40.0232 H   0  0  0  0  0  0  0  0  0  0  0  0
  1 10  1  0
  1  4  1  0
  2  7  2  0
  3  4  2  0
  3  2  1  0
  4  5  1  0
  5  6  2  0
  7  6  1  0
  8  1  1  0
  9  1  1  0
 11 10  1  0
 11 12  1  0
 13 11  1  0
 13 12  1  0
  2 14  1  0
  3 15  1  0
  6 16  1  0
  8 17  1  0
  8 18  1  0
  8 19  1  0
  9 20  1  0
  9 21  1  0
  9 22  1  0
 10 23  1  0
 10 24  1  0
 11 25  1  0
 12 26  1  0
 12 27  1  0
 13 28  1  0
 13 29  1  0
M  ISO  8  14  14  15  14  16  14  17   8  18   8  19   8  20   8  21   8
M  ISO  8  22   8  23   8  24   8  25  13  26  13  27  13  28  13  29  13
M  END
>  <minimizedAffinity>  (1) 
-4.18180656

>  <minimizedRMSD>  (1) 
1.08209288

$$$$
