
     RDKit          3D

 46 48  0  0  0  0  0  0  0  0999 V2000
   44.8170   34.0750   42.0380 C   0  0  0  0  0  0  0  0  0  0  0  0
   45.7490   34.9000   42.9190 C   0  0  0  0  0  0  0  0  0  0  0  0
   45.1350   34.4910   45.2830 C   0  0  0  0  0  0  0  0  0  0  0  0
   45.9660   34.1670   44.1850 C   0  0  0  0  0  0  0  0  0  0  0  0
   46.9050   33.1840   44.4210 C   0  0  0  0  0  0  0  0  0  0  0  0
   47.0090   32.5890   45.6050 N   0  0  0  0  0  0  0  0  0  0  0  0
   46.1890   32.9300   46.6330 C   0  0  0  0  0  0  0  0  0  0  0  0
   45.2440   33.8900   46.4680 N   0  0  0  0  0  0  0  0  0  0  0  0
   47.0620   35.1360   42.2300 C   0  0  0  0  0  0  0  0  0  0  0  0
   45.0960   36.2060   43.1830 C   0  0  0  0  0  0  0  0  0  0  0  0
   43.5740   34.6980   42.0310 O   0  0  0  0  0  0  0  0  0  0  0  0
   42.7710   34.5500   40.9180 C   0  0  0  0  0  0  0  0  0  0  0  0
   42.9130   35.3180   39.7800 C   0  0  0  0  0  0  0  0  0  0  0  0
   41.9430   34.8890   38.8860 C   0  0  0  0  0  0  0  0  0  0  0  0
   41.2510   33.8960   39.4830 N   0  0  0  0  0  0  0  0  0  0  0  0
   41.7330   33.6820   40.6950 N   0  0  0  0  0  0  0  0  0  0  0  0
   40.1740   33.2460   38.8040 C   0  0  0  0  0  0  0  0  0  0  0  0
   38.9290   33.8070   38.5230 C   0  0  0  0  0  0  0  0  0  0  0  0
   38.1470   32.8710   37.8490 C   0  0  0  0  0  0  0  0  0  0  0  0
   38.9450   31.7810   37.7450 N   0  0  0  0  0  0  0  0  0  0  0  0
   40.1340   32.0060   38.3080 N   0  0  0  0  0  0  0  0  0  0  0  0
   38.6430   30.5020   37.1300 C   0  0  0  0  0  0  0  0  0  0  0  0
   39.7580   29.9330   36.3190 C   0  0  0  0  0  0  0  0  0  0  0  0
   38.1830   29.4930   38.1840 C   0  0  0  0  0  0  0  0  0  0  0  0
   45.2164   34.0260   41.0142 H   0  0  0  0  0  0  0  0  0  0  0  0
   44.7298   33.0496   42.4266 H   0  0  0  0  0  0  0  0  0  0  0  0
   44.3687   35.2695   45.1540 H   0  0  0  0  0  0  0  0  0  0  0  0
   47.5844   32.8853   43.6091 H   0  0  0  0  0  0  0  0  0  0  0  0
   46.2916   32.4250   47.6049 H   0  0  0  0  0  0  0  0  0  0  0  0
   47.8510   35.2778   42.9832 H   0  0  0  0  0  0  0  0  0  0  0  0
   47.3073   34.2676   41.6010 H   0  0  0  0  0  0  0  0  0  0  0  0
   46.9896   36.0355   41.6010 H   0  0  0  0  0  0  0  0  0  0  0  0
   45.0172   36.3637   44.2688 H   0  0  0  0  0  0  0  0  0  0  0  0
   45.6967   37.0129   42.7380 H   0  0  0  0  0  0  0  0  0  0  0  0
   44.0901   36.2096   42.7380 H   0  0  0  0  0  0  0  0  0  0  0  0
   43.6521   36.1156   39.6141 H   0  0  0  0  0  0  0  0  0  0  0  0
   41.7695   35.2858   37.8748 H   0  0  0  0  0  0  0  0  0  0  0  0
   38.6141   34.8264   38.7907 H   0  0  0  0  0  0  0  0  0  0  0  0
   37.1161   32.9900   37.4843 H   0  0  0  0  0  0  0  0  0  0  0  0
   37.8263   30.7009   36.4205 H   0  0  0  0  0  0  0  0  0  0  0  0
   40.5344   29.5368   36.9900 H   0  0  0  0  0  0  0  0  0  0  0  0
   39.3727   29.1213   35.6844 H   0  0  0  0  0  0  0  0  0  0  0  0
   40.1892   30.7213   35.6844 H   0  0  0  0  0  0  0  0  0  0  0  0
   38.3691   29.9013   39.1883 H   0  0  0  0  0  0  0  0  0  0  0  0
   37.1073   29.2987   38.0608 H   0  0  0  0  0  0  0  0  0  0  0  0
   38.7418   28.5535   38.0608 H   0  0  0  0  0  0  0  0  0  0  0  0
  1  2  1  0
  2 10  1  0
  2  4  1  0
  3  8  2  0
  4  5  2  0
  4  3  1  0
  5  6  1  0
  6  7  2  0
  8  7  1  0
  9  2  1  0
 11  1  1  0
 12 11  1  0
 13 12  1  0
 14 15  1  0
 14 13  2  0
 15 16  1  0
 16 12  2  0
 17 15  1  0
 18 17  1  0
 19 18  2  0
 20 19  1  0
 20 21  1  0
 21 17  2  0
 22 20  1  0
 22 24  1  0
 23 22  1  0
  1 25  1  0
  1 26  1  0
  3 27  1  0
  5 28  1  0
  7 29  1  0
  9 30  1  0
  9 31  1  0
  9 32  1  0
 10 33  1  0
 10 34  1  0
 10 35  1  0
 13 36  1  0
 14 37  1  0
 18 38  1  0
 19 39  1  0
 22 40  1  0
 23 41  1  0
 23 42  1  0
 23 43  1  0
 24 44  1  0
 24 45  1  0
 24 46  1  0
M  ISO  8  25   8  26   8  27  14  28  14  29  14  30   8  31   8  32   8
M  ISO  8  33   8  34   8  35   8  36  14  37  14  38  14  39  14  40   8
M  ISO  6  41   8  42   8  43   8  44   8  45   8  46   8
M  END
>  <minimizedAffinity>  (1) 
-5.58919096

>  <minimizedRMSD>  (1) 
1.77252626

$$$$
