
     RDKit          3D

 34 36  0  0  0  0  0  0  0  0999 V2000
   46.7240   34.3940   42.1030 C   0  0  0  0  0  0  0  0  0  0  0  0
   44.4790   35.9460   44.7530 C   0  0  0  0  0  0  0  0  0  0  0  0
   45.1290   35.7810   43.5080 C   0  0  0  0  0  0  0  0  0  0  0  0
   45.9890   34.6780   43.3460 C   0  0  0  0  0  0  0  0  0  0  0  0
   46.1460   33.8230   44.4110 N   0  0  0  0  0  0  0  0  0  0  0  0
   45.5010   34.0180   45.5900 C   0  0  0  0  0  0  0  0  0  0  0  0
   44.6730   35.0740   45.7590 N   0  0  0  0  0  0  0  0  0  0  0  0
   45.7100   34.3040   40.9860 C   0  0  0  0  0  0  0  0  0  0  0  0
   47.8080   35.3690   41.7930 C   0  0  0  0  0  0  0  0  0  0  0  0
   47.3630   33.0260   42.2320 C   0  0  0  0  0  0  0  0  0  0  0  0
   47.2500   32.2830   41.0530 O   0  0  0  0  0  0  0  0  0  0  0  0
   51.8670   32.2460   41.0300 N   0  0  0  0  0  0  0  0  0  0  0  0
   51.3740   32.7260   42.1850 C   0  0  0  0  0  0  0  0  0  0  0  0
   50.0280   32.7290   42.1720 N   0  0  0  0  0  0  0  0  0  0  0  0
   49.6520   32.2370   40.9770 C   0  0  0  0  0  0  0  0  0  0  0  0
   48.4340   31.9900   40.3610 C   0  0  0  0  0  0  0  0  0  0  0  0
   48.4510   31.4750   39.1180 N   0  0  0  0  0  0  0  0  0  0  0  0
   49.5700   31.1890   38.4420 C   0  0  0  0  0  0  0  0  0  0  0  0
   50.7720   31.4120   38.9980 N   0  0  0  0  0  0  0  0  0  0  0  0
   50.8010   31.9260   40.2430 C   0  0  0  0  0  0  0  0  0  0  0  0
   43.8036   36.8015   44.9014 H   0  0  0  0  0  0  0  0  0  0  0  0
   44.9670   36.4956   42.6876 H   0  0  0  0  0  0  0  0  0  0  0  0
   45.6537   33.3090   46.4170 H   0  0  0  0  0  0  0  0  0  0  0  0
   44.7005   34.2144   41.4136 H   0  0  0  0  0  0  0  0  0  0  0  0
   45.7663   35.2107   40.3657 H   0  0  0  0  0  0  0  0  0  0  0  0
   45.9251   33.4214   40.3657 H   0  0  0  0  0  0  0  0  0  0  0  0
   48.2350   35.7531   42.7312 H   0  0  0  0  0  0  0  0  0  0  0  0
   48.5951   34.8690   41.2095 H   0  0  0  0  0  0  0  0  0  0  0  0
   47.3939   36.2045   41.2095 H   0  0  0  0  0  0  0  0  0  0  0  0
   48.4291   33.1529   42.4712 H   0  0  0  0  0  0  0  0  0  0  0  0
   46.8390   32.4796   43.0301 H   0  0  0  0  0  0  0  0  0  0  0  0
   52.8620   32.1401   40.7859 H   0  0  0  0  0  0  0  0  0  0  0  0
   51.9893   33.0707   43.0291 H   0  0  0  0  0  0  0  0  0  0  0  0
   49.5050   30.7697   37.4271 H   0  0  0  0  0  0  0  0  0  0  0  0
  1 10  1  0
  1  4  1  0
  2  7  2  0
  3  2  1  0
  4  3  2  0
  4  5  1  0
  5  6  2  0
  6  7  1  0
  8  1  1  0
  9  1  1  0
 11 10  1  0
 12 13  1  0
 14 13  2  0
 15 14  1  0
 16 15  2  0
 16 11  1  0
 17 16  1  0
 18 19  1  0
 18 17  2  0
 19 20  2  0
 20 15  1  0
 20 12  1  0
  2 21  1  0
  3 22  1  0
  6 23  1  0
  8 24  1  0
  8 25  1  0
  8 26  1  0
  9 27  1  0
  9 28  1  0
  9 29  1  0
 10 30  1  0
 10 31  1  0
 12 32  1  0
 13 33  1  0
 18 34  1  0
M  ISO  8  21  14  22  14  23  14  24   8  25   8  26   8  27   8  28   8
M  ISO  6  29   8  30   8  31   8  32   9  33  14  34  14
M  END
>  <minimizedAffinity>  (1) 
-4.88181686

>  <minimizedRMSD>  (1) 
2.61824656

$$$$
