
     RDKit          3D

 33 34  0  0  0  0  0  0  0  0999 V2000
   47.1120   34.4380   42.0660 C   0  0  0  0  0  0  0  0  0  0  0  0
   44.5930   36.0920   44.3600 C   0  0  0  0  0  0  0  0  0  0  0  0
   45.3860   35.8730   43.2250 C   0  0  0  0  0  0  0  0  0  0  0  0
   46.2420   34.7650   43.1920 C   0  0  0  0  0  0  0  0  0  0  0  0
   46.2580   33.9500   44.2820 N   0  0  0  0  0  0  0  0  0  0  0  0
   45.4790   34.1820   45.3720 C   0  0  0  0  0  0  0  0  0  0  0  0
   44.6510   35.2470   45.4120 N   0  0  0  0  0  0  0  0  0  0  0  0
   46.2210   34.2220   40.8410 C   0  0  0  0  0  0  0  0  0  0  0  0
   48.1760   35.4300   41.7630 C   0  0  0  0  0  0  0  0  0  0  0  0
   47.7760   33.1000   42.3140 C   0  0  0  0  0  0  0  0  0  0  0  0
   49.1670   33.1810   42.2890 O   0  0  0  0  0  0  0  0  0  0  0  0
   49.8570   32.5400   41.2700 C   0  0  0  0  0  0  0  0  0  0  0  0
   49.3950   32.1370   40.0380 C   0  0  0  0  0  0  0  0  0  0  0  0
   50.2270   31.5090   39.1420 C   0  0  0  0  0  0  0  0  0  0  0  0
   51.5680   31.2530   39.4400 C   0  0  0  0  0  0  0  0  0  0  0  0
   52.0020   31.6650   40.6750 C   0  0  0  0  0  0  0  0  0  0  0  0
   51.1940   32.3070   41.6200 C   0  0  0  0  0  0  0  0  0  0  0  0
   43.9176   36.9596   44.3941 H   0  0  0  0  0  0  0  0  0  0  0  0
   45.3365   36.5634   42.3701 H   0  0  0  0  0  0  0  0  0  0  0  0
   45.5241   33.4948   46.2298 H   0  0  0  0  0  0  0  0  0  0  0  0
   45.2006   33.9746   41.1689 H   0  0  0  0  0  0  0  0  0  0  0  0
   46.1993   35.1409   40.2367 H   0  0  0  0  0  0  0  0  0  0  0  0
   46.6226   33.3952   40.2367 H   0  0  0  0  0  0  0  0  0  0  0  0
   48.5932   35.8190   42.7035 H   0  0  0  0  0  0  0  0  0  0  0  0
   48.9737   34.9458   41.1806 H   0  0  0  0  0  0  0  0  0  0  0  0
   47.7487   36.2596   41.1806 H   0  0  0  0  0  0  0  0  0  0  0  0
   47.4621   32.7280   43.3005 H   0  0  0  0  0  0  0  0  0  0  0  0
   47.4666   32.4191   41.5074 H   0  0  0  0  0  0  0  0  0  0  0  0
   48.3449   32.3200   39.7663 H   0  0  0  0  0  0  0  0  0  0  0  0
   49.8268   31.2000   38.1651 H   0  0  0  0  0  0  0  0  0  0  0  0
   52.2370   30.7504   38.7260 H   0  0  0  0  0  0  0  0  0  0  0  0
   53.0534   31.4784   40.9392 H   0  0  0  0  0  0  0  0  0  0  0  0
   51.5920   32.6162   42.5978 H   0  0  0  0  0  0  0  0  0  0  0  0
  1 10  1  0
  1  4  1  0
  2  7  2  0
  3  2  1  0
  4  3  2  0
  4  5  1  0
  5  6  2  0
  6  7  1  0
  8  1  1  0
  9  1  1  0
 11 10  1  0
 12 17  1  0
 12 11  1  0
 13 12  2  0
 14 15  2  0
 14 13  1  0
 15 16  1  0
 16 17  2  0
  2 18  1  0
  3 19  1  0
  6 20  1  0
  8 21  1  0
  8 22  1  0
  8 23  1  0
  9 24  1  0
  9 25  1  0
  9 26  1  0
 10 27  1  0
 10 28  1  0
 13 29  1  0
 14 30  1  0
 15 31  1  0
 16 32  1  0
 17 33  1  0
M  ISO  8  18  14  19  14  20  14  21   8  22   8  23   8  24   8  25   8
M  ISO  8  26   8  27   8  28   8  29  14  30  14  31  14  32  14  33  14
M  END
>  <minimizedAffinity>  (1) 
-4.7088809

>  <minimizedRMSD>  (1) 
2.89358521

$$$$
