
     RDKit          3D

 30 31  0  0  0  0  0  0  0  0999 V2000
   47.6020   34.5260   41.9970 C   0  0  0  0  0  0  0  0  0  0  0  0
   44.7330   35.9320   44.0620 C   0  0  0  0  0  0  0  0  0  0  0  0
   45.6540   35.8040   43.0020 C   0  0  0  0  0  0  0  0  0  0  0  0
   46.5960   34.7500   43.0510 C   0  0  0  0  0  0  0  0  0  0  0  0
   46.5570   33.9190   44.1250 N   0  0  0  0  0  0  0  0  0  0  0  0
   45.6590   34.0680   45.1320 C   0  0  0  0  0  0  0  0  0  0  0  0
   44.7590   35.0620   45.1010 N   0  0  0  0  0  0  0  0  0  0  0  0
   46.8360   34.1810   40.7210 C   0  0  0  0  0  0  0  0  0  0  0  0
   48.5500   35.6290   41.7760 C   0  0  0  0  0  0  0  0  0  0  0  0
   48.3870   33.2770   42.3700 C   0  0  0  0  0  0  0  0  0  0  0  0
   49.7500   33.4140   42.0890 O   0  0  0  0  0  0  0  0  0  0  0  0
   50.4520   32.5580   41.2510 C   0  0  0  0  0  0  0  0  0  0  0  0
   50.0630   31.6650   40.2480 C   0  0  0  0  0  0  0  0  0  0  0  0
   51.1560   31.0710   39.7360 N   0  0  0  0  0  0  0  0  0  0  0  0
   52.2110   31.5760   40.4000 C   0  0  0  0  0  0  0  0  0  0  0  0
   51.8040   32.4810   41.3250 N   0  0  0  0  0  0  0  0  0  0  0  0
   43.9893   36.7424   44.0456 H   0  0  0  0  0  0  0  0  0  0  0  0
   45.6402   36.5076   42.1565 H   0  0  0  0  0  0  0  0  0  0  0  0
   45.6695   33.3679   45.9803 H   0  0  0  0  0  0  0  0  0  0  0  0
   45.8624   33.7425   40.9851 H   0  0  0  0  0  0  0  0  0  0  0  0
   46.6782   35.0950   40.1296 H   0  0  0  0  0  0  0  0  0  0  0  0
   47.4159   33.4571   40.1296 H   0  0  0  0  0  0  0  0  0  0  0  0
   48.8878   36.0221   42.7462 H   0  0  0  0  0  0  0  0  0  0  0  0
   49.4166   35.2594   41.2083 H   0  0  0  0  0  0  0  0  0  0  0  0
   48.0544   36.4303   41.2083 H   0  0  0  0  0  0  0  0  0  0  0  0
   48.2632   33.0875   43.4465 H   0  0  0  0  0  0  0  0  0  0  0  0
   47.9984   32.4392   41.7724 H   0  0  0  0  0  0  0  0  0  0  0  0
   49.0273   31.4778   39.9282 H   0  0  0  0  0  0  0  0  0  0  0  0
   53.2586   31.2942   40.2182 H   0  0  0  0  0  0  0  0  0  0  0  0
   52.4105   33.0122   41.9660 H   0  0  0  0  0  0  0  0  0  0  0  0
  1 10  1  0
  1  4  1  0
  2  7  2  0
  3  4  2  0
  3  2  1  0
  4  5  1  0
  5  6  2  0
  7  6  1  0
  8  1  1  0
  9  1  1  0
 11 10  1  0
 12 16  1  0
 12 11  1  0
 13 12  2  0
 14 13  1  0
 14 15  2  0
 15 16  1  0
  2 17  1  0
  3 18  1  0
  6 19  1  0
  8 20  1  0
  8 21  1  0
  8 22  1  0
  9 23  1  0
  9 24  1  0
  9 25  1  0
 10 26  1  0
 10 27  1  0
 13 28  1  0
 15 29  1  0
 16 30  1  0
M  ISO  8  17  14  18  14  19  14  20   8  21   8  22   8  23   8  24   8
M  ISO  6  25   8  26   8  27   8  28  14  29  14  30   9
M  END
>  <minimizedAffinity>  (1) 
-4.71983194

>  <minimizedRMSD>  (1) 
2.71536088

$$$$
