
     RDKit          3D

 26 26  0  0  0  0  0  0  0  0999 V2000
   47.7480   34.5450   41.9000 C   0  0  0  0  0  0  0  0  0  0  0  0
   44.8090   35.7700   43.9620 C   0  0  0  0  0  0  0  0  0  0  0  0
   45.7380   35.6960   42.8950 C   0  0  0  0  0  0  0  0  0  0  0  0
   46.7430   34.7060   42.9480 C   0  0  0  0  0  0  0  0  0  0  0  0
   46.7670   33.8630   44.0330 N   0  0  0  0  0  0  0  0  0  0  0  0
   45.8550   33.9710   45.0370 C   0  0  0  0  0  0  0  0  0  0  0  0
   44.8890   34.9080   45.0070 N   0  0  0  0  0  0  0  0  0  0  0  0
   47.0160   34.2020   40.6120 C   0  0  0  0  0  0  0  0  0  0  0  0
   48.6560   35.6890   41.7000 C   0  0  0  0  0  0  0  0  0  0  0  0
   48.5910   33.3190   42.2280 C   0  0  0  0  0  0  0  0  0  0  0  0
   49.5710   33.0710   41.2710 O   0  0  0  0  0  0  0  0  0  0  0  0
   50.7860   32.6930   41.8000 C   0  0  0  0  0  0  0  0  0  0  0  0
   51.6740   32.2000   40.8720 F   0  0  0  0  0  0  0  0  0  0  0  0
   50.5580   31.7310   42.7690 F   0  0  0  0  0  0  0  0  0  0  0  0
   51.2920   33.8230   42.4410 F   0  0  0  0  0  0  0  0  0  0  0  0
   44.0163   36.5324   43.9432 H   0  0  0  0  0  0  0  0  0  0  0  0
   45.6777   36.3929   42.0460 H   0  0  0  0  0  0  0  0  0  0  0  0
   45.9082   33.2788   45.8902 H   0  0  0  0  0  0  0  0  0  0  0  0
   46.0441   33.7466   40.8527 H   0  0  0  0  0  0  0  0  0  0  0  0
   46.8561   35.1189   40.0258 H   0  0  0  0  0  0  0  0  0  0  0  0
   47.6183   33.4924   40.0258 H   0  0  0  0  0  0  0  0  0  0  0  0
   48.9693   36.0837   42.6778 H   0  0  0  0  0  0  0  0  0  0  0  0
   49.5416   35.3601   41.1365 H   0  0  0  0  0  0  0  0  0  0  0  0
   48.1346   36.4768   41.1365 H   0  0  0  0  0  0  0  0  0  0  0  0
   49.0804   33.4779   43.2003 H   0  0  0  0  0  0  0  0  0  0  0  0
   47.9187   32.4487   42.2493 H   0  0  0  0  0  0  0  0  0  0  0  0
  1 10  1  0
  1  4  1  0
  2  7  2  0
  3  4  2  0
  3  2  1  0
  4  5  1  0
  5  6  2  0
  7  6  1  0
  8  1  1  0
  9  1  1  0
 11 12  1  0
 11 10  1  0
 12 15  1  0
 12 14  1  0
 13 12  1  0
  2 16  1  0
  3 17  1  0
  6 18  1  0
  8 19  1  0
  8 20  1  0
  8 21  1  0
  9 22  1  0
  9 23  1  0
  9 24  1  0
 10 25  1  0
 10 26  1  0
M  ISO  8  16  14  17  14  18  14  19   8  20   8  21   8  22   8  23   8
M  ISO  3  24   8  25   8  26   8
M  END
>  <minimizedAffinity>  (1) 
-4.51549864

>  <minimizedRMSD>  (1) 
2.41957235

$$$$
