
     RDKit          3D

 27 27  0  0  0  0  0  0  0  0999 V2000
   47.6240   34.4900   41.9620 C   0  0  0  0  0  0  0  0  0  0  0  0
   44.7540   35.8700   44.0390 C   0  0  0  0  0  0  0  0  0  0  0  0
   45.6630   35.7480   42.9690 C   0  0  0  0  0  0  0  0  0  0  0  0
   46.6260   34.7180   43.0160 C   0  0  0  0  0  0  0  0  0  0  0  0
   46.6250   33.8940   44.0990 N   0  0  0  0  0  0  0  0  0  0  0  0
   45.7290   34.0440   45.1180 C   0  0  0  0  0  0  0  0  0  0  0  0
   44.8040   35.0170   45.0930 N   0  0  0  0  0  0  0  0  0  0  0  0
   46.8630   34.1880   40.6820 C   0  0  0  0  0  0  0  0  0  0  0  0
   48.5880   35.6130   41.7650 C   0  0  0  0  0  0  0  0  0  0  0  0
   48.4200   33.2680   42.3190 C   0  0  0  0  0  0  0  0  0  0  0  0
   49.7820   33.4220   41.9610 O   0  0  0  0  0  0  0  0  0  0  0  0
   50.4330   32.4420   41.2540 C   0  0  0  0  0  0  0  0  0  0  0  0
   51.8400   32.4970   41.2940 N   0  0  0  0  0  0  0  0  0  0  0  0
   49.8690   31.5300   40.5960 O   0  0  0  0  0  0  0  0  0  0  0  0
   43.9951   36.6660   44.0195 H   0  0  0  0  0  0  0  0  0  0  0  0
   45.6226   36.4409   42.1156 H   0  0  0  0  0  0  0  0  0  0  0  0
   45.7655   33.3554   45.9750 H   0  0  0  0  0  0  0  0  0  0  0  0
   45.8673   33.7929   40.9319 H   0  0  0  0  0  0  0  0  0  0  0  0
   46.7541   35.1111   40.0937 H   0  0  0  0  0  0  0  0  0  0  0  0
   47.4167   33.4414   40.0937 H   0  0  0  0  0  0  0  0  0  0  0  0
   48.9139   35.9926   42.7446 H   0  0  0  0  0  0  0  0  0  0  0  0
   49.4617   35.2519   41.2026 H   0  0  0  0  0  0  0  0  0  0  0  0
   48.0987   36.4219   41.2026 H   0  0  0  0  0  0  0  0  0  0  0  0
   48.3509   33.0989   43.4037 H   0  0  0  0  0  0  0  0  0  0  0  0
   48.0090   32.4104   41.7661 H   0  0  0  0  0  0  0  0  0  0  0  0
   52.3975   31.7946   40.7873 H   0  0  0  0  0  0  0  0  0  0  0  0
   52.3113   33.2396   41.8300 H   0  0  0  0  0  0  0  0  0  0  0  0
  1 10  1  0
  1  4  1  0
  2  7  2  0
  3  4  2  0
  3  2  1  0
  4  5  1  0
  5  6  2  0
  7  6  1  0
  8  1  1  0
  9  1  1  0
 11 10  1  0
 12 13  1  0
 12 11  1  0
 14 12  2  0
  2 15  1  0
  3 16  1  0
  6 17  1  0
  8 18  1  0
  8 19  1  0
  8 20  1  0
  9 21  1  0
  9 22  1  0
  9 23  1  0
 10 24  1  0
 10 25  1  0
 13 26  1  0
 13 27  1  0
M  ISO  8  15  14  16  14  17  14  18   8  19   8  20   8  21   8  22   8
M  ISO  3  23   8  24   8  25   8
M  END
>  <minimizedAffinity>  (1) 
-4.34926414

>  <minimizedRMSD>  (1) 
1.95242786

$$$$
