
     RDKit          3D

 46 49  0  0  0  0  0  0  0  0999 V2000
   44.2940   33.5620   42.3180 O   0  0  0  0  0  0  0  0  0  0  0  0
   43.0470   33.5380   41.7370 C   0  0  0  0  0  0  0  0  0  0  0  0
   42.3640   34.6840   41.3840 C   0  0  0  0  0  0  0  0  0  0  0  0
   41.1540   34.2850   40.8300 C   0  0  0  0  0  0  0  0  0  0  0  0
   41.1300   32.9350   40.8570 N   0  0  0  0  0  0  0  0  0  0  0  0
   42.2500   32.4960   41.3940 N   0  0  0  0  0  0  0  0  0  0  0  0
   40.0080   32.2080   40.3540 C   0  0  0  0  0  0  0  0  0  0  0  0
   38.7470   32.1400   40.9380 C   0  0  0  0  0  0  0  0  0  0  0  0
   37.9160   31.3420   40.1650 C   0  0  0  0  0  0  0  0  0  0  0  0
   38.6850   30.9540   39.1460 N   0  0  0  0  0  0  0  0  0  0  0  0
   39.9320   31.4630   39.2490 N   0  0  0  0  0  0  0  0  0  0  0  0
   38.4140   30.1290   38.0220 C   0  0  0  0  0  0  0  0  0  0  0  0
   38.7620   30.5860   36.7580 C   0  0  0  0  0  0  0  0  0  0  0  0
   38.5180   29.8130   35.6160 C   0  0  0  0  0  0  0  0  0  0  0  0
   37.9180   28.5960   35.8710 C   0  0  0  0  0  0  0  0  0  0  0  0
   37.5600   28.1130   37.1170 C   0  0  0  0  0  0  0  0  0  0  0  0
   37.8260   28.9150   38.1880 N   0  0  0  0  0  0  0  0  0  0  0  0
   45.3130   34.2470   41.6670 C   0  0  0  0  0  0  0  0  0  0  0  0
   46.1000   35.0310   42.7100 C   0  0  0  0  0  0  0  0  0  0  0  0
   45.3510   34.5220   45.0160 C   0  0  0  0  0  0  0  0  0  0  0  0
   46.2100   34.2140   43.9360 C   0  0  0  0  0  0  0  0  0  0  0  0
   47.0790   33.1590   44.1480 C   0  0  0  0  0  0  0  0  0  0  0  0
   47.0810   32.4910   45.3110 N   0  0  0  0  0  0  0  0  0  0  0  0
   46.2430   32.8210   46.3110 C   0  0  0  0  0  0  0  0  0  0  0  0
   45.3650   33.8480   46.1640 N   0  0  0  0  0  0  0  0  0  0  0  0
   47.4650   35.3880   42.1980 C   0  0  0  0  0  0  0  0  0  0  0  0
   45.3340   36.2830   43.0000 C   0  0  0  0  0  0  0  0  0  0  0  0
   42.7122   35.7190   41.5164 H   0  0  0  0  0  0  0  0  0  0  0  0
   40.3639   34.9448   40.4422 H   0  0  0  0  0  0  0  0  0  0  0  0
   38.4534   32.6428   41.8713 H   0  0  0  0  0  0  0  0  0  0  0  0
   36.8621   31.0870   40.3502 H   0  0  0  0  0  0  0  0  0  0  0  0
   39.2375   31.5722   36.6517 H   0  0  0  0  0  0  0  0  0  0  0  0
   38.7820   30.1472   34.6018 H   0  0  0  0  0  0  0  0  0  0  0  0
   37.7053   27.9520   35.0049 H   0  0  0  0  0  0  0  0  0  0  0  0
   37.0835   27.1290   37.2383 H   0  0  0  0  0  0  0  0  0  0  0  0
   45.9770   33.5322   41.1589 H   0  0  0  0  0  0  0  0  0  0  0  0
   44.8920   34.9306   40.9150 H   0  0  0  0  0  0  0  0  0  0  0  0
   44.6407   35.3542   44.9028 H   0  0  0  0  0  0  0  0  0  0  0  0
   47.7781   32.8638   43.3517 H   0  0  0  0  0  0  0  0  0  0  0  0
   46.2688   32.2555   47.2541 H   0  0  0  0  0  0  0  0  0  0  0  0
   48.1407   35.5647   43.0478 H   0  0  0  0  0  0  0  0  0  0  0  0
   47.8546   34.5615   41.5855 H   0  0  0  0  0  0  0  0  0  0  0  0
   47.4001   36.2994   41.5855 H   0  0  0  0  0  0  0  0  0  0  0  0
   45.2512   36.4184   44.0885 H   0  0  0  0  0  0  0  0  0  0  0  0
   45.8599   37.1443   42.5624 H   0  0  0  0  0  0  0  0  0  0  0  0
   44.3277   36.2068   42.5624 H   0  0  0  0  0  0  0  0  0  0  0  0
  2  1  1  0
  3  2  1  0
  4  5  1  0
  4  3  2  0
  5  6  1  0
  6  2  2  0
  7  5  1  0
  7  8  1  0
  9  8  2  0
 10 11  1  0
 10  9  1  0
 11  7  2  0
 12 17  1  0
 12 10  1  0
 13 12  2  0
 14 15  2  0
 14 13  1  0
 15 16  1  0
 16 17  2  0
 18  1  1  0
 18 19  1  0
 19 27  1  0
 19 21  1  0
 20 25  2  0
 21 22  2  0
 21 20  1  0
 22 23  1  0
 23 24  2  0
 25 24  1  0
 26 19  1  0
  3 28  1  0
  4 29  1  0
  8 30  1  0
  9 31  1  0
 13 32  1  0
 14 33  1  0
 15 34  1  0
 16 35  1  0
 18 36  1  0
 18 37  1  0
 20 38  1  0
 22 39  1  0
 24 40  1  0
 26 41  1  0
 26 42  1  0
 26 43  1  0
 27 44  1  0
 27 45  1  0
 27 46  1  0
M  ISO  8  28  14  29  14  30  14  31  14  32  14  33  14  34  14  35  14
M  ISO  8  36   8  37   8  38  14  39  14  40  14  41   8  42   8  43   8
M  ISO  3  44   8  45   8  46   8
M  END
>  <minimizedAffinity>  (1) 
-5.5740447

>  <minimizedRMSD>  (1) 
2.69216871

$$$$
