
     RDKit          3D

 29 29  0  0  0  0  0  0  0  0999 V2000
   47.2210   34.4660   42.0340 C   0  0  0  0  0  0  0  0  0  0  0  0
   44.6390   36.0020   44.3450 C   0  0  0  0  0  0  0  0  0  0  0  0
   45.4470   35.8380   43.1960 C   0  0  0  0  0  0  0  0  0  0  0  0
   46.3310   34.7470   43.1640 C   0  0  0  0  0  0  0  0  0  0  0  0
   46.3680   33.9060   44.2330 N   0  0  0  0  0  0  0  0  0  0  0  0
   45.5740   34.0930   45.3290 C   0  0  0  0  0  0  0  0  0  0  0  0
   44.7150   35.1440   45.3710 N   0  0  0  0  0  0  0  0  0  0  0  0
   46.3490   34.1950   40.8150 C   0  0  0  0  0  0  0  0  0  0  0  0
   48.2270   35.5110   41.7340 C   0  0  0  0  0  0  0  0  0  0  0  0
   47.9620   33.1630   42.3090 C   0  0  0  0  0  0  0  0  0  0  0  0
   48.7890   32.7970   41.2440 O   0  0  0  0  0  0  0  0  0  0  0  0
   49.9290   32.1410   41.7230 C   0  0  0  0  0  0  0  0  0  0  0  0
   50.9080   33.1390   42.2880 C   0  0  0  0  0  0  0  0  0  0  0  0
   43.9371   36.8474   44.3971 H   0  0  0  0  0  0  0  0  0  0  0  0
   45.3851   36.5428   42.3537 H   0  0  0  0  0  0  0  0  0  0  0  0
   45.6304   33.3934   46.1760 H   0  0  0  0  0  0  0  0  0  0  0  0
   45.3464   33.8834   41.1433 H   0  0  0  0  0  0  0  0  0  0  0  0
   46.2688   35.1106   40.2107 H   0  0  0  0  0  0  0  0  0  0  0  0
   46.8019   33.3952   40.2107 H   0  0  0  0  0  0  0  0  0  0  0  0
   48.6217   35.9210   42.6753 H   0  0  0  0  0  0  0  0  0  0  0  0
   49.0502   35.0711   41.1519 H   0  0  0  0  0  0  0  0  0  0  0  0
   47.7561   36.3169   41.1519 H   0  0  0  0  0  0  0  0  0  0  0  0
   48.5790   33.2887   43.2109 H   0  0  0  0  0  0  0  0  0  0  0  0
   47.2135   32.3688   42.4468 H   0  0  0  0  0  0  0  0  0  0  0  0
   49.6357   31.4334   42.5125 H   0  0  0  0  0  0  0  0  0  0  0  0
   50.4072   31.6014   40.8922 H   0  0  0  0  0  0  0  0  0  0  0  0
   50.8739   33.1043   43.3869 H   0  0  0  0  0  0  0  0  0  0  0  0
   51.9233   32.8914   41.9446 H   0  0  0  0  0  0  0  0  0  0  0  0
   50.6410   34.1493   41.9446 H   0  0  0  0  0  0  0  0  0  0  0  0
  1 10  1  0
  1  4  1  0
  2  7  2  0
  3  2  1  0
  4  3  2  0
  4  5  1  0
  5  6  2  0
  6  7  1  0
  8  1  1  0
  9  1  1  0
 11 12  1  0
 11 10  1  0
 12 13  1  0
  2 14  1  0
  3 15  1  0
  6 16  1  0
  8 17  1  0
  8 18  1  0
  8 19  1  0
  9 20  1  0
  9 21  1  0
  9 22  1  0
 10 23  1  0
 10 24  1  0
 12 25  1  0
 12 26  1  0
 13 27  1  0
 13 28  1  0
 13 29  1  0
M  ISO  8  14  14  15  14  16  14  17   8  18   8  19   8  20   8  21   8
M  ISO  8  22   8  23   8  24   8  25   8  26   8  27   8  28   8  29   8
M  END
>  <minimizedAffinity>  (1) 
-4.01248741

>  <minimizedRMSD>  (1) 
1.35785782

$$$$
