
     RDKit          3D

 33 34  0  0  0  0  0  0  0  0999 V2000
   47.6050   34.3680   42.1780 C   0  0  0  0  0  0  0  0  0  0  0  0
   44.7250   36.0260   44.0270 C   0  0  0  0  0  0  0  0  0  0  0  0
   45.6860   35.7980   43.0110 C   0  0  0  0  0  0  0  0  0  0  0  0
   46.5630   34.7130   43.1610 C   0  0  0  0  0  0  0  0  0  0  0  0
   46.4310   33.9410   44.2880 N   0  0  0  0  0  0  0  0  0  0  0  0
   45.4950   34.1960   45.2370 C   0  0  0  0  0  0  0  0  0  0  0  0
   44.6500   35.2300   45.1060 N   0  0  0  0  0  0  0  0  0  0  0  0
   46.9410   33.5660   41.0820 C   0  0  0  0  0  0  0  0  0  0  0  0
   48.3620   35.5160   41.6480 C   0  0  0  0  0  0  0  0  0  0  0  0
   48.5960   33.4360   42.8640 C   0  0  0  0  0  0  0  0  0  0  0  0
   48.8020   32.2620   42.1230 O   0  0  0  0  0  0  0  0  0  0  0  0
   49.6040   31.2790   42.6920 C   0  0  0  0  0  0  0  0  0  0  0  0
   50.9740   31.2790   42.4780 C   0  0  0  0  0  0  0  0  0  0  0  0
   51.7040   30.2710   43.0760 C   0  0  0  0  0  0  0  0  0  0  0  0
   51.1160   29.2980   43.8560 C   0  0  0  0  0  0  0  0  0  0  0  0
   49.7490   29.3500   44.0320 C   0  0  0  0  0  0  0  0  0  0  0  0
   48.9360   30.3340   43.4640 C   0  0  0  0  0  0  0  0  0  0  0  0
   44.0273   36.8709   43.9301 H   0  0  0  0  0  0  0  0  0  0  0  0
   45.7429   36.4533   42.1293 H   0  0  0  0  0  0  0  0  0  0  0  0
   45.4283   33.5479   46.1233 H   0  0  0  0  0  0  0  0  0  0  0  0
   46.3005   32.7923   41.5305 H   0  0  0  0  0  0  0  0  0  0  0  0
   46.3279   34.2338   40.4590 H   0  0  0  0  0  0  0  0  0  0  0  0
   47.7115   33.0883   40.4590 H   0  0  0  0  0  0  0  0  0  0  0  0
   48.7557   36.1130   42.4838 H   0  0  0  0  0  0  0  0  0  0  0  0
   49.1975   35.1515   41.0323 H   0  0  0  0  0  0  0  0  0  0  0  0
   47.6979   36.1404   41.0323 H   0  0  0  0  0  0  0  0  0  0  0  0
   49.5570   33.9589   42.9781 H   0  0  0  0  0  0  0  0  0  0  0  0
   48.1816   33.1553   43.8435 H   0  0  0  0  0  0  0  0  0  0  0  0
   51.4582   32.0485   41.8588 H   0  0  0  0  0  0  0  0  0  0  0  0
   52.7932   30.2433   42.9247 H   0  0  0  0  0  0  0  0  0  0  0  0
   51.7183   28.5050   44.3234 H   0  0  0  0  0  0  0  0  0  0  0  0
   49.2738   28.5758   44.6523 H   0  0  0  0  0  0  0  0  0  0  0  0
   47.8469   30.3597   43.6162 H   0  0  0  0  0  0  0  0  0  0  0  0
  1 10  1  0
  1  4  1  0
  2  7  2  0
  3  4  2  0
  3  2  1  0
  4  5  1  0
  5  6  2  0
  7  6  1  0
  8  1  1  0
  9  1  1  0
 11 12  1  0
 11 10  1  0
 12 17  1  0
 13 12  2  0
 13 14  1  0
 14 15  2  0
 15 16  1  0
 17 16  2  0
  2 18  1  0
  3 19  1  0
  6 20  1  0
  8 21  1  0
  8 22  1  0
  8 23  1  0
  9 24  1  0
  9 25  1  0
  9 26  1  0
 10 27  1  0
 10 28  1  0
 13 29  1  0
 14 30  1  0
 15 31  1  0
 16 32  1  0
 17 33  1  0
M  ISO  8  18  14  19  14  20  14  21   8  22   8  23   8  24   8  25   8
M  ISO  8  26   8  27   8  28   8  29  14  30  14  31  14  32  14  33  14
M  END
>  <minimizedAffinity>  (1) 
-4.09916115

>  <minimizedRMSD>  (1) 
1.58723664

$$$$
