
     RDKit          3D

 32 32  0  0  0  0  0  0  0  0999 V2000
   47.2550   34.4750   42.0240 C   0  0  0  0  0  0  0  0  0  0  0  0
   44.6520   36.0040   44.3130 C   0  0  0  0  0  0  0  0  0  0  0  0
   45.4720   35.8430   43.1650 C   0  0  0  0  0  0  0  0  0  0  0  0
   46.3580   34.7530   43.1450 C   0  0  0  0  0  0  0  0  0  0  0  0
   46.3830   33.9190   44.2160 N   0  0  0  0  0  0  0  0  0  0  0  0
   45.5840   34.1040   45.2970 C   0  0  0  0  0  0  0  0  0  0  0  0
   44.7230   35.1450   45.3420 N   0  0  0  0  0  0  0  0  0  0  0  0
   46.4140   34.1770   40.8010 C   0  0  0  0  0  0  0  0  0  0  0  0
   48.2660   35.5350   41.7390 C   0  0  0  0  0  0  0  0  0  0  0  0
   48.0350   33.1980   42.3130 C   0  0  0  0  0  0  0  0  0  0  0  0
   48.7880   32.7980   41.2090 O   0  0  0  0  0  0  0  0  0  0  0  0
   49.9890   32.2250   41.4830 C   0  0  0  0  0  0  0  0  0  0  0  0
   50.9160   33.1190   42.2810 C   0  0  0  0  0  0  0  0  0  0  0  0
   50.7000   31.6470   40.2850 C   0  0  0  0  0  0  0  0  0  0  0  0
   43.9467   36.8468   44.3599 H   0  0  0  0  0  0  0  0  0  0  0  0
   45.4155   36.5467   42.3214 H   0  0  0  0  0  0  0  0  0  0  0  0
   45.6373   33.4021   46.1423 H   0  0  0  0  0  0  0  0  0  0  0  0
   45.4206   33.8250   41.1160 H   0  0  0  0  0  0  0  0  0  0  0  0
   46.3052   35.0913   40.1992 H   0  0  0  0  0  0  0  0  0  0  0  0
   46.9051   33.3982   40.1992 H   0  0  0  0  0  0  0  0  0  0  0  0
   48.6511   35.9388   42.6870 H   0  0  0  0  0  0  0  0  0  0  0  0
   49.0960   35.1039   41.1600 H   0  0  0  0  0  0  0  0  0  0  0  0
   47.7961   36.3437   41.1600 H   0  0  0  0  0  0  0  0  0  0  0  0
   48.7118   33.3769   43.1615 H   0  0  0  0  0  0  0  0  0  0  0  0
   47.3155   32.3997   42.5476 H   0  0  0  0  0  0  0  0  0  0  0  0
   49.7182   31.3707   42.1208 H   0  0  0  0  0  0  0  0  0  0  0  0
   50.7472   32.9562   43.3557 H   0  0  0  0  0  0  0  0  0  0  0  0
   51.9604   32.8785   42.0333 H   0  0  0  0  0  0  0  0  0  0  0  0
   50.7135   34.1714   42.0333 H   0  0  0  0  0  0  0  0  0  0  0  0
   51.5120   30.9869   40.6238 H   0  0  0  0  0  0  0  0  0  0  0  0
   49.9867   31.0694   39.6787 H   0  0  0  0  0  0  0  0  0  0  0  0
   51.1198   32.4632   39.6787 H   0  0  0  0  0  0  0  0  0  0  0  0
  1 10  1  0
  1  4  1  0
  2  7  2  0
  3  2  1  0
  4  3  2  0
  4  5  1  0
  5  6  2  0
  6  7  1  0
  8  1  1  0
  9  1  1  0
 11 12  1  0
 11 10  1  0
 12 13  1  0
 14 12  1  0
  2 15  1  0
  3 16  1  0
  6 17  1  0
  8 18  1  0
  8 19  1  0
  8 20  1  0
  9 21  1  0
  9 22  1  0
  9 23  1  0
 10 24  1  0
 10 25  1  0
 12 26  1  0
 13 27  1  0
 13 28  1  0
 13 29  1  0
 14 30  1  0
 14 31  1  0
 14 32  1  0
M  ISO  8  15  14  16  14  17  14  18   8  19   8  20   8  21   8  22   8
M  ISO  8  23   8  24   8  25   8  26   8  27   8  28   8  29   8  30   8
M  ISO  2  31   8  32   8
M  END
>  <minimizedAffinity>  (1) 
-4.2133112

>  <minimizedRMSD>  (1) 
2.04603934

$$$$
