
     RDKit          3D

 44 47  0  0  0  0  0  0  0  0999 V2000
   44.8940   34.0510   41.9430 C   0  0  0  0  0  0  0  0  0  0  0  0
   45.7750   34.8930   42.8510 C   0  0  0  0  0  0  0  0  0  0  0  0
   45.1460   34.4920   45.2160 C   0  0  0  0  0  0  0  0  0  0  0  0
   45.9780   34.1600   44.1190 C   0  0  0  0  0  0  0  0  0  0  0  0
   46.9120   33.1710   44.3430 C   0  0  0  0  0  0  0  0  0  0  0  0
   47.0090   32.5740   45.5340 N   0  0  0  0  0  0  0  0  0  0  0  0
   46.2050   32.9110   46.5570 C   0  0  0  0  0  0  0  0  0  0  0  0
   45.2820   33.8640   46.3950 N   0  0  0  0  0  0  0  0  0  0  0  0
   47.1020   35.1730   42.2000 C   0  0  0  0  0  0  0  0  0  0  0  0
   45.0930   36.1820   43.1200 C   0  0  0  0  0  0  0  0  0  0  0  0
   43.6210   34.5900   41.9750 O   0  0  0  0  0  0  0  0  0  0  0  0
   42.8030   34.4330   40.8800 C   0  0  0  0  0  0  0  0  0  0  0  0
   42.9300   35.2130   39.7380 C   0  0  0  0  0  0  0  0  0  0  0  0
   41.9480   34.7740   38.8590 C   0  0  0  0  0  0  0  0  0  0  0  0
   41.2680   33.7750   39.4560 N   0  0  0  0  0  0  0  0  0  0  0  0
   41.7750   33.5680   40.6620 N   0  0  0  0  0  0  0  0  0  0  0  0
   40.1920   33.1210   38.7890 C   0  0  0  0  0  0  0  0  0  0  0  0
   38.9400   33.6770   38.5260 C   0  0  0  0  0  0  0  0  0  0  0  0
   38.1600   32.7300   37.8550 C   0  0  0  0  0  0  0  0  0  0  0  0
   38.9510   31.6600   37.7390 N   0  0  0  0  0  0  0  0  0  0  0  0
   40.1590   31.8820   38.2900 N   0  0  0  0  0  0  0  0  0  0  0  0
   38.5770   30.4030   37.1030 C   0  0  0  0  0  0  0  0  0  0  0  0
   39.5320   29.6720   36.2610 C   0  0  0  0  0  0  0  0  0  0  0  0
   38.4040   30.3880   35.6020 C   0  0  0  0  0  0  0  0  0  0  0  0
   44.8700   33.0118   42.3028 H   0  0  0  0  0  0  0  0  0  0  0  0
   45.2872   34.0520   40.9157 H   0  0  0  0  0  0  0  0  0  0  0  0
   44.3799   35.2730   45.1009 H   0  0  0  0  0  0  0  0  0  0  0  0
   47.5873   32.8690   43.5289 H   0  0  0  0  0  0  0  0  0  0  0  0
   46.3066   32.4027   47.5272 H   0  0  0  0  0  0  0  0  0  0  0  0
   47.8646   35.3339   42.9763 H   0  0  0  0  0  0  0  0  0  0  0  0
   47.3913   34.3161   41.5738 H   0  0  0  0  0  0  0  0  0  0  0  0
   47.0204   36.0737   41.5738 H   0  0  0  0  0  0  0  0  0  0  0  0
   45.0124   36.3344   44.2064 H   0  0  0  0  0  0  0  0  0  0  0  0
   45.6742   37.0039   42.6766 H   0  0  0  0  0  0  0  0  0  0  0  0
   44.0865   36.1638   42.6766 H   0  0  0  0  0  0  0  0  0  0  0  0
   43.6609   36.0165   39.5645 H   0  0  0  0  0  0  0  0  0  0  0  0
   41.7584   35.1723   37.8513 H   0  0  0  0  0  0  0  0  0  0  0  0
   38.6193   34.6926   38.8010 H   0  0  0  0  0  0  0  0  0  0  0  0
   37.1245   32.8415   37.5011 H   0  0  0  0  0  0  0  0  0  0  0  0
   37.9654   30.1294   37.9754 H   0  0  0  0  0  0  0  0  0  0  0  0
   40.5591   30.0489   36.1467 H   0  0  0  0  0  0  0  0  0  0  0  0
   39.9034   28.6368   36.2396 H   0  0  0  0  0  0  0  0  0  0  0  0
   38.5938   31.2977   35.0134 H   0  0  0  0  0  0  0  0  0  0  0  0
   37.5975   30.1128   34.9064 H   0  0  0  0  0  0  0  0  0  0  0  0
  1 11  1  0
  1  2  1  0
  2 10  1  0
  2  4  1  0
  3  8  2  0
  4  5  2  0
  4  3  1  0
  5  6  1  0
  6  7  2  0
  8  7  1  0
  9  2  1  0
 12 11  1  0
 13 12  1  0
 14 15  1  0
 14 13  2  0
 15 16  1  0
 16 12  2  0
 17 15  1  0
 18 17  1  0
 19 18  2  0
 20 19  1  0
 20 21  1  0
 21 17  2  0
 22 20  1  0
 23 22  1  0
 24 23  1  0
 24 22  1  0
  1 25  1  0
  1 26  1  0
  3 27  1  0
  5 28  1  0
  7 29  1  0
  9 30  1  0
  9 31  1  0
  9 32  1  0
 10 33  1  0
 10 34  1  0
 10 35  1  0
 13 36  1  0
 14 37  1  0
 18 38  1  0
 19 39  1  0
 22 40  1  0
 23 41  1  0
 23 42  1  0
 24 43  1  0
 24 44  1  0
M  ISO  8  25   8  26   8  27  14  28  14  29  14  30   8  31   8  32   8
M  ISO  8  33   8  34   8  35   8  36  14  37  14  38  14  39  14  40  13
M  ISO  4  41  13  42  13  43  13  44  13
M  END
>  <minimizedAffinity>  (1) 
-5.51331711

>  <minimizedRMSD>  (1) 
1.86326468

$$$$
