
     RDKit          3D

 39 42  0  0  0  0  0  0  0  0999 V2000
   47.7470   33.1020   42.3480 C   0  0  0  0  0  0  0  0  0  0  0  0
   47.0740   34.4250   42.0430 C   0  0  0  0  0  0  0  0  0  0  0  0
   44.5840   36.1120   44.3760 C   0  0  0  0  0  0  0  0  0  0  0  0
   45.3660   35.8860   43.2270 C   0  0  0  0  0  0  0  0  0  0  0  0
   46.2110   34.7650   43.1860 C   0  0  0  0  0  0  0  0  0  0  0  0
   46.2140   33.9630   44.2770 N   0  0  0  0  0  0  0  0  0  0  0  0
   45.4510   34.2000   45.3760 C   0  0  0  0  0  0  0  0  0  0  0  0
   44.6400   35.2630   45.4310 N   0  0  0  0  0  0  0  0  0  0  0  0
   46.1660   34.2040   40.8510 C   0  0  0  0  0  0  0  0  0  0  0  0
   48.1370   35.4110   41.7470 C   0  0  0  0  0  0  0  0  0  0  0  0
   48.1460   32.4420   41.1840 O   0  0  0  0  0  0  0  0  0  0  0  0
   49.4950   32.2530   40.9420 C   0  0  0  0  0  0  0  0  0  0  0  0
   50.4230   32.6340   41.8300 N   0  0  0  0  0  0  0  0  0  0  0  0
   51.6180   32.3630   41.4020 O   0  0  0  0  0  0  0  0  0  0  0  0
   51.5450   31.7980   40.2300 C   0  0  0  0  0  0  0  0  0  0  0  0
   50.2230   31.7290   39.9420 N   0  0  0  0  0  0  0  0  0  0  0  0
   52.5770   31.3270   39.3720 N   0  0  0  0  0  0  0  0  0  0  0  0
   52.7120   31.5930   38.0680 C   0  0  0  0  0  0  0  0  0  0  0  0
   53.7810   31.0030   37.5520 N   0  0  0  0  0  0  0  0  0  0  0  0
   54.3880   30.3150   38.5410 C   0  0  0  0  0  0  0  0  0  0  0  0
   55.5310   29.5470   38.4880 C   0  0  0  0  0  0  0  0  0  0  0  0
   55.8880   28.9760   39.6740 N   0  0  0  0  0  0  0  0  0  0  0  0
   55.1450   29.1800   40.7840 C   0  0  0  0  0  0  0  0  0  0  0  0
   54.0140   29.9440   40.8220 N   0  0  0  0  0  0  0  0  0  0  0  0
   53.6190   30.5320   39.6700 C   0  0  0  0  0  0  0  0  0  0  0  0
   48.6329   33.2890   42.9726 H   0  0  0  0  0  0  0  0  0  0  0  0
   47.0214   32.4623   42.8718 H   0  0  0  0  0  0  0  0  0  0  0  0
   43.9199   36.9879   44.4178 H   0  0  0  0  0  0  0  0  0  0  0  0
   45.3157   36.5779   42.3733 H   0  0  0  0  0  0  0  0  0  0  0  0
   45.5005   33.5096   46.2310 H   0  0  0  0  0  0  0  0  0  0  0  0
   45.1532   33.9575   41.2023 H   0  0  0  0  0  0  0  0  0  0  0  0
   46.1303   35.1197   40.2425 H   0  0  0  0  0  0  0  0  0  0  0  0
   46.5551   33.3743   40.2425 H   0  0  0  0  0  0  0  0  0  0  0  0
   48.5525   35.7964   42.6898 H   0  0  0  0  0  0  0  0  0  0  0  0
   48.9351   34.9263   41.1656 H   0  0  0  0  0  0  0  0  0  0  0  0
   47.7136   36.2433   41.1656 H   0  0  0  0  0  0  0  0  0  0  0  0
   52.0193   32.2252   37.4931 H   0  0  0  0  0  0  0  0  0  0  0  0
   56.1093   29.4058   37.5630 H   0  0  0  0  0  0  0  0  0  0  0  0
   55.4726   28.6994   41.7176 H   0  0  0  0  0  0  0  0  0  0  0  0
  2  1  1  0
  2  5  1  0
  3  8  2  0
  4  3  1  0
  5  4  2  0
  5  6  1  0
  6  7  2  0
  7  8  1  0
  9  2  1  0
 10  2  1  0
 11  1  1  0
 12 11  1  0
 12 13  2  0
 14 13  1  0
 15 14  1  0
 16 15  2  0
 16 12  1  0
 17 25  1  0
 17 15  1  0
 18 17  1  0
 19 18  2  0
 19 20  1  0
 20 25  2  0
 21 20  1  0
 21 22  2  0
 22 23  1  0
 23 24  2  0
 25 24  1  0
  1 26  1  0
  1 27  1  0
  3 28  1  0
  4 29  1  0
  7 30  1  0
  9 31  1  0
  9 32  1  0
  9 33  1  0
 10 34  1  0
 10 35  1  0
 10 36  1  0
 18 37  1  0
 21 38  1  0
 23 39  1  0
M  ISO  8  26   8  27   8  28  14  29  14  30  14  31   8  32   8  33   8
M  ISO  6  34   8  35   8  36   8  37  14  38  14  39  14
M  END
>  <minimizedAffinity>  (1) 
-5.58929157

>  <minimizedRMSD>  (1) 
0.411794633

$$$$
