
     RDKit          3D

 41 43  0  0  0  0  0  0  0  0999 V2000
   47.1520   34.4550   42.0730 C   0  0  0  0  0  0  0  0  0  0  0  0
   44.5990   36.0930   44.3500 C   0  0  0  0  0  0  0  0  0  0  0  0
   45.4020   35.8930   43.2100 C   0  0  0  0  0  0  0  0  0  0  0  0
   46.2680   34.7810   43.1860 C   0  0  0  0  0  0  0  0  0  0  0  0
   46.2670   33.9620   44.2850 N   0  0  0  0  0  0  0  0  0  0  0  0
   45.4740   34.1990   45.3560 C   0  0  0  0  0  0  0  0  0  0  0  0
   44.6470   35.2460   45.3990 N   0  0  0  0  0  0  0  0  0  0  0  0
   46.2740   34.2220   40.8520 C   0  0  0  0  0  0  0  0  0  0  0  0
   48.1960   35.4600   41.7680 C   0  0  0  0  0  0  0  0  0  0  0  0
   47.8400   33.1290   42.3740 C   0  0  0  0  0  0  0  0  0  0  0  0
   48.1050   32.4240   41.1930 O   0  0  0  0  0  0  0  0  0  0  0  0
   49.4180   32.1420   40.8650 C   0  0  0  0  0  0  0  0  0  0  0  0
   50.4340   32.5340   41.6470 N   0  0  0  0  0  0  0  0  0  0  0  0
   51.5740   32.1630   41.1490 O   0  0  0  0  0  0  0  0  0  0  0  0
   51.3740   31.5210   40.0330 C   0  0  0  0  0  0  0  0  0  0  0  0
   50.0490   31.5100   39.8610 N   0  0  0  0  0  0  0  0  0  0  0  0
   52.0640   30.8530   38.9760 N   0  0  0  0  0  0  0  0  0  0  0  0
   52.4280   29.4490   38.8970 C   0  0  0  0  0  0  0  0  0  0  0  0
   53.6510   29.3660   38.0080 C   0  0  0  0  0  0  0  0  0  0  0  0
   54.5500   30.3910   38.1990 O   0  0  0  0  0  0  0  0  0  0  0  0
   54.0370   31.6530   37.9540 C   0  0  0  0  0  0  0  0  0  0  0  0
   52.5200   31.5450   37.7620 C   0  0  0  0  0  0  0  0  0  0  0  0
   43.9192   36.9571   44.3856 H   0  0  0  0  0  0  0  0  0  0  0  0
   45.3544   36.5881   42.3588 H   0  0  0  0  0  0  0  0  0  0  0  0
   45.5120   33.5109   46.2133 H   0  0  0  0  0  0  0  0  0  0  0  0
   45.2582   33.9524   41.1769 H   0  0  0  0  0  0  0  0  0  0  0  0
   46.2342   35.1407   40.2483 H   0  0  0  0  0  0  0  0  0  0  0  0
   46.6949   33.4045   40.2483 H   0  0  0  0  0  0  0  0  0  0  0  0
   48.6084   35.8570   42.7073 H   0  0  0  0  0  0  0  0  0  0  0  0
   49.0004   34.9877   41.1851 H   0  0  0  0  0  0  0  0  0  0  0  0
   47.7547   36.2818   41.1851 H   0  0  0  0  0  0  0  0  0  0  0  0
   48.7878   33.3255   42.8965 H   0  0  0  0  0  0  0  0  0  0  0  0
   47.1729   32.5219   43.0036 H   0  0  0  0  0  0  0  0  0  0  0  0
   52.6610   29.0608   39.8995 H   0  0  0  0  0  0  0  0  0  0  0  0
   51.6014   28.8482   38.4899 H   0  0  0  0  0  0  0  0  0  0  0  0
   53.3191   29.3873   36.9595 H   0  0  0  0  0  0  0  0  0  0  0  0
   54.1715   28.4323   38.2673 H   0  0  0  0  0  0  0  0  0  0  0  0
   54.2550   32.3120   38.8073 H   0  0  0  0  0  0  0  0  0  0  0  0
   54.4979   32.0726   37.0476 H   0  0  0  0  0  0  0  0  0  0  0  0
   52.0625   32.5423   37.6836 H   0  0  0  0  0  0  0  0  0  0  0  0
   52.2437   31.0140   36.8391 H   0  0  0  0  0  0  0  0  0  0  0  0
  1 10  1  0
  1  4  1  0
  2  7  2  0
  3  2  1  0
  4  3  2  0
  4  5  1  0
  5  6  2  0
  6  7  1  0
  8  1  1  0
  9  1  1  0
 11 10  1  0
 12 11  1  0
 12 13  2  0
 14 13  1  0
 15 14  1  0
 16 15  2  0
 16 12  1  0
 17 15  1  0
 18 17  1  0
 19 20  1  0
 19 18  1  0
 21 20  1  0
 22 21  1  0
 22 17  1  0
  2 23  1  0
  3 24  1  0
  6 25  1  0
  8 26  1  0
  8 27  1  0
  8 28  1  0
  9 29  1  0
  9 30  1  0
  9 31  1  0
 10 32  1  0
 10 33  1  0
 18 34  1  0
 18 35  1  0
 19 36  1  0
 19 37  1  0
 21 38  1  0
 21 39  1  0
 22 40  1  0
 22 41  1  0
M  ISO  8  23  14  24  14  25  14  26   8  27   8  28   8  29   8  30   8
M  ISO  8  31   8  32   8  33   8  34  13  35  13  36  13  37  13  38  13
M  ISO  3  39  13  40  13  41  13
M  END
>  <minimizedAffinity>  (1) 
-5.21732712

>  <minimizedRMSD>  (1) 
0.251904935

$$$$
