
     RDKit          3D

 42 44  0  0  0  0  0  0  0  0999 V2000
   47.1380   34.4430   42.0780 C   0  0  0  0  0  0  0  0  0  0  0  0
   44.5950   36.1100   44.3540 C   0  0  0  0  0  0  0  0  0  0  0  0
   45.3980   35.8890   43.2260 C   0  0  0  0  0  0  0  0  0  0  0  0
   46.2550   34.7790   43.1950 C   0  0  0  0  0  0  0  0  0  0  0  0
   46.2540   33.9660   44.2880 N   0  0  0  0  0  0  0  0  0  0  0  0
   45.4640   34.2050   45.3670 C   0  0  0  0  0  0  0  0  0  0  0  0
   44.6470   35.2570   45.4080 N   0  0  0  0  0  0  0  0  0  0  0  0
   46.2580   34.2120   40.8630 C   0  0  0  0  0  0  0  0  0  0  0  0
   48.1920   35.4530   41.7870 C   0  0  0  0  0  0  0  0  0  0  0  0
   47.8290   33.1400   42.3750 C   0  0  0  0  0  0  0  0  0  0  0  0
   47.9860   32.3610   41.2240 O   0  0  0  0  0  0  0  0  0  0  0  0
   49.2740   32.0560   40.7900 C   0  0  0  0  0  0  0  0  0  0  0  0
   50.3570   32.4500   41.4980 N   0  0  0  0  0  0  0  0  0  0  0  0
   51.4510   32.0530   40.8990 O   0  0  0  0  0  0  0  0  0  0  0  0
   51.1310   31.4060   39.8140 C   0  0  0  0  0  0  0  0  0  0  0  0
   49.8000   31.3980   39.7310 N   0  0  0  0  0  0  0  0  0  0  0  0
   52.0340   30.8170   38.8880 N   0  0  0  0  0  0  0  0  0  0  0  0
   52.5630   31.5370   37.7460 C   0  0  0  0  0  0  0  0  0  0  0  0
   54.0610   31.6200   37.9480 C   0  0  0  0  0  0  0  0  0  0  0  0
   54.6580   30.3600   38.2420 N   0  0  0  0  0  0  0  0  0  0  0  0
   53.7980   29.2290   38.2730 C   0  0  0  0  0  0  0  0  0  0  0  0
   52.5000   29.4580   39.0020 C   0  0  0  0  0  0  0  0  0  0  0  0
   43.9203   36.9782   44.3846 H   0  0  0  0  0  0  0  0  0  0  0  0
   45.3562   36.5809   42.3718 H   0  0  0  0  0  0  0  0  0  0  0  0
   45.4994   33.5164   46.2240 H   0  0  0  0  0  0  0  0  0  0  0  0
   45.2425   33.9454   41.1911 H   0  0  0  0  0  0  0  0  0  0  0  0
   46.2189   35.1303   40.2587 H   0  0  0  0  0  0  0  0  0  0  0  0
   46.6749   33.3929   40.2587 H   0  0  0  0  0  0  0  0  0  0  0  0
   48.5980   35.8421   42.7324 H   0  0  0  0  0  0  0  0  0  0  0  0
   48.9998   34.9832   41.2068 H   0  0  0  0  0  0  0  0  0  0  0  0
   47.7570   36.2801   41.2068 H   0  0  0  0  0  0  0  0  0  0  0  0
   48.8214   33.3520   42.7995 H   0  0  0  0  0  0  0  0  0  0  0  0
   47.2066   32.5773   43.0863 H   0  0  0  0  0  0  0  0  0  0  0  0
   52.1292   32.5467   37.6989 H   0  0  0  0  0  0  0  0  0  0  0  0
   52.3159   31.0261   36.8037 H   0  0  0  0  0  0  0  0  0  0  0  0
   54.5164   32.0167   37.0286 H   0  0  0  0  0  0  0  0  0  0  0  0
   54.2386   32.2759   38.8130 H   0  0  0  0  0  0  0  0  0  0  0  0
   55.3780   30.1831   37.5270 H   0  0  0  0  0  0  0  0  0  0  0  0
   53.5654   28.9444   37.2362 H   0  0  0  0  0  0  0  0  0  0  0  0
   54.3334   28.4407   38.8225 H   0  0  0  0  0  0  0  0  0  0  0  0
   52.6476   29.2241   40.0667 H   0  0  0  0  0  0  0  0  0  0  0  0
   51.7412   28.8056   38.5453 H   0  0  0  0  0  0  0  0  0  0  0  0
  1 10  1  0
  1  4  1  0
  2  7  2  0
  3  2  1  0
  4  3  2  0
  4  5  1  0
  5  6  2  0
  6  7  1  0
  8  1  1  0
  9  1  1  0
 11 10  1  0
 12 11  1  0
 12 13  2  0
 14 13  1  0
 15 14  1  0
 16 15  2  0
 16 12  1  0
 17 22  1  0
 17 15  1  0
 18 19  1  0
 18 17  1  0
 19 20  1  0
 20 21  1  0
 21 22  1  0
  2 23  1  0
  3 24  1  0
  6 25  1  0
  8 26  1  0
  8 27  1  0
  8 28  1  0
  9 29  1  0
  9 30  1  0
  9 31  1  0
 10 32  1  0
 10 33  1  0
 18 34  1  0
 18 35  1  0
 19 36  1  0
 19 37  1  0
 20 38  1  0
 21 39  1  0
 21 40  1  0
 22 41  1  0
 22 42  1  0
M  ISO  8  23  14  24  14  25  14  26   8  27   8  28   8  29   8  30   8
M  ISO  8  31   8  32   8  33   8  34  13  35  13  36  13  37  13  38   5
M  ISO  4  39  13  40  13  41  13  42  13
M  END
>  <minimizedAffinity>  (1) 
-5.1796937

>  <minimizedRMSD>  (1) 
0.483505309

$$$$
