
     RDKit          3D

 49 52  0  0  1  0  0  0  0  0999 V2000
   44.9590   34.1070   41.8960 C   0  0  0  0  0  0  0  0  0  0  0  0
   45.8520   34.9220   42.8250 C   0  0  0  0  0  0  0  0  0  0  0  0
   45.2000   34.4840   45.1740 C   0  0  0  0  0  0  0  0  0  0  0  0
   46.0380   34.1640   44.0810 C   0  0  0  0  0  0  0  0  0  0  0  0
   46.9550   33.1580   44.3120 C   0  0  0  0  0  0  0  0  0  0  0  0
   47.0290   32.5400   45.4970 N   0  0  0  0  0  0  0  0  0  0  0  0
   46.2070   32.8810   46.5100 C   0  0  0  0  0  0  0  0  0  0  0  0
   45.2840   33.8620   46.3500 N   0  0  0  0  0  0  0  0  0  0  0  0
   47.1850   35.1820   42.1810 C   0  0  0  0  0  0  0  0  0  0  0  0
   45.1760   36.2140   43.0990 C   0  0  0  0  0  0  0  0  0  0  0  0
   43.6520   34.5550   42.0570 O   0  0  0  0  0  0  0  0  0  0  0  0
   42.7780   34.4270   41.0010 C   0  0  0  0  0  0  0  0  0  0  0  0
   42.5860   35.4140   40.0550 C   0  0  0  0  0  0  0  0  0  0  0  0
   41.6430   34.9310   39.1560 C   0  0  0  0  0  0  0  0  0  0  0  0
   41.2910   33.6930   39.5640 N   0  0  0  0  0  0  0  0  0  0  0  0
   41.9630   33.3880   40.6600 N   0  0  0  0  0  0  0  0  0  0  0  0
   40.3240   32.9310   38.8320 C   0  0  0  0  0  0  0  0  0  0  0  0
   38.9650   33.1930   38.7660 C   0  0  0  0  0  0  0  0  0  0  0  0
   38.3620   32.2260   37.9520 C   0  0  0  0  0  0  0  0  0  0  0  0
   39.3790   31.4260   37.5650 N   0  0  0  0  0  0  0  0  0  0  0  0
   40.5290   31.8450   38.0850 N   0  0  0  0  0  0  0  0  0  0  0  0
   40.3510   29.4720   36.5680 N   0  0  0  0  0  0  0  0  0  0  0  0
   40.4200   28.6620   37.7670 C   0  0  0  0  0  0  0  0  0  0  0  0
   39.0290   28.5740   38.3350 C   0  0  0  0  0  0  0  0  0  0  0  0
   38.1870   29.2880   37.2850 C   0  0  0  0  0  0  0  0  0  0  0  0
   39.1590   30.2900   36.7020 C   0  0  1  0  0  0  0  0  0  0  0  0
   45.0232   33.0403   42.1568 H   0  0  0  0  0  0  0  0  0  0  0  0
   45.2800   34.2299   40.8511 H   0  0  0  0  0  0  0  0  0  0  0  0
   44.4489   35.2778   45.0489 H   0  0  0  0  0  0  0  0  0  0  0  0
   47.6395   32.8579   43.5049 H   0  0  0  0  0  0  0  0  0  0  0  0
   46.2856   32.3589   47.4750 H   0  0  0  0  0  0  0  0  0  0  0  0
   47.9463   35.3305   42.9610 H   0  0  0  0  0  0  0  0  0  0  0  0
   47.4641   34.3214   41.5554 H   0  0  0  0  0  0  0  0  0  0  0  0
   47.1202   36.0844   41.5554 H   0  0  0  0  0  0  0  0  0  0  0  0
   45.0977   36.3636   44.1860 H   0  0  0  0  0  0  0  0  0  0  0  0
   45.7603   37.0345   42.6571 H   0  0  0  0  0  0  0  0  0  0  0  0
   44.1687   36.2018   42.6571 H   0  0  0  0  0  0  0  0  0  0  0  0
   43.0838   36.3943   40.0197 H   0  0  0  0  0  0  0  0  0  0  0  0
   41.2544   35.4603   38.2735 H   0  0  0  0  0  0  0  0  0  0  0  0
   38.4462   34.0223   39.2691 H   0  0  0  0  0  0  0  0  0  0  0  0
   37.2980   32.1378   37.6871 H   0  0  0  0  0  0  0  0  0  0  0  0
   40.2802   28.8712   35.7344 H   0  0  0  0  0  0  0  0  0  0  0  0
   40.7888   27.6557   37.5195 H   0  0  0  0  0  0  0  0  0  0  0  0
   41.1090   29.1103   38.4979 H   0  0  0  0  0  0  0  0  0  0  0  0
   38.7138   27.5264   38.4496 H   0  0  0  0  0  0  0  0  0  0  0  0
   38.9404   29.0172   39.3379 H   0  0  0  0  0  0  0  0  0  0  0  0
   37.8330   28.5856   36.5161 H   0  0  0  0  0  0  0  0  0  0  0  0
   37.2780   29.7511   37.6964 H   0  0  0  0  0  0  0  0  0  0  0  0
   38.8113   30.7511   35.7658 H   0  0  0  0  0  0  0  0  0  0  0  0
  1 11  1  0
  1  2  1  0
  2 10  1  0
  2  4  1  0
  3  8  2  0
  4  5  2  0
  4  3  1  0
  5  6  1  0
  6  7  2  0
  8  7  1  0
  9  2  1  0
 12 11  1  0
 13 12  1  0
 14 15  1  0
 14 13  2  0
 15 16  1  0
 16 12  2  0
 17 15  1  0
 18 17  1  0
 19 18  2  0
 20 19  1  0
 20 21  1  0
 21 17  2  0
 22 26  1  0
 22 23  1  0
 23 24  1  0
 25 24  1  0
 26 25  1  0
 26 20  1  0
  1 27  1  0
  1 28  1  0
  3 29  1  0
  5 30  1  0
  7 31  1  0
  9 32  1  0
  9 33  1  0
  9 34  1  0
 10 35  1  0
 10 36  1  0
 10 37  1  0
 13 38  1  0
 14 39  1  0
 18 40  1  0
 19 41  1  0
 22 42  1  0
 23 43  1  0
 23 44  1  0
 24 45  1  0
 24 46  1  0
 25 47  1  0
 25 48  1  0
 26 49  1  6
M  ISO  8  27   8  28   8  29  14  30  14  31  14  32   8  33   8  34   8
M  ISO  8  35   8  36   8  37   8  38  14  39  14  40  14  41  14  42   5
M  ISO  7  43  13  44  13  45  13  46  13  47  13  48  13  49  13
M  END
>  <minimizedAffinity>  (1) 
-5.44710255

>  <minimizedRMSD>  (1) 
2.28446221

$$$$
