
     RDKit          3D

 36 38  0  0  0  0  0  0  0  0999 V2000
   47.7200   34.5150   41.8740 C   0  0  0  0  0  0  0  0  0  0  0  0
   44.8240   35.7660   43.9940 C   0  0  0  0  0  0  0  0  0  0  0  0
   45.7280   35.6870   42.9120 C   0  0  0  0  0  0  0  0  0  0  0  0
   46.7240   34.6950   42.9370 C   0  0  0  0  0  0  0  0  0  0  0  0
   46.7530   33.8590   44.0220 N   0  0  0  0  0  0  0  0  0  0  0  0
   45.8670   33.9660   45.0420 C   0  0  0  0  0  0  0  0  0  0  0  0
   44.9060   34.9150   45.0270 N   0  0  0  0  0  0  0  0  0  0  0  0
   46.9520   34.2190   40.5950 C   0  0  0  0  0  0  0  0  0  0  0  0
   48.6650   35.6320   41.6930 C   0  0  0  0  0  0  0  0  0  0  0  0
   48.5180   33.2600   42.1770 C   0  0  0  0  0  0  0  0  0  0  0  0
   48.6180   32.4190   41.0760 O   0  0  0  0  0  0  0  0  0  0  0  0
   49.8670   32.0890   40.5730 C   0  0  0  0  0  0  0  0  0  0  0  0
   50.9750   32.2070   41.3400 N   0  0  0  0  0  0  0  0  0  0  0  0
   52.0330   31.8410   40.6600 O   0  0  0  0  0  0  0  0  0  0  0  0
   51.6650   31.4800   39.4610 C   0  0  0  0  0  0  0  0  0  0  0  0
   50.3400   31.6280   39.3970 N   0  0  0  0  0  0  0  0  0  0  0  0
   52.5610   31.0100   38.4110 C   0  0  0  0  0  0  0  0  0  0  0  0
   53.9070   31.3040   38.4730 C   0  0  0  0  0  0  0  0  0  0  0  0
   54.7240   30.8410   37.4620 C   0  0  0  0  0  0  0  0  0  0  0  0
   54.2690   30.1090   36.4040 N   0  0  0  0  0  0  0  0  0  0  0  0
   52.9470   29.8500   36.3930 C   0  0  0  0  0  0  0  0  0  0  0  0
   52.1040   30.2880   37.3720 N   0  0  0  0  0  0  0  0  0  0  0  0
   44.0402   36.5378   43.9893 H   0  0  0  0  0  0  0  0  0  0  0  0
   45.6544   36.3873   42.0669 H   0  0  0  0  0  0  0  0  0  0  0  0
   45.9313   33.2714   45.8925 H   0  0  0  0  0  0  0  0  0  0  0  0
   45.9531   33.8340   40.8479 H   0  0  0  0  0  0  0  0  0  0  0  0
   46.8507   35.1425   40.0060 H   0  0  0  0  0  0  0  0  0  0  0  0
   47.4967   33.4664   40.0060 H   0  0  0  0  0  0  0  0  0  0  0  0
   48.9823   36.0070   42.6772 H   0  0  0  0  0  0  0  0  0  0  0  0
   49.5446   35.2811   41.1334 H   0  0  0  0  0  0  0  0  0  0  0  0
   48.1732   36.4413   41.1334 H   0  0  0  0  0  0  0  0  0  0  0  0
   49.5307   33.5523   42.4917 H   0  0  0  0  0  0  0  0  0  0  0  0
   47.9922   32.7113   42.9723 H   0  0  0  0  0  0  0  0  0  0  0  0
   54.3185   31.8922   39.3065 H   0  0  0  0  0  0  0  0  0  0  0  0
   55.7979   31.0741   37.5114 H   0  0  0  0  0  0  0  0  0  0  0  0
   52.5308   29.2620   35.5617 H   0  0  0  0  0  0  0  0  0  0  0  0
  1 10  1  0
  1  4  1  0
  2  7  2  0
  3  4  2  0
  3  2  1  0
  4  5  1  0
  5  6  2  0
  7  6  1  0
  8  1  1  0
  9  1  1  0
 11 10  1  0
 12 11  1  0
 12 13  2  0
 14 13  1  0
 15 14  1  0
 16 15  2  0
 16 12  1  0
 17 18  2  0
 17 15  1  0
 19 18  1  0
 20 19  2  0
 21 20  1  0
 21 22  2  0
 22 17  1  0
  2 23  1  0
  3 24  1  0
  6 25  1  0
  8 26  1  0
  8 27  1  0
  8 28  1  0
  9 29  1  0
  9 30  1  0
  9 31  1  0
 10 32  1  0
 10 33  1  0
 18 34  1  0
 19 35  1  0
 21 36  1  0
M  ISO  8  23  14  24  14  25  14  26   8  27   8  28   8  29   8  30   8
M  ISO  6  31   8  32   8  33   8  34  14  35  14  36  14
M  END
>  <minimizedAffinity>  (1) 
-5.07931614

>  <minimizedRMSD>  (1) 
0.9495188

$$$$
