
     RDKit          3D

 35 37  0  0  0  0  0  0  0  0999 V2000
   47.1130   34.4150   42.0160 C   0  0  0  0  0  0  0  0  0  0  0  0
   44.6110   36.0550   44.3540 C   0  0  0  0  0  0  0  0  0  0  0  0
   45.3940   35.8370   43.2100 C   0  0  0  0  0  0  0  0  0  0  0  0
   46.2590   34.7270   43.1610 C   0  0  0  0  0  0  0  0  0  0  0  0
   46.2780   33.9180   44.2510 N   0  0  0  0  0  0  0  0  0  0  0  0
   45.5070   34.1580   45.3380 C   0  0  0  0  0  0  0  0  0  0  0  0
   44.6830   35.2090   45.3980 N   0  0  0  0  0  0  0  0  0  0  0  0
   46.2090   34.2160   40.8130 C   0  0  0  0  0  0  0  0  0  0  0  0
   48.1840   35.4070   41.7300 C   0  0  0  0  0  0  0  0  0  0  0  0
   47.7740   33.0760   42.2710 C   0  0  0  0  0  0  0  0  0  0  0  0
   48.1800   32.4510   41.0980 O   0  0  0  0  0  0  0  0  0  0  0  0
   49.5290   32.2220   40.8860 C   0  0  0  0  0  0  0  0  0  0  0  0
   50.4440   32.4830   41.8410 N   0  0  0  0  0  0  0  0  0  0  0  0
   51.6290   32.1890   41.4060 O   0  0  0  0  0  0  0  0  0  0  0  0
   51.5680   31.7320   40.1820 C   0  0  0  0  0  0  0  0  0  0  0  0
   50.2620   31.7500   39.8480 N   0  0  0  0  0  0  0  0  0  0  0  0
   52.6650   31.2900   39.3280 C   0  0  0  0  0  0  0  0  0  0  0  0
   52.9230   31.6150   37.9960 C   0  0  0  0  0  0  0  0  0  0  0  0
   54.0760   30.9170   37.7080 C   0  0  0  0  0  0  0  0  0  0  0  0
   54.5090   30.2130   38.7630 N   0  0  0  0  0  0  0  0  0  0  0  0
   53.6360   30.4610   39.7180 N   0  0  0  0  0  0  0  0  0  0  0  0
   43.9350   36.9217   44.3975 H   0  0  0  0  0  0  0  0  0  0  0  0
   45.3324   36.5288   42.3570 H   0  0  0  0  0  0  0  0  0  0  0  0
   45.5601   33.4698   46.1945 H   0  0  0  0  0  0  0  0  0  0  0  0
   45.1879   33.9912   41.1548 H   0  0  0  0  0  0  0  0  0  0  0  0
   46.1989   35.1334   40.2062 H   0  0  0  0  0  0  0  0  0  0  0  0
   46.5851   33.3791   40.2062 H   0  0  0  0  0  0  0  0  0  0  0  0
   48.5943   35.7870   42.6772 H   0  0  0  0  0  0  0  0  0  0  0  0
   48.9852   34.9248   41.1506 H   0  0  0  0  0  0  0  0  0  0  0  0
   47.7645   36.2427   41.1506 H   0  0  0  0  0  0  0  0  0  0  0  0
   48.6554   33.2337   42.9100 H   0  0  0  0  0  0  0  0  0  0  0  0
   47.0330   32.4247   42.7576 H   0  0  0  0  0  0  0  0  0  0  0  0
   52.3430   32.2731   37.3322 H   0  0  0  0  0  0  0  0  0  0  0  0
   54.5799   30.9355   36.7304 H   0  0  0  0  0  0  0  0  0  0  0  0
   55.3423   29.6098   38.8157 H   0  0  0  0  0  0  0  0  0  0  0  0
  1 10  1  0
  1  4  1  0
  2  7  2  0
  3  2  1  0
  4  3  2  0
  4  5  1  0
  5  6  2  0
  6  7  1  0
  8  1  1  0
  9  1  1  0
 11 10  1  0
 12 11  1  0
 12 13  2  0
 14 13  1  0
 15 14  1  0
 16 15  2  0
 16 12  1  0
 17 21  2  0
 17 15  1  0
 18 17  1  0
 19 18  2  0
 19 20  1  0
 20 21  1  0
  2 22  1  0
  3 23  1  0
  6 24  1  0
  8 25  1  0
  8 26  1  0
  8 27  1  0
  9 28  1  0
  9 29  1  0
  9 30  1  0
 10 31  1  0
 10 32  1  0
 18 33  1  0
 19 34  1  0
 20 35  1  0
M  ISO  8  22  14  23  14  24  14  25   8  26   8  27   8  28   8  29   8
M  ISO  6  30   8  31   8  32   8  33  14  34  14  35   9
M  END
>  <minimizedAffinity>  (1) 
-4.98564482

>  <minimizedRMSD>  (1) 
0.401440501

$$$$
