
     RDKit          3D

 34 35  0  0  0  0  0  0  0  0999 V2000
   47.1500   34.4350   42.0280 C   0  0  0  0  0  0  0  0  0  0  0  0
   44.6120   36.0070   44.3880 C   0  0  0  0  0  0  0  0  0  0  0  0
   45.3950   35.8360   43.2220 C   0  0  0  0  0  0  0  0  0  0  0  0
   46.2810   34.7300   43.1770 C   0  0  0  0  0  0  0  0  0  0  0  0
   46.3150   33.9140   44.2540 N   0  0  0  0  0  0  0  0  0  0  0  0
   45.5480   34.1090   45.3600 C   0  0  0  0  0  0  0  0  0  0  0  0
   44.7000   35.1550   45.4200 N   0  0  0  0  0  0  0  0  0  0  0  0
   46.2520   34.2340   40.8280 C   0  0  0  0  0  0  0  0  0  0  0  0
   48.1900   35.4560   41.7540 C   0  0  0  0  0  0  0  0  0  0  0  0
   47.8250   33.1080   42.2810 C   0  0  0  0  0  0  0  0  0  0  0  0
   48.1850   32.4700   41.0910 O   0  0  0  0  0  0  0  0  0  0  0  0
   49.5230   32.2080   40.8370 C   0  0  0  0  0  0  0  0  0  0  0  0
   50.4860   32.5670   41.6990 N   0  0  0  0  0  0  0  0  0  0  0  0
   51.6610   32.2230   41.2590 O   0  0  0  0  0  0  0  0  0  0  0  0
   51.5190   31.6270   40.0950 C   0  0  0  0  0  0  0  0  0  0  0  0
   50.2080   31.6200   39.8420 N   0  0  0  0  0  0  0  0  0  0  0  0
   52.5470   31.0500   39.1840 C   0  0  0  0  0  0  0  0  0  0  0  0
   52.4780   31.7170   37.8190 C   0  0  0  0  0  0  0  0  0  0  0  0
   43.9163   36.8568   44.4494 H   0  0  0  0  0  0  0  0  0  0  0  0
   45.3189   36.5378   42.3784 H   0  0  0  0  0  0  0  0  0  0  0  0
   45.6198   33.4115   46.2075 H   0  0  0  0  0  0  0  0  0  0  0  0
   45.2312   34.0055   41.1681 H   0  0  0  0  0  0  0  0  0  0  0  0
   46.2396   35.1516   40.2215 H   0  0  0  0  0  0  0  0  0  0  0  0
   46.6320   33.3987   40.2215 H   0  0  0  0  0  0  0  0  0  0  0  0
   48.5839   35.8427   42.7055 H   0  0  0  0  0  0  0  0  0  0  0  0
   49.0080   35.0004   41.1766 H   0  0  0  0  0  0  0  0  0  0  0  0
   47.7496   36.2822   41.1766 H   0  0  0  0  0  0  0  0  0  0  0  0
   48.7311   33.2788   42.8809 H   0  0  0  0  0  0  0  0  0  0  0  0
   47.1129   32.4598   42.8128 H   0  0  0  0  0  0  0  0  0  0  0  0
   53.5457   31.2106   39.6161 H   0  0  0  0  0  0  0  0  0  0  0  0
   52.3558   29.9732   39.0657 H   0  0  0  0  0  0  0  0  0  0  0  0
   52.3656   32.8037   37.9472 H   0  0  0  0  0  0  0  0  0  0  0  0
   53.4026   31.5073   37.2613 H   0  0  0  0  0  0  0  0  0  0  0  0
   51.6159   31.3224   37.2613 H   0  0  0  0  0  0  0  0  0  0  0  0
  1 10  1  0
  1  4  1  0
  2  7  2  0
  3  2  1  0
  4  3  2  0
  4  5  1  0
  5  6  2  0
  6  7  1  0
  8  1  1  0
  9  1  1  0
 11 10  1  0
 12 11  1  0
 12 13  2  0
 14 13  1  0
 15 14  1  0
 16 15  2  0
 16 12  1  0
 17 15  1  0
 18 17  1  0
  2 19  1  0
  3 20  1  0
  6 21  1  0
  8 22  1  0
  8 23  1  0
  8 24  1  0
  9 25  1  0
  9 26  1  0
  9 27  1  0
 10 28  1  0
 10 29  1  0
 17 30  1  0
 17 31  1  0
 18 32  1  0
 18 33  1  0
 18 34  1  0
M  ISO  8  19  14  20  14  21  14  22   8  23   8  24   8  25   8  26   8
M  ISO  8  27   8  28   8  29   8  30   8  31   8  32   8  33   8  34   8
M  END
>  <minimizedAffinity>  (1) 
-4.58739996

>  <minimizedRMSD>  (1) 
0.363252699

$$$$
