
     RDKit          3D

 40 41  0  0  0  0  0  0  0  0999 V2000
   47.1810   34.4570   42.0400 C   0  0  0  0  0  0  0  0  0  0  0  0
   44.6170   36.0310   44.3690 C   0  0  0  0  0  0  0  0  0  0  0  0
   45.4130   35.8530   43.2230 C   0  0  0  0  0  0  0  0  0  0  0  0
   46.2980   34.7500   43.1840 C   0  0  0  0  0  0  0  0  0  0  0  0
   46.3190   33.9290   44.2670 N   0  0  0  0  0  0  0  0  0  0  0  0
   45.5350   34.1340   45.3570 C   0  0  0  0  0  0  0  0  0  0  0  0
   44.6870   35.1850   45.4030 N   0  0  0  0  0  0  0  0  0  0  0  0
   46.2960   34.2320   40.8330 C   0  0  0  0  0  0  0  0  0  0  0  0
   48.2150   35.4650   41.7660 C   0  0  0  0  0  0  0  0  0  0  0  0
   47.8720   33.1300   42.3270 C   0  0  0  0  0  0  0  0  0  0  0  0
   48.1350   32.4210   41.1580 O   0  0  0  0  0  0  0  0  0  0  0  0
   49.4490   32.1270   40.8130 C   0  0  0  0  0  0  0  0  0  0  0  0
   50.4750   32.5000   41.6010 N   0  0  0  0  0  0  0  0  0  0  0  0
   51.5980   32.1210   41.0830 O   0  0  0  0  0  0  0  0  0  0  0  0
   51.3760   31.4910   39.9510 C   0  0  0  0  0  0  0  0  0  0  0  0
   50.0400   31.4960   39.7850 N   0  0  0  0  0  0  0  0  0  0  0  0
   52.3800   30.8960   39.0400 C   0  0  0  0  0  0  0  0  0  0  0  0
   53.7100   30.6310   39.7180 C   0  0  0  0  0  0  0  0  0  0  0  0
   52.6610   31.7470   37.8190 C   0  0  0  0  0  0  0  0  0  0  0  0
   51.9030   29.5350   38.5180 C   0  0  0  0  0  0  0  0  0  0  0  0
   43.9229   36.8831   44.4159 H   0  0  0  0  0  0  0  0  0  0  0  0
   45.3489   36.5542   42.3779 H   0  0  0  0  0  0  0  0  0  0  0  0
   45.5908   33.4396   46.2083 H   0  0  0  0  0  0  0  0  0  0  0  0
   45.2800   33.9737   41.1663 H   0  0  0  0  0  0  0  0  0  0  0  0
   46.2611   35.1498   40.2277 H   0  0  0  0  0  0  0  0  0  0  0  0
   46.7037   33.4089   40.2277 H   0  0  0  0  0  0  0  0  0  0  0  0
   48.6114   35.8514   42.7166 H   0  0  0  0  0  0  0  0  0  0  0  0
   49.0307   35.0059   41.1882 H   0  0  0  0  0  0  0  0  0  0  0  0
   47.7768   36.2921   41.1882 H   0  0  0  0  0  0  0  0  0  0  0  0
   48.8221   33.3279   42.8449 H   0  0  0  0  0  0  0  0  0  0  0  0
   47.2005   32.5227   42.9517 H   0  0  0  0  0  0  0  0  0  0  0  0
   53.5768   30.6575   40.8096 H   0  0  0  0  0  0  0  0  0  0  0  0
   54.0835   29.6408   39.4182 H   0  0  0  0  0  0  0  0  0  0  0  0
   54.4346   31.4024   39.4182 H   0  0  0  0  0  0  0  0  0  0  0  0
   52.9912   32.7469   38.1371 H   0  0  0  0  0  0  0  0  0  0  0  0
   53.4508   31.2745   37.2166 H   0  0  0  0  0  0  0  0  0  0  0  0
   51.7451   31.8377   37.2166 H   0  0  0  0  0  0  0  0  0  0  0  0
   51.6722   28.8765   39.3684 H   0  0  0  0  0  0  0  0  0  0  0  0
   50.9997   29.6732   37.9056 H   0  0  0  0  0  0  0  0  0  0  0  0
   52.6949   29.0791   37.9056 H   0  0  0  0  0  0  0  0  0  0  0  0
  1 10  1  0
  1  4  1  0
  2  7  2  0
  3  2  1  0
  4  3  2  0
  4  5  1  0
  5  6  2  0
  6  7  1  0
  8  1  1  0
  9  1  1  0
 11 10  1  0
 12 11  1  0
 12 13  2  0
 14 13  1  0
 15 14  1  0
 16 15  2  0
 16 12  1  0
 17 18  1  0
 17 15  1  0
 19 17  1  0
 20 17  1  0
  2 21  1  0
  3 22  1  0
  6 23  1  0
  8 24  1  0
  8 25  1  0
  8 26  1  0
  9 27  1  0
  9 28  1  0
  9 29  1  0
 10 30  1  0
 10 31  1  0
 18 32  1  0
 18 33  1  0
 18 34  1  0
 19 35  1  0
 19 36  1  0
 19 37  1  0
 20 38  1  0
 20 39  1  0
 20 40  1  0
M  ISO  8  21  14  22  14  23  14  24   8  25   8  26   8  27   8  28   8
M  ISO  8  29   8  30   8  31   8  32   8  33   8  34   8  35   8  36   8
M  ISO  4  37   8  38   8  39   8  40   8
M  END
>  <minimizedAffinity>  (1) 
-4.80039454

>  <minimizedRMSD>  (1) 
0.326404452

$$$$
