
     RDKit          3D

 34 36  0  0  0  0  0  0  0  0999 V2000
   47.1220   34.4240   42.0220 C   0  0  0  0  0  0  0  0  0  0  0  0
   44.6130   36.0350   44.3650 C   0  0  0  0  0  0  0  0  0  0  0  0
   45.3890   35.8430   43.2110 C   0  0  0  0  0  0  0  0  0  0  0  0
   46.2640   34.7350   43.1610 C   0  0  0  0  0  0  0  0  0  0  0  0
   46.2940   33.9110   44.2570 N   0  0  0  0  0  0  0  0  0  0  0  0
   45.5230   34.1440   45.3460 C   0  0  0  0  0  0  0  0  0  0  0  0
   44.6910   35.1820   45.4160 N   0  0  0  0  0  0  0  0  0  0  0  0
   46.2120   34.2230   40.8090 C   0  0  0  0  0  0  0  0  0  0  0  0
   48.1740   35.4290   41.7350 C   0  0  0  0  0  0  0  0  0  0  0  0
   47.7980   33.1010   42.2770 C   0  0  0  0  0  0  0  0  0  0  0  0
   48.2070   32.4930   41.0830 O   0  0  0  0  0  0  0  0  0  0  0  0
   49.5550   32.2480   40.8840 C   0  0  0  0  0  0  0  0  0  0  0  0
   50.4790   32.5750   41.8190 N   0  0  0  0  0  0  0  0  0  0  0  0
   51.6560   32.2480   41.4020 O   0  0  0  0  0  0  0  0  0  0  0  0
   51.5880   31.7040   40.2130 C   0  0  0  0  0  0  0  0  0  0  0  0
   50.2900   31.7080   39.8980 N   0  0  0  0  0  0  0  0  0  0  0  0
   52.7030   31.1900   39.3770 C   0  0  0  0  0  0  0  0  0  0  0  0
   52.8770   31.6220   38.0500 C   0  0  0  0  0  0  0  0  0  0  0  0
   54.3600   30.6910   37.5140 S   0  0  0  0  0  0  0  0  0  0  0  0
   54.4920   29.8570   39.2180 C   0  0  0  0  0  0  0  0  0  0  0  0
   53.6110   30.3010   39.7900 N   0  0  0  0  0  0  0  0  0  0  0  0
   43.9283   36.8943   44.4176 H   0  0  0  0  0  0  0  0  0  0  0  0
   45.3173   36.5406   42.3635 H   0  0  0  0  0  0  0  0  0  0  0  0
   45.5859   33.4538   46.2002 H   0  0  0  0  0  0  0  0  0  0  0  0
   45.1908   33.9974   41.1501 H   0  0  0  0  0  0  0  0  0  0  0  0
   46.2017   35.1405   40.2023 H   0  0  0  0  0  0  0  0  0  0  0  0
   46.5891   33.3865   40.2023 H   0  0  0  0  0  0  0  0  0  0  0  0
   48.5792   35.8161   42.6815 H   0  0  0  0  0  0  0  0  0  0  0  0
   48.9820   34.9587   41.1553 H   0  0  0  0  0  0  0  0  0  0  0  0
   47.7411   36.2576   41.1553 H   0  0  0  0  0  0  0  0  0  0  0  0
   48.6797   33.2673   42.9133 H   0  0  0  0  0  0  0  0  0  0  0  0
   47.0761   32.4353   42.7727 H   0  0  0  0  0  0  0  0  0  0  0  0
   52.2726   32.3404   37.4767 H   0  0  0  0  0  0  0  0  0  0  0  0
   55.2359   29.1255   39.5665 H   0  0  0  0  0  0  0  0  0  0  0  0
  1 10  1  0
  1  4  1  0
  2  7  2  0
  3  2  1  0
  4  3  2  0
  4  5  1  0
  5  6  2  0
  6  7  1  0
  8  1  1  0
  9  1  1  0
 11 10  1  0
 12 11  1  0
 12 13  2  0
 14 13  1  0
 15 14  1  0
 16 15  2  0
 16 12  1  0
 17 21  1  0
 17 15  1  0
 18 17  2  0
 19 18  1  0
 19 20  1  0
 20 21  2  0
  2 22  1  0
  3 23  1  0
  6 24  1  0
  8 25  1  0
  8 26  1  0
  8 27  1  0
  9 28  1  0
  9 29  1  0
  9 30  1  0
 10 31  1  0
 10 32  1  0
 18 33  1  0
 20 34  1  0
M  ISO  8  22  14  23  14  24  14  25   8  26   8  27   8  28   8  29   8
M  ISO  5  30   8  31   8  32   8  33  14  34  14
M  END
>  <minimizedAffinity>  (1) 
-4.95350552

>  <minimizedRMSD>  (1) 
0.429189235

$$$$
