
     RDKit          3D

 45 47  0  0  0  0  0  0  0  0999 V2000
   48.3640   34.6880   41.6430 C   0  0  0  0  0  0  0  0  0  0  0  0
   45.2060   35.1190   43.6980 C   0  0  0  0  0  0  0  0  0  0  0  0
   46.1340   35.3290   42.6510 C   0  0  0  0  0  0  0  0  0  0  0  0
   47.3280   34.5660   42.6620 C   0  0  0  0  0  0  0  0  0  0  0  0
   47.5100   33.6780   43.6770 N   0  0  0  0  0  0  0  0  0  0  0  0
   46.5830   33.5210   44.6530 C   0  0  0  0  0  0  0  0  0  0  0  0
   45.4500   34.2290   44.6630 N   0  0  0  0  0  0  0  0  0  0  0  0
   47.7050   34.3950   40.2860 C   0  0  0  0  0  0  0  0  0  0  0  0
   49.0660   35.9820   41.5900 C   0  0  0  0  0  0  0  0  0  0  0  0
   49.3860   33.5870   41.8520 C   0  0  0  0  0  0  0  0  0  0  0  0
   49.2450   32.5680   40.9110 O   0  0  0  0  0  0  0  0  0  0  0  0
   50.3920   31.9620   40.4110 C   0  0  0  0  0  0  0  0  0  0  0  0
   51.5790   32.0520   41.0500 N   0  0  0  0  0  0  0  0  0  0  0  0
   52.4780   31.4050   40.3820 O   0  0  0  0  0  0  0  0  0  0  0  0
   51.9710   30.8740   39.3130 C   0  0  0  0  0  0  0  0  0  0  0  0
   50.6870   31.2190   39.3330 N   0  0  0  0  0  0  0  0  0  0  0  0
   52.6140   30.1050   38.3420 O   0  0  0  0  0  0  0  0  0  0  0  0
   53.9860   30.2580   38.1710 C   0  0  0  0  0  0  0  0  0  0  0  0
   54.4040   30.1460   36.7070 C   0  0  0  0  0  0  0  0  0  0  0  0
   55.8110   30.7440   36.6750 C   0  0  0  0  0  0  0  0  0  0  0  0
   56.7300   29.8640   37.4520 C   0  0  0  0  0  0  0  0  0  0  0  0
   56.2350   29.3570   38.7480 C   0  0  0  0  0  0  0  0  0  0  0  0
   54.7710   29.2030   38.9150 C   0  0  0  0  0  0  0  0  0  0  0  0
   44.2703   35.6970   43.7174 H   0  0  0  0  0  0  0  0  0  0  0  0
   45.9351   36.0608   41.8542 H   0  0  0  0  0  0  0  0  0  0  0  0
   46.7679   32.7929   45.4566 H   0  0  0  0  0  0  0  0  0  0  0  0
   46.7110   33.9530   40.4489 H   0  0  0  0  0  0  0  0  0  0  0  0
   47.6013   35.3318   39.7189 H   0  0  0  0  0  0  0  0  0  0  0  0
   48.3311   33.6904   39.7189 H   0  0  0  0  0  0  0  0  0  0  0  0
   49.2585   36.3369   42.6132 H   0  0  0  0  0  0  0  0  0  0  0  0
   50.0213   35.8594   41.0586 H   0  0  0  0  0  0  0  0  0  0  0  0
   48.4424   36.7160   41.0586 H   0  0  0  0  0  0  0  0  0  0  0  0
   50.3952   34.0159   41.7647 H   0  0  0  0  0  0  0  0  0  0  0  0
   49.2264   33.1558   42.8513 H   0  0  0  0  0  0  0  0  0  0  0  0
   54.2058   31.2622   38.5624 H   0  0  0  0  0  0  0  0  0  0  0  0
   54.4190   29.0945   36.3844 H   0  0  0  0  0  0  0  0  0  0  0  0
   53.7096   30.6632   36.0286 H   0  0  0  0  0  0  0  0  0  0  0  0
   56.1589   30.8128   35.6337 H   0  0  0  0  0  0  0  0  0  0  0  0
   55.7972   31.7507   37.1182 H   0  0  0  0  0  0  0  0  0  0  0  0
   56.9663   28.9930   36.8231 H   0  0  0  0  0  0  0  0  0  0  0  0
   57.5909   30.5007   37.7038 H   0  0  0  0  0  0  0  0  0  0  0  0
   56.6895   28.3683   38.9089 H   0  0  0  0  0  0  0  0  0  0  0  0
   56.5171   30.1326   39.4753 H   0  0  0  0  0  0  0  0  0  0  0  0
   54.5294   29.2741   39.9858 H   0  0  0  0  0  0  0  0  0  0  0  0
   54.4899   28.2242   38.4992 H   0  0  0  0  0  0  0  0  0  0  0  0
  1 10  1  0
  1  4  1  0
  2  7  2  0
  3  4  2  0
  3  2  1  0
  4  5  1  0
  5  6  2  0
  6  7  1  0
  8  1  1  0
  9  1  1  0
 11 10  1  0
 12 11  1  0
 12 13  2  0
 14 13  1  0
 15 16  2  0
 15 14  1  0
 16 12  1  0
 17 15  1  0
 18 17  1  0
 18 23  1  0
 19 18  1  0
 20 19  1  0
 20 21  1  0
 21 22  1  0
 22 23  1  0
  2 24  1  0
  3 25  1  0
  6 26  1  0
  8 27  1  0
  8 28  1  0
  8 29  1  0
  9 30  1  0
  9 31  1  0
  9 32  1  0
 10 33  1  0
 10 34  1  0
 18 35  1  0
 19 36  1  0
 19 37  1  0
 20 38  1  0
 20 39  1  0
 21 40  1  0
 21 41  1  0
 22 42  1  0
 22 43  1  0
 23 44  1  0
 23 45  1  0
M  ISO  8  24  14  25  14  26  14  27   8  28   8  29   8  30   8  31   8
M  ISO  8  32   8  33   8  34   8  35  13  36  13  37  13  38  13  39  13
M  ISO  6  40  13  41  13  42  13  43  13  44  13  45  13
M  END
>  <minimizedAffinity>  (1) 
-4.94578314

>  <minimizedRMSD>  (1) 
2.0191977

$$$$
