
     RDKit          3D

 42 44  0  0  0  0  0  0  0  0999 V2000
   47.1640   34.4460   42.0480 C   0  0  0  0  0  0  0  0  0  0  0  0
   44.6070   36.0110   44.3900 C   0  0  0  0  0  0  0  0  0  0  0  0
   45.4010   35.8420   43.2210 C   0  0  0  0  0  0  0  0  0  0  0  0
   46.2870   34.7360   43.1930 C   0  0  0  0  0  0  0  0  0  0  0  0
   46.3300   33.9070   44.2700 N   0  0  0  0  0  0  0  0  0  0  0  0
   45.5510   34.1170   45.3540 C   0  0  0  0  0  0  0  0  0  0  0  0
   44.7010   35.1490   45.4210 N   0  0  0  0  0  0  0  0  0  0  0  0
   46.2530   34.2380   40.8290 C   0  0  0  0  0  0  0  0  0  0  0  0
   48.1950   35.4580   41.7540 C   0  0  0  0  0  0  0  0  0  0  0  0
   47.8540   33.1320   42.2950 C   0  0  0  0  0  0  0  0  0  0  0  0
   48.1460   32.4510   41.1090 O   0  0  0  0  0  0  0  0  0  0  0  0
   49.4520   32.1070   40.8360 C   0  0  0  0  0  0  0  0  0  0  0  0
   50.4870   32.5900   41.5800 N   0  0  0  0  0  0  0  0  0  0  0  0
   51.5940   32.1240   41.1260 O   0  0  0  0  0  0  0  0  0  0  0  0
   51.4060   31.3450   40.1100 C   0  0  0  0  0  0  0  0  0  0  0  0
   50.0730   31.3330   39.9260 N   0  0  0  0  0  0  0  0  0  0  0  0
   52.3180   30.6400   39.3280 O   0  0  0  0  0  0  0  0  0  0  0  0
   53.6620   31.0040   39.2230 C   0  0  0  0  0  0  0  0  0  0  0  0
   54.0350   31.6100   37.9010 C   0  0  0  0  0  0  0  0  0  0  0  0
   54.6390   30.4770   37.0890 C   0  0  0  0  0  0  0  0  0  0  0  0
   55.4520   29.7620   38.1500 C   0  0  0  0  0  0  0  0  0  0  0  0
   54.5310   29.7580   39.3380 C   0  0  0  0  0  0  0  0  0  0  0  0
   43.9069   36.8571   44.4525 H   0  0  0  0  0  0  0  0  0  0  0  0
   45.3300   36.5407   42.3744 H   0  0  0  0  0  0  0  0  0  0  0  0
   45.6171   33.4216   46.2037 H   0  0  0  0  0  0  0  0  0  0  0  0
   45.2331   34.0051   41.1689 H   0  0  0  0  0  0  0  0  0  0  0  0
   46.2368   35.1556   40.2225 H   0  0  0  0  0  0  0  0  0  0  0  0
   46.6367   33.4043   40.2225 H   0  0  0  0  0  0  0  0  0  0  0  0
   48.5990   35.8546   42.6971 H   0  0  0  0  0  0  0  0  0  0  0  0
   49.0068   34.9963   41.1727 H   0  0  0  0  0  0  0  0  0  0  0  0
   47.7485   36.2782   41.1727 H   0  0  0  0  0  0  0  0  0  0  0  0
   48.7941   33.3226   42.8334 H   0  0  0  0  0  0  0  0  0  0  0  0
   47.1722   32.5012   42.8843 H   0  0  0  0  0  0  0  0  0  0  0  0
   53.8193   31.7431   40.0223 H   0  0  0  0  0  0  0  0  0  0  0  0
   53.1433   32.0109   37.3969 H   0  0  0  0  0  0  0  0  0  0  0  0
   54.7397   32.4462   38.0205 H   0  0  0  0  0  0  0  0  0  0  0  0
   53.8614   29.8232   36.6671 H   0  0  0  0  0  0  0  0  0  0  0  0
   55.2219   30.8055   36.2159 H   0  0  0  0  0  0  0  0  0  0  0  0
   55.6965   28.7365   37.8361 H   0  0  0  0  0  0  0  0  0  0  0  0
   56.4189   30.2454   38.3534 H   0  0  0  0  0  0  0  0  0  0  0  0
   55.1145   29.7875   40.2700 H   0  0  0  0  0  0  0  0  0  0  0  0
   53.9151   28.8468   39.3579 H   0  0  0  0  0  0  0  0  0  0  0  0
  1 10  1  0
  1  4  1  0
  2  7  2  0
  3  2  1  0
  4  3  2  0
  4  5  1  0
  5  6  2  0
  6  7  1  0
  8  1  1  0
  9  1  1  0
 11 10  1  0
 12 11  1  0
 12 13  2  0
 14 13  1  0
 15 14  1  0
 16 15  2  0
 16 12  1  0
 17 15  1  0
 18 17  1  0
 18 22  1  0
 19 18  1  0
 20 19  1  0
 20 21  1  0
 21 22  1  0
  2 23  1  0
  3 24  1  0
  6 25  1  0
  8 26  1  0
  8 27  1  0
  8 28  1  0
  9 29  1  0
  9 30  1  0
  9 31  1  0
 10 32  1  0
 10 33  1  0
 18 34  1  0
 19 35  1  0
 19 36  1  0
 20 37  1  0
 20 38  1  0
 21 39  1  0
 21 40  1  0
 22 41  1  0
 22 42  1  0
M  ISO  8  23  14  24  14  25  14  26   8  27   8  28   8  29   8  30   8
M  ISO  8  31   8  32   8  33   8  34  13  35  13  36  13  37  13  38  13
M  ISO  4  39  13  40  13  41  13  42  13
M  END
>  <minimizedAffinity>  (1) 
-5.01180887

>  <minimizedRMSD>  (1) 
0.686671555

$$$$
