
     RDKit          3D

 39 41  0  0  0  0  0  0  0  0999 V2000
   47.8470   33.1260   42.3390 C   0  0  0  0  0  0  0  0  0  0  0  0
   47.1550   34.4520   42.0500 C   0  0  0  0  0  0  0  0  0  0  0  0
   44.6050   36.0790   44.3330 C   0  0  0  0  0  0  0  0  0  0  0  0
   45.4130   35.8710   43.1970 C   0  0  0  0  0  0  0  0  0  0  0  0
   46.2740   34.7640   43.1740 C   0  0  0  0  0  0  0  0  0  0  0  0
   46.2740   33.9470   44.2690 N   0  0  0  0  0  0  0  0  0  0  0  0
   45.4780   34.1910   45.3380 C   0  0  0  0  0  0  0  0  0  0  0  0
   44.6540   35.2370   45.3770 N   0  0  0  0  0  0  0  0  0  0  0  0
   46.2740   34.1990   40.8300 C   0  0  0  0  0  0  0  0  0  0  0  0
   48.2030   35.4550   41.7520 C   0  0  0  0  0  0  0  0  0  0  0  0
   48.2120   32.4500   41.1800 O   0  0  0  0  0  0  0  0  0  0  0  0
   49.5480   32.2320   40.9200 C   0  0  0  0  0  0  0  0  0  0  0  0
   50.5220   32.6340   41.7870 N   0  0  0  0  0  0  0  0  0  0  0  0
   51.6760   32.3050   41.2970 O   0  0  0  0  0  0  0  0  0  0  0  0
   51.5530   31.7070   40.1550 C   0  0  0  0  0  0  0  0  0  0  0  0
   50.2420   31.6560   39.9110 N   0  0  0  0  0  0  0  0  0  0  0  0
   52.5910   31.2280   39.3670 O   0  0  0  0  0  0  0  0  0  0  0  0
   52.3160   30.9160   38.0360 C   0  0  0  0  0  0  0  0  0  0  0  0
   53.3680   30.1920   37.4890 C   0  0  0  0  0  0  0  0  0  0  0  0
   53.3220   29.7650   36.1630 C   0  0  0  0  0  0  0  0  0  0  0  0
   52.2040   30.0840   35.4150 C   0  0  0  0  0  0  0  0  0  0  0  0
   51.1680   30.8000   35.9590 C   0  0  0  0  0  0  0  0  0  0  0  0
   51.2110   31.2240   37.2720 C   0  0  0  0  0  0  0  0  0  0  0  0
   48.7523   33.3229   42.9320 H   0  0  0  0  0  0  0  0  0  0  0  0
   47.1346   32.4903   42.8853 H   0  0  0  0  0  0  0  0  0  0  0  0
   43.9251   36.9431   44.3643 H   0  0  0  0  0  0  0  0  0  0  0  0
   45.3691   36.5642   42.3440 H   0  0  0  0  0  0  0  0  0  0  0  0
   45.5132   33.5060   46.1980 H   0  0  0  0  0  0  0  0  0  0  0  0
   45.2654   33.9093   41.1598 H   0  0  0  0  0  0  0  0  0  0  0  0
   46.2129   35.1159   40.2254 H   0  0  0  0  0  0  0  0  0  0  0  0
   46.7087   33.3894   40.2254 H   0  0  0  0  0  0  0  0  0  0  0  0
   48.6132   35.8476   42.6941 H   0  0  0  0  0  0  0  0  0  0  0  0
   49.0081   34.9823   41.1703 H   0  0  0  0  0  0  0  0  0  0  0  0
   47.7661   36.2801   41.1703 H   0  0  0  0  0  0  0  0  0  0  0  0
   54.2454   29.9535   38.1081 H   0  0  0  0  0  0  0  0  0  0  0  0
   54.1513   29.1908   35.7243 H   0  0  0  0  0  0  0  0  0  0  0  0
   52.1441   29.7582   34.3660 H   0  0  0  0  0  0  0  0  0  0  0  0
   50.2907   31.0396   35.3402 H   0  0  0  0  0  0  0  0  0  0  0  0
   50.3769   31.7983   37.7015 H   0  0  0  0  0  0  0  0  0  0  0  0
  2  1  1  0
  2  5  1  0
  3  8  2  0
  4  3  1  0
  5  4  2  0
  5  6  1  0
  6  7  2  0
  7  8  1  0
  9  2  1  0
 10  2  1  0
 11  1  1  0
 12 11  1  0
 12 13  2  0
 14 13  1  0
 15 14  1  0
 16 15  2  0
 16 12  1  0
 17 15  1  0
 18 17  1  0
 19 18  2  0
 20 19  1  0
 21 22  1  0
 21 20  2  0
 22 23  2  0
 23 18  1  0
  1 24  1  0
  1 25  1  0
  3 26  1  0
  4 27  1  0
  7 28  1  0
  9 29  1  0
  9 30  1  0
  9 31  1  0
 10 32  1  0
 10 33  1  0
 10 34  1  0
 19 35  1  0
 20 36  1  0
 21 37  1  0
 22 38  1  0
 23 39  1  0
M  ISO  8  24   8  25   8  26  14  27  14  28  14  29   8  30   8  31   8
M  ISO  8  32   8  33   8  34   8  35  14  36  14  37  14  38  14  39  14
M  END
>  <minimizedAffinity>  (1) 
-4.86139774

>  <minimizedRMSD>  (1) 
0.484307081

$$$$
