
     RDKit          3D

 37 39  0  0  0  0  0  0  0  0999 V2000
   47.1540   34.4380   42.0500 C   0  0  0  0  0  0  0  0  0  0  0  0
   44.6130   36.0280   44.3690 C   0  0  0  0  0  0  0  0  0  0  0  0
   45.4070   35.8360   43.2250 C   0  0  0  0  0  0  0  0  0  0  0  0
   46.2840   34.7360   43.1830 C   0  0  0  0  0  0  0  0  0  0  0  0
   46.3070   33.9220   44.2610 N   0  0  0  0  0  0  0  0  0  0  0  0
   45.5270   34.1320   45.3550 C   0  0  0  0  0  0  0  0  0  0  0  0
   44.6880   35.1810   45.4010 N   0  0  0  0  0  0  0  0  0  0  0  0
   46.2470   34.2130   40.8310 C   0  0  0  0  0  0  0  0  0  0  0  0
   48.1810   35.4420   41.7420 C   0  0  0  0  0  0  0  0  0  0  0  0
   47.8470   33.1220   42.3080 C   0  0  0  0  0  0  0  0  0  0  0  0
   48.2210   32.4770   41.1260 O   0  0  0  0  0  0  0  0  0  0  0  0
   49.5670   32.2470   40.8900 C   0  0  0  0  0  0  0  0  0  0  0  0
   50.5220   32.6510   41.7590 N   0  0  0  0  0  0  0  0  0  0  0  0
   51.6880   32.3150   41.3020 O   0  0  0  0  0  0  0  0  0  0  0  0
   51.5720   31.6970   40.1590 C   0  0  0  0  0  0  0  0  0  0  0  0
   50.2700   31.6570   39.9080 N   0  0  0  0  0  0  0  0  0  0  0  0
   52.6140   31.1910   39.3750 O   0  0  0  0  0  0  0  0  0  0  0  0
   52.3830   30.8790   38.0410 C   0  0  0  0  0  0  0  0  0  0  0  0
   53.3610   30.1860   37.3530 C   0  0  0  0  0  0  0  0  0  0  0  0
   53.1950   29.8410   36.0170 C   0  0  0  0  0  0  0  0  0  0  0  0
   52.0570   30.1940   35.3920 N   0  0  0  0  0  0  0  0  0  0  0  0
   51.1000   30.8710   36.0590 C   0  0  0  0  0  0  0  0  0  0  0  0
   51.2690   31.1990   37.3530 N   0  0  0  0  0  0  0  0  0  0  0  0
   43.9231   36.8835   44.4157 H   0  0  0  0  0  0  0  0  0  0  0  0
   45.3440   36.5337   42.3769 H   0  0  0  0  0  0  0  0  0  0  0  0
   45.5831   33.4391   46.2075 H   0  0  0  0  0  0  0  0  0  0  0  0
   45.2316   33.9611   41.1710 H   0  0  0  0  0  0  0  0  0  0  0  0
   46.2137   35.1301   40.2245 H   0  0  0  0  0  0  0  0  0  0  0  0
   46.6462   33.3867   40.2245 H   0  0  0  0  0  0  0  0  0  0  0  0
   48.5929   35.8446   42.6792 H   0  0  0  0  0  0  0  0  0  0  0  0
   48.9875   34.9744   41.1581 H   0  0  0  0  0  0  0  0  0  0  0  0
   47.7318   36.2588   41.1581 H   0  0  0  0  0  0  0  0  0  0  0  0
   48.7490   33.3095   42.9090 H   0  0  0  0  0  0  0  0  0  0  0  0
   47.1389   32.4679   42.8379 H   0  0  0  0  0  0  0  0  0  0  0  0
   54.2881   29.9022   37.8725 H   0  0  0  0  0  0  0  0  0  0  0  0
   53.9803   29.2889   35.4799 H   0  0  0  0  0  0  0  0  0  0  0  0
   50.1731   31.1576   35.5406 H   0  0  0  0  0  0  0  0  0  0  0  0
  1 10  1  0
  1  4  1  0
  2  7  2  0
  3  2  1  0
  4  3  2  0
  4  5  1  0
  5  6  2  0
  6  7  1  0
  8  1  1  0
  9  1  1  0
 11 10  1  0
 12 11  1  0
 12 13  2  0
 14 13  1  0
 15 14  1  0
 16 15  2  0
 16 12  1  0
 17 15  1  0
 18 17  1  0
 19 18  2  0
 20 19  1  0
 21 20  2  0
 21 22  1  0
 22 23  2  0
 23 18  1  0
  2 24  1  0
  3 25  1  0
  6 26  1  0
  8 27  1  0
  8 28  1  0
  8 29  1  0
  9 30  1  0
  9 31  1  0
  9 32  1  0
 10 33  1  0
 10 34  1  0
 19 35  1  0
 20 36  1  0
 22 37  1  0
M  ISO  8  24  14  25  14  26  14  27   8  28   8  29   8  30   8  31   8
M  ISO  6  32   8  33   8  34   8  35  14  36  14  37  14
M  END
>  <minimizedAffinity>  (1) 
-4.83836746

>  <minimizedRMSD>  (1) 
0.509466529

$$$$
