
     RDKit          3D

 36 38  0  0  0  0  0  0  0  0999 V2000
   46.9070   34.3980   42.1350 C   0  0  0  0  0  0  0  0  0  0  0  0
   44.5280   35.8910   44.6880 C   0  0  0  0  0  0  0  0  0  0  0  0
   45.2380   35.7210   43.4880 C   0  0  0  0  0  0  0  0  0  0  0  0
   46.1310   34.6490   43.3460 C   0  0  0  0  0  0  0  0  0  0  0  0
   46.2650   33.8100   44.4060 N   0  0  0  0  0  0  0  0  0  0  0  0
   45.5660   33.9950   45.5590 C   0  0  0  0  0  0  0  0  0  0  0  0
   44.7110   35.0250   45.6890 N   0  0  0  0  0  0  0  0  0  0  0  0
   45.9090   34.3250   40.9730 C   0  0  0  0  0  0  0  0  0  0  0  0
   47.9870   35.3440   41.8480 C   0  0  0  0  0  0  0  0  0  0  0  0
   47.5050   32.9990   42.2430 C   0  0  0  0  0  0  0  0  0  0  0  0
   47.4700   32.3080   41.0440 O   0  0  0  0  0  0  0  0  0  0  0  0
   48.6470   32.1060   40.3330 C   0  0  0  0  0  0  0  0  0  0  0  0
   49.8340   31.9330   40.9680 N   0  0  0  0  0  0  0  0  0  0  0  0
   50.7670   31.7670   40.0950 O   0  0  0  0  0  0  0  0  0  0  0  0
   50.2910   31.8180   38.8780 C   0  0  0  0  0  0  0  0  0  0  0  0
   48.9780   32.0280   39.0340 N   0  0  0  0  0  0  0  0  0  0  0  0
   50.9750   31.6850   37.6820 O   0  0  0  0  0  0  0  0  0  0  0  0
   52.3210   31.4250   37.6350 C   0  0  0  0  0  0  0  0  0  0  0  0
   52.7230   30.3900   36.7850 C   0  0  0  0  0  0  0  0  0  0  0  0
   54.0450   30.2430   36.8350 N   0  0  0  0  0  0  0  0  0  0  0  0
   54.4890   31.1790   37.7140 C   0  0  0  0  0  0  0  0  0  0  0  0
   53.4450   31.8840   38.1900 N   0  0  0  0  0  0  0  0  0  0  0  0
   43.8267   36.7306   44.8028 H   0  0  0  0  0  0  0  0  0  0  0  0
   45.0935   36.4293   42.6589 H   0  0  0  0  0  0  0  0  0  0  0  0
   45.7020   33.2933   46.3951 H   0  0  0  0  0  0  0  0  0  0  0  0
   44.8866   34.2502   41.3719 H   0  0  0  0  0  0  0  0  0  0  0  0
   45.9967   35.2320   40.3568 H   0  0  0  0  0  0  0  0  0  0  0  0
   46.1278   33.4405   40.3568 H   0  0  0  0  0  0  0  0  0  0  0  0
   48.4104   35.7149   42.7931 H   0  0  0  0  0  0  0  0  0  0  0  0
   48.7728   34.8383   41.2676 H   0  0  0  0  0  0  0  0  0  0  0  0
   47.5892   36.1895   41.2676 H   0  0  0  0  0  0  0  0  0  0  0  0
   48.5524   33.0883   42.5671 H   0  0  0  0  0  0  0  0  0  0  0  0
   46.9007   32.4350   42.9688 H   0  0  0  0  0  0  0  0  0  0  0  0
   52.0451   29.7850   36.1650 H   0  0  0  0  0  0  0  0  0  0  0  0
   55.5409   31.3369   37.9942 H   0  0  0  0  0  0  0  0  0  0  0  0
   53.5042   32.6533   38.8723 H   0  0  0  0  0  0  0  0  0  0  0  0
  1 10  1  0
  1  4  1  0
  2  7  2  0
  3  2  1  0
  4  3  2  0
  4  5  1  0
  5  6  2  0
  6  7  1  0
  8  1  1  0
  9  1  1  0
 11 10  1  0
 12 13  2  0
 12 11  1  0
 14 13  1  0
 15 16  2  0
 15 14  1  0
 16 12  1  0
 17 15  1  0
 18 17  1  0
 18 22  1  0
 19 20  1  0
 19 18  2  0
 20 21  2  0
 21 22  1  0
  2 23  1  0
  3 24  1  0
  6 25  1  0
  8 26  1  0
  8 27  1  0
  8 28  1  0
  9 29  1  0
  9 30  1  0
  9 31  1  0
 10 32  1  0
 10 33  1  0
 19 34  1  0
 21 35  1  0
 22 36  1  0
M  ISO  8  23  14  24  14  25  14  26   8  27   8  28   8  29   8  30   8
M  ISO  6  31   8  32   8  33   8  34  14  35  14  36   9
M  END
>  <minimizedAffinity>  (1) 
-4.9333787

>  <minimizedRMSD>  (1) 
1.67762721

$$$$
