
     RDKit          3D

 16 17  0  0  0  0  0  0  0  0999 V2000
   44.4880   36.0480   44.6330 C   0  0  0  0  0  0  0  0  0  0  0  0
   45.1630   36.0060   43.4030 C   0  0  0  0  0  0  0  0  0  0  0  0
   46.0540   34.9530   43.1600 C   0  0  0  0  0  0  0  0  0  0  0  0
   46.2150   34.0160   44.1440 N   0  0  0  0  0  0  0  0  0  0  0  0
   45.5450   34.0870   45.3240 C   0  0  0  0  0  0  0  0  0  0  0  0
   44.6910   35.0990   45.5530 N   0  0  0  0  0  0  0  0  0  0  0  0
   46.7980   34.7970   41.9570 N   0  0  0  0  0  0  0  0  0  0  0  0
   46.5770   34.1870   40.7780 C   0  0  0  0  0  0  0  0  0  0  0  0
   47.6370   34.3510   39.9650 N   0  0  0  0  0  0  0  0  0  0  0  0
   48.5230   35.0770   40.6670 C   0  0  0  0  0  0  0  0  0  0  0  0
   48.0140   35.3610   41.9030 N   0  0  0  0  0  0  0  0  0  0  0  0
   43.7860   36.8687   44.8419 H   0  0  0  0  0  0  0  0  0  0  0  0
   44.9955   36.7850   42.6446 H   0  0  0  0  0  0  0  0  0  0  0  0
   45.7018   33.3156   46.0923 H   0  0  0  0  0  0  0  0  0  0  0  0
   45.6625   33.6344   40.5166 H   0  0  0  0  0  0  0  0  0  0  0  0
   49.5105   35.3952   40.3015 H   0  0  0  0  0  0  0  0  0  0  0  0
  1  6  2  0
  2  1  1  0
  3  2  2  0
  3  4  1  0
  4  5  2  0
  5  6  1  0
  7  3  1  0
  8  7  1  0
  9 10  1  0
  9  8  2  0
 10 11  2  0
 11  7  1  0
  1 12  1  0
  2 13  1  0
  5 14  1  0
  8 15  1  0
 10 16  1  0
M  ISO  5  12  14  13  14  14  14  15  14  16  14
M  END
>  <minimizedAffinity>  (1) 
-4.06784201

>  <minimizedRMSD>  (1) 
0.687927306

$$$$
