
     RDKit          3D

 32 33  0  0  0  0  0  0  0  0999 V2000
   47.3490   34.4690   42.0120 C   0  0  0  0  0  0  0  0  0  0  0  0
   44.6770   36.0040   44.2230 C   0  0  0  0  0  0  0  0  0  0  0  0
   45.5230   35.8320   43.1090 C   0  0  0  0  0  0  0  0  0  0  0  0
   46.4250   34.7480   43.1090 C   0  0  0  0  0  0  0  0  0  0  0  0
   46.4270   33.9170   44.1950 N   0  0  0  0  0  0  0  0  0  0  0  0
   45.5930   34.1230   45.2430 C   0  0  0  0  0  0  0  0  0  0  0  0
   44.7330   35.1480   45.2580 N   0  0  0  0  0  0  0  0  0  0  0  0
   46.5100   34.2110   40.7660 C   0  0  0  0  0  0  0  0  0  0  0  0
   48.3790   35.5020   41.7580 C   0  0  0  0  0  0  0  0  0  0  0  0
   48.0710   33.1700   42.3050 C   0  0  0  0  0  0  0  0  0  0  0  0
   48.2350   32.3830   41.1730 O   0  0  0  0  0  0  0  0  0  0  0  0
   49.5150   32.0860   40.7360 C   0  0  0  0  0  0  0  0  0  0  0  0
   50.6120   32.3710   41.4800 N   0  0  0  0  0  0  0  0  0  0  0  0
   51.6620   31.9950   40.8470 O   0  0  0  0  0  0  0  0  0  0  0  0
   51.3490   31.4560   39.6900 C   0  0  0  0  0  0  0  0  0  0  0  0
   50.0250   31.5120   39.6210 N   0  0  0  0  0  0  0  0  0  0  0  0
   52.2450   30.9420   38.7500 O   0  0  0  0  0  0  0  0  0  0  0  0
   53.6250   31.1940   38.8710 C   0  0  0  0  0  0  0  0  0  0  0  0
   43.9667   36.8436   44.2457 H   0  0  0  0  0  0  0  0  0  0  0  0
   45.4806   36.5280   42.2582 H   0  0  0  0  0  0  0  0  0  0  0  0
   45.6236   33.4332   46.0993 H   0  0  0  0  0  0  0  0  0  0  0  0
   45.4978   33.8997   41.0635 H   0  0  0  0  0  0  0  0  0  0  0  0
   46.4494   35.1320   40.1676 H   0  0  0  0  0  0  0  0  0  0  0  0
   46.9773   33.4151   40.1676 H   0  0  0  0  0  0  0  0  0  0  0  0
   48.7597   35.8838   42.7168 H   0  0  0  0  0  0  0  0  0  0  0  0
   49.2073   35.0607   41.1842 H   0  0  0  0  0  0  0  0  0  0  0  0
   47.9352   36.3290   41.1842 H   0  0  0  0  0  0  0  0  0  0  0  0
   49.0633   33.4039   42.7182 H   0  0  0  0  0  0  0  0  0  0  0  0
   47.4575   32.6018   43.0197 H   0  0  0  0  0  0  0  0  0  0  0  0
   53.8967   31.2436   39.9358 H   0  0  0  0  0  0  0  0  0  0  0  0
   54.1895   30.3841   38.3859 H   0  0  0  0  0  0  0  0  0  0  0  0
   53.8669   32.1512   38.3859 H   0  0  0  0  0  0  0  0  0  0  0  0
  1 10  1  0
  1  4  1  0
  2  7  2  0
  3  2  1  0
  4  3  2  0
  4  5  1  0
  5  6  2  0
  6  7  1  0
  8  1  1  0
  9  1  1  0
 11 10  1  0
 12 11  1  0
 12 13  2  0
 14 13  1  0
 15 14  1  0
 16 15  2  0
 16 12  1  0
 17 18  1  0
 17 15  1  0
  2 19  1  0
  3 20  1  0
  6 21  1  0
  8 22  1  0
  8 23  1  0
  8 24  1  0
  9 25  1  0
  9 26  1  0
  9 27  1  0
 10 28  1  0
 10 29  1  0
 18 30  1  0
 18 31  1  0
 18 32  1  0
M  ISO  8  19  14  20  14  21  14  22   8  23   8  24   8  25   8  26   8
M  ISO  6  27   8  28   8  29   8  30   8  31   8  32   8
M  END
>  <minimizedAffinity>  (1) 
-4.47328711

>  <minimizedRMSD>  (1) 
0.475294381

$$$$
