
     RDKit          3D

 36 38  0  0  0  0  0  0  0  0999 V2000
   47.3180   34.4450   42.0230 C   0  0  0  0  0  0  0  0  0  0  0  0
   44.6650   36.0260   44.2280 C   0  0  0  0  0  0  0  0  0  0  0  0
   45.5090   35.8470   43.1000 C   0  0  0  0  0  0  0  0  0  0  0  0
   46.3980   34.7460   43.1130 C   0  0  0  0  0  0  0  0  0  0  0  0
   46.3860   33.9370   44.1960 N   0  0  0  0  0  0  0  0  0  0  0  0
   45.5570   34.1520   45.2490 C   0  0  0  0  0  0  0  0  0  0  0  0
   44.7090   35.1820   45.2660 N   0  0  0  0  0  0  0  0  0  0  0  0
   46.4750   34.1850   40.7740 C   0  0  0  0  0  0  0  0  0  0  0  0
   48.3380   35.4810   41.7400 C   0  0  0  0  0  0  0  0  0  0  0  0
   48.0370   33.1510   42.3310 C   0  0  0  0  0  0  0  0  0  0  0  0
   48.2520   32.3860   41.1790 O   0  0  0  0  0  0  0  0  0  0  0  0
   49.5580   32.1250   40.7930 C   0  0  0  0  0  0  0  0  0  0  0  0
   50.6290   32.4540   41.5800 N   0  0  0  0  0  0  0  0  0  0  0  0
   51.7080   32.0960   40.9710 O   0  0  0  0  0  0  0  0  0  0  0  0
   51.4510   31.5470   39.8250 C   0  0  0  0  0  0  0  0  0  0  0  0
   50.1250   31.5610   39.7090 N   0  0  0  0  0  0  0  0  0  0  0  0
   52.3790   31.0440   38.9080 O   0  0  0  0  0  0  0  0  0  0  0  0
   52.4910   30.0030   35.6280 N   0  0  0  0  0  0  0  0  0  0  0  0
   52.9120   30.1630   36.8870 N   0  0  0  0  0  0  0  0  0  0  0  0
   51.9730   30.8580   37.5910 C   0  0  0  0  0  0  0  0  0  0  0  0
   50.9450   31.1240   36.7120 C   0  0  0  0  0  0  0  0  0  0  0  0
   51.2830   30.5830   35.4890 C   0  0  0  0  0  0  0  0  0  0  0  0
   43.9631   36.8727   44.2491 H   0  0  0  0  0  0  0  0  0  0  0  0
   45.4730   36.5397   42.2463 H   0  0  0  0  0  0  0  0  0  0  0  0
   45.5848   33.4629   46.1060 H   0  0  0  0  0  0  0  0  0  0  0  0
   45.4634   33.8730   41.0728 H   0  0  0  0  0  0  0  0  0  0  0  0
   46.4129   35.1057   40.1753 H   0  0  0  0  0  0  0  0  0  0  0  0
   46.9423   33.3892   40.1753 H   0  0  0  0  0  0  0  0  0  0  0  0
   48.7295   35.8787   42.6879 H   0  0  0  0  0  0  0  0  0  0  0  0
   49.1610   35.0367   41.1609 H   0  0  0  0  0  0  0  0  0  0  0  0
   47.8810   36.2970   41.1609 H   0  0  0  0  0  0  0  0  0  0  0  0
   49.0093   33.3849   42.7891 H   0  0  0  0  0  0  0  0  0  0  0  0
   47.4062   32.5654   43.0160 H   0  0  0  0  0  0  0  0  0  0  0  0
   53.0079   29.5142   34.8832 H   0  0  0  0  0  0  0  0  0  0  0  0
   50.0193   31.6707   36.9446 H   0  0  0  0  0  0  0  0  0  0  0  0
   50.6785   30.6185   34.5707 H   0  0  0  0  0  0  0  0  0  0  0  0
  1 10  1  0
  1  4  1  0
  2  7  2  0
  3  4  2  0
  3  2  1  0
  4  5  1  0
  5  6  2  0
  6  7  1  0
  8  1  1  0
  9  1  1  0
 11 10  1  0
 12 11  1  0
 12 13  2  0
 14 13  1  0
 15 14  1  0
 16 15  2  0
 16 12  1  0
 17 15  1  0
 18 19  1  0
 19 20  2  0
 20 17  1  0
 21 20  1  0
 22 18  1  0
 22 21  2  0
  2 23  1  0
  3 24  1  0
  6 25  1  0
  8 26  1  0
  8 27  1  0
  8 28  1  0
  9 29  1  0
  9 30  1  0
  9 31  1  0
 10 32  1  0
 10 33  1  0
 18 34  1  0
 21 35  1  0
 22 36  1  0
M  ISO  8  23  14  24  14  25  14  26   8  27   8  28   8  29   8  30   8
M  ISO  6  31   8  32   8  33   8  34   9  35  14  36  14
M  END
>  <minimizedAffinity>  (1) 
-4.74274302

>  <minimizedRMSD>  (1) 
0.635394692

$$$$
