
     RDKit          3D

 43 46  0  0  0  0  0  0  0  0999 V2000
   47.9400   33.1230   42.3500 C   0  0  0  0  0  0  0  0  0  0  0  0
   47.2310   34.4230   42.0770 C   0  0  0  0  0  0  0  0  0  0  0  0
   44.6470   36.0290   44.3340 C   0  0  0  0  0  0  0  0  0  0  0  0
   45.4640   35.8350   43.2020 C   0  0  0  0  0  0  0  0  0  0  0  0
   46.3390   34.7350   43.1790 C   0  0  0  0  0  0  0  0  0  0  0  0
   46.3470   33.9130   44.2630 N   0  0  0  0  0  0  0  0  0  0  0  0
   45.5410   34.1430   45.3300 C   0  0  0  0  0  0  0  0  0  0  0  0
   44.7080   35.1720   45.3740 N   0  0  0  0  0  0  0  0  0  0  0  0
   46.3670   34.1830   40.8390 C   0  0  0  0  0  0  0  0  0  0  0  0
   48.2540   35.4610   41.7640 C   0  0  0  0  0  0  0  0  0  0  0  0
   47.7950   32.2180   41.3010 O   0  0  0  0  0  0  0  0  0  0  0  0
   48.9100   31.8480   40.5730 C   0  0  0  0  0  0  0  0  0  0  0  0
   50.1830   32.2340   40.9410 N   0  0  0  0  0  0  0  0  0  0  0  0
   51.0210   31.7540   40.0930 O   0  0  0  0  0  0  0  0  0  0  0  0
   50.4380   31.0720   39.1740 C   0  0  0  0  0  0  0  0  0  0  0  0
   49.1510   31.1260   39.4630 N   0  0  0  0  0  0  0  0  0  0  0  0
   50.9930   30.4040   38.0940 O   0  0  0  0  0  0  0  0  0  0  0  0
   51.3860   30.8580   34.7070 N   0  0  0  0  0  0  0  0  0  0  0  0
   51.7290   30.4570   35.9450 N   0  0  0  0  0  0  0  0  0  0  0  0
   50.7150   30.7810   36.8040 C   0  0  0  0  0  0  0  0  0  0  0  0
   49.7510   31.3880   36.0490 C   0  0  0  0  0  0  0  0  0  0  0  0
   50.1810   31.4320   34.7450 C   0  0  0  0  0  0  0  0  0  0  0  0
   49.4160   32.0100   33.6490 C   0  0  0  0  0  0  0  0  0  0  0  0
   49.7150   31.9820   32.3050 C   0  0  0  0  0  0  0  0  0  0  0  0
   48.7160   32.6540   31.6300 C   0  0  0  0  0  0  0  0  0  0  0  0
   47.8450   33.0670   32.5620 N   0  0  0  0  0  0  0  0  0  0  0  0
   48.2560   32.6880   33.7590 N   0  0  0  0  0  0  0  0  0  0  0  0
   49.0108   33.3269   42.4974 H   0  0  0  0  0  0  0  0  0  0  0  0
   47.4923   32.6747   43.2492 H   0  0  0  0  0  0  0  0  0  0  0  0
   43.9558   36.8840   44.3696 H   0  0  0  0  0  0  0  0  0  0  0  0
   45.4178   36.5317   42.3520 H   0  0  0  0  0  0  0  0  0  0  0  0
   45.5806   33.4530   46.1857 H   0  0  0  0  0  0  0  0  0  0  0  0
   45.3505   33.9006   41.1504 H   0  0  0  0  0  0  0  0  0  0  0  0
   46.3240   35.1032   40.2379 H   0  0  0  0  0  0  0  0  0  0  0  0
   46.8048   33.3725   40.2379 H   0  0  0  0  0  0  0  0  0  0  0  0
   48.6585   35.8714   42.7010 H   0  0  0  0  0  0  0  0  0  0  0  0
   49.0689   35.0083   41.1800 H   0  0  0  0  0  0  0  0  0  0  0  0
   47.7895   36.2692   41.1800 H   0  0  0  0  0  0  0  0  0  0  0  0
   51.9630   30.7405   33.8619 H   0  0  0  0  0  0  0  0  0  0  0  0
   48.7920   31.7761   36.4227 H   0  0  0  0  0  0  0  0  0  0  0  0
   50.5962   31.5070   31.8490 H   0  0  0  0  0  0  0  0  0  0  0  0
   48.6480   32.8180   30.5444 H   0  0  0  0  0  0  0  0  0  0  0  0
   46.9842   33.6001   32.3730 H   0  0  0  0  0  0  0  0  0  0  0  0
  2  1  1  0
  2  5  1  0
  3  8  2  0
  4  3  1  0
  5  4  2  0
  5  6  1  0
  6  7  2  0
  7  8  1  0
  9  2  1  0
 10  2  1  0
 11  1  1  0
 12 13  2  0
 12 11  1  0
 14 13  1  0
 15 16  2  0
 15 14  1  0
 16 12  1  0
 17 15  1  0
 18 22  1  0
 18 19  1  0
 19 20  2  0
 20 17  1  0
 21 20  1  0
 22 21  2  0
 23 27  2  0
 23 22  1  0
 24 23  1  0
 25 24  2  0
 25 26  1  0
 26 27  1  0
  1 28  1  0
  1 29  1  0
  3 30  1  0
  4 31  1  0
  7 32  1  0
  9 33  1  0
  9 34  1  0
  9 35  1  0
 10 36  1  0
 10 37  1  0
 10 38  1  0
 18 39  1  0
 21 40  1  0
 24 41  1  0
 25 42  1  0
 26 43  1  0
M  ISO  8  28   8  29   8  30  14  31  14  32  14  33   8  34   8  35   8
M  ISO  8  36   8  37   8  38   8  39   9  40  14  41  14  42  14  43   9
M  END
>  <minimizedAffinity>  (1) 
-5.84818411

>  <minimizedRMSD>  (1) 
1.30879307

$$$$
