
     RDKit          3D

 51 54  0  0  0  0  0  0  0  0999 V2000
   47.9850   33.1150   42.2730 C   0  0  0  0  0  0  0  0  0  0  0  0
   47.2830   34.4220   42.0310 C   0  0  0  0  0  0  0  0  0  0  0  0
   44.6760   35.9610   44.3100 C   0  0  0  0  0  0  0  0  0  0  0  0
   45.4900   35.8030   43.1580 C   0  0  0  0  0  0  0  0  0  0  0  0
   46.3870   34.7130   43.1380 C   0  0  0  0  0  0  0  0  0  0  0  0
   46.4090   33.9010   44.2060 N   0  0  0  0  0  0  0  0  0  0  0  0
   45.6090   34.0940   45.2870 C   0  0  0  0  0  0  0  0  0  0  0  0
   44.7520   35.1170   45.3320 N   0  0  0  0  0  0  0  0  0  0  0  0
   46.4110   34.2070   40.7810 C   0  0  0  0  0  0  0  0  0  0  0  0
   48.2990   35.4660   41.7320 C   0  0  0  0  0  0  0  0  0  0  0  0
   48.0200   32.3160   41.1300 O   0  0  0  0  0  0  0  0  0  0  0  0
   49.2520   31.9830   40.5920 C   0  0  0  0  0  0  0  0  0  0  0  0
   50.4350   32.3420   41.1890 N   0  0  0  0  0  0  0  0  0  0  0  0
   51.4160   31.9020   40.4750 O   0  0  0  0  0  0  0  0  0  0  0  0
   50.9990   31.2710   39.4370 C   0  0  0  0  0  0  0  0  0  0  0  0
   49.6820   31.3160   39.5010 N   0  0  0  0  0  0  0  0  0  0  0  0
   51.7370   30.6560   38.4350 O   0  0  0  0  0  0  0  0  0  0  0  0
   51.8410   30.2610   35.0260 N   0  0  0  0  0  0  0  0  0  0  0  0
   52.2620   30.1440   36.2850 N   0  0  0  0  0  0  0  0  0  0  0  0
   51.3600   30.7400   37.1200 C   0  0  0  0  0  0  0  0  0  0  0  0
   50.3630   31.2280   36.3210 C   0  0  0  0  0  0  0  0  0  0  0  0
   50.6660   30.9290   35.0130 C   0  0  0  0  0  0  0  0  0  0  0  0
   49.8160   31.3050   33.9180 N   0  0  0  0  0  0  0  0  0  0  0  0
   48.9140   32.4410   33.9780 C   0  0  0  0  0  0  0  0  0  0  0  0
   49.1040   33.3430   32.7940 C   0  0  0  0  0  0  0  0  0  0  0  0
   48.8310   32.5440   31.5320 C   0  0  0  0  0  0  0  0  0  0  0  0
   49.9160   31.4750   31.4830 C   0  0  0  0  0  0  0  0  0  0  0  0
   49.8190   30.5550   32.6780 C   0  0  0  0  0  0  0  0  0  0  0  0
   49.0171   33.3212   42.5928 H   0  0  0  0  0  0  0  0  0  0  0  0
   47.4267   32.5704   43.0487 H   0  0  0  0  0  0  0  0  0  0  0  0
   43.9670   36.8007   44.3570 H   0  0  0  0  0  0  0  0  0  0  0  0
   45.4244   36.5036   42.3125 H   0  0  0  0  0  0  0  0  0  0  0  0
   45.6681   33.3980   46.1368 H   0  0  0  0  0  0  0  0  0  0  0  0
   45.3855   33.9542   41.0884 H   0  0  0  0  0  0  0  0  0  0  0  0
   46.3971   35.1286   40.1807 H   0  0  0  0  0  0  0  0  0  0  0  0
   46.8272   33.3846   40.1807 H   0  0  0  0  0  0  0  0  0  0  0  0
   48.6949   35.8728   42.6742 H   0  0  0  0  0  0  0  0  0  0  0  0
   49.1204   35.0223   41.1503 H   0  0  0  0  0  0  0  0  0  0  0  0
   47.8331   36.2751   41.1503 H   0  0  0  0  0  0  0  0  0  0  0  0
   52.3323   29.9002   34.1958 H   0  0  0  0  0  0  0  0  0  0  0  0
   49.4693   31.7686   36.6662 H   0  0  0  0  0  0  0  0  0  0  0  0
   47.8764   32.0760   33.9890 H   0  0  0  0  0  0  0  0  0  0  0  0
   49.1317   33.0128   34.8921 H   0  0  0  0  0  0  0  0  0  0  0  0
   48.4042   34.1894   32.8561 H   0  0  0  0  0  0  0  0  0  0  0  0
   50.1323   33.7334   32.7783 H   0  0  0  0  0  0  0  0  0  0  0  0
   47.8353   32.0790   31.5795 H   0  0  0  0  0  0  0  0  0  0  0  0
   48.8453   33.1808   30.6352 H   0  0  0  0  0  0  0  0  0  0  0  0
   49.7984   30.8840   30.5627 H   0  0  0  0  0  0  0  0  0  0  0  0
   50.8984   31.9696   31.4983 H   0  0  0  0  0  0  0  0  0  0  0  0
   48.8880   29.9733   32.6083 H   0  0  0  0  0  0  0  0  0  0  0  0
   50.6940   29.8884   32.6763 H   0  0  0  0  0  0  0  0  0  0  0  0
  2  1  1  0
  2  5  1  0
  3  8  2  0
  4  3  1  0
  5  4  2  0
  5  6  1  0
  6  7  2  0
  7  8  1  0
  9  2  1  0
 10  2  1  0
 11  1  1  0
 12 11  1  0
 12 13  2  0
 14 13  1  0
 15 16  2  0
 15 14  1  0
 16 12  1  0
 17 15  1  0
 18 19  1  0
 19 20  2  0
 20 17  1  0
 21 20  1  0
 22 18  1  0
 22 21  2  0
 23 24  1  0
 23 22  1  0
 25 24  1  0
 26 25  1  0
 27 26  1  0
 27 28  1  0
 28 23  1  0
  1 29  1  0
  1 30  1  0
  3 31  1  0
  4 32  1  0
  7 33  1  0
  9 34  1  0
  9 35  1  0
  9 36  1  0
 10 37  1  0
 10 38  1  0
 10 39  1  0
 18 40  1  0
 21 41  1  0
 24 42  1  0
 24 43  1  0
 25 44  1  0
 25 45  1  0
 26 46  1  0
 26 47  1  0
 27 48  1  0
 27 49  1  0
 28 50  1  0
 28 51  1  0
M  ISO  8  29   8  30   8  31  14  32  14  33  14  34   8  35   8  36   8
M  ISO  8  37   8  38   8  39   8  40   9  41  14  42  13  43  13  44  13
M  ISO  7  45  13  46  13  47  13  48  13  49  13  50  13  51  13
M  END
>  <minimizedAffinity>  (1) 
-5.77413034

>  <minimizedRMSD>  (1) 
0.658753693

$$$$
