
     RDKit          3D

 46 49  0  0  0  0  0  0  0  0999 V2000
   47.7730   32.2210   41.0720 O   0  0  0  0  0  0  0  0  0  0  0  0
   48.9440   31.8110   40.4490 C   0  0  0  0  0  0  0  0  0  0  0  0
   50.1740   32.2920   40.8130 N   0  0  0  0  0  0  0  0  0  0  0  0
   51.0710   31.7330   40.0610 O   0  0  0  0  0  0  0  0  0  0  0  0
   50.5230   30.9080   39.2160 C   0  0  0  0  0  0  0  0  0  0  0  0
   49.2050   30.9510   39.4490 N   0  0  0  0  0  0  0  0  0  0  0  0
   51.1840   30.1330   38.2560 O   0  0  0  0  0  0  0  0  0  0  0  0
   51.8680   30.2580   34.9030 N   0  0  0  0  0  0  0  0  0  0  0  0
   52.0680   29.9310   36.1930 N   0  0  0  0  0  0  0  0  0  0  0  0
   51.0390   30.4370   36.9300 C   0  0  0  0  0  0  0  0  0  0  0  0
   50.2080   31.0810   36.0540 C   0  0  0  0  0  0  0  0  0  0  0  0
   50.7360   30.9630   34.7960 C   0  0  0  0  0  0  0  0  0  0  0  0
   50.0760   31.5510   33.6300 C   0  0  0  0  0  0  0  0  0  0  0  0
   49.1260   32.5430   33.6860 C   0  0  0  0  0  0  0  0  0  0  0  0
   48.5370   33.0590   32.5500 C   0  0  0  0  0  0  0  0  0  0  0  0
   48.8870   32.5880   31.3010 C   0  0  0  0  0  0  0  0  0  0  0  0
   49.8490   31.5780   31.2040 C   0  0  0  0  0  0  0  0  0  0  0  0
   50.4270   31.0790   32.3710 C   0  0  0  0  0  0  0  0  0  0  0  0
   47.8810   33.0570   42.1950 C   0  0  0  0  0  0  0  0  0  0  0  0
   47.2130   34.3910   41.9900 C   0  0  0  0  0  0  0  0  0  0  0  0
   44.6640   35.9130   44.3460 C   0  0  0  0  0  0  0  0  0  0  0  0
   45.4470   35.7550   43.1720 C   0  0  0  0  0  0  0  0  0  0  0  0
   46.3520   34.6620   43.1360 C   0  0  0  0  0  0  0  0  0  0  0  0
   46.4090   33.8550   44.2080 N   0  0  0  0  0  0  0  0  0  0  0  0
   45.6360   34.0540   45.3040 C   0  0  0  0  0  0  0  0  0  0  0  0
   44.7770   35.0650   45.3740 N   0  0  0  0  0  0  0  0  0  0  0  0
   46.3080   34.2390   40.7570 C   0  0  0  0  0  0  0  0  0  0  0  0
   48.2500   35.3990   41.7010 C   0  0  0  0  0  0  0  0  0  0  0  0
   52.4888   30.0052   34.1210 H   0  0  0  0  0  0  0  0  0  0  0  0
   49.2761   31.6036   36.3154 H   0  0  0  0  0  0  0  0  0  0  0  0
   48.8258   32.9380   34.6678 H   0  0  0  0  0  0  0  0  0  0  0  0
   47.7814   33.8532   32.6408 H   0  0  0  0  0  0  0  0  0  0  0  0
   48.4167   33.0005   30.3962 H   0  0  0  0  0  0  0  0  0  0  0  0
   50.1457   31.1827   30.2213 H   0  0  0  0  0  0  0  0  0  0  0  0
   51.1853   30.2861   32.2923 H   0  0  0  0  0  0  0  0  0  0  0  0
   47.4108   32.5558   43.0539 H   0  0  0  0  0  0  0  0  0  0  0  0
   48.9509   33.2434   42.3700 H   0  0  0  0  0  0  0  0  0  0  0  0
   43.9513   36.7483   44.4111 H   0  0  0  0  0  0  0  0  0  0  0  0
   45.3560   36.4511   42.3251 H   0  0  0  0  0  0  0  0  0  0  0  0
   45.7221   33.3623   46.1550 H   0  0  0  0  0  0  0  0  0  0  0  0
   45.2716   34.0649   41.0821 H   0  0  0  0  0  0  0  0  0  0  0  0
   46.3536   35.1574   40.1533 H   0  0  0  0  0  0  0  0  0  0  0  0
   46.6511   33.3859   40.1533 H   0  0  0  0  0  0  0  0  0  0  0  0
   48.6536   35.7913   42.6461 H   0  0  0  0  0  0  0  0  0  0  0  0
   49.0610   34.9348   41.1207 H   0  0  0  0  0  0  0  0  0  0  0  0
   47.8089   36.2228   41.1207 H   0  0  0  0  0  0  0  0  0  0  0  0
  1 19  1  0
  2  3  2  0
  2  1  1  0
  4  3  1  0
  5  6  2  0
  5  4  1  0
  6  2  1  0
  7  5  1  0
  8  9  1  0
  9 10  2  0
 10  7  1  0
 11 10  1  0
 12  8  1  0
 12 11  2  0
 13 14  2  0
 13 12  1  0
 15 14  1  0
 16 15  2  0
 17 16  1  0
 17 18  2  0
 18 13  1  0
 20 19  1  0
 20 23  1  0
 21 26  2  0
 22 21  1  0
 23 22  2  0
 23 24  1  0
 24 25  2  0
 25 26  1  0
 27 20  1  0
 28 20  1  0
  8 29  1  0
 11 30  1  0
 14 31  1  0
 15 32  1  0
 16 33  1  0
 17 34  1  0
 18 35  1  0
 19 36  1  0
 19 37  1  0
 21 38  1  0
 22 39  1  0
 25 40  1  0
 27 41  1  0
 27 42  1  0
 27 43  1  0
 28 44  1  0
 28 45  1  0
 28 46  1  0
M  ISO  8  29   9  30  14  31  14  32  14  33  14  34  14  35  14  36   8
M  ISO  8  37   8  38  14  39  14  40  14  41   8  42   8  43   8  44   8
M  ISO  2  45   8  46   8
M  END
>  <minimizedAffinity>  (1) 
-5.72417784

>  <minimizedRMSD>  (1) 
1.08225477

$$$$
