
     RDKit          3D

 49 52  0  0  0  0  0  0  0  0999 V2000
   47.5830   33.0190   42.1530 C   0  0  0  0  0  0  0  0  0  0  0  0
   47.0040   34.4090   42.0230 C   0  0  0  0  0  0  0  0  0  0  0  0
   44.6020   35.9760   44.5070 C   0  0  0  0  0  0  0  0  0  0  0  0
   45.3310   35.8030   43.3040 C   0  0  0  0  0  0  0  0  0  0  0  0
   46.2000   34.6960   43.2070 C   0  0  0  0  0  0  0  0  0  0  0  0
   46.2810   33.8740   44.2650 N   0  0  0  0  0  0  0  0  0  0  0  0
   45.5620   34.0810   45.3970 C   0  0  0  0  0  0  0  0  0  0  0  0
   44.7360   35.1190   45.5120 N   0  0  0  0  0  0  0  0  0  0  0  0
   46.0380   34.3400   40.8290 C   0  0  0  0  0  0  0  0  0  0  0  0
   48.0860   35.3580   41.7190 C   0  0  0  0  0  0  0  0  0  0  0  0
   47.3120   32.2290   41.0370 O   0  0  0  0  0  0  0  0  0  0  0  0
   48.3550   31.8720   40.2030 C   0  0  0  0  0  0  0  0  0  0  0  0
   49.6520   32.2670   40.4430 N   0  0  0  0  0  0  0  0  0  0  0  0
   50.4040   31.7940   39.5120 O   0  0  0  0  0  0  0  0  0  0  0  0
   49.7360   31.1090   38.6540 C   0  0  0  0  0  0  0  0  0  0  0  0
   48.4830   31.1530   39.0680 N   0  0  0  0  0  0  0  0  0  0  0  0
   50.1870   30.4490   37.5210 O   0  0  0  0  0  0  0  0  0  0  0  0
   50.6290   31.3860   34.2540 N   0  0  0  0  0  0  0  0  0  0  0  0
   50.9870   30.9300   35.4530 N   0  0  0  0  0  0  0  0  0  0  0  0
   49.8850   30.9090   36.2640 C   0  0  0  0  0  0  0  0  0  0  0  0
   48.8390   31.3700   35.5130 C   0  0  0  0  0  0  0  0  0  0  0  0
   49.3090   31.6670   34.2560 C   0  0  0  0  0  0  0  0  0  0  0  0
   48.4260   32.2000   33.1700 C   0  0  0  0  0  0  0  0  0  0  0  0
   48.2630   31.1510   32.1050 C   0  0  0  0  0  0  0  0  0  0  0  0
   48.6880   31.7910   30.7990 C   0  0  0  0  0  0  0  0  0  0  0  0
   49.5080   33.0040   31.1920 C   0  0  0  0  0  0  0  0  0  0  0  0
   48.9990   33.4270   32.5440 C   0  0  0  0  0  0  0  0  0  0  0  0
   48.6734   33.0994   42.2737 H   0  0  0  0  0  0  0  0  0  0  0  0
   47.1176   32.5398   43.0269 H   0  0  0  0  0  0  0  0  0  0  0  0
   43.9170   36.8306   44.6092 H   0  0  0  0  0  0  0  0  0  0  0  0
   45.2223   36.5117   42.4698 H   0  0  0  0  0  0  0  0  0  0  0  0
   45.6635   33.3773   46.2363 H   0  0  0  0  0  0  0  0  0  0  0  0
   45.0042   34.2662   41.1975 H   0  0  0  0  0  0  0  0  0  0  0  0
   46.1453   35.2481   40.2176 H   0  0  0  0  0  0  0  0  0  0  0  0
   46.2733   33.4564   40.2176 H   0  0  0  0  0  0  0  0  0  0  0  0
   48.5168   35.7359   42.6579 H   0  0  0  0  0  0  0  0  0  0  0  0
   48.8674   34.8487   41.1359 H   0  0  0  0  0  0  0  0  0  0  0  0
   47.6829   36.1991   41.1359 H   0  0  0  0  0  0  0  0  0  0  0  0
   51.2615   31.5056   33.4499 H   0  0  0  0  0  0  0  0  0  0  0  0
   47.8001   31.4836   35.8561 H   0  0  0  0  0  0  0  0  0  0  0  0
   47.4567   32.4588   33.6212 H   0  0  0  0  0  0  0  0  0  0  0  0
   48.9002   30.2823   32.3271 H   0  0  0  0  0  0  0  0  0  0  0  0
   47.2231   30.7963   32.0532 H   0  0  0  0  0  0  0  0  0  0  0  0
   47.8068   32.0951   30.2150 H   0  0  0  0  0  0  0  0  0  0  0  0
   49.2633   31.0949   30.1709 H   0  0  0  0  0  0  0  0  0  0  0  0
   50.5748   32.7421   31.2498 H   0  0  0  0  0  0  0  0  0  0  0  0
   49.4110   33.8131   30.4532 H   0  0  0  0  0  0  0  0  0  0  0  0
   49.8236   33.8195   33.1572 H   0  0  0  0  0  0  0  0  0  0  0  0
   48.2468   34.2251   32.4597 H   0  0  0  0  0  0  0  0  0  0  0  0
  2  1  1  0
  2  5  1  0
  3  8  2  0
  4  3  1  0
  5  4  2  0
  5  6  1  0
  6  7  2  0
  7  8  1  0
  9  2  1  0
 10  2  1  0
 11  1  1  0
 12 13  2  0
 12 11  1  0
 14 13  1  0
 15 16  2  0
 15 14  1  0
 16 12  1  0
 17 15  1  0
 18 22  1  0
 18 19  1  0
 19 20  2  0
 20 17  1  0
 21 20  1  0
 22 21  2  0
 23 22  1  0
 24 23  1  0
 25 26  1  0
 25 24  1  0
 26 27  1  0
 27 23  1  0
  1 28  1  0
  1 29  1  0
  3 30  1  0
  4 31  1  0
  7 32  1  0
  9 33  1  0
  9 34  1  0
  9 35  1  0
 10 36  1  0
 10 37  1  0
 10 38  1  0
 18 39  1  0
 21 40  1  0
 23 41  1  0
 24 42  1  0
 24 43  1  0
 25 44  1  0
 25 45  1  0
 26 46  1  0
 26 47  1  0
 27 48  1  0
 27 49  1  0
M  ISO  8  28   8  29   8  30  14  31  14  32  14  33   8  34   8  35   8
M  ISO  8  36   8  37   8  38   8  39   9  40  14  41  13  42  13  43  13
M  ISO  6  44  13  45  13  46  13  47  13  48  13  49  13
M  END
>  <minimizedAffinity>  (1) 
-5.7593689

>  <minimizedRMSD>  (1) 
2.0720973

$$$$
