
     RDKit          3D

 46 49  0  0  0  0  0  0  0  0999 V2000
   47.7780   32.2470   41.1020 O   0  0  0  0  0  0  0  0  0  0  0  0
   48.9380   31.8320   40.4740 C   0  0  0  0  0  0  0  0  0  0  0  0
   50.1790   32.2940   40.8580 N   0  0  0  0  0  0  0  0  0  0  0  0
   51.0690   31.7410   40.1020 O   0  0  0  0  0  0  0  0  0  0  0  0
   50.5480   30.9450   39.2400 C   0  0  0  0  0  0  0  0  0  0  0  0
   49.2480   30.9960   39.4610 N   0  0  0  0  0  0  0  0  0  0  0  0
   51.1710   30.1780   38.2690 O   0  0  0  0  0  0  0  0  0  0  0  0
   51.8580   30.2560   34.9140 N   0  0  0  0  0  0  0  0  0  0  0  0
   52.0520   29.9430   36.1970 N   0  0  0  0  0  0  0  0  0  0  0  0
   51.0280   30.4640   36.9340 C   0  0  0  0  0  0  0  0  0  0  0  0
   50.1970   31.1070   36.0600 C   0  0  0  0  0  0  0  0  0  0  0  0
   50.7160   30.9780   34.7940 C   0  0  0  0  0  0  0  0  0  0  0  0
   50.0690   31.5550   33.6160 C   0  0  0  0  0  0  0  0  0  0  0  0
   49.1140   32.5470   33.6830 C   0  0  0  0  0  0  0  0  0  0  0  0
   48.5500   33.0380   32.5050 C   0  0  0  0  0  0  0  0  0  0  0  0
   48.9290   32.5500   31.2760 C   0  0  0  0  0  0  0  0  0  0  0  0
   49.8910   31.5550   31.2580 C   0  0  0  0  0  0  0  0  0  0  0  0
   50.4930   31.0210   32.3990 C   0  0  0  0  0  0  0  0  0  0  0  0
   47.8840   33.0810   42.2190 C   0  0  0  0  0  0  0  0  0  0  0  0
   47.2030   34.4080   42.0070 C   0  0  0  0  0  0  0  0  0  0  0  0
   44.6600   35.9510   44.3530 C   0  0  0  0  0  0  0  0  0  0  0  0
   45.4480   35.7800   43.1960 C   0  0  0  0  0  0  0  0  0  0  0  0
   46.3380   34.6930   43.1430 C   0  0  0  0  0  0  0  0  0  0  0  0
   46.3880   33.8640   44.2180 N   0  0  0  0  0  0  0  0  0  0  0  0
   45.6080   34.0780   45.3010 C   0  0  0  0  0  0  0  0  0  0  0  0
   44.7540   35.1050   45.3730 N   0  0  0  0  0  0  0  0  0  0  0  0
   46.3040   34.2320   40.7800 C   0  0  0  0  0  0  0  0  0  0  0  0
   48.2430   35.4140   41.7160 C   0  0  0  0  0  0  0  0  0  0  0  0
   52.4788   29.9906   34.1362 H   0  0  0  0  0  0  0  0  0  0  0  0
   49.2705   31.6375   36.3248 H   0  0  0  0  0  0  0  0  0  0  0  0
   48.7991   32.9483   34.6576 H   0  0  0  0  0  0  0  0  0  0  0  0
   47.7884   33.8298   32.5601 H   0  0  0  0  0  0  0  0  0  0  0  0
   48.4857   32.9347   30.3457 H   0  0  0  0  0  0  0  0  0  0  0  0
   50.2018   31.1587   30.2801 H   0  0  0  0  0  0  0  0  0  0  0  0
   51.2540   30.2288   32.3419 H   0  0  0  0  0  0  0  0  0  0  0  0
   47.4203   32.5789   43.0809 H   0  0  0  0  0  0  0  0  0  0  0  0
   48.9524   33.2748   42.3947 H   0  0  0  0  0  0  0  0  0  0  0  0
   43.9582   36.7960   44.4117 H   0  0  0  0  0  0  0  0  0  0  0  0
   45.3680   36.4821   42.3530 H   0  0  0  0  0  0  0  0  0  0  0  0
   45.6779   33.3842   46.1518 H   0  0  0  0  0  0  0  0  0  0  0  0
   45.2732   34.0302   41.1066 H   0  0  0  0  0  0  0  0  0  0  0  0
   46.3239   35.1511   40.1760 H   0  0  0  0  0  0  0  0  0  0  0  0
   46.6691   33.3883   40.1760 H   0  0  0  0  0  0  0  0  0  0  0  0
   48.6483   35.8061   42.6604 H   0  0  0  0  0  0  0  0  0  0  0  0
   49.0523   34.9473   41.1353 H   0  0  0  0  0  0  0  0  0  0  0  0
   47.8034   36.2384   41.1353 H   0  0  0  0  0  0  0  0  0  0  0  0
  1 19  1  0
  2  3  2  0
  2  1  1  0
  4  3  1  0
  5  6  2  0
  5  4  1  0
  6  2  1  0
  7  5  1  0
  8  9  1  0
  9 10  2  0
 10  7  1  0
 11 10  1  0
 12  8  1  0
 12 11  2  0
 13 14  2  0
 13 12  1  0
 15 14  1  0
 16 15  2  0
 17 16  1  0
 17 18  2  0
 18 13  1  0
 20 19  1  0
 20 23  1  0
 21 26  2  0
 22 21  1  0
 23 22  2  0
 23 24  1  0
 24 25  2  0
 25 26  1  0
 27 20  1  0
 28 20  1  0
  8 29  1  0
 11 30  1  0
 14 31  1  0
 15 32  1  0
 16 33  1  0
 17 34  1  0
 18 35  1  0
 19 36  1  0
 19 37  1  0
 21 38  1  0
 22 39  1  0
 25 40  1  0
 27 41  1  0
 27 42  1  0
 27 43  1  0
 28 44  1  0
 28 45  1  0
 28 46  1  0
M  ISO  8  29   9  30  14  31  14  32  14  33  14  34  14  35  14  36   8
M  ISO  8  37   8  38  14  39  14  40  14  41   8  42   8  43   8  44   8
M  ISO  2  45   8  46   8
M  END
>  <minimizedAffinity>  (1) 
-5.74654007

>  <minimizedRMSD>  (1) 
1.03655839

$$$$
