
     RDKit          3D

 48 50  0  0  0  0  0  0  0  0999 V2000
   47.5630   33.0230   42.2010 C   0  0  0  0  0  0  0  0  0  0  0  0
   46.9720   34.3980   42.0530 C   0  0  0  0  0  0  0  0  0  0  0  0
   44.5840   36.0050   44.5290 C   0  0  0  0  0  0  0  0  0  0  0  0
   45.3140   35.8280   43.3170 C   0  0  0  0  0  0  0  0  0  0  0  0
   46.1670   34.7040   43.2330 C   0  0  0  0  0  0  0  0  0  0  0  0
   46.2360   33.8810   44.2910 N   0  0  0  0  0  0  0  0  0  0  0  0
   45.5180   34.1000   45.4220 C   0  0  0  0  0  0  0  0  0  0  0  0
   44.7080   35.1400   45.5420 N   0  0  0  0  0  0  0  0  0  0  0  0
   46.0050   34.3180   40.8590 C   0  0  0  0  0  0  0  0  0  0  0  0
   48.0540   35.3490   41.7380 C   0  0  0  0  0  0  0  0  0  0  0  0
   47.3460   32.2270   41.0630 O   0  0  0  0  0  0  0  0  0  0  0  0
   48.4510   31.8620   40.3050 C   0  0  0  0  0  0  0  0  0  0  0  0
   49.7100   32.2780   40.6140 N   0  0  0  0  0  0  0  0  0  0  0  0
   50.5300   31.7860   39.7390 O   0  0  0  0  0  0  0  0  0  0  0  0
   49.9040   31.0680   38.8630 C   0  0  0  0  0  0  0  0  0  0  0  0
   48.6100   31.1060   39.2030 N   0  0  0  0  0  0  0  0  0  0  0  0
   50.4600   30.3840   37.7750 O   0  0  0  0  0  0  0  0  0  0  0  0
   50.9490   31.1610   34.4740 N   0  0  0  0  0  0  0  0  0  0  0  0
   51.2840   30.7570   35.7120 N   0  0  0  0  0  0  0  0  0  0  0  0
   50.1760   30.7870   36.5020 C   0  0  0  0  0  0  0  0  0  0  0  0
   49.1470   31.2210   35.7120 C   0  0  0  0  0  0  0  0  0  0  0  0
   49.6360   31.4520   34.4500 C   0  0  0  0  0  0  0  0  0  0  0  0
   48.7870   31.9310   33.3470 C   0  0  0  0  0  0  0  0  0  0  0  0
   48.8290   30.9300   32.1910 C   0  0  0  0  0  0  0  0  0  0  0  0
   47.3400   32.1270   33.7510 C   0  0  0  0  0  0  0  0  0  0  0  0
   49.2720   33.2490   32.7800 C   0  0  0  0  0  0  0  0  0  0  0  0
   48.6465   33.1188   42.3651 H   0  0  0  0  0  0  0  0  0  0  0  0
   47.0708   32.5337   43.0545 H   0  0  0  0  0  0  0  0  0  0  0  0
   43.9081   36.8666   44.6327 H   0  0  0  0  0  0  0  0  0  0  0  0
   45.2173   36.5371   42.4816 H   0  0  0  0  0  0  0  0  0  0  0  0
   45.6118   33.3946   46.2609 H   0  0  0  0  0  0  0  0  0  0  0  0
   44.9724   34.2326   41.2285 H   0  0  0  0  0  0  0  0  0  0  0  0
   46.1015   35.2272   40.2474 H   0  0  0  0  0  0  0  0  0  0  0  0
   46.2496   33.4370   40.2474 H   0  0  0  0  0  0  0  0  0  0  0  0
   48.4895   35.7317   42.6728 H   0  0  0  0  0  0  0  0  0  0  0  0
   48.8328   34.8377   41.1531 H   0  0  0  0  0  0  0  0  0  0  0  0
   47.6469   36.1870   41.1531 H   0  0  0  0  0  0  0  0  0  0  0  0
   51.5933   31.2355   33.6739 H   0  0  0  0  0  0  0  0  0  0  0  0
   48.1044   31.3612   36.0334 H   0  0  0  0  0  0  0  0  0  0  0  0
   48.8719   29.9070   32.5931 H   0  0  0  0  0  0  0  0  0  0  0  0
   47.9253   31.0439   31.5743 H   0  0  0  0  0  0  0  0  0  0  0  0
   49.7200   31.1192   31.5743 H   0  0  0  0  0  0  0  0  0  0  0  0
   47.2639   32.1373   34.8483 H   0  0  0  0  0  0  0  0  0  0  0  0
   46.9733   33.0830   33.3490 H   0  0  0  0  0  0  0  0  0  0  0  0
   46.7322   31.3030   33.3490 H   0  0  0  0  0  0  0  0  0  0  0  0
   49.5235   33.9325   33.6044 H   0  0  0  0  0  0  0  0  0  0  0  0
   50.1653   33.0757   32.1619 H   0  0  0  0  0  0  0  0  0  0  0  0
   48.4795   33.6961   32.1619 H   0  0  0  0  0  0  0  0  0  0  0  0
  2  1  1  0
  2  5  1  0
  3  8  2  0
  4  3  1  0
  5  4  2  0
  5  6  1  0
  6  7  2  0
  7  8  1  0
  9  2  1  0
 10  2  1  0
 11  1  1  0
 12 13  2  0
 12 11  1  0
 14 13  1  0
 15 16  2  0
 15 14  1  0
 16 12  1  0
 17 15  1  0
 18 19  1  0
 19 20  2  0
 20 17  1  0
 21 20  1  0
 22 18  1  0
 22 21  2  0
 23 25  1  0
 23 22  1  0
 24 23  1  0
 26 23  1  0
  1 27  1  0
  1 28  1  0
  3 29  1  0
  4 30  1  0
  7 31  1  0
  9 32  1  0
  9 33  1  0
  9 34  1  0
 10 35  1  0
 10 36  1  0
 10 37  1  0
 18 38  1  0
 21 39  1  0
 24 40  1  0
 24 41  1  0
 24 42  1  0
 25 43  1  0
 25 44  1  0
 25 45  1  0
 26 46  1  0
 26 47  1  0
 26 48  1  0
M  ISO  8  27   8  28   8  29  14  30  14  31  14  32   8  33   8  34   8
M  ISO  8  35   8  36   8  37   8  38   9  39  14  40   8  41   8  42   8
M  ISO  6  43   8  44   8  45   8  46   8  47   8  48   8
M  END
>  <minimizedAffinity>  (1) 
-5.25724983

>  <minimizedRMSD>  (1) 
1.58329344

$$$$
