
     RDKit          3D

 43 46  0  0  0  0  0  0  0  0999 V2000
   47.7390   33.0380   42.2110 C   0  0  0  0  0  0  0  0  0  0  0  0
   47.1120   34.3970   42.0210 C   0  0  0  0  0  0  0  0  0  0  0  0
   44.6230   35.9790   44.4030 C   0  0  0  0  0  0  0  0  0  0  0  0
   45.3880   35.8050   43.2210 C   0  0  0  0  0  0  0  0  0  0  0  0
   46.2690   34.6930   43.1750 C   0  0  0  0  0  0  0  0  0  0  0  0
   46.3210   33.8850   44.2430 N   0  0  0  0  0  0  0  0  0  0  0  0
   45.5640   34.1010   45.3500 C   0  0  0  0  0  0  0  0  0  0  0  0
   44.7290   35.1320   45.4280 N   0  0  0  0  0  0  0  0  0  0  0  0
   46.1820   34.2550   40.8030 C   0  0  0  0  0  0  0  0  0  0  0  0
   48.1670   35.3800   41.7130 C   0  0  0  0  0  0  0  0  0  0  0  0
   47.5580   32.2140   41.1010 O   0  0  0  0  0  0  0  0  0  0  0  0
   48.6720   31.7970   40.3920 C   0  0  0  0  0  0  0  0  0  0  0  0
   49.9360   32.2450   40.6920 N   0  0  0  0  0  0  0  0  0  0  0  0
   50.7740   31.6940   39.8750 O   0  0  0  0  0  0  0  0  0  0  0  0
   50.1830   30.9090   39.0470 C   0  0  0  0  0  0  0  0  0  0  0  0
   48.9000   30.9650   39.3540 N   0  0  0  0  0  0  0  0  0  0  0  0
   50.7380   30.1460   38.0290 O   0  0  0  0  0  0  0  0  0  0  0  0
   51.5150   30.4720   34.6960 N   0  0  0  0  0  0  0  0  0  0  0  0
   51.6760   30.0520   35.9680 N   0  0  0  0  0  0  0  0  0  0  0  0
   50.6380   30.5340   36.7170 C   0  0  0  0  0  0  0  0  0  0  0  0
   49.8430   31.2550   35.8700 C   0  0  0  0  0  0  0  0  0  0  0  0
   50.3990   31.2110   34.6130 C   0  0  0  0  0  0  0  0  0  0  0  0
   49.8200   31.8620   33.4900 N   0  0  0  0  0  0  0  0  0  0  0  0
   50.1410   31.5800   32.1940 C   0  0  0  0  0  0  0  0  0  0  0  0
   49.3530   32.4330   31.4540 C   0  0  0  0  0  0  0  0  0  0  0  0
   48.5790   33.2120   32.2540 N   0  0  0  0  0  0  0  0  0  0  0  0
   48.8910   32.8350   33.5050 C   0  0  0  0  0  0  0  0  0  0  0  0
   48.8176   33.1667   42.3844 H   0  0  0  0  0  0  0  0  0  0  0  0
   47.2495   32.5578   43.0711 H   0  0  0  0  0  0  0  0  0  0  0  0
   43.9288   36.8291   44.4757 H   0  0  0  0  0  0  0  0  0  0  0  0
   45.3020   36.5030   42.3752 H   0  0  0  0  0  0  0  0  0  0  0  0
   45.6438   33.4076   46.2002 H   0  0  0  0  0  0  0  0  0  0  0  0
   45.1491   34.0973   41.1468 H   0  0  0  0  0  0  0  0  0  0  0  0
   46.2305   35.1710   40.1958 H   0  0  0  0  0  0  0  0  0  0  0  0
   46.5017   33.3953   40.1958 H   0  0  0  0  0  0  0  0  0  0  0  0
   48.5878   35.7721   42.6506 H   0  0  0  0  0  0  0  0  0  0  0  0
   48.9624   34.8935   41.1293 H   0  0  0  0  0  0  0  0  0  0  0  0
   47.7378   36.2077   41.1293 H   0  0  0  0  0  0  0  0  0  0  0  0
   52.1489   30.2588   33.9127 H   0  0  0  0  0  0  0  0  0  0  0  0
   48.9170   31.7804   36.1467 H   0  0  0  0  0  0  0  0  0  0  0  0
   50.8652   30.8391   31.8242 H   0  0  0  0  0  0  0  0  0  0  0  0
   49.3505   32.4780   30.3549 H   0  0  0  0  0  0  0  0  0  0  0  0
   48.4479   33.2630   34.4163 H   0  0  0  0  0  0  0  0  0  0  0  0
  2  1  1  0
  2  5  1  0
  3  8  2  0
  4  3  1  0
  5  4  2  0
  5  6  1  0
  6  7  2  0
  7  8  1  0
  9  2  1  0
 10  2  1  0
 11  1  1  0
 12 13  2  0
 12 11  1  0
 14 13  1  0
 15 16  2  0
 15 14  1  0
 16 12  1  0
 17 15  1  0
 18 19  1  0
 19 20  2  0
 20 17  1  0
 21 20  1  0
 22 18  1  0
 22 21  2  0
 23 27  1  0
 23 22  1  0
 24 23  1  0
 25 24  2  0
 25 26  1  0
 26 27  2  0
  1 28  1  0
  1 29  1  0
  3 30  1  0
  4 31  1  0
  7 32  1  0
  9 33  1  0
  9 34  1  0
  9 35  1  0
 10 36  1  0
 10 37  1  0
 10 38  1  0
 18 39  1  0
 21 40  1  0
 24 41  1  0
 25 42  1  0
 27 43  1  0
M  ISO  8  28   8  29   8  30  14  31  14  32  14  33   8  34   8  35   8
M  ISO  8  36   8  37   8  38   8  39   9  40  14  41  14  42  14  43  14
M  END
>  <minimizedAffinity>  (1) 
-5.37605047

>  <minimizedRMSD>  (1) 
1.26915061

$$$$
