
     RDKit          3D

 15 15  0  0  0  0  0  0  0  0999 V2000
   46.0960   34.5000   43.5130 C   0  0  0  0  0  0  0  0  0  0  0  0
   46.9110   33.4340   43.9220 C   0  0  0  0  0  0  0  0  0  0  0  0
   46.7990   32.9400   45.2210 C   0  0  0  0  0  0  0  0  0  0  0  0
   45.8800   33.5330   46.0420 N   0  0  0  0  0  0  0  0  0  0  0  0
   45.1120   34.5550   45.6210 C   0  0  0  0  0  0  0  0  0  0  0  0
   45.1990   35.0500   44.3780 N   0  0  0  0  0  0  0  0  0  0  0  0
   44.1680   35.1450   46.5070 N   0  0  0  0  0  0  0  0  0  0  0  0
   46.2320   35.0110   42.1290 C   0  0  0  0  0  0  0  0  0  0  0  0
   47.6343   32.9904   43.2219 H   0  0  0  0  0  0  0  0  0  0  0  0
   47.4251   32.1063   45.5716 H   0  0  0  0  0  0  0  0  0  0  0  0
   43.5796   35.9272   46.1862 H   0  0  0  0  0  0  0  0  0  0  0  0
   44.0730   34.7900   47.4692 H   0  0  0  0  0  0  0  0  0  0  0  0
   46.5148   36.0737   42.1566 H   0  0  0  0  0  0  0  0  0  0  0  0
   47.0090   34.4384   41.6014 H   0  0  0  0  0  0  0  0  0  0  0  0
   45.2731   34.9004   41.6014 H   0  0  0  0  0  0  0  0  0  0  0  0
  1  2  2  0
  1  6  1  0
  2  3  1  0
  3  4  2  0
  5  4  1  0
  5  7  1  0
  6  5  2  0
  8  1  1  0
  2  9  1  0
  3 10  1  0
  7 11  1  0
  7 12  1  0
  8 13  1  0
  8 14  1  0
  8 15  1  0
M  ISO  5   9  14  10  14  13   8  14   8  15   8
M  END
>  <minimizedAffinity>  (1) 
-3.62211084

>  <minimizedRMSD>  (1) 
1.63440692

$$$$
