
     RDKit          3D

 38 40  0  0  0  0  0  0  0  0999 V2000
   48.0250   33.1380   42.3170 C   0  0  0  0  0  0  0  0  0  0  0  0
   47.3320   34.4500   42.0300 C   0  0  0  0  0  0  0  0  0  0  0  0
   44.6680   36.0200   44.2250 C   0  0  0  0  0  0  0  0  0  0  0  0
   45.5160   35.8450   43.1020 C   0  0  0  0  0  0  0  0  0  0  0  0
   46.4080   34.7440   43.1200 C   0  0  0  0  0  0  0  0  0  0  0  0
   46.3950   33.9360   44.1970 N   0  0  0  0  0  0  0  0  0  0  0  0
   45.5610   34.1560   45.2420 C   0  0  0  0  0  0  0  0  0  0  0  0
   44.7120   35.1740   45.2640 N   0  0  0  0  0  0  0  0  0  0  0  0
   46.4800   34.1920   40.7760 C   0  0  0  0  0  0  0  0  0  0  0  0
   48.3400   35.4800   41.7360 C   0  0  0  0  0  0  0  0  0  0  0  0
   48.2260   32.3860   41.1620 O   0  0  0  0  0  0  0  0  0  0  0  0
   49.5200   32.0830   40.7770 C   0  0  0  0  0  0  0  0  0  0  0  0
   50.6140   32.4960   41.5040 N   0  0  0  0  0  0  0  0  0  0  0  0
   51.6820   32.0760   40.9210 O   0  0  0  0  0  0  0  0  0  0  0  0
   51.4130   31.4110   39.8550 C   0  0  0  0  0  0  0  0  0  0  0  0
   50.0970   31.4100   39.7600 N   0  0  0  0  0  0  0  0  0  0  0  0
   52.2860   30.8040   38.9640 O   0  0  0  0  0  0  0  0  0  0  0  0
   52.5910   29.9560   35.6520 N   0  0  0  0  0  0  0  0  0  0  0  0
   52.9420   30.0190   36.9330 N   0  0  0  0  0  0  0  0  0  0  0  0
   51.9800   30.7020   37.6290 C   0  0  0  0  0  0  0  0  0  0  0  0
   51.0250   31.0550   36.7170 C   0  0  0  0  0  0  0  0  0  0  0  0
   51.4080   30.5890   35.4820 C   0  0  0  0  0  0  0  0  0  0  0  0
   50.6190   30.7970   34.3180 N   0  0  0  0  0  0  0  0  0  0  0  0
   49.0015   33.3466   42.7784 H   0  0  0  0  0  0  0  0  0  0  0  0
   47.3800   32.5556   42.9914 H   0  0  0  0  0  0  0  0  0  0  0  0
   43.9625   36.8638   44.2439 H   0  0  0  0  0  0  0  0  0  0  0  0
   45.4826   36.5382   42.2485 H   0  0  0  0  0  0  0  0  0  0  0  0
   45.5893   33.4678   46.0997 H   0  0  0  0  0  0  0  0  0  0  0  0
   45.4675   33.8854   41.0773 H   0  0  0  0  0  0  0  0  0  0  0  0
   46.4212   35.1126   40.1768 H   0  0  0  0  0  0  0  0  0  0  0  0
   46.9418   33.3934   40.1768 H   0  0  0  0  0  0  0  0  0  0  0  0
   48.7363   35.8849   42.6789 H   0  0  0  0  0  0  0  0  0  0  0  0
   49.1607   35.0345   41.1546 H   0  0  0  0  0  0  0  0  0  0  0  0
   47.8769   36.2909   41.1546 H   0  0  0  0  0  0  0  0  0  0  0  0
   53.1344   29.4974   34.9068 H   0  0  0  0  0  0  0  0  0  0  0  0
   50.1050   31.6173   36.9348 H   0  0  0  0  0  0  0  0  0  0  0  0
   49.7297   31.3124   34.3840 H   0  0  0  0  0  0  0  0  0  0  0  0
   50.9366   30.4323   33.4086 H   0  0  0  0  0  0  0  0  0  0  0  0
  2  1  1  0
  2  5  1  0
  3  8  2  0
  4  5  2  0
  4  3  1  0
  5  6  1  0
  6  7  2  0
  7  8  1  0
  9  2  1  0
 10  2  1  0
 11  1  1  0
 12 11  1  0
 12 13  2  0
 14 13  1  0
 15 14  1  0
 16 15  2  0
 16 12  1  0
 17 15  1  0
 18 19  1  0
 19 20  2  0
 20 17  1  0
 21 20  1  0
 22 18  1  0
 22 21  2  0
 23 22  1  0
  1 24  1  0
  1 25  1  0
  3 26  1  0
  4 27  1  0
  7 28  1  0
  9 29  1  0
  9 30  1  0
  9 31  1  0
 10 32  1  0
 10 33  1  0
 10 34  1  0
 18 35  1  0
 21 36  1  0
 23 37  1  0
 23 38  1  0
M  ISO  8  24   8  25   8  26  14  27  14  28  14  29   8  30   8  31   8
M  ISO  5  32   8  33   8  34   8  35   9  36  14
M  END
>  <minimizedAffinity>  (1) 
-4.82422638

>  <minimizedRMSD>  (1) 
0.106596373

$$$$
