
     RDKit          3D

 42 44  0  0  0  0  0  0  0  0999 V2000
   48.0880   33.1650   42.3630 C   0  0  0  0  0  0  0  0  0  0  0  0
   47.3740   34.4520   42.0580 C   0  0  0  0  0  0  0  0  0  0  0  0
   44.6760   36.0170   44.2150 C   0  0  0  0  0  0  0  0  0  0  0  0
   45.5400   35.8420   43.1050 C   0  0  0  0  0  0  0  0  0  0  0  0
   46.4350   34.7450   43.1320 C   0  0  0  0  0  0  0  0  0  0  0  0
   46.4080   33.9440   44.2070 N   0  0  0  0  0  0  0  0  0  0  0  0
   45.5600   34.1560   45.2440 C   0  0  0  0  0  0  0  0  0  0  0  0
   44.7080   35.1790   45.2470 N   0  0  0  0  0  0  0  0  0  0  0  0
   46.5460   34.1830   40.7890 C   0  0  0  0  0  0  0  0  0  0  0  0
   48.3770   35.4980   41.7650 C   0  0  0  0  0  0  0  0  0  0  0  0
   48.2140   32.3510   41.2380 O   0  0  0  0  0  0  0  0  0  0  0  0
   49.4830   32.0630   40.7660 C   0  0  0  0  0  0  0  0  0  0  0  0
   50.6210   32.3940   41.4680 N   0  0  0  0  0  0  0  0  0  0  0  0
   51.6490   32.0100   40.7970 O   0  0  0  0  0  0  0  0  0  0  0  0
   51.3160   31.4410   39.6930 C   0  0  0  0  0  0  0  0  0  0  0  0
   49.9960   31.4710   39.6680 N   0  0  0  0  0  0  0  0  0  0  0  0
   52.1290   30.9000   38.7090 O   0  0  0  0  0  0  0  0  0  0  0  0
   52.1570   30.1370   35.3630 N   0  0  0  0  0  0  0  0  0  0  0  0
   52.6170   30.1750   36.6080 N   0  0  0  0  0  0  0  0  0  0  0  0
   51.7120   30.8240   37.4040 C   0  0  0  0  0  0  0  0  0  0  0  0
   50.6730   31.1830   36.5920 C   0  0  0  0  0  0  0  0  0  0  0  0
   50.9500   30.7540   35.3110 C   0  0  0  0  0  0  0  0  0  0  0  0
   49.9760   31.0200   34.2220 C   0  0  0  0  0  0  0  0  0  0  0  0
   50.5940   31.6450   33.0120 C   0  0  0  0  0  0  0  0  0  0  0  0
   49.0928   33.3995   42.7444 H   0  0  0  0  0  0  0  0  0  0  0  0
   47.4929   32.6183   43.1093 H   0  0  0  0  0  0  0  0  0  0  0  0
   43.9682   36.8590   44.2228 H   0  0  0  0  0  0  0  0  0  0  0  0
   45.5160   36.5352   42.2512 H   0  0  0  0  0  0  0  0  0  0  0  0
   45.5765   33.4674   46.1016 H   0  0  0  0  0  0  0  0  0  0  0  0
   45.5354   33.8547   41.0734 H   0  0  0  0  0  0  0  0  0  0  0  0
   46.4779   35.1052   40.1933 H   0  0  0  0  0  0  0  0  0  0  0  0
   47.0329   33.3968   40.1933 H   0  0  0  0  0  0  0  0  0  0  0  0
   48.7680   35.9057   42.7089 H   0  0  0  0  0  0  0  0  0  0  0  0
   49.2029   35.0616   41.1841 H   0  0  0  0  0  0  0  0  0  0  0  0
   47.9064   36.3049   41.1841 H   0  0  0  0  0  0  0  0  0  0  0  0
   52.6409   29.7065   34.5621 H   0  0  0  0  0  0  0  0  0  0  0  0
   49.7681   31.7232   36.9072 H   0  0  0  0  0  0  0  0  0  0  0  0
   49.5157   30.0660   33.9251 H   0  0  0  0  0  0  0  0  0  0  0  0
   49.2369   31.7339   34.6146 H   0  0  0  0  0  0  0  0  0  0  0  0
   51.3355   32.3949   33.3249 H   0  0  0  0  0  0  0  0  0  0  0  0
   51.0892   30.8684   32.4106 H   0  0  0  0  0  0  0  0  0  0  0  0
   49.8119   32.1314   32.4106 H   0  0  0  0  0  0  0  0  0  0  0  0
  2  1  1  0
  2  5  1  0
  3  8  2  0
  4  5  2  0
  4  3  1  0
  5  6  1  0
  6  7  2  0
  7  8  1  0
  9  2  1  0
 10  2  1  0
 11  1  1  0
 12 11  1  0
 12 13  2  0
 14 13  1  0
 15 14  1  0
 16 15  2  0
 16 12  1  0
 17 15  1  0
 18 19  1  0
 19 20  2  0
 20 17  1  0
 21 20  1  0
 22 18  1  0
 22 21  2  0
 23 22  1  0
 24 23  1  0
  1 25  1  0
  1 26  1  0
  3 27  1  0
  4 28  1  0
  7 29  1  0
  9 30  1  0
  9 31  1  0
  9 32  1  0
 10 33  1  0
 10 34  1  0
 10 35  1  0
 18 36  1  0
 21 37  1  0
 23 38  1  0
 23 39  1  0
 24 40  1  0
 24 41  1  0
 24 42  1  0
M  ISO  8  25   8  26   8  27  14  28  14  29  14  30   8  31   8  32   8
M  ISO  8  33   8  34   8  35   8  36   9  37  14  38   8  39   8  40   8
M  ISO  2  41   8  42   8
M  END
>  <minimizedAffinity>  (1) 
-4.90305948

>  <minimizedRMSD>  (1) 
0.244865686

$$$$
