
     RDKit          3D

 20 21  0  0  0  0  0  0  0  0999 V2000
   46.4230   34.6830   41.4510 C   0  0  0  0  0  0  0  0  0  0  0  0
   46.3340   35.2950   42.7080 C   0  0  0  0  0  0  0  0  0  0  0  0
   45.0430   35.5260   43.2350 C   0  0  0  0  0  0  0  0  0  0  0  0
   43.9670   35.1410   42.4890 N   0  0  0  0  0  0  0  0  0  0  0  0
   44.1020   34.5520   41.2800 C   0  0  0  0  0  0  0  0  0  0  0  0
   45.3330   34.3210   40.7550 N   0  0  0  0  0  0  0  0  0  0  0  0
   47.7880   34.4450   40.9070 C   0  0  0  0  0  0  0  0  0  0  0  0
   42.9040   34.1450   40.4980 C   0  0  0  0  0  0  0  0  0  0  0  0
   42.3530   35.1890   39.5410 C   0  0  0  0  0  0  0  0  0  0  0  0
   43.0430   33.9960   39.0070 C   0  0  0  0  0  0  0  0  0  0  0  0
   47.2369   35.5855   43.2652 H   0  0  0  0  0  0  0  0  0  0  0  0
   44.9095   36.0021   44.2176 H   0  0  0  0  0  0  0  0  0  0  0  0
   48.4976   34.3213   41.7384 H   0  0  0  0  0  0  0  0  0  0  0  0
   47.7833   33.5341   40.2903 H   0  0  0  0  0  0  0  0  0  0  0  0
   48.0918   35.3037   40.2903 H   0  0  0  0  0  0  0  0  0  0  0  0
   42.5095   33.5100   41.3049 H   0  0  0  0  0  0  0  0  0  0  0  0
   41.2659   35.2979   39.4134 H   0  0  0  0  0  0  0  0  0  0  0  0
   42.4767   36.2755   39.4223 H   0  0  0  0  0  0  0  0  0  0  0  0
   42.4667   33.2219   38.4790 H   0  0  0  0  0  0  0  0  0  0  0  0
   43.8908   33.8375   38.3243 H   0  0  0  0  0  0  0  0  0  0  0  0
  1  2  2  0
  2  3  1  0
  4  3  2  0
  5  4  1  0
  6  5  2  0
  6  1  1  0
  7  1  1  0
  8  5  1  0
  9  8  1  0
 10  9  1  0
 10  8  1  0
  2 11  1  0
  3 12  1  0
  7 13  1  0
  7 14  1  0
  7 15  1  0
  8 16  1  0
  9 17  1  0
  9 18  1  0
 10 19  1  0
 10 20  1  0
M  ISO  8  11  14  12  14  13   8  14   8  15   8  16  13  17  13  18  13
M  ISO  2  19  13  20  13
M  END
>  <minimizedAffinity>  (1) 
-3.13182664

>  <minimizedRMSD>  (1) 
4.18394709

$$$$
