
     RDKit          3D

 14 14  0  0  0  0  0  0  0  0999 V2000
   48.9140   34.6770   42.1190 C   0  0  0  0  0  0  0  0  0  0  0  0
   47.7640   34.4520   42.8800 C   0  0  0  0  0  0  0  0  0  0  0  0
   47.5610   33.1690   43.4140 C   0  0  0  0  0  0  0  0  0  0  0  0
   48.4990   32.2120   43.1590 N   0  0  0  0  0  0  0  0  0  0  0  0
   49.5930   32.4740   42.4200 C   0  0  0  0  0  0  0  0  0  0  0  0
   49.8210   33.6890   41.8930 N   0  0  0  0  0  0  0  0  0  0  0  0
   49.1350   36.0280   41.5520 C   0  0  0  0  0  0  0  0  0  0  0  0
   50.8420   31.2370   42.0690 S   0  0  0  0  0  0  0  0  0  0  0  0
   47.0369   35.2584   43.0562 H   0  0  0  0  0  0  0  0  0  0  0  0
   46.6715   32.9424   44.0202 H   0  0  0  0  0  0  0  0  0  0  0  0
   49.2538   36.7540   42.3699 H   0  0  0  0  0  0  0  0  0  0  0  0
   50.0440   36.0215   40.9326 H   0  0  0  0  0  0  0  0  0  0  0  0
   48.2713   36.3115   40.9326 H   0  0  0  0  0  0  0  0  0  0  0  0
   51.3399   30.7439   43.2462 H   0  0  0  0  0  0  0  0  0  0  0  0
  1  2  2  0
  2  3  1  0
  4  3  2  0
  5  4  1  0
  6  1  1  0
  6  5  2  0
  7  1  1  0
  8  5  1  0
  2  9  1  0
  3 10  1  0
  7 11  1  0
  7 12  1  0
  7 13  1  0
  8 14  1  0
M  ISO  6   9  14  10  14  11   8  12   8  13   8  14  11
M  END
>  <minimizedAffinity>  (1) 
-2.5657835

>  <minimizedRMSD>  (1) 
5.28462267

$$$$
