
     RDKit          3D

 34 37  0  0  1  0  0  0  0  0999 V2000
   43.8500   34.3210   41.6220 C   0  0  1  0  0  0  0  0  0  0  0  0
   43.0590   35.5970   41.3300 C   0  0  0  0  0  0  0  0  0  0  0  0
   42.9480   34.4040   40.4460 C   0  0  2  0  0  0  0  0  0  0  0  0
   41.6310   33.7220   40.4610 C   0  0  0  0  0  0  0  0  0  0  0  0
   41.5470   32.9020   41.5510 N   0  0  0  0  0  0  0  0  0  0  0  0
   40.4350   32.1330   41.7400 C   0  0  0  0  0  0  0  0  0  0  0  0
   39.4020   32.1770   40.8520 N   0  0  0  0  0  0  0  0  0  0  0  0
   39.4620   32.9670   39.7870 C   0  0  0  0  0  0  0  0  0  0  0  0
   38.4780   33.1120   38.8190 C   0  0  0  0  0  0  0  0  0  0  0  0
   38.6300   33.9800   37.7430 C   0  0  0  0  0  0  0  0  0  0  0  0
   39.7860   34.7530   37.5840 C   0  0  0  0  0  0  0  0  0  0  0  0
   40.7690   34.6140   38.5440 C   0  0  0  0  0  0  0  0  0  0  0  0
   40.5720   33.7470   39.5790 C   0  0  0  0  0  0  0  0  0  0  0  0
   47.1850   34.0560   40.0570 C   0  0  0  0  0  0  0  0  0  0  0  0
   48.0140   34.6230   41.0220 C   0  0  0  0  0  0  0  0  0  0  0  0
   47.4450   35.1110   42.2110 C   0  0  0  0  0  0  0  0  0  0  0  0
   46.1030   35.0010   42.3580 N   0  0  0  0  0  0  0  0  0  0  0  0
   45.3180   34.4480   41.4120 C   0  0  0  0  0  0  0  0  0  0  0  0
   45.8580   33.9690   40.2480 N   0  0  0  0  0  0  0  0  0  0  0  0
   47.7960   33.5350   38.8100 C   0  0  0  0  0  0  0  0  0  0  0  0
   43.9519   33.6032   42.4492 H   0  0  0  0  0  0  0  0  0  0  0  0
   42.2176   35.8863   41.9768 H   0  0  0  0  0  0  0  0  0  0  0  0
   43.3083   36.6588   41.1867 H   0  0  0  0  0  0  0  0  0  0  0  0
   43.1052   34.1859   39.3794 H   0  0  0  0  0  0  0  0  0  0  0  0
   40.3721   31.4719   42.6169 H   0  0  0  0  0  0  0  0  0  0  0  0
   37.5523   32.5241   38.9052 H   0  0  0  0  0  0  0  0  0  0  0  0
   37.8231   34.0609   36.9998 H   0  0  0  0  0  0  0  0  0  0  0  0
   39.9060   35.4399   36.7332 H   0  0  0  0  0  0  0  0  0  0  0  0
   41.7001   35.1956   38.4750 H   0  0  0  0  0  0  0  0  0  0  0  0
   49.0994   34.6880   40.8558 H   0  0  0  0  0  0  0  0  0  0  0  0
   48.0679   35.5664   42.9949 H   0  0  0  0  0  0  0  0  0  0  0  0
   48.6105   32.8404   39.0632 H   0  0  0  0  0  0  0  0  0  0  0  0
   47.0326   33.0057   38.2210 H   0  0  0  0  0  0  0  0  0  0  0  0
   48.1981   34.3725   38.2210 H   0  0  0  0  0  0  0  0  0  0  0  0
  2  1  1  0
  3  4  1  0
  3  2  1  0
  3  1  1  0
  4  5  2  0
  5  6  1  0
  7  6  2  0
  8  7  1  0
  9  8  2  0
 10  9  1  0
 11 10  2  0
 11 12  1  0
 12 13  2  0
 13  8  1  0
 13  4  1  0
 14 19  2  0
 14 15  1  0
 15 16  2  0
 16 17  1  0
 18  1  1  0
 18 17  2  0
 19 18  1  0
 20 14  1  0
  1 21  1  1
  2 22  1  0
  2 23  1  0
  3 24  1  6
  6 25  1  0
  9 26  1  0
 10 27  1  0
 11 28  1  0
 12 29  1  0
 15 30  1  0
 16 31  1  0
 20 32  1  0
 20 33  1  0
 20 34  1  0
M  ISO  8  21  13  22  13  23  13  24  13  25  14  26  14  27  14  28  14
M  ISO  6  29  14  30  14  31  14  32   8  33   8  34   8
M  END
>  <minimizedAffinity>  (1) 
-6.02210855

>  <minimizedRMSD>  (1) 
2.64274979

$$$$
