
     RDKit          3D

 17 18  0  0  0  0  0  0  0  0999 V2000
   44.4580   35.9520   44.9050 C   0  0  0  0  0  0  0  0  0  0  0  0
   44.9480   35.8220   43.6030 C   0  0  0  0  0  0  0  0  0  0  0  0
   45.7200   34.7130   43.2860 C   0  0  0  0  0  0  0  0  0  0  0  0
   45.9610   33.7940   44.2820 N   0  0  0  0  0  0  0  0  0  0  0  0
   45.4710   33.9470   45.5360 C   0  0  0  0  0  0  0  0  0  0  0  0
   44.7280   35.0220   45.8300 N   0  0  0  0  0  0  0  0  0  0  0  0
   46.2850   34.4530   42.0000 N   0  0  0  0  0  0  0  0  0  0  0  0
   45.9380   33.6760   40.9600 C   0  0  0  0  0  0  0  0  0  0  0  0
   46.8470   33.8100   39.9690 N   0  0  0  0  0  0  0  0  0  0  0  0
   47.7580   34.6870   40.4220 C   0  0  0  0  0  0  0  0  0  0  0  0
   47.4270   35.1010   41.6900 N   0  0  0  0  0  0  0  0  0  0  0  0
   48.8500   35.0620   39.6510 O   0  0  0  0  0  0  0  0  0  0  0  0
   43.8453   36.8255   45.1725 H   0  0  0  0  0  0  0  0  0  0  0  0
   44.7258   36.5852   42.8426 H   0  0  0  0  0  0  0  0  0  0  0  0
   45.6822   33.1926   46.3082 H   0  0  0  0  0  0  0  0  0  0  0  0
   45.0491   33.0292   40.9212 H   0  0  0  0  0  0  0  0  0  0  0  0
   49.5081   35.7103   40.0070 H   0  0  0  0  0  0  0  0  0  0  0  0
  1  6  2  0
  2  1  1  0
  3  2  2  0
  3  4  1  0
  4  5  2  0
  5  6  1  0
  7  3  1  0
  8  7  1  0
  9 10  1  0
  9  8  2  0
 10 11  2  0
 11  7  1  0
 12 10  1  0
  1 13  1  0
  2 14  1  0
  5 15  1  0
  8 16  1  0
 12 17  1  0
M  ISO  5  13  14  14  14  15  14  16  14  17   3
M  END
>  <minimizedAffinity>  (1) 
-4.19140148

>  <minimizedRMSD>  (1) 
0.653737307

$$$$
