
     RDKit          3D

 35 37  0  0  1  0  0  0  0  0999 V2000
   42.0370   34.7020   41.4840 C   0  0  1  0  0  0  0  0  0  0  0  0
   41.2700   36.0020   41.2350 C   0  0  0  0  0  0  0  0  0  0  0  0
   41.5360   35.0440   40.1280 C   0  0  2  0  0  0  0  0  0  0  0  0
   45.6830   34.4530   41.1670 C   0  0  0  0  0  0  0  0  0  0  0  0
   46.1490   35.0710   42.3230 C   0  0  0  0  0  0  0  0  0  0  0  0
   45.2150   35.5960   43.2340 C   0  0  0  0  0  0  0  0  0  0  0  0
   43.8960   35.4620   42.9150 N   0  0  0  0  0  0  0  0  0  0  0  0
   43.4900   34.8600   41.7910 C   0  0  0  0  0  0  0  0  0  0  0  0
   44.3710   34.3400   40.8850 N   0  0  0  0  0  0  0  0  0  0  0  0
   46.7080   33.8980   40.2600 C   0  0  0  0  0  0  0  0  0  0  0  0
   40.5220   34.3180   39.4700 N   0  0  0  0  0  0  0  0  0  0  0  0
   40.5610   34.1930   38.0670 C   0  0  0  0  0  0  0  0  0  0  0  0
   39.1110   34.3000   37.5880 C   0  0  0  0  0  0  0  0  0  0  0  0
   38.1690   33.4240   38.3320 C   0  0  0  0  0  0  0  0  0  0  0  0
   38.4460   33.2280   39.7790 C   0  0  0  0  0  0  0  0  0  0  0  0
   39.9220   33.2280   40.1430 C   0  0  0  0  0  0  0  0  0  0  0  0
   41.9370   33.8188   42.1320 H   0  0  0  0  0  0  0  0  0  0  0  0
   40.2493   36.1253   41.6261 H   0  0  0  0  0  0  0  0  0  0  0  0
   41.4617   37.0710   41.4096 H   0  0  0  0  0  0  0  0  0  0  0  0
   42.0034   35.1284   39.1358 H   0  0  0  0  0  0  0  0  0  0  0  0
   47.2283   35.1476   42.5209 H   0  0  0  0  0  0  0  0  0  0  0  0
   45.5342   36.0925   44.1623 H   0  0  0  0  0  0  0  0  0  0  0  0
   47.5225   33.4570   40.8533 H   0  0  0  0  0  0  0  0  0  0  0  0
   46.2548   33.1220   39.6256 H   0  0  0  0  0  0  0  0  0  0  0  0
   47.1101   34.7016   39.6256 H   0  0  0  0  0  0  0  0  0  0  0  0
   41.1677   34.9993   37.6291 H   0  0  0  0  0  0  0  0  0  0  0  0
   41.0143   33.2382   37.7622 H   0  0  0  0  0  0  0  0  0  0  0  0
   38.7823   35.3430   37.7066 H   0  0  0  0  0  0  0  0  0  0  0  0
   39.0945   33.9710   36.5385 H   0  0  0  0  0  0  0  0  0  0  0  0
   37.1637   33.8610   38.2406 H   0  0  0  0  0  0  0  0  0  0  0  0
   38.2781   32.4281   37.8778 H   0  0  0  0  0  0  0  0  0  0  0  0
   37.9546   34.0393   40.3360 H   0  0  0  0  0  0  0  0  0  0  0  0
   38.0590   32.2319   40.0399 H   0  0  0  0  0  0  0  0  0  0  0  0
   40.3886   32.2849   39.8224 H   0  0  0  0  0  0  0  0  0  0  0  0
   40.0545   33.3219   41.2310 H   0  0  0  0  0  0  0  0  0  0  0  0
  1  8  1  0
  2  1  1  0
  3  2  1  0
  3  1  1  0
  4  5  2  0
  5  6  1  0
  7  6  2  0
  8  7  1  0
  9  4  1  0
  9  8  2  0
 10  4  1  0
 11  3  1  0
 11 16  1  0
 12 11  1  0
 13 12  1  0
 13 14  1  0
 14 15  1  0
 15 16  1  0
  1 17  1  1
  2 18  1  0
  2 19  1  0
  3 20  1  6
  5 21  1  0
  6 22  1  0
 10 23  1  0
 10 24  1  0
 10 25  1  0
 12 26  1  0
 12 27  1  0
 13 28  1  0
 13 29  1  0
 14 30  1  0
 14 31  1  0
 15 32  1  0
 15 33  1  0
 16 34  1  0
 16 35  1  0
M  ISO  8  17  13  18  13  19  13  20  13  21  14  22  14  23   8  24   8
M  ISO  8  25   8  26  13  27  13  28  13  29  13  30  13  31  13  32  13
M  ISO  3  33  13  34  13  35  13
M  END
>  <minimizedAffinity>  (1) 
-5.09582996

>  <minimizedRMSD>  (1) 
2.15040565

$$$$
