
     RDKit          3D

 19 20  0  0  0  0  0  0  0  0999 V2000
   45.6860   34.1990   41.6990 N   0  0  0  0  0  0  0  0  0  0  0  0
   44.9960   33.7450   40.6370 C   0  0  0  0  0  0  0  0  0  0  0  0
   45.8420   33.5460   39.5990 N   0  0  0  0  0  0  0  0  0  0  0  0
   47.0580   33.8820   40.0330 C   0  0  0  0  0  0  0  0  0  0  0  0
   46.9640   34.2850   41.3250 N   0  0  0  0  0  0  0  0  0  0  0  0
   44.4580   36.0160   44.7290 C   0  0  0  0  0  0  0  0  0  0  0  0
   44.7290   35.7620   43.3830 C   0  0  0  0  0  0  0  0  0  0  0  0
   45.3570   34.5740   43.0210 C   0  0  0  0  0  0  0  0  0  0  0  0
   45.6800   33.7010   44.0340 N   0  0  0  0  0  0  0  0  0  0  0  0
   45.4060   33.9660   45.3380 C   0  0  0  0  0  0  0  0  0  0  0  0
   44.7950   35.1280   45.6650 N   0  0  0  0  0  0  0  0  0  0  0  0
   48.2610   33.8120   39.2120 C   0  0  0  0  0  0  0  0  0  0  0  0
   48.9170   32.7380   39.2300 O   0  0  0  0  0  0  0  0  0  0  0  0
   48.7040   34.8640   38.4240 O   0  0  0  0  0  0  0  0  0  0  0  0
   43.9113   33.5634   40.6154 H   0  0  0  0  0  0  0  0  0  0  0  0
   43.9633   36.9547   45.0191 H   0  0  0  0  0  0  0  0  0  0  0  0
   44.4479   36.4962   42.6137 H   0  0  0  0  0  0  0  0  0  0  0  0
   45.6784   33.2426   46.1206 H   0  0  0  0  0  0  0  0  0  0  0  0
   48.1964   35.7137   38.4017 H   0  0  0  0  0  0  0  0  0  0  0  0
  1  8  1  0
  2  1  1  0
  3  4  1  0
  3  2  2  0
  4  5  2  0
  5  1  1  0
  6 11  2  0
  7  6  1  0
  8  7  2  0
  8  9  1  0
  9 10  2  0
 10 11  1  0
 12 13  2  0
 12  4  1  0
 14 12  1  0
  2 15  1  0
  6 16  1  0
  7 17  1  0
 10 18  1  0
 14 19  1  0
M  ISO  5  15  14  16  14  17  14  18  14  19   3
M  END
>  <minimizedAffinity>  (1) 
-4.1463151

>  <minimizedRMSD>  (1) 
1.63341045

$$$$
