
     RDKit          3D

 29 31  0  0  1  0  0  0  0  0999 V2000
   42.0820   34.7330   41.4880 C   0  0  1  0  0  0  0  0  0  0  0  0
   41.2790   36.0400   41.4560 C   0  0  0  0  0  0  0  0  0  0  0  0
   41.5930   35.3030   40.2040 C   0  0  2  0  0  0  0  0  0  0  0  0
   45.7620   34.5680   41.2910 C   0  0  0  0  0  0  0  0  0  0  0  0
   46.1770   35.1640   42.4960 C   0  0  0  0  0  0  0  0  0  0  0  0
   45.1620   35.6370   43.3790 C   0  0  0  0  0  0  0  0  0  0  0  0
   43.8700   35.4850   43.0100 N   0  0  0  0  0  0  0  0  0  0  0  0
   43.5130   34.9070   41.8470 C   0  0  0  0  0  0  0  0  0  0  0  0
   44.4560   34.4410   40.9710 N   0  0  0  0  0  0  0  0  0  0  0  0
   46.8230   34.0700   40.3870 C   0  0  0  0  0  0  0  0  0  0  0  0
   40.4510   34.6970   39.4780 C   0  0  0  0  0  0  0  0  0  0  0  0
   39.3980   34.1690   40.2080 C   0  0  0  0  0  0  0  0  0  0  0  0
   38.3110   33.5940   39.6130 C   0  0  0  0  0  0  0  0  0  0  0  0
   38.2290   33.5230   38.2390 C   0  0  0  0  0  0  0  0  0  0  0  0
   39.3220   34.0730   37.5680 C   0  0  0  0  0  0  0  0  0  0  0  0
   40.4000   34.6430   38.1390 N   0  0  0  0  0  0  0  0  0  0  0  0
   42.0005   33.7422   41.9587 H   0  0  0  0  0  0  0  0  0  0  0  0
   40.2482   36.0650   41.8390 H   0  0  0  0  0  0  0  0  0  0  0  0
   41.4357   37.0653   41.8222 H   0  0  0  0  0  0  0  0  0  0  0  0
   42.1017   35.5337   39.2564 H   0  0  0  0  0  0  0  0  0  0  0  0
   47.2435   35.2614   42.7474 H   0  0  0  0  0  0  0  0  0  0  0  0
   45.4233   36.1132   44.3355 H   0  0  0  0  0  0  0  0  0  0  0  0
   47.6592   33.6775   40.9843 H   0  0  0  0  0  0  0  0  0  0  0  0
   46.4175   33.2682   39.7525 H   0  0  0  0  0  0  0  0  0  0  0  0
   47.1808   34.8942   39.7525 H   0  0  0  0  0  0  0  0  0  0  0  0
   39.4389   34.2145   41.3063 H   0  0  0  0  0  0  0  0  0  0  0  0
   37.4986   33.1864   40.2325 H   0  0  0  0  0  0  0  0  0  0  0  0
   37.3739   33.0708   37.7153 H   0  0  0  0  0  0  0  0  0  0  0  0
   39.3009   34.0375   36.4688 H   0  0  0  0  0  0  0  0  0  0  0  0
  1  8  1  0
  2  1  1  0
  3  2  1  0
  3  1  1  0
  4  5  2  0
  5  6  1  0
  7  6  2  0
  8  7  1  0
  9  4  1  0
  9  8  2  0
 10  4  1  0
 11  3  1  0
 11 12  2  0
 13 12  1  0
 14 13  2  0
 15 16  2  0
 15 14  1  0
 16 11  1  0
  1 17  1  1
  2 18  1  0
  2 19  1  0
  3 20  1  6
  5 21  1  0
  6 22  1  0
 10 23  1  0
 10 24  1  0
 10 25  1  0
 12 26  1  0
 13 27  1  0
 14 28  1  0
 15 29  1  0
M  ISO  8  17  13  18  13  19  13  20  13  21  14  22  14  23   8  24   8
M  ISO  5  25   8  26  14  27  14  28  14  29  14
M  END
>  <minimizedAffinity>  (1) 
-5.24180984

>  <minimizedRMSD>  (1) 
2.16747117

$$$$
