
     RDKit          3D

 32 34  0  0  1  0  0  0  0  0999 V2000
   41.9230   34.6800   41.3300 C   0  0  1  0  0  0  0  0  0  0  0  0
   41.1550   35.9910   41.1060 C   0  0  0  0  0  0  0  0  0  0  0  0
   41.4270   35.0530   39.9840 C   0  0  2  0  0  0  0  0  0  0  0  0
   45.5710   34.4000   41.0950 C   0  0  0  0  0  0  0  0  0  0  0  0
   46.0320   35.0380   42.2540 C   0  0  0  0  0  0  0  0  0  0  0  0
   45.0550   35.5920   43.1320 C   0  0  0  0  0  0  0  0  0  0  0  0
   43.7550   35.4590   42.7800 N   0  0  0  0  0  0  0  0  0  0  0  0
   43.3650   34.8390   41.6590 C   0  0  0  0  0  0  0  0  0  0  0  0
   44.2470   34.3020   40.7990 N   0  0  0  0  0  0  0  0  0  0  0  0
   46.5950   33.8100   40.2120 C   0  0  0  0  0  0  0  0  0  0  0  0
   40.4030   34.3570   39.3000 N   0  0  0  0  0  0  0  0  0  0  0  0
   39.1020   34.4290   39.9260 C   0  0  0  0  0  0  0  0  0  0  0  0
   38.3170   33.5190   38.9760 C   0  0  0  0  0  0  0  0  0  0  0  0
   38.8830   33.9700   37.6280 C   0  0  0  0  0  0  0  0  0  0  0  0
   40.1290   34.7920   37.9590 C   0  0  0  0  0  0  0  0  0  0  0  0
   41.8227   33.7771   41.9503 H   0  0  0  0  0  0  0  0  0  0  0  0
   40.1327   36.1071   41.4950 H   0  0  0  0  0  0  0  0  0  0  0  0
   41.3455   37.0563   41.3029 H   0  0  0  0  0  0  0  0  0  0  0  0
   41.9055   35.1476   38.9981 H   0  0  0  0  0  0  0  0  0  0  0  0
   47.1066   35.1087   42.4779 H   0  0  0  0  0  0  0  0  0  0  0  0
   45.3463   36.1073   44.0591 H   0  0  0  0  0  0  0  0  0  0  0  0
   47.3874   33.3535   40.8233 H   0  0  0  0  0  0  0  0  0  0  0  0
   46.1322   33.0401   39.5771 H   0  0  0  0  0  0  0  0  0  0  0  0
   47.0290   34.5965   39.5771 H   0  0  0  0  0  0  0  0  0  0  0  0
   39.1178   34.0350   40.9529 H   0  0  0  0  0  0  0  0  0  0  0  0
   38.6950   35.4437   40.0472 H   0  0  0  0  0  0  0  0  0  0  0  0
   38.5239   32.4559   39.1683 H   0  0  0  0  0  0  0  0  0  0  0  0
   37.2234   33.5983   39.0640 H   0  0  0  0  0  0  0  0  0  0  0  0
   38.1480   34.5867   37.0900 H   0  0  0  0  0  0  0  0  0  0  0  0
   39.1208   33.1138   36.9796 H   0  0  0  0  0  0  0  0  0  0  0  0
   40.9611   34.5537   37.2801 H   0  0  0  0  0  0  0  0  0  0  0  0
   39.9930   35.8787   37.8561 H   0  0  0  0  0  0  0  0  0  0  0  0
  1  8  1  0
  2  1  1  0
  3  2  1  0
  3  1  1  0
  4  5  2  0
  5  6  1  0
  7  6  2  0
  8  7  1  0
  9  4  1  0
  9  8  2  0
 10  4  1  0
 11 12  1  0
 11  3  1  0
 13 12  1  0
 14 15  1  0
 14 13  1  0
 15 11  1  0
  1 16  1  1
  2 17  1  0
  2 18  1  0
  3 19  1  6
  5 20  1  0
  6 21  1  0
 10 22  1  0
 10 23  1  0
 10 24  1  0
 12 25  1  0
 12 26  1  0
 13 27  1  0
 13 28  1  0
 14 29  1  0
 14 30  1  0
 15 31  1  0
 15 32  1  0
M  ISO  8  16  13  17  13  18  13  19  13  20  14  21  14  22   8  23   8
M  ISO  8  24   8  25  13  26  13  27  13  28  13  29  13  30  13  31  13
M  ISO  1  32  13
M  END
>  <minimizedAffinity>  (1) 
-4.86748648

>  <minimizedRMSD>  (1) 
2.07953191

$$$$
