
     RDKit          3D

 21 22  0  0  1  0  0  0  0  0999 V2000
   45.6140   34.2980   41.1050 C   0  0  0  0  0  0  0  0  0  0  0  0
   45.7770   35.2950   42.0610 C   0  0  0  0  0  0  0  0  0  0  0  0
   44.6230   35.7550   42.7400 C   0  0  0  0  0  0  0  0  0  0  0  0
   43.4360   35.1910   42.4130 N   0  0  0  0  0  0  0  0  0  0  0  0
   43.3260   34.2290   41.4820 C   0  0  0  0  0  0  0  0  0  0  0  0
   44.4280   33.7700   40.8120 N   0  0  0  0  0  0  0  0  0  0  0  0
   42.0100   33.6150   41.1650 C   0  0  1  0  0  0  0  0  0  0  0  0
   40.8240   34.5890   41.2300 C   0  0  0  0  0  0  0  0  0  0  0  0
   41.2900   34.0280   39.9330 C   0  0  1  0  0  0  0  0  0  0  0  0
   42.1130   35.2290   38.8280 S   0  0  0  0  0  0  0  0  0  0  0  0
   46.8560   33.8240   40.4170 C   0  0  0  0  0  0  0  0  0  0  0  0
   46.7703   35.7125   42.2823 H   0  0  0  0  0  0  0  0  0  0  0  0
   44.6882   36.5422   43.5056 H   0  0  0  0  0  0  0  0  0  0  0  0
   42.2840   32.6374   41.5883 H   0  0  0  0  0  0  0  0  0  0  0  0
   39.8649   34.2650   41.6603 H   0  0  0  0  0  0  0  0  0  0  0  0
   40.6590   35.5986   41.6343 H   0  0  0  0  0  0  0  0  0  0  0  0
   40.8247   33.4622   39.1125 H   0  0  0  0  0  0  0  0  0  0  0  0
   42.7600   36.1732   39.5808 H   0  0  0  0  0  0  0  0  0  0  0  0
   47.6056   33.5379   41.1695 H   0  0  0  0  0  0  0  0  0  0  0  0
   46.6173   32.9538   39.7879 H   0  0  0  0  0  0  0  0  0  0  0  0
   47.2578   34.6320   39.7879 H   0  0  0  0  0  0  0  0  0  0  0  0
  1  2  2  0
  2  3  1  0
  4  3  2  0
  5  4  1  0
  6  1  1  0
  6  5  2  0
  7  8  1  0
  7  5  1  0
  9  7  1  0
  9  8  1  0
 10  9  1  0
 11  1  1  0
  2 12  1  0
  3 13  1  0
  7 14  1  1
  8 15  1  0
  8 16  1  0
  9 17  1  6
 10 18  1  0
 11 19  1  0
 11 20  1  0
 11 21  1  0
M  ISO  8  12  14  13  14  14  13  15  13  16  13  17  13  18  11  19   8
M  ISO  2  20   8  21   8
M  END
>  <minimizedAffinity>  (1) 
-3.00193691

>  <minimizedRMSD>  (1) 
1.49592745

$$$$
