
     RDKit          3D

 34 37  0  0  1  0  0  0  0  0999 V2000
   42.8490   34.0970   40.3730 C   0  0  1  0  0  0  0  0  0  0  0  0
   42.6310   34.7880   39.0190 C   0  0  0  0  0  0  0  0  0  0  0  0
   42.9760   33.3350   39.1290 C   0  0  1  0  0  0  0  0  0  0  0  0
   44.1840   32.9740   38.3940 C   0  0  0  0  0  0  0  0  0  0  0  0
   44.8860   33.5220   37.3470 C   0  0  0  0  0  0  0  0  0  0  0  0
   45.9470   32.8090   36.9590 N   0  0  0  0  0  0  0  0  0  0  0  0
   45.9580   31.7440   37.7710 C   0  0  0  0  0  0  0  0  0  0  0  0
   46.8210   30.6460   37.8540 C   0  0  0  0  0  0  0  0  0  0  0  0
   46.6490   29.6360   38.7880 C   0  0  0  0  0  0  0  0  0  0  0  0
   45.5890   29.7020   39.6750 C   0  0  0  0  0  0  0  0  0  0  0  0
   44.7410   30.7890   39.5870 C   0  0  0  0  0  0  0  0  0  0  0  0
   44.9120   31.8020   38.6540 C   0  0  0  0  0  0  0  0  0  0  0  0
   46.3550   34.4790   41.3580 C   0  0  0  0  0  0  0  0  0  0  0  0
   46.2940   35.3260   42.4780 C   0  0  0  0  0  0  0  0  0  0  0  0
   45.0110   35.7770   42.9000 C   0  0  0  0  0  0  0  0  0  0  0  0
   43.9280   35.3660   42.1970 N   0  0  0  0  0  0  0  0  0  0  0  0
   44.0270   34.5570   41.1320 C   0  0  0  0  0  0  0  0  0  0  0  0
   45.2330   34.1270   40.7310 N   0  0  0  0  0  0  0  0  0  0  0  0
   47.6930   34.0120   40.9230 C   0  0  0  0  0  0  0  0  0  0  0  0
   42.2835   33.9133   41.2984 H   0  0  0  0  0  0  0  0  0  0  0  0
   43.3697   35.5077   38.6365 H   0  0  0  0  0  0  0  0  0  0  0  0
   41.8281   35.3772   38.5518 H   0  0  0  0  0  0  0  0  0  0  0  0
   42.5664   32.3377   38.9105 H   0  0  0  0  0  0  0  0  0  0  0  0
   44.5979   34.4695   36.8681 H   0  0  0  0  0  0  0  0  0  0  0  0
   46.6102   33.0296   36.2024 H   0  0  0  0  0  0  0  0  0  0  0  0
   47.6663   30.5817   37.1531 H   0  0  0  0  0  0  0  0  0  0  0  0
   47.3497   28.7888   38.8237 H   0  0  0  0  0  0  0  0  0  0  0  0
   45.4269   28.9146   40.4258 H   0  0  0  0  0  0  0  0  0  0  0  0
   43.8943   30.8544   40.2861 H   0  0  0  0  0  0  0  0  0  0  0  0
   47.2070   35.6303   43.0108 H   0  0  0  0  0  0  0  0  0  0  0  0
   44.9022   36.4397   43.7712 H   0  0  0  0  0  0  0  0  0  0  0  0
   48.3113   33.7962   41.8068 H   0  0  0  0  0  0  0  0  0  0  0  0
   47.5843   33.0987   40.3197 H   0  0  0  0  0  0  0  0  0  0  0  0
   48.1763   34.7946   40.3197 H   0  0  0  0  0  0  0  0  0  0  0  0
  1 17  1  0
  2  3  1  0
  2  1  1  0
  3  1  1  0
  4 12  1  0
  4  3  1  0
  5  4  2  0
  6  5  1  0
  6  7  1  0
  7  8  2  0
  7 12  1  0
  8  9  1  0
  9 10  2  0
 11 10  1  0
 12 11  2  0
 13 14  2  0
 14 15  1  0
 16 15  2  0
 17 16  1  0
 18 17  2  0
 18 13  1  0
 19 13  1  0
  1 20  1  1
  2 21  1  0
  2 22  1  0
  3 23  1  1
  5 24  1  0
  6 25  1  0
  8 26  1  0
  9 27  1  0
 10 28  1  0
 11 29  1  0
 14 30  1  0
 15 31  1  0
 19 32  1  0
 19 33  1  0
 19 34  1  0
M  ISO  8  20  13  21  13  22  13  23  13  24  14  25   9  26  14  27  14
M  ISO  7  28  14  29  14  30  14  31  14  32   8  33   8  34   8
M  END
>  <minimizedAffinity>  (1) 
-3.57420969

>  <minimizedRMSD>  (1) 
1.81149387

$$$$
