
     RDKit          3D

 47 50  0  0  1  0  0  0  0  0999 V2000
   41.0890   33.5820   39.3620 C   0  0  2  0  0  0  0  0  0  0  0  0
   40.5500   34.2690   38.1130 C   0  0  0  0  0  0  0  0  0  0  0  0
   39.2250   33.6920   37.7120 C   0  0  0  0  0  0  0  0  0  0  0  0
   38.2070   33.9930   38.7950 C   0  0  0  0  0  0  0  0  0  0  0  0
   38.9210   34.3060   40.1010 C   0  0  0  0  0  0  0  0  0  0  0  0
   40.0000   33.2610   40.2820 C   0  0  1  0  0  0  0  0  0  0  0  0
   39.4490   31.9320   40.2780 N   0  0  0  0  0  0  0  0  0  0  0  0
   38.3120   31.8010   41.0220 C   0  0  0  0  0  0  0  0  0  0  0  0
   37.6330   30.6080   41.1520 C   0  0  0  0  0  0  0  0  0  0  0  0
   38.0710   29.4520   40.5250 C   0  0  0  0  0  0  0  0  0  0  0  0
   37.4540   28.1740   40.5870 N   0  0  0  0  0  0  0  0  0  0  0  0
   39.2060   29.6030   39.7880 N   0  0  0  0  0  0  0  0  0  0  0  0
   39.8260   30.7890   39.6970 C   0  0  0  0  0  0  0  0  0  0  0  0
   40.8540   30.7780   38.9910 O   0  0  0  0  0  0  0  0  0  0  0  0
   42.5570   34.4270   41.3790 C   0  0  1  0  0  0  0  0  0  0  0  0
   41.8050   35.6540   40.7970 C   0  0  0  0  0  0  0  0  0  0  0  0
   42.1170   34.5060   40.0100 C   0  0  2  0  0  0  0  0  0  0  0  0
   46.2250   34.5360   41.1720 C   0  0  0  0  0  0  0  0  0  0  0  0
   46.5960   35.0870   42.4030 C   0  0  0  0  0  0  0  0  0  0  0  0
   45.5590   35.4430   43.3130 C   0  0  0  0  0  0  0  0  0  0  0  0
   44.2740   35.2290   42.9340 N   0  0  0  0  0  0  0  0  0  0  0  0
   43.9690   34.6980   41.7400 C   0  0  0  0  0  0  0  0  0  0  0  0
   44.9320   34.3400   40.8300 N   0  0  0  0  0  0  0  0  0  0  0  0
   47.3080   34.1510   40.2430 C   0  0  0  0  0  0  0  0  0  0  0  0
   41.5729   32.6308   39.0953 H   0  0  0  0  0  0  0  0  0  0  0  0
   40.4277   35.3429   38.3175 H   0  0  0  0  0  0  0  0  0  0  0  0
   41.2639   34.1122   37.2909 H   0  0  0  0  0  0  0  0  0  0  0  0
   38.8984   34.1429   36.7633 H   0  0  0  0  0  0  0  0  0  0  0  0
   39.3179   32.6037   37.5815 H   0  0  0  0  0  0  0  0  0  0  0  0
   37.5994   34.8593   38.4944 H   0  0  0  0  0  0  0  0  0  0  0  0
   37.5580   33.1163   38.9371 H   0  0  0  0  0  0  0  0  0  0  0  0
   39.3713   35.3085   40.0536 H   0  0  0  0  0  0  0  0  0  0  0  0
   38.2160   34.2900   40.9453 H   0  0  0  0  0  0  0  0  0  0  0  0
   40.4651   33.2787   41.2787 H   0  0  0  0  0  0  0  0  0  0  0  0
   37.9196   32.6876   41.5415 H   0  0  0  0  0  0  0  0  0  0  0  0
   36.7222   30.5728   41.7678 H   0  0  0  0  0  0  0  0  0  0  0  0
   37.8661   27.3780   40.0795 H   0  0  0  0  0  0  0  0  0  0  0  0
   36.5946   28.0433   41.1394 H   0  0  0  0  0  0  0  0  0  0  0  0
   42.4379   33.6738   42.1717 H   0  0  0  0  0  0  0  0  0  0  0  0
   40.7656   35.8608   41.0918 H   0  0  0  0  0  0  0  0  0  0  0  0
   41.9908   36.7359   40.7269 H   0  0  0  0  0  0  0  0  0  0  0  0
   42.6392   34.3772   39.0505 H   0  0  0  0  0  0  0  0  0  0  0  0
   47.6544   35.2405   42.6603 H   0  0  0  0  0  0  0  0  0  0  0  0
   45.7937   35.8791   44.2952 H   0  0  0  0  0  0  0  0  0  0  0  0
   48.1909   33.8371   40.8191 H   0  0  0  0  0  0  0  0  0  0  0  0
   46.9687   33.3184   39.6092 H   0  0  0  0  0  0  0  0  0  0  0  0
   47.5704   35.0109   39.6092 H   0  0  0  0  0  0  0  0  0  0  0  0
  1 17  1  0
  1  6  1  0
  2  1  1  0
  3  2  1  0
  3  4  1  0
  4  5  1  0
  5  6  1  0
  7  6  1  0
  7  8  1  0
  8  9  2  0
 10 11  1  0
 10  9  1  0
 12 10  2  0
 13 12  1  0
 13  7  1  0
 14 13  2  0
 15 22  1  0
 16 15  1  0
 17 16  1  0
 17 15  1  0
 18 19  2  0
 19 20  1  0
 21 20  2  0
 22 21  1  0
 23 18  1  0
 23 22  2  0
 24 18  1  0
  1 25  1  6
  2 26  1  0
  2 27  1  0
  3 28  1  0
  3 29  1  0
  4 30  1  0
  4 31  1  0
  5 32  1  0
  5 33  1  0
  6 34  1  1
  8 35  1  0
  9 36  1  0
 11 37  1  0
 11 38  1  0
 15 39  1  1
 16 40  1  0
 16 41  1  0
 17 42  1  6
 19 43  1  0
 20 44  1  0
 24 45  1  0
 24 46  1  0
 24 47  1  0
M  ISO  8  25  13  26  13  27  13  28  13  29  13  30  13  31  13  32  13
M  ISO  8  33  13  34  13  35  14  36  14  39  13  40  13  41  13  42  13
M  ISO  5  43  14  44  14  45   8  46   8  47   8
M  END
>  <minimizedAffinity>  (1) 
-6.23090649

>  <minimizedRMSD>  (1) 
1.43027866

$$$$
