
     RDKit          3D

 46 49  0  0  1  0  0  0  0  0999 V2000
   41.0600   33.6860   39.3800 C   0  0  2  0  0  0  0  0  0  0  0  0
   40.6250   34.3360   38.0970 C   0  0  0  0  0  0  0  0  0  0  0  0
   39.2790   33.9220   37.6120 C   0  0  0  0  0  0  0  0  0  0  0  0
   38.2250   34.1210   38.6670 C   0  0  0  0  0  0  0  0  0  0  0  0
   38.8740   34.4980   39.9930 C   0  0  0  0  0  0  0  0  0  0  0  0
   39.9020   33.4200   40.2270 C   0  0  1  0  0  0  0  0  0  0  0  0
   39.3240   32.0640   40.1130 C   0  0  0  0  0  0  0  0  0  0  0  0
   38.2520   31.8200   40.9900 C   0  0  0  0  0  0  0  0  0  0  0  0
   37.5680   30.6010   41.0660 C   0  0  0  0  0  0  0  0  0  0  0  0
   37.9520   29.5670   40.2430 C   0  0  0  0  0  0  0  0  0  0  0  0
   38.9970   29.7630   39.3690 C   0  0  0  0  0  0  0  0  0  0  0  0
   39.6420   30.9780   39.3270 C   0  0  0  0  0  0  0  0  0  0  0  0
   42.5750   34.3650   41.4220 C   0  0  1  0  0  0  0  0  0  0  0  0
   41.7580   35.6160   41.0040 C   0  0  0  0  0  0  0  0  0  0  0  0
   42.0810   34.5720   40.0790 C   0  0  2  0  0  0  0  0  0  0  0  0
   46.2350   34.5230   41.1500 C   0  0  0  0  0  0  0  0  0  0  0  0
   46.6280   35.0750   42.3750 C   0  0  0  0  0  0  0  0  0  0  0  0
   45.5930   35.4170   43.3090 C   0  0  0  0  0  0  0  0  0  0  0  0
   44.3040   35.1870   42.9550 N   0  0  0  0  0  0  0  0  0  0  0  0
   43.9890   34.6540   41.7660 C   0  0  0  0  0  0  0  0  0  0  0  0
   44.9400   34.3110   40.8370 N   0  0  0  0  0  0  0  0  0  0  0  0
   47.3090   34.1570   40.2170 C   0  0  0  0  0  0  0  0  0  0  0  0
   41.5386   32.7194   39.1641 H   0  0  0  0  0  0  0  0  0  0  0  0
   40.6128   35.4249   38.2521 H   0  0  0  0  0  0  0  0  0  0  0  0
   41.3433   34.0150   37.3282 H   0  0  0  0  0  0  0  0  0  0  0  0
   39.0176   34.5227   36.7284 H   0  0  0  0  0  0  0  0  0  0  0  0
   39.3176   32.8515   37.3618 H   0  0  0  0  0  0  0  0  0  0  0  0
   37.5443   34.9262   38.3535 H   0  0  0  0  0  0  0  0  0  0  0  0
   37.6634   33.1839   38.7953 H   0  0  0  0  0  0  0  0  0  0  0  0
   39.3540   35.4854   39.9247 H   0  0  0  0  0  0  0  0  0  0  0  0
   38.1438   34.5663   40.8129 H   0  0  0  0  0  0  0  0  0  0  0  0
   40.2592   33.4455   41.2671 H   0  0  0  0  0  0  0  0  0  0  0  0
   37.9321   32.6353   41.6556 H   0  0  0  0  0  0  0  0  0  0  0  0
   36.7356   30.4715   41.7733 H   0  0  0  0  0  0  0  0  0  0  0  0
   37.4317   28.5987   40.2831 H   0  0  0  0  0  0  0  0  0  0  0  0
   39.3169   28.9477   38.7034 H   0  0  0  0  0  0  0  0  0  0  0  0
   40.4720   31.0903   38.6139 H   0  0  0  0  0  0  0  0  0  0  0  0
   42.5128   33.5260   42.1306 H   0  0  0  0  0  0  0  0  0  0  0  0
   40.7238   35.7474   41.3551 H   0  0  0  0  0  0  0  0  0  0  0  0
   41.9026   36.7056   41.0482 H   0  0  0  0  0  0  0  0  0  0  0  0
   42.5708   34.5686   39.0941 H   0  0  0  0  0  0  0  0  0  0  0  0
   47.6892   35.2403   42.6127 H   0  0  0  0  0  0  0  0  0  0  0  0
   45.8392   35.8548   44.2876 H   0  0  0  0  0  0  0  0  0  0  0  0
   48.2006   33.8532   40.7852 H   0  0  0  0  0  0  0  0  0  0  0  0
   46.9756   33.3217   39.5836 H   0  0  0  0  0  0  0  0  0  0  0  0
   47.5550   35.0220   39.5836 H   0  0  0  0  0  0  0  0  0  0  0  0
  1 15  1  0
  1  6  1  0
  2  1  1  0
  3  2  1  0
  3  4  1  0
  4  5  1  0
  5  6  1  0
  7  6  1  0
  7  8  2  0
  8  9  1  0
 10  9  2  0
 11 10  1  0
 12 11  2  0
 12  7  1  0
 13 20  1  0
 14 13  1  0
 15 14  1  0
 15 13  1  0
 16 17  2  0
 17 18  1  0
 19 18  2  0
 20 19  1  0
 21 16  1  0
 21 20  2  0
 22 16  1  0
  1 23  1  6
  2 24  1  0
  2 25  1  0
  3 26  1  0
  3 27  1  0
  4 28  1  0
  4 29  1  0
  5 30  1  0
  5 31  1  0
  6 32  1  1
  8 33  1  0
  9 34  1  0
 10 35  1  0
 11 36  1  0
 12 37  1  0
 13 38  1  1
 14 39  1  0
 14 40  1  0
 15 41  1  6
 17 42  1  0
 18 43  1  0
 22 44  1  0
 22 45  1  0
 22 46  1  0
M  ISO  8  23  13  24  13  25  13  26  13  27  13  28  13  29  13  30  13
M  ISO  8  31  13  32  13  33  14  34  14  35  14  36  14  37  14  38  13
M  ISO  8  39  13  40  13  41  13  42  14  43  14  44   8  45   8  46   8
M  END
>  <minimizedAffinity>  (1) 
-6.23074436

>  <minimizedRMSD>  (1) 
1.1081183

$$$$
