
     RDKit          3D

 45 48  0  0  1  0  0  0  0  0999 V2000
   41.0350   33.6380   39.3970 C   0  0  2  0  0  0  0  0  0  0  0  0
   40.6180   34.2630   38.0930 C   0  0  0  0  0  0  0  0  0  0  0  0
   39.2680   33.8430   37.6070 C   0  0  0  0  0  0  0  0  0  0  0  0
   38.2120   34.1220   38.6260 C   0  0  0  0  0  0  0  0  0  0  0  0
   38.8380   34.4630   39.9790 C   0  0  0  0  0  0  0  0  0  0  0  0
   39.8480   33.4560   40.2600 C   0  0  1  0  0  0  0  0  0  0  0  0
   42.5450   34.3750   41.4330 C   0  0  1  0  0  0  0  0  0  0  0  0
   41.7330   35.6100   40.9680 C   0  0  0  0  0  0  0  0  0  0  0  0
   42.0580   34.5320   40.0830 C   0  0  2  0  0  0  0  0  0  0  0  0
   46.2080   34.5290   41.1600 C   0  0  0  0  0  0  0  0  0  0  0  0
   46.5910   35.1030   42.4020 C   0  0  0  0  0  0  0  0  0  0  0  0
   45.5580   35.4500   43.3110 C   0  0  0  0  0  0  0  0  0  0  0  0
   44.2740   35.2160   42.9450 N   0  0  0  0  0  0  0  0  0  0  0  0
   43.9660   34.6690   41.7610 C   0  0  0  0  0  0  0  0  0  0  0  0
   44.9190   34.3140   40.8390 N   0  0  0  0  0  0  0  0  0  0  0  0
   47.2890   34.1540   40.2150 C   0  0  0  0  0  0  0  0  0  0  0  0
   39.3520   32.0680   40.2190 C   0  0  0  0  0  0  0  0  0  0  0  0
   38.2410   31.7540   41.0220 C   0  0  0  0  0  0  0  0  0  0  0  0
   37.6040   30.5070   41.1290 C   0  0  0  0  0  0  0  0  0  0  0  0
   38.1110   29.4760   40.3740 C   0  0  0  0  0  0  0  0  0  0  0  0
   39.1950   29.7660   39.5850 C   0  0  0  0  0  0  0  0  0  0  0  0
   39.7110   30.9670   39.5610 N   0  0  0  0  0  0  0  0  0  0  0  0
   41.4907   32.6546   39.2093 H   0  0  0  0  0  0  0  0  0  0  0  0
   40.6120   35.3554   38.2222 H   0  0  0  0  0  0  0  0  0  0  0  0
   41.3418   33.9227   37.3378 H   0  0  0  0  0  0  0  0  0  0  0  0
   39.0313   34.3953   36.6856 H   0  0  0  0  0  0  0  0  0  0  0  0
   39.2893   32.7596   37.4175 H   0  0  0  0  0  0  0  0  0  0  0  0
   37.6001   34.9712   38.2877 H   0  0  0  0  0  0  0  0  0  0  0  0
   37.5891   33.2229   38.7428 H   0  0  0  0  0  0  0  0  0  0  0  0
   39.3025   35.4593   39.9374 H   0  0  0  0  0  0  0  0  0  0  0  0
   38.0720   34.4739   40.7683 H   0  0  0  0  0  0  0  0  0  0  0  0
   40.1452   33.6192   41.3065 H   0  0  0  0  0  0  0  0  0  0  0  0
   42.4763   33.5669   42.1761 H   0  0  0  0  0  0  0  0  0  0  0  0
   40.6978   35.7558   41.3101 H   0  0  0  0  0  0  0  0  0  0  0  0
   41.8793   36.7002   40.9733 H   0  0  0  0  0  0  0  0  0  0  0  0
   42.5569   34.4817   39.1040 H   0  0  0  0  0  0  0  0  0  0  0  0
   47.6493   35.2722   42.6498 H   0  0  0  0  0  0  0  0  0  0  0  0
   45.7933   35.8975   44.2879 H   0  0  0  0  0  0  0  0  0  0  0  0
   48.1800   33.8449   40.7811 H   0  0  0  0  0  0  0  0  0  0  0  0
   46.9498   33.3210   39.5817 H   0  0  0  0  0  0  0  0  0  0  0  0
   47.5385   35.0181   39.5817 H   0  0  0  0  0  0  0  0  0  0  0  0
   37.8272   32.5715   41.6306 H   0  0  0  0  0  0  0  0  0  0  0  0
   36.7361   30.3613   41.7890 H   0  0  0  0  0  0  0  0  0  0  0  0
   37.6695   28.4689   40.4012 H   0  0  0  0  0  0  0  0  0  0  0  0
   39.6375   28.9748   38.9620 H   0  0  0  0  0  0  0  0  0  0  0  0
  1  9  1  0
  1  6  1  0
  2  1  1  0
  3  2  1  0
  3  4  1  0
  4  5  1  0
  5  6  1  0
  7 14  1  0
  8  7  1  0
  9  8  1  0
  9  7  1  0
 10 11  2  0
 11 12  1  0
 13 12  2  0
 14 13  1  0
 15 10  1  0
 15 14  2  0
 16 10  1  0
 17  6  1  0
 17 18  2  0
 18 19  1  0
 20 19  2  0
 21 20  1  0
 22 21  2  0
 22 17  1  0
  1 23  1  6
  2 24  1  0
  2 25  1  0
  3 26  1  0
  3 27  1  0
  4 28  1  0
  4 29  1  0
  5 30  1  0
  5 31  1  0
  6 32  1  1
  7 33  1  1
  8 34  1  0
  8 35  1  0
  9 36  1  6
 11 37  1  0
 12 38  1  0
 16 39  1  0
 16 40  1  0
 16 41  1  0
 18 42  1  0
 19 43  1  0
 20 44  1  0
 21 45  1  0
M  ISO  8  23  13  24  13  25  13  26  13  27  13  28  13  29  13  30  13
M  ISO  8  31  13  32  13  33  13  34  13  35  13  36  13  37  14  38  14
M  ISO  7  39   8  40   8  41   8  42  14  43  14  44  14  45  14
M  END
>  <minimizedAffinity>  (1) 
-6.1069808

>  <minimizedRMSD>  (1) 
1.25155377

$$$$
