
     RDKit          3D

 41 44  0  0  1  0  0  0  0  0999 V2000
   41.1270   33.9120   38.9980 C   0  0  2  0  0  0  0  0  0  0  0  0
   40.2830   34.7970   38.1360 C   0  0  0  0  0  0  0  0  0  0  0  0
   38.9750   34.2300   37.7030 C   0  0  0  0  0  0  0  0  0  0  0  0
   38.1770   33.7080   38.8510 C   0  0  0  0  0  0  0  0  0  0  0  0
   39.0050   33.7050   40.1350 C   0  0  0  0  0  0  0  0  0  0  0  0
   40.2590   33.0520   39.8180 C   0  0  1  0  0  0  0  0  0  0  0  0
   42.4420   34.4160   41.2260 C   0  0  1  0  0  0  0  0  0  0  0  0
   41.5930   35.6660   40.8740 C   0  0  0  0  0  0  0  0  0  0  0  0
   42.0480   34.7490   39.8720 C   0  0  2  0  0  0  0  0  0  0  0  0
   46.1130   34.6440   41.3400 C   0  0  0  0  0  0  0  0  0  0  0  0
   46.3530   35.2430   42.6000 C   0  0  0  0  0  0  0  0  0  0  0  0
   45.2270   35.5770   43.3890 C   0  0  0  0  0  0  0  0  0  0  0  0
   43.9910   35.3050   42.9020 N   0  0  0  0  0  0  0  0  0  0  0  0
   43.8170   34.7350   41.7000 C   0  0  0  0  0  0  0  0  0  0  0  0
   44.8700   34.3910   40.8910 N   0  0  0  0  0  0  0  0  0  0  0  0
   47.2970   34.2800   40.5170 C   0  0  0  0  0  0  0  0  0  0  0  0
   40.0220   31.7540   39.1460 C   0  0  0  0  0  0  0  0  0  0  0  0
   39.3600   30.7980   39.8550 N   0  0  0  0  0  0  0  0  0  0  0  0
   39.2410   29.7330   39.1140 O   0  0  0  0  0  0  0  0  0  0  0  0
   39.7710   29.8860   37.9550 C   0  0  0  0  0  0  0  0  0  0  0  0
   40.2450   31.1260   37.9860 N   0  0  0  0  0  0  0  0  0  0  0  0
   41.7557   33.2728   38.3607 H   0  0  0  0  0  0  0  0  0  0  0  0
   40.0802   35.7205   38.6981 H   0  0  0  0  0  0  0  0  0  0  0  0
   40.8606   34.9506   37.2125 H   0  0  0  0  0  0  0  0  0  0  0  0
   38.3967   35.0187   37.1996 H   0  0  0  0  0  0  0  0  0  0  0  0
   39.1805   33.3883   37.0252 H   0  0  0  0  0  0  0  0  0  0  0  0
   37.2926   34.3462   38.9944 H   0  0  0  0  0  0  0  0  0  0  0  0
   37.8734   32.6748   38.6266 H   0  0  0  0  0  0  0  0  0  0  0  0
   39.1885   34.7364   40.4706 H   0  0  0  0  0  0  0  0  0  0  0  0
   38.4782   33.1797   40.9453 H   0  0  0  0  0  0  0  0  0  0  0  0
   40.7811   32.8621   40.7674 H   0  0  0  0  0  0  0  0  0  0  0  0
   42.3661   33.5063   41.8397 H   0  0  0  0  0  0  0  0  0  0  0  0
   40.5279   35.7087   41.1456 H   0  0  0  0  0  0  0  0  0  0  0  0
   41.6726   36.7493   41.0478 H   0  0  0  0  0  0  0  0  0  0  0  0
   42.6206   34.8721   38.9409 H   0  0  0  0  0  0  0  0  0  0  0  0
   47.3760   35.4413   42.9523 H   0  0  0  0  0  0  0  0  0  0  0  0
   45.3515   36.0470   44.3757 H   0  0  0  0  0  0  0  0  0  0  0  0
   48.1375   34.0216   41.1779 H   0  0  0  0  0  0  0  0  0  0  0  0
   47.0507   33.4161   39.8822 H   0  0  0  0  0  0  0  0  0  0  0  0
   47.5786   35.1331   39.8822 H   0  0  0  0  0  0  0  0  0  0  0  0
   39.8208   29.1603   37.1298 H   0  0  0  0  0  0  0  0  0  0  0  0
  1  6  1  0
  1  9  1  0
  2  1  1  0
  3  2  1  0
  3  4  1  0
  4  5  1  0
  6  5  1  0
  7 14  1  0
  8  7  1  0
  9  8  1  0
  9  7  1  0
 10 11  2  0
 11 12  1  0
 13 12  2  0
 14 13  1  0
 15 10  1  0
 15 14  2  0
 16 10  1  0
 17  6  1  0
 17 18  2  0
 19 18  1  0
 20 21  2  0
 20 19  1  0
 21 17  1  0
  1 22  1  6
  2 23  1  0
  2 24  1  0
  3 25  1  0
  3 26  1  0
  4 27  1  0
  4 28  1  0
  5 29  1  0
  5 30  1  0
  6 31  1  1
  7 32  1  1
  8 33  1  0
  8 34  1  0
  9 35  1  6
 11 36  1  0
 12 37  1  0
 16 38  1  0
 16 39  1  0
 16 40  1  0
 20 41  1  0
M  ISO  8  22  13  23  13  24  13  25  13  26  13  27  13  28  13  29  13
M  ISO  8  30  13  31  13  32  13  33  13  34  13  35  13  36  14  37  14
M  ISO  4  38   8  39   8  40   8  41  14
M  END
>  <minimizedAffinity>  (1) 
-5.67787552

>  <minimizedRMSD>  (1) 
0.170528263

$$$$
