
     RDKit          3D

 43 46  0  0  1  0  0  0  0  0999 V2000
   41.0580   33.8210   39.1730 C   0  0  2  0  0  0  0  0  0  0  0  0
   40.3000   34.6800   38.1950 C   0  0  0  0  0  0  0  0  0  0  0  0
   38.9820   34.1050   37.7730 C   0  0  0  0  0  0  0  0  0  0  0  0
   38.0900   33.9830   38.9680 C   0  0  0  0  0  0  0  0  0  0  0  0
   38.8920   33.8940   40.2580 C   0  0  0  0  0  0  0  0  0  0  0  0
   40.1020   33.1460   40.0660 C   0  0  1  0  0  0  0  0  0  0  0  0
   42.4150   34.4530   41.3450 C   0  0  1  0  0  0  0  0  0  0  0  0
   41.6130   35.7030   40.9040 C   0  0  0  0  0  0  0  0  0  0  0  0
   42.0170   34.6900   39.9740 C   0  0  2  0  0  0  0  0  0  0  0  0
   46.0960   34.6360   41.3580 C   0  0  0  0  0  0  0  0  0  0  0  0
   46.3750   35.2320   42.5990 C   0  0  0  0  0  0  0  0  0  0  0  0
   45.2760   35.5830   43.4260 C   0  0  0  0  0  0  0  0  0  0  0  0
   44.0230   35.3250   42.9720 N   0  0  0  0  0  0  0  0  0  0  0  0
   43.8140   34.7520   41.7730 C   0  0  0  0  0  0  0  0  0  0  0  0
   44.8360   34.4010   40.9510 N   0  0  0  0  0  0  0  0  0  0  0  0
   47.2510   34.2590   40.5020 C   0  0  0  0  0  0  0  0  0  0  0  0
   39.7860   31.7150   39.6550 C   0  0  0  0  0  0  0  0  0  0  0  0
   38.8740   31.0100   40.3590 C   0  0  0  0  0  0  0  0  0  0  0  0
   38.5200   29.7390   40.0400 C   0  0  0  0  0  0  0  0  0  0  0  0
   39.1770   29.2300   38.9270 C   0  0  0  0  0  0  0  0  0  0  0  0
   40.2930   30.6710   38.4100 S   0  0  0  0  0  0  0  0  0  0  0  0
   41.6407   33.0597   38.6337 H   0  0  0  0  0  0  0  0  0  0  0  0
   40.1166   35.6582   38.6635 H   0  0  0  0  0  0  0  0  0  0  0  0
   40.9198   34.7539   37.2892 H   0  0  0  0  0  0  0  0  0  0  0  0
   38.5130   34.7674   37.0306 H   0  0  0  0  0  0  0  0  0  0  0  0
   39.1392   33.1115   37.3277 H   0  0  0  0  0  0  0  0  0  0  0  0
   37.4340   34.8647   39.0155 H   0  0  0  0  0  0  0  0  0  0  0  0
   37.5003   33.0602   38.8648 H   0  0  0  0  0  0  0  0  0  0  0  0
   39.1476   34.9103   40.5925 H   0  0  0  0  0  0  0  0  0  0  0  0
   38.2804   33.3794   41.0138 H   0  0  0  0  0  0  0  0  0  0  0  0
   40.6241   33.0947   41.0329 H   0  0  0  0  0  0  0  0  0  0  0  0
   42.3101   33.6011   42.0329 H   0  0  0  0  0  0  0  0  0  0  0  0
   40.5545   35.8110   41.1830 H   0  0  0  0  0  0  0  0  0  0  0  0
   41.7383   36.7925   40.9891 H   0  0  0  0  0  0  0  0  0  0  0  0
   42.5795   34.7147   39.0290 H   0  0  0  0  0  0  0  0  0  0  0  0
   47.4104   35.4204   42.9192 H   0  0  0  0  0  0  0  0  0  0  0  0
   45.4354   36.0515   44.4084 H   0  0  0  0  0  0  0  0  0  0  0  0
   48.1038   33.9806   41.1386 H   0  0  0  0  0  0  0  0  0  0  0  0
   46.9733   33.4048   39.8669 H   0  0  0  0  0  0  0  0  0  0  0  0
   47.5307   35.1125   39.8669 H   0  0  0  0  0  0  0  0  0  0  0  0
   38.3975   31.4865   41.2285 H   0  0  0  0  0  0  0  0  0  0  0  0
   37.7782   29.1628   40.6125 H   0  0  0  0  0  0  0  0  0  0  0  0
   39.0749   28.2383   38.4621 H   0  0  0  0  0  0  0  0  0  0  0  0
  1  9  1  0
  1  6  1  0
  2  1  1  0
  3  2  1  0
  3  4  1  0
  4  5  1  0
  6  5  1  0
  7 14  1  0
  8  7  1  0
  9  8  1  0
  9  7  1  0
 10 11  2  0
 11 12  1  0
 13 12  2  0
 14 13  1  0
 15 10  1  0
 15 14  2  0
 16 10  1  0
 17  6  1  0
 17 18  2  0
 19 18  1  0
 20 19  2  0
 21 20  1  0
 21 17  1  0
  1 22  1  6
  2 23  1  0
  2 24  1  0
  3 25  1  0
  3 26  1  0
  4 27  1  0
  4 28  1  0
  5 29  1  0
  5 30  1  0
  6 31  1  1
  7 32  1  1
  8 33  1  0
  8 34  1  0
  9 35  1  6
 11 36  1  0
 12 37  1  0
 16 38  1  0
 16 39  1  0
 16 40  1  0
 18 41  1  0
 19 42  1  0
 20 43  1  0
M  ISO  8  22  13  23  13  24  13  25  13  26  13  27  13  28  13  29  13
M  ISO  8  30  13  31  13  32  13  33  13  34  13  35  13  36  14  37  14
M  ISO  6  38   8  39   8  40   8  41  14  42  14  43  14
M  END
>  <minimizedAffinity>  (1) 
-5.70424747

>  <minimizedRMSD>  (1) 
0.556036353

$$$$
