
     RDKit          3D

 42 45  0  0  1  0  0  0  0  0999 V2000
   41.1720   33.9980   38.9580 C   0  0  2  0  0  0  0  0  0  0  0  0
   40.2930   34.9000   38.1450 C   0  0  0  0  0  0  0  0  0  0  0  0
   39.0240   34.2710   37.6660 C   0  0  0  0  0  0  0  0  0  0  0  0
   38.2120   33.7870   38.8260 C   0  0  0  0  0  0  0  0  0  0  0  0
   39.0630   33.7120   40.0970 C   0  0  0  0  0  0  0  0  0  0  0  0
   40.3290   33.0710   39.7280 C   0  0  1  0  0  0  0  0  0  0  0  0
   42.4710   34.4360   41.2030 C   0  0  1  0  0  0  0  0  0  0  0  0
   41.6130   35.6920   40.8910 C   0  0  0  0  0  0  0  0  0  0  0  0
   42.0790   34.8150   39.8590 C   0  0  2  0  0  0  0  0  0  0  0  0
   46.1430   34.6500   41.3520 C   0  0  0  0  0  0  0  0  0  0  0  0
   46.3720   35.2390   42.6150 C   0  0  0  0  0  0  0  0  0  0  0  0
   45.2320   35.5700   43.4040 C   0  0  0  0  0  0  0  0  0  0  0  0
   44.0060   35.3020   42.9000 N   0  0  0  0  0  0  0  0  0  0  0  0
   43.8380   34.7440   41.7000 C   0  0  0  0  0  0  0  0  0  0  0  0
   44.8960   34.4030   40.8940 N   0  0  0  0  0  0  0  0  0  0  0  0
   47.3290   34.2900   40.5320 C   0  0  0  0  0  0  0  0  0  0  0  0
   40.0780   31.8780   38.9390 N   0  0  0  0  0  0  0  0  0  0  0  0
   40.7520   31.3920   37.8810 C   0  0  0  0  0  0  0  0  0  0  0  0
   40.1980   30.2590   37.4140 N   0  0  0  0  0  0  0  0  0  0  0  0
   39.1380   30.0180   38.2040 C   0  0  0  0  0  0  0  0  0  0  0  0
   39.0830   30.9900   39.1030 N   0  0  0  0  0  0  0  0  0  0  0  0
   41.8211   33.4089   38.2935 H   0  0  0  0  0  0  0  0  0  0  0  0
   40.0313   35.7714   38.7632 H   0  0  0  0  0  0  0  0  0  0  0  0
   40.8674   35.1643   37.2449 H   0  0  0  0  0  0  0  0  0  0  0  0
   38.4420   35.0139   37.1009 H   0  0  0  0  0  0  0  0  0  0  0  0
   39.2712   33.4148   37.0212 H   0  0  0  0  0  0  0  0  0  0  0  0
   37.3749   34.4806   38.9937 H   0  0  0  0  0  0  0  0  0  0  0  0
   37.8364   32.7792   38.5952 H   0  0  0  0  0  0  0  0  0  0  0  0
   39.2511   34.7236   40.4860 H   0  0  0  0  0  0  0  0  0  0  0  0
   38.5470   33.1392   40.8817 H   0  0  0  0  0  0  0  0  0  0  0  0
   40.8545   32.7919   40.6532 H   0  0  0  0  0  0  0  0  0  0  0  0
   42.4005   33.5035   41.7822 H   0  0  0  0  0  0  0  0  0  0  0  0
   40.5465   35.7169   41.1593 H   0  0  0  0  0  0  0  0  0  0  0  0
   41.6835   36.7690   41.1033 H   0  0  0  0  0  0  0  0  0  0  0  0
   42.6520   34.9795   38.9346 H   0  0  0  0  0  0  0  0  0  0  0  0
   47.3923   35.4350   42.9764 H   0  0  0  0  0  0  0  0  0  0  0  0
   45.3464   36.0310   44.3962 H   0  0  0  0  0  0  0  0  0  0  0  0
   48.1692   34.0350   41.1946 H   0  0  0  0  0  0  0  0  0  0  0  0
   47.0870   33.4249   39.8972 H   0  0  0  0  0  0  0  0  0  0  0  0
   47.6087   35.1437   39.8972 H   0  0  0  0  0  0  0  0  0  0  0  0
   41.6474   31.8639   37.4502 H   0  0  0  0  0  0  0  0  0  0  0  0
   38.4432   29.1693   38.1198 H   0  0  0  0  0  0  0  0  0  0  0  0
  1  6  1  0
  1  9  1  0
  2  1  1  0
  3  2  1  0
  3  4  1  0
  4  5  1  0
  6  5  1  0
  7 14  1  0
  8  7  1  0
  9  8  1  0
  9  7  1  0
 10 11  2  0
 11 12  1  0
 13 12  2  0
 14 13  1  0
 15 10  1  0
 15 14  2  0
 16 10  1  0
 17 21  1  0
 17  6  1  0
 18 17  1  0
 19 18  2  0
 19 20  1  0
 20 21  2  0
  1 22  1  6
  2 23  1  0
  2 24  1  0
  3 25  1  0
  3 26  1  0
  4 27  1  0
  4 28  1  0
  5 29  1  0
  5 30  1  0
  6 31  1  1
  7 32  1  1
  8 33  1  0
  8 34  1  0
  9 35  1  6
 11 36  1  0
 12 37  1  0
 16 38  1  0
 16 39  1  0
 16 40  1  0
 18 41  1  0
 20 42  1  0
M  ISO  8  22  13  23  13  24  13  25  13  26  13  27  13  28  13  29  13
M  ISO  8  30  13  31  13  32  13  33  13  34  13  35  13  36  14  37  14
M  ISO  5  38   8  39   8  40   8  41  14  42  14
M  END
>  <minimizedAffinity>  (1) 
-5.69044542

>  <minimizedRMSD>  (1) 
0.110276729

$$$$
