
     RDKit          3D

 39 41  0  0  1  0  0  0  0  0999 V2000
   42.4620   34.4320   41.2040 C   0  0  1  0  0  0  0  0  0  0  0  0
   41.5860   35.6730   40.8920 C   0  0  0  0  0  0  0  0  0  0  0  0
   42.0540   34.7830   39.8680 C   0  0  2  0  0  0  0  0  0  0  0  0
   41.1620   33.9550   38.9790 C   0  0  2  0  0  0  0  0  0  0  0  0
   40.2600   34.8650   38.1690 C   0  0  0  0  0  0  0  0  0  0  0  0
   39.0310   34.1630   37.6740 C   0  0  0  0  0  0  0  0  0  0  0  0
   38.2060   33.7230   38.8440 C   0  0  0  0  0  0  0  0  0  0  0  0
   39.0570   33.6440   40.1170 C   0  0  0  0  0  0  0  0  0  0  0  0
   40.3460   33.0040   39.7510 C   0  0  1  0  0  0  0  0  0  0  0  0
   40.1730   31.7340   38.9750 C   0  0  0  0  0  0  0  0  0  0  0  0
   46.1260   34.6630   41.3600 C   0  0  0  0  0  0  0  0  0  0  0  0
   46.3610   35.2530   42.6070 C   0  0  0  0  0  0  0  0  0  0  0  0
   45.2140   35.5940   43.4000 C   0  0  0  0  0  0  0  0  0  0  0  0
   43.9790   35.3230   42.8910 N   0  0  0  0  0  0  0  0  0  0  0  0
   43.8240   34.7590   41.6930 C   0  0  0  0  0  0  0  0  0  0  0  0
   44.8900   34.4170   40.9010 N   0  0  0  0  0  0  0  0  0  0  0  0
   47.3220   34.3020   40.5520 C   0  0  0  0  0  0  0  0  0  0  0  0
   42.4107   33.5032   41.7911 H   0  0  0  0  0  0  0  0  0  0  0  0
   40.5225   35.6886   41.1727 H   0  0  0  0  0  0  0  0  0  0  0  0
   41.6442   36.7535   41.0896 H   0  0  0  0  0  0  0  0  0  0  0  0
   42.6170   34.9364   38.9355 H   0  0  0  0  0  0  0  0  0  0  0  0
   41.8082   33.3714   38.3068 H   0  0  0  0  0  0  0  0  0  0  0  0
   39.9525   35.7108   38.8015 H   0  0  0  0  0  0  0  0  0  0  0  0
   40.8286   35.2029   37.2901 H   0  0  0  0  0  0  0  0  0  0  0  0
   38.4430   34.8498   37.0475 H   0  0  0  0  0  0  0  0  0  0  0  0
   39.3230   33.2853   37.0787 H   0  0  0  0  0  0  0  0  0  0  0  0
   37.3903   34.4442   39.0007 H   0  0  0  0  0  0  0  0  0  0  0  0
   37.8003   32.7230   38.6308 H   0  0  0  0  0  0  0  0  0  0  0  0
   39.2378   34.6547   40.5116 H   0  0  0  0  0  0  0  0  0  0  0  0
   38.5406   33.0606   40.8936 H   0  0  0  0  0  0  0  0  0  0  0  0
   40.8519   32.7334   40.6895 H   0  0  0  0  0  0  0  0  0  0  0  0
   40.0582   30.8910   39.6723 H   0  0  0  0  0  0  0  0  0  0  0  0
   39.2770   31.8105   38.3415 H   0  0  0  0  0  0  0  0  0  0  0  0
   41.0568   31.5681   38.3415 H   0  0  0  0  0  0  0  0  0  0  0  0
   47.3828   35.4475   42.9649 H   0  0  0  0  0  0  0  0  0  0  0  0
   45.3285   36.0604   44.3896 H   0  0  0  0  0  0  0  0  0  0  0  0
   48.1559   34.0503   41.2237 H   0  0  0  0  0  0  0  0  0  0  0  0
   47.0876   33.4346   39.9175 H   0  0  0  0  0  0  0  0  0  0  0  0
   47.6067   35.1542   39.9175 H   0  0  0  0  0  0  0  0  0  0  0  0
  1 15  1  0
  2  1  1  0
  3  2  1  0
  3  1  1  0
  4  9  1  0
  4  3  1  0
  5  4  1  0
  6  5  1  0
  6  7  1  0
  7  8  1  0
  9  8  1  0
 10  9  1  0
 11 12  2  0
 12 13  1  0
 14 13  2  0
 15 14  1  0
 16 11  1  0
 16 15  2  0
 17 11  1  0
  1 18  1  1
  2 19  1  0
  2 20  1  0
  3 21  1  6
  4 22  1  6
  5 23  1  0
  5 24  1  0
  6 25  1  0
  6 26  1  0
  7 27  1  0
  7 28  1  0
  8 29  1  0
  8 30  1  0
  9 31  1  1
 10 32  1  0
 10 33  1  0
 10 34  1  0
 12 35  1  0
 13 36  1  0
 17 37  1  0
 17 38  1  0
 17 39  1  0
M  ISO  8  18  13  19  13  20  13  21  13  22  13  23  13  24  13  25  13
M  ISO  8  26  13  27  13  28  13  29  13  30  13  31  13  32   8  33   8
M  ISO  6  34   8  35  14  36  14  37   8  38   8  39   8
M  END
>  <minimizedAffinity>  (1) 
-5.47436714

>  <minimizedRMSD>  (1) 
0.051409591

$$$$
