
     RDKit          3D

 48 51  0  0  1  0  0  0  0  0999 V2000
   41.0470   33.5830   39.3710 C   0  0  2  0  0  0  0  0  0  0  0  0
   40.4730   34.1850   38.1310 C   0  0  0  0  0  0  0  0  0  0  0  0
   39.1340   33.5920   37.7590 C   0  0  0  0  0  0  0  0  0  0  0  0
   38.1490   33.9170   38.8620 C   0  0  0  0  0  0  0  0  0  0  0  0
   38.8610   34.2060   40.1850 C   0  0  0  0  0  0  0  0  0  0  0  0
   39.9520   33.2560   40.3230 C   0  0  1  0  0  0  0  0  0  0  0  0
   42.4130   34.5440   41.4060 C   0  0  1  0  0  0  0  0  0  0  0  0
   41.7370   35.7250   40.6590 C   0  0  0  0  0  0  0  0  0  0  0  0
   42.0710   34.4940   39.9960 C   0  0  2  0  0  0  0  0  0  0  0  0
   46.0930   34.6390   41.3740 C   0  0  0  0  0  0  0  0  0  0  0  0
   46.4080   35.2330   42.6100 C   0  0  0  0  0  0  0  0  0  0  0  0
   45.3150   35.6120   43.4560 C   0  0  0  0  0  0  0  0  0  0  0  0
   44.0560   35.3750   43.0160 N   0  0  0  0  0  0  0  0  0  0  0  0
   43.8120   34.8090   41.8340 C   0  0  0  0  0  0  0  0  0  0  0  0
   44.8180   34.4260   40.9810 N   0  0  0  0  0  0  0  0  0  0  0  0
   47.2270   34.2350   40.5000 C   0  0  0  0  0  0  0  0  0  0  0  0
   39.4230   31.9330   40.0430 N   0  0  0  0  0  0  0  0  0  0  0  0
   38.5100   31.5240   41.0880 C   0  0  0  0  0  0  0  0  0  0  0  0
   39.0420   30.2000   41.6080 C   0  0  0  0  0  0  0  0  0  0  0  0
   39.7330   29.6720   40.3640 C   0  0  0  0  0  0  0  0  0  0  0  0
   40.4300   30.9350   39.8880 C   0  0  0  0  0  0  0  0  0  0  0  0
   41.5681   32.6513   39.1056 H   0  0  0  0  0  0  0  0  0  0  0  0
   40.3466   35.2660   38.2909 H   0  0  0  0  0  0  0  0  0  0  0  0
   41.1698   33.9736   37.3065 H   0  0  0  0  0  0  0  0  0  0  0  0
   38.7859   34.0250   36.8096 H   0  0  0  0  0  0  0  0  0  0  0  0
   39.2220   32.5023   37.6375 H   0  0  0  0  0  0  0  0  0  0  0  0
   37.5651   34.8023   38.5699 H   0  0  0  0  0  0  0  0  0  0  0  0
   37.4941   33.0451   39.0067 H   0  0  0  0  0  0  0  0  0  0  0  0
   39.2575   35.2320   40.1795 H   0  0  0  0  0  0  0  0  0  0  0  0
   38.1595   34.1081   41.0266 H   0  0  0  0  0  0  0  0  0  0  0  0
   40.3675   33.2972   41.3407 H   0  0  0  0  0  0  0  0  0  0  0  0
   42.2150   33.8803   42.2605 H   0  0  0  0  0  0  0  0  0  0  0  0
   40.6861   35.9806   40.8596 H   0  0  0  0  0  0  0  0  0  0  0  0
   41.9584   36.7912   40.5032 H   0  0  0  0  0  0  0  0  0  0  0  0
   42.6640   34.2433   39.1041 H   0  0  0  0  0  0  0  0  0  0  0  0
   47.4517   35.3999   42.9148 H   0  0  0  0  0  0  0  0  0  0  0  0
   45.4934   36.0818   44.4345 H   0  0  0  0  0  0  0  0  0  0  0  0
   48.0805   33.9309   41.1238 H   0  0  0  0  0  0  0  0  0  0  0  0
   46.9181   33.3916   39.8650 H   0  0  0  0  0  0  0  0  0  0  0  0
   47.5209   35.0837   39.8650 H   0  0  0  0  0  0  0  0  0  0  0  0
   38.4907   32.2722   41.8942 H   0  0  0  0  0  0  0  0  0  0  0  0
   37.4811   31.4268   40.7113 H   0  0  0  0  0  0  0  0  0  0  0  0
   39.7513   30.3445   42.4362 H   0  0  0  0  0  0  0  0  0  0  0  0
   38.2758   29.5304   42.0260 H   0  0  0  0  0  0  0  0  0  0  0  0
   40.4525   28.8754   40.6045 H   0  0  0  0  0  0  0  0  0  0  0  0
   39.0628   29.2082   39.6253 H   0  0  0  0  0  0  0  0  0  0  0  0
   40.7384   30.8442   38.8360 H   0  0  0  0  0  0  0  0  0  0  0  0
   41.3519   31.1583   40.4449 H   0  0  0  0  0  0  0  0  0  0  0  0
  1  9  1  0
  1  6  1  0
  2  1  1  0
  3  2  1  0
  3  4  1  0
  4  5  1  0
  5  6  1  0
  7 14  1  0
  8  7  1  0
  9  8  1  0
  9  7  1  0
 10 11  2  0
 11 12  1  0
 13 12  2  0
 14 13  1  0
 15 10  1  0
 15 14  2  0
 16 10  1  0
 17  6  1  0
 17 18  1  0
 18 19  1  0
 20 19  1  0
 21 17  1  0
 21 20  1  0
  1 22  1  6
  2 23  1  0
  2 24  1  0
  3 25  1  0
  3 26  1  0
  4 27  1  0
  4 28  1  0
  5 29  1  0
  5 30  1  0
  6 31  1  1
  7 32  1  1
  8 33  1  0
  8 34  1  0
  9 35  1  6
 11 36  1  0
 12 37  1  0
 16 38  1  0
 16 39  1  0
 16 40  1  0
 18 41  1  0
 18 42  1  0
 19 43  1  0
 19 44  1  0
 20 45  1  0
 20 46  1  0
 21 47  1  0
 21 48  1  0
M  ISO  8  22  13  23  13  24  13  25  13  26  13  27  13  28  13  29  13
M  ISO  8  30  13  31  13  32  13  33  13  34  13  35  13  36  14  37  14
M  ISO  8  38   8  39   8  40   8  41  13  42  13  43  13  44  13  45  13
M  ISO  3  46  13  47  13  48  13
M  END
>  <minimizedAffinity>  (1) 
-5.65562963

>  <minimizedRMSD>  (1) 
1.76539099

$$$$
