
     RDKit          3D

 39 41  0  0  1  0  0  0  0  0999 V2000
   41.1000   33.8410   39.1380 C   0  0  2  0  0  0  0  0  0  0  0  0
   40.3000   34.7190   38.2180 C   0  0  0  0  0  0  0  0  0  0  0  0
   38.9910   34.1390   37.7820 C   0  0  0  0  0  0  0  0  0  0  0  0
   38.1440   33.7890   38.9500 C   0  0  0  0  0  0  0  0  0  0  0  0
   38.9650   33.7890   40.2410 C   0  0  0  0  0  0  0  0  0  0  0  0
   40.2070   33.0470   39.9800 C   0  0  1  0  0  0  0  0  0  0  0  0
   42.4310   34.4400   41.3320 C   0  0  1  0  0  0  0  0  0  0  0  0
   41.5970   35.6850   40.9340 C   0  0  0  0  0  0  0  0  0  0  0  0
   42.0220   34.6990   39.9910 C   0  0  2  0  0  0  0  0  0  0  0  0
   46.1150   34.6480   41.3610 C   0  0  0  0  0  0  0  0  0  0  0  0
   46.3790   35.2430   42.6090 C   0  0  0  0  0  0  0  0  0  0  0  0
   45.2690   35.5870   43.4290 C   0  0  0  0  0  0  0  0  0  0  0  0
   44.0160   35.3210   42.9600 N   0  0  0  0  0  0  0  0  0  0  0  0
   43.8190   34.7530   41.7660 C   0  0  0  0  0  0  0  0  0  0  0  0
   44.8610   34.4060   40.9430 N   0  0  0  0  0  0  0  0  0  0  0  0
   47.2760   34.2900   40.5210 C   0  0  0  0  0  0  0  0  0  0  0  0
   40.0700   31.6000   39.6950 C   0  0  0  0  0  0  0  0  0  0  0  0
   38.7720   31.2490   40.1030 F   0  0  0  0  0  0  0  0  0  0  0  0
   40.0700   31.3040   38.3390 F   0  0  0  0  0  0  0  0  0  0  0  0
   40.8960   30.7190   40.2680 F   0  0  0  0  0  0  0  0  0  0  0  0
   41.7128   33.1506   38.5398 H   0  0  0  0  0  0  0  0  0  0  0  0
   40.0985   35.6670   38.7383 H   0  0  0  0  0  0  0  0  0  0  0  0
   40.9029   34.8454   37.3067 H   0  0  0  0  0  0  0  0  0  0  0  0
   38.4603   34.8765   37.1620 H   0  0  0  0  0  0  0  0  0  0  0  0
   39.1899   33.2218   37.2083 H   0  0  0  0  0  0  0  0  0  0  0  0
   37.3323   34.5260   39.0397 H   0  0  0  0  0  0  0  0  0  0  0  0
   37.7329   32.7805   38.7956 H   0  0  0  0  0  0  0  0  0  0  0  0
   39.2006   34.8224   40.5353 H   0  0  0  0  0  0  0  0  0  0  0  0
   38.3988   33.3179   41.0580 H   0  0  0  0  0  0  0  0  0  0  0  0
   40.7360   32.9320   40.9376 H   0  0  0  0  0  0  0  0  0  0  0  0
   42.3518   33.5655   41.9946 H   0  0  0  0  0  0  0  0  0  0  0  0
   40.5380   35.7626   41.2214 H   0  0  0  0  0  0  0  0  0  0  0  0
   41.6946   36.7752   41.0428 H   0  0  0  0  0  0  0  0  0  0  0  0
   42.5825   34.7497   39.0459 H   0  0  0  0  0  0  0  0  0  0  0  0
   47.4104   35.4357   42.9394 H   0  0  0  0  0  0  0  0  0  0  0  0
   45.4168   36.0544   44.4137 H   0  0  0  0  0  0  0  0  0  0  0  0
   48.1278   34.0273   41.1655 H   0  0  0  0  0  0  0  0  0  0  0  0
   47.0178   33.4298   39.8859 H   0  0  0  0  0  0  0  0  0  0  0  0
   47.5471   35.1463   39.8859 H   0  0  0  0  0  0  0  0  0  0  0  0
  1  6  1  0
  1  9  1  0
  2  1  1  0
  3  2  1  0
  3  4  1  0
  4  5  1  0
  6  5  1  0
  7 14  1  0
  8  7  1  0
  9  8  1  0
  9  7  1  0
 10 11  2  0
 11 12  1  0
 13 12  2  0
 14 13  1  0
 15 10  1  0
 15 14  2  0
 16 10  1  0
 17  6  1  0
 17 18  1  0
 17 20  1  0
 19 17  1  0
  1 21  1  6
  2 22  1  0
  2 23  1  0
  3 24  1  0
  3 25  1  0
  4 26  1  0
  4 27  1  0
  5 28  1  0
  5 29  1  0
  6 30  1  1
  7 31  1  1
  8 32  1  0
  8 33  1  0
  9 34  1  6
 11 35  1  0
 12 36  1  0
 16 37  1  0
 16 38  1  0
 16 39  1  0
M  ISO  8  21  13  22  13  23  13  24  13  25  13  26  13  27  13  28  13
M  ISO  8  29  13  30  13  31  13  32  13  33  13  34  13  35  14  36  14
M  ISO  3  37   8  38   8  39   8
M  END
>  <minimizedAffinity>  (1) 
-5.61289263

>  <minimizedRMSD>  (1) 
0.20380345

$$$$
