
     RDKit          3D

 48 51  0  0  1  0  0  0  0  0999 V2000
   41.1760   33.8500   39.4350 C   0  0  2  0  0  0  0  0  0  0  0  0
   40.1830   34.7850   38.7780 C   0  0  0  0  0  0  0  0  0  0  0  0
   38.8620   34.1110   38.5110 C   0  0  0  0  0  0  0  0  0  0  0  0
   38.2480   33.7090   39.8060 C   0  0  0  0  0  0  0  0  0  0  0  0
   39.2990   33.5900   40.9040 C   0  0  0  0  0  0  0  0  0  0  0  0
   40.4770   32.9450   40.3450 C   0  0  1  0  0  0  0  0  0  0  0  0
   42.7600   34.3510   41.4600 C   0  0  1  0  0  0  0  0  0  0  0  0
   42.0130   35.6730   41.0660 C   0  0  0  0  0  0  0  0  0  0  0  0
   42.2490   34.6330   40.1510 C   0  0  2  0  0  0  0  0  0  0  0  0
   46.4240   34.4560   41.0730 C   0  0  0  0  0  0  0  0  0  0  0  0
   46.8620   34.8950   42.3340 C   0  0  0  0  0  0  0  0  0  0  0  0
   45.8670   35.1630   43.3240 C   0  0  0  0  0  0  0  0  0  0  0  0
   44.5660   34.9790   42.9840 N   0  0  0  0  0  0  0  0  0  0  0  0
   44.2060   34.5620   41.7720 C   0  0  0  0  0  0  0  0  0  0  0  0
   45.1150   34.2860   40.7730 N   0  0  0  0  0  0  0  0  0  0  0  0
   47.4630   34.1620   40.0350 C   0  0  0  0  0  0  0  0  0  0  0  0
   40.0870   31.7150   39.6130 C   0  0  0  0  0  0  0  0  0  0  0  0
   39.2740   30.7890   39.8000 O   0  0  0  0  0  0  0  0  0  0  0  0
   40.8320   31.5840   38.4170 O   0  0  0  0  0  0  0  0  0  0  0  0
   40.2310   30.7250   37.3910 C   0  0  0  0  0  0  0  0  0  0  0  0
   38.9570   30.9750   36.9480 C   0  0  0  0  0  0  0  0  0  0  0  0
   38.5140   30.0940   35.9830 C   0  0  0  0  0  0  0  0  0  0  0  0
   39.2830   29.0420   35.4940 C   0  0  0  0  0  0  0  0  0  0  0  0
   40.5660   28.8540   35.9920 C   0  0  0  0  0  0  0  0  0  0  0  0
   40.9900   29.7010   36.9190 N   0  0  0  0  0  0  0  0  0  0  0  0
   41.6704   33.2457   38.6602 H   0  0  0  0  0  0  0  0  0  0  0  0
   40.0143   35.6463   39.4411 H   0  0  0  0  0  0  0  0  0  0  0  0
   40.6034   35.1018   37.8121 H   0  0  0  0  0  0  0  0  0  0  0  0
   38.1922   34.8086   37.9869 H   0  0  0  0  0  0  0  0  0  0  0  0
   39.0209   33.2207   37.8848 H   0  0  0  0  0  0  0  0  0  0  0  0
   37.5058   34.4655   40.1008 H   0  0  0  0  0  0  0  0  0  0  0  0
   37.7710   32.7266   39.6740 H   0  0  0  0  0  0  0  0  0  0  0  0
   39.5643   34.5913   41.2742 H   0  0  0  0  0  0  0  0  0  0  0  0
   38.9046   32.9957   41.7414 H   0  0  0  0  0  0  0  0  0  0  0  0
   41.1501   32.6805   41.1738 H   0  0  0  0  0  0  0  0  0  0  0  0
   42.6626   33.4993   42.1494 H   0  0  0  0  0  0  0  0  0  0  0  0
   40.9959   35.8698   41.4358 H   0  0  0  0  0  0  0  0  0  0  0  0
   42.2283   36.7506   41.1150 H   0  0  0  0  0  0  0  0  0  0  0  0
   42.7244   34.6107   39.1593 H   0  0  0  0  0  0  0  0  0  0  0  0
   47.9322   35.0276   42.5512 H   0  0  0  0  0  0  0  0  0  0  0  0
   46.1468   35.5077   44.3304 H   0  0  0  0  0  0  0  0  0  0  0  0
   48.4089   33.8943   40.5286 H   0  0  0  0  0  0  0  0  0  0  0  0
   47.1270   33.3237   39.4071 H   0  0  0  0  0  0  0  0  0  0  0  0
   47.6161   35.0521   39.4071 H   0  0  0  0  0  0  0  0  0  0  0  0
   38.3429   31.8045   37.3285 H   0  0  0  0  0  0  0  0  0  0  0  0
   37.5000   30.2302   35.5790 H   0  0  0  0  0  0  0  0  0  0  0  0
   38.8801   28.3684   34.7234 H   0  0  0  0  0  0  0  0  0  0  0  0
   41.2049   28.0345   35.6312 H   0  0  0  0  0  0  0  0  0  0  0  0
  1  9  1  0
  1  6  1  0
  2  1  1  0
  3  2  1  0
  3  4  1  0
  4  5  1  0
  6  5  1  0
  7 14  1  0
  8  7  1  0
  9  8  1  0
  9  7  1  0
 10 11  2  0
 11 12  1  0
 13 12  2  0
 14 13  1  0
 15 10  1  0
 15 14  2  0
 16 10  1  0
 17 18  2  0
 17  6  1  0
 19 17  1  0
 20 19  1  0
 21 20  2  0
 22 21  1  0
 23 22  2  0
 23 24  1  0
 24 25  2  0
 25 20  1  0
  1 26  1  6
  2 27  1  0
  2 28  1  0
  3 29  1  0
  3 30  1  0
  4 31  1  0
  4 32  1  0
  5 33  1  0
  5 34  1  0
  6 35  1  1
  7 36  1  1
  8 37  1  0
  8 38  1  0
  9 39  1  6
 11 40  1  0
 12 41  1  0
 16 42  1  0
 16 43  1  0
 16 44  1  0
 21 45  1  0
 22 46  1  0
 23 47  1  0
 24 48  1  0
M  ISO  8  26  13  27  13  28  13  29  13  30  13  31  13  32  13  33  13
M  ISO  8  34  13  35  13  36  13  37  13  38  13  39  13  40  14  41  14
M  ISO  7  42   8  43   8  44   8  45  14  46  14  47  14  48  14
M  END
>  <minimizedAffinity>  (1) 
-5.6488142

>  <minimizedRMSD>  (1) 
1.10476112

$$$$
