
     RDKit          3D

 50 54  0  0  1  0  0  0  0  0999 V2000
   41.0900   33.8200   39.1490 C   0  0  2  0  0  0  0  0  0  0  0  0
   40.2350   34.6650   38.2390 C   0  0  0  0  0  0  0  0  0  0  0  0
   38.9680   33.9620   37.8290 C   0  0  0  0  0  0  0  0  0  0  0  0
   38.1410   33.6950   39.0370 C   0  0  0  0  0  0  0  0  0  0  0  0
   38.9930   33.7000   40.3010 C   0  0  0  0  0  0  0  0  0  0  0  0
   40.2420   33.0030   40.0140 C   0  0  1  0  0  0  0  0  0  0  0  0
   42.4290   34.4500   41.3080 C   0  0  1  0  0  0  0  0  0  0  0  0
   41.6490   35.7170   40.8140 C   0  0  0  0  0  0  0  0  0  0  0  0
   42.0360   34.6800   39.9490 C   0  0  2  0  0  0  0  0  0  0  0  0
   46.1080   34.6460   41.3490 C   0  0  0  0  0  0  0  0  0  0  0  0
   46.3780   35.2410   42.5930 C   0  0  0  0  0  0  0  0  0  0  0  0
   45.2710   35.5840   43.4090 C   0  0  0  0  0  0  0  0  0  0  0  0
   44.0190   35.3170   42.9450 N   0  0  0  0  0  0  0  0  0  0  0  0
   43.8210   34.7510   41.7610 C   0  0  0  0  0  0  0  0  0  0  0  0
   44.8480   34.3930   40.9140 N   0  0  0  0  0  0  0  0  0  0  0  0
   47.2710   34.2600   40.4890 C   0  0  0  0  0  0  0  0  0  0  0  0
   39.9580   31.7000   39.3590 C   0  0  0  0  0  0  0  0  0  0  0  0
   39.0630   30.8490   39.4390 O   0  0  0  0  0  0  0  0  0  0  0  0
   40.9710   31.3850   38.4300 O   0  0  0  0  0  0  0  0  0  0  0  0
   42.1660   29.0040   34.6660 N   0  0  0  0  0  0  0  0  0  0  0  0
   43.2730   29.3600   35.3690 C   0  0  0  0  0  0  0  0  0  0  0  0
   42.8590   30.0490   36.4500 N   0  0  0  0  0  0  0  0  0  0  0  0
   41.5350   30.1110   36.4070 C   0  0  0  0  0  0  0  0  0  0  0  0
   40.5790   30.6740   37.2240 C   0  0  0  0  0  0  0  0  0  0  0  0
   39.2450   30.5930   36.9460 N   0  0  0  0  0  0  0  0  0  0  0  0
   38.8220   29.9390   35.8320 C   0  0  0  0  0  0  0  0  0  0  0  0
   39.7270   29.3760   35.0090 N   0  0  0  0  0  0  0  0  0  0  0  0
   41.0340   29.4560   35.2820 C   0  0  0  0  0  0  0  0  0  0  0  0
   41.7047   33.1446   38.5358 H   0  0  0  0  0  0  0  0  0  0  0  0
   39.9697   35.5940   38.7650 H   0  0  0  0  0  0  0  0  0  0  0  0
   40.8154   34.8708   37.3276 H   0  0  0  0  0  0  0  0  0  0  0  0
   38.4042   34.5982   37.1309 H   0  0  0  0  0  0  0  0  0  0  0  0
   39.2173   33.0111   37.3354 H   0  0  0  0  0  0  0  0  0  0  0  0
   37.3684   34.4734   39.1221 H   0  0  0  0  0  0  0  0  0  0  0  0
   37.6809   32.7015   38.9312 H   0  0  0  0  0  0  0  0  0  0  0  0
   39.2060   34.7364   40.6019 H   0  0  0  0  0  0  0  0  0  0  0  0
   38.4583   33.1977   41.1206 H   0  0  0  0  0  0  0  0  0  0  0  0
   40.7710   32.8218   40.9613 H   0  0  0  0  0  0  0  0  0  0  0  0
   42.3136   33.6044   42.0020 H   0  0  0  0  0  0  0  0  0  0  0  0
   40.5902   35.8572   41.0771 H   0  0  0  0  0  0  0  0  0  0  0  0
   41.7945   36.8063   40.8612 H   0  0  0  0  0  0  0  0  0  0  0  0
   42.6076   34.6732   39.0092 H   0  0  0  0  0  0  0  0  0  0  0  0
   47.4101   35.4334   42.9213 H   0  0  0  0  0  0  0  0  0  0  0  0
   45.4196   36.0541   44.3924 H   0  0  0  0  0  0  0  0  0  0  0  0
   48.1213   33.9778   41.1273 H   0  0  0  0  0  0  0  0  0  0  0  0
   46.9902   33.4069   39.8539 H   0  0  0  0  0  0  0  0  0  0  0  0
   47.5560   35.1117   39.8539 H   0  0  0  0  0  0  0  0  0  0  0  0
   42.1789   28.4662   33.7877 H   0  0  0  0  0  0  0  0  0  0  0  0
   44.3152   29.1283   35.1042 H   0  0  0  0  0  0  0  0  0  0  0  0
   37.7480   29.8701   35.6044 H   0  0  0  0  0  0  0  0  0  0  0  0
  1  9  1  0
  1  6  1  0
  2  1  1  0
  3  2  1  0
  3  4  1  0
  4  5  1  0
  6  5  1  0
  7 14  1  0
  8  7  1  0
  9  8  1  0
  9  7  1  0
 10 11  2  0
 11 12  1  0
 13 12  2  0
 14 13  1  0
 15 10  1  0
 15 14  2  0
 16 10  1  0
 17 18  2  0
 17  6  1  0
 19 17  1  0
 20 28  1  0
 20 21  1  0
 21 22  2  0
 23 22  1  0
 23 24  2  0
 24 19  1  0
 25 24  1  0
 26 25  2  0
 27 28  2  0
 27 26  1  0
 28 23  1  0
  1 29  1  6
  2 30  1  0
  2 31  1  0
  3 32  1  0
  3 33  1  0
  4 34  1  0
  4 35  1  0
  5 36  1  0
  5 37  1  0
  6 38  1  1
  7 39  1  1
  8 40  1  0
  8 41  1  0
  9 42  1  6
 11 43  1  0
 12 44  1  0
 16 45  1  0
 16 46  1  0
 16 47  1  0
 20 48  1  0
 21 49  1  0
 26 50  1  0
M  ISO  8  29  13  30  13  31  13  32  13  33  13  34  13  35  13  36  13
M  ISO  8  37  13  38  13  39  13  40  13  41  13  42  13  43  14  44  14
M  ISO  6  45   8  46   8  47   8  48   9  49  14  50  14
M  END
>  <minimizedAffinity>  (1) 
-5.88250637

>  <minimizedRMSD>  (1) 
0.900132

$$$$
