
     RDKit          3D

 53 57  0  0  1  0  0  0  0  0999 V2000
   40.9240   33.4410   39.4680 C   0  0  2  0  0  0  0  0  0  0  0  0
   40.4800   33.9310   38.1200 C   0  0  0  0  0  0  0  0  0  0  0  0
   39.1700   33.3260   37.6980 C   0  0  0  0  0  0  0  0  0  0  0  0
   38.0900   33.7600   38.6620 C   0  0  0  0  0  0  0  0  0  0  0  0
   38.7000   34.1670   39.9920 C   0  0  0  0  0  0  0  0  0  0  0  0
   39.7600   33.2360   40.3320 C   0  0  1  0  0  0  0  0  0  0  0  0
   42.2940   34.4220   41.4720 C   0  0  1  0  0  0  0  0  0  0  0  0
   41.5630   35.5990   40.7370 C   0  0  0  0  0  0  0  0  0  0  0  0
   41.9120   34.3990   40.0900 C   0  0  2  0  0  0  0  0  0  0  0  0
   45.9730   34.6240   41.4020 C   0  0  0  0  0  0  0  0  0  0  0  0
   46.2680   35.3170   42.6050 C   0  0  0  0  0  0  0  0  0  0  0  0
   45.1840   35.7150   43.4190 C   0  0  0  0  0  0  0  0  0  0  0  0
   43.9270   35.4120   43.0070 N   0  0  0  0  0  0  0  0  0  0  0  0
   43.6970   34.7610   41.8740 C   0  0  0  0  0  0  0  0  0  0  0  0
   44.7000   34.3400   41.0260 N   0  0  0  0  0  0  0  0  0  0  0  0
   47.1130   34.1830   40.5390 C   0  0  0  0  0  0  0  0  0  0  0  0
   39.2710   31.8390   40.1940 C   0  0  0  0  0  0  0  0  0  0  0  0
   38.1790   31.2700   40.2620 O   0  0  0  0  0  0  0  0  0  0  0  0
   40.3290   30.9740   39.9250 O   0  0  0  0  0  0  0  0  0  0  0  0
   40.4750   29.7370   40.6690 C   0  0  0  0  0  0  0  0  0  0  0  0
   40.5620   28.5640   39.9540 C   0  0  0  0  0  0  0  0  0  0  0  0
   40.6920   27.5340   40.8270 N   0  0  0  0  0  0  0  0  0  0  0  0
   40.6870   28.0520   42.0670 C   0  0  0  0  0  0  0  0  0  0  0  0
   40.7790   27.5510   43.3580 C   0  0  0  0  0  0  0  0  0  0  0  0
   40.7380   28.3840   44.4810 C   0  0  0  0  0  0  0  0  0  0  0  0
   40.5990   29.7630   44.3240 C   0  0  0  0  0  0  0  0  0  0  0  0
   40.5060   30.2710   43.0460 C   0  0  0  0  0  0  0  0  0  0  0  0
   40.5530   29.4160   41.9930 C   0  0  0  0  0  0  0  0  0  0  0  0
   41.4374   32.4759   39.3455 H   0  0  0  0  0  0  0  0  0  0  0  0
   40.3684   35.0246   38.1599 H   0  0  0  0  0  0  0  0  0  0  0  0
   41.2418   33.6324   37.3848 H   0  0  0  0  0  0  0  0  0  0  0  0
   38.9167   33.6674   36.6834 H   0  0  0  0  0  0  0  0  0  0  0  0
   39.2507   32.2290   37.7021 H   0  0  0  0  0  0  0  0  0  0  0  0
   37.5461   34.6158   38.2356 H   0  0  0  0  0  0  0  0  0  0  0  0
   37.4008   32.9189   38.8280 H   0  0  0  0  0  0  0  0  0  0  0  0
   39.1136   35.1832   39.9122 H   0  0  0  0  0  0  0  0  0  0  0  0
   37.9273   34.1514   40.7748 H   0  0  0  0  0  0  0  0  0  0  0  0
   40.0605   33.4159   41.3748 H   0  0  0  0  0  0  0  0  0  0  0  0
   42.1467   33.7281   42.3128 H   0  0  0  0  0  0  0  0  0  0  0  0
   40.5100   35.8264   40.9593 H   0  0  0  0  0  0  0  0  0  0  0  0
   41.7497   36.6709   40.5751 H   0  0  0  0  0  0  0  0  0  0  0  0
   42.4864   34.1872   39.1761 H   0  0  0  0  0  0  0  0  0  0  0  0
   47.3063   35.5369   42.8940 H   0  0  0  0  0  0  0  0  0  0  0  0
   45.3543   36.2560   44.3615 H   0  0  0  0  0  0  0  0  0  0  0  0
   47.9502   33.8591   41.1747 H   0  0  0  0  0  0  0  0  0  0  0  0
   46.7894   33.3452   39.9039 H   0  0  0  0  0  0  0  0  0  0  0  0
   47.4375   35.0205   39.9039 H   0  0  0  0  0  0  0  0  0  0  0  0
   40.5312   28.4765   38.8579 H   0  0  0  0  0  0  0  0  0  0  0  0
   40.7787   26.5369   40.5839 H   0  0  0  0  0  0  0  0  0  0  0  0
   40.8874   26.4659   43.5025 H   0  0  0  0  0  0  0  0  0  0  0  0
   40.8155   27.9510   45.4892 H   0  0  0  0  0  0  0  0  0  0  0  0
   40.5644   30.4289   45.1988 H   0  0  0  0  0  0  0  0  0  0  0  0
   40.3954   31.3531   42.8820 H   0  0  0  0  0  0  0  0  0  0  0  0
  1  9  1  0
  1  6  1  0
  2  1  1  0
  3  2  1  0
  3  4  1  0
  4  5  1  0
  5  6  1  0
  7 14  1  0
  8  7  1  0
  9  8  1  0
  9  7  1  0
 10 11  2  0
 11 12  1  0
 13 12  2  0
 14 13  1  0
 15 10  1  0
 15 14  2  0
 16 10  1  0
 17 18  2  0
 17  6  1  0
 19 17  1  0
 19 20  1  0
 20 28  1  0
 21 20  2  0
 21 22  1  0
 22 23  1  0
 23 24  2  0
 24 25  1  0
 26 25  2  0
 27 26  1  0
 28 23  1  0
 28 27  2  0
  1 29  1  6
  2 30  1  0
  2 31  1  0
  3 32  1  0
  3 33  1  0
  4 34  1  0
  4 35  1  0
  5 36  1  0
  5 37  1  0
  6 38  1  1
  7 39  1  1
  8 40  1  0
  8 41  1  0
  9 42  1  6
 11 43  1  0
 12 44  1  0
 16 45  1  0
 16 46  1  0
 16 47  1  0
 21 48  1  0
 22 49  1  0
 24 50  1  0
 25 51  1  0
 26 52  1  0
 27 53  1  0
M  ISO  8  29  13  30  13  31  13  32  13  33  13  34  13  35  13  36  13
M  ISO  8  37  13  38  13  39  13  40  13  41  13  42  13  43  14  44  14
M  ISO  8  45   8  46   8  47   8  48  14  49   9  50  14  51  14  52  14
M  ISO  1  53  14
M  END
>  <minimizedAffinity>  (1) 
-5.95236254

>  <minimizedRMSD>  (1) 
3.80163479

$$$$
