
     RDKit          3D

 51 54  0  0  1  0  0  0  0  0999 V2000
   41.0740   33.0820   39.5490 C   0  0  2  0  0  0  0  0  0  0  0  0
   40.4750   33.3320   38.1850 C   0  0  0  0  0  0  0  0  0  0  0  0
   39.0330   32.9000   38.1110 C   0  0  0  0  0  0  0  0  0  0  0  0
   38.2280   33.7130   39.0670 C   0  0  0  0  0  0  0  0  0  0  0  0
   39.1100   34.3080   40.1610 C   0  0  0  0  0  0  0  0  0  0  0  0
   40.0660   33.2910   40.5850 C   0  0  1  0  0  0  0  0  0  0  0  0
   42.5510   34.7420   40.9370 C   0  0  1  0  0  0  0  0  0  0  0  0
   42.3380   35.3370   39.5020 C   0  0  0  0  0  0  0  0  0  0  0  0
   42.2830   33.9580   39.7670 C   0  0  2  0  0  0  0  0  0  0  0  0
   46.2070   34.4000   41.2240 C   0  0  0  0  0  0  0  0  0  0  0  0
   46.5020   35.1350   42.3840 C   0  0  0  0  0  0  0  0  0  0  0  0
   45.4210   35.7600   43.0570 C   0  0  0  0  0  0  0  0  0  0  0  0
   44.1710   35.6110   42.5450 N   0  0  0  0  0  0  0  0  0  0  0  0
   43.9470   34.9040   41.4450 C   0  0  0  0  0  0  0  0  0  0  0  0
   44.9480   34.2700   40.7370 N   0  0  0  0  0  0  0  0  0  0  0  0
   47.3380   33.7160   40.5170 C   0  0  0  0  0  0  0  0  0  0  0  0
   39.3620   32.0110   40.8620 C   0  0  0  0  0  0  0  0  0  0  0  0
   38.2230   31.6990   41.2550 O   0  0  0  0  0  0  0  0  0  0  0  0
   40.2130   30.9150   40.6090 O   0  0  0  0  0  0  0  0  0  0  0  0
   40.4010   30.7900   42.8990 N   0  0  0  0  0  0  0  0  0  0  0  0
   40.2790   29.5990   43.7160 C   0  0  0  0  0  0  0  0  0  0  0  0
   41.2430   28.5870   43.1260 C   0  0  0  0  0  0  0  0  0  0  0  0
   41.1530   28.9400   41.6560 C   0  0  0  0  0  0  0  0  0  0  0  0
   41.1080   30.4490   41.7030 C   0  0  1  0  0  0  0  0  0  0  0  0
   41.4097   32.0361   39.6068 H   0  0  0  0  0  0  0  0  0  0  0  0
   40.5348   34.4077   37.9631 H   0  0  0  0  0  0  0  0  0  0  0  0
   41.0436   32.7410   37.4519 H   0  0  0  0  0  0  0  0  0  0  0  0
   38.6552   33.0526   37.0893 H   0  0  0  0  0  0  0  0  0  0  0  0
   38.9525   31.8347   38.3728 H   0  0  0  0  0  0  0  0  0  0  0  0
   37.7360   34.5297   38.5184 H   0  0  0  0  0  0  0  0  0  0  0  0
   37.4803   33.0585   39.5387 H   0  0  0  0  0  0  0  0  0  0  0  0
   39.6483   35.1836   39.7691 H   0  0  0  0  0  0  0  0  0  0  0  0
   38.4922   34.6253   41.0140 H   0  0  0  0  0  0  0  0  0  0  0  0
   40.5614   33.6375   41.5040 H   0  0  0  0  0  0  0  0  0  0  0  0
   42.1088   34.7847   41.9433 H   0  0  0  0  0  0  0  0  0  0  0  0
   43.1847   35.7639   38.9445 H   0  0  0  0  0  0  0  0  0  0  0  0
   41.6728   36.0837   39.0437 H   0  0  0  0  0  0  0  0  0  0  0  0
   42.8063   33.0960   39.3276 H   0  0  0  0  0  0  0  0  0  0  0  0
   47.5332   35.2227   42.7568 H   0  0  0  0  0  0  0  0  0  0  0  0
   45.5901   36.3501   43.9698 H   0  0  0  0  0  0  0  0  0  0  0  0
   48.0332   33.2955   41.2585 H   0  0  0  0  0  0  0  0  0  0  0  0
   46.9406   32.9067   39.8868 H   0  0  0  0  0  0  0  0  0  0  0  0
   47.8702   34.4438   39.8868 H   0  0  0  0  0  0  0  0  0  0  0  0
   39.4641   31.1447   42.6597 H   0  0  0  0  0  0  0  0  0  0  0  0
   40.5492   29.8215   44.7588 H   0  0  0  0  0  0  0  0  0  0  0  0
   39.2473   29.2175   43.7209 H   0  0  0  0  0  0  0  0  0  0  0  0
   42.2630   28.7242   43.5144 H   0  0  0  0  0  0  0  0  0  0  0  0
   41.0053   27.5388   43.3599 H   0  0  0  0  0  0  0  0  0  0  0  0
   40.2417   28.5261   41.1997 H   0  0  0  0  0  0  0  0  0  0  0  0
   41.9780   28.5375   41.0498 H   0  0  0  0  0  0  0  0  0  0  0  0
   42.1203   30.8742   41.6367 H   0  0  0  0  0  0  0  0  0  0  0  0
  1  9  1  0
  1  6  1  0
  2  1  1  0
  3  2  1  0
  3  4  1  0
  4  5  1  0
  5  6  1  0
  6 17  1  0
  7 14  1  0
  8  9  1  0
  8  7  1  0
  9  7  1  0
 10 11  2  0
 11 12  1  0
 13 12  2  0
 14 13  1  0
 15 10  1  0
 15 14  2  0
 16 10  1  0
 17 18  2  0
 19 17  1  0
 20 21  1  0
 22 21  1  0
 23 24  1  0
 23 22  1  0
 24 19  1  0
 24 20  1  0
  1 25  1  6
  2 26  1  0
  2 27  1  0
  3 28  1  0
  3 29  1  0
  4 30  1  0
  4 31  1  0
  5 32  1  0
  5 33  1  0
  6 34  1  1
  7 35  1  1
  8 36  1  0
  8 37  1  0
  9 38  1  6
 11 39  1  0
 12 40  1  0
 16 41  1  0
 16 42  1  0
 16 43  1  0
 20 44  1  0
 21 45  1  0
 21 46  1  0
 22 47  1  0
 22 48  1  0
 23 49  1  0
 23 50  1  0
 24 51  1  1
M  ISO  8  25  13  26  13  27  13  28  13  29  13  30  13  31  13  32  13
M  ISO  8  33  13  34  13  35  13  36  13  37  13  38  13  39  14  40  14
M  ISO  8  41   8  42   8  43   8  44   5  45  13  46  13  47  13  48  13
M  ISO  3  49  13  50  13  51  13
M  END
>  <minimizedAffinity>  (1) 
-5.62432146

>  <minimizedRMSD>  (1) 
3.35686827

$$$$
