
     RDKit          3D

 47 50  0  0  1  0  0  0  0  0999 V2000
   41.1670   33.8480   39.4390 C   0  0  2  0  0  0  0  0  0  0  0  0
   40.1700   34.7780   38.7880 C   0  0  0  0  0  0  0  0  0  0  0  0
   38.8510   34.1030   38.5240 C   0  0  0  0  0  0  0  0  0  0  0  0
   38.2410   33.7040   39.8250 C   0  0  0  0  0  0  0  0  0  0  0  0
   39.2990   33.5730   40.9140 C   0  0  0  0  0  0  0  0  0  0  0  0
   40.4790   32.9360   40.3490 C   0  0  1  0  0  0  0  0  0  0  0  0
   42.7570   34.3560   41.4580 C   0  0  1  0  0  0  0  0  0  0  0  0
   42.0030   35.6750   41.0690 C   0  0  0  0  0  0  0  0  0  0  0  0
   42.2390   34.6360   40.1510 C   0  0  2  0  0  0  0  0  0  0  0  0
   46.4180   34.4620   41.0670 C   0  0  0  0  0  0  0  0  0  0  0  0
   46.8540   34.8950   42.3310 C   0  0  0  0  0  0  0  0  0  0  0  0
   45.8700   35.1610   43.3130 C   0  0  0  0  0  0  0  0  0  0  0  0
   44.5630   34.9810   42.9790 N   0  0  0  0  0  0  0  0  0  0  0  0
   44.2020   34.5700   41.7680 C   0  0  0  0  0  0  0  0  0  0  0  0
   45.1070   34.2940   40.7670 N   0  0  0  0  0  0  0  0  0  0  0  0
   47.4530   34.1580   40.0270 C   0  0  0  0  0  0  0  0  0  0  0  0
   40.0850   31.7050   39.6150 C   0  0  0  0  0  0  0  0  0  0  0  0
   39.2900   30.7720   39.8210 O   0  0  0  0  0  0  0  0  0  0  0  0
   40.8010   31.6020   38.4040 O   0  0  0  0  0  0  0  0  0  0  0  0
   40.2330   30.7260   37.3780 C   0  0  0  0  0  0  0  0  0  0  0  0
   38.9490   30.9330   36.9200 C   0  0  0  0  0  0  0  0  0  0  0  0
   38.5610   30.0290   35.9590 C   0  0  0  0  0  0  0  0  0  0  0  0
   39.3170   29.0280   35.4790 N   0  0  0  0  0  0  0  0  0  0  0  0
   40.5750   28.8700   35.9640 C   0  0  0  0  0  0  0  0  0  0  0  0
   41.0210   29.7170   36.9060 N   0  0  0  0  0  0  0  0  0  0  0  0
   41.6598   33.2465   38.6609 H   0  0  0  0  0  0  0  0  0  0  0  0
   40.0011   35.6378   39.4530 H   0  0  0  0  0  0  0  0  0  0  0  0
   40.5863   35.0956   37.8206 H   0  0  0  0  0  0  0  0  0  0  0  0
   38.1792   34.7985   37.9995 H   0  0  0  0  0  0  0  0  0  0  0  0
   39.0081   33.2120   37.8983 H   0  0  0  0  0  0  0  0  0  0  0  0
   37.5085   34.4672   40.1266 H   0  0  0  0  0  0  0  0  0  0  0  0
   37.7528   32.7269   39.6951 H   0  0  0  0  0  0  0  0  0  0  0  0
   39.5639   34.5708   41.2937 H   0  0  0  0  0  0  0  0  0  0  0  0
   38.9078   32.9653   41.7432 H   0  0  0  0  0  0  0  0  0  0  0  0
   41.1612   32.6721   41.1706 H   0  0  0  0  0  0  0  0  0  0  0  0
   42.6662   33.5030   42.1465 H   0  0  0  0  0  0  0  0  0  0  0  0
   40.9869   35.8674   41.4439 H   0  0  0  0  0  0  0  0  0  0  0  0
   42.2142   36.7534   41.1180 H   0  0  0  0  0  0  0  0  0  0  0  0
   42.7093   34.6167   39.1568 H   0  0  0  0  0  0  0  0  0  0  0  0
   47.9244   35.0229   42.5498 H   0  0  0  0  0  0  0  0  0  0  0  0
   46.1540   35.5039   44.3189 H   0  0  0  0  0  0  0  0  0  0  0  0
   48.3969   33.8808   40.5191 H   0  0  0  0  0  0  0  0  0  0  0  0
   47.1078   33.3233   39.3992 H   0  0  0  0  0  0  0  0  0  0  0  0
   47.6141   35.0468   39.3992 H   0  0  0  0  0  0  0  0  0  0  0  0
   38.2993   31.7412   37.2870 H   0  0  0  0  0  0  0  0  0  0  0  0
   37.5458   30.1347   35.5488 H   0  0  0  0  0  0  0  0  0  0  0  0
   41.2195   28.0603   35.5910 H   0  0  0  0  0  0  0  0  0  0  0  0
  1  9  1  0
  1  6  1  0
  2  1  1  0
  3  2  1  0
  3  4  1  0
  4  5  1  0
  6  5  1  0
  7 14  1  0
  8  7  1  0
  9  8  1  0
  9  7  1  0
 10 11  2  0
 11 12  1  0
 13 12  2  0
 14 13  1  0
 15 10  1  0
 15 14  2  0
 16 10  1  0
 17 18  2  0
 17  6  1  0
 19 17  1  0
 20 19  1  0
 21 20  2  0
 22 21  1  0
 23 22  2  0
 23 24  1  0
 24 25  2  0
 25 20  1  0
  1 26  1  6
  2 27  1  0
  2 28  1  0
  3 29  1  0
  3 30  1  0
  4 31  1  0
  4 32  1  0
  5 33  1  0
  5 34  1  0
  6 35  1  1
  7 36  1  1
  8 37  1  0
  8 38  1  0
  9 39  1  6
 11 40  1  0
 12 41  1  0
 16 42  1  0
 16 43  1  0
 16 44  1  0
 21 45  1  0
 22 46  1  0
 24 47  1  0
M  ISO  8  26  13  27  13  28  13  29  13  30  13  31  13  32  13  33  13
M  ISO  8  34  13  35  13  36  13  37  13  38  13  39  13  40  14  41  14
M  ISO  6  42   8  43   8  44   8  45  14  46  14  47  14
M  END
>  <minimizedAffinity>  (1) 
-5.54805946

>  <minimizedRMSD>  (1) 
1.14442885

$$$$
