
     RDKit          3D

 46 49  0  0  1  0  0  0  0  0999 V2000
   41.1640   33.8210   39.4400 C   0  0  2  0  0  0  0  0  0  0  0  0
   40.1860   34.7470   38.7530 C   0  0  0  0  0  0  0  0  0  0  0  0
   38.8560   34.0830   38.5050 C   0  0  0  0  0  0  0  0  0  0  0  0
   38.2360   33.7310   39.8100 C   0  0  0  0  0  0  0  0  0  0  0  0
   39.2850   33.6280   40.9120 C   0  0  0  0  0  0  0  0  0  0  0  0
   40.4560   32.9500   40.3740 C   0  0  1  0  0  0  0  0  0  0  0  0
   42.7520   34.3660   41.4480 C   0  0  1  0  0  0  0  0  0  0  0  0
   42.0240   35.6840   41.0130 C   0  0  0  0  0  0  0  0  0  0  0  0
   42.2480   34.6130   40.1290 C   0  0  2  0  0  0  0  0  0  0  0  0
   46.4170   34.4490   41.0520 C   0  0  0  0  0  0  0  0  0  0  0  0
   46.8540   34.8840   42.3300 C   0  0  0  0  0  0  0  0  0  0  0  0
   45.8690   35.1500   43.3050 C   0  0  0  0  0  0  0  0  0  0  0  0
   44.5670   34.9760   42.9690 N   0  0  0  0  0  0  0  0  0  0  0  0
   44.2010   34.5650   41.7590 C   0  0  0  0  0  0  0  0  0  0  0  0
   45.1030   34.2870   40.7540 N   0  0  0  0  0  0  0  0  0  0  0  0
   47.4460   34.1470   40.0090 C   0  0  0  0  0  0  0  0  0  0  0  0
   40.0490   31.7020   39.6800 C   0  0  0  0  0  0  0  0  0  0  0  0
   39.2400   30.7840   39.9230 O   0  0  0  0  0  0  0  0  0  0  0  0
   40.7580   31.5510   38.4730 O   0  0  0  0  0  0  0  0  0  0  0  0
   40.0170   29.2180   35.8630 N   0  0  0  0  0  0  0  0  0  0  0  0
   40.8020   29.7520   36.7620 N   0  0  0  0  0  0  0  0  0  0  0  0
   40.1660   30.7520   37.4130 C   0  0  0  0  0  0  0  0  0  0  0  0
   38.8890   30.8750   36.9070 C   0  0  0  0  0  0  0  0  0  0  0  0
   38.8330   29.8920   35.9330 C   0  0  0  0  0  0  0  0  0  0  0  0
   41.6500   33.1851   38.6854 H   0  0  0  0  0  0  0  0  0  0  0  0
   40.0282   35.6310   39.3883 H   0  0  0  0  0  0  0  0  0  0  0  0
   40.6120   35.0272   37.7783 H   0  0  0  0  0  0  0  0  0  0  0  0
   38.1964   34.7728   37.9581 H   0  0  0  0  0  0  0  0  0  0  0  0
   39.0031   33.1714   37.9072 H   0  0  0  0  0  0  0  0  0  0  0  0
   37.5064   34.5082   40.0813 H   0  0  0  0  0  0  0  0  0  0  0  0
   37.7429   32.7531   39.7076 H   0  0  0  0  0  0  0  0  0  0  0  0
   39.5641   34.6356   41.2538 H   0  0  0  0  0  0  0  0  0  0  0  0
   38.8811   33.0627   41.7648 H   0  0  0  0  0  0  0  0  0  0  0  0
   41.1274   32.6993   41.2085 H   0  0  0  0  0  0  0  0  0  0  0  0
   42.6415   33.5376   42.1632 H   0  0  0  0  0  0  0  0  0  0  0  0
   41.0089   35.9053   41.3744 H   0  0  0  0  0  0  0  0  0  0  0  0
   42.2536   36.7596   41.0301 H   0  0  0  0  0  0  0  0  0  0  0  0
   42.7247   34.5548   39.1394 H   0  0  0  0  0  0  0  0  0  0  0  0
   47.9238   35.0096   42.5531 H   0  0  0  0  0  0  0  0  0  0  0  0
   46.1505   35.4900   44.3125 H   0  0  0  0  0  0  0  0  0  0  0  0
   48.3920   33.8694   40.4968 H   0  0  0  0  0  0  0  0  0  0  0  0
   47.0984   33.3130   39.3816 H   0  0  0  0  0  0  0  0  0  0  0  0
   47.6042   35.0366   39.3816 H   0  0  0  0  0  0  0  0  0  0  0  0
   40.2473   28.4412   35.2270 H   0  0  0  0  0  0  0  0  0  0  0  0
   38.1029   31.5842   37.2056 H   0  0  0  0  0  0  0  0  0  0  0  0
   37.9555   29.6836   35.3032 H   0  0  0  0  0  0  0  0  0  0  0  0
  1  9  1  0
  1  6  1  0
  2  1  1  0
  3  2  1  0
  3  4  1  0
  4  5  1  0
  6  5  1  0
  7 14  1  0
  8  7  1  0
  9  8  1  0
  9  7  1  0
 10 11  2  0
 11 12  1  0
 13 12  2  0
 14 13  1  0
 15 10  1  0
 15 14  2  0
 16 10  1  0
 17 18  2  0
 17  6  1  0
 19 17  1  0
 20 24  1  0
 20 21  1  0
 21 22  2  0
 22 19  1  0
 23 22  1  0
 24 23  2  0
  1 25  1  6
  2 26  1  0
  2 27  1  0
  3 28  1  0
  3 29  1  0
  4 30  1  0
  4 31  1  0
  5 32  1  0
  5 33  1  0
  6 34  1  1
  7 35  1  1
  8 36  1  0
  8 37  1  0
  9 38  1  6
 11 39  1  0
 12 40  1  0
 16 41  1  0
 16 42  1  0
 16 43  1  0
 20 44  1  0
 23 45  1  0
 24 46  1  0
M  ISO  8  25  13  26  13  27  13  28  13  29  13  30  13  31  13  32  13
M  ISO  8  33  13  34  13  35  13  36  13  37  13  38  13  39  14  40  14
M  ISO  6  41   8  42   8  43   8  44   9  45  14  46  14
M  END
>  <minimizedAffinity>  (1) 
-5.45938301

>  <minimizedRMSD>  (1) 
1.11674261

$$$$
