
     RDKit          3D

 44 47  0  0  1  0  0  0  0  0999 V2000
   41.2160   34.0810   38.8950 C   0  0  2  0  0  0  0  0  0  0  0  0
   40.2060   35.0080   38.2550 C   0  0  0  0  0  0  0  0  0  0  0  0
   39.0170   34.2590   37.7100 C   0  0  0  0  0  0  0  0  0  0  0  0
   38.3010   33.5920   38.8320 C   0  0  0  0  0  0  0  0  0  0  0  0
   39.2210   33.4010   40.0350 C   0  0  0  0  0  0  0  0  0  0  0  0
   40.5280   32.9740   39.5570 C   0  0  1  0  0  0  0  0  0  0  0  0
   42.5040   34.3850   41.1560 C   0  0  1  0  0  0  0  0  0  0  0  0
   41.6240   35.6610   40.9020 C   0  0  0  0  0  0  0  0  0  0  0  0
   42.0920   34.8410   39.8610 C   0  0  2  0  0  0  0  0  0  0  0  0
   46.1730   34.6400   41.3680 C   0  0  0  0  0  0  0  0  0  0  0  0
   46.3680   35.2450   42.6320 C   0  0  0  0  0  0  0  0  0  0  0  0
   45.2220   35.5630   43.3910 C   0  0  0  0  0  0  0  0  0  0  0  0
   44.0020   35.2730   42.8700 N   0  0  0  0  0  0  0  0  0  0  0  0
   43.8680   34.7060   41.6770 C   0  0  0  0  0  0  0  0  0  0  0  0
   44.9410   34.3680   40.8810 N   0  0  0  0  0  0  0  0  0  0  0  0
   47.3850   34.2840   40.5630 C   0  0  0  0  0  0  0  0  0  0  0  0
   40.3760   31.8480   38.6020 C   0  0  0  0  0  0  0  0  0  0  0  0
   39.6200   30.8680   38.4920 O   0  0  0  0  0  0  0  0  0  0  0  0
   41.3390   31.9350   37.5720 O   0  0  0  0  0  0  0  0  0  0  0  0
   42.0220   30.6860   37.2200 C   0  0  0  0  0  0  0  0  0  0  0  0
   42.8990   30.0430   37.9740 N   0  0  0  0  0  0  0  0  0  0  0  0
   43.2660   28.9840   37.2990 O   0  0  0  0  0  0  0  0  0  0  0  0
   42.6570   28.9230   36.1390 C   0  0  0  0  0  0  0  0  0  0  0  0
   41.8410   30.0140   36.0550 N   0  0  0  0  0  0  0  0  0  0  0  0
   41.8669   33.6621   38.1134 H   0  0  0  0  0  0  0  0  0  0  0  0
   39.8566   35.7278   39.0098 H   0  0  0  0  0  0  0  0  0  0  0  0
   40.6991   35.5194   37.4152 H   0  0  0  0  0  0  0  0  0  0  0  0
   38.3377   34.9632   37.2072 H   0  0  0  0  0  0  0  0  0  0  0  0
   39.3569   33.5025   36.9874 H   0  0  0  0  0  0  0  0  0  0  0  0
   37.4435   34.2129   39.1306 H   0  0  0  0  0  0  0  0  0  0  0  0
   37.9620   32.6027   38.4910 H   0  0  0  0  0  0  0  0  0  0  0  0
   39.3184   34.3507   40.5815 H   0  0  0  0  0  0  0  0  0  0  0  0
   38.8019   32.6418   40.7118 H   0  0  0  0  0  0  0  0  0  0  0  0
   41.1240   32.6454   40.4212 H   0  0  0  0  0  0  0  0  0  0  0  0
   42.4573   33.4150   41.6727 H   0  0  0  0  0  0  0  0  0  0  0  0
   40.5576   35.6654   41.1717 H   0  0  0  0  0  0  0  0  0  0  0  0
   41.6825   36.7291   41.1582 H   0  0  0  0  0  0  0  0  0  0  0  0
   42.6625   35.0581   38.9459 H   0  0  0  0  0  0  0  0  0  0  0  0
   47.3784   35.4601   43.0100 H   0  0  0  0  0  0  0  0  0  0  0  0
   45.3145   36.0343   44.3806 H   0  0  0  0  0  0  0  0  0  0  0  0
   48.2164   34.0398   41.2405 H   0  0  0  0  0  0  0  0  0  0  0  0
   47.1612   33.4137   39.9286 H   0  0  0  0  0  0  0  0  0  0  0  0
   47.6674   35.1371   39.9286 H   0  0  0  0  0  0  0  0  0  0  0  0
   42.7806   28.1396   35.3768 H   0  0  0  0  0  0  0  0  0  0  0  0
  1  6  1  0
  1  9  1  0
  2  1  1  0
  3  2  1  0
  3  4  1  0
  4  5  1  0
  6  5  1  0
  7 14  1  0
  8  7  1  0
  9  8  1  0
  9  7  1  0
 10 11  2  0
 11 12  1  0
 13 12  2  0
 14 13  1  0
 15 10  1  0
 15 14  2  0
 16 10  1  0
 17  6  1  0
 18 17  2  0
 19 17  1  0
 20 19  1  0
 20 21  2  0
 22 21  1  0
 23 22  1  0
 24 23  2  0
 24 20  1  0
  1 25  1  6
  2 26  1  0
  2 27  1  0
  3 28  1  0
  3 29  1  0
  4 30  1  0
  4 31  1  0
  5 32  1  0
  5 33  1  0
  6 34  1  1
  7 35  1  1
  8 36  1  0
  8 37  1  0
  9 38  1  6
 11 39  1  0
 12 40  1  0
 16 41  1  0
 16 42  1  0
 16 43  1  0
 23 44  1  0
M  ISO  8  25  13  26  13  27  13  28  13  29  13  30  13  31  13  32  13
M  ISO  8  33  13  34  13  35  13  36  13  37  13  38  13  39  14  40  14
M  ISO  4  41   8  42   8  43   8  44  14
M  END
>  <minimizedAffinity>  (1) 
-5.31160212

>  <minimizedRMSD>  (1) 
0.852037609

$$$$
