
     RDKit          3D

 45 47  0  0  1  0  0  0  0  0999 V2000
   41.1920   34.0470   38.8980 C   0  0  2  0  0  0  0  0  0  0  0  0
   40.2140   34.9760   38.2120 C   0  0  0  0  0  0  0  0  0  0  0  0
   39.0140   34.2360   37.6770 C   0  0  0  0  0  0  0  0  0  0  0  0
   38.2700   33.6240   38.8110 C   0  0  0  0  0  0  0  0  0  0  0  0
   39.1700   33.4500   40.0320 C   0  0  0  0  0  0  0  0  0  0  0  0
   40.4730   32.9780   39.5870 C   0  0  1  0  0  0  0  0  0  0  0  0
   42.4870   34.3860   41.1510 C   0  0  1  0  0  0  0  0  0  0  0  0
   41.6110   35.6570   40.8790 C   0  0  0  0  0  0  0  0  0  0  0  0
   42.0730   34.8220   39.8480 C   0  0  2  0  0  0  0  0  0  0  0  0
   46.1580   34.6410   41.3490 C   0  0  0  0  0  0  0  0  0  0  0  0
   46.3570   35.2360   42.6160 C   0  0  0  0  0  0  0  0  0  0  0  0
   45.2130   35.5490   43.3810 C   0  0  0  0  0  0  0  0  0  0  0  0
   43.9940   35.2640   42.8610 N   0  0  0  0  0  0  0  0  0  0  0  0
   43.8540   34.7050   41.6650 C   0  0  0  0  0  0  0  0  0  0  0  0
   44.9220   34.3710   40.8580 N   0  0  0  0  0  0  0  0  0  0  0  0
   47.3600   34.2800   40.5310 C   0  0  0  0  0  0  0  0  0  0  0  0
   40.3060   31.8240   38.6680 C   0  0  0  0  0  0  0  0  0  0  0  0
   39.5010   30.8780   38.5700 O   0  0  0  0  0  0  0  0  0  0  0  0
   41.3160   31.8260   37.6800 O   0  0  0  0  0  0  0  0  0  0  0  0
   41.6280   30.5110   37.0290 C   0  0  0  0  0  0  0  0  0  0  0  0
   42.9110   30.7420   36.2980 C   0  0  0  0  0  0  0  0  0  0  0  0
   41.8413   33.5842   38.1402 H   0  0  0  0  0  0  0  0  0  0  0  0
   39.8725   35.7302   38.9363 H   0  0  0  0  0  0  0  0  0  0  0  0
   40.7304   35.4464   37.3622 H   0  0  0  0  0  0  0  0  0  0  0  0
   38.3572   34.9381   37.1425 H   0  0  0  0  0  0  0  0  0  0  0  0
   39.3447   33.4481   36.9843 H   0  0  0  0  0  0  0  0  0  0  0  0
   37.4245   34.2749   39.0783 H   0  0  0  0  0  0  0  0  0  0  0  0
   37.9121   32.6321   38.4979 H   0  0  0  0  0  0  0  0  0  0  0  0
   39.2824   34.4141   40.5496 H   0  0  0  0  0  0  0  0  0  0  0  0
   38.7243   32.7220   40.7258 H   0  0  0  0  0  0  0  0  0  0  0  0
   41.0519   32.6650   40.4684 H   0  0  0  0  0  0  0  0  0  0  0  0
   42.4385   33.4253   41.6846 H   0  0  0  0  0  0  0  0  0  0  0  0
   40.5454   35.6678   41.1517 H   0  0  0  0  0  0  0  0  0  0  0  0
   41.6732   36.7287   41.1190 H   0  0  0  0  0  0  0  0  0  0  0  0
   42.6401   35.0245   38.9275 H   0  0  0  0  0  0  0  0  0  0  0  0
   47.3686   35.4477   42.9926 H   0  0  0  0  0  0  0  0  0  0  0  0
   45.3081   36.0125   44.3740 H   0  0  0  0  0  0  0  0  0  0  0  0
   48.1965   34.0288   41.1996 H   0  0  0  0  0  0  0  0  0  0  0  0
   47.1247   33.4129   39.8964 H   0  0  0  0  0  0  0  0  0  0  0  0
   47.6414   35.1333   39.8964 H   0  0  0  0  0  0  0  0  0  0  0  0
   41.7501   29.7228   37.7866 H   0  0  0  0  0  0  0  0  0  0  0  0
   40.8221   30.1780   36.3584 H   0  0  0  0  0  0  0  0  0  0  0  0
   43.7250   30.8886   37.0232 H   0  0  0  0  0  0  0  0  0  0  0  0
   43.1353   29.8698   35.6664 H   0  0  0  0  0  0  0  0  0  0  0  0
   42.8170   31.6377   35.6664 H   0  0  0  0  0  0  0  0  0  0  0  0
  1  6  1  0
  1  9  1  0
  2  1  1  0
  3  2  1  0
  3  4  1  0
  4  5  1  0
  6  5  1  0
  7 14  1  0
  8  7  1  0
  9  8  1  0
  9  7  1  0
 10 11  2  0
 11 12  1  0
 13 12  2  0
 14 13  1  0
 15 10  1  0
 15 14  2  0
 16 10  1  0
 17  6  1  0
 18 17  2  0
 19 17  1  0
 20 19  1  0
 21 20  1  0
  1 22  1  6
  2 23  1  0
  2 24  1  0
  3 25  1  0
  3 26  1  0
  4 27  1  0
  4 28  1  0
  5 29  1  0
  5 30  1  0
  6 31  1  1
  7 32  1  1
  8 33  1  0
  8 34  1  0
  9 35  1  6
 11 36  1  0
 12 37  1  0
 16 38  1  0
 16 39  1  0
 16 40  1  0
 20 41  1  0
 20 42  1  0
 21 43  1  0
 21 44  1  0
 21 45  1  0
M  ISO  8  22  13  23  13  24  13  25  13  26  13  27  13  28  13  29  13
M  ISO  8  30  13  31  13  32  13  33  13  34  13  35  13  36  14  37  14
M  ISO  8  38   8  39   8  40   8  41   8  42   8  43   8  44   8  45   8
M  END
>  <minimizedAffinity>  (1) 
-5.24215603

>  <minimizedRMSD>  (1) 
0.135386527

$$$$
