
     RDKit          3D

 39 43  0  0  0  0  0  0  0  0999 V2000
   48.5720   35.1990   40.7170 C   0  0  0  0  0  0  0  0  0  0  0  0
   48.3090   34.0330   39.9370 C   0  0  0  0  0  0  0  0  0  0  0  0
   47.2430   33.2240   40.3200 C   0  0  0  0  0  0  0  0  0  0  0  0
   46.5060   33.5890   41.4210 N   0  0  0  0  0  0  0  0  0  0  0  0
   46.7920   34.6910   42.1190 C   0  0  0  0  0  0  0  0  0  0  0  0
   47.8100   35.5050   41.7900 N   0  0  0  0  0  0  0  0  0  0  0  0
   45.9720   35.0030   43.2630 N   0  0  0  0  0  0  0  0  0  0  0  0
   45.1130   36.0100   43.5580 C   0  0  0  0  0  0  0  0  0  0  0  0
   44.6180   35.8020   44.7890 N   0  0  0  0  0  0  0  0  0  0  0  0
   45.1710   34.6480   45.2800 C   0  0  0  0  0  0  0  0  0  0  0  0
   44.9730   34.0310   46.4900 C   0  0  0  0  0  0  0  0  0  0  0  0
   45.6440   32.8990   46.7180 N   0  0  0  0  0  0  0  0  0  0  0  0
   46.4870   32.3700   45.8080 C   0  0  0  0  0  0  0  0  0  0  0  0
   46.6480   33.0170   44.6330 N   0  0  0  0  0  0  0  0  0  0  0  0
   46.0130   34.1560   44.3250 C   0  0  0  0  0  0  0  0  0  0  0  0
   47.2990   31.1660   45.8680 C   0  0  0  0  0  0  0  0  0  0  0  0
   47.4720   30.3040   44.7910 C   0  0  0  0  0  0  0  0  0  0  0  0
   48.2300   29.1670   44.8210 C   0  0  0  0  0  0  0  0  0  0  0  0
   48.8910   28.7950   45.9600 C   0  0  0  0  0  0  0  0  0  0  0  0
   48.7650   29.6050   47.0670 C   0  0  0  0  0  0  0  0  0  0  0  0
   49.4320   29.2170   48.1910 C   0  0  0  0  0  0  0  0  0  0  0  0
   49.3600   29.9660   49.3360 C   0  0  0  0  0  0  0  0  0  0  0  0
   48.5860   31.1310   49.3080 C   0  0  0  0  0  0  0  0  0  0  0  0
   47.9430   31.4510   48.1320 C   0  0  0  0  0  0  0  0  0  0  0  0
   47.9860   30.7370   46.9740 C   0  0  0  0  0  0  0  0  0  0  0  0
   44.1130   34.5240   47.4820 N   0  0  0  0  0  0  0  0  0  0  0  0
   49.4078   35.8585   40.4404 H   0  0  0  0  0  0  0  0  0  0  0  0
   48.9278   33.7822   39.0628 H   0  0  0  0  0  0  0  0  0  0  0  0
   46.9962   32.3134   39.7544 H   0  0  0  0  0  0  0  0  0  0  0  0
   44.8636   36.8552   42.8996 H   0  0  0  0  0  0  0  0  0  0  0  0
   46.9631   30.5546   43.8485 H   0  0  0  0  0  0  0  0  0  0  0  0
   48.3097   28.5433   43.9184 H   0  0  0  0  0  0  0  0  0  0  0  0
   49.5019   27.8807   45.9905 H   0  0  0  0  0  0  0  0  0  0  0  0
   50.0326   28.2955   48.1785 H   0  0  0  0  0  0  0  0  0  0  0  0
   49.8938   29.6610   50.2482 H   0  0  0  0  0  0  0  0  0  0  0  0
   48.4935   31.7718   50.1973 H   0  0  0  0  0  0  0  0  0  0  0  0
   47.3381   32.3698   48.1288 H   0  0  0  0  0  0  0  0  0  0  0  0
   44.0066   34.0147   48.3709 H   0  0  0  0  0  0  0  0  0  0  0  0
   43.5877   35.3954   47.3216 H   0  0  0  0  0  0  0  0  0  0  0  0
  1  6  2  0
  2  3  2  0
  2  1  1  0
  3  4  1  0
  4  5  2  0
  5  7  1  0
  6  5  1  0
  7  8  1  0
  7 15  1  0
  8  9  2  0
  9 10  1  0
 10 11  2  0
 11 12  1  0
 11 26  1  0
 13 16  1  0
 13 12  2  0
 14 13  1  0
 15 14  2  0
 15 10  1  0
 16 25  2  0
 17 18  2  0
 17 16  1  0
 18 19  1  0
 19 20  2  0
 20 21  1  0
 21 22  2  0
 23 22  1  0
 24 23  2  0
 25 20  1  0
 25 24  1  0
  1 27  1  0
  2 28  1  0
  3 29  1  0
  8 30  1  0
 17 31  1  0
 18 32  1  0
 19 33  1  0
 21 34  1  0
 22 35  1  0
 23 36  1  0
 24 37  1  0
 26 38  1  0
 26 39  1  0
M  ISO  8  27  14  28  14  29  14  30  14  31  14  32  14  33  14  34  14
M  ISO  3  35  14  36  14  37  14
M  END
>  <minimizedAffinity>  (1) 
-7.38595581

>  <minimizedRMSD>  (1) 
1.09234405

$$$$
