
     RDKit          3D

 31 34  0  0  0  0  0  0  0  0999 V2000
   48.5440   35.2310   40.7320 C   0  0  0  0  0  0  0  0  0  0  0  0
   48.3240   34.0820   39.9480 C   0  0  0  0  0  0  0  0  0  0  0  0
   47.2650   33.2290   40.3270 C   0  0  0  0  0  0  0  0  0  0  0  0
   46.5240   33.5730   41.4320 N   0  0  0  0  0  0  0  0  0  0  0  0
   46.7810   34.6750   42.1380 C   0  0  0  0  0  0  0  0  0  0  0  0
   47.7820   35.5150   41.8070 N   0  0  0  0  0  0  0  0  0  0  0  0
   45.9590   34.9680   43.2860 N   0  0  0  0  0  0  0  0  0  0  0  0
   45.0740   35.9290   43.5970 C   0  0  0  0  0  0  0  0  0  0  0  0
   44.6020   35.7000   44.8320 N   0  0  0  0  0  0  0  0  0  0  0  0
   45.2040   34.5640   45.3200 C   0  0  0  0  0  0  0  0  0  0  0  0
   45.0350   33.9490   46.5350 C   0  0  0  0  0  0  0  0  0  0  0  0
   45.7580   32.8360   46.7580 N   0  0  0  0  0  0  0  0  0  0  0  0
   46.6000   32.3620   45.8270 C   0  0  0  0  0  0  0  0  0  0  0  0
   46.7400   32.9900   44.6480 N   0  0  0  0  0  0  0  0  0  0  0  0
   46.0560   34.1060   44.3480 C   0  0  0  0  0  0  0  0  0  0  0  0
   47.3730   31.1520   46.0940 C   0  0  0  0  0  0  0  0  0  0  0  0
   47.8430   30.3810   45.0560 C   0  0  0  0  0  0  0  0  0  0  0  0
   48.5680   29.2490   45.3590 C   0  0  0  0  0  0  0  0  0  0  0  0
   48.7910   28.9370   46.6320 N   0  0  0  0  0  0  0  0  0  0  0  0
   48.3310   29.6910   47.6330 C   0  0  0  0  0  0  0  0  0  0  0  0
   47.6190   30.8020   47.3800 N   0  0  0  0  0  0  0  0  0  0  0  0
   44.1490   34.4490   47.5180 N   0  0  0  0  0  0  0  0  0  0  0  0
   49.3605   35.9159   40.4595 H   0  0  0  0  0  0  0  0  0  0  0  0
   48.9531   33.8578   39.0740 H   0  0  0  0  0  0  0  0  0  0  0  0
   47.0398   32.3167   39.7552 H   0  0  0  0  0  0  0  0  0  0  0  0
   44.7836   36.7667   42.9459 H   0  0  0  0  0  0  0  0  0  0  0  0
   47.6451   30.6611   44.0108 H   0  0  0  0  0  0  0  0  0  0  0  0
   48.9590   28.6089   44.5544 H   0  0  0  0  0  0  0  0  0  0  0  0
   48.5366   29.4003   48.6738 H   0  0  0  0  0  0  0  0  0  0  0  0
   44.0493   33.9591   48.4185 H   0  0  0  0  0  0  0  0  0  0  0  0
   43.6036   35.3030   47.3332 H   0  0  0  0  0  0  0  0  0  0  0  0
  1  6  2  0
  2  3  2  0
  2  1  1  0
  3  4  1  0
  4  5  2  0
  5  7  1  0
  6  5  1  0
  7  8  1  0
  7 15  1  0
  8  9  2  0
  9 10  1  0
 10 11  2  0
 11 12  1  0
 11 22  1  0
 13 16  1  0
 13 12  2  0
 14 13  1  0
 15 14  2  0
 15 10  1  0
 16 21  2  0
 17 18  2  0
 17 16  1  0
 18 19  1  0
 19 20  2  0
 21 20  1  0
  1 23  1  0
  2 24  1  0
  3 25  1  0
  8 26  1  0
 17 27  1  0
 18 28  1  0
 20 29  1  0
 22 30  1  0
 22 31  1  0
M  ISO  7  23  14  24  14  25  14  26  14  27  14  28  14  29  14
M  END
>  <minimizedAffinity>  (1) 
-6.29038525

>  <minimizedRMSD>  (1) 
0.872581303

$$$$
