
     RDKit          3D

 31 34  0  0  0  0  0  0  0  0999 V2000
   48.5290   35.2000   40.7250 C   0  0  0  0  0  0  0  0  0  0  0  0
   48.3130   34.0410   39.9540 C   0  0  0  0  0  0  0  0  0  0  0  0
   47.2720   33.2020   40.3510 C   0  0  0  0  0  0  0  0  0  0  0  0
   46.5280   33.5480   41.4550 N   0  0  0  0  0  0  0  0  0  0  0  0
   46.7880   34.6800   42.1540 C   0  0  0  0  0  0  0  0  0  0  0  0
   47.7720   35.4940   41.7970 N   0  0  0  0  0  0  0  0  0  0  0  0
   45.9630   34.9720   43.2980 N   0  0  0  0  0  0  0  0  0  0  0  0
   45.0750   35.9380   43.5880 C   0  0  0  0  0  0  0  0  0  0  0  0
   44.5940   35.7150   44.8260 N   0  0  0  0  0  0  0  0  0  0  0  0
   45.1950   34.5840   45.3220 C   0  0  0  0  0  0  0  0  0  0  0  0
   45.0170   33.9770   46.5400 C   0  0  0  0  0  0  0  0  0  0  0  0
   45.7370   32.8690   46.7790 N   0  0  0  0  0  0  0  0  0  0  0  0
   46.5900   32.3840   45.8580 C   0  0  0  0  0  0  0  0  0  0  0  0
   46.7350   33.0080   44.6760 N   0  0  0  0  0  0  0  0  0  0  0  0
   46.0570   34.1140   44.3650 C   0  0  0  0  0  0  0  0  0  0  0  0
   47.3650   31.1780   46.1340 C   0  0  0  0  0  0  0  0  0  0  0  0
   47.5960   30.8010   47.4450 C   0  0  0  0  0  0  0  0  0  0  0  0
   48.3400   29.6450   47.6420 C   0  0  0  0  0  0  0  0  0  0  0  0
   48.8230   28.9070   46.6170 N   0  0  0  0  0  0  0  0  0  0  0  0
   48.5750   29.3070   45.3450 C   0  0  0  0  0  0  0  0  0  0  0  0
   47.8600   30.4200   45.1370 N   0  0  0  0  0  0  0  0  0  0  0  0
   44.1300   34.4680   47.5140 N   0  0  0  0  0  0  0  0  0  0  0  0
   49.3414   35.8853   40.4417 H   0  0  0  0  0  0  0  0  0  0  0  0
   48.9370   33.8082   39.0786 H   0  0  0  0  0  0  0  0  0  0  0  0
   47.0501   32.2811   39.7919 H   0  0  0  0  0  0  0  0  0  0  0  0
   44.7896   36.7694   42.9267 H   0  0  0  0  0  0  0  0  0  0  0  0
   47.2090   31.3886   48.2906 H   0  0  0  0  0  0  0  0  0  0  0  0
   48.5443   29.3170   48.6719 H   0  0  0  0  0  0  0  0  0  0  0  0
   48.9568   28.7239   44.4940 H   0  0  0  0  0  0  0  0  0  0  0  0
   44.0305   33.9773   48.4141 H   0  0  0  0  0  0  0  0  0  0  0  0
   43.5796   35.3184   47.3274 H   0  0  0  0  0  0  0  0  0  0  0  0
  1  6  2  0
  2  3  2  0
  2  1  1  0
  3  4  1  0
  4  5  2  0
  5  7  1  0
  6  5  1  0
  7  8  1  0
  7 15  1  0
  8  9  2  0
  9 10  1  0
 10 11  2  0
 11 12  1  0
 11 22  1  0
 13 16  1  0
 13 12  2  0
 14 13  1  0
 15 14  2  0
 15 10  1  0
 16 17  2  0
 17 18  1  0
 19 18  2  0
 20 19  1  0
 21 20  2  0
 21 16  1  0
  1 23  1  0
  2 24  1  0
  3 25  1  0
  8 26  1  0
 17 27  1  0
 18 28  1  0
 20 29  1  0
 22 30  1  0
 22 31  1  0
M  ISO  7  23  14  24  14  25  14  26  14  27  14  28  14  29  14
M  END
>  <minimizedAffinity>  (1) 
-6.31281996

>  <minimizedRMSD>  (1) 
0.759182215

$$$$
