
     RDKit          3D

 30 33  0  0  0  0  0  0  0  0999 V2000
   48.5320   35.2030   40.7180 C   0  0  0  0  0  0  0  0  0  0  0  0
   48.2990   34.0400   39.9580 C   0  0  0  0  0  0  0  0  0  0  0  0
   47.2630   33.1930   40.3480 C   0  0  0  0  0  0  0  0  0  0  0  0
   46.5360   33.5500   41.4510 N   0  0  0  0  0  0  0  0  0  0  0  0
   46.7930   34.6790   42.1570 C   0  0  0  0  0  0  0  0  0  0  0  0
   47.7750   35.4950   41.7980 N   0  0  0  0  0  0  0  0  0  0  0  0
   45.9710   34.9660   43.3020 N   0  0  0  0  0  0  0  0  0  0  0  0
   45.0850   35.9320   43.5960 C   0  0  0  0  0  0  0  0  0  0  0  0
   44.5990   35.7110   44.8340 N   0  0  0  0  0  0  0  0  0  0  0  0
   45.1950   34.5890   45.3150 C   0  0  0  0  0  0  0  0  0  0  0  0
   45.0200   33.9670   46.5380 C   0  0  0  0  0  0  0  0  0  0  0  0
   45.7450   32.8410   46.7790 N   0  0  0  0  0  0  0  0  0  0  0  0
   46.5880   32.3720   45.8540 C   0  0  0  0  0  0  0  0  0  0  0  0
   46.7380   32.9950   44.6780 N   0  0  0  0  0  0  0  0  0  0  0  0
   46.0600   34.1110   44.3610 C   0  0  0  0  0  0  0  0  0  0  0  0
   47.3630   31.1650   46.1190 C   0  0  0  0  0  0  0  0  0  0  0  0
   47.6700   30.6270   47.3520 C   0  0  0  0  0  0  0  0  0  0  0  0
   48.3990   29.5100   47.2220 N   0  0  0  0  0  0  0  0  0  0  0  0
   48.5550   29.3380   45.8930 C   0  0  0  0  0  0  0  0  0  0  0  0
   47.9330   30.3310   45.2310 N   0  0  0  0  0  0  0  0  0  0  0  0
   44.1360   34.4490   47.5190 N   0  0  0  0  0  0  0  0  0  0  0  0
   49.3444   35.8851   40.4270 H   0  0  0  0  0  0  0  0  0  0  0  0
   48.9185   33.8064   39.0796 H   0  0  0  0  0  0  0  0  0  0  0  0
   47.0382   32.2721   39.7900 H   0  0  0  0  0  0  0  0  0  0  0  0
   44.8027   36.7654   42.9359 H   0  0  0  0  0  0  0  0  0  0  0  0
   47.3576   31.0581   48.3146 H   0  0  0  0  0  0  0  0  0  0  0  0
   49.1070   28.5113   45.4219 H   0  0  0  0  0  0  0  0  0  0  0  0
   47.8989   30.4357   44.2069 H   0  0  0  0  0  0  0  0  0  0  0  0
   44.0400   33.9507   48.4153 H   0  0  0  0  0  0  0  0  0  0  0  0
   43.5843   35.3005   47.3415 H   0  0  0  0  0  0  0  0  0  0  0  0
  1  6  2  0
  2  3  2  0
  2  1  1  0
  3  4  1  0
  4  5  2  0
  5  7  1  0
  6  5  1  0
  7  8  1  0
  7 15  1  0
  8  9  2  0
  9 10  1  0
 10 11  2  0
 11 12  1  0
 11 21  1  0
 13 16  1  0
 13 12  2  0
 14 13  1  0
 15 14  2  0
 15 10  1  0
 16 17  2  0
 18 17  1  0
 19 18  2  0
 20 19  1  0
 20 16  1  0
  1 22  1  0
  2 23  1  0
  3 24  1  0
  8 25  1  0
 17 26  1  0
 19 27  1  0
 20 28  1  0
 21 29  1  0
 21 30  1  0
M  ISO  7  22  14  23  14  24  14  25  14  26  14  27  14  28   9
M  END
>  <minimizedAffinity>  (1) 
-6.1447525

>  <minimizedRMSD>  (1) 
0.751563013

$$$$
