
     RDKit          3D

 28 30  0  0  0  0  0  0  0  0999 V2000
   45.8400   34.3990   42.0490 N   0  0  0  0  0  0  0  0  0  0  0  0
   45.1750   34.1410   40.9130 C   0  0  0  0  0  0  0  0  0  0  0  0
   46.0310   34.0200   39.8890 N   0  0  0  0  0  0  0  0  0  0  0  0
   47.2520   34.2100   40.4090 C   0  0  0  0  0  0  0  0  0  0  0  0
   47.1550   34.4480   41.7620 N   0  0  0  0  0  0  0  0  0  0  0  0
   48.5650   34.1970   39.7860 N   0  0  0  0  0  0  0  0  0  0  0  0
   43.7520   34.0320   40.9200 N   0  0  0  0  0  0  0  0  0  0  0  0
   43.1200   34.9590   40.1440 C   0  0  0  0  0  0  0  0  0  0  0  0
   41.7380   34.9130   40.1040 C   0  0  0  0  0  0  0  0  0  0  0  0
   41.0800   33.9460   40.8390 C   0  0  0  0  0  0  0  0  0  0  0  0
   39.8210   33.9010   40.8050 O   0  0  0  0  0  0  0  0  0  0  0  0
   41.7310   33.0270   41.6080 N   0  0  0  0  0  0  0  0  0  0  0  0
   43.0750   33.1040   41.6230 C   0  0  0  0  0  0  0  0  0  0  0  0
   43.7360   32.2820   42.3160 O   0  0  0  0  0  0  0  0  0  0  0  0
   44.4290   35.8360   45.2000 C   0  0  0  0  0  0  0  0  0  0  0  0
   44.7350   35.7260   43.8500 C   0  0  0  0  0  0  0  0  0  0  0  0
   45.4670   34.6180   43.4030 C   0  0  0  0  0  0  0  0  0  0  0  0
   45.8490   33.6900   44.3280 N   0  0  0  0  0  0  0  0  0  0  0  0
   45.5260   33.8330   45.6520 C   0  0  0  0  0  0  0  0  0  0  0  0
   44.8290   34.8940   46.0600 N   0  0  0  0  0  0  0  0  0  0  0  0
   49.4067   34.3667   40.3549 H   0  0  0  0  0  0  0  0  0  0  0  0
   48.6538   34.0181   38.7755 H   0  0  0  0  0  0  0  0  0  0  0  0
   43.6853   35.7112   39.5742 H   0  0  0  0  0  0  0  0  0  0  0  0
   41.1721   35.6348   39.4967 H   0  0  0  0  0  0  0  0  0  0  0  0
   41.2220   32.3127   42.1481 H   0  0  0  0  0  0  0  0  0  0  0  0
   43.8553   36.7015   45.5631 H   0  0  0  0  0  0  0  0  0  0  0  0
   44.4067   36.4994   43.1400 H   0  0  0  0  0  0  0  0  0  0  0  0
   45.8423   33.0711   46.3796 H   0  0  0  0  0  0  0  0  0  0  0  0
  1 17  1  0
  2  7  1  0
  2  1  1  0
  3  4  1  0
  3  2  2  0
  4  5  2  0
  5  1  1  0
  6  4  1  0
  7 13  1  0
  8  7  1  0
  9  8  2  0
  9 10  1  0
 10 12  1  0
 11 10  2  0
 12 13  1  0
 13 14  2  0
 15 20  2  0
 16 15  1  0
 17 16  2  0
 17 18  1  0
 18 19  2  0
 19 20  1  0
  6 21  1  0
  6 22  1  0
  8 23  1  0
  9 24  1  0
 12 25  1  0
 15 26  1  0
 16 27  1  0
 19 28  1  0
M  ISO  6  23  14  24  14  25   9  26  14  27  14  28  14
M  END
>  <minimizedAffinity>  (1) 
-5.83826113

>  <minimizedRMSD>  (1) 
1.3755306

$$$$
