
     RDKit          3D

 24 26  0  0  0  0  0  0  0  0999 V2000
   48.4000   35.2500   40.8000 C   0  0  0  0  0  0  0  0  0  0  0  0
   48.1210   34.2040   39.9020 C   0  0  0  0  0  0  0  0  0  0  0  0
   47.1090   33.2890   40.2740 C   0  0  0  0  0  0  0  0  0  0  0  0
   46.4910   33.5010   41.4700 N   0  0  0  0  0  0  0  0  0  0  0  0
   46.7910   34.5100   42.2900 C   0  0  0  0  0  0  0  0  0  0  0  0
   47.7480   35.4050   41.9750 N   0  0  0  0  0  0  0  0  0  0  0  0
   46.0760   34.6390   43.5270 N   0  0  0  0  0  0  0  0  0  0  0  0
   45.2200   35.5500   44.0260 C   0  0  0  0  0  0  0  0  0  0  0  0
   44.8470   35.1680   45.2600 N   0  0  0  0  0  0  0  0  0  0  0  0
   45.4780   33.9970   45.5430 C   0  0  0  0  0  0  0  0  0  0  0  0
   45.4140   33.2240   46.6810 C   0  0  0  0  0  0  0  0  0  0  0  0
   46.1440   32.1010   46.7070 N   0  0  0  0  0  0  0  0  0  0  0  0
   46.9180   31.7370   45.6540 C   0  0  0  0  0  0  0  0  0  0  0  0
   46.9570   32.5150   44.5620 N   0  0  0  0  0  0  0  0  0  0  0  0
   46.2540   33.6580   44.4580 C   0  0  0  0  0  0  0  0  0  0  0  0
   44.6220   33.5690   47.7930 N   0  0  0  0  0  0  0  0  0  0  0  0
   47.8580   30.2310   45.7670 S   0  0  0  0  0  0  0  0  0  0  0  0
   49.1838   35.9748   40.5348 H   0  0  0  0  0  0  0  0  0  0  0  0
   48.6661   34.1022   38.9520 H   0  0  0  0  0  0  0  0  0  0  0  0
   46.8328   32.4436   39.6267 H   0  0  0  0  0  0  0  0  0  0  0  0
   44.8807   36.4593   43.5083 H   0  0  0  0  0  0  0  0  0  0  0  0
   44.6059   32.9592   48.6229 H   0  0  0  0  0  0  0  0  0  0  0  0
   44.0588   34.4312   47.7765 H   0  0  0  0  0  0  0  0  0  0  0  0
   48.0559   29.9140   47.0851 H   0  0  0  0  0  0  0  0  0  0  0  0
  1  6  2  0
  2  3  2  0
  2  1  1  0
  3  4  1  0
  4  5  2  0
  5  7  1  0
  6  5  1  0
  7  8  1  0
  7 15  1  0
  8  9  2  0
  9 10  1  0
 10 11  2  0
 11 12  1  0
 11 16  1  0
 13 17  1  0
 13 12  2  0
 14 13  1  0
 15 14  2  0
 15 10  1  0
  1 18  1  0
  2 19  1  0
  3 20  1  0
  8 21  1  0
 16 22  1  0
 16 23  1  0
 17 24  1  0
M  ISO  5  18  14  19  14  20  14  21  14  24  11
M  END
>  <minimizedAffinity>  (1) 
-5.74702835

>  <minimizedRMSD>  (1) 
0.111055769

$$$$
