
     RDKit          3D

 23 23  0  0  0  0  0  0  0  0999 V2000
   48.4720   34.4010   41.7900 C   0  0  0  0  0  0  0  0  0  0  0  0
   46.3520   33.6430   44.7100 C   0  0  0  0  0  0  0  0  0  0  0  0
   45.2660   34.5390   44.5670 C   0  0  0  0  0  0  0  0  0  0  0  0
   45.2740   35.3960   43.4650 C   0  0  0  0  0  0  0  0  0  0  0  0
   46.3270   35.3230   42.5880 N   0  0  0  0  0  0  0  0  0  0  0  0
   47.3440   34.4480   42.7690 C   0  0  0  0  0  0  0  0  0  0  0  0
   47.3510   33.6210   43.8180 N   0  0  0  0  0  0  0  0  0  0  0  0
   47.9010   34.6030   40.4060 C   0  0  0  0  0  0  0  0  0  0  0  0
   49.0920   33.0350   41.8020 C   0  0  0  0  0  0  0  0  0  0  0  0
   49.5010   35.4740   42.0790 C   0  0  0  0  0  0  0  0  0  0  0  0
   50.1840   35.1730   43.2470 O   0  0  0  0  0  0  0  0  0  0  0  0
   46.3761   32.9539   45.5670 H   0  0  0  0  0  0  0  0  0  0  0  0
   44.4446   34.5595   45.2983 H   0  0  0  0  0  0  0  0  0  0  0  0
   44.4555   36.1129   43.3035 H   0  0  0  0  0  0  0  0  0  0  0  0
   46.8667   34.9689   40.4859 H   0  0  0  0  0  0  0  0  0  0  0  0
   48.5098   35.3403   39.8622 H   0  0  0  0  0  0  0  0  0  0  0  0
   47.9107   33.6469   39.8622 H   0  0  0  0  0  0  0  0  0  0  0  0
   49.2401   32.7087   42.8420 H   0  0  0  0  0  0  0  0  0  0  0  0
   48.4274   32.3261   41.2864 H   0  0  0  0  0  0  0  0  0  0  0  0
   50.0631   33.0686   41.2864 H   0  0  0  0  0  0  0  0  0  0  0  0
   50.2145   35.5291   41.2436 H   0  0  0  0  0  0  0  0  0  0  0  0
   48.9907   36.4412   42.1979 H   0  0  0  0  0  0  0  0  0  0  0  0
   49.6269   35.4185   44.0277 H   0  0  0  0  0  0  0  0  0  0  0  0
  1  9  1  0
  1 10  1  0
  1  6  1  0
  3  2  2  0
  4  3  1  0
  5  6  1  0
  5  4  2  0
  6  7  2  0
  7  2  1  0
  8  1  1  0
 10 11  1  0
  2 12  1  0
  3 13  1  0
  4 14  1  0
  8 15  1  0
  8 16  1  0
  8 17  1  0
  9 18  1  0
  9 19  1  0
  9 20  1  0
 10 21  1  0
 10 22  1  0
 11 23  1  0
M  ISO  8  12  14  13  14  14  14  15   8  16   8  17   8  18   8  19   8
M  ISO  4  20   8  21   8  22   8  23   3
M  END
>  <minimizedAffinity>  (1) 
-4.27399397

>  <minimizedRMSD>  (1) 
0.589893162

$$$$
