
     RDKit          3D

 28 29  0  0  0  0  0  0  0  0999 V2000
   45.3010   33.6160   41.1600 C   0  0  0  0  0  0  0  0  0  0  0  0
   45.3040   33.9340   44.8360 C   0  0  0  0  0  0  0  0  0  0  0  0
   44.9370   35.2870   45.0420 C   0  0  0  0  0  0  0  0  0  0  0  0
   44.6900   36.0800   43.9100 C   0  0  0  0  0  0  0  0  0  0  0  0
   44.8220   35.4930   42.6800 N   0  0  0  0  0  0  0  0  0  0  0  0
   45.1710   34.2110   42.5210 C   0  0  0  0  0  0  0  0  0  0  0  0
   45.4100   33.4420   43.6040 N   0  0  0  0  0  0  0  0  0  0  0  0
   44.0440   33.9260   40.3900 C   0  0  0  0  0  0  0  0  0  0  0  0
   45.3600   32.1070   41.2750 C   0  0  0  0  0  0  0  0  0  0  0  0
   46.4870   34.1560   40.4300 C   0  0  0  0  0  0  0  0  0  0  0  0
   47.7400   34.0730   41.2130 C   0  0  0  0  0  0  0  0  0  0  0  0
   48.4090   35.3620   41.6630 C   0  0  0  0  0  0  0  0  0  0  0  0
   49.8140   34.7700   42.5280 S   0  0  0  0  0  0  0  0  0  0  0  0
   49.3800   32.9290   42.2110 C   0  0  0  0  0  0  0  0  0  0  0  0
   48.3630   32.9720   41.5750 N   0  0  0  0  0  0  0  0  0  0  0  0
   45.5029   33.2849   45.7015 H   0  0  0  0  0  0  0  0  0  0  0  0
   44.8484   35.7028   46.0565 H   0  0  0  0  0  0  0  0  0  0  0  0
   44.4004   37.1367   44.0079 H   0  0  0  0  0  0  0  0  0  0  0  0
   43.2233   34.1284   41.0939 H   0  0  0  0  0  0  0  0  0  0  0  0
   44.2104   34.8100   39.7569 H   0  0  0  0  0  0  0  0  0  0  0  0
   43.7803   33.0660   39.7569 H   0  0  0  0  0  0  0  0  0  0  0  0
   45.3712   31.8204   42.3369 H   0  0  0  0  0  0  0  0  0  0  0  0
   44.4784   31.6672   40.7858 H   0  0  0  0  0  0  0  0  0  0  0  0
   46.2733   31.7374   40.7858 H   0  0  0  0  0  0  0  0  0  0  0  0
   46.6167   33.5821   39.5006 H   0  0  0  0  0  0  0  0  0  0  0  0
   46.2936   35.2210   40.2340 H   0  0  0  0  0  0  0  0  0  0  0  0
   48.0922   36.4011   41.4899 H   0  0  0  0  0  0  0  0  0  0  0  0
   49.9359   32.0377   42.5374 H   0  0  0  0  0  0  0  0  0  0  0  0
  1  9  1  0
  1  6  1  0
  2  3  2  0
  4  3  1  0
  5  4  2  0
  6  5  1  0
  6  7  2  0
  7  2  1  0
  8  1  1  0
 10  1  1  0
 10 11  1  0
 11 15  1  0
 11 12  2  0
 12 13  1  0
 14 13  1  0
 15 14  2  0
  2 16  1  0
  3 17  1  0
  4 18  1  0
  8 19  1  0
  8 20  1  0
  8 21  1  0
  9 22  1  0
  9 23  1  0
  9 24  1  0
 10 25  1  0
 10 26  1  0
 12 27  1  0
 14 28  1  0
M  ISO  8  16  14  17  14  18  14  19   8  20   8  21   8  22   8  23   8
M  ISO  5  24   8  25   8  26   8  27  14  28  14
M  END
>  <minimizedAffinity>  (1) 
-3.78625822

>  <minimizedRMSD>  (1) 
3.17979479

$$$$
