
     RDKit          3D

 27 28  0  0  0  0  0  0  0  0999 V2000
   46.0000   33.6130   41.1300 C   0  0  0  0  0  0  0  0  0  0  0  0
   45.4040   34.0370   44.7310 C   0  0  0  0  0  0  0  0  0  0  0  0
   44.9270   35.3690   44.8290 C   0  0  0  0  0  0  0  0  0  0  0  0
   44.8140   36.1140   43.6410 C   0  0  0  0  0  0  0  0  0  0  0  0
   45.1750   35.5020   42.4650 N   0  0  0  0  0  0  0  0  0  0  0  0
   45.6230   34.2290   42.4330 C   0  0  0  0  0  0  0  0  0  0  0  0
   45.7330   33.5150   43.5500 N   0  0  0  0  0  0  0  0  0  0  0  0
   44.8010   33.6520   40.2070 C   0  0  0  0  0  0  0  0  0  0  0  0
   46.3180   32.1490   41.3440 C   0  0  0  0  0  0  0  0  0  0  0  0
   47.1270   34.3280   40.4530 C   0  0  0  0  0  0  0  0  0  0  0  0
   48.2940   34.5870   41.2940 C   0  0  0  0  0  0  0  0  0  0  0  0
   48.8040   35.6880   41.8750 N   0  0  0  0  0  0  0  0  0  0  0  0
   49.8950   35.3870   42.5430 O   0  0  0  0  0  0  0  0  0  0  0  0
   50.1320   34.1030   42.4240 C   0  0  0  0  0  0  0  0  0  0  0  0
   49.1550   33.5940   41.6570 N   0  0  0  0  0  0  0  0  0  0  0  0
   45.5036   33.4273   45.6411 H   0  0  0  0  0  0  0  0  0  0  0  0
   44.6545   35.8050   45.8014 H   0  0  0  0  0  0  0  0  0  0  0  0
   44.4489   37.1516   43.6532 H   0  0  0  0  0  0  0  0  0  0  0  0
   43.8785   33.6820   40.8054 H   0  0  0  0  0  0  0  0  0  0  0  0
   44.8558   34.5488   39.5724 H   0  0  0  0  0  0  0  0  0  0  0  0
   44.7974   32.7535   39.5724 H   0  0  0  0  0  0  0  0  0  0  0  0
   46.3639   31.9376   42.4225 H   0  0  0  0  0  0  0  0  0  0  0  0
   45.5329   31.5320   40.8825 H   0  0  0  0  0  0  0  0  0  0  0  0
   47.2883   31.9133   40.8825 H   0  0  0  0  0  0  0  0  0  0  0  0
   47.4525   33.7175   39.5978 H   0  0  0  0  0  0  0  0  0  0  0  0
   46.7337   35.3139   40.1645 H   0  0  0  0  0  0  0  0  0  0  0  0
   50.9717   33.5484   42.8682 H   0  0  0  0  0  0  0  0  0  0  0  0
  1  9  1  0
  1  6  1  0
  2  3  2  0
  4  3  1  0
  5  4  2  0
  6  5  1  0
  6  7  2  0
  7  2  1  0
  8  1  1  0
 10  1  1  0
 10 11  1  0
 11 15  1  0
 11 12  2  0
 12 13  1  0
 14 13  1  0
 15 14  2  0
  2 16  1  0
  3 17  1  0
  4 18  1  0
  8 19  1  0
  8 20  1  0
  8 21  1  0
  9 22  1  0
  9 23  1  0
  9 24  1  0
 10 25  1  0
 10 26  1  0
 14 27  1  0
M  ISO  8  16  14  17  14  18  14  19   8  20   8  21   8  22   8  23   8
M  ISO  4  24   8  25   8  26   8  27  14
M  END
>  <minimizedAffinity>  (1) 
-4.04331732

>  <minimizedRMSD>  (1) 
2.59932137

$$$$
