
     RDKit          3D

 17 18  0  0  0  0  0  0  0  0999 V2000
   44.5140   35.8980   44.7070 C   0  0  0  0  0  0  0  0  0  0  0  0
   45.2580   35.6250   43.5540 C   0  0  0  0  0  0  0  0  0  0  0  0
   46.1120   34.5180   43.5380 C   0  0  0  0  0  0  0  0  0  0  0  0
   46.1590   33.7690   44.6680 N   0  0  0  0  0  0  0  0  0  0  0  0
   45.4350   34.0460   45.7670 C   0  0  0  0  0  0  0  0  0  0  0  0
   44.6200   35.1110   45.7720 N   0  0  0  0  0  0  0  0  0  0  0  0
   46.9400   34.1610   42.3480 C   0  0  0  0  0  0  0  0  0  0  0  0
   46.9930   32.8890   41.8830 C   0  0  0  0  0  0  0  0  0  0  0  0
   48.1110   32.9950   40.4590 S   0  0  0  0  0  0  0  0  0  0  0  0
   48.3260   34.8480   40.7550 C   0  0  0  0  0  0  0  0  0  0  0  0
   47.6540   35.0250   41.6850 N   0  0  0  0  0  0  0  0  0  0  0  0
   49.1110   35.8880   40.0560 O   0  0  0  0  0  0  0  0  0  0  0  0
   43.8395   36.7666   44.7317 H   0  0  0  0  0  0  0  0  0  0  0  0
   45.1721   36.2740   42.6700 H   0  0  0  0  0  0  0  0  0  0  0  0
   45.5109   33.4030   46.6563 H   0  0  0  0  0  0  0  0  0  0  0  0
   46.4783   32.0003   42.2771 H   0  0  0  0  0  0  0  0  0  0  0  0
   49.0883   36.8244   40.3766 H   0  0  0  0  0  0  0  0  0  0  0  0
  1  6  2  0
  2  1  1  0
  3  2  2  0
  3  4  1  0
  4  5  2  0
  5  6  1  0
  7  3  1  0
  8  7  2  0
  9 10  1  0
  9  8  1  0
 10 11  2  0
 11  7  1  0
 12 10  1  0
  1 13  1  0
  2 14  1  0
  5 15  1  0
  8 16  1  0
 12 17  1  0
M  ISO  5  13  14  14  14  15  14  16  14  17   3
M  END
>  <minimizedAffinity>  (1) 
-4.42657995

>  <minimizedRMSD>  (1) 
0.79826206

$$$$
