
     RDKit          3D

 30 31  0  0  0  0  0  0  0  0999 V2000
   46.1160   34.3290   42.2910 C   0  0  0  0  0  0  0  0  0  0  0  0
   49.4270   32.7450   42.4880 C   0  0  0  0  0  0  0  0  0  0  0  0
   50.3170   33.8520   42.4340 C   0  0  0  0  0  0  0  0  0  0  0  0
   49.7570   35.1340   42.3300 C   0  0  0  0  0  0  0  0  0  0  0  0
   48.3840   35.2500   42.2860 N   0  0  0  0  0  0  0  0  0  0  0  0
   47.5970   34.1550   42.3420 C   0  0  0  0  0  0  0  0  0  0  0  0
   48.1090   32.9430   42.4390 N   0  0  0  0  0  0  0  0  0  0  0  0
   45.7400   35.5950   43.0130 C   0  0  0  0  0  0  0  0  0  0  0  0
   45.4570   33.2000   43.0640 C   0  0  0  0  0  0  0  0  0  0  0  0
   45.5970   34.4180   40.8970 C   0  0  0  0  0  0  0  0  0  0  0  0
   44.1510   34.1930   40.7440 C   0  0  0  0  0  0  0  0  0  0  0  0
   43.4100   33.1470   40.3430 N   0  0  0  0  0  0  0  0  0  0  0  0
   42.1390   33.4520   40.3840 O   0  0  0  0  0  0  0  0  0  0  0  0
   42.0020   34.6910   40.8050 C   0  0  0  0  0  0  0  0  0  0  0  0
   43.2440   35.1560   41.0300 N   0  0  0  0  0  0  0  0  0  0  0  0
   40.6560   35.3200   40.9540 C   0  0  0  0  0  0  0  0  0  0  0  0
   39.9730   35.1290   39.7710 F   0  0  0  0  0  0  0  0  0  0  0  0
   40.7870   36.6890   41.1740 F   0  0  0  0  0  0  0  0  0  0  0  0
   39.9700   34.7310   41.9920 F   0  0  0  0  0  0  0  0  0  0  0  0
   49.8260   31.7232   42.5703 H   0  0  0  0  0  0  0  0  0  0  0  0
   51.4069   33.7084   42.4724 H   0  0  0  0  0  0  0  0  0  0  0  0
   50.3987   36.0263   42.2846 H   0  0  0  0  0  0  0  0  0  0  0  0
   45.7900   35.4265   44.0989 H   0  0  0  0  0  0  0  0  0  0  0  0
   46.4386   36.3976   42.7339 H   0  0  0  0  0  0  0  0  0  0  0  0
   44.7166   35.8862   42.7339 H   0  0  0  0  0  0  0  0  0  0  0  0
   45.5640   33.3833   44.1433 H   0  0  0  0  0  0  0  0  0  0  0  0
   44.3892   33.1522   42.8043 H   0  0  0  0  0  0  0  0  0  0  0  0
   45.9405   32.2467   42.8043 H   0  0  0  0  0  0  0  0  0  0  0  0
   45.8260   35.4233   40.5136 H   0  0  0  0  0  0  0  0  0  0  0  0
   46.0894   33.6079   40.3391 H   0  0  0  0  0  0  0  0  0  0  0  0
  1  6  1  0
  1  8  1  0
  1  9  1  0
  3  2  2  0
  4  3  1  0
  5  4  2  0
  5  6  1  0
  6  7  2  0
  7  2  1  0
 10  1  1  0
 11 10  1  0
 11 15  1  0
 12 13  1  0
 12 11  2  0
 13 14  1  0
 14 16  1  0
 14 15  2  0
 16 18  1  0
 16 19  1  0
 17 16  1  0
  2 20  1  0
  3 21  1  0
  4 22  1  0
  8 23  1  0
  8 24  1  0
  8 25  1  0
  9 26  1  0
  9 27  1  0
  9 28  1  0
 10 29  1  0
 10 30  1  0
M  ISO  8  20  14  21  14  22  14  23   8  24   8  25   8  26   8  27   8
M  ISO  3  28   8  29   8  30   8
M  END
>  <minimizedAffinity>  (1) 
-4.94493151

>  <minimizedRMSD>  (1) 
6.94982767

$$$$
