
     RDKit          3D

 37 39  0  0  0  0  0  0  0  0999 V2000
   45.8240   33.8430   41.5070 C   0  0  0  0  0  0  0  0  0  0  0  0
   45.3880   33.9260   45.1560 C   0  0  0  0  0  0  0  0  0  0  0  0
   44.8390   35.2080   45.3790 C   0  0  0  0  0  0  0  0  0  0  0  0
   44.6180   36.0440   44.2740 C   0  0  0  0  0  0  0  0  0  0  0  0
   44.9600   35.5420   43.0300 N   0  0  0  0  0  0  0  0  0  0  0  0
   45.4790   34.3170   42.8750 C   0  0  0  0  0  0  0  0  0  0  0  0
   45.6930   33.5140   43.9200 N   0  0  0  0  0  0  0  0  0  0  0  0
   44.6650   34.1260   40.5850 C   0  0  0  0  0  0  0  0  0  0  0  0
   45.9700   32.3300   41.5230 C   0  0  0  0  0  0  0  0  0  0  0  0
   47.0410   34.5050   40.9420 C   0  0  0  0  0  0  0  0  0  0  0  0
   48.2940   34.1520   41.6000 C   0  0  0  0  0  0  0  0  0  0  0  0
   49.0270   34.7050   42.5800 N   0  0  0  0  0  0  0  0  0  0  0  0
   50.1020   33.9860   42.8160 O   0  0  0  0  0  0  0  0  0  0  0  0
   50.1110   32.9540   42.0140 C   0  0  0  0  0  0  0  0  0  0  0  0
   49.0020   33.0340   41.2510 N   0  0  0  0  0  0  0  0  0  0  0  0
   51.0700   31.8590   41.8700 C   0  0  0  0  0  0  0  0  0  0  0  0
   51.3120   30.8830   42.8110 C   0  0  0  0  0  0  0  0  0  0  0  0
   52.2450   29.8880   42.5730 C   0  0  0  0  0  0  0  0  0  0  0  0
   52.9640   29.8500   41.3730 C   0  0  0  0  0  0  0  0  0  0  0  0
   52.6960   30.8430   40.4520 C   0  0  0  0  0  0  0  0  0  0  0  0
   51.7720   31.8480   40.6600 C   0  0  0  0  0  0  0  0  0  0  0  0
   45.5674   33.2568   46.0104 H   0  0  0  0  0  0  0  0  0  0  0  0
   44.5901   35.5437   46.3965 H   0  0  0  0  0  0  0  0  0  0  0  0
   44.1927   37.0517   44.3908 H   0  0  0  0  0  0  0  0  0  0  0  0
   43.7671   34.3452   41.1814 H   0  0  0  0  0  0  0  0  0  0  0  0
   44.9042   34.9921   39.9505 H   0  0  0  0  0  0  0  0  0  0  0  0
   44.4781   33.2471   39.9505 H   0  0  0  0  0  0  0  0  0  0  0  0
   46.0042   31.9759   42.5639 H   0  0  0  0  0  0  0  0  0  0  0  0
   45.1117   31.8733   41.0083 H   0  0  0  0  0  0  0  0  0  0  0  0
   46.8997   32.0459   41.0083 H   0  0  0  0  0  0  0  0  0  0  0  0
   47.1212   34.2244   39.8814 H   0  0  0  0  0  0  0  0  0  0  0  0
   46.9047   35.5854   41.0977 H   0  0  0  0  0  0  0  0  0  0  0  0
   50.7584   30.8940   43.7615 H   0  0  0  0  0  0  0  0  0  0  0  0
   52.4234   29.1172   43.3372 H   0  0  0  0  0  0  0  0  0  0  0  0
   53.7083   29.0652   41.1728 H   0  0  0  0  0  0  0  0  0  0  0  0
   53.2485   30.8331   39.5009 H   0  0  0  0  0  0  0  0  0  0  0  0
   51.5930   32.6184   39.8955 H   0  0  0  0  0  0  0  0  0  0  0  0
  1  9  1  0
  1  6  1  0
  2  3  2  0
  4  3  1  0
  5  4  2  0
  6  5  1  0
  6  7  2  0
  7  2  1  0
  8  1  1  0
 10  1  1  0
 10 11  1  0
 11 12  2  0
 12 13  1  0
 14 13  1  0
 15 11  1  0
 15 14  2  0
 16 14  1  0
 16 17  2  0
 18 17  1  0
 19 18  2  0
 20 21  2  0
 20 19  1  0
 21 16  1  0
  2 22  1  0
  3 23  1  0
  4 24  1  0
  8 25  1  0
  8 26  1  0
  8 27  1  0
  9 28  1  0
  9 29  1  0
  9 30  1  0
 10 31  1  0
 10 32  1  0
 17 33  1  0
 18 34  1  0
 19 35  1  0
 20 36  1  0
 21 37  1  0
M  ISO  8  22  14  23  14  24  14  25   8  26   8  27   8  28   8  29   8
M  ISO  8  30   8  31   8  32   8  33  14  34  14  35  14  36  14  37  14
M  END
>  <minimizedAffinity>  (1) 
-4.74120283

>  <minimizedRMSD>  (1) 
1.48281741

$$$$
