
     RDKit          3D

 43 45  0  0  0  0  0  0  0  0999 V2000
   45.1080   34.9220   43.5600 C   0  0  0  0  0  0  0  0  0  0  0  0
   45.7300   31.3730   44.2440 C   0  0  0  0  0  0  0  0  0  0  0  0
   46.4070   31.3880   45.4900 C   0  0  0  0  0  0  0  0  0  0  0  0
   46.6430   32.6370   46.0860 C   0  0  0  0  0  0  0  0  0  0  0  0
   46.2060   33.7690   45.4290 N   0  0  0  0  0  0  0  0  0  0  0  0
   45.5630   33.6870   44.2360 C   0  0  0  0  0  0  0  0  0  0  0  0
   45.3400   32.5050   43.6740 N   0  0  0  0  0  0  0  0  0  0  0  0
   44.4210   35.8120   44.5760 C   0  0  0  0  0  0  0  0  0  0  0  0
   44.0610   34.5790   42.5260 C   0  0  0  0  0  0  0  0  0  0  0  0
   46.2380   35.7000   42.9580 C   0  0  0  0  0  0  0  0  0  0  0  0
   47.1450   34.9340   42.1090 C   0  0  0  0  0  0  0  0  0  0  0  0
   48.3790   34.4070   42.2880 N   0  0  0  0  0  0  0  0  0  0  0  0
   48.7710   33.7990   41.2000 O   0  0  0  0  0  0  0  0  0  0  0  0
   47.8330   33.9000   40.2850 C   0  0  0  0  0  0  0  0  0  0  0  0
   46.8280   34.5940   40.8250 N   0  0  0  0  0  0  0  0  0  0  0  0
   47.8260   33.3690   38.8970 C   0  0  0  0  0  0  0  0  0  0  0  0
   48.3650   34.3820   37.9110 C   0  0  0  0  0  0  0  0  0  0  0  0
   48.6270   33.6310   36.6260 C   0  0  0  0  0  0  0  0  0  0  0  0
   47.5100   32.7330   36.2390 C   0  0  0  0  0  0  0  0  0  0  0  0
   46.2510   32.8520   37.0090 C   0  0  0  0  0  0  0  0  0  0  0  0
   46.4180   33.0230   38.4870 C   0  0  0  0  0  0  0  0  0  0  0  0
   45.5265   30.4136   43.7458 H   0  0  0  0  0  0  0  0  0  0  0  0
   46.7352   30.4552   45.9718 H   0  0  0  0  0  0  0  0  0  0  0  0
   47.1632   32.7114   47.0524 H   0  0  0  0  0  0  0  0  0  0  0  0
   44.6797   35.4769   45.5913 H   0  0  0  0  0  0  0  0  0  0  0  0
   44.7533   36.8514   44.4371 H   0  0  0  0  0  0  0  0  0  0  0  0
   43.3314   35.7538   44.4371 H   0  0  0  0  0  0  0  0  0  0  0  0
   43.1325   34.2748   43.0313 H   0  0  0  0  0  0  0  0  0  0  0  0
   43.8645   35.4597   41.8970 H   0  0  0  0  0  0  0  0  0  0  0  0
   44.4238   33.7527   41.8970 H   0  0  0  0  0  0  0  0  0  0  0  0
   45.8067   36.5091   42.3502 H   0  0  0  0  0  0  0  0  0  0  0  0
   46.8442   36.0564   43.8039 H   0  0  0  0  0  0  0  0  0  0  0  0
   48.4683   32.4761   38.8856 H   0  0  0  0  0  0  0  0  0  0  0  0
   47.6256   35.1786   37.7418 H   0  0  0  0  0  0  0  0  0  0  0  0
   49.2825   34.8566   38.2891 H   0  0  0  0  0  0  0  0  0  0  0  0
   48.7845   34.3618   35.8191 H   0  0  0  0  0  0  0  0  0  0  0  0
   49.5136   33.0006   36.7891 H   0  0  0  0  0  0  0  0  0  0  0  0
   47.2733   32.9344   35.1838 H   0  0  0  0  0  0  0  0  0  0  0  0
   47.8763   31.7170   36.4479 H   0  0  0  0  0  0  0  0  0  0  0  0
   45.6998   33.7236   36.6263 H   0  0  0  0  0  0  0  0  0  0  0  0
   45.7194   31.8988   36.8715 H   0  0  0  0  0  0  0  0  0  0  0  0
   45.7497   33.8300   38.8218 H   0  0  0  0  0  0  0  0  0  0  0  0
   46.1731   32.0576   38.9540 H   0  0  0  0  0  0  0  0  0  0  0  0
  1  6  1  0
  1  8  1  0
  2  3  2  0
  3  4  1  0
  5  4  2  0
  6  5  1  0
  7  6  2  0
  7  2  1  0
  9  1  1  0
 10  1  1  0
 11 12  2  0
 11 10  1  0
 13 12  1  0
 14 15  2  0
 14 13  1  0
 15 11  1  0
 16 14  1  0
 17 16  1  0
 18 17  1  0
 19 18  1  0
 19 20  1  0
 20 21  1  0
 21 16  1  0
  2 22  1  0
  3 23  1  0
  4 24  1  0
  8 25  1  0
  8 26  1  0
  8 27  1  0
  9 28  1  0
  9 29  1  0
  9 30  1  0
 10 31  1  0
 10 32  1  0
 16 33  1  0
 17 34  1  0
 17 35  1  0
 18 36  1  0
 18 37  1  0
 19 38  1  0
 19 39  1  0
 20 40  1  0
 20 41  1  0
 21 42  1  0
 21 43  1  0
M  ISO  8  22  14  23  14  24  14  25   8  26   8  27   8  28   8  29   8
M  ISO  8  30   8  31   8  32   8  33  13  34  13  35  13  36  13  37  13
M  ISO  6  38  13  39  13  40  13  41  13  42  13  43  13
M  END
>  <minimizedAffinity>  (1) 
-4.94444656

>  <minimizedRMSD>  (1) 
4.91292048

$$$$
