
     RDKit          3D

 35 37  0  0  0  0  0  0  0  0999 V2000
   45.8130   33.8920   41.5770 C   0  0  0  0  0  0  0  0  0  0  0  0
   45.4020   33.9470   45.2230 C   0  0  0  0  0  0  0  0  0  0  0  0
   44.7890   35.2000   45.4730 C   0  0  0  0  0  0  0  0  0  0  0  0
   44.5260   36.0110   44.3660 C   0  0  0  0  0  0  0  0  0  0  0  0
   44.8720   35.5560   43.1200 N   0  0  0  0  0  0  0  0  0  0  0  0
   45.4550   34.3480   42.9410 C   0  0  0  0  0  0  0  0  0  0  0  0
   45.7130   33.5630   43.9910 N   0  0  0  0  0  0  0  0  0  0  0  0
   44.6620   34.2030   40.6400 C   0  0  0  0  0  0  0  0  0  0  0  0
   45.9750   32.3910   41.5720 C   0  0  0  0  0  0  0  0  0  0  0  0
   47.0320   34.5730   41.0390 C   0  0  0  0  0  0  0  0  0  0  0  0
   48.2970   34.1350   41.6240 C   0  0  0  0  0  0  0  0  0  0  0  0
   49.0830   34.6030   42.6190 N   0  0  0  0  0  0  0  0  0  0  0  0
   50.1450   33.8280   42.7620 O   0  0  0  0  0  0  0  0  0  0  0  0
   50.0770   32.8640   41.8890 C   0  0  0  0  0  0  0  0  0  0  0  0
   48.9610   33.0220   41.1770 N   0  0  0  0  0  0  0  0  0  0  0  0
   51.0960   31.8250   41.7760 C   0  0  0  0  0  0  0  0  0  0  0  0
   51.8860   31.7740   40.6470 C   0  0  0  0  0  0  0  0  0  0  0  0
   52.8890   30.8240   40.4390 C   0  0  0  0  0  0  0  0  0  0  0  0
   53.0750   29.9090   41.4190 N   0  0  0  0  0  0  0  0  0  0  0  0
   52.3050   29.9580   42.5200 C   0  0  0  0  0  0  0  0  0  0  0  0
   51.3300   30.8920   42.7110 N   0  0  0  0  0  0  0  0  0  0  0  0
   45.6248   33.2785   46.0677 H   0  0  0  0  0  0  0  0  0  0  0  0
   44.5316   35.5200   46.4935 H   0  0  0  0  0  0  0  0  0  0  0  0
   44.0508   36.9950   44.4918 H   0  0  0  0  0  0  0  0  0  0  0  0
   43.7650   34.4454   41.2288 H   0  0  0  0  0  0  0  0  0  0  0  0
   44.9273   35.0617   40.0057 H   0  0  0  0  0  0  0  0  0  0  0  0
   44.4587   33.3276   40.0057 H   0  0  0  0  0  0  0  0  0  0  0  0
   46.0147   32.0230   42.6079 H   0  0  0  0  0  0  0  0  0  0  0  0
   45.1212   31.9318   41.0522 H   0  0  0  0  0  0  0  0  0  0  0  0
   46.9071   32.1245   41.0522 H   0  0  0  0  0  0  0  0  0  0  0  0
   47.0755   34.3875   39.9556 H   0  0  0  0  0  0  0  0  0  0  0  0
   46.9274   35.6369   41.2981 H   0  0  0  0  0  0  0  0  0  0  0  0
   51.7163   32.5266   39.8629 H   0  0  0  0  0  0  0  0  0  0  0  0
   53.4982   30.8198   39.5231 H   0  0  0  0  0  0  0  0  0  0  0  0
   52.4698   29.2068   43.3064 H   0  0  0  0  0  0  0  0  0  0  0  0
  1  6  1  0
  2  3  2  0
  4  3  1  0
  5  4  2  0
  6  5  1  0
  6  7  2  0
  7  2  1  0
  8  1  1  0
  9  1  1  0
 10  1  1  0
 10 11  1  0
 11 12  2  0
 12 13  1  0
 14 13  1  0
 15 11  1  0
 15 14  2  0
 16 14  1  0
 16 21  1  0
 17 16  2  0
 18 17  1  0
 18 19  2  0
 19 20  1  0
 20 21  2  0
  2 22  1  0
  3 23  1  0
  4 24  1  0
  8 25  1  0
  8 26  1  0
  8 27  1  0
  9 28  1  0
  9 29  1  0
  9 30  1  0
 10 31  1  0
 10 32  1  0
 17 33  1  0
 18 34  1  0
 20 35  1  0
M  ISO  8  22  14  23  14  24  14  25   8  26   8  27   8  28   8  29   8
M  ISO  6  30   8  31   8  32   8  33  14  34  14  35  14
M  END
>  <minimizedAffinity>  (1) 
-4.71083689

>  <minimizedRMSD>  (1) 
1.71003389

$$$$
