
     RDKit          3D

 33 34  0  0  0  0  0  0  0  0999 V2000
   45.3780   33.4820   41.5900 C   0  0  0  0  0  0  0  0  0  0  0  0
   45.4180   33.9210   45.2340 C   0  0  0  0  0  0  0  0  0  0  0  0
   44.8320   35.2020   45.4080 C   0  0  0  0  0  0  0  0  0  0  0  0
   44.4290   35.9000   44.2650 C   0  0  0  0  0  0  0  0  0  0  0  0
   44.6290   35.2980   43.0520 N   0  0  0  0  0  0  0  0  0  0  0  0
   45.1880   34.0840   42.9370 C   0  0  0  0  0  0  0  0  0  0  0  0
   45.5710   33.4170   44.0140 N   0  0  0  0  0  0  0  0  0  0  0  0
   44.0520   33.4740   40.8570 C   0  0  0  0  0  0  0  0  0  0  0  0
   45.7630   32.0280   41.7450 C   0  0  0  0  0  0  0  0  0  0  0  0
   46.3680   34.2250   40.7540 C   0  0  0  0  0  0  0  0  0  0  0  0
   47.6680   34.4700   41.3840 C   0  0  0  0  0  0  0  0  0  0  0  0
   48.2290   35.5370   41.9770 N   0  0  0  0  0  0  0  0  0  0  0  0
   49.4440   35.2290   42.3850 O   0  0  0  0  0  0  0  0  0  0  0  0
   49.7060   33.9770   42.0740 C   0  0  0  0  0  0  0  0  0  0  0  0
   48.6240   33.5000   41.4600 N   0  0  0  0  0  0  0  0  0  0  0  0
   50.9500   33.2420   42.3500 C   0  0  0  0  0  0  0  0  0  0  0  0
   51.1480   32.1210   41.3410 C   0  0  0  0  0  0  0  0  0  0  0  0
   45.7463   33.3441   46.1111 H   0  0  0  0  0  0  0  0  0  0  0  0
   44.6989   35.6327   46.4114 H   0  0  0  0  0  0  0  0  0  0  0  0
   43.9682   36.8962   44.3381 H   0  0  0  0  0  0  0  0  0  0  0  0
   43.2294   33.4690   41.5873 H   0  0  0  0  0  0  0  0  0  0  0  0
   43.9765   34.3717   40.2258 H   0  0  0  0  0  0  0  0  0  0  0  0
   43.9874   32.5754   40.2258 H   0  0  0  0  0  0  0  0  0  0  0  0
   45.8291   31.7782   42.8142 H   0  0  0  0  0  0  0  0  0  0  0  0
   45.0017   31.3941   41.2668 H   0  0  0  0  0  0  0  0  0  0  0  0
   46.7382   31.8539   41.2668 H   0  0  0  0  0  0  0  0  0  0  0  0
   45.9285   35.1993   40.4939 H   0  0  0  0  0  0  0  0  0  0  0  0
   46.5703   33.5833   39.8838 H   0  0  0  0  0  0  0  0  0  0  0  0
   51.8007   33.9367   42.2894 H   0  0  0  0  0  0  0  0  0  0  0  0
   50.8856   32.8039   43.3569 H   0  0  0  0  0  0  0  0  0  0  0  0
   51.3154   31.1734   41.8739 H   0  0  0  0  0  0  0  0  0  0  0  0
   50.2514   32.0333   40.7097 H   0  0  0  0  0  0  0  0  0  0  0  0
   52.0204   32.3457   40.7097 H   0  0  0  0  0  0  0  0  0  0  0  0
  1  9  1  0
  1  6  1  0
  2  3  2  0
  4  3  1  0
  5  4  2  0
  6  5  1  0
  6  7  2  0
  7  2  1  0
  8  1  1  0
 10 11  1  0
 10  1  1  0
 11 15  1  0
 11 12  2  0
 12 13  1  0
 14 16  1  0
 14 13  1  0
 15 14  2  0
 17 16  1  0
  2 18  1  0
  3 19  1  0
  4 20  1  0
  8 21  1  0
  8 22  1  0
  8 23  1  0
  9 24  1  0
  9 25  1  0
  9 26  1  0
 10 27  1  0
 10 28  1  0
 16 29  1  0
 16 30  1  0
 17 31  1  0
 17 32  1  0
 17 33  1  0
M  ISO  8  18  14  19  14  20  14  21   8  22   8  23   8  24   8  25   8
M  ISO  8  26   8  27   8  28   8  29   8  30   8  31   8  32   8  33   8
M  END
>  <minimizedAffinity>  (1) 
-4.3769846

>  <minimizedRMSD>  (1) 
0.9130252

$$$$
