
     RDKit          3D

 30 31  0  0  0  0  0  0  0  0999 V2000
   45.2450   33.5250   41.5660 C   0  0  0  0  0  0  0  0  0  0  0  0
   45.3940   33.8910   45.2130 C   0  0  0  0  0  0  0  0  0  0  0  0
   44.8540   35.1740   45.4360 C   0  0  0  0  0  0  0  0  0  0  0  0
   44.4330   35.9190   44.3080 C   0  0  0  0  0  0  0  0  0  0  0  0
   44.5860   35.3300   43.0850 N   0  0  0  0  0  0  0  0  0  0  0  0
   45.1100   34.0980   42.9240 C   0  0  0  0  0  0  0  0  0  0  0  0
   45.5080   33.3900   43.9810 N   0  0  0  0  0  0  0  0  0  0  0  0
   43.9170   33.5900   40.8630 C   0  0  0  0  0  0  0  0  0  0  0  0
   45.5710   32.0450   41.6770 C   0  0  0  0  0  0  0  0  0  0  0  0
   46.2560   34.2440   40.7320 C   0  0  0  0  0  0  0  0  0  0  0  0
   47.5700   34.4180   41.3460 C   0  0  0  0  0  0  0  0  0  0  0  0
   48.1740   35.4530   41.9740 N   0  0  0  0  0  0  0  0  0  0  0  0
   49.3750   35.1070   42.3530 O   0  0  0  0  0  0  0  0  0  0  0  0
   49.5970   33.8620   41.9970 C   0  0  0  0  0  0  0  0  0  0  0  0
   48.4940   33.4260   41.3770 N   0  0  0  0  0  0  0  0  0  0  0  0
   50.9270   33.3000   42.3520 C   0  0  0  0  0  0  0  0  0  0  0  0
   45.7283   33.2905   46.0718 H   0  0  0  0  0  0  0  0  0  0  0  0
   44.7627   35.5829   46.4531 H   0  0  0  0  0  0  0  0  0  0  0  0
   44.0025   36.9259   44.4117 H   0  0  0  0  0  0  0  0  0  0  0  0
   43.1091   33.6295   41.6084 H   0  0  0  0  0  0  0  0  0  0  0  0
   43.8792   34.4911   40.2332 H   0  0  0  0  0  0  0  0  0  0  0  0
   43.7914   32.6969   40.2332 H   0  0  0  0  0  0  0  0  0  0  0  0
   45.6334   31.7619   42.7381 H   0  0  0  0  0  0  0  0  0  0  0  0
   44.7807   31.4577   41.1866 H   0  0  0  0  0  0  0  0  0  0  0  0
   46.5349   31.8441   41.1866 H   0  0  0  0  0  0  0  0  0  0  0  0
   45.8557   35.2420   40.5000 H   0  0  0  0  0  0  0  0  0  0  0  0
   46.4186   33.6137   39.8452 H   0  0  0  0  0  0  0  0  0  0  0  0
   51.0269   33.2578   43.4466 H   0  0  0  0  0  0  0  0  0  0  0  0
   51.0194   32.2859   41.9360 H   0  0  0  0  0  0  0  0  0  0  0  0
   51.7186   33.9405   41.9360 H   0  0  0  0  0  0  0  0  0  0  0  0
  1  9  1  0
  1  6  1  0
  2  3  2  0
  4  3  1  0
  5  4  2  0
  6  5  1  0
  6  7  2  0
  7  2  1  0
  8  1  1  0
 10 11  1  0
 10  1  1  0
 11 15  1  0
 11 12  2  0
 12 13  1  0
 14 16  1  0
 14 13  1  0
 15 14  2  0
  2 17  1  0
  3 18  1  0
  4 19  1  0
  8 20  1  0
  8 21  1  0
  8 22  1  0
  9 23  1  0
  9 24  1  0
  9 25  1  0
 10 26  1  0
 10 27  1  0
 16 28  1  0
 16 29  1  0
 16 30  1  0
M  ISO  8  17  14  18  14  19  14  20   8  21   8  22   8  23   8  24   8
M  ISO  6  25   8  26   8  27   8  28   8  29   8  30   8
M  END
>  <minimizedAffinity>  (1) 
-4.25724411

>  <minimizedRMSD>  (1) 
0.775838554

$$$$
