
     RDKit          3D

 33 35  0  0  0  0  0  0  0  0999 V2000
   46.5070   34.0130   41.8640 C   0  0  0  0  0  0  0  0  0  0  0  0
   45.3910   34.1000   45.3600 C   0  0  0  0  0  0  0  0  0  0  0  0
   44.7080   35.3250   45.4520 C   0  0  0  0  0  0  0  0  0  0  0  0
   44.6300   36.1320   44.3060 C   0  0  0  0  0  0  0  0  0  0  0  0
   45.2310   35.6660   43.1520 N   0  0  0  0  0  0  0  0  0  0  0  0
   45.8720   34.4820   43.1200 C   0  0  0  0  0  0  0  0  0  0  0  0
   45.9460   33.7160   44.2130 N   0  0  0  0  0  0  0  0  0  0  0  0
   45.5220   34.1860   40.7280 C   0  0  0  0  0  0  0  0  0  0  0  0
   46.8030   32.5400   41.9500 C   0  0  0  0  0  0  0  0  0  0  0  0
   47.7450   34.7820   41.5020 C   0  0  0  0  0  0  0  0  0  0  0  0
   49.0050   34.0920   41.7870 C   0  0  0  0  0  0  0  0  0  0  0  0
   50.0020   34.2780   42.6870 N   0  0  0  0  0  0  0  0  0  0  0  0
   50.9260   33.3590   42.5150 O   0  0  0  0  0  0  0  0  0  0  0  0
   50.5800   32.5680   41.5290 C   0  0  0  0  0  0  0  0  0  0  0  0
   49.3990   33.0140   41.0780 N   0  0  0  0  0  0  0  0  0  0  0  0
   51.4740   31.5500   41.2420 O   0  0  0  0  0  0  0  0  0  0  0  0
   52.0380   31.5090   39.9740 C   0  0  0  0  0  0  0  0  0  0  0  0
   53.3700   31.2940   39.8340 N   0  0  0  0  0  0  0  0  0  0  0  0
   53.6720   31.2960   38.5700 O   0  0  0  0  0  0  0  0  0  0  0  0
   52.5830   31.5060   37.8350 C   0  0  0  0  0  0  0  0  0  0  0  0
   51.5740   31.6360   38.7180 N   0  0  0  0  0  0  0  0  0  0  0  0
   45.4676   33.4518   46.2454 H   0  0  0  0  0  0  0  0  0  0  0  0
   44.2462   35.6434   46.3982 H   0  0  0  0  0  0  0  0  0  0  0  0
   44.1091   37.1007   44.3258 H   0  0  0  0  0  0  0  0  0  0  0  0
   44.5167   34.3626   41.1381 H   0  0  0  0  0  0  0  0  0  0  0  0
   45.8221   35.0452   40.1101 H   0  0  0  0  0  0  0  0  0  0  0  0
   45.5113   33.2760   40.1101 H   0  0  0  0  0  0  0  0  0  0  0  0
   46.8634   32.2392   43.0064 H   0  0  0  0  0  0  0  0  0  0  0  0
   46.0004   31.9751   41.4533 H   0  0  0  0  0  0  0  0  0  0  0  0
   47.7615   32.3290   41.4533 H   0  0  0  0  0  0  0  0  0  0  0  0
   47.7376   35.7265   42.0657 H   0  0  0  0  0  0  0  0  0  0  0  0
   47.7115   34.9252   40.4119 H   0  0  0  0  0  0  0  0  0  0  0  0
   52.5199   31.5617   36.7382 H   0  0  0  0  0  0  0  0  0  0  0  0
  1  9  1  0
  1  6  1  0
  2  3  2  0
  4  3  1  0
  5  4  2  0
  6  5  1  0
  6  7  2  0
  7  2  1  0
  8  1  1  0
 10 11  1  0
 10  1  1  0
 11 12  2  0
 13 12  1  0
 14 13  1  0
 15 14  2  0
 15 11  1  0
 16 14  1  0
 17 16  1  0
 18 17  2  0
 19 18  1  0
 20 19  1  0
 20 21  2  0
 21 17  1  0
  2 22  1  0
  3 23  1  0
  4 24  1  0
  8 25  1  0
  8 26  1  0
  8 27  1  0
  9 28  1  0
  9 29  1  0
  9 30  1  0
 10 31  1  0
 10 32  1  0
 20 33  1  0
M  ISO  8  22  14  23  14  24  14  25   8  26   8  27   8  28   8  29   8
M  ISO  4  30   8  31   8  32   8  33  14
M  END
>  <minimizedAffinity>  (1) 
-5.07294846

>  <minimizedRMSD>  (1) 
1.84706235

$$$$
