
     RDKit          3D

 35 37  0  0  0  0  0  0  0  0999 V2000
   46.6250   34.0260   41.9590 C   0  0  0  0  0  0  0  0  0  0  0  0
   45.3730   34.1460   45.3970 C   0  0  0  0  0  0  0  0  0  0  0  0
   44.6830   35.3620   45.4680 C   0  0  0  0  0  0  0  0  0  0  0  0
   44.6490   36.1520   44.3120 C   0  0  0  0  0  0  0  0  0  0  0  0
   45.2910   35.6800   43.2010 N   0  0  0  0  0  0  0  0  0  0  0  0
   45.9410   34.5010   43.1890 C   0  0  0  0  0  0  0  0  0  0  0  0
   45.9790   33.7420   44.2850 N   0  0  0  0  0  0  0  0  0  0  0  0
   45.6820   34.2180   40.7840 C   0  0  0  0  0  0  0  0  0  0  0  0
   46.8960   32.5480   42.0500 C   0  0  0  0  0  0  0  0  0  0  0  0
   47.8850   34.7980   41.6480 C   0  0  0  0  0  0  0  0  0  0  0  0
   49.1220   34.0400   41.8120 C   0  0  0  0  0  0  0  0  0  0  0  0
   50.2280   34.2290   42.5620 N   0  0  0  0  0  0  0  0  0  0  0  0
   51.0730   33.2370   42.3440 O   0  0  0  0  0  0  0  0  0  0  0  0
   50.5470   32.4010   41.4680 C   0  0  0  0  0  0  0  0  0  0  0  0
   49.3560   32.8930   41.1450 N   0  0  0  0  0  0  0  0  0  0  0  0
   51.3430   31.3030   41.1490 O   0  0  0  0  0  0  0  0  0  0  0  0
   52.0650   31.3860   39.9450 C   0  0  0  0  0  0  0  0  0  0  0  0
   53.3730   31.3080   39.4600 C   0  0  0  0  0  0  0  0  0  0  0  0
   53.2800   31.5040   38.0840 C   0  0  0  0  0  0  0  0  0  0  0  0
   51.9320   31.6870   37.8130 C   0  0  0  0  0  0  0  0  0  0  0  0
   51.2490   31.6100   38.9300 O   0  0  0  0  0  0  0  0  0  0  0  0
   45.4150   33.5046   46.2896 H   0  0  0  0  0  0  0  0  0  0  0  0
   44.1870   35.6844   46.3954 H   0  0  0  0  0  0  0  0  0  0  0  0
   44.1240   37.1186   44.2984 H   0  0  0  0  0  0  0  0  0  0  0  0
   44.6681   34.4244   41.1575 H   0  0  0  0  0  0  0  0  0  0  0  0
   46.0266   35.0644   40.1718 H   0  0  0  0  0  0  0  0  0  0  0  0
   45.6683   33.3042   40.1718 H   0  0  0  0  0  0  0  0  0  0  0  0
   46.9507   32.2497   43.1074 H   0  0  0  0  0  0  0  0  0  0  0  0
   46.0842   31.9952   41.5546 H   0  0  0  0  0  0  0  0  0  0  0  0
   47.8511   32.3192   41.5546 H   0  0  0  0  0  0  0  0  0  0  0  0
   47.9264   35.6700   42.3173 H   0  0  0  0  0  0  0  0  0  0  0  0
   47.8271   35.0709   40.5840 H   0  0  0  0  0  0  0  0  0  0  0  0
   54.2876   31.1288   40.0443 H   0  0  0  0  0  0  0  0  0  0  0  0
   54.1076   31.5120   37.3594 H   0  0  0  0  0  0  0  0  0  0  0  0
   51.5028   31.8684   36.8166 H   0  0  0  0  0  0  0  0  0  0  0  0
  1  9  1  0
  1  6  1  0
  2  3  2  0
  4  3  1  0
  5  4  2  0
  6  5  1  0
  6  7  2  0
  7  2  1  0
  8  1  1  0
 10 11  1  0
 10  1  1  0
 11 12  2  0
 13 12  1  0
 14 13  1  0
 15 14  2  0
 15 11  1  0
 16 14  1  0
 17 16  1  0
 18 17  2  0
 19 18  1  0
 20 19  2  0
 20 21  1  0
 21 17  1  0
  2 22  1  0
  3 23  1  0
  4 24  1  0
  8 25  1  0
  8 26  1  0
  8 27  1  0
  9 28  1  0
  9 29  1  0
  9 30  1  0
 10 31  1  0
 10 32  1  0
 18 33  1  0
 19 34  1  0
 20 35  1  0
M  ISO  8  22  14  23  14  24  14  25   8  26   8  27   8  28   8  29   8
M  ISO  6  30   8  31   8  32   8  33  14  34  14  35  14
M  END
>  <minimizedAffinity>  (1) 
-5.19108629

>  <minimizedRMSD>  (1) 
1.91386735

$$$$
