
     RDKit          3D

 31 32  0  0  0  0  0  0  0  0999 V2000
   45.4270   33.4810   41.5920 C   0  0  0  0  0  0  0  0  0  0  0  0
   45.4280   33.9230   45.2240 C   0  0  0  0  0  0  0  0  0  0  0  0
   44.8360   35.1950   45.4090 C   0  0  0  0  0  0  0  0  0  0  0  0
   44.4370   35.8980   44.2540 C   0  0  0  0  0  0  0  0  0  0  0  0
   44.6440   35.3110   43.0410 N   0  0  0  0  0  0  0  0  0  0  0  0
   45.2170   34.0900   42.9320 C   0  0  0  0  0  0  0  0  0  0  0  0
   45.6090   33.3960   44.0180 N   0  0  0  0  0  0  0  0  0  0  0  0
   44.1020   33.4720   40.8480 C   0  0  0  0  0  0  0  0  0  0  0  0
   45.8250   32.0320   41.7370 C   0  0  0  0  0  0  0  0  0  0  0  0
   46.4000   34.2360   40.7490 C   0  0  0  0  0  0  0  0  0  0  0  0
   47.6990   34.5020   41.3880 C   0  0  0  0  0  0  0  0  0  0  0  0
   48.2410   35.5890   41.9630 N   0  0  0  0  0  0  0  0  0  0  0  0
   49.4530   35.3010   42.3900 O   0  0  0  0  0  0  0  0  0  0  0  0
   49.7190   34.0420   42.1090 C   0  0  0  0  0  0  0  0  0  0  0  0
   48.6570   33.5370   41.4950 N   0  0  0  0  0  0  0  0  0  0  0  0
   50.9750   33.5720   42.4980 O   0  0  0  0  0  0  0  0  0  0  0  0
   51.3460   32.3540   41.9140 C   0  0  0  0  0  0  0  0  0  0  0  0
   50.9100   31.2760   42.4410 O   0  0  0  0  0  0  0  0  0  0  0  0
   52.1540   32.2530   40.8030 O   0  0  0  0  0  0  0  0  0  0  0  0
   45.7488   33.3519   46.1077 H   0  0  0  0  0  0  0  0  0  0  0  0
   44.6929   35.6184   46.4141 H   0  0  0  0  0  0  0  0  0  0  0  0
   43.9718   36.8920   44.3293 H   0  0  0  0  0  0  0  0  0  0  0  0
   43.2746   33.4664   41.5728 H   0  0  0  0  0  0  0  0  0  0  0  0
   44.0301   34.3697   40.2163 H   0  0  0  0  0  0  0  0  0  0  0  0
   44.0423   32.5734   40.2163 H   0  0  0  0  0  0  0  0  0  0  0  0
   45.8953   31.7761   42.8045 H   0  0  0  0  0  0  0  0  0  0  0  0
   45.0688   31.3941   41.2561 H   0  0  0  0  0  0  0  0  0  0  0  0
   46.8009   31.8699   41.2561 H   0  0  0  0  0  0  0  0  0  0  0  0
   45.9452   35.2021   40.4846 H   0  0  0  0  0  0  0  0  0  0  0  0
   46.6103   33.5999   39.8765 H   0  0  0  0  0  0  0  0  0  0  0  0
   52.5076   33.0711   40.3720 H   0  0  0  0  0  0  0  0  0  0  0  0
  1  9  1  0
  1  6  1  0
  2  3  2  0
  4  3  1  0
  5  4  2  0
  6  5  1  0
  6  7  2  0
  7  2  1  0
  8  1  1  0
 10 11  1  0
 10  1  1  0
 11 15  1  0
 11 12  2  0
 12 13  1  0
 14 13  1  0
 14 16  1  0
 15 14  2  0
 17 18  2  0
 17 16  1  0
 19 17  1  0
  2 20  1  0
  3 21  1  0
  4 22  1  0
  8 23  1  0
  8 24  1  0
  8 25  1  0
  9 26  1  0
  9 27  1  0
  9 28  1  0
 10 29  1  0
 10 30  1  0
 19 31  1  0
M  ISO  8  20  14  21  14  22  14  23   8  24   8  25   8  26   8  27   8
M  ISO  4  28   8  29   8  30   8  31   3
M  END
>  <minimizedAffinity>  (1) 
-4.62951994

>  <minimizedRMSD>  (1) 
1.10959625

$$$$
