
     RDKit          3D

 42 45  0  0  0  0  0  0  0  0999 V2000
   46.8040   34.5170   40.8490 C   0  0  0  0  0  0  0  0  0  0  0  0
   48.0850   34.4020   41.5480 C   0  0  0  0  0  0  0  0  0  0  0  0
   48.6880   35.1320   42.5250 N   0  0  0  0  0  0  0  0  0  0  0  0
   49.8570   34.6080   42.8120 O   0  0  0  0  0  0  0  0  0  0  0  0
   50.0420   33.5540   42.0530 C   0  0  0  0  0  0  0  0  0  0  0  0
   48.9650   33.4140   41.2720 N   0  0  0  0  0  0  0  0  0  0  0  0
   51.2520   32.8620   42.2230 O   0  0  0  0  0  0  0  0  0  0  0  0
   51.1610   31.4780   42.1110 C   0  0  0  0  0  0  0  0  0  0  0  0
   50.4280   30.6890   42.9320 N   0  0  0  0  0  0  0  0  0  0  0  0
   50.3750   29.3530   42.7800 C   0  0  0  0  0  0  0  0  0  0  0  0
   51.0430   28.7140   41.8080 N   0  0  0  0  0  0  0  0  0  0  0  0
   51.8040   29.4340   40.9400 C   0  0  0  0  0  0  0  0  0  0  0  0
   52.5190   28.8260   39.9120 C   0  0  0  0  0  0  0  0  0  0  0  0
   53.2660   29.6400   39.0770 C   0  0  0  0  0  0  0  0  0  0  0  0
   53.3460   31.0100   39.2000 C   0  0  0  0  0  0  0  0  0  0  0  0
   52.6140   31.5510   40.2400 C   0  0  0  0  0  0  0  0  0  0  0  0
   51.8430   30.8040   41.1160 C   0  0  0  0  0  0  0  0  0  0  0  0
   45.6710   33.7920   41.4960 C   0  0  0  0  0  0  0  0  0  0  0  0
   45.4140   33.8930   45.1490 C   0  0  0  0  0  0  0  0  0  0  0  0
   44.8440   35.1430   45.4050 C   0  0  0  0  0  0  0  0  0  0  0  0
   44.5440   35.9570   44.3180 C   0  0  0  0  0  0  0  0  0  0  0  0
   44.8250   35.4940   43.0510 N   0  0  0  0  0  0  0  0  0  0  0  0
   45.3760   34.2780   42.8660 C   0  0  0  0  0  0  0  0  0  0  0  0
   45.6650   33.4890   43.9090 N   0  0  0  0  0  0  0  0  0  0  0  0
   44.4370   34.0240   40.6330 C   0  0  0  0  0  0  0  0  0  0  0  0
   45.8960   32.3110   41.5060 C   0  0  0  0  0  0  0  0  0  0  0  0
   46.9314   34.1157   39.8328 H   0  0  0  0  0  0  0  0  0  0  0  0
   46.5377   35.5842   40.8638 H   0  0  0  0  0  0  0  0  0  0  0  0
   49.7619   28.7638   43.4778 H   0  0  0  0  0  0  0  0  0  0  0  0
   52.4916   27.7358   39.7678 H   0  0  0  0  0  0  0  0  0  0  0  0
   53.8317   29.1623   38.2635 H   0  0  0  0  0  0  0  0  0  0  0  0
   53.9492   31.6287   38.5193 H   0  0  0  0  0  0  0  0  0  0  0  0
   52.6454   32.6415   40.3809 H   0  0  0  0  0  0  0  0  0  0  0  0
   45.6598   33.2302   45.9917 H   0  0  0  0  0  0  0  0  0  0  0  0
   44.6390   35.4728   46.4342 H   0  0  0  0  0  0  0  0  0  0  0  0
   44.0922   36.9489   44.4665 H   0  0  0  0  0  0  0  0  0  0  0  0
   43.5627   34.1884   41.2800 H   0  0  0  0  0  0  0  0  0  0  0  0
   44.5946   34.9082   39.9980 H   0  0  0  0  0  0  0  0  0  0  0  0
   44.2627   33.1429   39.9980 H   0  0  0  0  0  0  0  0  0  0  0  0
   45.9500   31.9553   42.5455 H   0  0  0  0  0  0  0  0  0  0  0  0
   45.0636   31.8102   40.9899 H   0  0  0  0  0  0  0  0  0  0  0  0
   46.8395   32.0800   40.9899 H   0  0  0  0  0  0  0  0  0  0  0  0
  1 18  1  0
  1  2  1  0
  2  3  2  0
  3  4  1  0
  5  7  1  0
  5  4  1  0
  6  2  1  0
  6  5  2  0
  8  7  1  0
  8  9  2  0
 10  9  1  0
 11 10  2  0
 12 17  2  0
 12 11  1  0
 13 12  1  0
 14 15  1  0
 14 13  2  0
 15 16  2  0
 16 17  1  0
 17  8  1  0
 18 26  1  0
 18 23  1  0
 19 20  2  0
 21 20  1  0
 22 21  2  0
 23 22  1  0
 23 24  2  0
 24 19  1  0
 25 18  1  0
  1 27  1  0
  1 28  1  0
 10 29  1  0
 13 30  1  0
 14 31  1  0
 15 32  1  0
 16 33  1  0
 19 34  1  0
 20 35  1  0
 21 36  1  0
 25 37  1  0
 25 38  1  0
 25 39  1  0
 26 40  1  0
 26 41  1  0
 26 42  1  0
M  ISO  8  27   8  28   8  29  14  30  14  31  14  32  14  33  14  34  14
M  ISO  8  35  14  36  14  37   8  38   8  39   8  40   8  41   8  42   8
M  END
>  <minimizedAffinity>  (1) 
-4.85774088

>  <minimizedRMSD>  (1) 
1.31513298

$$$$
