
     RDKit          3D

 40 42  0  0  1  0  0  0  0  0999 V2000
   45.6560   33.8110   41.5440 C   0  0  0  0  0  0  0  0  0  0  0  0
   45.3270   33.9490   45.1850 C   0  0  0  0  0  0  0  0  0  0  0  0
   44.8020   35.2260   45.4320 C   0  0  0  0  0  0  0  0  0  0  0  0
   44.5560   36.0530   44.3280 C   0  0  0  0  0  0  0  0  0  0  0  0
   44.8480   35.5540   43.0870 N   0  0  0  0  0  0  0  0  0  0  0  0
   45.3520   34.3220   42.8970 C   0  0  0  0  0  0  0  0  0  0  0  0
   45.5910   33.5200   43.9480 N   0  0  0  0  0  0  0  0  0  0  0  0
   44.4450   34.0650   40.6580 C   0  0  0  0  0  0  0  0  0  0  0  0
   45.8600   32.3280   41.5710 C   0  0  0  0  0  0  0  0  0  0  0  0
   46.8160   34.5140   40.9040 C   0  0  0  0  0  0  0  0  0  0  0  0
   48.1060   34.3120   41.5770 C   0  0  0  0  0  0  0  0  0  0  0  0
   48.6930   34.8710   42.6700 N   0  0  0  0  0  0  0  0  0  0  0  0
   49.8710   34.3310   42.8560 O   0  0  0  0  0  0  0  0  0  0  0  0
   50.0860   33.4360   41.9240 C   0  0  0  0  0  0  0  0  0  0  0  0
   49.0170   33.4090   41.1320 N   0  0  0  0  0  0  0  0  0  0  0  0
   51.3060   32.7570   41.9710 O   0  0  0  0  0  0  0  0  0  0  0  0
   52.7190   31.9100   40.2640 N   0  0  0  0  0  0  0  0  0  0  0  0
   53.4780   30.7050   40.4070 C   0  0  0  0  0  0  0  0  0  0  0  0
   52.5280   29.6390   40.9040 C   0  0  0  0  0  0  0  0  0  0  0  0
   51.3590   30.3800   41.4960 C   0  0  0  0  0  0  0  0  0  0  0  0
   51.4730   31.7610   40.9500 C   0  0  1  0  0  0  0  0  0  0  0  0
   45.5273   33.2808   46.0355 H   0  0  0  0  0  0  0  0  0  0  0  0
   44.5908   35.5663   46.4565 H   0  0  0  0  0  0  0  0  0  0  0  0
   44.1438   37.0651   44.4537 H   0  0  0  0  0  0  0  0  0  0  0  0
   43.5623   34.2501   41.2877 H   0  0  0  0  0  0  0  0  0  0  0  0
   44.6331   34.9432   40.0229 H   0  0  0  0  0  0  0  0  0  0  0  0
   44.2643   33.1852   40.0229 H   0  0  0  0  0  0  0  0  0  0  0  0
   45.9074   31.9833   42.6145 H   0  0  0  0  0  0  0  0  0  0  0  0
   45.0215   31.8332   41.0592 H   0  0  0  0  0  0  0  0  0  0  0  0
   46.8010   32.0779   41.0592 H   0  0  0  0  0  0  0  0  0  0  0  0
   46.9087   34.1500   39.8701 H   0  0  0  0  0  0  0  0  0  0  0  0
   46.5989   35.5905   40.9672 H   0  0  0  0  0  0  0  0  0  0  0  0
   53.2437   32.6985   40.6688 H   0  0  0  0  0  0  0  0  0  0  0  0
   53.9031   30.4092   39.4365 H   0  0  0  0  0  0  0  0  0  0  0  0
   54.3106   30.8474   41.1116 H   0  0  0  0  0  0  0  0  0  0  0  0
   52.1963   29.0020   40.0708 H   0  0  0  0  0  0  0  0  0  0  0  0
   53.0075   28.9799   41.6427 H   0  0  0  0  0  0  0  0  0  0  0  0
   50.4098   29.9177   41.1874 H   0  0  0  0  0  0  0  0  0  0  0  0
   51.3694   30.3645   42.5958 H   0  0  0  0  0  0  0  0  0  0  0  0
   50.6561   31.9169   40.2301 H   0  0  0  0  0  0  0  0  0  0  0  0
  1  9  1  0
  1  6  1  0
  2  3  2  0
  4  3  1  0
  5  4  2  0
  6  5  1  0
  6  7  2  0
  7  2  1  0
  8  1  1  0
 10  1  1  0
 10 11  1  0
 11 12  2  0
 12 13  1  0
 14 16  1  0
 14 13  1  0
 15 11  1  0
 15 14  2  0
 17 18  1  0
 17 21  1  0
 18 19  1  0
 19 20  1  0
 21 20  1  0
 21 16  1  0
  2 22  1  0
  3 23  1  0
  4 24  1  0
  8 25  1  0
  8 26  1  0
  8 27  1  0
  9 28  1  0
  9 29  1  0
  9 30  1  0
 10 31  1  0
 10 32  1  0
 17 33  1  0
 18 34  1  0
 18 35  1  0
 19 36  1  0
 19 37  1  0
 20 38  1  0
 20 39  1  0
 21 40  1  6
M  ISO  8  22  14  23  14  24  14  25   8  26   8  27   8  28   8  29   8
M  ISO  8  30   8  31   8  32   8  33   5  34  13  35  13  36  13  37  13
M  ISO  3  38  13  39  13  40  13
M  END
>  <minimizedAffinity>  (1) 
-4.85447407

>  <minimizedRMSD>  (1) 
0.948647201

$$$$
