
     RDKit          3D

 34 36  0  0  0  0  0  0  0  0999 V2000
   46.0840   34.3470   41.7370 N   0  0  0  0  0  0  0  0  0  0  0  0
   45.5530   33.9780   40.5770 C   0  0  0  0  0  0  0  0  0  0  0  0
   46.4730   33.6800   39.6710 N   0  0  0  0  0  0  0  0  0  0  0  0
   47.6640   33.8750   40.3030 C   0  0  0  0  0  0  0  0  0  0  0  0
   47.4260   34.2940   41.5950 N   0  0  0  0  0  0  0  0  0  0  0  0
   49.0150   33.7140   39.8330 N   0  0  0  0  0  0  0  0  0  0  0  0
   44.5710   36.2630   44.5620 C   0  0  0  0  0  0  0  0  0  0  0  0
   45.0170   35.9850   43.2720 C   0  0  0  0  0  0  0  0  0  0  0  0
   45.5890   34.7570   43.0030 C   0  0  0  0  0  0  0  0  0  0  0  0
   45.6940   33.8420   44.0370 N   0  0  0  0  0  0  0  0  0  0  0  0
   45.2460   34.1470   45.2920 C   0  0  0  0  0  0  0  0  0  0  0  0
   44.6940   35.3460   45.5310 N   0  0  0  0  0  0  0  0  0  0  0  0
   44.0980   33.9290   40.3950 C   0  0  0  0  0  0  0  0  0  0  0  0
   43.4960   35.3040   40.5810 C   0  0  0  0  0  0  0  0  0  0  0  0
   42.0060   35.2510   40.4120 C   0  0  0  0  0  0  0  0  0  0  0  0
   41.3430   34.2570   41.3310 C   0  0  0  0  0  0  0  0  0  0  0  0
   42.0260   32.9260   41.3860 C   0  0  0  0  0  0  0  0  0  0  0  0
   43.5310   33.0050   41.4530 C   0  0  0  0  0  0  0  0  0  0  0  0
   49.8062   33.9110   40.4624 H   0  0  0  0  0  0  0  0  0  0  0  0
   49.1905   33.4018   38.8673 H   0  0  0  0  0  0  0  0  0  0  0  0
   44.1161   37.2392   44.7860 H   0  0  0  0  0  0  0  0  0  0  0  0
   44.9146   36.7363   42.4751 H   0  0  0  0  0  0  0  0  0  0  0  0
   45.3380   33.4108   46.1041 H   0  0  0  0  0  0  0  0  0  0  0  0
   43.8628   33.5725   39.3813 H   0  0  0  0  0  0  0  0  0  0  0  0
   43.7332   35.6697   41.5909 H   0  0  0  0  0  0  0  0  0  0  0  0
   43.9166   35.9825   39.8242 H   0  0  0  0  0  0  0  0  0  0  0  0
   41.5941   36.2495   40.6202 H   0  0  0  0  0  0  0  0  0  0  0  0
   41.8036   34.9298   39.3796 H   0  0  0  0  0  0  0  0  0  0  0  0
   41.3294   34.6806   42.3461 H   0  0  0  0  0  0  0  0  0  0  0  0
   40.3336   34.0795   40.9314 H   0  0  0  0  0  0  0  0  0  0  0  0
   41.6686   32.3916   42.2786 H   0  0  0  0  0  0  0  0  0  0  0  0
   41.7784   32.4050   40.4494 H   0  0  0  0  0  0  0  0  0  0  0  0
   43.9466   31.9974   41.3043 H   0  0  0  0  0  0  0  0  0  0  0  0
   43.8067   33.4074   42.4389 H   0  0  0  0  0  0  0  0  0  0  0  0
  1  9  1  0
  2  1  1  0
  3  4  1  0
  3  2  2  0
  4  5  2  0
  5  1  1  0
  6  4  1  0
  7 12  2  0
  8  7  1  0
  9  8  2  0
  9 10  1  0
 10 11  2  0
 11 12  1  0
 13  2  1  0
 13 14  1  0
 13 18  1  0
 15 14  1  0
 15 16  1  0
 16 17  1  0
 17 18  1  0
  6 19  1  0
  6 20  1  0
  7 21  1  0
  8 22  1  0
 11 23  1  0
 13 24  1  0
 14 25  1  0
 14 26  1  0
 15 27  1  0
 15 28  1  0
 16 29  1  0
 16 30  1  0
 17 31  1  0
 17 32  1  0
 18 33  1  0
 18 34  1  0
M  ISO  8  21  14  22  14  23  14  24  13  25  13  26  13  27  13  28  13
M  ISO  6  29  13  30  13  31  13  32  13  33  13  34  13
M  END
>  <minimizedAffinity>  (1) 
-5.11009026

>  <minimizedRMSD>  (1) 
1.33624923

$$$$
