
     RDKit          3D

 36 38  0  0  0  0  0  0  0  0999 V2000
   45.3600   33.4860   41.5960 C   0  0  0  0  0  0  0  0  0  0  0  0
   45.4120   33.9150   45.2290 C   0  0  0  0  0  0  0  0  0  0  0  0
   44.8340   35.1930   45.4230 C   0  0  0  0  0  0  0  0  0  0  0  0
   44.4320   35.8900   44.2870 C   0  0  0  0  0  0  0  0  0  0  0  0
   44.6170   35.3100   43.0650 N   0  0  0  0  0  0  0  0  0  0  0  0
   45.1760   34.0850   42.9320 C   0  0  0  0  0  0  0  0  0  0  0  0
   45.5670   33.4020   44.0190 N   0  0  0  0  0  0  0  0  0  0  0  0
   44.0220   33.5000   40.8750 C   0  0  0  0  0  0  0  0  0  0  0  0
   45.7420   32.0400   41.7200 C   0  0  0  0  0  0  0  0  0  0  0  0
   46.3360   34.2530   40.7340 C   0  0  0  0  0  0  0  0  0  0  0  0
   47.6580   34.4330   41.3480 C   0  0  0  0  0  0  0  0  0  0  0  0
   48.2320   35.4760   41.9980 N   0  0  0  0  0  0  0  0  0  0  0  0
   49.4570   35.1410   42.3680 O   0  0  0  0  0  0  0  0  0  0  0  0
   49.6970   33.9000   41.9740 C   0  0  0  0  0  0  0  0  0  0  0  0
   48.5950   33.4600   41.3480 N   0  0  0  0  0  0  0  0  0  0  0  0
   50.9490   33.4180   42.2970 O   0  0  0  0  0  0  0  0  0  0  0  0
   51.2880   32.1630   41.8080 C   0  0  0  0  0  0  0  0  0  0  0  0
   51.0550   31.1470   42.7220 C   0  0  0  0  0  0  0  0  0  0  0  0
   51.3600   29.8440   42.3320 C   0  0  0  0  0  0  0  0  0  0  0  0
   51.8680   29.5190   41.1240 N   0  0  0  0  0  0  0  0  0  0  0  0
   52.0670   30.5720   40.2880 C   0  0  0  0  0  0  0  0  0  0  0  0
   51.7880   31.8490   40.6140 N   0  0  0  0  0  0  0  0  0  0  0  0
   45.7398   33.3351   46.1044 H   0  0  0  0  0  0  0  0  0  0  0  0
   44.7078   35.6176   46.4299 H   0  0  0  0  0  0  0  0  0  0  0  0
   43.9750   36.8869   44.3721 H   0  0  0  0  0  0  0  0  0  0  0  0
   43.2073   33.5085   41.6141 H   0  0  0  0  0  0  0  0  0  0  0  0
   43.9546   34.3989   40.2446 H   0  0  0  0  0  0  0  0  0  0  0  0
   43.9358   32.6027   40.2446 H   0  0  0  0  0  0  0  0  0  0  0  0
   45.8134   31.7696   42.7838 H   0  0  0  0  0  0  0  0  0  0  0  0
   44.9779   31.4159   41.2335 H   0  0  0  0  0  0  0  0  0  0  0  0
   46.7146   31.8747   41.2335 H   0  0  0  0  0  0  0  0  0  0  0  0
   45.9108   35.2467   40.5295 H   0  0  0  0  0  0  0  0  0  0  0  0
   46.4868   33.6618   39.8187 H   0  0  0  0  0  0  0  0  0  0  0  0
   50.6440   31.3615   43.7195 H   0  0  0  0  0  0  0  0  0  0  0  0
   51.1759   29.0323   43.0511 H   0  0  0  0  0  0  0  0  0  0  0  0
   52.4793   30.3700   39.2884 H   0  0  0  0  0  0  0  0  0  0  0  0
  1  9  1  0
  1  6  1  0
  2  3  2  0
  4  3  1  0
  5  4  2  0
  6  5  1  0
  6  7  2  0
  7  2  1  0
  8  1  1  0
 10 11  1  0
 10  1  1  0
 11 12  2  0
 12 13  1  0
 14 16  1  0
 14 13  1  0
 15 11  1  0
 15 14  2  0
 17 16  1  0
 17 18  2  0
 19 18  1  0
 20 19  2  0
 21 22  2  0
 21 20  1  0
 22 17  1  0
  2 23  1  0
  3 24  1  0
  4 25  1  0
  8 26  1  0
  8 27  1  0
  8 28  1  0
  9 29  1  0
  9 30  1  0
  9 31  1  0
 10 32  1  0
 10 33  1  0
 18 34  1  0
 19 35  1  0
 21 36  1  0
M  ISO  8  23  14  24  14  25  14  26   8  27   8  28   8  29   8  30   8
M  ISO  6  31   8  32   8  33   8  34  14  35  14  36  14
M  END
>  <minimizedAffinity>  (1) 
-4.57650375

>  <minimizedRMSD>  (1) 
0.54607898

$$$$
