
     RDKit          3D

 37 39  0  0  0  0  0  0  0  0999 V2000
   45.3050   33.5220   41.5800 C   0  0  0  0  0  0  0  0  0  0  0  0
   45.3980   33.9100   45.2190 C   0  0  0  0  0  0  0  0  0  0  0  0
   44.8460   35.1840   45.4300 C   0  0  0  0  0  0  0  0  0  0  0  0
   44.4400   35.9120   44.3060 C   0  0  0  0  0  0  0  0  0  0  0  0
   44.6010   35.3470   43.0740 N   0  0  0  0  0  0  0  0  0  0  0  0
   45.1420   34.1090   42.9280 C   0  0  0  0  0  0  0  0  0  0  0  0
   45.5320   33.4080   43.9960 N   0  0  0  0  0  0  0  0  0  0  0  0
   43.9670   33.5860   40.8650 C   0  0  0  0  0  0  0  0  0  0  0  0
   45.6500   32.0630   41.6920 C   0  0  0  0  0  0  0  0  0  0  0  0
   46.2920   34.2500   40.7290 C   0  0  0  0  0  0  0  0  0  0  0  0
   47.6140   34.4420   41.3430 C   0  0  0  0  0  0  0  0  0  0  0  0
   48.2030   35.4720   42.0020 N   0  0  0  0  0  0  0  0  0  0  0  0
   49.4150   35.1430   42.3580 O   0  0  0  0  0  0  0  0  0  0  0  0
   49.6520   33.9060   41.9500 C   0  0  0  0  0  0  0  0  0  0  0  0
   48.5500   33.4710   41.3260 N   0  0  0  0  0  0  0  0  0  0  0  0
   50.9090   33.3720   42.2410 O   0  0  0  0  0  0  0  0  0  0  0  0
   51.3000   32.1100   41.8600 C   0  0  0  0  0  0  0  0  0  0  0  0
   51.0530   31.0840   42.7500 C   0  0  0  0  0  0  0  0  0  0  0  0
   51.4320   29.8060   42.4010 C   0  0  0  0  0  0  0  0  0  0  0  0
   52.0520   29.4870   41.1990 C   0  0  0  0  0  0  0  0  0  0  0  0
   52.2660   30.5780   40.3570 C   0  0  0  0  0  0  0  0  0  0  0  0
   51.9060   31.8440   40.6700 N   0  0  0  0  0  0  0  0  0  0  0  0
   45.7263   33.3153   46.0842 H   0  0  0  0  0  0  0  0  0  0  0  0
   44.7365   35.5956   46.4442 H   0  0  0  0  0  0  0  0  0  0  0  0
   44.0017   36.9153   44.4127 H   0  0  0  0  0  0  0  0  0  0  0  0
   43.1561   33.6248   41.6073 H   0  0  0  0  0  0  0  0  0  0  0  0
   43.9307   34.4869   40.2349 H   0  0  0  0  0  0  0  0  0  0  0  0
   43.8449   32.6927   40.2349 H   0  0  0  0  0  0  0  0  0  0  0  0
   45.7164   31.7824   42.7535 H   0  0  0  0  0  0  0  0  0  0  0  0
   44.8690   31.4629   41.2022 H   0  0  0  0  0  0  0  0  0  0  0  0
   46.6171   31.8762   41.2022 H   0  0  0  0  0  0  0  0  0  0  0  0
   45.8764   35.2412   40.4951 H   0  0  0  0  0  0  0  0  0  0  0  0
   46.4527   33.6248   39.8383 H   0  0  0  0  0  0  0  0  0  0  0  0
   50.5648   31.2821   43.7156 H   0  0  0  0  0  0  0  0  0  0  0  0
   51.2325   28.9925   43.1140 H   0  0  0  0  0  0  0  0  0  0  0  0
   52.3487   28.4614   40.9342 H   0  0  0  0  0  0  0  0  0  0  0  0
   52.7533   30.3997   39.3871 H   0  0  0  0  0  0  0  0  0  0  0  0
  1  9  1  0
  1  6  1  0
  2  3  2  0
  4  3  1  0
  5  4  2  0
  6  5  1  0
  6  7  2  0
  7  2  1  0
  8  1  1  0
 10 11  1  0
 10  1  1  0
 11 12  2  0
 12 13  1  0
 14 16  1  0
 14 13  1  0
 15 11  1  0
 15 14  2  0
 17 16  1  0
 17 18  2  0
 19 18  1  0
 20 19  2  0
 21 22  2  0
 21 20  1  0
 22 17  1  0
  2 23  1  0
  3 24  1  0
  4 25  1  0
  8 26  1  0
  8 27  1  0
  8 28  1  0
  9 29  1  0
  9 30  1  0
  9 31  1  0
 10 32  1  0
 10 33  1  0
 18 34  1  0
 19 35  1  0
 20 36  1  0
 21 37  1  0
M  ISO  8  23  14  24  14  25  14  26   8  27   8  28   8  29   8  30   8
M  ISO  7  31   8  32   8  33   8  34  14  35  14  36  14  37  14
M  END
>  <minimizedAffinity>  (1) 
-4.56926537

>  <minimizedRMSD>  (1) 
0.615837336

$$$$
