
     RDKit          3D

 27 29  0  0  0  0  0  0  0  0999 V2000
   45.8430   34.3910   41.8190 N   0  0  0  0  0  0  0  0  0  0  0  0
   45.2470   34.0690   40.6780 C   0  0  0  0  0  0  0  0  0  0  0  0
   46.1310   33.8780   39.7050 N   0  0  0  0  0  0  0  0  0  0  0  0
   47.3380   34.0900   40.2580 C   0  0  0  0  0  0  0  0  0  0  0  0
   47.1720   34.4120   41.5780 N   0  0  0  0  0  0  0  0  0  0  0  0
   48.6480   34.0290   39.6620 N   0  0  0  0  0  0  0  0  0  0  0  0
   44.4780   36.0400   44.8810 C   0  0  0  0  0  0  0  0  0  0  0  0
   44.8080   35.8640   43.5310 C   0  0  0  0  0  0  0  0  0  0  0  0
   45.4460   34.7010   43.1500 C   0  0  0  0  0  0  0  0  0  0  0  0
   45.7260   33.7670   44.1340 N   0  0  0  0  0  0  0  0  0  0  0  0
   45.3910   33.9780   45.4240 C   0  0  0  0  0  0  0  0  0  0  0  0
   44.7750   35.1020   45.7860 N   0  0  0  0  0  0  0  0  0  0  0  0
   43.7930   33.9680   40.6250 C   0  0  0  0  0  0  0  0  0  0  0  0
   43.0880   35.0920   40.2050 C   0  0  0  0  0  0  0  0  0  0  0  0
   41.7110   35.0650   40.1320 C   0  0  0  0  0  0  0  0  0  0  0  0
   40.9670   33.9520   40.4630 C   0  0  0  0  0  0  0  0  0  0  0  0
   41.7170   32.8730   40.8720 C   0  0  0  0  0  0  0  0  0  0  0  0
   43.0570   32.8880   40.9460 N   0  0  0  0  0  0  0  0  0  0  0  0
   49.4832   34.2216   40.2332 H   0  0  0  0  0  0  0  0  0  0  0  0
   48.7495   33.7928   38.6646 H   0  0  0  0  0  0  0  0  0  0  0  0
   43.9684   36.9611   45.2002 H   0  0  0  0  0  0  0  0  0  0  0  0
   44.5633   36.6380   42.7887 H   0  0  0  0  0  0  0  0  0  0  0  0
   45.6282   33.2166   46.1816 H   0  0  0  0  0  0  0  0  0  0  0  0
   43.6322   36.0074   39.9296 H   0  0  0  0  0  0  0  0  0  0  0  0
   41.1837   35.9698   39.7954 H   0  0  0  0  0  0  0  0  0  0  0  0
   39.8688   33.9287   40.4051 H   0  0  0  0  0  0  0  0  0  0  0  0
   41.1902   31.9492   41.1532 H   0  0  0  0  0  0  0  0  0  0  0  0
  1  9  1  0
  2  1  1  0
  3  4  1  0
  3  2  2  0
  4  5  2  0
  5  1  1  0
  6  4  1  0
  7 12  2  0
  8  7  1  0
  9  8  2  0
  9 10  1  0
 10 11  2  0
 11 12  1  0
 13  2  1  0
 13 18  1  0
 14 13  2  0
 15 14  1  0
 15 16  2  0
 16 17  1  0
 17 18  2  0
  6 19  1  0
  6 20  1  0
  7 21  1  0
  8 22  1  0
 11 23  1  0
 14 24  1  0
 15 25  1  0
 16 26  1  0
 17 27  1  0
M  ISO  7  21  14  22  14  23  14  24  14  25  14  26  14  27  14
M  END
>  <minimizedAffinity>  (1) 
-5.07204294

>  <minimizedRMSD>  (1) 
1.40016258

$$$$
