
     RDKit          3D

 42 45  0  0  0  0  0  0  0  0999 V2000
   47.7060   34.7720   41.5470 C   0  0  0  0  0  0  0  0  0  0  0  0
   48.9750   34.0940   41.7960 C   0  0  0  0  0  0  0  0  0  0  0  0
   49.9600   34.2760   42.7070 N   0  0  0  0  0  0  0  0  0  0  0  0
   50.9080   33.3880   42.5050 O   0  0  0  0  0  0  0  0  0  0  0  0
   50.5740   32.6280   41.4870 C   0  0  0  0  0  0  0  0  0  0  0  0
   49.3950   33.0460   41.0410 N   0  0  0  0  0  0  0  0  0  0  0  0
   51.4770   31.6320   41.1430 O   0  0  0  0  0  0  0  0  0  0  0  0
   51.8600   31.3870   39.8250 C   0  0  0  0  0  0  0  0  0  0  0  0
   53.2230   31.3710   39.5200 C   0  0  0  0  0  0  0  0  0  0  0  0
   53.2890   31.1060   38.1490 C   0  0  0  0  0  0  0  0  0  0  0  0
   52.0280   30.9760   37.6800 N   0  0  0  0  0  0  0  0  0  0  0  0
   51.1650   31.1420   38.6740 N   0  0  0  0  0  0  0  0  0  0  0  0
   51.6800   30.7020   36.3260 C   0  0  0  0  0  0  0  0  0  0  0  0
   52.3530   29.8590   35.4670 C   0  0  0  0  0  0  0  0  0  0  0  0
   51.6860   29.8810   34.2560 C   0  0  0  0  0  0  0  0  0  0  0  0
   50.6310   30.7320   34.4050 N   0  0  0  0  0  0  0  0  0  0  0  0
   50.6380   31.2180   35.6510 N   0  0  0  0  0  0  0  0  0  0  0  0
   46.4830   34.0100   41.8990 C   0  0  0  0  0  0  0  0  0  0  0  0
   45.3620   34.1270   45.3920 C   0  0  0  0  0  0  0  0  0  0  0  0
   44.6870   35.3420   45.4860 C   0  0  0  0  0  0  0  0  0  0  0  0
   44.6160   36.1290   44.3450 C   0  0  0  0  0  0  0  0  0  0  0  0
   45.2090   35.6700   43.1950 N   0  0  0  0  0  0  0  0  0  0  0  0
   45.8490   34.4870   43.1510 C   0  0  0  0  0  0  0  0  0  0  0  0
   45.9210   33.7210   44.2550 N   0  0  0  0  0  0  0  0  0  0  0  0
   45.4870   34.1820   40.7660 C   0  0  0  0  0  0  0  0  0  0  0  0
   46.7600   32.5400   41.9960 C   0  0  0  0  0  0  0  0  0  0  0  0
   47.7019   35.7041   42.1311 H   0  0  0  0  0  0  0  0  0  0  0  0
   47.6587   34.9235   40.4585 H   0  0  0  0  0  0  0  0  0  0  0  0
   54.0640   31.5323   40.2105 H   0  0  0  0  0  0  0  0  0  0  0  0
   54.2098   31.0183   37.5536 H   0  0  0  0  0  0  0  0  0  0  0  0
   53.2555   29.2757   35.7022 H   0  0  0  0  0  0  0  0  0  0  0  0
   51.9544   29.3206   33.3483 H   0  0  0  0  0  0  0  0  0  0  0  0
   49.9407   30.9630   33.6762 H   0  0  0  0  0  0  0  0  0  0  0  0
   45.4348   33.4855   46.2826 H   0  0  0  0  0  0  0  0  0  0  0  0
   44.2266   35.6661   46.4310 H   0  0  0  0  0  0  0  0  0  0  0  0
   44.0964   37.0984   44.3617 H   0  0  0  0  0  0  0  0  0  0  0  0
   44.4839   34.3552   41.1828 H   0  0  0  0  0  0  0  0  0  0  0  0
   45.7806   35.0427   40.1472 H   0  0  0  0  0  0  0  0  0  0  0  0
   45.4749   33.2726   40.1472 H   0  0  0  0  0  0  0  0  0  0  0  0
   46.8153   32.2464   43.0546 H   0  0  0  0  0  0  0  0  0  0  0  0
   45.9514   31.9811   41.5023 H   0  0  0  0  0  0  0  0  0  0  0  0
   47.7166   32.3138   41.5023 H   0  0  0  0  0  0  0  0  0  0  0  0
  1  2  1  0
  1 18  1  0
  2  3  2  0
  4  3  1  0
  5  4  1  0
  6  5  2  0
  6  2  1  0
  7  5  1  0
  8  7  1  0
  9  8  1  0
 10  9  2  0
 11 10  1  0
 11 12  1  0
 12  8  2  0
 13 11  1  0
 14 13  1  0
 15 16  1  0
 15 14  2  0
 16 17  1  0
 17 13  2  0
 18 26  1  0
 18 23  1  0
 19 20  2  0
 21 20  1  0
 22 21  2  0
 23 22  1  0
 23 24  2  0
 24 19  1  0
 25 18  1  0
  1 27  1  0
  1 28  1  0
  9 29  1  0
 10 30  1  0
 14 31  1  0
 15 32  1  0
 16 33  1  0
 19 34  1  0
 20 35  1  0
 21 36  1  0
 25 37  1  0
 25 38  1  0
 25 39  1  0
 26 40  1  0
 26 41  1  0
 26 42  1  0
M  ISO  8  27   8  28   8  29  14  30  14  31  14  32  14  33   9  34  14
M  ISO  8  35  14  36  14  37   8  38   8  39   8  40   8  41   8  42   8
M  END
>  <minimizedAffinity>  (1) 
-5.51924801

>  <minimizedRMSD>  (1) 
1.82363963

$$$$
