
     RDKit          3D

 45 48  0  0  0  0  0  0  0  0999 V2000
   47.2780   34.7310   41.2610 C   0  0  0  0  0  0  0  0  0  0  0  0
   48.5650   34.2170   41.7130 C   0  0  0  0  0  0  0  0  0  0  0  0
   49.3960   34.5490   42.7220 N   0  0  0  0  0  0  0  0  0  0  0  0
   50.4590   33.7690   42.7130 O   0  0  0  0  0  0  0  0  0  0  0  0
   50.3410   32.9280   41.7130 C   0  0  0  0  0  0  0  0  0  0  0  0
   49.1940   33.1860   41.0940 N   0  0  0  0  0  0  0  0  0  0  0  0
   51.3790   32.0090   41.5370 O   0  0  0  0  0  0  0  0  0  0  0  0
   51.8370   31.5900   40.3050 C   0  0  0  0  0  0  0  0  0  0  0  0
   53.1640   31.2070   40.1410 C   0  0  0  0  0  0  0  0  0  0  0  0
   53.3010   30.8460   38.8050 C   0  0  0  0  0  0  0  0  0  0  0  0
   52.0860   31.0100   38.1940 N   0  0  0  0  0  0  0  0  0  0  0  0
   51.2070   31.4610   39.1110 N   0  0  0  0  0  0  0  0  0  0  0  0
   51.7900   30.7470   36.8080 C   0  0  0  0  0  0  0  0  0  0  0  0
   52.7490   30.0930   36.0660 C   0  0  0  0  0  0  0  0  0  0  0  0
   52.4300   29.8520   34.7250 C   0  0  0  0  0  0  0  0  0  0  0  0
   51.2170   30.2580   34.2020 C   0  0  0  0  0  0  0  0  0  0  0  0
   50.2740   30.9120   34.9700 C   0  0  0  0  0  0  0  0  0  0  0  0
   50.5820   31.1580   36.3140 C   0  0  0  0  0  0  0  0  0  0  0  0
   46.0820   33.9720   41.7370 C   0  0  0  0  0  0  0  0  0  0  0  0
   45.4170   34.0100   45.3480 C   0  0  0  0  0  0  0  0  0  0  0  0
   44.7420   35.2280   45.5400 C   0  0  0  0  0  0  0  0  0  0  0  0
   44.5200   36.0240   44.4360 C   0  0  0  0  0  0  0  0  0  0  0  0
   44.9650   35.5990   43.1990 N   0  0  0  0  0  0  0  0  0  0  0  0
   45.6100   34.4170   43.0660 C   0  0  0  0  0  0  0  0  0  0  0  0
   45.8240   33.6500   44.1300 N   0  0  0  0  0  0  0  0  0  0  0  0
   44.9670   34.2010   40.7340 C   0  0  0  0  0  0  0  0  0  0  0  0
   46.3380   32.4880   41.7570 C   0  0  0  0  0  0  0  0  0  0  0  0
   47.1840   35.7686   41.6139 H   0  0  0  0  0  0  0  0  0  0  0  0
   47.2813   34.6355   40.1652 H   0  0  0  0  0  0  0  0  0  0  0  0
   53.9476   31.1925   40.9129 H   0  0  0  0  0  0  0  0  0  0  0  0
   54.2238   30.4908   38.3231 H   0  0  0  0  0  0  0  0  0  0  0  0
   53.7088   29.7788   36.5020 H   0  0  0  0  0  0  0  0  0  0  0  0
   53.1536   29.3330   34.0792 H   0  0  0  0  0  0  0  0  0  0  0  0
   50.9964   30.0544   33.1438 H   0  0  0  0  0  0  0  0  0  0  0  0
   49.3124   31.2294   34.5403 H   0  0  0  0  0  0  0  0  0  0  0  0
   49.8615   31.6754   36.9645 H   0  0  0  0  0  0  0  0  0  0  0  0
   45.6105   33.3504   46.2068 H   0  0  0  0  0  0  0  0  0  0  0  0
   44.4016   35.5365   46.5395 H   0  0  0  0  0  0  0  0  0  0  0  0
   43.9952   36.9852   44.5390 H   0  0  0  0  0  0  0  0  0  0  0  0
   44.0259   34.3943   41.2697 H   0  0  0  0  0  0  0  0  0  0  0  0
   45.2140   35.0672   40.1025 H   0  0  0  0  0  0  0  0  0  0  0  0
   44.8526   33.3076   40.1025 H   0  0  0  0  0  0  0  0  0  0  0  0
   46.3980   32.1403   42.7989 H   0  0  0  0  0  0  0  0  0  0  0  0
   45.5164   31.9672   41.2434 H   0  0  0  0  0  0  0  0  0  0  0  0
   47.2866   32.2726   41.2434 H   0  0  0  0  0  0  0  0  0  0  0  0
  1  2  1  0
  1 19  1  0
  2  3  2  0
  4  3  1  0
  5  4  1  0
  6  5  2  0
  6  2  1  0
  7  5  1  0
  8  7  1  0
  9  8  1  0
 10  9  2  0
 11 10  1  0
 11 12  1  0
 12  8  2  0
 13 11  1  0
 14 13  2  0
 15 14  1  0
 16 15  2  0
 16 17  1  0
 17 18  2  0
 18 13  1  0
 19 27  1  0
 19 24  1  0
 20 21  2  0
 22 21  1  0
 23 22  2  0
 24 23  1  0
 24 25  2  0
 25 20  1  0
 26 19  1  0
  1 28  1  0
  1 29  1  0
  9 30  1  0
 10 31  1  0
 14 32  1  0
 15 33  1  0
 16 34  1  0
 17 35  1  0
 18 36  1  0
 20 37  1  0
 21 38  1  0
 22 39  1  0
 26 40  1  0
 26 41  1  0
 26 42  1  0
 27 43  1  0
 27 44  1  0
 27 45  1  0
M  ISO  8  28   8  29   8  30  14  31  14  32  14  33  14  34  14  35  14
M  ISO  8  36  14  37  14  38  14  39  14  40   8  41   8  42   8  43   8
M  ISO  2  44   8  45   8
M  END
>  <minimizedAffinity>  (1) 
-5.31244278

>  <minimizedRMSD>  (1) 
1.79658258

$$$$
