
     RDKit          3D

 26 28  0  0  0  0  0  0  0  0999 V2000
   45.9870   34.4470   41.9650 N   0  0  0  0  0  0  0  0  0  0  0  0
   45.3960   34.0850   40.8100 C   0  0  0  0  0  0  0  0  0  0  0  0
   46.3140   33.9400   39.8420 N   0  0  0  0  0  0  0  0  0  0  0  0
   47.4930   34.2180   40.4150 C   0  0  0  0  0  0  0  0  0  0  0  0
   47.2990   34.5340   41.7350 N   0  0  0  0  0  0  0  0  0  0  0  0
   48.8080   34.2180   39.8390 N   0  0  0  0  0  0  0  0  0  0  0  0
   44.4590   36.0590   44.9780 C   0  0  0  0  0  0  0  0  0  0  0  0
   44.8580   35.8970   43.6370 C   0  0  0  0  0  0  0  0  0  0  0  0
   45.5300   34.7320   43.2810 C   0  0  0  0  0  0  0  0  0  0  0  0
   45.7670   33.8050   44.2590 N   0  0  0  0  0  0  0  0  0  0  0  0
   45.3730   33.9840   45.5380 C   0  0  0  0  0  0  0  0  0  0  0  0
   44.7240   35.1090   45.8820 N   0  0  0  0  0  0  0  0  0  0  0  0
   43.9480   33.9070   40.7480 C   0  0  0  0  0  0  0  0  0  0  0  0
   43.2060   34.9800   40.2490 C   0  0  0  0  0  0  0  0  0  0  0  0
   41.8410   34.8740   40.1660 C   0  0  0  0  0  0  0  0  0  0  0  0
   41.2260   33.7550   40.5610 N   0  0  0  0  0  0  0  0  0  0  0  0
   41.9420   32.7130   41.0450 C   0  0  0  0  0  0  0  0  0  0  0  0
   43.2790   32.8050   41.1300 N   0  0  0  0  0  0  0  0  0  0  0  0
   49.6245   34.4574   40.4195 H   0  0  0  0  0  0  0  0  0  0  0  0
   48.9350   33.9786   38.8453 H   0  0  0  0  0  0  0  0  0  0  0  0
   43.9265   36.9717   45.2838 H   0  0  0  0  0  0  0  0  0  0  0  0
   44.6432   36.6738   42.8883 H   0  0  0  0  0  0  0  0  0  0  0  0
   45.5822   33.2130   46.2942 H   0  0  0  0  0  0  0  0  0  0  0  0
   43.7118   35.9017   39.9255 H   0  0  0  0  0  0  0  0  0  0  0  0
   41.2497   35.7139   39.7725 H   0  0  0  0  0  0  0  0  0  0  0  0
   41.4304   31.7942   41.3675 H   0  0  0  0  0  0  0  0  0  0  0  0
  1  9  1  0
  2  1  1  0
  3  4  1  0
  3  2  2  0
  4  5  2  0
  5  1  1  0
  6  4  1  0
  7 12  2  0
  8  7  1  0
  9  8  2  0
  9 10  1  0
 10 11  2  0
 11 12  1  0
 13  2  1  0
 13 18  1  0
 14 13  2  0
 15 14  1  0
 15 16  2  0
 16 17  1  0
 17 18  2  0
  6 19  1  0
  6 20  1  0
  7 21  1  0
  8 22  1  0
 11 23  1  0
 14 24  1  0
 15 25  1  0
 17 26  1  0
M  ISO  6  21  14  22  14  23  14  24  14  25  14  26  14
M  END
>  <minimizedAffinity>  (1) 
-5.02692127

>  <minimizedRMSD>  (1) 
1.21075058

$$$$
