
     RDKit          3D

 27 28  0  0  1  0  0  0  0  0999 V2000
   45.7330   33.6760   44.2700 C   0  0  2  0  0  0  0  0  0  0  0  0
   45.2150   34.9550   44.8220 C   0  0  0  0  0  0  0  0  0  0  0  0
   44.5260   35.8580   43.9220 C   0  0  0  0  0  0  0  0  0  0  0  0
   44.3620   35.5140   42.5100 C   0  0  0  0  0  0  0  0  0  0  0  0
   44.9940   34.2530   42.0450 C   0  0  0  0  0  0  0  0  0  0  0  0
   44.8710   33.2000   43.1120 C   0  0  0  0  0  0  0  0  0  0  0  0
   45.6970   33.0720   46.6960 C   0  0  0  0  0  0  0  0  0  0  0  0
   45.8350   32.6780   45.3470 C   0  0  0  0  0  0  0  0  0  0  0  0
   46.0520   31.3170   45.1240 C   0  0  0  0  0  0  0  0  0  0  0  0
   46.1140   30.4730   46.1910 N   0  0  0  0  0  0  0  0  0  0  0  0
   45.9760   30.8950   47.4460 C   0  0  0  0  0  0  0  0  0  0  0  0
   45.7690   32.1840   47.7020 N   0  0  0  0  0  0  0  0  0  0  0  0
   47.1440   33.9300   43.7920 C   0  0  0  0  0  0  0  0  0  0  0  0
   45.3508   35.2090   45.8836 H   0  0  0  0  0  0  0  0  0  0  0  0
   44.1238   36.8082   44.3033 H   0  0  0  0  0  0  0  0  0  0  0  0
   43.2830   35.4376   42.3103 H   0  0  0  0  0  0  0  0  0  0  0  0
   44.8803   36.3130   41.9595 H   0  0  0  0  0  0  0  0  0  0  0  0
   44.4901   33.9072   41.1304 H   0  0  0  0  0  0  0  0  0  0  0  0
   46.0582   34.4353   41.8345 H   0  0  0  0  0  0  0  0  0  0  0  0
   43.8231   33.0996   43.4313 H   0  0  0  0  0  0  0  0  0  0  0  0
   45.1956   32.2148   42.7458 H   0  0  0  0  0  0  0  0  0  0  0  0
   45.5261   34.1333   46.9294 H   0  0  0  0  0  0  0  0  0  0  0  0
   46.1712   30.9317   44.1006 H   0  0  0  0  0  0  0  0  0  0  0  0
   46.0334   30.1745   48.2752 H   0  0  0  0  0  0  0  0  0  0  0  0
   47.8092   34.0497   44.6599 H   0  0  0  0  0  0  0  0  0  0  0  0
   47.4840   33.0786   43.1841 H   0  0  0  0  0  0  0  0  0  0  0  0
   47.1658   34.8465   43.1841 H   0  0  0  0  0  0  0  0  0  0  0  0
  1 13  1  6
  1  2  1  0
  1  8  1  0
  3  2  2  0
  4  3  1  0
  5  4  1  0
  5  6  1  0
  6  1  1  0
  7 12  2  0
  8  7  1  0
  9  8  2  0
  9 10  1  0
 10 11  2  0
 11 12  1  0
  2 14  1  0
  3 15  1  0
  4 16  1  0
  4 17  1  0
  5 18  1  0
  5 19  1  0
  6 20  1  0
  6 21  1  0
  7 22  1  0
  9 23  1  0
 11 24  1  0
 13 25  1  0
 13 26  1  0
 13 27  1  0
M  ISO  8  14  13  15  13  16  13  17  13  18  13  19  13  20  13  21  13
M  ISO  6  22  14  23  14  24  14  25   8  26   8  27   8
M  END
>  <minimizedAffinity>  (1) 
-3.88463569

>  <minimizedRMSD>  (1) 
1.13127303

$$$$
