
     RDKit          3D

 27 28  0  0  1  0  0  0  0  0999 V2000
   45.6960   33.4960   43.6510 C   0  0  2  0  0  0  0  0  0  0  0  0
   45.5700   34.9660   44.0460 C   0  0  0  0  0  0  0  0  0  0  0  0
   44.9400   35.8820   43.1270 C   0  0  0  0  0  0  0  0  0  0  0  0
   44.4300   35.3670   41.8590 C   0  0  0  0  0  0  0  0  0  0  0  0
   44.6780   33.9580   41.5220 C   0  0  0  0  0  0  0  0  0  0  0  0
   44.6060   33.1040   42.7360 C   0  0  0  0  0  0  0  0  0  0  0  0
   45.7210   33.3840   46.1080 C   0  0  0  0  0  0  0  0  0  0  0  0
   45.7660   32.6900   44.8930 C   0  0  0  0  0  0  0  0  0  0  0  0
   45.9390   31.2680   44.9160 C   0  0  0  0  0  0  0  0  0  0  0  0
   46.0500   30.6600   46.1240 N   0  0  0  0  0  0  0  0  0  0  0  0
   46.0010   31.3690   47.2850 C   0  0  0  0  0  0  0  0  0  0  0  0
   45.8380   32.7170   47.2710 N   0  0  0  0  0  0  0  0  0  0  0  0
   47.0810   33.4520   43.0570 C   0  0  0  0  0  0  0  0  0  0  0  0
   47.6140   32.7900   42.1000 O   0  0  0  0  0  0  0  0  0  0  0  0
   48.0780   34.2600   43.5790 O   0  0  0  0  0  0  0  0  0  0  0  0
   45.9530   35.3200   45.0145 H   0  0  0  0  0  0  0  0  0  0  0  0
   44.8454   36.9491   43.3766 H   0  0  0  0  0  0  0  0  0  0  0  0
   43.3396   35.5121   41.8650 H   0  0  0  0  0  0  0  0  0  0  0  0
   44.9901   35.9281   41.0965 H   0  0  0  0  0  0  0  0  0  0  0  0
   43.9204   33.6215   40.7990 H   0  0  0  0  0  0  0  0  0  0  0  0
   45.6856   33.8712   41.0894 H   0  0  0  0  0  0  0  0  0  0  0  0
   43.6351   33.2470   43.2330 H   0  0  0  0  0  0  0  0  0  0  0  0
   44.7105   32.0449   42.4579 H   0  0  0  0  0  0  0  0  0  0  0  0
   45.5898   34.4761   46.1121 H   0  0  0  0  0  0  0  0  0  0  0  0
   45.9806   30.6869   43.9830 H   0  0  0  0  0  0  0  0  0  0  0  0
   46.0946   30.8433   48.2467 H   0  0  0  0  0  0  0  0  0  0  0  0
   48.9890   34.2345   43.1922 H   0  0  0  0  0  0  0  0  0  0  0  0
  1 13  1  6
  1  2  1  0
  1  8  1  0
  3  2  2  0
  4  3  1  0
  5  4  1  0
  5  6  1  0
  6  1  1  0
  7 12  2  0
  8  9  2  0
  8  7  1  0
  9 10  1  0
 10 11  2  0
 12 11  1  0
 13 15  1  0
 14 13  2  0
  2 16  1  0
  3 17  1  0
  4 18  1  0
  4 19  1  0
  5 20  1  0
  5 21  1  0
  6 22  1  0
  6 23  1  0
  7 24  1  0
  9 25  1  0
 11 26  1  0
 15 27  1  0
M  ISO  8  16  13  17  13  18  13  19  13  20  13  21  13  22  13  23  13
M  ISO  4  24  14  25  14  26  14  27   3
M  END
>  <minimizedAffinity>  (1) 
-4.01972055

>  <minimizedRMSD>  (1) 
2.19360137

$$$$
