
     RDKit          3D

 33 34  0  0  1  0  0  0  0  0999 V2000
   46.0230   34.1990   42.2730 C   0  0  2  0  0  0  0  0  0  0  0  0
   45.7450   33.5420   43.5790 C   0  0  0  0  0  0  0  0  0  0  0  0
   45.1600   34.3240   44.6460 C   0  0  0  0  0  0  0  0  0  0  0  0
   44.8610   35.7340   44.4140 C   0  0  0  0  0  0  0  0  0  0  0  0
   45.0920   36.2930   43.0790 C   0  0  0  0  0  0  0  0  0  0  0  0
   44.9680   35.2610   42.0130 C   0  0  0  0  0  0  0  0  0  0  0  0
   46.5510   31.8920   41.4240 C   0  0  0  0  0  0  0  0  0  0  0  0
   46.0390   33.1710   41.2000 C   0  0  0  0  0  0  0  0  0  0  0  0
   45.5400   33.4040   39.9160 C   0  0  0  0  0  0  0  0  0  0  0  0
   45.5830   32.4120   39.0050 N   0  0  0  0  0  0  0  0  0  0  0  0
   46.0810   31.2020   39.2590 C   0  0  0  0  0  0  0  0  0  0  0  0
   46.5650   30.9540   40.4780 N   0  0  0  0  0  0  0  0  0  0  0  0
   47.3710   34.8630   42.4380 C   0  0  0  0  0  0  0  0  0  0  0  0
   48.0660   35.1940   41.1520 C   0  0  0  0  0  0  0  0  0  0  0  0
   48.3140   33.9890   43.2440 C   0  0  0  0  0  0  0  0  0  0  0  0
   45.9807   32.4783   43.7306 H   0  0  0  0  0  0  0  0  0  0  0  0
   44.9430   33.8619   45.6204 H   0  0  0  0  0  0  0  0  0  0  0  0
   43.7961   35.8815   44.6467 H   0  0  0  0  0  0  0  0  0  0  0  0
   45.5788   36.2676   45.0544 H   0  0  0  0  0  0  0  0  0  0  0  0
   44.3527   37.0860   42.8933 H   0  0  0  0  0  0  0  0  0  0  0  0
   46.1174   36.6901   43.0497 H   0  0  0  0  0  0  0  0  0  0  0  0
   45.1330   35.7194   41.0268 H   0  0  0  0  0  0  0  0  0  0  0  0
   43.9623   34.8155   42.0233 H   0  0  0  0  0  0  0  0  0  0  0  0
   46.9575   31.6498   42.4171 H   0  0  0  0  0  0  0  0  0  0  0  0
   45.1174   34.3847   39.6521 H   0  0  0  0  0  0  0  0  0  0  0  0
   46.0929   30.4246   38.4809 H   0  0  0  0  0  0  0  0  0  0  0  0
   47.1414   35.8060   42.9556 H   0  0  0  0  0  0  0  0  0  0  0  0
   49.0394   35.6576   41.3701 H   0  0  0  0  0  0  0  0  0  0  0  0
   48.2205   34.2728   40.5711 H   0  0  0  0  0  0  0  0  0  0  0  0
   47.4481   35.8945   40.5711 H   0  0  0  0  0  0  0  0  0  0  0  0
   48.1378   34.1523   44.3175 H   0  0  0  0  0  0  0  0  0  0  0  0
   48.1333   32.9319   42.9994 H   0  0  0  0  0  0  0  0  0  0  0  0
   49.3544   34.2493   42.9994 H   0  0  0  0  0  0  0  0  0  0  0  0
  1 13  1  1
  1  2  1  0
  2  3  2  0
  4  3  1  0
  5  4  1  0
  6  1  1  0
  6  5  1  0
  8  7  2  0
  8  1  1  0
  9  8  1  0
 10 11  1  0
 10  9  2  0
 11 12  2  0
 12  7  1  0
 13 15  1  0
 14 13  1  0
  2 16  1  0
  3 17  1  0
  4 18  1  0
  4 19  1  0
  5 20  1  0
  5 21  1  0
  6 22  1  0
  6 23  1  0
  7 24  1  0
  9 25  1  0
 11 26  1  0
 13 27  1  0
 14 28  1  0
 14 29  1  0
 14 30  1  0
 15 31  1  0
 15 32  1  0
 15 33  1  0
M  ISO  8  16  13  17  13  18  13  19  13  20  13  21  13  22  13  23  13
M  ISO  8  24  14  25  14  26  14  27   8  28   8  29   8  30   8  31   8
M  ISO  2  32   8  33   8
M  END
>  <minimizedAffinity>  (1) 
-3.90364814

>  <minimizedRMSD>  (1) 
4.98381424

$$$$
