
     RDKit          3D

 25 27  0  0  0  0  0  0  0  0999 V2000
   45.9280   34.4160   41.8190 N   0  0  0  0  0  0  0  0  0  0  0  0
   45.3650   33.9760   40.7020 C   0  0  0  0  0  0  0  0  0  0  0  0
   46.2370   33.8660   39.7090 N   0  0  0  0  0  0  0  0  0  0  0  0
   47.4240   34.2640   40.2360 C   0  0  0  0  0  0  0  0  0  0  0  0
   47.2410   34.6080   41.5480 N   0  0  0  0  0  0  0  0  0  0  0  0
   48.7350   34.3700   39.6350 N   0  0  0  0  0  0  0  0  0  0  0  0
   43.9780   33.6720   40.6460 N   0  0  0  0  0  0  0  0  0  0  0  0
   43.1470   33.9820   39.6280 C   0  0  0  0  0  0  0  0  0  0  0  0
   41.8540   33.5630   39.8500 C   0  0  0  0  0  0  0  0  0  0  0  0
   41.9070   32.9780   41.0490 N   0  0  0  0  0  0  0  0  0  0  0  0
   43.1660   33.0480   41.5100 C   0  0  0  0  0  0  0  0  0  0  0  0
   44.4630   36.0630   44.8420 C   0  0  0  0  0  0  0  0  0  0  0  0
   44.8300   35.8880   43.4930 C   0  0  0  0  0  0  0  0  0  0  0  0
   45.5040   34.7120   43.1340 C   0  0  0  0  0  0  0  0  0  0  0  0
   45.7690   33.7990   44.1240 N   0  0  0  0  0  0  0  0  0  0  0  0
   45.4050   33.9960   45.4100 C   0  0  0  0  0  0  0  0  0  0  0  0
   44.7590   35.1190   45.7600 N   0  0  0  0  0  0  0  0  0  0  0  0
   49.5342   34.6963   40.1968 H   0  0  0  0  0  0  0  0  0  0  0  0
   48.8696   34.1192   38.6451 H   0  0  0  0  0  0  0  0  0  0  0  0
   43.4681   34.5121   38.7192 H   0  0  0  0  0  0  0  0  0  0  0  0
   40.9805   33.6825   39.1922 H   0  0  0  0  0  0  0  0  0  0  0  0
   43.4914   32.6423   42.4793 H   0  0  0  0  0  0  0  0  0  0  0  0
   43.9314   36.9757   45.1492 H   0  0  0  0  0  0  0  0  0  0  0  0
   44.5937   36.6546   42.7404 H   0  0  0  0  0  0  0  0  0  0  0  0
   45.6381   33.2359   46.1702 H   0  0  0  0  0  0  0  0  0  0  0  0
  1 14  1  0
  2  1  1  0
  3  4  1  0
  3  2  2  0
  4  5  2  0
  5  1  1  0
  6  4  1  0
  7  2  1  0
  7 11  1  0
  8  9  2  0
  8  7  1  0
  9 10  1  0
 10 11  2  0
 12 17  2  0
 13 12  1  0
 14 13  2  0
 14 15  1  0
 15 16  2  0
 16 17  1  0
  6 18  1  0
  6 19  1  0
  8 20  1  0
  9 21  1  0
 11 22  1  0
 12 23  1  0
 13 24  1  0
 16 25  1  0
M  ISO  6  20  14  21  14  22  14  23  14  24  14  25  14
M  END
>  <minimizedAffinity>  (1) 
-4.99714279

>  <minimizedRMSD>  (1) 
0.763452709

$$$$
