
     RDKit          3D

 34 36  0  0  1  0  0  0  0  0999 V2000
   44.5240   34.0840   41.0540 C   0  0  2  0  0  0  0  0  0  0  0  0
   43.7070   33.5270   39.9300 C   0  0  0  0  0  0  0  0  0  0  0  0
   42.3170   33.9710   39.9150 C   0  0  0  0  0  0  0  0  0  0  0  0
   41.7920   34.8900   40.9270 C   0  0  0  0  0  0  0  0  0  0  0  0
   42.7310   35.4160   41.9110 C   0  0  0  0  0  0  0  0  0  0  0  0
   44.1390   35.4600   41.4110 C   0  0  0  0  0  0  0  0  0  0  0  0
   46.2920   32.8600   39.8780 C   0  0  0  0  0  0  0  0  0  0  0  0
   45.9480   33.9010   40.7130 C   0  0  0  0  0  0  0  0  0  0  0  0
   46.9890   34.7350   41.2200 C   0  0  0  0  0  0  0  0  0  0  0  0
   48.2610   34.4680   40.8650 N   0  0  0  0  0  0  0  0  0  0  0  0
   48.5610   33.4370   40.0430 C   0  0  0  0  0  0  0  0  0  0  0  0
   47.5910   32.6430   39.5550 N   0  0  0  0  0  0  0  0  0  0  0  0
   44.2590   33.0690   42.1740 C   0  0  0  0  0  0  0  0  0  0  0  0
   43.5050   32.0990   42.4660 O   0  0  0  0  0  0  0  0  0  0  0  0
   45.0790   33.0410   43.4350 C   0  0  0  0  0  0  0  0  0  0  0  0
   45.1030   34.0350   44.3870 C   0  0  0  0  0  0  0  0  0  0  0  0
   45.8220   33.9940   45.5550 C   0  0  0  0  0  0  0  0  0  0  0  0
   46.5600   32.9220   45.8080 N   0  0  0  0  0  0  0  0  0  0  0  0
   46.5720   31.9320   44.9180 C   0  0  0  0  0  0  0  0  0  0  0  0
   45.8560   32.0430   43.8230 N   0  0  0  0  0  0  0  0  0  0  0  0
   44.1205   32.8396   39.1773 H   0  0  0  0  0  0  0  0  0  0  0  0
   41.6464   33.6060   39.1232 H   0  0  0  0  0  0  0  0  0  0  0  0
   41.3548   35.7489   40.3969 H   0  0  0  0  0  0  0  0  0  0  0  0
   41.0820   34.2868   41.5118 H   0  0  0  0  0  0  0  0  0  0  0  0
   42.4223   36.4372   42.1789 H   0  0  0  0  0  0  0  0  0  0  0  0
   42.7113   34.7397   42.7783 H   0  0  0  0  0  0  0  0  0  0  0  0
   44.8052   35.8446   42.1973 H   0  0  0  0  0  0  0  0  0  0  0  0
   44.2201   36.1244   40.5380 H   0  0  0  0  0  0  0  0  0  0  0  0
   45.5095   32.2023   39.4718 H   0  0  0  0  0  0  0  0  0  0  0  0
   46.7577   35.5786   41.8870 H   0  0  0  0  0  0  0  0  0  0  0  0
   49.6094   33.2456   39.7705 H   0  0  0  0  0  0  0  0  0  0  0  0
   44.4977   34.9335   44.1963 H   0  0  0  0  0  0  0  0  0  0  0  0
   45.7868   34.8325   46.2661 H   0  0  0  0  0  0  0  0  0  0  0  0
   47.1756   31.0302   45.0981 H   0  0  0  0  0  0  0  0  0  0  0  0
  1  6  1  0
  1 13  1  1
  2  1  1  0
  3  2  2  0
  3  4  1  0
  4  5  1  0
  6  5  1  0
  7  8  2  0
  8  1  1  0
  8  9  1  0
 10  9  2  0
 11 10  1  0
 12  7  1  0
 12 11  2  0
 13 14  2  0
 13 15  1  0
 15 20  1  0
 15 16  2  0
 16 17  1  0
 17 18  2  0
 19 18  1  0
 20 19  2  0
  2 21  1  0
  3 22  1  0
  4 23  1  0
  4 24  1  0
  5 25  1  0
  5 26  1  0
  6 27  1  0
  6 28  1  0
  7 29  1  0
  9 30  1  0
 11 31  1  0
 16 32  1  0
 17 33  1  0
 19 34  1  0
M  ISO  8  21  13  22  13  23  13  24  13  25  13  26  13  27  13  28  13
M  ISO  6  29  14  30  14  31  14  32  14  33  14  34  14
M  END
>  <minimizedAffinity>  (1) 
-4.36772585

>  <minimizedRMSD>  (1) 
5.12791204

$$$$
