
     RDKit          3D

 40 42  0  0  1  0  0  0  0  0999 V2000
   45.8000   33.6160   43.1430 C   0  0  1  0  0  0  0  0  0  0  0  0
   45.6650   35.0590   43.4560 C   0  0  0  0  0  0  0  0  0  0  0  0
   44.7940   35.8240   42.5990 C   0  0  0  0  0  0  0  0  0  0  0  0
   44.0800   35.2190   41.4950 C   0  0  0  0  0  0  0  0  0  0  0  0
   44.2240   33.7820   41.3110 C   0  0  0  0  0  0  0  0  0  0  0  0
   44.4840   33.0910   42.6170 C   0  0  0  0  0  0  0  0  0  0  0  0
   46.9150   33.5420   42.0970 C   0  0  0  0  0  0  0  0  0  0  0  0
   47.0000   33.3470   40.8430 O   0  0  0  0  0  0  0  0  0  0  0  0
   48.2480   33.7480   42.6610 N   0  0  0  0  0  0  0  0  0  0  0  0
   49.0080   34.8840   42.4220 C   0  0  0  0  0  0  0  0  0  0  0  0
   48.7540   35.9280   41.8330 N   0  0  0  0  0  0  0  0  0  0  0  0
   50.3620   35.0930   42.8840 N   0  0  0  0  0  0  0  0  0  0  0  0
   47.9670   36.3240   41.3780 H   0  0  0  0  0  0  0  0  0  0  0  0
   46.2340   33.5510   45.5300 C   0  0  0  0  0  0  0  0  0  0  0  0
   46.3120   32.8970   44.3190 C   0  0  0  0  0  0  0  0  0  0  0  0
   46.9170   31.5910   44.2660 C   0  0  0  0  0  0  0  0  0  0  0  0
   47.3870   31.0620   45.4020 N   0  0  0  0  0  0  0  0  0  0  0  0
   47.2990   31.7270   46.5690 C   0  0  0  0  0  0  0  0  0  0  0  0
   46.7330   32.9440   46.6280 N   0  0  0  0  0  0  0  0  0  0  0  0
   47.8550   31.0280   47.7220 C   0  0  0  0  0  0  0  0  0  0  0  0
   48.7450   29.9720   47.7530 C   0  0  0  0  0  0  0  0  0  0  0  0
   48.9950   29.6300   49.0860 C   0  0  0  0  0  0  0  0  0  0  0  0
   48.2400   30.5000   49.8190 N   0  0  0  0  0  0  0  0  0  0  0  0
   47.5770   31.3140   49.0060 N   0  0  0  0  0  0  0  0  0  0  0  0
   46.2012   35.5215   44.2978 H   0  0  0  0  0  0  0  0  0  0  0  0
   44.6683   36.9000   42.7899 H   0  0  0  0  0  0  0  0  0  0  0  0
   43.0098   35.4274   41.6404 H   0  0  0  0  0  0  0  0  0  0  0  0
   44.5265   35.6641   40.5936 H   0  0  0  0  0  0  0  0  0  0  0  0
   43.2983   33.3820   40.8715 H   0  0  0  0  0  0  0  0  0  0  0  0
   45.0800   33.6003   40.6444 H   0  0  0  0  0  0  0  0  0  0  0  0
   43.6765   33.3148   43.3296 H   0  0  0  0  0  0  0  0  0  0  0  0
   44.5235   32.0001   42.4818 H   0  0  0  0  0  0  0  0  0  0  0  0
   48.6425   33.0134   43.2657 H   0  0  0  0  0  0  0  0  0  0  0  0
   50.8531   35.9701   42.6596 H   0  0  0  0  0  0  0  0  0  0  0  0
   50.8355   34.3648   43.4375 H   0  0  0  0  0  0  0  0  0  0  0  0
   45.7742   34.5478   45.6004 H   0  0  0  0  0  0  0  0  0  0  0  0
   46.9909   31.0421   43.3156 H   0  0  0  0  0  0  0  0  0  0  0  0
   49.1852   29.4803   46.8730 H   0  0  0  0  0  0  0  0  0  0  0  0
   49.6553   28.8344   49.4615 H   0  0  0  0  0  0  0  0  0  0  0  0
   48.1920   30.5216   50.8477 H   0  0  0  0  0  0  0  0  0  0  0  0
  1  7  1  6
  1  2  1  0
  1 15  1  0
  3  2  2  0
  4  3  1  0
  5  4  1  0
  5  6  1  0
  6  1  1  0
  7  9  1  0
  8  7  2  0
 10  9  1  0
 10 12  1  0
 11 10  2  0
 13 11  1  0
 14 19  2  0
 15 14  1  0
 16 15  2  0
 16 17  1  0
 17 18  2  0
 18 19  1  0
 18 20  1  0
 20 21  1  0
 20 24  2  0
 21 22  2  0
 22 23  1  0
 24 23  1  0
  2 25  1  0
  3 26  1  0
  4 27  1  0
  4 28  1  0
  5 29  1  0
  5 30  1  0
  6 31  1  0
  6 32  1  0
  9 33  1  0
 12 34  1  0
 12 35  1  0
 14 36  1  0
 16 37  1  0
 21 38  1  0
 22 39  1  0
 23 40  1  0
M  ISO  8  25  13  26  13  27  13  28  13  29  13  30  13  31  13  32  13
M  ISO  5  36  14  37  14  38  14  39  14  40   9
M  END
>  <minimizedAffinity>  (1) 
-6.33261728

>  <minimizedRMSD>  (1) 
1.44490778

$$$$
