
     RDKit          3D

 35 37  0  0  1  0  0  0  0  0999 V2000
   44.9380   34.7800   41.2370 C   0  0  2  0  0  0  0  0  0  0  0  0
   44.0680   35.8100   41.8110 C   0  0  0  0  0  0  0  0  0  0  0  0
   42.6340   35.2780   41.7810 C   0  0  0  0  0  0  0  0  0  0  0  0
   42.6970   33.8540   41.2760 C   0  0  2  0  0  0  0  0  0  0  0  0
   43.9600   33.8270   40.4960 C   0  0  0  0  0  0  0  0  0  0  0  0
   45.6940   33.9310   42.1710 C   0  0  0  0  0  0  0  0  0  0  0  0
   45.9660   34.4120   43.4630 C   0  0  0  0  0  0  0  0  0  0  0  0
   46.6630   33.6110   44.3640 C   0  0  0  0  0  0  0  0  0  0  0  0
   47.0470   32.3700   43.9110 N   0  0  0  0  0  0  0  0  0  0  0  0
   46.7740   31.9360   42.6630 C   0  0  0  0  0  0  0  0  0  0  0  0
   46.0980   32.7140   41.7940 N   0  0  0  0  0  0  0  0  0  0  0  0
   41.5170   33.5500   40.5150 N   0  0  0  0  0  0  0  0  0  0  0  0
   41.7330   33.9100   39.1450 C   0  0  0  0  0  0  0  0  0  0  0  0
   40.5590   34.7030   38.6690 C   0  0  0  0  0  0  0  0  0  0  0  0
   39.9490   35.2320   39.9440 C   0  0  0  0  0  0  0  0  0  0  0  0
   40.3320   34.1870   40.9620 C   0  0  0  0  0  0  0  0  0  0  0  0
   45.7021   35.3051   40.6450 H   0  0  0  0  0  0  0  0  0  0  0  0
   44.3685   36.0185   42.8484 H   0  0  0  0  0  0  0  0  0  0  0  0
   44.1444   36.7436   41.2344 H   0  0  0  0  0  0  0  0  0  0  0  0
   42.2022   35.3006   42.7924 H   0  0  0  0  0  0  0  0  0  0  0  0
   42.0011   35.8968   41.1279 H   0  0  0  0  0  0  0  0  0  0  0  0
   42.7104   33.0813   42.0588 H   0  0  0  0  0  0  0  0  0  0  0  0
   43.7837   34.1819   39.4698 H   0  0  0  0  0  0  0  0  0  0  0  0
   44.3674   32.8079   40.4218 H   0  0  0  0  0  0  0  0  0  0  0  0
   45.6301   35.4161   43.7611 H   0  0  0  0  0  0  0  0  0  0  0  0
   46.8943   33.9524   45.3838 H   0  0  0  0  0  0  0  0  0  0  0  0
   47.1071   30.9352   42.3508 H   0  0  0  0  0  0  0  0  0  0  0  0
   42.6476   34.5153   39.0608 H   0  0  0  0  0  0  0  0  0  0  0  0
   41.8475   33.0038   38.5321 H   0  0  0  0  0  0  0  0  0  0  0  0
   40.8806   35.5275   38.0157 H   0  0  0  0  0  0  0  0  0  0  0  0
   39.8532   34.1064   38.0724 H   0  0  0  0  0  0  0  0  0  0  0  0
   40.3709   36.2133   40.2067 H   0  0  0  0  0  0  0  0  0  0  0  0
   38.8627   35.3897   39.8721 H   0  0  0  0  0  0  0  0  0  0  0  0
   39.5242   33.4466   41.0582 H   0  0  0  0  0  0  0  0  0  0  0  0
   40.4977   34.6543   41.9439 H   0  0  0  0  0  0  0  0  0  0  0  0
  1  2  1  0
  1  6  1  0
  3  2  1  0
  4  3  1  0
  5  1  1  0
  5  4  1  0
  6  7  2  0
  7  8  1  0
  9  8  2  0
 10  9  1  0
 11  6  1  0
 11 10  2  0
 12 13  1  0
 12 16  1  0
 12  4  1  0
 14 13  1  0
 14 15  1  0
 15 16  1  0
  1 17  1  6
  2 18  1  0
  2 19  1  0
  3 20  1  0
  3 21  1  0
  4 22  1  1
  5 23  1  0
  5 24  1  0
  7 25  1  0
  8 26  1  0
 10 27  1  0
 13 28  1  0
 13 29  1  0
 14 30  1  0
 14 31  1  0
 15 32  1  0
 15 33  1  0
 16 34  1  0
 16 35  1  0
M  ISO  8  17  13  18  13  19  13  20  13  21  13  22  13  23  13  24  13
M  ISO  8  25  14  26  14  27  14  28  13  29  13  30  13  31  13  32  13
M  ISO  3  33  13  34  13  35  13
M  END
>  <minimizedAffinity>  (1) 
-4.14428473

>  <minimizedRMSD>  (1) 
6.44629622

$$$$
