
     RDKit          3D

 37 39  0  0  1  0  0  0  0  0999 V2000
   47.7790   35.1120   41.5750 C   0  0  2  0  0  0  0  0  0  0  0  0
   48.3070   34.4310   40.4180 C   0  0  0  0  0  0  0  0  0  0  0  0
   48.8460   33.0620   40.8660 C   0  0  0  0  0  0  0  0  0  0  0  0
   48.5760   32.9340   42.3440 C   0  0  1  0  0  0  0  0  0  0  0  0
   48.4400   34.3340   42.7800 C   0  0  0  0  0  0  0  0  0  0  0  0
   46.3470   35.0880   41.8600 C   0  0  0  0  0  0  0  0  0  0  0  0
   45.5110   34.4400   40.9450 C   0  0  0  0  0  0  0  0  0  0  0  0
   44.1390   34.3600   41.1580 C   0  0  0  0  0  0  0  0  0  0  0  0
   43.6890   34.9620   42.3250 N   0  0  0  0  0  0  0  0  0  0  0  0
   44.5190   35.5800   43.1890 C   0  0  0  0  0  0  0  0  0  0  0  0
   45.8460   35.6430   42.9560 N   0  0  0  0  0  0  0  0  0  0  0  0
   47.1460   31.9150   42.7150 S   0  0  0  0  0  0  0  0  0  0  0  0
   46.5060   31.8300   47.2450 C   0  0  0  0  0  0  0  0  0  0  0  0
   47.2220   30.8840   46.5430 C   0  0  0  0  0  0  0  0  0  0  0  0
   47.3760   30.9680   45.1680 C   0  0  0  0  0  0  0  0  0  0  0  0
   46.8050   32.0220   44.4630 C   0  0  0  0  0  0  0  0  0  0  0  0
   46.0960   32.9590   45.1700 C   0  0  0  0  0  0  0  0  0  0  0  0
   45.9530   32.8600   46.5250 C   0  0  0  0  0  0  0  0  0  0  0  0
   46.2960   31.7530   48.9700 S   0  0  0  0  0  0  0  0  0  0  0  0
   44.9770   31.0870   49.2510 O   0  0  0  0  0  0  0  0  0  0  0  0
   47.4180   30.8900   49.5150 O   0  0  0  0  0  0  0  0  0  0  0  0
   47.9920   36.1778   41.4054 H   0  0  0  0  0  0  0  0  0  0  0  0
   49.1211   35.0247   39.9766 H   0  0  0  0  0  0  0  0  0  0  0  0
   47.5173   34.2984   39.6638 H   0  0  0  0  0  0  0  0  0  0  0  0
   48.3321   32.2580   40.3187 H   0  0  0  0  0  0  0  0  0  0  0  0
   49.9234   32.9817   40.6592 H   0  0  0  0  0  0  0  0  0  0  0  0
   49.3770   32.4063   42.8825 H   0  0  0  0  0  0  0  0  0  0  0  0
   49.4281   34.7585   43.0111 H   0  0  0  0  0  0  0  0  0  0  0  0
   47.8268   34.4113   43.6899 H   0  0  0  0  0  0  0  0  0  0  0  0
   45.9457   33.9862   40.0422 H   0  0  0  0  0  0  0  0  0  0  0  0
   43.4604   33.8567   40.4536 H   0  0  0  0  0  0  0  0  0  0  0  0
   44.1072   36.0405   44.0991 H   0  0  0  0  0  0  0  0  0  0  0  0
   47.6810   30.0444   47.0857 H   0  0  0  0  0  0  0  0  0  0  0  0
   47.9517   30.1985   44.6328 H   0  0  0  0  0  0  0  0  0  0  0  0
   45.6350   33.8039   44.6375 H   0  0  0  0  0  0  0  0  0  0  0  0
   45.3758   33.6308   47.0567 H   0  0  0  0  0  0  0  0  0  0  0  0
   46.3172   32.9972   49.5430 H   0  0  0  0  0  0  0  0  0  0  0  0
  1  6  1  0
  1  5  1  0
  2  3  1  0
  2  1  1  0
  3  4  1  0
  4 12  1  0
  4  5  1  0
  6 11  2  0
  7  8  2  0
  7  6  1  0
  8  9  1  0
  9 10  2  0
 11 10  1  0
 12 16  1  0
 13 19  1  0
 14 13  2  0
 15 14  1  0
 16 15  2  0
 16 17  1  0
 17 18  2  0
 18 13  1  0
 19 20  2  0
 19 21  2  0
  1 22  1  6
  2 23  1  0
  2 24  1  0
  3 25  1  0
  3 26  1  0
  4 27  1  1
  5 28  1  0
  5 29  1  0
  7 30  1  0
  8 31  1  0
 10 32  1  0
 14 33  1  0
 15 34  1  0
 17 35  1  0
 18 36  1  0
 19 37  1  0
M  ISO  8  22  13  23  13  24  13  25  13  26  13  27  13  28  13  29  13
M  ISO  8  30  14  31  14  32  14  33  14  34  14  35  14  36  14  37  11
M  END
>  <minimizedAffinity>  (1) 
-5.21432257

>  <minimizedRMSD>  (1) 
2.19725633

$$$$
