
     RDKit          3D

 25 27  0  0  0  0  0  0  0  0999 V2000
   45.9440   34.4500   41.7580 N   0  0  0  0  0  0  0  0  0  0  0  0
   45.3660   33.9840   40.6550 C   0  0  0  0  0  0  0  0  0  0  0  0
   46.2300   33.8420   39.6580 N   0  0  0  0  0  0  0  0  0  0  0  0
   47.4250   34.2450   40.1690 C   0  0  0  0  0  0  0  0  0  0  0  0
   47.2470   34.6240   41.4790 N   0  0  0  0  0  0  0  0  0  0  0  0
   48.7460   34.3210   39.5690 N   0  0  0  0  0  0  0  0  0  0  0  0
   44.4990   36.1950   44.7330 C   0  0  0  0  0  0  0  0  0  0  0  0
   44.8880   35.9730   43.4140 C   0  0  0  0  0  0  0  0  0  0  0  0
   45.5100   34.7750   43.0620 C   0  0  0  0  0  0  0  0  0  0  0  0
   45.7120   33.8580   44.0640 N   0  0  0  0  0  0  0  0  0  0  0  0
   45.3220   34.1000   45.3450 C   0  0  0  0  0  0  0  0  0  0  0  0
   44.7250   35.2580   45.6600 N   0  0  0  0  0  0  0  0  0  0  0  0
   43.9120   33.6790   40.6190 C   0  0  0  0  0  0  0  0  0  0  0  0
   43.2280   33.9340   39.2740 C   0  0  0  0  0  0  0  0  0  0  0  0
   42.9530   34.8070   40.4350 C   0  0  0  0  0  0  0  0  0  0  0  0
   49.5452   34.6583   40.1243 H   0  0  0  0  0  0  0  0  0  0  0  0
   48.8833   34.0376   38.5883 H   0  0  0  0  0  0  0  0  0  0  0  0
   44.0071   37.1387   45.0114 H   0  0  0  0  0  0  0  0  0  0  0  0
   44.7047   36.7426   42.6497 H   0  0  0  0  0  0  0  0  0  0  0  0
   45.4971   33.3434   46.1240 H   0  0  0  0  0  0  0  0  0  0  0  0
   43.9938   32.8502   41.3376 H   0  0  0  0  0  0  0  0  0  0  0  0
   42.4547   33.2423   38.9085 H   0  0  0  0  0  0  0  0  0  0  0  0
   43.5709   34.0929   38.2410 H   0  0  0  0  0  0  0  0  0  0  0  0
   43.3238   35.8426   40.4373 H   0  0  0  0  0  0  0  0  0  0  0  0
   42.0367   35.1254   40.9536 H   0  0  0  0  0  0  0  0  0  0  0  0
  1  9  1  0
  2  1  1  0
  3  4  1  0
  3  2  2  0
  4  5  2  0
  5  1  1  0
  6  4  1  0
  7 12  2  0
  8  7  1  0
  9  8  2  0
  9 10  1  0
 10 11  2  0
 11 12  1  0
 13  2  1  0
 14 15  1  0
 14 13  1  0
 15 13  1  0
  6 16  1  0
  6 17  1  0
  7 18  1  0
  8 19  1  0
 11 20  1  0
 13 21  1  0
 14 22  1  0
 14 23  1  0
 15 24  1  0
 15 25  1  0
M  ISO  8  18  14  19  14  20  14  21  13  22  13  23  13  24  13  25  13
M  END
>  <minimizedAffinity>  (1) 
-4.46566629

>  <minimizedRMSD>  (1) 
0.65204227

$$$$
