
     RDKit          3D

 33 35  0  0  1  0  0  0  0  0999 V2000
   46.8450   34.0150   42.3510 C   0  0  2  0  0  0  0  0  0  0  0  0
   46.5220   34.5900   41.0650 C   0  0  0  0  0  0  0  0  0  0  0  0
   45.6230   33.6020   40.2980 C   0  0  0  0  0  0  0  0  0  0  0  0
   45.3640   32.4490   41.2120 C   0  0  1  0  0  0  0  0  0  0  0  0
   46.4910   32.4880   42.1560 C   0  0  0  0  0  0  0  0  0  0  0  0
   46.0960   34.4060   43.5390 C   0  0  0  0  0  0  0  0  0  0  0  0
   45.3310   35.5880   43.4750 C   0  0  0  0  0  0  0  0  0  0  0  0
   44.5810   36.0060   44.5680 C   0  0  0  0  0  0  0  0  0  0  0  0
   44.6450   35.1950   45.6840 N   0  0  0  0  0  0  0  0  0  0  0  0
   45.3860   34.0720   45.7150 C   0  0  0  0  0  0  0  0  0  0  0  0
   46.1110   33.6730   44.6490 N   0  0  0  0  0  0  0  0  0  0  0  0
   43.7470   32.5060   42.0180 S   0  0  0  0  0  0  0  0  0  0  0  0
   42.6240   33.5600   41.1140 C   0  0  0  0  0  0  0  0  0  0  0  0
   42.3610   34.8680   41.5160 C   0  0  0  0  0  0  0  0  0  0  0  0
   41.4810   35.6700   40.7960 C   0  0  0  0  0  0  0  0  0  0  0  0
   40.8980   35.0970   39.6830 C   0  0  0  0  0  0  0  0  0  0  0  0
   41.1610   33.8030   39.2890 C   0  0  0  0  0  0  0  0  0  0  0  0
   42.0170   33.0530   40.0060 N   0  0  0  0  0  0  0  0  0  0  0  0
   47.8751   34.3371   42.5635 H   0  0  0  0  0  0  0  0  0  0  0  0
   45.9895   35.5419   41.2077 H   0  0  0  0  0  0  0  0  0  0  0  0
   47.4438   34.7799   40.4956 H   0  0  0  0  0  0  0  0  0  0  0  0
   44.6748   34.0879   40.0244 H   0  0  0  0  0  0  0  0  0  0  0  0
   46.1097   33.2666   39.3703 H   0  0  0  0  0  0  0  0  0  0  0  0
   45.3121   31.4959   40.6653 H   0  0  0  0  0  0  0  0  0  0  0  0
   46.2004   32.0376   43.1166 H   0  0  0  0  0  0  0  0  0  0  0  0
   47.3534   31.9204   41.7765 H   0  0  0  0  0  0  0  0  0  0  0  0
   45.3275   36.1853   42.5513 H   0  0  0  0  0  0  0  0  0  0  0  0
   43.9753   36.9239   44.5456 H   0  0  0  0  0  0  0  0  0  0  0  0
   45.4011   33.4644   46.6318 H   0  0  0  0  0  0  0  0  0  0  0  0
   42.8546   35.2710   42.4126 H   0  0  0  0  0  0  0  0  0  0  0  0
   41.2615   36.7049   41.0972 H   0  0  0  0  0  0  0  0  0  0  0  0
   40.1953   35.6978   39.0869 H   0  0  0  0  0  0  0  0  0  0  0  0
   40.6745   33.3864   38.3947 H   0  0  0  0  0  0  0  0  0  0  0  0
  1  6  1  0
  2  1  1  0
  3  2  1  0
  3  4  1  0
  4 12  1  0
  4  5  1  0
  5  1  1  0
  6 11  1  0
  7  6  2  0
  7  8  1  0
  8  9  2  0
  9 10  1  0
 11 10  2  0
 13 14  2  0
 13 12  1  0
 15 14  1  0
 16 15  2  0
 17 16  1  0
 17 18  2  0
 18 13  1  0
  1 19  1  1
  2 20  1  0
  2 21  1  0
  3 22  1  0
  3 23  1  0
  4 24  1  6
  5 25  1  0
  5 26  1  0
  7 27  1  0
  8 28  1  0
 10 29  1  0
 14 30  1  0
 15 31  1  0
 16 32  1  0
 17 33  1  0
M  ISO  8  19  13  20  13  21  13  22  13  23  13  24  13  25  13  26  13
M  ISO  7  27  14  28  14  29  14  30  14  31  14  32  14  33  14
M  END
>  <minimizedAffinity>  (1) 
-4.87020826

>  <minimizedRMSD>  (1) 
6.70907497

$$$$
