
     RDKit          3D

 38 41  0  0  1  0  0  0  0  0999 V2000
   47.8430   35.1090   41.7000 C   0  0  2  0  0  0  0  0  0  0  0  0
   48.4250   34.4210   40.5720 C   0  0  0  0  0  0  0  0  0  0  0  0
   49.0400   33.1010   41.0720 C   0  0  0  0  0  0  0  0  0  0  0  0
   48.7350   33.0030   42.5430 C   0  0  1  0  0  0  0  0  0  0  0  0
   48.5150   34.3990   42.9410 C   0  0  0  0  0  0  0  0  0  0  0  0
   46.4120   35.0180   41.9680 C   0  0  0  0  0  0  0  0  0  0  0  0
   45.6030   34.4310   40.9820 C   0  0  0  0  0  0  0  0  0  0  0  0
   44.2310   34.2960   41.1770 C   0  0  0  0  0  0  0  0  0  0  0  0
   43.7500   34.7720   42.3750 N   0  0  0  0  0  0  0  0  0  0  0  0
   44.5530   35.3340   43.3090 C   0  0  0  0  0  0  0  0  0  0  0  0
   45.8810   35.4590   43.1090 N   0  0  0  0  0  0  0  0  0  0  0  0
   47.3480   31.9090   42.9100 S   0  0  0  0  0  0  0  0  0  0  0  0
   47.6020   31.1170   44.4990 C   0  0  0  0  0  0  0  0  0  0  0  0
   48.3880   30.0300   44.6480 N   0  0  0  0  0  0  0  0  0  0  0  0
   48.5900   29.4240   45.8360 C   0  0  0  0  0  0  0  0  0  0  0  0
   47.9780   29.9260   46.9240 N   0  0  0  0  0  0  0  0  0  0  0  0
   47.1920   31.0010   46.8160 C   0  0  0  0  0  0  0  0  0  0  0  0
   46.5850   31.4840   47.9490 C   0  0  0  0  0  0  0  0  0  0  0  0
   45.7670   32.5970   47.8480 C   0  0  0  0  0  0  0  0  0  0  0  0
   45.5530   33.2250   46.6500 C   0  0  0  0  0  0  0  0  0  0  0  0
   46.1450   32.7670   45.4990 C   0  0  0  0  0  0  0  0  0  0  0  0
   46.9670   31.6450   45.6070 C   0  0  0  0  0  0  0  0  0  0  0  0
   48.0079   36.1774   41.4968 H   0  0  0  0  0  0  0  0  0  0  0  0
   49.2075   35.0471   40.1185 H   0  0  0  0  0  0  0  0  0  0  0  0
   47.6533   34.2156   39.8155 H   0  0  0  0  0  0  0  0  0  0  0  0
   48.5945   32.2498   40.5363 H   0  0  0  0  0  0  0  0  0  0  0  0
   50.1253   33.0811   40.8938 H   0  0  0  0  0  0  0  0  0  0  0  0
   49.5504   32.5366   43.1154 H   0  0  0  0  0  0  0  0  0  0  0  0
   49.4729   34.8819   43.1843 H   0  0  0  0  0  0  0  0  0  0  0  0
   47.8778   34.4658   43.8352 H   0  0  0  0  0  0  0  0  0  0  0  0
   46.0577   34.0742   40.0461 H   0  0  0  0  0  0  0  0  0  0  0  0
   43.5743   33.8385   40.4224 H   0  0  0  0  0  0  0  0  0  0  0  0
   44.1134   35.6960   44.2501 H   0  0  0  0  0  0  0  0  0  0  0  0
   49.2400   28.5400   45.9135 H   0  0  0  0  0  0  0  0  0  0  0  0
   46.7458   30.9949   48.9211 H   0  0  0  0  0  0  0  0  0  0  0  0
   45.2770   32.9863   48.7526 H   0  0  0  0  0  0  0  0  0  0  0  0
   44.8982   34.1080   46.6093 H   0  0  0  0  0  0  0  0  0  0  0  0
   45.9781   33.2640   44.5320 H   0  0  0  0  0  0  0  0  0  0  0  0
  1  6  1  0
  1  5  1  0
  2  3  1  0
  2  1  1  0
  3  4  1  0
  4 12  1  0
  4  5  1  0
  6 11  2  0
  7  8  2  0
  7  6  1  0
  8  9  1  0
  9 10  2  0
 11 10  1  0
 12 13  1  0
 13 14  2  0
 13 22  1  0
 14 15  1  0
 15 16  2  0
 17 16  1  0
 17 18  2  0
 19 18  1  0
 20 19  2  0
 21 22  2  0
 21 20  1  0
 22 17  1  0
  1 23  1  6
  2 24  1  0
  2 25  1  0
  3 26  1  0
  3 27  1  0
  4 28  1  1
  5 29  1  0
  5 30  1  0
  7 31  1  0
  8 32  1  0
 10 33  1  0
 15 34  1  0
 18 35  1  0
 19 36  1  0
 20 37  1  0
 21 38  1  0
M  ISO  8  23  13  24  13  25  13  26  13  27  13  28  13  29  13  30  13
M  ISO  8  31  14  32  14  33  14  34  14  35  14  36  14  37  14  38  14
M  END
>  <minimizedAffinity>  (1) 
-5.26028347

>  <minimizedRMSD>  (1) 
3.03193688

$$$$
