
     RDKit          3D

 24 25  0  0  1  0  0  0  0  0999 V2000
   46.1790   34.5490   41.1740 C   0  0  2  0  0  0  0  0  0  0  0  0
   47.5310   34.4260   40.6290 C   0  0  0  0  0  0  0  0  0  0  0  0
   48.5120   34.3970   41.8050 C   0  0  0  0  0  0  0  0  0  0  0  0
   47.6920   34.3900   43.0660 C   0  0  1  0  0  0  0  0  0  0  0  0
   46.4060   34.9990   42.6480 C   0  0  0  0  0  0  0  0  0  0  0  0
   45.3630   33.3280   41.2620 C   0  0  0  0  0  0  0  0  0  0  0  0
   45.7170   32.2180   40.4750 C   0  0  0  0  0  0  0  0  0  0  0  0
   44.9680   31.0460   40.5590 C   0  0  0  0  0  0  0  0  0  0  0  0
   43.9040   31.0610   41.4320 N   0  0  0  0  0  0  0  0  0  0  0  0
   43.5870   32.1390   42.1730 C   0  0  0  0  0  0  0  0  0  0  0  0
   44.3150   33.2710   42.0890 N   0  0  0  0  0  0  0  0  0  0  0  0
   47.5190   32.7580   43.8100 S   0  0  0  0  0  0  0  0  0  0  0  0
   45.6279   35.2177   40.4964 H   0  0  0  0  0  0  0  0  0  0  0  0
   47.6165   33.4959   40.0480 H   0  0  0  0  0  0  0  0  0  0  0  0
   47.7547   35.2734   39.9643 H   0  0  0  0  0  0  0  0  0  0  0  0
   49.1344   33.4914   41.7548 H   0  0  0  0  0  0  0  0  0  0  0  0
   49.1808   35.2699   41.7781 H   0  0  0  0  0  0  0  0  0  0  0  0
   48.1726   34.9538   43.8791 H   0  0  0  0  0  0  0  0  0  0  0  0
   46.4646   36.0958   42.7084 H   0  0  0  0  0  0  0  0  0  0  0  0
   45.5783   34.6811   43.2991 H   0  0  0  0  0  0  0  0  0  0  0  0
   46.5809   32.2745   39.7964 H   0  0  0  0  0  0  0  0  0  0  0  0
   45.2138   30.1568   39.9599 H   0  0  0  0  0  0  0  0  0  0  0  0
   42.7247   32.0961   42.8546 H   0  0  0  0  0  0  0  0  0  0  0  0
   47.5314   32.8747   45.1750 H   0  0  0  0  0  0  0  0  0  0  0  0
  1  6  1  0
  1  5  1  0
  2  1  1  0
  2  3  1  0
  3  4  1  0
  4 12  1  0
  5  4  1  0
  6 11  2  0
  7  8  2  0
  7  6  1  0
  8  9  1  0
  9 10  2  0
 11 10  1  0
  1 13  1  6
  2 14  1  0
  2 15  1  0
  3 16  1  0
  3 17  1  0
  4 18  1  1
  5 19  1  0
  5 20  1  0
  7 21  1  0
  8 22  1  0
 10 23  1  0
 12 24  1  0
M  ISO  8  13  13  14  13  15  13  16  13  17  13  18  13  19  13  20  13
M  ISO  4  21  14  22  14  23  14  24  11
M  END
>  <minimizedAffinity>  (1) 
-2.8212204

>  <minimizedRMSD>  (1) 
0.564659655

$$$$
