
     RDKit          3D

 32 34  0  0  1  0  0  0  0  0999 V2000
   47.7210   34.8340   41.5770 C   0  0  2  0  0  0  0  0  0  0  0  0
   48.1940   33.8610   40.6200 C   0  0  0  0  0  0  0  0  0  0  0  0
   48.6720   32.6110   41.3870 C   0  0  0  0  0  0  0  0  0  0  0  0
   48.4150   32.8680   42.8420 C   0  0  1  0  0  0  0  0  0  0  0  0
   48.3620   34.3330   42.9310 C   0  0  0  0  0  0  0  0  0  0  0  0
   46.2970   34.9500   41.8710 C   0  0  0  0  0  0  0  0  0  0  0  0
   45.3960   34.3860   40.9540 C   0  0  0  0  0  0  0  0  0  0  0  0
   44.0240   34.4420   41.1760 C   0  0  0  0  0  0  0  0  0  0  0  0
   43.6340   35.0790   42.3400 N   0  0  0  0  0  0  0  0  0  0  0  0
   44.5290   35.6160   43.2070 C   0  0  0  0  0  0  0  0  0  0  0  0
   45.8460   35.5490   42.9720 N   0  0  0  0  0  0  0  0  0  0  0  0
   46.9420   32.0360   43.4560 S   0  0  0  0  0  0  0  0  0  0  0  0
   47.1400   31.7140   45.1880 C   0  0  0  0  0  0  0  0  0  0  0  0
   47.5510   30.4880   45.6900 C   0  0  0  0  0  0  0  0  0  0  0  0
   47.6770   30.3320   47.0670 C   0  0  0  0  0  0  0  0  0  0  0  0
   47.4110   31.3440   47.9410 N   0  0  0  0  0  0  0  0  0  0  0  0
   47.0160   32.5150   47.4240 C   0  0  0  0  0  0  0  0  0  0  0  0
   46.8960   32.6620   46.1120 N   0  0  0  0  0  0  0  0  0  0  0  0
   47.9823   35.8139   41.1510 H   0  0  0  0  0  0  0  0  0  0  0  0
   49.0295   34.2841   40.0430 H   0  0  0  0  0  0  0  0  0  0  0  0
   47.3841   33.5904   39.9266 H   0  0  0  0  0  0  0  0  0  0  0  0
   48.1106   31.7254   41.0544 H   0  0  0  0  0  0  0  0  0  0  0  0
   49.7397   32.4207   41.2034 H   0  0  0  0  0  0  0  0  0  0  0  0
   49.1975   32.4512   43.4931 H   0  0  0  0  0  0  0  0  0  0  0  0
   49.3752   34.7448   43.0485 H   0  0  0  0  0  0  0  0  0  0  0  0
   47.7716   34.6607   43.7993 H   0  0  0  0  0  0  0  0  0  0  0  0
   45.7799   33.8935   40.0484 H   0  0  0  0  0  0  0  0  0  0  0  0
   43.2977   34.0086   40.4727 H   0  0  0  0  0  0  0  0  0  0  0  0
   44.1670   36.1147   44.1181 H   0  0  0  0  0  0  0  0  0  0  0  0
   47.7738   29.6523   45.0103 H   0  0  0  0  0  0  0  0  0  0  0  0
   48.0023   29.3590   47.4639 H   0  0  0  0  0  0  0  0  0  0  0  0
   46.7900   33.3593   48.0919 H   0  0  0  0  0  0  0  0  0  0  0  0
  1  6  1  0
  1  5  1  0
  2  3  1  0
  2  1  1  0
  3  4  1  0
  4  5  1  0
  4 12  1  0
  6 11  2  0
  7  8  2  0
  7  6  1  0
  8  9  1  0
  9 10  2  0
 11 10  1  0
 12 13  1  0
 13 14  2  0
 13 18  1  0
 14 15  1  0
 15 16  2  0
 17 16  1  0
 18 17  2  0
  1 19  1  6
  2 20  1  0
  2 21  1  0
  3 22  1  0
  3 23  1  0
  4 24  1  1
  5 25  1  0
  5 26  1  0
  7 27  1  0
  8 28  1  0
 10 29  1  0
 14 30  1  0
 15 31  1  0
 17 32  1  0
M  ISO  8  19  13  20  13  21  13  22  13  23  13  24  13  25  13  26  13
M  ISO  6  27  14  28  14  29  14  30  14  31  14  32  14
M  END
>  <minimizedAffinity>  (1) 
-4.4453063

>  <minimizedRMSD>  (1) 
2.61106658

$$$$
