
     RDKit          3D

 36 37  0  0  1  0  0  0  0  0999 V2000
   47.8550   34.9630   41.4580 C   0  0  2  0  0  0  0  0  0  0  0  0
   49.0890   35.6650   41.7300 C   0  0  0  0  0  0  0  0  0  0  0  0
   50.0350   34.6980   42.4460 C   0  0  0  0  0  0  0  0  0  0  0  0
   49.3660   33.3570   42.5160 C   0  0  1  0  0  0  0  0  0  0  0  0
   47.9230   33.7100   42.4100 C   0  0  0  0  0  0  0  0  0  0  0  0
   47.6110   34.4020   40.1320 C   0  0  0  0  0  0  0  0  0  0  0  0
   48.4570   34.8080   39.0800 C   0  0  0  0  0  0  0  0  0  0  0  0
   48.2850   34.2890   37.7950 C   0  0  0  0  0  0  0  0  0  0  0  0
   47.2530   33.3750   37.6440 N   0  0  0  0  0  0  0  0  0  0  0  0
   46.4710   33.0170   38.6750 C   0  0  0  0  0  0  0  0  0  0  0  0
   46.6340   33.5140   39.9120 N   0  0  0  0  0  0  0  0  0  0  0  0
   49.8910   32.1800   41.2640 S   0  0  0  0  0  0  0  0  0  0  0  0
   49.3420   30.5340   41.8040 C   0  0  0  0  0  0  0  0  0  0  0  0
   49.2720   30.5260   43.3370 C   0  0  0  0  0  0  0  0  0  0  0  0
   47.8760   30.3090   41.3940 C   0  0  0  0  0  0  0  0  0  0  0  0
   50.1780   29.4150   41.3130 C   0  0  0  0  0  0  0  0  0  0  0  0
   47.0631   35.7161   41.5833 H   0  0  0  0  0  0  0  0  0  0  0  0
   49.5431   36.0013   40.7862 H   0  0  0  0  0  0  0  0  0  0  0  0
   48.8965   36.5470   42.3585 H   0  0  0  0  0  0  0  0  0  0  0  0
   50.9779   34.6154   41.8855 H   0  0  0  0  0  0  0  0  0  0  0  0
   50.2600   35.0648   43.4584 H   0  0  0  0  0  0  0  0  0  0  0  0
   49.6274   32.8181   43.4386 H   0  0  0  0  0  0  0  0  0  0  0  0
   47.5162   33.9597   43.4010 H   0  0  0  0  0  0  0  0  0  0  0  0
   47.3294   32.8713   42.0174 H   0  0  0  0  0  0  0  0  0  0  0  0
   49.2572   35.5378   39.2724 H   0  0  0  0  0  0  0  0  0  0  0  0
   48.9286   34.5869   36.9542 H   0  0  0  0  0  0  0  0  0  0  0  0
   45.6657   32.2885   38.4998 H   0  0  0  0  0  0  0  0  0  0  0  0
   50.2846   30.6417   43.7509 H   0  0  0  0  0  0  0  0  0  0  0  0
   48.6386   31.3576   43.6795 H   0  0  0  0  0  0  0  0  0  0  0  0
   48.8426   29.5729   43.6795 H   0  0  0  0  0  0  0  0  0  0  0  0
   47.2536   30.2135   42.2959 H   0  0  0  0  0  0  0  0  0  0  0  0
   47.5270   31.1641   40.7965 H   0  0  0  0  0  0  0  0  0  0  0  0
   47.7995   29.3886   40.7965 H   0  0  0  0  0  0  0  0  0  0  0  0
   50.5909   28.8624   42.1698 H   0  0  0  0  0  0  0  0  0  0  0  0
   49.5626   28.7381   40.7022 H   0  0  0  0  0  0  0  0  0  0  0  0
   51.0016   29.8132   40.7022 H   0  0  0  0  0  0  0  0  0  0  0  0
  1  2  1  0
  1  5  1  0
  2  3  1  0
  3  4  1  0
  5  4  1  0
  6  1  1  0
  7  6  2  0
  8  7  1  0
  9  8  2  0
  9 10  1  0
 10 11  2  0
 11  6  1  0
 12 13  1  0
 12  4  1  0
 13 14  1  0
 15 13  1  0
 16 13  1  0
  1 17  1  1
  2 18  1  0
  2 19  1  0
  3 20  1  0
  3 21  1  0
  4 22  1  1
  5 23  1  0
  5 24  1  0
  7 25  1  0
  8 26  1  0
 10 27  1  0
 14 28  1  0
 14 29  1  0
 14 30  1  0
 15 31  1  0
 15 32  1  0
 15 33  1  0
 16 34  1  0
 16 35  1  0
 16 36  1  0
M  ISO  8  17  13  18  13  19  13  20  13  21  13  22  13  23  13  24  13
M  ISO  8  25  14  26  14  27  14  28   8  29   8  30   8  31   8  32   8
M  ISO  4  33   8  34   8  35   8  36   8
M  END
>  <minimizedAffinity>  (1) 
-3.93959022

>  <minimizedRMSD>  (1) 
4.12663174

$$$$
