
     RDKit          3D

 27 28  0  0  1  0  0  0  0  0999 V2000
   46.3090   35.0660   42.3620 C   0  0  2  0  0  0  0  0  0  0  0  0
   47.6200   34.5820   42.7240 C   0  0  0  0  0  0  0  0  0  0  0  0
   47.4750   33.5810   43.8850 C   0  0  0  0  0  0  0  0  0  0  0  0
   46.0030   33.4500   44.1510 C   0  0  1  0  0  0  0  0  0  0  0  0
   45.4310   34.6980   43.6200 C   0  0  0  0  0  0  0  0  0  0  0  0
   45.5910   34.4830   41.2320 C   0  0  0  0  0  0  0  0  0  0  0  0
   46.3460   33.7290   40.2970 C   0  0  0  0  0  0  0  0  0  0  0  0
   45.6890   33.1440   39.2150 C   0  0  0  0  0  0  0  0  0  0  0  0
   44.3410   33.3390   39.1270 N   0  0  0  0  0  0  0  0  0  0  0  0
   43.6410   34.0650   40.0360 C   0  0  0  0  0  0  0  0  0  0  0  0
   44.2860   34.6270   41.0790 N   0  0  0  0  0  0  0  0  0  0  0  0
   45.2840   31.9590   43.4590 S   0  0  0  0  0  0  0  0  0  0  0  0
   45.6510   30.4900   44.4420 C   0  0  0  0  0  0  0  0  0  0  0  0
   46.4607   36.1142   42.0649 H   0  0  0  0  0  0  0  0  0  0  0  0
   48.0813   34.0818   41.8597 H   0  0  0  0  0  0  0  0  0  0  0  0
   48.2575   35.4236   43.0329 H   0  0  0  0  0  0  0  0  0  0  0  0
   47.8986   32.6061   43.6018 H   0  0  0  0  0  0  0  0  0  0  0  0
   48.0125   33.9279   44.7799 H   0  0  0  0  0  0  0  0  0  0  0  0
   45.7816   33.3294   45.2217 H   0  0  0  0  0  0  0  0  0  0  0  0
   45.4865   35.4970   44.3740 H   0  0  0  0  0  0  0  0  0  0  0  0
   44.3701   34.5789   43.3549 H   0  0  0  0  0  0  0  0  0  0  0  0
   47.4320   33.6078   40.4235 H   0  0  0  0  0  0  0  0  0  0  0  0
   46.2334   32.5513   38.4651 H   0  0  0  0  0  0  0  0  0  0  0  0
   42.5545   34.1941   39.9227 H   0  0  0  0  0  0  0  0  0  0  0  0
   45.5887   30.7395   45.5115 H   0  0  0  0  0  0  0  0  0  0  0  0
   44.9226   29.7000   44.2067 H   0  0  0  0  0  0  0  0  0  0  0  0
   46.6653   30.1354   44.2067 H   0  0  0  0  0  0  0  0  0  0  0  0
  1  2  1  0
  1  5  1  0
  2  3  1  0
  3  4  1  0
  5  4  1  0
  6  1  1  0
  7  6  2  0
  8  7  1  0
  9  8  2  0
  9 10  1  0
 10 11  2  0
 11  6  1  0
 12  4  1  0
 12 13  1  0
  1 14  1  6
  2 15  1  0
  2 16  1  0
  3 17  1  0
  3 18  1  0
  4 19  1  1
  5 20  1  0
  5 21  1  0
  7 22  1  0
  8 23  1  0
 10 24  1  0
 13 25  1  0
 13 26  1  0
 13 27  1  0
M  ISO  8  14  13  15  13  16  13  17  13  18  13  19  13  20  13  21  13
M  ISO  6  22  14  23  14  24  14  25   8  26   8  27   8
M  END
>  <minimizedAffinity>  (1) 
-3.22171402

>  <minimizedRMSD>  (1) 
2.35308671

$$$$
