
     RDKit          3D

 31 33  0  0  1  0  0  0  0  0999 V2000
   43.5710   33.6550   39.4240 C   0  0  2  0  0  0  0  0  0  0  0  0
   42.5010   34.4010   38.8090 C   0  0  0  0  0  0  0  0  0  0  0  0
   41.1900   33.6120   38.9730 C   0  0  0  0  0  0  0  0  0  0  0  0
   41.5120   32.3960   39.7750 C   0  0  1  0  0  0  0  0  0  0  0  0
   42.9680   32.2000   39.5550 C   0  0  0  0  0  0  0  0  0  0  0  0
   44.0220   33.9810   40.7780 C   0  0  0  0  0  0  0  0  0  0  0  0
   43.7410   35.2670   41.2620 C   0  0  0  0  0  0  0  0  0  0  0  0
   44.1240   35.6320   42.5490 C   0  0  0  0  0  0  0  0  0  0  0  0
   44.7800   34.6520   43.2770 N   0  0  0  0  0  0  0  0  0  0  0  0
   45.0360   33.4330   42.7920 C   0  0  0  0  0  0  0  0  0  0  0  0
   44.6570   33.1030   41.5460 N   0  0  0  0  0  0  0  0  0  0  0  0
   41.0640   32.5110   41.5070 S   0  0  0  0  0  0  0  0  0  0  0  0
   40.2860   31.0400   42.1140 C   0  0  0  0  0  0  0  0  0  0  0  0
   40.5120   30.1360   43.1260 C   0  0  0  0  0  0  0  0  0  0  0  0
   39.5280   29.2180   43.0580 N   0  0  0  0  0  0  0  0  0  0  0  0
   38.7010   29.5360   42.0280 C   0  0  0  0  0  0  0  0  0  0  0  0
   39.1700   30.6620   41.4450 N   0  0  0  0  0  0  0  0  0  0  0  0
   44.4525   33.8503   38.7956 H   0  0  0  0  0  0  0  0  0  0  0  0
   42.7160   34.5429   37.7396 H   0  0  0  0  0  0  0  0  0  0  0  0
   42.4075   35.3862   39.2892 H   0  0  0  0  0  0  0  0  0  0  0  0
   40.4432   34.2249   39.4989 H   0  0  0  0  0  0  0  0  0  0  0  0
   40.7711   33.3375   37.9936 H   0  0  0  0  0  0  0  0  0  0  0  0
   40.9161   31.5303   39.4501 H   0  0  0  0  0  0  0  0  0  0  0  0
   43.1443   31.6257   38.6335 H   0  0  0  0  0  0  0  0  0  0  0  0
   43.4340   31.6359   40.3764 H   0  0  0  0  0  0  0  0  0  0  0  0
   43.2154   35.9904   40.6213 H   0  0  0  0  0  0  0  0  0  0  0  0
   43.9198   36.6313   42.9609 H   0  0  0  0  0  0  0  0  0  0  0  0
   45.5604   32.6952   43.4171 H   0  0  0  0  0  0  0  0  0  0  0  0
   41.3381   30.1583   43.8520 H   0  0  0  0  0  0  0  0  0  0  0  0
   37.8057   28.9750   41.7218 H   0  0  0  0  0  0  0  0  0  0  0  0
   38.7535   31.1460   40.6368 H   0  0  0  0  0  0  0  0  0  0  0  0
  1  5  1  0
  1  6  1  0
  2  3  1  0
  2  1  1  0
  3  4  1  0
  4 12  1  0
  5  4  1  0
  6  7  2  0
  6 11  1  0
  7  8  1  0
  8  9  2  0
 10  9  1  0
 11 10  2  0
 12 13  1  0
 13 14  2  0
 15 14  1  0
 16 15  2  0
 17 16  1  0
 17 13  1  0
  1 18  1  6
  2 19  1  0
  2 20  1  0
  3 21  1  0
  3 22  1  0
  4 23  1  6
  5 24  1  0
  5 25  1  0
  7 26  1  0
  8 27  1  0
 10 28  1  0
 14 29  1  0
 16 30  1  0
 17 31  1  0
M  ISO  8  18  13  19  13  20  13  21  13  22  13  23  13  24  13  25  13
M  ISO  6  26  14  27  14  28  14  29  14  30  14  31   9
M  END
>  <minimizedAffinity>  (1) 
-3.60843515

>  <minimizedRMSD>  (1) 
7.24712515

$$$$
