
     RDKit          3D

 36 38  0  0  1  0  0  0  0  0999 V2000
   44.5070   35.0810   43.0990 C   0  0  1  0  0  0  0  0  0  0  0  0
   45.3390   34.2570   44.0200 C   0  0  0  0  0  0  0  0  0  0  0  0
   46.3880   33.5290   43.3950 C   0  0  0  0  0  0  0  0  0  0  0  0
   47.2170   32.7380   44.1820 C   0  0  0  0  0  0  0  0  0  0  0  0
   46.9590   32.7140   45.5260 N   0  0  0  0  0  0  0  0  0  0  0  0
   45.9560   33.4150   46.0900 C   0  0  0  0  0  0  0  0  0  0  0  0
   45.1450   34.1870   45.3330 N   0  0  0  0  0  0  0  0  0  0  0  0
   45.0450   36.4950   42.9410 C   0  0  0  0  0  0  0  0  0  0  0  0
   44.3540   34.4270   41.7490 C   0  0  0  0  0  0  0  0  0  0  0  0
   42.9660   34.3410   41.5340 O   0  0  0  0  0  0  0  0  0  0  0  0
   42.3080   34.6590   40.3660 C   0  0  0  0  0  0  0  0  0  0  0  0
   42.8240   35.3500   39.2900 C   0  0  0  0  0  0  0  0  0  0  0  0
   42.0700   35.6150   38.1640 C   0  0  0  0  0  0  0  0  0  0  0  0
   40.7600   35.1770   38.1120 C   0  0  0  0  0  0  0  0  0  0  0  0
   40.2200   34.4790   39.1880 C   0  0  0  0  0  0  0  0  0  0  0  0
   38.9060   34.0680   39.0730 C   0  0  0  0  0  0  0  0  0  0  0  0
   38.3190   33.3650   40.1250 C   0  0  0  0  0  0  0  0  0  0  0  0
   39.0730   33.1000   41.2490 C   0  0  0  0  0  0  0  0  0  0  0  0
   40.3920   33.5250   41.3360 C   0  0  0  0  0  0  0  0  0  0  0  0
   40.9910   34.2260   40.3010 C   0  0  0  0  0  0  0  0  0  0  0  0
   43.5135   35.1512   43.5659 H   0  0  0  0  0  0  0  0  0  0  0  0
   46.5410   33.5906   42.3074 H   0  0  0  0  0  0  0  0  0  0  0  0
   48.0428   32.1577   43.7446 H   0  0  0  0  0  0  0  0  0  0  0  0
   45.7957   33.3584   47.1768 H   0  0  0  0  0  0  0  0  0  0  0  0
   45.2130   36.9365   43.9344 H   0  0  0  0  0  0  0  0  0  0  0  0
   45.9950   36.4661   42.3872 H   0  0  0  0  0  0  0  0  0  0  0  0
   44.3161   37.1049   42.3872 H   0  0  0  0  0  0  0  0  0  0  0  0
   44.8278   35.0398   40.9680 H   0  0  0  0  0  0  0  0  0  0  0  0
   44.8366   33.4391   41.7145 H   0  0  0  0  0  0  0  0  0  0  0  0
   43.8660   35.7001   39.3298 H   0  0  0  0  0  0  0  0  0  0  0  0
   42.5064   36.1677   37.3190 H   0  0  0  0  0  0  0  0  0  0  0  0
   40.1458   35.3797   37.2222 H   0  0  0  0  0  0  0  0  0  0  0  0
   38.3299   34.2924   38.1632 H   0  0  0  0  0  0  0  0  0  0  0  0
   37.2739   33.0281   40.0594 H   0  0  0  0  0  0  0  0  0  0  0  0
   38.6242   32.5455   42.0863 H   0  0  0  0  0  0  0  0  0  0  0  0
   40.9724   33.3012   42.2432 H   0  0  0  0  0  0  0  0  0  0  0  0
  1  2  1  0
  2  7  1  0
  3  2  2  0
  3  4  1  0
  4  5  2  0
  5  6  1  0
  7  6  2  0
  8  1  1  0
  9  1  1  0
 10  9  1  0
 11 10  1  0
 12 11  2  0
 13 12  1  0
 14 13  2  0
 14 15  1  0
 15 20  2  0
 16 15  1  0
 16 17  2  0
 17 18  1  0
 18 19  2  0
 20 11  1  0
 20 19  1  0
  1 21  1  1
  3 22  1  0
  4 23  1  0
  6 24  1  0
  8 25  1  0
  8 26  1  0
  8 27  1  0
  9 28  1  0
  9 29  1  0
 12 30  1  0
 13 31  1  0
 14 32  1  0
 16 33  1  0
 17 34  1  0
 18 35  1  0
 19 36  1  0
M  ISO  8  21   8  22  14  23  14  24  14  25   8  26   8  27   8  28   8
M  ISO  8  29   8  30  14  31  14  32  14  33  14  34  14  35  14  36  14
M  END
>  <minimizedAffinity>  (1) 
-5.62498045

>  <minimizedRMSD>  (1) 
1.00671899

$$$$
