
     RDKit          3D

 32 33  0  0  1  0  0  0  0  0999 V2000
   44.5650   35.3860   43.3940 C   0  0  1  0  0  0  0  0  0  0  0  0
   45.3810   34.4470   44.2360 C   0  0  0  0  0  0  0  0  0  0  0  0
   46.4230   33.7810   43.5620 C   0  0  0  0  0  0  0  0  0  0  0  0
   47.2420   32.8930   44.2420 C   0  0  0  0  0  0  0  0  0  0  0  0
   46.9620   32.7230   45.5790 N   0  0  0  0  0  0  0  0  0  0  0  0
   45.9650   33.3690   46.1970 C   0  0  0  0  0  0  0  0  0  0  0  0
   45.1730   34.2300   45.5300 N   0  0  0  0  0  0  0  0  0  0  0  0
   45.1710   36.7780   43.3510 C   0  0  0  0  0  0  0  0  0  0  0  0
   44.3780   34.8310   42.0020 C   0  0  0  0  0  0  0  0  0  0  0  0
   43.6030   35.7930   41.3230 O   0  0  0  0  0  0  0  0  0  0  0  0
   41.2840   36.1400   41.5850 N   0  0  0  0  0  0  0  0  0  0  0  0
   40.2410   36.2730   40.6180 C   0  0  0  0  0  0  0  0  0  0  0  0
   40.5340   35.2860   39.5230 C   0  0  0  0  0  0  0  0  0  0  0  0
   42.0550   35.2210   39.5550 C   0  0  0  0  0  0  0  0  0  0  0  0
   42.3410   35.3420   41.0330 C   0  0  1  0  0  0  0  0  0  0  0  0
   43.5753   35.4780   43.8651 H   0  0  0  0  0  0  0  0  0  0  0  0
   46.5878   33.9664   42.4903 H   0  0  0  0  0  0  0  0  0  0  0  0
   48.0641   32.3578   43.7444 H   0  0  0  0  0  0  0  0  0  0  0  0
   45.7898   33.1932   47.2686 H   0  0  0  0  0  0  0  0  0  0  0  0
   45.3290   37.1410   44.3773 H   0  0  0  0  0  0  0  0  0  0  0  0
   46.1349   36.7421   42.8223 H   0  0  0  0  0  0  0  0  0  0  0  0
   44.4879   37.4591   42.8223 H   0  0  0  0  0  0  0  0  0  0  0  0
   45.3506   34.6984   41.5054 H   0  0  0  0  0  0  0  0  0  0  0  0
   43.8916   33.8444   42.0140 H   0  0  0  0  0  0  0  0  0  0  0  0
   41.6479   37.0721   41.8295 H   0  0  0  0  0  0  0  0  0  0  0  0
   39.2673   36.0495   41.0784 H   0  0  0  0  0  0  0  0  0  0  0  0
   40.1981   37.2987   40.2230 H   0  0  0  0  0  0  0  0  0  0  0  0
   40.1697   35.6482   38.5503 H   0  0  0  0  0  0  0  0  0  0  0  0
   40.0451   34.3105   39.6623 H   0  0  0  0  0  0  0  0  0  0  0  0
   42.4232   34.2655   39.1532 H   0  0  0  0  0  0  0  0  0  0  0  0
   42.5458   35.9919   38.9428 H   0  0  0  0  0  0  0  0  0  0  0  0
   42.3480   34.3484   41.5050 H   0  0  0  0  0  0  0  0  0  0  0  0
  1  2  1  0
  2  7  1  0
  3  2  2  0
  3  4  1  0
  4  5  2  0
  5  6  1  0
  7  6  2  0
  8  1  1  0
  9  1  1  0
 10  9  1  0
 12 11  1  0
 13 14  1  0
 13 12  1  0
 14 15  1  0
 15 10  1  0
 15 11  1  0
  1 16  1  1
  3 17  1  0
  4 18  1  0
  6 19  1  0
  8 20  1  0
  8 21  1  0
  8 22  1  0
  9 23  1  0
  9 24  1  0
 11 25  1  0
 12 26  1  0
 12 27  1  0
 13 28  1  0
 13 29  1  0
 14 30  1  0
 14 31  1  0
 15 32  1  1
M  ISO  8  16   8  17  14  18  14  19  14  20   8  21   8  22   8  23   8
M  ISO  8  24   8  25   5  26  13  27  13  28  13  29  13  30  13  31  13
M  ISO  1  32  13
M  END
>  <minimizedAffinity>  (1) 
-4.64989471

>  <minimizedRMSD>  (1) 
0.815074027

$$$$
