
     RDKit          3D

 27 28  0  0  1  0  0  0  0  0999 V2000
   44.5870   35.6710   43.3450 C   0  0  1  0  0  0  0  0  0  0  0  0
   45.3920   34.6800   44.1130 C   0  0  0  0  0  0  0  0  0  0  0  0
   46.4560   34.0880   43.4050 C   0  0  0  0  0  0  0  0  0  0  0  0
   47.2520   33.1530   44.0580 C   0  0  0  0  0  0  0  0  0  0  0  0
   46.9430   32.8720   45.3570 N   0  0  0  0  0  0  0  0  0  0  0  0
   45.9230   33.4530   46.0020 C   0  0  0  0  0  0  0  0  0  0  0  0
   45.1300   34.3680   45.3880 N   0  0  0  0  0  0  0  0  0  0  0  0
   45.1750   37.0740   43.4150 C   0  0  0  0  0  0  0  0  0  0  0  0
   44.4120   35.2580   41.9080 C   0  0  0  0  0  0  0  0  0  0  0  0
   43.1400   34.6650   41.8170 O   0  0  0  0  0  0  0  0  0  0  0  0
   42.2120   35.1030   40.8850 C   0  0  0  0  0  0  0  0  0  0  0  0
   41.0630   35.6270   41.4800 C   0  0  0  0  0  0  0  0  0  0  0  0
   40.2030   36.0350   40.4580 C   0  0  0  0  0  0  0  0  0  0  0  0
   40.8390   35.7540   39.3130 N   0  0  0  0  0  0  0  0  0  0  0  0
   42.0240   35.2030   39.5740 N   0  0  0  0  0  0  0  0  0  0  0  0
   43.5976   35.6932   43.8251 H   0  0  0  0  0  0  0  0  0  0  0  0
   46.6533   34.3595   42.3574 H   0  0  0  0  0  0  0  0  0  0  0  0
   48.0943   32.6613   43.5493 H   0  0  0  0  0  0  0  0  0  0  0  0
   45.7239   33.1835   47.0497 H   0  0  0  0  0  0  0  0  0  0  0  0
   45.2981   37.3678   44.4678 H   0  0  0  0  0  0  0  0  0  0  0  0
   46.1541   37.0866   42.9139 H   0  0  0  0  0  0  0  0  0  0  0  0
   44.4975   37.7810   42.9139 H   0  0  0  0  0  0  0  0  0  0  0  0
   44.4697   36.1374   41.2498 H   0  0  0  0  0  0  0  0  0  0  0  0
   45.2012   34.5584   41.5954 H   0  0  0  0  0  0  0  0  0  0  0  0
   40.8696   35.7046   42.5601 H   0  0  0  0  0  0  0  0  0  0  0  0
   39.2089   36.4925   40.5701 H   0  0  0  0  0  0  0  0  0  0  0  0
   40.4670   35.9368   38.3701 H   0  0  0  0  0  0  0  0  0  0  0  0
  1  8  1  0
  1  2  1  0
  2  7  2  0
  3  4  2  0
  3  2  1  0
  4  5  1  0
  5  6  2  0
  7  6  1  0
  9  1  1  0
 10  9  1  0
 11 12  1  0
 11 10  1  0
 13 12  2  0
 14 15  1  0
 14 13  1  0
 15 11  2  0
  1 16  1  1
  3 17  1  0
  4 18  1  0
  6 19  1  0
  8 20  1  0
  8 21  1  0
  8 22  1  0
  9 23  1  0
  9 24  1  0
 12 25  1  0
 13 26  1  0
 14 27  1  0
M  ISO  8  16   8  17  14  18  14  19  14  20   8  21   8  22   8  23   8
M  ISO  4  24   8  25  14  26  14  27   9
M  END
>  <minimizedAffinity>  (1) 
-4.29420757

>  <minimizedRMSD>  (1) 
1.99045265

$$$$
