
     RDKit          3D

 32 32  0  0  1  0  0  0  0  0999 V2000
   44.5360   35.4410   43.3740 C   0  0  1  0  0  0  0  0  0  0  0  0
   45.3680   34.4990   44.1950 C   0  0  0  0  0  0  0  0  0  0  0  0
   46.4210   33.8430   43.5010 C   0  0  0  0  0  0  0  0  0  0  0  0
   47.2280   32.9570   44.2090 C   0  0  0  0  0  0  0  0  0  0  0  0
   46.9440   32.7790   45.5390 N   0  0  0  0  0  0  0  0  0  0  0  0
   45.9410   33.4130   46.1630 C   0  0  0  0  0  0  0  0  0  0  0  0
   45.1330   34.2870   45.5000 N   0  0  0  0  0  0  0  0  0  0  0  0
   45.1770   36.8180   43.2810 C   0  0  0  0  0  0  0  0  0  0  0  0
   44.3010   34.8800   41.9920 C   0  0  0  0  0  0  0  0  0  0  0  0
   43.4110   35.7750   41.3730 O   0  0  0  0  0  0  0  0  0  0  0  0
   42.3370   35.0700   40.8590 C   0  0  0  0  0  0  0  0  0  0  0  0
   41.0430   35.6510   41.4190 C   0  0  0  0  0  0  0  0  0  0  0  0
   42.3560   33.6040   41.2100 C   0  0  0  0  0  0  0  0  0  0  0  0
   42.3750   35.1910   39.3510 C   0  0  0  0  0  0  0  0  0  0  0  0
   43.5666   35.5523   43.8819 H   0  0  0  0  0  0  0  0  0  0  0  0
   46.5938   34.0309   42.4310 H   0  0  0  0  0  0  0  0  0  0  0  0
   48.0576   32.4227   43.7229 H   0  0  0  0  0  0  0  0  0  0  0  0
   45.7668   33.2236   47.2325 H   0  0  0  0  0  0  0  0  0  0  0  0
   45.3582   37.2073   44.2937 H   0  0  0  0  0  0  0  0  0  0  0  0
   46.1323   36.7420   42.7410 H   0  0  0  0  0  0  0  0  0  0  0  0
   44.5038   37.5001   42.7410 H   0  0  0  0  0  0  0  0  0  0  0  0
   45.2462   34.8278   41.4318 H   0  0  0  0  0  0  0  0  0  0  0  0
   43.8949   33.8583   42.0285 H   0  0  0  0  0  0  0  0  0  0  0  0
   41.0793   35.6347   42.5183 H   0  0  0  0  0  0  0  0  0  0  0  0
   40.9260   36.6880   41.0713 H   0  0  0  0  0  0  0  0  0  0  0  0
   40.1903   35.0493   41.0713 H   0  0  0  0  0  0  0  0  0  0  0  0
   42.3575   33.4889   42.3040 H   0  0  0  0  0  0  0  0  0  0  0  0
   41.4641   33.1151   40.7911 H   0  0  0  0  0  0  0  0  0  0  0  0
   43.2603   33.1384   40.7911 H   0  0  0  0  0  0  0  0  0  0  0  0
   42.6938   36.2063   39.0725 H   0  0  0  0  0  0  0  0  0  0  0  0
   43.0863   34.4582   38.9422 H   0  0  0  0  0  0  0  0  0  0  0  0
   41.3725   34.9964   38.9422 H   0  0  0  0  0  0  0  0  0  0  0  0
  1  2  1  0
  2  7  2  0
  3  2  1  0
  3  4  2  0
  4  5  1  0
  5  6  2  0
  7  6  1  0
  8  1  1  0
  9  1  1  0
 10  9  1  0
 11 13  1  0
 11 10  1  0
 11 12  1  0
 14 11  1  0
  1 15  1  1
  3 16  1  0
  4 17  1  0
  6 18  1  0
  8 19  1  0
  8 20  1  0
  8 21  1  0
  9 22  1  0
  9 23  1  0
 12 24  1  0
 12 25  1  0
 12 26  1  0
 13 27  1  0
 13 28  1  0
 13 29  1  0
 14 30  1  0
 14 31  1  0
 14 32  1  0
M  ISO  8  15   8  16  14  17  14  18  14  19   8  20   8  21   8  22   8
M  ISO  8  23   8  24   8  25   8  26   8  27   8  28   8  29   8  30   8
M  ISO  2  31   8  32   8
M  END
>  <minimizedAffinity>  (1) 
-3.94054413

>  <minimizedRMSD>  (1) 
0.744770765

$$$$
