
     RDKit          3D

 21 22  0  0  0  0  0  0  0  0999 V2000
   46.0300   34.2670   41.8070 N   0  0  0  0  0  0  0  0  0  0  0  0
   45.5750   33.5490   40.7870 C   0  0  0  0  0  0  0  0  0  0  0  0
   46.4370   33.5690   39.7660 N   0  0  0  0  0  0  0  0  0  0  0  0
   47.4820   34.3400   40.1750 C   0  0  0  0  0  0  0  0  0  0  0  0
   47.2300   34.7740   41.4440 N   0  0  0  0  0  0  0  0  0  0  0  0
   48.6900   34.6990   39.4820 N   0  0  0  0  0  0  0  0  0  0  0  0
   44.4680   35.9630   44.7490 C   0  0  0  0  0  0  0  0  0  0  0  0
   44.8630   35.7420   43.4330 C   0  0  0  0  0  0  0  0  0  0  0  0
   45.5710   34.6010   43.1100 C   0  0  0  0  0  0  0  0  0  0  0  0
   45.8560   33.7170   44.1320 N   0  0  0  0  0  0  0  0  0  0  0  0
   45.4630   33.9510   45.4030 C   0  0  0  0  0  0  0  0  0  0  0  0
   44.7790   35.0590   45.7010 N   0  0  0  0  0  0  0  0  0  0  0  0
   44.2720   32.8590   40.8770 C   0  0  0  0  0  0  0  0  0  0  0  0
   49.3887   35.2998   39.9423 H   0  0  0  0  0  0  0  0  0  0  0  0
   48.8565   34.3553   38.5254 H   0  0  0  0  0  0  0  0  0  0  0  0
   43.9048   36.8706   45.0118 H   0  0  0  0  0  0  0  0  0  0  0  0
   44.6119   36.4745   42.6517 H   0  0  0  0  0  0  0  0  0  0  0  0
   45.7069   33.2273   46.1947 H   0  0  0  0  0  0  0  0  0  0  0  0
   44.0044   32.7173   41.9345 H   0  0  0  0  0  0  0  0  0  0  0  0
   43.5003   33.4667   40.3818 H   0  0  0  0  0  0  0  0  0  0  0  0
   44.3410   31.8792   40.3818 H   0  0  0  0  0  0  0  0  0  0  0  0
  1  9  1  0
  2 13  1  0
  2  1  1  0
  3  4  1  0
  3  2  2  0
  4  5  2  0
  5  1  1  0
  6  4  1  0
  7 12  2  0
  8  7  1  0
  9  8  2  0
  9 10  1  0
 10 11  2  0
 11 12  1  0
  6 14  1  0
  6 15  1  0
  7 16  1  0
  8 17  1  0
 11 18  1  0
 13 19  1  0
 13 20  1  0
 13 21  1  0
M  ISO  6  16  14  17  14  18  14  19   8  20   8  21   8
M  END
>  <minimizedAffinity>  (1) 
-4.20306349

>  <minimizedRMSD>  (1) 
0.0209876727

$$$$
