
     RDKit          3D

 19 20  0  0  0  0  0  0  0  0999 V2000
   46.1270   33.9320   43.4900 C   0  0  0  0  0  0  0  0  0  0  0  0
   45.2540   33.6060   42.5060 C   0  0  0  0  0  0  0  0  0  0  0  0
   46.0950   34.2300   41.0100 S   0  0  0  0  0  0  0  0  0  0  0  0
   47.5450   34.8470   42.0500 C   0  0  0  0  0  0  0  0  0  0  0  0
   47.2150   34.5420   43.1110 N   0  0  0  0  0  0  0  0  0  0  0  0
   44.8330   34.0200   47.0790 C   0  0  0  0  0  0  0  0  0  0  0  0
   45.0790   34.3920   45.7570 C   0  0  0  0  0  0  0  0  0  0  0  0
   45.8270   33.5980   44.9070 C   0  0  0  0  0  0  0  0  0  0  0  0
   46.2870   32.4480   45.4750 N   0  0  0  0  0  0  0  0  0  0  0  0
   46.0570   32.0790   46.7480 C   0  0  0  0  0  0  0  0  0  0  0  0
   45.3340   32.8710   47.5240 N   0  0  0  0  0  0  0  0  0  0  0  0
   48.6260   35.5060   41.2430 C   0  0  0  0  0  0  0  0  0  0  0  0
   49.4120   36.3590   41.7190 O   0  0  0  0  0  0  0  0  0  0  0  0
   48.6920   35.0990   39.9230 O   0  0  0  0  0  0  0  0  0  0  0  0
   44.2836   33.0945   42.5878 H   0  0  0  0  0  0  0  0  0  0  0  0
   44.2360   34.6647   47.7408 H   0  0  0  0  0  0  0  0  0  0  0  0
   44.6677   35.3406   45.3814 H   0  0  0  0  0  0  0  0  0  0  0  0
   46.4633   31.1341   47.1379 H   0  0  0  0  0  0  0  0  0  0  0  0
   48.0548   34.4229   39.5810 H   0  0  0  0  0  0  0  0  0  0  0  0
  1  8  1  0
  2  1  2  0
  3  4  1  0
  3  2  1  0
  4  5  2  0
  5  1  1  0
  6 11  2  0
  7  6  1  0
  8  9  1  0
  8  7  2  0
  9 10  2  0
 10 11  1  0
 12 13  2  0
 12  4  1  0
 14 12  1  0
  2 15  1  0
  6 16  1  0
  7 17  1  0
 10 18  1  0
 14 19  1  0
M  ISO  5  15  14  16  14  17  14  18  14  19   3
M  END
>  <minimizedAffinity>  (1) 
-4.10727835

>  <minimizedRMSD>  (1) 
2.18453717

$$$$
