
     RDKit          3D

 36 37  0  0  1  0  0  0  0  0999 V2000
   44.4450   35.4180   43.4350 C   0  0  1  0  0  0  0  0  0  0  0  0
   45.3460   34.4790   44.1850 C   0  0  0  0  0  0  0  0  0  0  0  0
   46.3990   33.8990   43.4250 C   0  0  0  0  0  0  0  0  0  0  0  0
   47.2680   33.0220   44.0670 C   0  0  0  0  0  0  0  0  0  0  0  0
   47.0430   32.7780   45.4040 N   0  0  0  0  0  0  0  0  0  0  0  0
   46.0420   33.3430   46.0870 C   0  0  0  0  0  0  0  0  0  0  0  0
   45.1860   34.1980   45.4830 N   0  0  0  0  0  0  0  0  0  0  0  0
   45.1410   36.7380   43.1270 C   0  0  0  0  0  0  0  0  0  0  0  0
   43.9460   34.7740   42.1640 C   0  0  0  0  0  0  0  0  0  0  0  0
   43.2270   35.7760   41.4980 O   0  0  0  0  0  0  0  0  0  0  0  0
   42.1480   35.2960   40.7820 C   0  0  0  0  0  0  0  0  0  0  0  0
   42.4150   35.1980   39.3020 C   0  0  0  0  0  0  0  0  0  0  0  0
   41.3620   34.2860   38.7120 C   0  0  0  0  0  0  0  0  0  0  0  0
   40.1940   34.0880   39.6450 C   0  0  0  0  0  0  0  0  0  0  0  0
   39.7560   35.3540   40.3280 C   0  0  0  0  0  0  0  0  0  0  0  0
   40.8960   36.0910   40.9950 C   0  0  0  0  0  0  0  0  0  0  0  0
   43.5829   35.6382   44.0817 H   0  0  0  0  0  0  0  0  0  0  0  0
   46.5232   34.1373   42.3583 H   0  0  0  0  0  0  0  0  0  0  0  0
   48.0999   32.5436   43.5293 H   0  0  0  0  0  0  0  0  0  0  0  0
   45.9131   33.1093   47.1541 H   0  0  0  0  0  0  0  0  0  0  0  0
   45.4063   37.2411   44.0686 H   0  0  0  0  0  0  0  0  0  0  0  0
   46.0541   36.5440   42.5450 H   0  0  0  0  0  0  0  0  0  0  0  0
   44.4651   37.3818   42.5450 H   0  0  0  0  0  0  0  0  0  0  0  0
   44.7909   34.4322   41.5481 H   0  0  0  0  0  0  0  0  0  0  0  0
   43.3234   33.8908   42.3694 H   0  0  0  0  0  0  0  0  0  0  0  0
   41.9950   34.2830   41.1824 H   0  0  0  0  0  0  0  0  0  0  0  0
   42.3500   36.1948   38.8414 H   0  0  0  0  0  0  0  0  0  0  0  0
   43.4231   34.7997   39.1146 H   0  0  0  0  0  0  0  0  0  0  0  0
   40.9953   34.7282   37.7739 H   0  0  0  0  0  0  0  0  0  0  0  0
   41.8251   33.3038   38.5367 H   0  0  0  0  0  0  0  0  0  0  0  0
   39.3469   33.6934   39.0648 H   0  0  0  0  0  0  0  0  0  0  0  0
   40.5197   33.3903   40.4306 H   0  0  0  0  0  0  0  0  0  0  0  0
   39.3010   36.0175   39.5779 H   0  0  0  0  0  0  0  0  0  0  0  0
   39.0411   35.0726   41.1152 H   0  0  0  0  0  0  0  0  0  0  0  0
   40.6962   36.1916   42.0720 H   0  0  0  0  0  0  0  0  0  0  0  0
   41.0043   37.0976   40.5648 H   0  0  0  0  0  0  0  0  0  0  0  0
  1  2  1  0
  2  7  2  0
  3  4  2  0
  3  2  1  0
  4  5  1  0
  5  6  2  0
  7  6  1  0
  8  1  1  0
  9  1  1  0
 10  9  1  0
 11 16  1  0
 11 10  1  0
 12 11  1  0
 13 12  1  0
 13 14  1  0
 14 15  1  0
 15 16  1  0
  1 17  1  1
  3 18  1  0
  4 19  1  0
  6 20  1  0
  8 21  1  0
  8 22  1  0
  8 23  1  0
  9 24  1  0
  9 25  1  0
 11 26  1  0
 12 27  1  0
 12 28  1  0
 13 29  1  0
 13 30  1  0
 14 31  1  0
 14 32  1  0
 15 33  1  0
 15 34  1  0
 16 35  1  0
 16 36  1  0
M  ISO  8  17   8  18  14  19  14  20  14  21   8  22   8  23   8  24   8
M  ISO  8  25   8  26  13  27  13  28  13  29  13  30  13  31  13  32  13
M  ISO  4  33  13  34  13  35  13  36  13
M  END
>  <minimizedAffinity>  (1) 
-4.69089842

>  <minimizedRMSD>  (1) 
0.829958439

$$$$
