
     RDKit          3D

 49 51  0  0  1  0  0  0  0  0999 V2000
   41.6830   33.9700   38.9800 C   0  0  2  0  0  0  0  0  0  0  0  0
   42.0270   35.4290   38.6990 C   0  0  0  0  0  0  0  0  0  0  0  0
   41.0870   35.8700   37.5790 C   0  0  0  0  0  0  0  0  0  0  0  0
   39.9100   34.9390   37.4240 C   0  0  0  0  0  0  0  0  0  0  0  0
   39.3230   34.4720   38.7380 C   0  0  0  0  0  0  0  0  0  0  0  0
   40.3630   33.9410   39.6640 C   0  0  1  0  0  0  0  0  0  0  0  0
   40.0730   32.6370   40.3040 C   0  0  0  0  0  0  0  0  0  0  0  0
   38.7650   32.7720   41.1050 C   0  0  0  0  0  0  0  0  0  0  0  0
   38.1580   31.3850   41.0620 C   0  0  0  0  0  0  0  0  0  0  0  0
   38.4630   30.9900   39.6350 C   0  0  0  0  0  0  0  0  0  0  0  0
   39.8700   31.4710   39.4450 C   0  0  0  0  0  0  0  0  0  0  0  0
   42.6600   33.3080   39.6980 O   0  0  0  0  0  0  0  0  0  0  0  0
   43.7280   34.1690   40.0460 C   0  0  0  0  0  0  0  0  0  0  0  0
   43.6950   34.1730   41.5630 C   0  0  1  0  0  0  0  0  0  0  0  0
   45.1090   34.1900   42.0950 C   0  0  0  0  0  0  0  0  0  0  0  0
   46.1090   34.4380   41.1280 C   0  0  0  0  0  0  0  0  0  0  0  0
   47.4390   34.4720   41.5630 C   0  0  0  0  0  0  0  0  0  0  0  0
   47.6840   34.2610   42.8920 N   0  0  0  0  0  0  0  0  0  0  0  0
   46.7000   34.0270   43.7780 C   0  0  0  0  0  0  0  0  0  0  0  0
   45.4070   33.9880   43.3960 N   0  0  0  0  0  0  0  0  0  0  0  0
   42.8510   35.2650   42.1470 C   0  0  0  0  0  0  0  0  0  0  0  0
   41.6290   33.4219   38.0278 H   0  0  0  0  0  0  0  0  0  0  0  0
   41.8646   36.0409   39.5985 H   0  0  0  0  0  0  0  0  0  0  0  0
   43.0823   35.5481   38.4122 H   0  0  0  0  0  0  0  0  0  0  0  0
   40.7130   36.8791   37.8070 H   0  0  0  0  0  0  0  0  0  0  0  0
   41.6545   35.8571   36.6368 H   0  0  0  0  0  0  0  0  0  0  0  0
   39.1246   35.4639   36.8605 H   0  0  0  0  0  0  0  0  0  0  0  0
   40.2768   34.0435   36.9010 H   0  0  0  0  0  0  0  0  0  0  0  0
   38.8185   35.3213   39.2220 H   0  0  0  0  0  0  0  0  0  0  0  0
   38.6172   33.6567   38.5209 H   0  0  0  0  0  0  0  0  0  0  0  0
   40.3709   34.6159   40.5326 H   0  0  0  0  0  0  0  0  0  0  0  0
   40.9887   32.4398   40.8808 H   0  0  0  0  0  0  0  0  0  0  0  0
   38.9721   33.0752   42.1419 H   0  0  0  0  0  0  0  0  0  0  0  0
   38.0941   33.5385   40.6900 H   0  0  0  0  0  0  0  0  0  0  0  0
   38.6415   30.7084   41.7821 H   0  0  0  0  0  0  0  0  0  0  0  0
   37.0917   31.3447   41.3290 H   0  0  0  0  0  0  0  0  0  0  0  0
   38.3968   29.8999   39.5038 H   0  0  0  0  0  0  0  0  0  0  0  0
   37.7572   31.4165   38.9070 H   0  0  0  0  0  0  0  0  0  0  0  0
   40.5766   30.6754   39.7237 H   0  0  0  0  0  0  0  0  0  0  0  0
   40.0413   31.7396   38.3922 H   0  0  0  0  0  0  0  0  0  0  0  0
   44.6864   33.7778   39.6740 H   0  0  0  0  0  0  0  0  0  0  0  0
   43.6287   35.1745   39.6112 H   0  0  0  0  0  0  0  0  0  0  0  0
   43.1992   33.2462   41.8873 H   0  0  0  0  0  0  0  0  0  0  0  0
   45.8514   34.5987   40.0707 H   0  0  0  0  0  0  0  0  0  0  0  0
   48.2616   34.6625   40.8580 H   0  0  0  0  0  0  0  0  0  0  0  0
   46.9546   33.8641   44.8357 H   0  0  0  0  0  0  0  0  0  0  0  0
   42.8916   35.2124   43.2450 H   0  0  0  0  0  0  0  0  0  0  0  0
   43.2316   36.2413   41.8123 H   0  0  0  0  0  0  0  0  0  0  0  0
   41.8103   35.1428   41.8123 H   0  0  0  0  0  0  0  0  0  0  0  0
  1  6  1  0
  1 12  1  0
  2  1  1  0
  3  2  1  0
  4  3  1  0
  4  5  1  0
  5  6  1  0
  6  7  1  0
  7  8  1  0
  9  8  1  0
 10  9  1  0
 11 10  1  0
 11  7  1  0
 12 13  1  0
 13 14  1  0
 14 15  1  0
 14 21  1  0
 15 20  2  0
 16 17  2  0
 16 15  1  0
 17 18  1  0
 18 19  2  0
 20 19  1  0
  1 22  1  6
  2 23  1  0
  2 24  1  0
  3 25  1  0
  3 26  1  0
  4 27  1  0
  4 28  1  0
  5 29  1  0
  5 30  1  0
  6 31  1  1
  7 32  1  0
  8 33  1  0
  8 34  1  0
  9 35  1  0
  9 36  1  0
 10 37  1  0
 10 38  1  0
 11 39  1  0
 11 40  1  0
 13 41  1  0
 13 42  1  0
 14 43  1  1
 16 44  1  0
 17 45  1  0
 19 46  1  0
 21 47  1  0
 21 48  1  0
 21 49  1  0
M  ISO  8  22  13  23  13  24  13  25  13  26  13  27  13  28  13  29  13
M  ISO  8  30  13  31  13  32  13  33  13  34  13  35  13  36  13  37  13
M  ISO  8  38  13  39  13  40  13  41   8  42   8  43   8  44  14  45  14
M  ISO  4  46  14  47   8  48   8  49   8
M  END
>  <minimizedAffinity>  (1) 
-5.12543011

>  <minimizedRMSD>  (1) 
3.41199446

$$$$
