
     RDKit          3D

 39 40  0  0  1  0  0  0  0  0999 V2000
   41.3370   34.1270   39.8980 C   0  0  2  0  0  0  0  0  0  0  0  0
   41.7530   35.4130   39.2000 C   0  0  0  0  0  0  0  0  0  0  0  0
   40.9600   35.4710   37.8980 C   0  0  0  0  0  0  0  0  0  0  0  0
   39.7980   34.5220   37.8810 C   0  0  0  0  0  0  0  0  0  0  0  0
   39.0400   34.4710   39.1880 C   0  0  0  0  0  0  0  0  0  0  0  0
   39.9460   34.2990   40.3730 C   0  0  1  0  0  0  0  0  0  0  0  0
   39.4520   33.3020   41.3400 C   0  0  0  0  0  0  0  0  0  0  0  0
   38.8420   32.2110   41.3400 O   0  0  0  0  0  0  0  0  0  0  0  0
   39.7730   33.7170   42.6470 O   0  0  0  0  0  0  0  0  0  0  0  0
   42.2070   33.7340   40.8790 O   0  0  0  0  0  0  0  0  0  0  0  0
   43.5570   33.9010   40.5190 C   0  0  0  0  0  0  0  0  0  0  0  0
   44.2900   34.2020   41.7530 C   0  0  1  0  0  0  0  0  0  0  0  0
   45.7070   33.6920   41.7050 C   0  0  0  0  0  0  0  0  0  0  0  0
   46.6470   34.6470   41.2690 C   0  0  0  0  0  0  0  0  0  0  0  0
   47.9870   34.2580   41.1980 C   0  0  0  0  0  0  0  0  0  0  0  0
   48.2890   32.9550   41.5640 N   0  0  0  0  0  0  0  0  0  0  0  0
   47.3580   32.0810   41.9730 C   0  0  0  0  0  0  0  0  0  0  0  0
   46.0500   32.4310   42.0520 N   0  0  0  0  0  0  0  0  0  0  0  0
   44.2170   35.6600   42.1760 C   0  0  0  0  0  0  0  0  0  0  0  0
   41.3752   33.2927   39.1821 H   0  0  0  0  0  0  0  0  0  0  0  0
   41.5143   36.2825   39.8301 H   0  0  0  0  0  0  0  0  0  0  0  0
   42.8361   35.4312   39.0089 H   0  0  0  0  0  0  0  0  0  0  0  0
   40.5797   36.4944   37.7636 H   0  0  0  0  0  0  0  0  0  0  0  0
   41.6389   35.1772   37.0839 H   0  0  0  0  0  0  0  0  0  0  0  0
   39.1035   34.8366   37.0881 H   0  0  0  0  0  0  0  0  0  0  0  0
   40.2056   33.5156   37.7046 H   0  0  0  0  0  0  0  0  0  0  0  0
   38.4785   35.4094   39.3068 H   0  0  0  0  0  0  0  0  0  0  0  0
   38.3695   33.5997   39.1512 H   0  0  0  0  0  0  0  0  0  0  0  0
   39.9440   35.2129   40.9852 H   0  0  0  0  0  0  0  0  0  0  0  0
   39.5121   33.1586   43.4218 H   0  0  0  0  0  0  0  0  0  0  0  0
   43.9446   32.9777   40.0638 H   0  0  0  0  0  0  0  0  0  0  0  0
   43.6723   34.7109   39.7837 H   0  0  0  0  0  0  0  0  0  0  0  0
   43.7666   33.6480   42.5462 H   0  0  0  0  0  0  0  0  0  0  0  0
   46.3359   35.6655   40.9935 H   0  0  0  0  0  0  0  0  0  0  0  0
   48.7696   34.9560   40.8657 H   0  0  0  0  0  0  0  0  0  0  0  0
   47.6609   31.0604   42.2498 H   0  0  0  0  0  0  0  0  0  0  0  0
   44.2138   35.7235   43.2742 H   0  0  0  0  0  0  0  0  0  0  0  0
   45.0892   36.2008   41.7800 H   0  0  0  0  0  0  0  0  0  0  0  0
   43.2952   36.1110   41.7800 H   0  0  0  0  0  0  0  0  0  0  0  0
  1  6  1  0
  1 10  1  0
  2  1  1  0
  3  2  1  0
  4  3  1  0
  4  5  1  0
  5  6  1  0
  6  7  1  0
  7  9  1  0
  8  7  2  0
 11 10  1  0
 11 12  1  0
 12 19  1  0
 13 12  1  0
 13 18  1  0
 14 13  2  0
 15 14  1  0
 15 16  2  0
 16 17  1  0
 17 18  2  0
  1 20  1  6
  2 21  1  0
  2 22  1  0
  3 23  1  0
  3 24  1  0
  4 25  1  0
  4 26  1  0
  5 27  1  0
  5 28  1  0
  6 29  1  1
  9 30  1  0
 11 31  1  0
 11 32  1  0
 12 33  1  1
 14 34  1  0
 15 35  1  0
 17 36  1  0
 19 37  1  0
 19 38  1  0
 19 39  1  0
M  ISO  8  20  13  21  13  22  13  23  13  24  13  25  13  26  13  27  13
M  ISO  8  28  13  29  13  30   3  31   8  32   8  33   8  34  14  35  14
M  ISO  4  36  14  37   8  38   8  39   8
M  END
>  <minimizedAffinity>  (1) 
-5.21883488

>  <minimizedRMSD>  (1) 
2.91253662

$$$$
