
     RDKit          3D

 50 53  0  0  1  0  0  0  0  0999 V2000
   41.5090   34.3500   39.9380 C   0  0  2  0  0  0  0  0  0  0  0  0
   40.8870   35.5020   39.1610 C   0  0  0  0  0  0  0  0  0  0  0  0
   40.4360   34.9300   37.8210 C   0  0  0  0  0  0  0  0  0  0  0  0
   40.3740   33.4310   37.8210 C   0  0  0  0  0  0  0  0  0  0  0  0
   39.7880   32.8540   39.0900 C   0  0  0  0  0  0  0  0  0  0  0  0
   40.4320   33.4070   40.3270 C   0  0  1  0  0  0  0  0  0  0  0  0
   40.8490   32.3750   41.2940 C   0  0  0  0  0  0  0  0  0  0  0  0
   40.3500   32.0230   42.5340 C   0  0  0  0  0  0  0  0  0  0  0  0
   41.0540   31.0030   43.0730 N   0  0  0  0  0  0  0  0  0  0  0  0
   42.0250   30.6610   42.2090 C   0  0  0  0  0  0  0  0  0  0  0  0
   43.0330   29.7190   42.1990 C   0  0  0  0  0  0  0  0  0  0  0  0
   43.9230   29.5880   41.1290 C   0  0  0  0  0  0  0  0  0  0  0  0
   43.8080   30.4190   40.0410 C   0  0  0  0  0  0  0  0  0  0  0  0
   42.8000   31.3570   40.0560 C   0  0  0  0  0  0  0  0  0  0  0  0
   41.9120   31.4950   41.1120 C   0  0  0  0  0  0  0  0  0  0  0  0
   42.2950   34.8040   40.9670 O   0  0  0  0  0  0  0  0  0  0  0  0
   43.6540   34.9160   40.6100 C   0  0  0  0  0  0  0  0  0  0  0  0
   44.4440   34.7290   41.8420 C   0  0  1  0  0  0  0  0  0  0  0  0
   45.9160   34.6400   41.5530 C   0  0  0  0  0  0  0  0  0  0  0  0
   46.2350   34.0220   40.3250 C   0  0  0  0  0  0  0  0  0  0  0  0
   47.5790   33.8970   39.9770 C   0  0  0  0  0  0  0  0  0  0  0  0
   48.5080   34.3980   40.8770 N   0  0  0  0  0  0  0  0  0  0  0  0
   48.1610   34.9790   42.0340 C   0  0  0  0  0  0  0  0  0  0  0  0
   46.8600   35.1100   42.3930 N   0  0  0  0  0  0  0  0  0  0  0  0
   44.1360   35.7680   42.9180 C   0  0  0  0  0  0  0  0  0  0  0  0
   42.2125   33.7841   39.3096 H   0  0  0  0  0  0  0  0  0  0  0  0
   40.0246   35.9083   39.7099 H   0  0  0  0  0  0  0  0  0  0  0  0
   41.6079   36.3209   39.0205 H   0  0  0  0  0  0  0  0  0  0  0  0
   41.1451   35.2526   37.0444 H   0  0  0  0  0  0  0  0  0  0  0  0
   39.4200   35.3039   37.6260 H   0  0  0  0  0  0  0  0  0  0  0  0
   39.7537   33.1077   36.9721 H   0  0  0  0  0  0  0  0  0  0  0  0
   41.4079   33.0633   37.7444 H   0  0  0  0  0  0  0  0  0  0  0  0
   38.7131   33.0859   39.1188 H   0  0  0  0  0  0  0  0  0  0  0  0
   39.9691   31.7691   39.0770 H   0  0  0  0  0  0  0  0  0  0  0  0
   39.6748   33.9725   40.8900 H   0  0  0  0  0  0  0  0  0  0  0  0
   39.4912   32.5099   43.0192 H   0  0  0  0  0  0  0  0  0  0  0  0
   40.8770   30.5637   43.9877 H   0  0  0  0  0  0  0  0  0  0  0  0
   43.1401   29.0473   43.0635 H   0  0  0  0  0  0  0  0  0  0  0  0
   44.7124   28.8225   41.1580 H   0  0  0  0  0  0  0  0  0  0  0  0
   44.4972   30.3379   39.1875 H   0  0  0  0  0  0  0  0  0  0  0  0
   42.6944   32.0276   39.1905 H   0  0  0  0  0  0  0  0  0  0  0  0
   43.9154   34.1421   39.8732 H   0  0  0  0  0  0  0  0  0  0  0  0
   43.8601   35.8976   40.1584 H   0  0  0  0  0  0  0  0  0  0  0  0
   44.1302   33.7610   42.2597 H   0  0  0  0  0  0  0  0  0  0  0  0
   45.4430   33.6484   39.6593 H   0  0  0  0  0  0  0  0  0  0  0  0
   47.8882   33.4235   39.0335 H   0  0  0  0  0  0  0  0  0  0  0  0
   48.9465   35.3567   42.7050 H   0  0  0  0  0  0  0  0  0  0  0  0
   44.2697   35.3169   43.9123 H   0  0  0  0  0  0  0  0  0  0  0  0
   44.8193   36.6230   42.8084 H   0  0  0  0  0  0  0  0  0  0  0  0
   43.0971   36.1125   42.8084 H   0  0  0  0  0  0  0  0  0  0  0  0
  1  6  1  0
  1 16  1  0
  2  1  1  0
  3  4  1  0
  3  2  1  0
  4  5  1  0
  5  6  1  0
  6  7  1  0
  7  8  2  0
  8  9  1  0
 10  9  1  0
 11 10  2  0
 12 11  1  0
 13 14  1  0
 13 12  2  0
 14 15  2  0
 15  7  1  0
 15 10  1  0
 17 16  1  0
 17 18  1  0
 18 25  1  0
 19 18  1  0
 19 24  1  0
 20 19  2  0
 21 20  1  0
 21 22  2  0
 22 23  1  0
 23 24  2  0
  1 26  1  6
  2 27  1  0
  2 28  1  0
  3 29  1  0
  3 30  1  0
  4 31  1  0
  4 32  1  0
  5 33  1  0
  5 34  1  0
  6 35  1  1
  8 36  1  0
  9 37  1  0
 11 38  1  0
 12 39  1  0
 13 40  1  0
 14 41  1  0
 17 42  1  0
 17 43  1  0
 18 44  1  1
 20 45  1  0
 21 46  1  0
 23 47  1  0
 25 48  1  0
 25 49  1  0
 25 50  1  0
M  ISO  8  26  13  27  13  28  13  29  13  30  13  31  13  32  13  33  13
M  ISO  8  34  13  35  13  36  14  37   9  38  14  39  14  40  14  41  14
M  ISO  8  42   8  43   8  44   8  45  14  46  14  47  14  48   8  49   8
M  ISO  1  50   8
M  END
>  <minimizedAffinity>  (1) 
-5.04460526

>  <minimizedRMSD>  (1) 
4.42019415

$$$$
