
     RDKit          3D

 49 51  0  0  1  0  0  0  0  0999 V2000
   41.5590   33.9230   39.5310 C   0  0  2  0  0  0  0  0  0  0  0  0
   41.9290   35.3500   39.1610 C   0  0  0  0  0  0  0  0  0  0  0  0
   41.1030   35.6880   37.9210 C   0  0  0  0  0  0  0  0  0  0  0  0
   39.9330   34.7480   37.7430 C   0  0  0  0  0  0  0  0  0  0  0  0
   39.2390   34.4080   39.0250 C   0  0  0  0  0  0  0  0  0  0  0  0
   40.1890   33.9220   40.0900 C   0  0  1  0  0  0  0  0  0  0  0  0
   39.8880   32.6500   40.6050 N   0  0  0  0  0  0  0  0  0  0  0  0
   39.8980   32.4260   41.9900 C   0  0  0  0  0  0  0  0  0  0  0  0
   40.8560   31.3250   42.3750 C   0  0  0  0  0  0  0  0  0  0  0  0
   40.6970   30.1740   41.6580 O   0  0  0  0  0  0  0  0  0  0  0  0
   39.8290   30.2930   40.5800 C   0  0  0  0  0  0  0  0  0  0  0  0
   40.1650   31.5300   39.7680 C   0  0  0  0  0  0  0  0  0  0  0  0
   42.4770   33.3210   40.3740 O   0  0  0  0  0  0  0  0  0  0  0  0
   43.5500   34.1860   40.6940 C   0  0  0  0  0  0  0  0  0  0  0  0
   44.6270   33.2400   41.1820 C   0  0  1  0  0  0  0  0  0  0  0  0
   45.9850   33.8740   40.9930 C   0  0  0  0  0  0  0  0  0  0  0  0
   46.4500   34.6220   42.0970 C   0  0  0  0  0  0  0  0  0  0  0  0
   47.7050   35.2210   41.9900 C   0  0  0  0  0  0  0  0  0  0  0  0
   48.4020   35.0430   40.8140 N   0  0  0  0  0  0  0  0  0  0  0  0
   47.9220   34.3220   39.7830 C   0  0  0  0  0  0  0  0  0  0  0  0
   46.7080   33.7300   39.8610 N   0  0  0  0  0  0  0  0  0  0  0  0
   44.4150   32.7360   42.5750 C   0  0  0  0  0  0  0  0  0  0  0  0
   41.5825   33.3065   38.6203 H   0  0  0  0  0  0  0  0  0  0  0  0
   41.6809   36.0355   39.9847 H   0  0  0  0  0  0  0  0  0  0  0  0
   43.0073   35.4508   38.9681 H   0  0  0  0  0  0  0  0  0  0  0  0
   40.7211   36.7150   38.0184 H   0  0  0  0  0  0  0  0  0  0  0  0
   41.7557   35.5864   37.0414 H   0  0  0  0  0  0  0  0  0  0  0  0
   39.2051   35.2222   37.0683 H   0  0  0  0  0  0  0  0  0  0  0  0
   40.3324   33.8088   37.3327 H   0  0  0  0  0  0  0  0  0  0  0  0
   38.7247   35.3069   39.3958 H   0  0  0  0  0  0  0  0  0  0  0  0
   38.5317   33.5925   38.8136 H   0  0  0  0  0  0  0  0  0  0  0  0
   40.0924   34.6124   40.9408 H   0  0  0  0  0  0  0  0  0  0  0  0
   40.1997   33.3538   42.4982 H   0  0  0  0  0  0  0  0  0  0  0  0
   38.8861   32.1190   42.2931 H   0  0  0  0  0  0  0  0  0  0  0  0
   41.8822   31.6898   42.2204 H   0  0  0  0  0  0  0  0  0  0  0  0
   40.6485   31.0761   43.4262 H   0  0  0  0  0  0  0  0  0  0  0  0
   39.9207   29.4029   39.9402 H   0  0  0  0  0  0  0  0  0  0  0  0
   38.7995   30.3812   40.9573 H   0  0  0  0  0  0  0  0  0  0  0  0
   41.2277   31.5213   39.4840 H   0  0  0  0  0  0  0  0  0  0  0  0
   39.5745   31.5702   38.8408 H   0  0  0  0  0  0  0  0  0  0  0  0
   43.8864   34.7416   39.8062 H   0  0  0  0  0  0  0  0  0  0  0  0
   43.2795   34.9503   41.4374 H   0  0  0  0  0  0  0  0  0  0  0  0
   44.5679   32.3331   40.5624 H   0  0  0  0  0  0  0  0  0  0  0  0
   45.8440   34.7284   43.0088 H   0  0  0  0  0  0  0  0  0  0  0  0
   48.1242   35.8150   42.8155 H   0  0  0  0  0  0  0  0  0  0  0  0
   48.5230   34.2133   38.8681 H   0  0  0  0  0  0  0  0  0  0  0  0
   44.7374   33.5024   43.2952 H   0  0  0  0  0  0  0  0  0  0  0  0
   43.3480   32.5158   42.7269 H   0  0  0  0  0  0  0  0  0  0  0  0
   45.0038   31.8193   42.7269 H   0  0  0  0  0  0  0  0  0  0  0  0
  1  6  1  0
  1 13  1  0
  2  1  1  0
  3  2  1  0
  4  3  1  0
  4  5  1  0
  5  6  1  0
  6  7  1  0
  7  8  1  0
  8  9  1  0
 10  9  1  0
 11 10  1  0
 12 11  1  0
 12  7  1  0
 13 14  1  0
 14 15  1  0
 15 22  1  0
 16 15  1  0
 16 17  2  0
 18 17  1  0
 19 18  2  0
 20 21  2  0
 20 19  1  0
 21 16  1  0
  1 23  1  6
  2 24  1  0
  2 25  1  0
  3 26  1  0
  3 27  1  0
  4 28  1  0
  4 29  1  0
  5 30  1  0
  5 31  1  0
  6 32  1  1
  8 33  1  0
  8 34  1  0
  9 35  1  0
  9 36  1  0
 11 37  1  0
 11 38  1  0
 12 39  1  0
 12 40  1  0
 14 41  1  0
 14 42  1  0
 15 43  1  6
 17 44  1  0
 18 45  1  0
 20 46  1  0
 22 47  1  0
 22 48  1  0
 22 49  1  0
M  ISO  8  23  13  24  13  25  13  26  13  27  13  28  13  29  13  30  13
M  ISO  8  31  13  32  13  33  13  34  13  35  13  36  13  37  13  38  13
M  ISO  8  39  13  40  13  41   8  42   8  43   8  44  14  45  14  46  14
M  ISO  3  47   8  48   8  49   8
M  END
>  <minimizedAffinity>  (1) 
-5.19975948

>  <minimizedRMSD>  (1) 
4.05032396

$$$$
