
     RDKit          3D

 48 50  0  0  1  0  0  0  0  0999 V2000
   41.8840   34.3940   40.7600 C   0  0  2  0  0  0  0  0  0  0  0  0
   40.7430   35.0940   41.4770 C   0  0  0  0  0  0  0  0  0  0  0  0
   40.2630   36.2120   40.5570 C   0  0  0  0  0  0  0  0  0  0  0  0
   40.7360   36.0440   39.1430 C   0  0  0  0  0  0  0  0  0  0  0  0
   40.6350   34.6250   38.6850 C   0  0  0  0  0  0  0  0  0  0  0  0
   41.3650   33.6640   39.5920 C   0  0  1  0  0  0  0  0  0  0  0  0
   42.3760   32.9380   38.9440 N   0  0  0  0  0  0  0  0  0  0  0  0
   42.0840   31.7130   38.3140 C   0  0  0  0  0  0  0  0  0  0  0  0
   43.4900   31.2380   37.9170 C   0  0  0  0  0  0  0  0  0  0  0  0
   44.2990   32.5060   37.7700 C   0  0  0  0  0  0  0  0  0  0  0  0
   43.4130   33.6240   38.2760 C   0  0  0  0  0  0  0  0  0  0  0  0
   42.6800   33.6620   41.5950 O   0  0  0  0  0  0  0  0  0  0  0  0
   43.9060   34.2940   41.8990 C   0  0  0  0  0  0  0  0  0  0  0  0
   44.9570   33.3030   41.6380 C   0  0  1  0  0  0  0  0  0  0  0  0
   46.2550   33.9590   41.2290 C   0  0  0  0  0  0  0  0  0  0  0  0
   46.8380   34.7470   42.2440 C   0  0  0  0  0  0  0  0  0  0  0  0
   48.0480   35.3820   41.9420 C   0  0  0  0  0  0  0  0  0  0  0  0
   48.5740   35.1850   40.6760 N   0  0  0  0  0  0  0  0  0  0  0  0
   47.9810   34.4260   39.7480 C   0  0  0  0  0  0  0  0  0  0  0  0
   46.8090   33.7970   40.0060 N   0  0  0  0  0  0  0  0  0  0  0  0
   45.1430   32.2850   42.7390 C   0  0  0  0  0  0  0  0  0  0  0  0
   42.5787   35.1545   40.3739 H   0  0  0  0  0  0  0  0  0  0  0  0
   39.9247   34.3844   41.6692 H   0  0  0  0  0  0  0  0  0  0  0  0
   41.0736   35.4955   42.4462 H   0  0  0  0  0  0  0  0  0  0  0  0
   39.1631   36.2226   40.5609 H   0  0  0  0  0  0  0  0  0  0  0  0
   40.6812   37.1560   40.9364 H   0  0  0  0  0  0  0  0  0  0  0  0
   40.1200   36.6745   38.4849 H   0  0  0  0  0  0  0  0  0  0  0  0
   41.7944   36.3407   39.1007 H   0  0  0  0  0  0  0  0  0  0  0  0
   39.5729   34.3406   38.6536 H   0  0  0  0  0  0  0  0  0  0  0  0
   41.1035   34.5635   37.6917 H   0  0  0  0  0  0  0  0  0  0  0  0
   40.6392   32.9067   39.9232 H   0  0  0  0  0  0  0  0  0  0  0  0
   41.6014   31.0083   39.0072 H   0  0  0  0  0  0  0  0  0  0  0  0
   41.3810   31.7951   37.4719 H   0  0  0  0  0  0  0  0  0  0  0  0
   43.9171   30.5945   38.7003 H   0  0  0  0  0  0  0  0  0  0  0  0
   43.4811   30.6418   36.9926 H   0  0  0  0  0  0  0  0  0  0  0  0
   45.2186   32.4450   38.3705 H   0  0  0  0  0  0  0  0  0  0  0  0
   44.6030   32.6725   36.7260 H   0  0  0  0  0  0  0  0  0  0  0  0
   43.9619   34.2794   38.9682 H   0  0  0  0  0  0  0  0  0  0  0  0
   43.0476   34.2812   37.4731 H   0  0  0  0  0  0  0  0  0  0  0  0
   44.0481   35.1772   41.2589 H   0  0  0  0  0  0  0  0  0  0  0  0
   43.9305   34.6366   42.9440 H   0  0  0  0  0  0  0  0  0  0  0  0
   44.5978   32.7153   40.7803 H   0  0  0  0  0  0  0  0  0  0  0  0
   46.3622   34.8574   43.2296 H   0  0  0  0  0  0  0  0  0  0  0  0
   48.5617   36.0135   42.6819 H   0  0  0  0  0  0  0  0  0  0  0  0
   48.4518   34.3107   38.7606 H   0  0  0  0  0  0  0  0  0  0  0  0
   45.0523   32.7813   43.7165 H   0  0  0  0  0  0  0  0  0  0  0  0
   44.3725   31.5048   42.6510 H   0  0  0  0  0  0  0  0  0  0  0  0
   46.1396   31.8277   42.6510 H   0  0  0  0  0  0  0  0  0  0  0  0
  1  2  1  0
  1 12  1  0
  3  2  1  0
  4  3  1  0
  5  4  1  0
  5  6  1  0
  6  1  1  0
  7  8  1  0
  7  6  1  0
  9  8  1  0
 10  9  1  0
 10 11  1  0
 11  7  1  0
 12 13  1  0
 14 13  1  0
 14 21  1  0
 15 14  1  0
 15 16  2  0
 17 16  1  0
 18 17  2  0
 19 20  2  0
 19 18  1  0
 20 15  1  0
  1 22  1  6
  2 23  1  0
  2 24  1  0
  3 25  1  0
  3 26  1  0
  4 27  1  0
  4 28  1  0
  5 29  1  0
  5 30  1  0
  6 31  1  1
  8 32  1  0
  8 33  1  0
  9 34  1  0
  9 35  1  0
 10 36  1  0
 10 37  1  0
 11 38  1  0
 11 39  1  0
 13 40  1  0
 13 41  1  0
 14 42  1  6
 16 43  1  0
 17 44  1  0
 19 45  1  0
 21 46  1  0
 21 47  1  0
 21 48  1  0
M  ISO  8  22  13  23  13  24  13  25  13  26  13  27  13  28  13  29  13
M  ISO  8  30  13  31  13  32  13  33  13  34  13  35  13  36  13  37  13
M  ISO  8  38  13  39  13  40   8  41   8  42   8  43  14  44  14  45  14
M  ISO  3  46   8  47   8  48   8
M  END
>  <minimizedAffinity>  (1) 
-4.60421371

>  <minimizedRMSD>  (1) 
4.78183937

$$$$
