
     RDKit          3D

 26 27  0  0  1  0  0  0  0  0999 V2000
   45.4400   34.4570   44.8170 C   0  0  0  0  0  0  0  0  0  0  0  0
   46.2320   34.1020   43.7370 C   0  0  0  0  0  0  0  0  0  0  0  0
   47.1100   33.0210   43.9740 C   0  0  0  0  0  0  0  0  0  0  0  0
   47.1010   32.4330   45.2190 N   0  0  0  0  0  0  0  0  0  0  0  0
   46.2990   32.8390   46.2150 C   0  0  0  0  0  0  0  0  0  0  0  0
   45.4730   33.8520   46.0020 N   0  0  0  0  0  0  0  0  0  0  0  0
   46.3890   34.5670   42.3750 C   0  0  2  0  0  0  0  0  0  0  0  0
   46.3960   33.3490   41.4370 C   0  0  0  0  0  0  0  0  0  0  0  0
   46.6280   33.8530   40.0050 C   0  0  0  0  0  0  0  0  0  0  0  0
   48.0940   34.2240   39.9840 C   0  0  0  0  0  0  0  0  0  0  0  0
   48.5720   34.9610   41.1810 C   0  0  0  0  0  0  0  0  0  0  0  0
   47.5620   35.4620   42.1350 C   0  0  0  0  0  0  0  0  0  0  0  0
   44.5900   35.5550   44.4940 C   0  0  0  0  0  0  0  0  0  0  0  0
   44.7930   36.7930   44.4850 O   0  0  0  0  0  0  0  0  0  0  0  0
   47.7838   32.6582   43.1839 H   0  0  0  0  0  0  0  0  0  0  0  0
   46.3271   32.3380   47.1939 H   0  0  0  0  0  0  0  0  0  0  0  0
   45.5285   35.2176   42.1600 H   0  0  0  0  0  0  0  0  0  0  0  0
   47.2038   32.6604   41.7257 H   0  0  0  0  0  0  0  0  0  0  0  0
   45.4385   32.8115   41.5021 H   0  0  0  0  0  0  0  0  0  0  0  0
   46.4139   33.0614   39.2718 H   0  0  0  0  0  0  0  0  0  0  0  0
   45.9729   34.6960   39.7402 H   0  0  0  0  0  0  0  0  0  0  0  0
   48.7567   33.9670   39.1445 H   0  0  0  0  0  0  0  0  0  0  0  0
   49.6456   35.1287   41.3520 H   0  0  0  0  0  0  0  0  0  0  0  0
   48.0630   35.6269   43.1003 H   0  0  0  0  0  0  0  0  0  0  0  0
   47.1509   36.3755   41.6804 H   0  0  0  0  0  0  0  0  0  0  0  0
   43.5711   35.2638   44.1991 H   0  0  0  0  0  0  0  0  0  0  0  0
  1  6  2  0
  2  3  2  0
  2  1  1  0
  3  4  1  0
  4  5  2  0
  6  5  1  0
  7  2  1  0
  8  7  1  0
  9  8  1  0
 10  9  1  0
 10 11  2  0
 11 12  1  0
 12  7  1  0
 13  1  1  0
 14 13  2  0
  3 15  1  0
  5 16  1  0
  7 17  1  6
  8 18  1  0
  8 19  1  0
  9 20  1  0
  9 21  1  0
 10 22  1  0
 11 23  1  0
 12 24  1  0
 12 25  1  0
 13 26  1  0
M  ISO  8  15  14  16  14  17  13  18  13  19  13  20  13  21  13  22  13
M  ISO  4  23  13  24  13  25  13  26   6
M  END
>  <minimizedAffinity>  (1) 
-4.62458467

>  <minimizedRMSD>  (1) 
1.34274781

$$$$
