
     RDKit          3D

 21 22  0  0  0  0  0  0  0  0999 V2000
   45.3900   35.0040   44.1610 C   0  0  0  0  0  0  0  0  0  0  0  0
   46.4220   34.3210   43.5550 C   0  0  0  0  0  0  0  0  0  0  0  0
   46.9770   33.3090   44.3760 C   0  0  0  0  0  0  0  0  0  0  0  0
   46.5030   33.0770   45.6260 N   0  0  0  0  0  0  0  0  0  0  0  0
   45.4850   33.7940   46.1470 C   0  0  0  0  0  0  0  0  0  0  0  0
   44.9470   34.7450   45.4040 N   0  0  0  0  0  0  0  0  0  0  0  0
   47.0240   34.4340   42.2440 C   0  0  0  0  0  0  0  0  0  0  0  0
   48.1060   35.2460   42.0190 C   0  0  0  0  0  0  0  0  0  0  0  0
   48.6910   35.3780   40.7870 C   0  0  0  0  0  0  0  0  0  0  0  0
   48.2210   34.6930   39.7000 C   0  0  0  0  0  0  0  0  0  0  0  0
   47.1370   33.8840   39.9420 C   0  0  0  0  0  0  0  0  0  0  0  0
   46.6170   33.8020   41.1600 N   0  0  0  0  0  0  0  0  0  0  0  0
   44.8380   36.0440   43.3270 C   0  0  0  0  0  0  0  0  0  0  0  0
   45.1990   37.2720   43.3180 O   0  0  0  0  0  0  0  0  0  0  0  0
   47.8085   32.6993   43.9928 H   0  0  0  0  0  0  0  0  0  0  0  0
   45.1134   33.5921   47.1625 H   0  0  0  0  0  0  0  0  0  0  0  0
   48.5218   35.8154   42.8633 H   0  0  0  0  0  0  0  0  0  0  0  0
   49.5555   36.0479   40.6696 H   0  0  0  0  0  0  0  0  0  0  0  0
   48.6782   34.7834   38.7036 H   0  0  0  0  0  0  0  0  0  0  0  0
   46.6971   33.3001   39.1201 H   0  0  0  0  0  0  0  0  0  0  0  0
   44.0330   35.7550   42.6354 H   0  0  0  0  0  0  0  0  0  0  0  0
  1  6  2  0
  2  1  1  0
  2  3  2  0
  3  4  1  0
  4  5  2  0
  6  5  1  0
  7  2  1  0
  8  7  2  0
  9  8  1  0
 10 11  1  0
 10  9  2  0
 11 12  2  0
 12  7  1  0
 13  1  1  0
 14 13  2  0
  3 15  1  0
  5 16  1  0
  8 17  1  0
  9 18  1  0
 10 19  1  0
 11 20  1  0
 13 21  1  0
M  ISO  7  15  14  16  14  17  14  18  14  19  14  20  14  21   6
M  END
>  <minimizedAffinity>  (1) 
-4.71954012

>  <minimizedRMSD>  (1) 
0.680795968

$$$$
