
     RDKit          3D

 23 24  0  0  0  0  0  0  0  0999 V2000
   45.4170   35.0830   44.0730 C   0  0  0  0  0  0  0  0  0  0  0  0
   46.5000   34.3670   43.5540 C   0  0  0  0  0  0  0  0  0  0  0  0
   47.0250   33.3450   44.3450 C   0  0  0  0  0  0  0  0  0  0  0  0
   46.4580   33.1080   45.5630 N   0  0  0  0  0  0  0  0  0  0  0  0
   45.4130   33.8260   46.0210 C   0  0  0  0  0  0  0  0  0  0  0  0
   44.8960   34.8160   45.2680 N   0  0  0  0  0  0  0  0  0  0  0  0
   47.1450   34.5370   42.3220 N   0  0  0  0  0  0  0  0  0  0  0  0
   48.1960   35.2890   41.9850 C   0  0  0  0  0  0  0  0  0  0  0  0
   48.6640   35.2990   40.6940 C   0  0  0  0  0  0  0  0  0  0  0  0
   48.0810   34.5470   39.6990 C   0  0  0  0  0  0  0  0  0  0  0  0
   48.5640   34.5560   38.3610 N   0  0  0  0  0  0  0  0  0  0  0  0
   47.0150   33.7920   40.0660 N   0  0  0  0  0  0  0  0  0  0  0  0
   46.5540   33.7850   41.3510 C   0  0  0  0  0  0  0  0  0  0  0  0
   45.5540   33.0050   41.4430 O   0  0  0  0  0  0  0  0  0  0  0  0
   44.9190   36.1260   43.2100 C   0  0  0  0  0  0  0  0  0  0  0  0
   45.2180   37.3640   43.3060 O   0  0  0  0  0  0  0  0  0  0  0  0
   47.8769   32.7438   43.9946 H   0  0  0  0  0  0  0  0  0  0  0  0
   44.9829   33.6036   47.0087 H   0  0  0  0  0  0  0  0  0  0  0  0
   48.6915   35.9063   42.7489 H   0  0  0  0  0  0  0  0  0  0  0  0
   49.5322   35.9277   40.4471 H   0  0  0  0  0  0  0  0  0  0  0  0
   49.3754   35.1388   38.1103 H   0  0  0  0  0  0  0  0  0  0  0  0
   48.1023   33.9797   37.6429 H   0  0  0  0  0  0  0  0  0  0  0  0
   44.2277   35.8322   42.4064 H   0  0  0  0  0  0  0  0  0  0  0  0
  1  6  2  0
  2  1  1  0
  2  3  2  0
  3  4  1  0
  4  5  2  0
  6  5  1  0
  7  2  1  0
  8  7  1  0
  9  8  2  0
 10 12  2  0
 10  9  1  0
 11 10  1  0
 12 13  1  0
 13 14  2  0
 13  7  1  0
 15 16  2  0
 15  1  1  0
  3 17  1  0
  5 18  1  0
  8 19  1  0
  9 20  1  0
 11 21  1  0
 11 22  1  0
 15 23  1  0
M  ISO  5  17  14  18  14  19  14  20  14  23   6
M  END
>  <minimizedAffinity>  (1) 
-4.97085094

>  <minimizedRMSD>  (1) 
0.743677676

$$$$
