
     RDKit          3D

 25 26  0  0  0  0  0  0  0  0999 V2000
   45.4080   34.5150   44.7820 C   0  0  0  0  0  0  0  0  0  0  0  0
   46.3240   34.0070   43.8610 C   0  0  0  0  0  0  0  0  0  0  0  0
   47.1260   32.9320   44.2840 C   0  0  0  0  0  0  0  0  0  0  0  0
   46.9440   32.4710   45.5660 N   0  0  0  0  0  0  0  0  0  0  0  0
   46.0440   33.0020   46.4120 C   0  0  0  0  0  0  0  0  0  0  0  0
   45.2740   34.0290   46.0140 N   0  0  0  0  0  0  0  0  0  0  0  0
   46.5090   34.4870   42.5360 N   0  0  0  0  0  0  0  0  0  0  0  0
   45.7150   34.3430   41.3290 C   0  0  0  0  0  0  0  0  0  0  0  0
   46.5070   33.6940   40.2160 C   0  0  0  0  0  0  0  0  0  0  0  0
   47.6330   34.4640   39.8900 O   0  0  0  0  0  0  0  0  0  0  0  0
   48.4230   34.5460   41.0150 C   0  0  0  0  0  0  0  0  0  0  0  0
   47.6460   35.3020   42.0820 C   0  0  0  0  0  0  0  0  0  0  0  0
   44.6360   35.6030   44.2690 C   0  0  0  0  0  0  0  0  0  0  0  0
   44.8690   36.8370   44.3580 O   0  0  0  0  0  0  0  0  0  0  0  0
   47.8708   32.4773   43.6142 H   0  0  0  0  0  0  0  0  0  0  0  0
   45.9380   32.5962   47.4289 H   0  0  0  0  0  0  0  0  0  0  0  0
   44.8362   33.7201   41.5520 H   0  0  0  0  0  0  0  0  0  0  0  0
   45.4110   35.3461   40.9954 H   0  0  0  0  0  0  0  0  0  0  0  0
   46.8350   32.6958   40.5417 H   0  0  0  0  0  0  0  0  0  0  0  0
   45.8647   33.6153   39.3264 H   0  0  0  0  0  0  0  0  0  0  0  0
   48.6651   33.5353   41.3754 H   0  0  0  0  0  0  0  0  0  0  0  0
   49.3627   35.0693   40.7843 H   0  0  0  0  0  0  0  0  0  0  0  0
   48.3075   35.5145   42.9348 H   0  0  0  0  0  0  0  0  0  0  0  0
   47.2725   36.2470   41.6607 H   0  0  0  0  0  0  0  0  0  0  0  0
   43.7200   35.3264   43.7264 H   0  0  0  0  0  0  0  0  0  0  0  0
  1  6  2  0
  2  3  2  0
  2  1  1  0
  3  4  1  0
  4  5  2  0
  6  5  1  0
  7  2  1  0
  8  7  1  0
  9  8  1  0
 10  9  1  0
 10 11  1  0
 11 12  1  0
 12  7  1  0
 13 14  2  0
 13  1  1  0
  3 15  1  0
  5 16  1  0
  8 17  1  0
  8 18  1  0
  9 19  1  0
  9 20  1  0
 11 21  1  0
 11 22  1  0
 12 23  1  0
 12 24  1  0
 13 25  1  0
M  ISO  8  15  14  16  14  17  13  18  13  19  13  20  13  21  13  22  13
M  ISO  3  23  13  24  13  25   6
M  END
>  <minimizedAffinity>  (1) 
-4.20740271

>  <minimizedRMSD>  (1) 
0.869418561

$$$$
