
     RDKit          3D

 21 21  0  0  0  0  0  0  0  0999 V2000
   45.4990   34.7790   44.3680 C   0  0  0  0  0  0  0  0  0  0  0  0
   46.4750   34.3880   43.4500 C   0  0  0  0  0  0  0  0  0  0  0  0
   47.2830   33.3210   43.8120 C   0  0  0  0  0  0  0  0  0  0  0  0
   47.0770   32.7320   45.0150 N   0  0  0  0  0  0  0  0  0  0  0  0
   46.1280   33.1280   45.8800 C   0  0  0  0  0  0  0  0  0  0  0  0
   45.3430   34.1490   45.5550 N   0  0  0  0  0  0  0  0  0  0  0  0
   44.6750   35.9000   43.9520 C   0  0  0  0  0  0  0  0  0  0  0  0
   44.8760   37.0990   44.3410 O   0  0  0  0  0  0  0  0  0  0  0  0
   46.6870   35.0440   42.1390 C   0  0  0  0  0  0  0  0  0  0  0  0
   48.1430   35.2430   41.8910 C   0  0  0  0  0  0  0  0  0  0  0  0
   46.0960   34.2240   41.0050 C   0  0  0  0  0  0  0  0  0  0  0  0
   48.0738   32.9605   43.1376 H   0  0  0  0  0  0  0  0  0  0  0  0
   46.0029   32.6136   46.8442 H   0  0  0  0  0  0  0  0  0  0  0  0
   43.8359   35.7063   43.2676 H   0  0  0  0  0  0  0  0  0  0  0  0
   46.1768   36.0180   42.1709 H   0  0  0  0  0  0  0  0  0  0  0  0
   48.6722   35.3153   42.8526 H   0  0  0  0  0  0  0  0  0  0  0  0
   48.5374   34.3904   41.3187 H   0  0  0  0  0  0  0  0  0  0  0  0
   48.2941   36.1701   41.3187 H   0  0  0  0  0  0  0  0  0  0  0  0
   45.5007   33.3980   41.4214 H   0  0  0  0  0  0  0  0  0  0  0  0
   45.4511   34.8652   40.3862 H   0  0  0  0  0  0  0  0  0  0  0  0
   46.9083   33.8150   40.3862 H   0  0  0  0  0  0  0  0  0  0  0  0
  1  6  2  0
  2  3  2  0
  2  1  1  0
  3  4  1  0
  4  5  2  0
  6  5  1  0
  7  8  2  0
  7  1  1  0
  9  2  1  0
 10  9  1  0
 11  9  1  0
  3 12  1  0
  5 13  1  0
  7 14  1  0
  9 15  1  0
 10 16  1  0
 10 17  1  0
 10 18  1  0
 11 19  1  0
 11 20  1  0
 11 21  1  0
M  ISO  8  12  14  13  14  14   6  15   8  16   8  17   8  18   8  19   8
M  ISO  2  20   8  21   8
M  END
>  <minimizedAffinity>  (1) 
-3.80845189

>  <minimizedRMSD>  (1) 
0.741632819

$$$$
