
     RDKit          3D

 25 27  0  0  0  0  0  0  0  0999 V2000
   47.6010   34.7070   42.1050 N   0  0  0  0  0  0  0  0  0  0  0  0
   48.5530   35.6350   41.8930 C   0  0  0  0  0  0  0  0  0  0  0  0
   48.8920   35.6110   40.5790 N   0  0  0  0  0  0  0  0  0  0  0  0
   48.1640   34.6780   39.9530 C   0  0  0  0  0  0  0  0  0  0  0  0
   48.0820   34.2210   38.6530 C   0  0  0  0  0  0  0  0  0  0  0  0
   47.2110   33.2270   38.3350 N   0  0  0  0  0  0  0  0  0  0  0  0
   46.4130   32.6660   39.2670 C   0  0  0  0  0  0  0  0  0  0  0  0
   46.5150   33.1300   40.5270 N   0  0  0  0  0  0  0  0  0  0  0  0
   47.3480   34.1030   40.9060 C   0  0  0  0  0  0  0  0  0  0  0  0
   45.7220   34.8790   43.7700 C   0  0  0  0  0  0  0  0  0  0  0  0
   46.9010   34.3180   43.2810 C   0  0  0  0  0  0  0  0  0  0  0  0
   47.4690   33.2650   44.0050 C   0  0  0  0  0  0  0  0  0  0  0  0
   46.8440   32.8510   45.1380 N   0  0  0  0  0  0  0  0  0  0  0  0
   45.7010   33.4210   45.5810 C   0  0  0  0  0  0  0  0  0  0  0  0
   45.1640   34.4210   44.8890 N   0  0  0  0  0  0  0  0  0  0  0  0
   45.1950   35.9530   42.9760 C   0  0  0  0  0  0  0  0  0  0  0  0
   45.2010   37.1900   43.2880 O   0  0  0  0  0  0  0  0  0  0  0  0
   48.9030   34.7820   37.6350 N   0  0  0  0  0  0  0  0  0  0  0  0
   48.9834   36.3004   42.6559 H   0  0  0  0  0  0  0  0  0  0  0  0
   45.7078   31.8624   39.0082 H   0  0  0  0  0  0  0  0  0  0  0  0
   48.3983   32.7841   43.6657 H   0  0  0  0  0  0  0  0  0  0  0  0
   45.2210   33.0616   46.5032 H   0  0  0  0  0  0  0  0  0  0  0  0
   44.7444   35.6843   42.0092 H   0  0  0  0  0  0  0  0  0  0  0  0
   48.8343   34.4341   36.6680 H   0  0  0  0  0  0  0  0  0  0  0  0
   49.5659   35.5360   37.8652 H   0  0  0  0  0  0  0  0  0  0  0  0
  1 11  1  0
  2  1  1  0
  3  2  2  0
  4  3  1  0
  4  9  2  0
  5  4  1  0
  6  5  2  0
  6  7  1  0
  7  8  2  0
  8  9  1  0
  9  1  1  0
 10 15  2  0
 11 10  1  0
 11 12  2  0
 12 13  1  0
 13 14  2  0
 15 14  1  0
 16 17  2  0
 16 10  1  0
 18  5  1  0
  2 19  1  0
  7 20  1  0
 12 21  1  0
 14 22  1  0
 16 23  1  0
 18 24  1  0
 18 25  1  0
M  ISO  5  19  14  20  14  21  14  22  14  23   6
M  END
>  <minimizedAffinity>  (1) 
-5.27086115

>  <minimizedRMSD>  (1) 
1.09120584

$$$$
