
     RDKit          3D

 35 38  0  0  1  0  0  0  0  0999 V2000
   45.6820   34.4830   43.7610 C   0  0  0  0  0  0  0  0  0  0  0  0
   46.9290   34.0550   43.2890 C   0  0  0  0  0  0  0  0  0  0  0  0
   47.6270   33.0830   44.0010 C   0  0  0  0  0  0  0  0  0  0  0  0
   47.0530   32.5920   45.1340 N   0  0  0  0  0  0  0  0  0  0  0  0
   45.8440   33.0200   45.5760 C   0  0  0  0  0  0  0  0  0  0  0  0
   45.1890   33.9530   44.8800 N   0  0  0  0  0  0  0  0  0  0  0  0
   47.5760   34.5320   42.1170 N   0  0  0  0  0  0  0  0  0  0  0  0
   48.4070   35.5790   41.9090 C   0  0  0  0  0  0  0  0  0  0  0  0
   48.7520   35.6070   40.5930 N   0  0  0  0  0  0  0  0  0  0  0  0
   48.1500   34.5940   39.9730 C   0  0  0  0  0  0  0  0  0  0  0  0
   48.1320   34.1370   38.6690 C   0  0  0  0  0  0  0  0  0  0  0  0
   47.3930   33.0320   38.3340 N   0  0  0  0  0  0  0  0  0  0  0  0
   46.6790   32.3810   39.2700 C   0  0  0  0  0  0  0  0  0  0  0  0
   46.7200   32.8520   40.5210 N   0  0  0  0  0  0  0  0  0  0  0  0
   47.4180   33.9220   40.9170 C   0  0  0  0  0  0  0  0  0  0  0  0
   48.8780   34.8030   37.6480 N   0  0  0  0  0  0  0  0  0  0  0  0
   45.0070   35.4660   42.9820 C   0  0  0  0  0  0  0  0  0  0  0  0
   45.3240   36.7260   43.0050 O   0  0  0  0  0  0  0  0  0  0  0  0
   43.8870   35.2900   42.0540 C   0  0  0  0  0  0  0  0  0  0  0  0
   44.0630   34.9220   40.7420 C   0  0  0  0  0  0  0  0  0  0  0  0
   43.0040   34.7790   39.8360 C   0  0  0  0  0  0  0  0  0  0  0  0
   41.7480   35.0190   40.2880 N   0  0  0  0  0  0  0  0  0  0  0  0
   41.5850   35.3790   41.5710 C   0  0  0  0  0  0  0  0  0  0  0  0
   42.6300   35.5020   42.4000 N   0  0  0  0  0  0  0  0  0  0  0  0
   48.6091   32.7238   43.6597 H   0  0  0  0  0  0  0  0  0  0  0  0
   45.4084   32.6038   46.4963 H   0  0  0  0  0  0  0  0  0  0  0  0
   48.7474   36.2898   42.6764 H   0  0  0  0  0  0  0  0  0  0  0  0
   46.0825   31.4926   39.0154 H   0  0  0  0  0  0  0  0  0  0  0  0
   48.8548   34.4507   36.6804 H   0  0  0  0  0  0  0  0  0  0  0  0
   49.4388   35.6353   37.8798 H   0  0  0  0  0  0  0  0  0  0  0  0
   45.7182   35.3021   42.1590 H   0  0  0  0  0  0  0  0  0  0  0  0
   45.4005   37.0300   43.9441 H   0  0  0  0  0  0  0  0  0  0  0  0
   45.0858   34.7302   40.3854 H   0  0  0  0  0  0  0  0  0  0  0  0
   43.1852   34.4819   38.7925 H   0  0  0  0  0  0  0  0  0  0  0  0
   40.5714   35.5773   41.9497 H   0  0  0  0  0  0  0  0  0  0  0  0
  1  6  2  0
  2  1  1  0
  2  3  2  0
  3  4  1  0
  4  5  2  0
  6  5  1  0
  7  2  1  0
  8  7  1  0
  9  8  2  0
 10  9  1  0
 10 15  2  0
 11 10  1  0
 12 11  2  0
 12 13  1  0
 13 14  2  0
 14 15  1  0
 15  7  1  0
 16 11  1  0
 17 18  1  0
 17  1  1  0
 19 24  1  0
 19 17  1  0
 20 19  2  0
 21 22  2  0
 21 20  1  0
 22 23  1  0
 23 24  2  0
  3 25  1  0
  5 26  1  0
  8 27  1  0
 13 28  1  0
 16 29  1  0
 16 30  1  0
 17 31  1  0
 18 32  1  0
 20 33  1  0
 21 34  1  0
 23 35  1  0
M  ISO  8  25  14  26  14  27  14  28  14  31   8  32   3  33  14  34  14
M  ISO  1  35  14
M  END
>  <minimizedAffinity>  (1) 
-6.051332

>  <minimizedRMSD>  (1) 
0.754102111

$$$$
