
     RDKit          3D

 38 42  0  0  1  0  0  0  0  0999 V2000
   45.6900   34.2230   43.7070 C   0  0  0  0  0  0  0  0  0  0  0  0
   46.9960   33.9280   43.2810 C   0  0  0  0  0  0  0  0  0  0  0  0
   47.7790   33.0780   44.0500 C   0  0  0  0  0  0  0  0  0  0  0  0
   47.2390   32.5660   45.1900 N   0  0  0  0  0  0  0  0  0  0  0  0
   45.9710   32.8630   45.5870 C   0  0  0  0  0  0  0  0  0  0  0  0
   45.2280   33.6800   44.8430 N   0  0  0  0  0  0  0  0  0  0  0  0
   47.6050   34.4340   42.1090 N   0  0  0  0  0  0  0  0  0  0  0  0
   48.4190   35.4950   41.9020 C   0  0  0  0  0  0  0  0  0  0  0  0
   48.7340   35.5540   40.5800 N   0  0  0  0  0  0  0  0  0  0  0  0
   48.1250   34.5390   39.9480 C   0  0  0  0  0  0  0  0  0  0  0  0
   48.0800   34.1040   38.6290 C   0  0  0  0  0  0  0  0  0  0  0  0
   47.3490   33.0040   38.3040 N   0  0  0  0  0  0  0  0  0  0  0  0
   46.6660   32.3270   39.2420 C   0  0  0  0  0  0  0  0  0  0  0  0
   46.7330   32.7760   40.4980 N   0  0  0  0  0  0  0  0  0  0  0  0
   47.4230   33.8390   40.8940 C   0  0  0  0  0  0  0  0  0  0  0  0
   48.7980   34.8180   37.6250 N   0  0  0  0  0  0  0  0  0  0  0  0
   44.9280   35.0920   42.8790 C   0  0  0  0  0  0  0  0  0  0  0  0
   45.0350   36.3850   42.9060 O   0  0  0  0  0  0  0  0  0  0  0  0
   42.2160   31.9580   40.6730 N   0  0  0  0  0  0  0  0  0  0  0  0
   42.9430   31.3640   41.6350 C   0  0  0  0  0  0  0  0  0  0  0  0
   43.6760   32.3290   42.2160 N   0  0  0  0  0  0  0  0  0  0  0  0
   43.4220   33.5140   41.6360 C   0  0  0  0  0  0  0  0  0  0  0  0
   43.9160   34.7730   41.8770 C   0  0  0  0  0  0  0  0  0  0  0  0
   43.4240   35.7230   41.0890 N   0  0  0  0  0  0  0  0  0  0  0  0
   42.5180   35.5670   40.1140 C   0  0  0  0  0  0  0  0  0  0  0  0
   42.0590   34.3020   39.9140 N   0  0  0  0  0  0  0  0  0  0  0  0
   42.4790   33.2710   40.6410 C   0  0  0  0  0  0  0  0  0  0  0  0
   48.8059   32.8255   43.7471 H   0  0  0  0  0  0  0  0  0  0  0  0
   45.5641   32.4321   46.5137 H   0  0  0  0  0  0  0  0  0  0  0  0
   48.7685   36.1947   42.6755 H   0  0  0  0  0  0  0  0  0  0  0  0
   46.0738   31.4363   38.9852 H   0  0  0  0  0  0  0  0  0  0  0  0
   48.7680   34.4998   36.6458 H   0  0  0  0  0  0  0  0  0  0  0  0
   49.3466   35.6519   37.8789 H   0  0  0  0  0  0  0  0  0  0  0  0
   45.7107   35.0433   42.1076 H   0  0  0  0  0  0  0  0  0  0  0  0
   45.0606   36.6944   43.8460 H   0  0  0  0  0  0  0  0  0  0  0  0
   41.5530   31.4739   40.0509 H   0  0  0  0  0  0  0  0  0  0  0  0
   42.9388   30.2954   41.8960 H   0  0  0  0  0  0  0  0  0  0  0  0
   42.1649   36.4150   39.5088 H   0  0  0  0  0  0  0  0  0  0  0  0
  1  6  2  0
  2  1  1  0
  2  3  2  0
  3  4  1  0
  4  5  2  0
  6  5  1  0
  7  2  1  0
  8  7  1  0
  9  8  2  0
 10  9  1  0
 10 15  2  0
 11 10  1  0
 12 11  2  0
 12 13  1  0
 13 14  2  0
 14 15  1  0
 15  7  1  0
 16 11  1  0
 17 18  1  0
 17  1  1  0
 19 20  1  0
 20 21  2  0
 22 23  2  0
 22 21  1  0
 23 17  1  0
 24 23  1  0
 25 24  2  0
 26 25  1  0
 26 27  2  0
 27 19  1  0
 27 22  1  0
  3 28  1  0
  5 29  1  0
  8 30  1  0
 13 31  1  0
 16 32  1  0
 16 33  1  0
 17 34  1  0
 18 35  1  0
 19 36  1  0
 20 37  1  0
 25 38  1  0
M  ISO  8  28  14  29  14  30  14  31  14  34   8  35   3  36   9  37  14
M  ISO  1  38  14
M  END
>  <minimizedAffinity>  (1) 
-6.04439211

>  <minimizedRMSD>  (1) 
1.11800551

$$$$
