
     RDKit          3D

 34 37  0  0  1  0  0  0  0  0999 V2000
   45.7230   34.2730   43.7070 C   0  0  0  0  0  0  0  0  0  0  0  0
   47.0040   33.9210   43.2510 C   0  0  0  0  0  0  0  0  0  0  0  0
   47.7530   32.9980   43.9740 C   0  0  0  0  0  0  0  0  0  0  0  0
   47.2000   32.4740   45.0990 N   0  0  0  0  0  0  0  0  0  0  0  0
   45.9580   32.8230   45.5270 C   0  0  0  0  0  0  0  0  0  0  0  0
   45.2500   33.7080   44.8290 N   0  0  0  0  0  0  0  0  0  0  0  0
   47.6300   34.4390   42.0860 N   0  0  0  0  0  0  0  0  0  0  0  0
   48.4360   35.5080   41.8930 C   0  0  0  0  0  0  0  0  0  0  0  0
   48.7640   35.5740   40.5730 N   0  0  0  0  0  0  0  0  0  0  0  0
   48.1750   34.5600   39.9270 C   0  0  0  0  0  0  0  0  0  0  0  0
   48.1460   34.1380   38.6250 C   0  0  0  0  0  0  0  0  0  0  0  0
   47.4290   33.0380   38.2800 N   0  0  0  0  0  0  0  0  0  0  0  0
   46.7390   32.3420   39.1950 C   0  0  0  0  0  0  0  0  0  0  0  0
   46.7880   32.7800   40.4590 N   0  0  0  0  0  0  0  0  0  0  0  0
   47.4660   33.8510   40.8750 C   0  0  0  0  0  0  0  0  0  0  0  0
   48.8730   34.8170   37.6030 N   0  0  0  0  0  0  0  0  0  0  0  0
   44.9980   35.2090   42.9310 C   0  0  0  0  0  0  0  0  0  0  0  0
   45.1220   36.4980   43.0640 O   0  0  0  0  0  0  0  0  0  0  0  0
   43.9840   35.0410   41.8540 C   0  0  0  0  0  0  0  0  0  0  0  0
   43.2990   35.8140   41.0410 C   0  0  0  0  0  0  0  0  0  0  0  0
   42.3900   35.2160   40.2210 C   0  0  0  0  0  0  0  0  0  0  0  0
   42.2210   33.8280   40.2730 C   0  0  0  0  0  0  0  0  0  0  0  0
   43.4920   33.4240   41.6180 S   0  0  0  0  0  0  0  0  0  0  0  0
   48.7602   32.7021   43.6455 H   0  0  0  0  0  0  0  0  0  0  0  0
   45.5415   32.3778   46.4426 H   0  0  0  0  0  0  0  0  0  0  0  0
   48.7709   36.2078   42.6728 H   0  0  0  0  0  0  0  0  0  0  0  0
   46.1579   31.4498   38.9190 H   0  0  0  0  0  0  0  0  0  0  0  0
   48.8336   34.4781   36.6311 H   0  0  0  0  0  0  0  0  0  0  0  0
   49.4374   35.6463   37.8368 H   0  0  0  0  0  0  0  0  0  0  0  0
   45.8019   35.2091   42.1801 H   0  0  0  0  0  0  0  0  0  0  0  0
   45.1443   36.7298   44.0262 H   0  0  0  0  0  0  0  0  0  0  0  0
   43.4538   36.9029   41.0233 H   0  0  0  0  0  0  0  0  0  0  0  0
   41.7928   35.8205   39.5225 H   0  0  0  0  0  0  0  0  0  0  0  0
   41.5502   33.1684   39.7029 H   0  0  0  0  0  0  0  0  0  0  0  0
  1  6  2  0
  2  1  1  0
  2  3  2  0
  3  4  1  0
  4  5  2  0
  6  5  1  0
  7  2  1  0
  8  7  1  0
  9  8  2  0
 10  9  1  0
 10 15  2  0
 11 10  1  0
 12 11  2  0
 12 13  1  0
 13 14  2  0
 14 15  1  0
 15  7  1  0
 16 11  1  0
 17 18  1  0
 17  1  1  0
 19 17  1  0
 20 19  2  0
 21 22  2  0
 21 20  1  0
 22 23  1  0
 23 19  1  0
  3 24  1  0
  5 25  1  0
  8 26  1  0
 13 27  1  0
 16 28  1  0
 16 29  1  0
 17 30  1  0
 18 31  1  0
 20 32  1  0
 21 33  1  0
 22 34  1  0
M  ISO  8  24  14  25  14  26  14  27  14  30   8  31   3  32  14  33  14
M  ISO  1  34  14
M  END
>  <minimizedAffinity>  (1) 
-5.79227161

>  <minimizedRMSD>  (1) 
0.850779831

$$$$
