
     RDKit          3D

 40 43  0  0  1  0  0  0  0  0999 V2000
   45.6920   34.2910   43.6260 C   0  0  0  0  0  0  0  0  0  0  0  0
   46.9770   33.9810   43.1850 C   0  0  0  0  0  0  0  0  0  0  0  0
   47.7270   33.0730   43.9570 C   0  0  0  0  0  0  0  0  0  0  0  0
   47.1480   32.5620   45.0750 N   0  0  0  0  0  0  0  0  0  0  0  0
   45.9060   32.8880   45.4640 C   0  0  0  0  0  0  0  0  0  0  0  0
   45.1880   33.7510   44.7340 N   0  0  0  0  0  0  0  0  0  0  0  0
   47.6230   34.4810   42.0280 N   0  0  0  0  0  0  0  0  0  0  0  0
   48.4280   35.5290   41.8360 C   0  0  0  0  0  0  0  0  0  0  0  0
   48.7840   35.5760   40.5230 N   0  0  0  0  0  0  0  0  0  0  0  0
   48.2100   34.5670   39.8770 C   0  0  0  0  0  0  0  0  0  0  0  0
   48.1990   34.1200   38.5800 C   0  0  0  0  0  0  0  0  0  0  0  0
   47.4800   33.0220   38.2360 N   0  0  0  0  0  0  0  0  0  0  0  0
   46.7580   32.3340   39.1440 C   0  0  0  0  0  0  0  0  0  0  0  0
   46.7830   32.7870   40.4110 N   0  0  0  0  0  0  0  0  0  0  0  0
   47.4760   33.8690   40.8100 C   0  0  0  0  0  0  0  0  0  0  0  0
   48.9350   34.7820   37.5620 N   0  0  0  0  0  0  0  0  0  0  0  0
   44.9780   35.1940   42.7890 C   0  0  0  0  0  0  0  0  0  0  0  0
   44.9440   36.4740   42.9200 O   0  0  0  0  0  0  0  0  0  0  0  0
   44.0920   35.1820   41.5960 C   0  0  0  0  0  0  0  0  0  0  0  0
   42.7680   35.8250   41.8680 C   0  0  0  0  0  0  0  0  0  0  0  0
   41.9350   35.2260   40.7260 C   0  0  0  0  0  0  0  0  0  0  0  0
   42.3280   33.7510   40.7610 C   0  0  0  0  0  0  0  0  0  0  0  0
   43.6730   33.7140   41.4360 C   0  0  0  0  0  0  0  0  0  0  0  0
   48.7481   32.7868   43.6646 H   0  0  0  0  0  0  0  0  0  0  0  0
   45.4797   32.4486   46.3779 H   0  0  0  0  0  0  0  0  0  0  0  0
   48.7507   36.2385   42.6122 H   0  0  0  0  0  0  0  0  0  0  0  0
   46.1759   31.4442   38.8621 H   0  0  0  0  0  0  0  0  0  0  0  0
   48.9108   34.4271   36.5954 H   0  0  0  0  0  0  0  0  0  0  0  0
   49.4931   35.6171   37.7902 H   0  0  0  0  0  0  0  0  0  0  0  0
   45.8582   35.2843   42.1355 H   0  0  0  0  0  0  0  0  0  0  0  0
   44.9378   36.7072   43.8821 H   0  0  0  0  0  0  0  0  0  0  0  0
   44.6216   35.6714   40.7654 H   0  0  0  0  0  0  0  0  0  0  0  0
   42.3718   35.5404   42.8539 H   0  0  0  0  0  0  0  0  0  0  0  0
   42.7866   36.9244   41.8979 H   0  0  0  0  0  0  0  0  0  0  0  0
   42.1981   35.6837   39.7610 H   0  0  0  0  0  0  0  0  0  0  0  0
   40.8537   35.3923   40.8410 H   0  0  0  0  0  0  0  0  0  0  0  0
   41.5922   33.1698   41.3361 H   0  0  0  0  0  0  0  0  0  0  0  0
   42.3629   33.3119   39.7530 H   0  0  0  0  0  0  0  0  0  0  0  0
   43.5964   33.2267   42.4192 H   0  0  0  0  0  0  0  0  0  0  0  0
   44.4077   33.1413   40.8509 H   0  0  0  0  0  0  0  0  0  0  0  0
  1  6  2  0
  2  1  1  0
  2  3  2  0
  3  4  1  0
  4  5  2  0
  6  5  1  0
  7  2  1  0
  8  7  1  0
  9  8  2  0
 10  9  1  0
 10 15  2  0
 11 10  1  0
 12 11  2  0
 12 13  1  0
 13 14  2  0
 14 15  1  0
 15  7  1  0
 16 11  1  0
 17 18  1  0
 17  1  1  0
 19 20  1  0
 19 17  1  0
 21 22  1  0
 21 20  1  0
 22 23  1  0
 23 19  1  0
  3 24  1  0
  5 25  1  0
  8 26  1  0
 13 27  1  0
 16 28  1  0
 16 29  1  0
 17 30  1  0
 18 31  1  0
 19 32  1  0
 20 33  1  0
 20 34  1  0
 21 35  1  0
 21 36  1  0
 22 37  1  0
 22 38  1  0
 23 39  1  0
 23 40  1  0
M  ISO  8  24  14  25  14  26  14  27  14  30   8  31   3  32  13  33  13
M  ISO  7  34  13  35  13  36  13  37  13  38  13  39  13  40  13
M  END
>  <minimizedAffinity>  (1) 
-5.63095522

>  <minimizedRMSD>  (1) 
0.797092736

$$$$
