
     RDKit          3D

 38 41  0  0  0  0  0  0  0  0999 V2000
   45.6710   34.0590   43.7050 C   0  0  0  0  0  0  0  0  0  0  0  0
   46.9750   33.8440   43.2620 C   0  0  0  0  0  0  0  0  0  0  0  0
   47.7810   33.0030   44.0350 C   0  0  0  0  0  0  0  0  0  0  0  0
   47.2420   32.4550   45.1590 N   0  0  0  0  0  0  0  0  0  0  0  0
   45.9790   32.6910   45.5480 C   0  0  0  0  0  0  0  0  0  0  0  0
   45.2060   33.4960   44.8090 N   0  0  0  0  0  0  0  0  0  0  0  0
   47.5850   34.3900   42.0990 N   0  0  0  0  0  0  0  0  0  0  0  0
   48.3470   35.4720   41.9210 C   0  0  0  0  0  0  0  0  0  0  0  0
   48.6790   35.5550   40.6030 N   0  0  0  0  0  0  0  0  0  0  0  0
   48.1280   34.5310   39.9480 C   0  0  0  0  0  0  0  0  0  0  0  0
   48.1140   34.1020   38.6390 C   0  0  0  0  0  0  0  0  0  0  0  0
   47.4380   32.9850   38.2920 N   0  0  0  0  0  0  0  0  0  0  0  0
   46.7530   32.2470   39.2000 C   0  0  0  0  0  0  0  0  0  0  0  0
   46.7910   32.6990   40.4730 N   0  0  0  0  0  0  0  0  0  0  0  0
   47.4330   33.7840   40.8840 C   0  0  0  0  0  0  0  0  0  0  0  0
   48.8130   34.8280   37.6280 N   0  0  0  0  0  0  0  0  0  0  0  0
   44.8850   34.9330   42.8640 C   0  0  0  0  0  0  0  0  0  0  0  0
   45.0850   36.2040   42.7350 O   0  0  0  0  0  0  0  0  0  0  0  0
   43.7660   34.7850   41.9850 N   0  0  0  0  0  0  0  0  0  0  0  0
   43.7290   33.3310   41.8010 C   0  0  0  0  0  0  0  0  0  0  0  0
   42.5610   33.1050   40.8340 C   0  0  0  0  0  0  0  0  0  0  0  0
   42.7640   33.8450   39.6770 O   0  0  0  0  0  0  0  0  0  0  0  0
   42.7110   35.2040   39.8860 C   0  0  0  0  0  0  0  0  0  0  0  0
   42.8120   35.6170   41.3360 C   0  0  0  0  0  0  0  0  0  0  0  0
   48.8202   32.7902   43.7438 H   0  0  0  0  0  0  0  0  0  0  0  0
   45.5837   32.2279   46.4641 H   0  0  0  0  0  0  0  0  0  0  0  0
   48.6547   36.1775   42.7068 H   0  0  0  0  0  0  0  0  0  0  0  0
   46.2013   31.3380   38.9183 H   0  0  0  0  0  0  0  0  0  0  0  0
   48.7959   34.4984   36.6523 H   0  0  0  0  0  0  0  0  0  0  0  0
   49.3344   35.6815   37.8742 H   0  0  0  0  0  0  0  0  0  0  0  0
   44.6719   32.9686   41.3656 H   0  0  0  0  0  0  0  0  0  0  0  0
   43.6021   32.7889   42.7497 H   0  0  0  0  0  0  0  0  0  0  0  0
   42.4984   32.0368   40.5790 H   0  0  0  0  0  0  0  0  0  0  0  0
   41.6237   33.4251   41.3124 H   0  0  0  0  0  0  0  0  0  0  0  0
   43.5430   35.6692   39.3370 H   0  0  0  0  0  0  0  0  0  0  0  0
   41.7242   35.5377   39.5326 H   0  0  0  0  0  0  0  0  0  0  0  0
   43.1334   36.6671   41.3996 H   0  0  0  0  0  0  0  0  0  0  0  0
   41.8316   35.5115   41.8235 H   0  0  0  0  0  0  0  0  0  0  0  0
  1  6  2  0
  2  1  1  0
  2  3  2  0
  3  4  1  0
  4  5  2  0
  6  5  1  0
  7  2  1  0
  8  7  1  0
  9  8  2  0
 10  9  1  0
 10 15  2  0
 11 10  1  0
 12 11  2  0
 12 13  1  0
 13 14  2  0
 14 15  1  0
 15  7  1  0
 16 11  1  0
 17  1  1  0
 18 17  2  0
 19 17  1  0
 20 19  1  0
 21 20  1  0
 22 23  1  0
 22 21  1  0
 23 24  1  0
 24 19  1  0
  3 25  1  0
  5 26  1  0
  8 27  1  0
 13 28  1  0
 16 29  1  0
 16 30  1  0
 20 31  1  0
 20 32  1  0
 21 33  1  0
 21 34  1  0
 23 35  1  0
 23 36  1  0
 24 37  1  0
 24 38  1  0
M  ISO  8  25  14  26  14  27  14  28  14  31  13  32  13  33  13  34  13
M  ISO  4  35  13  36  13  37  13  38  13
M  END
>  <minimizedAffinity>  (1) 
-5.82816076

>  <minimizedRMSD>  (1) 
1.17829251

$$$$
