
     RDKit          3D

 39 42  0  0  0  0  0  0  0  0999 V2000
   45.6110   34.0120   43.5150 C   0  0  0  0  0  0  0  0  0  0  0  0
   46.9550   33.8220   43.1560 C   0  0  0  0  0  0  0  0  0  0  0  0
   47.7610   33.0460   43.9790 C   0  0  0  0  0  0  0  0  0  0  0  0
   47.2030   32.5060   45.0950 N   0  0  0  0  0  0  0  0  0  0  0  0
   45.9010   32.7010   45.4270 C   0  0  0  0  0  0  0  0  0  0  0  0
   45.1350   33.4470   44.6330 N   0  0  0  0  0  0  0  0  0  0  0  0
   47.5750   34.3630   42.0060 N   0  0  0  0  0  0  0  0  0  0  0  0
   48.3310   35.4690   41.8120 C   0  0  0  0  0  0  0  0  0  0  0  0
   48.6840   35.5380   40.5040 N   0  0  0  0  0  0  0  0  0  0  0  0
   48.1690   34.4970   39.8600 C   0  0  0  0  0  0  0  0  0  0  0  0
   48.1990   34.0590   38.5480 C   0  0  0  0  0  0  0  0  0  0  0  0
   47.5480   32.9140   38.1990 N   0  0  0  0  0  0  0  0  0  0  0  0
   46.8650   32.1880   39.1160 C   0  0  0  0  0  0  0  0  0  0  0  0
   46.8560   32.6430   40.3850 N   0  0  0  0  0  0  0  0  0  0  0  0
   47.4750   33.7620   40.7950 C   0  0  0  0  0  0  0  0  0  0  0  0
   48.8980   34.7860   37.5550 N   0  0  0  0  0  0  0  0  0  0  0  0
   44.8230   34.8110   42.6380 C   0  0  0  0  0  0  0  0  0  0  0  0
   44.8260   36.1020   42.6410 O   0  0  0  0  0  0  0  0  0  0  0  0
   43.8830   34.5760   41.5950 N   0  0  0  0  0  0  0  0  0  0  0  0
   43.0570   35.6790   41.1550 C   0  0  0  0  0  0  0  0  0  0  0  0
   41.7030   35.4220   41.8350 C   0  0  0  0  0  0  0  0  0  0  0  0
   41.2940   34.0650   41.6410 N   0  0  0  0  0  0  0  0  0  0  0  0
   42.0100   33.4000   40.5790 C   0  0  0  0  0  0  0  0  0  0  0  0
   43.4990   33.3990   40.7970 C   0  0  0  0  0  0  0  0  0  0  0  0
   48.8196   32.8734   43.7350 H   0  0  0  0  0  0  0  0  0  0  0  0
   45.4845   32.2490   46.3393 H   0  0  0  0  0  0  0  0  0  0  0  0
   48.6134   36.1944   42.5892 H   0  0  0  0  0  0  0  0  0  0  0  0
   46.3384   31.2636   38.8364 H   0  0  0  0  0  0  0  0  0  0  0  0
   48.9113   34.4473   36.5824 H   0  0  0  0  0  0  0  0  0  0  0  0
   49.3934   35.6538   37.8050 H   0  0  0  0  0  0  0  0  0  0  0  0
   43.4820   36.6401   41.4802 H   0  0  0  0  0  0  0  0  0  0  0  0
   42.9768   35.7379   40.0595 H   0  0  0  0  0  0  0  0  0  0  0  0
   41.7956   35.6215   42.9128 H   0  0  0  0  0  0  0  0  0  0  0  0
   40.9492   36.0877   41.3893 H   0  0  0  0  0  0  0  0  0  0  0  0
   41.4530   33.5471   42.5170 H   0  0  0  0  0  0  0  0  0  0  0  0
   41.7930   33.9150   39.6315 H   0  0  0  0  0  0  0  0  0  0  0  0
   41.6758   32.3522   40.5571 H   0  0  0  0  0  0  0  0  0  0  0  0
   43.7899   32.4831   41.3324 H   0  0  0  0  0  0  0  0  0  0  0  0
   44.0104   33.4352   39.8238 H   0  0  0  0  0  0  0  0  0  0  0  0
  1  6  2  0
  2  1  1  0
  2  3  2  0
  3  4  1  0
  4  5  2  0
  6  5  1  0
  7  2  1  0
  8  7  1  0
  9  8  2  0
 10  9  1  0
 10 15  2  0
 11 10  1  0
 12 11  2  0
 12 13  1  0
 13 14  2  0
 14 15  1  0
 15  7  1  0
 16 11  1  0
 17 18  2  0
 17  1  1  0
 19 17  1  0
 20 19  1  0
 20 21  1  0
 22 21  1  0
 23 24  1  0
 23 22  1  0
 24 19  1  0
  3 25  1  0
  5 26  1  0
  8 27  1  0
 13 28  1  0
 16 29  1  0
 16 30  1  0
 20 31  1  0
 20 32  1  0
 21 33  1  0
 21 34  1  0
 22 35  1  0
 23 36  1  0
 23 37  1  0
 24 38  1  0
 24 39  1  0
M  ISO  8  25  14  26  14  27  14  28  14  31  13  32  13  33  13  34  13
M  ISO  5  35   5  36  13  37  13  38  13  39  13
M  END
>  <minimizedAffinity>  (1) 
-5.89457035

>  <minimizedRMSD>  (1) 
1.09937966

$$$$
