
     RDKit          3D

 29 31  0  0  0  0  0  0  0  0999 V2000
   45.6950   34.8610   43.7860 C   0  0  0  0  0  0  0  0  0  0  0  0
   46.8800   34.3070   43.3140 C   0  0  0  0  0  0  0  0  0  0  0  0
   47.4500   33.2610   44.0390 C   0  0  0  0  0  0  0  0  0  0  0  0
   46.8280   32.8410   45.1570 N   0  0  0  0  0  0  0  0  0  0  0  0
   45.6870   33.3860   45.5980 C   0  0  0  0  0  0  0  0  0  0  0  0
   45.1390   34.3830   44.9100 N   0  0  0  0  0  0  0  0  0  0  0  0
   47.5840   34.7110   42.1360 N   0  0  0  0  0  0  0  0  0  0  0  0
   48.5250   35.6480   41.9380 C   0  0  0  0  0  0  0  0  0  0  0  0
   48.8690   35.6320   40.6130 N   0  0  0  0  0  0  0  0  0  0  0  0
   48.1540   34.7010   39.9880 C   0  0  0  0  0  0  0  0  0  0  0  0
   48.0720   34.2430   38.6870 C   0  0  0  0  0  0  0  0  0  0  0  0
   47.2130   33.2450   38.3660 N   0  0  0  0  0  0  0  0  0  0  0  0
   46.4230   32.6760   39.2920 C   0  0  0  0  0  0  0  0  0  0  0  0
   46.5130   33.1300   40.5490 N   0  0  0  0  0  0  0  0  0  0  0  0
   47.3300   34.1020   40.9390 C   0  0  0  0  0  0  0  0  0  0  0  0
   48.8840   34.8090   37.6690 N   0  0  0  0  0  0  0  0  0  0  0  0
   45.1610   35.9230   43.0050 C   0  0  0  0  0  0  0  0  0  0  0  0
   45.3090   37.1740   43.2260 O   0  0  0  0  0  0  0  0  0  0  0  0
   44.3950   35.6610   41.8790 O   0  0  0  0  0  0  0  0  0  0  0  0
   43.0830   35.2210   41.9440 C   0  0  0  0  0  0  0  0  0  0  0  0
   42.6480   34.3780   41.1300 O   0  0  0  0  0  0  0  0  0  0  0  0
   42.1500   35.6480   42.8750 O   0  0  0  0  0  0  0  0  0  0  0  0
   48.3863   32.7898   43.7052 H   0  0  0  0  0  0  0  0  0  0  0  0
   45.2098   33.0140   46.5166 H   0  0  0  0  0  0  0  0  0  0  0  0
   48.9462   36.3128   42.7066 H   0  0  0  0  0  0  0  0  0  0  0  0
   45.7272   31.8662   39.0273 H   0  0  0  0  0  0  0  0  0  0  0  0
   48.8154   34.4605   36.7022 H   0  0  0  0  0  0  0  0  0  0  0  0
   49.5417   35.5681   37.8973 H   0  0  0  0  0  0  0  0  0  0  0  0
   41.2292   35.2848   42.8555 H   0  0  0  0  0  0  0  0  0  0  0  0
  1  6  2  0
  2  1  1  0
  2  3  2  0
  3  4  1  0
  4  5  2  0
  6  5  1  0
  7  2  1  0
  8  7  1  0
  9  8  2  0
 10  9  1  0
 10 15  2  0
 11 10  1  0
 12 11  2  0
 12 13  1  0
 13 14  2  0
 14 15  1  0
 15  7  1  0
 16 11  1  0
 17 18  2  0
 17  1  1  0
 19 20  1  0
 19 17  1  0
 20 22  1  0
 21 20  2  0
  3 23  1  0
  5 24  1  0
  8 25  1  0
 13 26  1  0
 16 27  1  0
 16 28  1  0
 22 29  1  0
M  ISO  5  23  14  24  14  25  14  26  14  29   3
M  END
>  <minimizedAffinity>  (1) 
-6.04521322

>  <minimizedRMSD>  (1) 
0.969526291

$$$$
