
     RDKit          3D

 36 39  0  0  0  0  0  0  0  0999 V2000
   45.8120   34.6080   43.8380 C   0  0  0  0  0  0  0  0  0  0  0  0
   46.9940   34.1610   43.3210 C   0  0  0  0  0  0  0  0  0  0  0  0
   47.6130   33.1280   44.0270 C   0  0  0  0  0  0  0  0  0  0  0  0
   47.0260   32.6390   45.1540 N   0  0  0  0  0  0  0  0  0  0  0  0
   45.8540   33.1330   45.6060 C   0  0  0  0  0  0  0  0  0  0  0  0
   45.2500   34.1250   44.9350 N   0  0  0  0  0  0  0  0  0  0  0  0
   47.6390   34.6140   42.1390 N   0  0  0  0  0  0  0  0  0  0  0  0
   48.4890   35.6100   41.9290 C   0  0  0  0  0  0  0  0  0  0  0  0
   48.8100   35.6240   40.5980 N   0  0  0  0  0  0  0  0  0  0  0  0
   48.1560   34.6270   39.9670 C   0  0  0  0  0  0  0  0  0  0  0  0
   48.1020   34.1820   38.6680 C   0  0  0  0  0  0  0  0  0  0  0  0
   47.3280   33.1290   38.3620 N   0  0  0  0  0  0  0  0  0  0  0  0
   46.5860   32.4790   39.3050 C   0  0  0  0  0  0  0  0  0  0  0  0
   46.6500   32.9270   40.5710 N   0  0  0  0  0  0  0  0  0  0  0  0
   47.4040   33.9740   40.9430 C   0  0  0  0  0  0  0  0  0  0  0  0
   48.8360   34.8360   37.6620 N   0  0  0  0  0  0  0  0  0  0  0  0
   45.1530   35.6060   43.0560 C   0  0  0  0  0  0  0  0  0  0  0  0
   45.2410   36.8470   43.0950 O   0  0  0  0  0  0  0  0  0  0  0  0
   44.2440   35.2930   42.0610 O   0  0  0  0  0  0  0  0  0  0  0  0
   43.6140   34.1410   41.8150 C   0  0  0  0  0  0  0  0  0  0  0  0
   42.3530   34.8910   40.9450 C   0  0  0  0  0  0  0  0  0  0  0  0
   41.3770   35.4540   41.5450 C   0  0  0  0  0  0  0  0  0  0  0  0
   40.4360   36.0270   40.7570 C   0  0  0  0  0  0  0  0  0  0  0  0
   40.5790   35.9720   39.4080 C   0  0  0  0  0  0  0  0  0  0  0  0
   42.2130   35.0090   39.2590 S   0  0  0  0  0  0  0  0  0  0  0  0
   48.5686   32.7119   43.6752 H   0  0  0  0  0  0  0  0  0  0  0  0
   45.3969   32.7244   46.5193 H   0  0  0  0  0  0  0  0  0  0  0  0
   48.8702   36.3047   42.6920 H   0  0  0  0  0  0  0  0  0  0  0  0
   45.9565   31.6173   39.0382 H   0  0  0  0  0  0  0  0  0  0  0  0
   48.7918   34.4981   36.6900 H   0  0  0  0  0  0  0  0  0  0  0  0
   49.4177   35.6528   37.8973 H   0  0  0  0  0  0  0  0  0  0  0  0
   44.2069   33.4429   41.2059 H   0  0  0  0  0  0  0  0  0  0  0  0
   43.3515   33.4953   42.6660 H   0  0  0  0  0  0  0  0  0  0  0  0
   41.3041   35.4728   42.6424 H   0  0  0  0  0  0  0  0  0  0  0  0
   39.5666   36.5307   41.2046 H   0  0  0  0  0  0  0  0  0  0  0  0
   39.9282   36.3741   38.6176 H   0  0  0  0  0  0  0  0  0  0  0  0
  1  6  2  0
  2  1  1  0
  2  3  2  0
  3  4  1  0
  4  5  2  0
  6  5  1  0
  7  2  1  0
  8  7  1  0
  9  8  2  0
 10  9  1  0
 10 15  2  0
 11 10  1  0
 12 11  2  0
 12 13  1  0
 13 14  2  0
 14 15  1  0
 15  7  1  0
 16 11  1  0
 17 18  2  0
 17  1  1  0
 19 17  1  0
 20 19  1  0
 21 22  2  0
 21 20  1  0
 23 22  1  0
 24 23  2  0
 25 24  1  0
 25 21  1  0
  3 26  1  0
  5 27  1  0
  8 28  1  0
 13 29  1  0
 16 30  1  0
 16 31  1  0
 20 32  1  0
 20 33  1  0
 22 34  1  0
 23 35  1  0
 24 36  1  0
M  ISO  8  26  14  27  14  28  14  29  14  32   8  33   8  34  14  35  14
M  ISO  1  36  14
M  END
>  <minimizedAffinity>  (1) 
-6.94748783

>  <minimizedRMSD>  (1) 
0.95214051

$$$$
