
     RDKit          3D

 45 48  0  0  0  0  0  0  0  0999 V2000
   45.8000   34.7100   43.8080 C   0  0  0  0  0  0  0  0  0  0  0  0
   46.9680   34.2180   43.2920 C   0  0  0  0  0  0  0  0  0  0  0  0
   47.5410   33.1530   43.9930 C   0  0  0  0  0  0  0  0  0  0  0  0
   46.9260   32.6760   45.1150 N   0  0  0  0  0  0  0  0  0  0  0  0
   45.7750   33.2140   45.5570 C   0  0  0  0  0  0  0  0  0  0  0  0
   45.2140   34.2370   44.8960 N   0  0  0  0  0  0  0  0  0  0  0  0
   47.6320   34.6420   42.1150 N   0  0  0  0  0  0  0  0  0  0  0  0
   48.5210   35.6060   41.9130 C   0  0  0  0  0  0  0  0  0  0  0  0
   48.8530   35.6070   40.5800 N   0  0  0  0  0  0  0  0  0  0  0  0
   48.1670   34.6380   39.9440 C   0  0  0  0  0  0  0  0  0  0  0  0
   48.0950   34.1900   38.6500 C   0  0  0  0  0  0  0  0  0  0  0  0
   47.2800   33.1690   38.3390 N   0  0  0  0  0  0  0  0  0  0  0  0
   46.5100   32.5510   39.2740 C   0  0  0  0  0  0  0  0  0  0  0  0
   46.5900   33.0010   40.5400 N   0  0  0  0  0  0  0  0  0  0  0  0
   47.3830   34.0160   40.9150 C   0  0  0  0  0  0  0  0  0  0  0  0
   48.8750   34.8010   37.6410 N   0  0  0  0  0  0  0  0  0  0  0  0
   45.1860   35.7330   43.0280 C   0  0  0  0  0  0  0  0  0  0  0  0
   45.1780   36.9570   43.1820 O   0  0  0  0  0  0  0  0  0  0  0  0
   44.4490   35.4670   41.8910 O   0  0  0  0  0  0  0  0  0  0  0  0
   43.3850   34.6430   41.7500 C   0  0  0  0  0  0  0  0  0  0  0  0
   42.4240   35.6520   40.9760 C   0  0  0  0  0  0  0  0  0  0  0  0
   41.0660   35.5730   41.5950 C   0  0  0  0  0  0  0  0  0  0  0  0
   40.1500   34.5660   40.9510 C   0  0  0  0  0  0  0  0  0  0  0  0
   39.9990   34.7710   39.4700 C   0  0  0  0  0  0  0  0  0  0  0  0
   41.1590   35.5090   38.8620 C   0  0  0  0  0  0  0  0  0  0  0  0
   42.4280   35.1280   39.5650 C   0  0  0  0  0  0  0  0  0  0  0  0
   48.4813   32.7021   43.6430 H   0  0  0  0  0  0  0  0  0  0  0  0
   45.2935   32.8143   46.4616 H   0  0  0  0  0  0  0  0  0  0  0  0
   48.9222   36.2857   42.6792 H   0  0  0  0  0  0  0  0  0  0  0  0
   45.8470   31.7152   39.0059 H   0  0  0  0  0  0  0  0  0  0  0  0
   48.8184   34.4619   36.6701 H   0  0  0  0  0  0  0  0  0  0  0  0
   49.4997   35.5852   37.8770 H   0  0  0  0  0  0  0  0  0  0  0  0
   43.6242   33.7525   41.1502 H   0  0  0  0  0  0  0  0  0  0  0  0
   42.9835   34.2099   42.6780 H   0  0  0  0  0  0  0  0  0  0  0  0
   42.7332   36.7069   41.0144 H   0  0  0  0  0  0  0  0  0  0  0  0
   41.1854   35.3023   42.6545 H   0  0  0  0  0  0  0  0  0  0  0  0
   40.5983   36.5589   41.4562 H   0  0  0  0  0  0  0  0  0  0  0  0
   40.5578   33.5594   41.1256 H   0  0  0  0  0  0  0  0  0  0  0  0
   39.1550   34.6905   41.4031 H   0  0  0  0  0  0  0  0  0  0  0  0
   39.9161   33.7868   38.9858 H   0  0  0  0  0  0  0  0  0  0  0  0
   39.0982   35.3818   39.3107 H   0  0  0  0  0  0  0  0  0  0  0  0
   41.2395   35.2485   37.7963 H   0  0  0  0  0  0  0  0  0  0  0  0
   40.9962   36.5918   38.9675 H   0  0  0  0  0  0  0  0  0  0  0  0
   42.5157   34.0317   39.5858 H   0  0  0  0  0  0  0  0  0  0  0  0
   43.2804   35.5653   39.0245 H   0  0  0  0  0  0  0  0  0  0  0  0
  1  6  2  0
  2  1  1  0
  2  3  2  0
  3  4  1  0
  4  5  2  0
  6  5  1  0
  7  2  1  0
  8  7  1  0
  9  8  2  0
 10  9  1  0
 10 15  2  0
 11 10  1  0
 12 11  2  0
 12 13  1  0
 13 14  2  0
 14 15  1  0
 15  7  1  0
 16 11  1  0
 17 18  2  0
 17  1  1  0
 19 17  1  0
 20 19  1  0
 21 22  1  0
 21 20  1  0
 23 22  1  0
 24 23  1  0
 25 24  1  0
 25 26  1  0
 26 21  1  0
  3 27  1  0
  5 28  1  0
  8 29  1  0
 13 30  1  0
 16 31  1  0
 16 32  1  0
 20 33  1  0
 20 34  1  0
 21 35  1  0
 22 36  1  0
 22 37  1  0
 23 38  1  0
 23 39  1  0
 24 40  1  0
 24 41  1  0
 25 42  1  0
 25 43  1  0
 26 44  1  0
 26 45  1  0
M  ISO  8  27  14  28  14  29  14  30  14  33   8  34   8  35  13  36  13
M  ISO  8  37  13  38  13  39  13  40  13  41  13  42  13  43  13  44  13
M  ISO  1  45  13
M  END
>  <minimizedAffinity>  (1) 
-6.83806467

>  <minimizedRMSD>  (1) 
1.48070836

$$$$
