
     RDKit          3D

 36 39  0  0  0  0  0  0  0  0999 V2000
   45.7640   34.7860   43.8050 C   0  0  0  0  0  0  0  0  0  0  0  0
   46.9260   34.2780   43.2970 C   0  0  0  0  0  0  0  0  0  0  0  0
   47.4920   33.2180   44.0100 C   0  0  0  0  0  0  0  0  0  0  0  0
   46.8680   32.7620   45.1400 N   0  0  0  0  0  0  0  0  0  0  0  0
   45.7220   33.3150   45.5760 C   0  0  0  0  0  0  0  0  0  0  0  0
   45.1730   34.3350   44.8980 N   0  0  0  0  0  0  0  0  0  0  0  0
   47.5980   34.6890   42.1190 N   0  0  0  0  0  0  0  0  0  0  0  0
   48.4900   35.6460   41.9090 C   0  0  0  0  0  0  0  0  0  0  0  0
   48.8340   35.6300   40.5820 N   0  0  0  0  0  0  0  0  0  0  0  0
   48.1450   34.6500   39.9530 C   0  0  0  0  0  0  0  0  0  0  0  0
   48.0900   34.1930   38.6610 C   0  0  0  0  0  0  0  0  0  0  0  0
   47.2710   33.1670   38.3570 N   0  0  0  0  0  0  0  0  0  0  0  0
   46.4980   32.5730   39.2950 C   0  0  0  0  0  0  0  0  0  0  0  0
   46.5630   33.0320   40.5560 N   0  0  0  0  0  0  0  0  0  0  0  0
   47.3560   34.0480   40.9250 C   0  0  0  0  0  0  0  0  0  0  0  0
   48.8850   34.7870   37.6500 N   0  0  0  0  0  0  0  0  0  0  0  0
   45.1570   35.8010   43.0080 C   0  0  0  0  0  0  0  0  0  0  0  0
   45.2530   37.0310   43.0750 O   0  0  0  0  0  0  0  0  0  0  0  0
   44.2980   35.5290   41.9590 O   0  0  0  0  0  0  0  0  0  0  0  0
   43.5590   34.4090   41.7530 C   0  0  0  0  0  0  0  0  0  0  0  0
   42.3410   35.0590   41.0230 C   0  0  0  0  0  0  0  0  0  0  0  0
   41.8980   35.0720   39.7230 C   0  0  0  0  0  0  0  0  0  0  0  0
   40.7920   35.8200   39.6370 N   0  0  0  0  0  0  0  0  0  0  0  0
   40.4830   36.3070   40.8480 C   0  0  0  0  0  0  0  0  0  0  0  0
   41.4200   35.8420   41.6690 N   0  0  0  0  0  0  0  0  0  0  0  0
   48.4289   32.7549   43.6670 H   0  0  0  0  0  0  0  0  0  0  0  0
   45.2361   32.9324   46.4857 H   0  0  0  0  0  0  0  0  0  0  0  0
   48.8865   36.3352   42.6691 H   0  0  0  0  0  0  0  0  0  0  0  0
   45.8339   31.7364   39.0322 H   0  0  0  0  0  0  0  0  0  0  0  0
   48.8356   34.4356   36.6831 H   0  0  0  0  0  0  0  0  0  0  0  0
   49.5124   35.5703   37.8819 H   0  0  0  0  0  0  0  0  0  0  0  0
   44.0817   33.6800   41.1164 H   0  0  0  0  0  0  0  0  0  0  0  0
   43.3176   33.8262   42.6541 H   0  0  0  0  0  0  0  0  0  0  0  0
   42.3780   34.5487   38.8829 H   0  0  0  0  0  0  0  0  0  0  0  0
   39.6329   36.9550   41.1075 H   0  0  0  0  0  0  0  0  0  0  0  0
   41.4503   36.0473   42.6779 H   0  0  0  0  0  0  0  0  0  0  0  0
  1  6  2  0
  2  1  1  0
  2  3  2  0
  3  4  1  0
  4  5  2  0
  6  5  1  0
  7  2  1  0
  8  7  1  0
  9  8  2  0
 10  9  1  0
 10 15  2  0
 11 10  1  0
 12 11  2  0
 12 13  1  0
 13 14  2  0
 14 15  1  0
 15  7  1  0
 16 11  1  0
 17 18  2  0
 17  1  1  0
 19 17  1  0
 20 19  1  0
 21 25  1  0
 21 20  1  0
 22 21  2  0
 23 22  1  0
 23 24  2  0
 24 25  1  0
  3 26  1  0
  5 27  1  0
  8 28  1  0
 13 29  1  0
 16 30  1  0
 16 31  1  0
 20 32  1  0
 20 33  1  0
 22 34  1  0
 24 35  1  0
 25 36  1  0
M  ISO  8  26  14  27  14  28  14  29  14  32   8  33   8  34  14  35  14
M  ISO  1  36   9
M  END
>  <minimizedAffinity>  (1) 
-6.46156597

>  <minimizedRMSD>  (1) 
0.933611214

$$$$
