
     RDKit          3D

 36 39  0  0  0  0  0  0  0  0999 V2000
   45.7860   34.7840   43.8260 C   0  0  0  0  0  0  0  0  0  0  0  0
   46.9400   34.2680   43.3090 C   0  0  0  0  0  0  0  0  0  0  0  0
   47.4920   33.1940   44.0140 C   0  0  0  0  0  0  0  0  0  0  0  0
   46.8680   32.7370   45.1380 N   0  0  0  0  0  0  0  0  0  0  0  0
   45.7300   33.2980   45.5840 C   0  0  0  0  0  0  0  0  0  0  0  0
   45.1930   34.3300   44.9160 N   0  0  0  0  0  0  0  0  0  0  0  0
   47.6130   34.6790   42.1290 N   0  0  0  0  0  0  0  0  0  0  0  0
   48.5190   35.6290   41.9260 C   0  0  0  0  0  0  0  0  0  0  0  0
   48.8510   35.6200   40.5940 N   0  0  0  0  0  0  0  0  0  0  0  0
   48.1490   34.6590   39.9620 C   0  0  0  0  0  0  0  0  0  0  0  0
   48.0790   34.2090   38.6680 C   0  0  0  0  0  0  0  0  0  0  0  0
   47.2510   33.1960   38.3570 N   0  0  0  0  0  0  0  0  0  0  0  0
   46.4680   32.5940   39.2950 C   0  0  0  0  0  0  0  0  0  0  0  0
   46.5510   33.0490   40.5590 N   0  0  0  0  0  0  0  0  0  0  0  0
   47.3540   34.0490   40.9330 C   0  0  0  0  0  0  0  0  0  0  0  0
   48.8620   34.8070   37.6580 N   0  0  0  0  0  0  0  0  0  0  0  0
   45.1930   35.8220   43.0480 C   0  0  0  0  0  0  0  0  0  0  0  0
   45.2410   37.0500   43.1700 O   0  0  0  0  0  0  0  0  0  0  0  0
   44.4070   35.5580   41.9460 O   0  0  0  0  0  0  0  0  0  0  0  0
   43.4610   34.6160   41.7670 C   0  0  0  0  0  0  0  0  0  0  0  0
   42.0820   34.9230   41.3470 C   0  0  0  0  0  0  0  0  0  0  0  0
   41.2050   33.8750   41.1730 C   0  0  0  0  0  0  0  0  0  0  0  0
   39.9830   34.3880   40.7920 C   0  0  0  0  0  0  0  0  0  0  0  0
   40.1390   35.7170   40.7410 N   0  0  0  0  0  0  0  0  0  0  0  0
   41.3700   36.0130   41.0690 N   0  0  0  0  0  0  0  0  0  0  0  0
   48.4220   32.7213   43.6652 H   0  0  0  0  0  0  0  0  0  0  0  0
   45.2422   32.9128   46.4916 H   0  0  0  0  0  0  0  0  0  0  0  0
   48.9308   36.3041   42.6907 H   0  0  0  0  0  0  0  0  0  0  0  0
   45.7931   31.7670   39.0294 H   0  0  0  0  0  0  0  0  0  0  0  0
   48.8031   34.4627   36.6890 H   0  0  0  0  0  0  0  0  0  0  0  0
   49.4925   35.5878   37.8897 H   0  0  0  0  0  0  0  0  0  0  0  0
   43.8610   33.9274   41.0082 H   0  0  0  0  0  0  0  0  0  0  0  0
   43.3012   34.2707   42.7991 H   0  0  0  0  0  0  0  0  0  0  0  0
   41.4397   32.8096   41.3141 H   0  0  0  0  0  0  0  0  0  0  0  0
   39.0661   33.8206   40.5742 H   0  0  0  0  0  0  0  0  0  0  0  0
   39.4081   36.3960   40.4850 H   0  0  0  0  0  0  0  0  0  0  0  0
  1  6  2  0
  2  1  1  0
  2  3  2  0
  3  4  1  0
  4  5  2  0
  6  5  1  0
  7  2  1  0
  8  7  1  0
  9  8  2  0
 10  9  1  0
 10 15  2  0
 11 10  1  0
 12 11  2  0
 12 13  1  0
 13 14  2  0
 14 15  1  0
 15  7  1  0
 16 11  1  0
 17 18  2  0
 17  1  1  0
 19 17  1  0
 20 19  1  0
 21 20  1  0
 22 21  1  0
 23 22  2  0
 24 23  1  0
 24 25  1  0
 25 21  2  0
  3 26  1  0
  5 27  1  0
  8 28  1  0
 13 29  1  0
 16 30  1  0
 16 31  1  0
 20 32  1  0
 20 33  1  0
 22 34  1  0
 23 35  1  0
 24 36  1  0
M  ISO  8  26  14  27  14  28  14  29  14  32   8  33   8  34  14  35  14
M  ISO  1  36   9
M  END
>  <minimizedAffinity>  (1) 
-6.21541119

>  <minimizedRMSD>  (1) 
1.04226017

$$$$
