
     RDKit          3D

 41 44  0  0  0  0  0  0  0  0999 V2000
   45.8020   34.7530   43.8310 C   0  0  0  0  0  0  0  0  0  0  0  0
   46.9600   34.2430   43.3100 C   0  0  0  0  0  0  0  0  0  0  0  0
   47.5180   33.1720   44.0140 C   0  0  0  0  0  0  0  0  0  0  0  0
   46.9020   32.7060   45.1370 N   0  0  0  0  0  0  0  0  0  0  0  0
   45.7620   33.2630   45.5840 C   0  0  0  0  0  0  0  0  0  0  0  0
   45.2130   34.2930   44.9220 N   0  0  0  0  0  0  0  0  0  0  0  0
   47.6280   34.6620   42.1330 N   0  0  0  0  0  0  0  0  0  0  0  0
   48.5250   35.6150   41.9250 C   0  0  0  0  0  0  0  0  0  0  0  0
   48.8520   35.6090   40.5910 N   0  0  0  0  0  0  0  0  0  0  0  0
   48.1570   34.6450   39.9610 C   0  0  0  0  0  0  0  0  0  0  0  0
   48.0790   34.1980   38.6680 C   0  0  0  0  0  0  0  0  0  0  0  0
   47.2550   33.1840   38.3590 N   0  0  0  0  0  0  0  0  0  0  0  0
   46.4810   32.5770   39.2950 C   0  0  0  0  0  0  0  0  0  0  0  0
   46.5690   33.0280   40.5610 N   0  0  0  0  0  0  0  0  0  0  0  0
   47.3730   34.0360   40.9350 C   0  0  0  0  0  0  0  0  0  0  0  0
   48.8690   34.7990   37.6490 N   0  0  0  0  0  0  0  0  0  0  0  0
   45.1970   35.7850   43.0510 C   0  0  0  0  0  0  0  0  0  0  0  0
   45.2190   37.0150   43.2020 O   0  0  0  0  0  0  0  0  0  0  0  0
   44.4420   35.5090   41.9270 O   0  0  0  0  0  0  0  0  0  0  0  0
   43.4280   34.6460   41.7560 C   0  0  0  0  0  0  0  0  0  0  0  0
   42.4770   35.5970   41.0100 N   0  0  0  0  0  0  0  0  0  0  0  0
   42.3870   35.1280   39.6490 C   0  0  0  0  0  0  0  0  0  0  0  0
   41.1880   34.2410   39.5470 C   0  0  0  0  0  0  0  0  0  0  0  0
   40.2670   34.7990   40.6000 C   0  0  0  0  0  0  0  0  0  0  0  0
   41.1690   35.4780   41.5890 C   0  0  0  0  0  0  0  0  0  0  0  0
   48.4510   32.7069   43.6629 H   0  0  0  0  0  0  0  0  0  0  0  0
   45.2796   32.8739   46.4928 H   0  0  0  0  0  0  0  0  0  0  0  0
   48.9360   36.2927   42.6877 H   0  0  0  0  0  0  0  0  0  0  0  0
   45.8078   31.7486   39.0294 H   0  0  0  0  0  0  0  0  0  0  0  0
   48.8051   34.4578   36.6793 H   0  0  0  0  0  0  0  0  0  0  0  0
   49.5049   35.5754   37.8809 H   0  0  0  0  0  0  0  0  0  0  0  0
   43.7159   33.7777   41.1451 H   0  0  0  0  0  0  0  0  0  0  0  0
   43.0302   34.1752   42.6671 H   0  0  0  0  0  0  0  0  0  0  0  0
   42.2786   35.9830   38.9655 H   0  0  0  0  0  0  0  0  0  0  0  0
   43.2971   34.5752   39.3732 H   0  0  0  0  0  0  0  0  0  0  0  0
   40.7320   34.3051   38.5480 H   0  0  0  0  0  0  0  0  0  0  0  0
   41.4214   33.1761   39.6937 H   0  0  0  0  0  0  0  0  0  0  0  0
   39.5666   35.5220   40.1565 H   0  0  0  0  0  0  0  0  0  0  0  0
   39.6560   34.0146   41.0705 H   0  0  0  0  0  0  0  0  0  0  0  0
   41.2248   34.8803   42.5107 H   0  0  0  0  0  0  0  0  0  0  0  0
   40.7746   36.4752   41.8341 H   0  0  0  0  0  0  0  0  0  0  0  0
  1  6  2  0
  2  1  1  0
  2  3  2  0
  3  4  1  0
  4  5  2  0
  6  5  1  0
  7  2  1  0
  8  7  1  0
  9  8  2  0
 10  9  1  0
 10 15  2  0
 11 10  1  0
 12 11  2  0
 12 13  1  0
 13 14  2  0
 14 15  1  0
 15  7  1  0
 16 11  1  0
 17 18  2  0
 17  1  1  0
 19 17  1  0
 20 19  1  0
 21 25  1  0
 21 20  1  0
 22 21  1  0
 23 22  1  0
 23 24  1  0
 24 25  1  0
  3 26  1  0
  5 27  1  0
  8 28  1  0
 13 29  1  0
 16 30  1  0
 16 31  1  0
 20 32  1  0
 20 33  1  0
 22 34  1  0
 22 35  1  0
 23 36  1  0
 23 37  1  0
 24 38  1  0
 24 39  1  0
 25 40  1  0
 25 41  1  0
M  ISO  8  26  14  27  14  28  14  29  14  32   8  33   8  34  13  35  13
M  ISO  6  36  13  37  13  38  13  39  13  40  13  41  13
M  END
>  <minimizedAffinity>  (1) 
-6.27054405

>  <minimizedRMSD>  (1) 
0.535058439

$$$$
