
     RDKit          3D

 36 39  0  0  0  0  0  0  0  0999 V2000
   45.7850   34.7440   43.8050 C   0  0  0  0  0  0  0  0  0  0  0  0
   46.9490   34.2480   43.2920 C   0  0  0  0  0  0  0  0  0  0  0  0
   47.5210   33.1880   44.0020 C   0  0  0  0  0  0  0  0  0  0  0  0
   46.9000   32.7240   45.1290 N   0  0  0  0  0  0  0  0  0  0  0  0
   45.7470   33.2680   45.5710 C   0  0  0  0  0  0  0  0  0  0  0  0
   45.1930   34.2880   44.8950 N   0  0  0  0  0  0  0  0  0  0  0  0
   47.6120   34.6670   42.1150 N   0  0  0  0  0  0  0  0  0  0  0  0
   48.4960   35.6350   41.9080 C   0  0  0  0  0  0  0  0  0  0  0  0
   48.8340   35.6250   40.5760 N   0  0  0  0  0  0  0  0  0  0  0  0
   48.1560   34.6440   39.9480 C   0  0  0  0  0  0  0  0  0  0  0  0
   48.1020   34.1840   38.6590 C   0  0  0  0  0  0  0  0  0  0  0  0
   47.2970   33.1480   38.3540 N   0  0  0  0  0  0  0  0  0  0  0  0
   46.5310   32.5400   39.2890 C   0  0  0  0  0  0  0  0  0  0  0  0
   46.5900   33.0000   40.5510 N   0  0  0  0  0  0  0  0  0  0  0  0
   47.3720   34.0280   40.9200 C   0  0  0  0  0  0  0  0  0  0  0  0
   48.8850   34.7890   37.6430 N   0  0  0  0  0  0  0  0  0  0  0  0
   45.1650   35.7560   43.0120 C   0  0  0  0  0  0  0  0  0  0  0  0
   45.2340   36.9900   43.0980 O   0  0  0  0  0  0  0  0  0  0  0  0
   44.3260   35.4770   41.9500 O   0  0  0  0  0  0  0  0  0  0  0  0
   43.5710   34.3730   41.7390 C   0  0  0  0  0  0  0  0  0  0  0  0
   42.3710   35.0270   41.0750 N   0  0  0  0  0  0  0  0  0  0  0  0
   41.2720   35.6230   41.5520 C   0  0  0  0  0  0  0  0  0  0  0  0
   40.4390   36.0450   40.5470 C   0  0  0  0  0  0  0  0  0  0  0  0
   41.0490   35.6940   39.4130 N   0  0  0  0  0  0  0  0  0  0  0  0
   42.2070   35.0830   39.7160 C   0  0  0  0  0  0  0  0  0  0  0  0
   48.4609   32.7318   43.6578 H   0  0  0  0  0  0  0  0  0  0  0  0
   45.2638   32.8786   46.4792 H   0  0  0  0  0  0  0  0  0  0  0  0
   48.8893   36.3246   42.6694 H   0  0  0  0  0  0  0  0  0  0  0  0
   45.8792   31.6943   39.0245 H   0  0  0  0  0  0  0  0  0  0  0  0
   48.8371   34.4355   36.6767 H   0  0  0  0  0  0  0  0  0  0  0  0
   49.5015   35.5819   37.8714 H   0  0  0  0  0  0  0  0  0  0  0  0
   44.0697   33.6538   41.0726 H   0  0  0  0  0  0  0  0  0  0  0  0
   43.3476   33.7751   42.6349 H   0  0  0  0  0  0  0  0  0  0  0  0
   41.0614   35.7585   42.6231 H   0  0  0  0  0  0  0  0  0  0  0  0
   39.4741   36.5623   40.6532 H   0  0  0  0  0  0  0  0  0  0  0  0
   42.9203   34.6852   38.9791 H   0  0  0  0  0  0  0  0  0  0  0  0
  1  6  2  0
  2  1  1  0
  2  3  2  0
  3  4  1  0
  4  5  2  0
  6  5  1  0
  7  2  1  0
  8  7  1  0
  9  8  2  0
 10  9  1  0
 10 15  2  0
 11 10  1  0
 12 11  2  0
 12 13  1  0
 13 14  2  0
 14 15  1  0
 15  7  1  0
 16 11  1  0
 17 18  2  0
 17  1  1  0
 19 17  1  0
 20 19  1  0
 21 22  1  0
 21 20  1  0
 23 22  2  0
 24 25  2  0
 24 23  1  0
 25 21  1  0
  3 26  1  0
  5 27  1  0
  8 28  1  0
 13 29  1  0
 16 30  1  0
 16 31  1  0
 20 32  1  0
 20 33  1  0
 22 34  1  0
 23 35  1  0
 25 36  1  0
M  ISO  8  26  14  27  14  28  14  29  14  32   8  33   8  34  14  35  14
M  ISO  1  36  14
M  END
>  <minimizedAffinity>  (1) 
-6.26788139

>  <minimizedRMSD>  (1) 
0.851419449

$$$$
