
     RDKit          3D

 34 37  0  0  0  0  0  0  0  0999 V2000
   45.7850   34.7320   43.8110 C   0  0  0  0  0  0  0  0  0  0  0  0
   46.9500   34.2400   43.2960 C   0  0  0  0  0  0  0  0  0  0  0  0
   47.5240   33.1790   44.0040 C   0  0  0  0  0  0  0  0  0  0  0  0
   46.9100   32.7130   45.1270 N   0  0  0  0  0  0  0  0  0  0  0  0
   45.7530   33.2550   45.5740 C   0  0  0  0  0  0  0  0  0  0  0  0
   45.1960   34.2730   44.9010 N   0  0  0  0  0  0  0  0  0  0  0  0
   47.6140   34.6630   42.1170 N   0  0  0  0  0  0  0  0  0  0  0  0
   48.4950   35.6340   41.9110 C   0  0  0  0  0  0  0  0  0  0  0  0
   48.8300   35.6270   40.5780 N   0  0  0  0  0  0  0  0  0  0  0  0
   48.1490   34.6390   39.9550 C   0  0  0  0  0  0  0  0  0  0  0  0
   48.1020   34.1880   38.6590 C   0  0  0  0  0  0  0  0  0  0  0  0
   47.2980   33.1500   38.3550 N   0  0  0  0  0  0  0  0  0  0  0  0
   46.5320   32.5320   39.2910 C   0  0  0  0  0  0  0  0  0  0  0  0
   46.6010   32.9990   40.5530 N   0  0  0  0  0  0  0  0  0  0  0  0
   47.3750   34.0220   40.9240 C   0  0  0  0  0  0  0  0  0  0  0  0
   48.8770   34.7980   37.6520 N   0  0  0  0  0  0  0  0  0  0  0  0
   45.1600   35.7460   43.0170 C   0  0  0  0  0  0  0  0  0  0  0  0
   45.2390   36.9800   43.0910 O   0  0  0  0  0  0  0  0  0  0  0  0
   44.3060   35.4380   41.9750 O   0  0  0  0  0  0  0  0  0  0  0  0
   43.5710   34.3440   41.7370 C   0  0  0  0  0  0  0  0  0  0  0  0
   42.3430   35.0510   41.0730 C   0  0  0  0  0  0  0  0  0  0  0  0
   42.1360   35.2150   39.7480 N   0  0  0  0  0  0  0  0  0  0  0  0
   41.0140   35.8360   39.5640 O   0  0  0  0  0  0  0  0  0  0  0  0
   40.4440   36.1040   40.7110 C   0  0  0  0  0  0  0  0  0  0  0  0
   41.2680   35.6170   41.6450 N   0  0  0  0  0  0  0  0  0  0  0  0
   48.4636   32.7246   43.6567 H   0  0  0  0  0  0  0  0  0  0  0  0
   45.2728   32.8634   46.4829 H   0  0  0  0  0  0  0  0  0  0  0  0
   48.8880   36.3231   42.6730 H   0  0  0  0  0  0  0  0  0  0  0  0
   45.8815   31.6844   39.0293 H   0  0  0  0  0  0  0  0  0  0  0  0
   48.8312   34.4485   36.6842 H   0  0  0  0  0  0  0  0  0  0  0  0
   49.4891   35.5932   37.8840 H   0  0  0  0  0  0  0  0  0  0  0  0
   44.0721   33.6460   41.0502 H   0  0  0  0  0  0  0  0  0  0  0  0
   43.3513   33.7096   42.6084 H   0  0  0  0  0  0  0  0  0  0  0  0
   39.4871   36.6217   40.8731 H   0  0  0  0  0  0  0  0  0  0  0  0
  1  6  2  0
  2  1  1  0
  2  3  2  0
  3  4  1  0
  4  5  2  0
  6  5  1  0
  7  2  1  0
  8  7  1  0
  9  8  2  0
 10  9  1  0
 10 15  2  0
 11 10  1  0
 12 11  2  0
 12 13  1  0
 13 14  2  0
 14 15  1  0
 15  7  1  0
 16 11  1  0
 17 18  2  0
 17  1  1  0
 19 17  1  0
 20 19  1  0
 21 25  1  0
 21 20  1  0
 22 21  2  0
 23 22  1  0
 23 24  1  0
 24 25  2  0
  3 26  1  0
  5 27  1  0
  8 28  1  0
 13 29  1  0
 16 30  1  0
 16 31  1  0
 20 32  1  0
 20 33  1  0
 24 34  1  0
M  ISO  7  26  14  27  14  28  14  29  14  32   8  33   8  34  14
M  END
>  <minimizedAffinity>  (1) 
-6.27241135

>  <minimizedRMSD>  (1) 
0.994009018

$$$$
