
     RDKit          3D

 31 33  0  0  0  0  0  0  0  0999 V2000
   45.7740   34.8450   43.8640 C   0  0  0  0  0  0  0  0  0  0  0  0
   46.9230   34.3040   43.3490 C   0  0  0  0  0  0  0  0  0  0  0  0
   47.4610   33.2220   44.0540 C   0  0  0  0  0  0  0  0  0  0  0  0
   46.8370   32.7710   45.1820 N   0  0  0  0  0  0  0  0  0  0  0  0
   45.7120   33.3540   45.6250 C   0  0  0  0  0  0  0  0  0  0  0  0
   45.1840   34.3930   44.9620 N   0  0  0  0  0  0  0  0  0  0  0  0
   47.6020   34.7040   42.1720 N   0  0  0  0  0  0  0  0  0  0  0  0
   48.5350   35.6230   41.9650 C   0  0  0  0  0  0  0  0  0  0  0  0
   48.8590   35.6100   40.6320 N   0  0  0  0  0  0  0  0  0  0  0  0
   48.1280   34.6800   39.9970 C   0  0  0  0  0  0  0  0  0  0  0  0
   48.0360   34.2430   38.7020 C   0  0  0  0  0  0  0  0  0  0  0  0
   47.1680   33.2620   38.3910 N   0  0  0  0  0  0  0  0  0  0  0  0
   46.3700   32.6790   39.3290 C   0  0  0  0  0  0  0  0  0  0  0  0
   46.4750   33.1180   40.5920 N   0  0  0  0  0  0  0  0  0  0  0  0
   47.3160   34.0900   40.9710 C   0  0  0  0  0  0  0  0  0  0  0  0
   48.8530   34.8080   37.6860 N   0  0  0  0  0  0  0  0  0  0  0  0
   45.2030   35.8880   43.0880 C   0  0  0  0  0  0  0  0  0  0  0  0
   45.2770   37.1160   43.2330 O   0  0  0  0  0  0  0  0  0  0  0  0
   44.4260   35.6100   41.9800 O   0  0  0  0  0  0  0  0  0  0  0  0
   43.4390   34.7290   41.8230 C   0  0  0  0  0  0  0  0  0  0  0  0
   43.3510   33.3730   41.9060 N   0  0  0  0  0  0  0  0  0  0  0  0
   48.3829   32.7365   43.7012 H   0  0  0  0  0  0  0  0  0  0  0  0
   45.2216   32.9781   46.5350 H   0  0  0  0  0  0  0  0  0  0  0  0
   48.9732   36.2815   42.7294 H   0  0  0  0  0  0  0  0  0  0  0  0
   45.6657   31.8779   39.0604 H   0  0  0  0  0  0  0  0  0  0  0  0
   48.7749   34.4713   36.7157 H   0  0  0  0  0  0  0  0  0  0  0  0
   49.5233   35.5543   37.9198 H   0  0  0  0  0  0  0  0  0  0  0  0
   43.0833   34.9369   40.8031 H   0  0  0  0  0  0  0  0  0  0  0  0
   42.9770   34.9199   42.8029 H   0  0  0  0  0  0  0  0  0  0  0  0
   43.3326   33.0901   42.8962 H   0  0  0  0  0  0  0  0  0  0  0  0
   42.4877   33.0559   41.4423 H   0  0  0  0  0  0  0  0  0  0  0  0
  1  6  2  0
  2  1  1  0
  2  3  2  0
  3  4  1  0
  4  5  2  0
  6  5  1  0
  7  2  1  0
  8  7  1  0
  9  8  2  0
 10  9  1  0
 10 15  2  0
 11 10  1  0
 12 11  2  0
 12 13  1  0
 13 14  2  0
 14 15  1  0
 15  7  1  0
 16 11  1  0
 17 18  2  0
 17  1  1  0
 19 17  1  0
 20 21  1  0
 20 19  1  0
  3 22  1  0
  5 23  1  0
  8 24  1  0
 13 25  1  0
 16 26  1  0
 16 27  1  0
 20 28  1  0
 20 29  1  0
 21 30  1  0
 21 31  1  0
M  ISO  8  22  14  23  14  24  14  25  14  28   8  29   8  30   5  31   5
M  END
>  <minimizedAffinity>  (1) 
-5.5201745

>  <minimizedRMSD>  (1) 
0.0637331679

$$$$
