
     RDKit          3D

 30 32  0  0  0  0  0  0  0  0999 V2000
   45.7780   34.8430   43.8780 C   0  0  0  0  0  0  0  0  0  0  0  0
   46.9240   34.2990   43.3580 C   0  0  0  0  0  0  0  0  0  0  0  0
   47.4630   33.2150   44.0590 C   0  0  0  0  0  0  0  0  0  0  0  0
   46.8390   32.7650   45.1860 N   0  0  0  0  0  0  0  0  0  0  0  0
   45.7110   33.3500   45.6370 C   0  0  0  0  0  0  0  0  0  0  0  0
   45.1860   34.3930   44.9750 N   0  0  0  0  0  0  0  0  0  0  0  0
   47.6020   34.7020   42.1800 N   0  0  0  0  0  0  0  0  0  0  0  0
   48.5340   35.6220   41.9760 C   0  0  0  0  0  0  0  0  0  0  0  0
   48.8610   35.6140   40.6420 N   0  0  0  0  0  0  0  0  0  0  0  0
   48.1270   34.6820   40.0080 C   0  0  0  0  0  0  0  0  0  0  0  0
   48.0340   34.2460   38.7110 C   0  0  0  0  0  0  0  0  0  0  0  0
   47.1660   33.2570   38.3990 N   0  0  0  0  0  0  0  0  0  0  0  0
   46.3730   32.6760   39.3390 C   0  0  0  0  0  0  0  0  0  0  0  0
   46.4730   33.1120   40.6060 N   0  0  0  0  0  0  0  0  0  0  0  0
   47.3150   34.0890   40.9800 C   0  0  0  0  0  0  0  0  0  0  0  0
   48.8370   34.8210   37.7030 N   0  0  0  0  0  0  0  0  0  0  0  0
   45.2060   35.8860   43.1030 C   0  0  0  0  0  0  0  0  0  0  0  0
   45.2880   37.1130   43.2300 O   0  0  0  0  0  0  0  0  0  0  0  0
   44.4120   35.6100   42.0050 O   0  0  0  0  0  0  0  0  0  0  0  0
   43.4690   34.6840   41.8320 C   0  0  0  0  0  0  0  0  0  0  0  0
   43.4370   33.3840   41.9840 O   0  0  0  0  0  0  0  0  0  0  0  0
   48.3836   32.7287   43.7041 H   0  0  0  0  0  0  0  0  0  0  0  0
   45.2213   32.9728   46.5469 H   0  0  0  0  0  0  0  0  0  0  0  0
   48.9704   36.2788   42.7429 H   0  0  0  0  0  0  0  0  0  0  0  0
   45.6708   31.8732   39.0700 H   0  0  0  0  0  0  0  0  0  0  0  0
   48.7610   34.4878   36.7314 H   0  0  0  0  0  0  0  0  0  0  0  0
   49.4991   35.5739   37.9389 H   0  0  0  0  0  0  0  0  0  0  0  0
   43.1770   34.8192   40.7801 H   0  0  0  0  0  0  0  0  0  0  0  0
   42.9238   34.9129   42.7595 H   0  0  0  0  0  0  0  0  0  0  0  0
   43.4316   33.1647   42.9494 H   0  0  0  0  0  0  0  0  0  0  0  0
  1  6  2  0
  2  1  1  0
  2  3  2  0
  3  4  1  0
  4  5  2  0
  6  5  1  0
  7  2  1  0
  8  7  1  0
  9  8  2  0
 10  9  1  0
 10 15  2  0
 11 10  1  0
 12 11  2  0
 12 13  1  0
 13 14  2  0
 14 15  1  0
 15  7  1  0
 16 11  1  0
 17 18  2  0
 17  1  1  0
 19 17  1  0
 20 21  1  0
 20 19  1  0
  3 22  1  0
  5 23  1  0
  8 24  1  0
 13 25  1  0
 16 26  1  0
 16 27  1  0
 20 28  1  0
 20 29  1  0
 21 30  1  0
M  ISO  7  22  14  23  14  24  14  25  14  28   8  29   8  30   3
M  END
>  <minimizedAffinity>  (1) 
-5.47543049

>  <minimizedRMSD>  (1) 
0.0793416351

$$$$
