
     RDKit          3D

 24 25  0  0  1  0  0  0  0  0999 V2000
   44.6220   35.5420   43.2780 C   0  0  1  0  0  0  0  0  0  0  0  0
   45.3850   34.5880   44.1170 C   0  0  0  0  0  0  0  0  0  0  0  0
   46.4500   33.9180   43.4750 C   0  0  0  0  0  0  0  0  0  0  0  0
   47.2300   33.0050   44.1780 C   0  0  0  0  0  0  0  0  0  0  0  0
   46.8950   32.8130   45.4950 N   0  0  0  0  0  0  0  0  0  0  0  0
   45.8710   33.4660   46.0970 C   0  0  0  0  0  0  0  0  0  0  0  0
   45.1300   34.3410   45.4040 N   0  0  0  0  0  0  0  0  0  0  0  0
   45.1520   36.9560   43.3740 C   0  0  0  0  0  0  0  0  0  0  0  0
   44.5600   35.0950   41.8410 C   0  0  0  0  0  0  0  0  0  0  0  0
   43.2040   35.1840   41.2670 C   0  0  0  0  0  0  0  0  0  0  0  0
   41.9990   35.4370   41.7860 N   0  0  0  0  0  0  0  0  0  0  0  0
   41.1320   35.3970   40.8400 O   0  0  0  0  0  0  0  0  0  0  0  0
   41.7120   35.1290   39.7080 C   0  0  0  0  0  0  0  0  0  0  0  0
   43.0470   34.9830   39.9360 N   0  0  0  0  0  0  0  0  0  0  0  0
   43.5985   35.5495   43.6810 H   0  0  0  0  0  0  0  0  0  0  0  0
   46.6636   34.1189   42.4148 H   0  0  0  0  0  0  0  0  0  0  0  0
   48.0662   32.4685   43.7058 H   0  0  0  0  0  0  0  0  0  0  0  0
   45.6478   33.2770   47.1574 H   0  0  0  0  0  0  0  0  0  0  0  0
   45.2573   37.2370   44.4323 H   0  0  0  0  0  0  0  0  0  0  0  0
   46.1330   37.0142   42.8798 H   0  0  0  0  0  0  0  0  0  0  0  0
   44.4510   37.6447   42.8798 H   0  0  0  0  0  0  0  0  0  0  0  0
   45.2342   35.7297   41.2472 H   0  0  0  0  0  0  0  0  0  0  0  0
   44.8603   34.0372   41.8125 H   0  0  0  0  0  0  0  0  0  0  0  0
   41.2108   35.0361   38.7332 H   0  0  0  0  0  0  0  0  0  0  0  0
  1  8  1  0
  1  2  1  0
  2  7  1  0
  3  2  2  0
  3  4  1  0
  4  5  2  0
  5  6  1  0
  7  6  2  0
  9  1  1  0
 10 11  2  0
 10  9  1  0
 12 11  1  0
 13 14  2  0
 13 12  1  0
 14 10  1  0
  1 15  1  1
  3 16  1  0
  4 17  1  0
  6 18  1  0
  8 19  1  0
  8 20  1  0
  8 21  1  0
  9 22  1  0
  9 23  1  0
 13 24  1  0
M  ISO  8  15   8  16  14  17  14  18  14  19   8  20   8  21   8  22   8
M  ISO  2  23   8  24  14
M  END
>  <minimizedAffinity>  (1) 
-3.99158525

>  <minimizedRMSD>  (1) 
1.62986135

$$$$
