
     RDKit          3D

 39 40  0  0  1  0  0  0  0  0999 V2000
   44.2550   35.1220   42.5940 C   0  0  2  0  0  0  0  0  0  0  0  0
   45.4360   34.8550   41.8250 N   0  0  0  0  0  0  0  0  0  0  0  0
   46.6980   35.3530   42.0060 C   0  0  0  0  0  0  0  0  0  0  0  0
   47.7930   35.1090   41.2120 C   0  0  0  0  0  0  0  0  0  0  0  0
   49.0960   35.7180   41.5320 C   0  0  0  0  0  0  0  0  0  0  0  0
   47.6060   34.2810   40.1260 C   0  0  0  0  0  0  0  0  0  0  0  0
   48.6020   34.0500   39.3940 O   0  0  0  0  0  0  0  0  0  0  0  0
   46.4080   33.7670   39.8970 N   0  0  0  0  0  0  0  0  0  0  0  0
   45.4090   34.0480   40.7040 C   0  0  0  0  0  0  0  0  0  0  0  0
   44.2840   33.5220   40.4260 O   0  0  0  0  0  0  0  0  0  0  0  0
   43.3620   35.8440   41.7160 N   0  0  0  0  0  0  0  0  0  0  0  0
   41.9820   35.4690   41.6450 C   0  0  0  0  0  0  0  0  0  0  0  0
   41.6330   34.2140   41.8150 N   0  0  0  0  0  0  0  0  0  0  0  0
   40.8600   36.3200   41.3820 N   0  0  0  0  0  0  0  0  0  0  0  0
   42.2940   33.4470   42.0100 H   0  0  0  0  0  0  0  0  0  0  0  0
   44.3360   35.6990   43.9560 C   0  0  1  0  0  0  0  0  0  0  0  0
   44.8180   34.7740   44.9930 C   0  0  0  0  0  0  0  0  0  0  0  0
   45.5810   33.7260   44.5510 C   0  0  0  0  0  0  0  0  0  0  0  0
   46.0310   32.7660   45.4510 C   0  0  0  0  0  0  0  0  0  0  0  0
   45.6680   32.9390   46.7860 N   0  0  0  0  0  0  0  0  0  0  0  0
   44.9260   33.9730   47.1880 C   0  0  0  0  0  0  0  0  0  0  0  0
   44.5180   34.8600   46.3040 N   0  0  0  0  0  0  0  0  0  0  0  0
   45.1010   37.0150   43.9920 C   0  0  0  0  0  0  0  0  0  0  0  0
   43.8890   34.1337   42.9091 H   0  0  0  0  0  0  0  0  0  0  0  0
   46.8509   36.0135   42.8722 H   0  0  0  0  0  0  0  0  0  0  0  0
   49.2162   35.7742   42.6240 H   0  0  0  0  0  0  0  0  0  0  0  0
   49.9026   35.1036   41.1055 H   0  0  0  0  0  0  0  0  0  0  0  0
   49.1420   36.7309   41.1055 H   0  0  0  0  0  0  0  0  0  0  0  0
   46.2586   33.1477   39.0876 H   0  0  0  0  0  0  0  0  0  0  0  0
   43.7166   36.6241   41.1445 H   0  0  0  0  0  0  0  0  0  0  0  0
   39.9089   35.9254   41.3573 H   0  0  0  0  0  0  0  0  0  0  0  0
   41.0044   37.3265   41.2177 H   0  0  0  0  0  0  0  0  0  0  0  0
   43.2872   35.9074   44.2139 H   0  0  0  0  0  0  0  0  0  0  0  0
   45.8378   33.6437   43.4846 H   0  0  0  0  0  0  0  0  0  0  0  0
   46.6433   31.9121   45.1256 H   0  0  0  0  0  0  0  0  0  0  0  0
   44.6574   34.0835   48.2490 H   0  0  0  0  0  0  0  0  0  0  0  0
   45.2729   37.3107   45.0375 H   0  0  0  0  0  0  0  0  0  0  0  0
   46.0679   36.8911   43.4823 H   0  0  0  0  0  0  0  0  0  0  0  0
   44.5149   37.7939   43.4823 H   0  0  0  0  0  0  0  0  0  0  0  0
  1 16  1  0
  2  3  1  0
  2  1  1  0
  4  5  1  0
  4  3  2  0
  6  4  1  0
  7  6  2  0
  8  6  1  0
  8  9  1  0
  9  2  1  0
 10  9  2  0
 11  1  1  0
 12 11  1  0
 12 13  2  0
 13 15  1  0
 14 12  1  0
 16 23  1  0
 16 17  1  0
 17 22  1  0
 18 17  2  0
 18 19  1  0
 19 20  2  0
 20 21  1  0
 22 21  2  0
  1 24  1  1
  3 25  1  0
  5 26  1  0
  5 27  1  0
  5 28  1  0
  8 29  1  0
 11 30  1  0
 14 31  1  0
 14 32  1  0
 16 33  1  1
 18 34  1  0
 19 35  1  0
 21 36  1  0
 23 37  1  0
 23 38  1  0
 23 39  1  0
M  ISO  8  24   8  25  14  26   8  27   8  28   8  29   9  33   8  34  14
M  ISO  5  35  14  36  14  37   8  38   8  39   8
M  END
>  <minimizedAffinity>  (1) 
-5.91478491

>  <minimizedRMSD>  (1) 
1.17863822

$$$$
