
     RDKit          3D

 40 42  0  0  1  0  0  0  0  0999 V2000
   44.6520   34.4410   42.4750 C   0  0  2  0  0  0  0  0  0  0  0  0
   45.9410   34.5510   41.7700 C   0  0  0  0  0  0  0  0  0  0  0  0
   47.0520   35.2240   42.2890 C   0  0  0  0  0  0  0  0  0  0  0  0
   48.0910   35.1830   41.4370 N   0  0  0  0  0  0  0  0  0  0  0  0
   47.7030   34.4970   40.3540 C   0  0  0  0  0  0  0  0  0  0  0  0
   48.2940   34.1150   39.1500 C   0  0  0  0  0  0  0  0  0  0  0  0
   47.6400   33.3860   38.1790 C   0  0  0  0  0  0  0  0  0  0  0  0
   46.3220   33.0190   38.4240 C   0  0  0  0  0  0  0  0  0  0  0  0
   45.6820   33.3710   39.6020 C   0  0  0  0  0  0  0  0  0  0  0  0
   46.4180   34.1010   40.5170 C   0  0  0  0  0  0  0  0  0  0  0  0
   43.8160   35.4100   41.8250 N   0  0  0  0  0  0  0  0  0  0  0  0
   42.4150   35.1460   41.6860 C   0  0  0  0  0  0  0  0  0  0  0  0
   41.9880   33.9080   41.5250 N   0  0  0  0  0  0  0  0  0  0  0  0
   41.3350   36.0920   41.6770 N   0  0  0  0  0  0  0  0  0  0  0  0
   42.6140   33.0830   41.4850 H   0  0  0  0  0  0  0  0  0  0  0  0
   44.5910   34.4600   43.9540 C   0  0  1  0  0  0  0  0  0  0  0  0
   45.4650   33.4870   44.6220 C   0  0  0  0  0  0  0  0  0  0  0  0
   45.5720   32.2540   44.0410 C   0  0  0  0  0  0  0  0  0  0  0  0
   46.3140   31.2520   44.6350 C   0  0  0  0  0  0  0  0  0  0  0  0
   46.9390   31.5760   45.8400 N   0  0  0  0  0  0  0  0  0  0  0  0
   46.8270   32.7860   46.3920 C   0  0  0  0  0  0  0  0  0  0  0  0
   46.1000   33.7090   45.7780 N   0  0  0  0  0  0  0  0  0  0  0  0
   44.8380   35.8760   44.4880 C   0  0  0  0  0  0  0  0  0  0  0  0
   44.3090   33.4000   42.3826 H   0  0  0  0  0  0  0  0  0  0  0  0
   47.0728   35.7230   43.2691 H   0  0  0  0  0  0  0  0  0  0  0  0
   49.0188   35.6036   41.5896 H   0  0  0  0  0  0  0  0  0  0  0  0
   49.3372   34.4108   38.9650 H   0  0  0  0  0  0  0  0  0  0  0  0
   48.1442   33.1046   37.2427 H   0  0  0  0  0  0  0  0  0  0  0  0
   45.7754   32.4371   37.6673 H   0  0  0  0  0  0  0  0  0  0  0  0
   44.6388   33.0834   39.7994 H   0  0  0  0  0  0  0  0  0  0  0  0
   44.2192   36.2857   41.4624 H   0  0  0  0  0  0  0  0  0  0  0  0
   40.3645   35.7646   41.5684 H   0  0  0  0  0  0  0  0  0  0  0  0
   41.5307   37.0981   41.7792 H   0  0  0  0  0  0  0  0  0  0  0  0
   43.5684   34.1419   44.2053 H   0  0  0  0  0  0  0  0  0  0  0  0
   45.0601   32.0574   43.0874 H   0  0  0  0  0  0  0  0  0  0  0  0
   46.4072   30.2534   44.1831 H   0  0  0  0  0  0  0  0  0  0  0  0
   47.3308   33.0141   47.3429 H   0  0  0  0  0  0  0  0  0  0  0  0
   44.8350   35.8588   45.5879 H   0  0  0  0  0  0  0  0  0  0  0  0
   45.8129   36.2382   44.1296 H   0  0  0  0  0  0  0  0  0  0  0  0
   44.0433   36.5468   44.1296 H   0  0  0  0  0  0  0  0  0  0  0  0
  1 16  1  0
  2  3  2  0
  2  1  1  0
  4  3  1  0
  5 10  2  0
  5  4  1  0
  6  5  1  0
  7  8  1  0
  7  6  2  0
  8  9  2  0
  9 10  1  0
 10  2  1  0
 11  1  1  0
 12 11  1  0
 13 12  2  0
 14 12  1  0
 15 13  1  0
 16 23  1  0
 16 17  1  0
 17 22  1  0
 18 17  2  0
 18 19  1  0
 19 20  2  0
 20 21  1  0
 22 21  2  0
  1 24  1  6
  3 25  1  0
  4 26  1  0
  6 27  1  0
  7 28  1  0
  8 29  1  0
  9 30  1  0
 11 31  1  0
 14 32  1  0
 14 33  1  0
 16 34  1  6
 18 35  1  0
 19 36  1  0
 21 37  1  0
 23 38  1  0
 23 39  1  0
 23 40  1  0
M  ISO  8  24   8  25  14  26   9  27  14  28  14  29  14  30  14  34   8
M  ISO  6  35  14  36  14  37  14  38   8  39   8  40   8
M  END
>  <minimizedAffinity>  (1) 
-5.51446295

>  <minimizedRMSD>  (1) 
1.18348551

$$$$
