
     RDKit          3D

 35 36  0  0  1  0  0  0  0  0999 V2000
   44.7380   34.4530   42.4130 C   0  0  1  0  0  0  0  0  0  0  0  0
   43.9010   35.4190   41.7430 N   0  0  0  0  0  0  0  0  0  0  0  0
   42.4930   35.1470   41.6510 C   0  0  0  0  0  0  0  0  0  0  0  0
   42.0610   33.9060   41.5690 N   0  0  0  0  0  0  0  0  0  0  0  0
   41.4170   36.0960   41.6190 N   0  0  0  0  0  0  0  0  0  0  0  0
   42.6660   33.0740   41.5820 H   0  0  0  0  0  0  0  0  0  0  0  0
   46.0530   34.5660   41.7660 C   0  0  0  0  0  0  0  0  0  0  0  0
   47.1230   35.2830   42.2770 C   0  0  0  0  0  0  0  0  0  0  0  0
   48.3520   35.4740   41.6840 C   0  0  0  0  0  0  0  0  0  0  0  0
   48.5600   34.8990   40.4500 C   0  0  0  0  0  0  0  0  0  0  0  0
   47.5170   34.1830   39.9170 C   0  0  0  0  0  0  0  0  0  0  0  0
   46.3540   34.0300   40.5320 N   0  0  0  0  0  0  0  0  0  0  0  0
   44.6150   34.5020   43.8950 C   0  0  1  0  0  0  0  0  0  0  0  0
   45.4480   33.5210   44.6100 C   0  0  0  0  0  0  0  0  0  0  0  0
   45.5390   32.2800   44.0370 C   0  0  0  0  0  0  0  0  0  0  0  0
   46.2490   31.2730   44.6750 C   0  0  0  0  0  0  0  0  0  0  0  0
   46.8450   31.6010   45.8920 N   0  0  0  0  0  0  0  0  0  0  0  0
   46.7460   32.8190   46.4290 C   0  0  0  0  0  0  0  0  0  0  0  0
   46.0580   33.7470   45.7880 N   0  0  0  0  0  0  0  0  0  0  0  0
   44.8070   35.9060   44.4640 C   0  0  0  0  0  0  0  0  0  0  0  0
   44.4261   33.4054   42.2898 H   0  0  0  0  0  0  0  0  0  0  0  0
   44.3015   36.2791   41.3421 H   0  0  0  0  0  0  0  0  0  0  0  0
   40.4430   35.7681   41.5507 H   0  0  0  0  0  0  0  0  0  0  0  0
   41.6187   37.1050   41.6643 H   0  0  0  0  0  0  0  0  0  0  0  0
   46.9754   35.7499   43.2620 H   0  0  0  0  0  0  0  0  0  0  0  0
   49.1380   36.0640   42.1780 H   0  0  0  0  0  0  0  0  0  0  0  0
   49.5160   35.0082   39.9170 H   0  0  0  0  0  0  0  0  0  0  0  0
   47.6538   33.7137   38.9316 H   0  0  0  0  0  0  0  0  0  0  0  0
   43.5721   34.2054   44.0806 H   0  0  0  0  0  0  0  0  0  0  0  0
   45.0496   32.0820   43.0720 H   0  0  0  0  0  0  0  0  0  0  0  0
   46.3373   30.2657   44.2420 H   0  0  0  0  0  0  0  0  0  0  0  0
   47.2298   33.0466   47.3904 H   0  0  0  0  0  0  0  0  0  0  0  0
   44.8007   35.8602   45.5630 H   0  0  0  0  0  0  0  0  0  0  0  0
   45.7691   36.3129   44.1194 H   0  0  0  0  0  0  0  0  0  0  0  0
   43.9894   36.5563   44.1194 H   0  0  0  0  0  0  0  0  0  0  0  0
  1 13  1  0
  2  1  1  0
  3  2  1  0
  4  6  1  0
  4  3  2  0
  5  3  1  0
  7  8  2  0
  7  1  1  0
  9  8  1  0
 10  9  2  0
 11 10  1  0
 11 12  2  0
 12  7  1  0
 13 20  1  0
 13 14  1  0
 14 19  1  0
 15 14  2  0
 15 16  1  0
 16 17  2  0
 17 18  1  0
 19 18  2  0
  1 21  1  6
  2 22  1  0
  5 23  1  0
  5 24  1  0
  8 25  1  0
  9 26  1  0
 10 27  1  0
 11 28  1  0
 13 29  1  6
 15 30  1  0
 16 31  1  0
 18 32  1  0
 20 33  1  0
 20 34  1  0
 20 35  1  0
M  ISO  8  21   8  25  14  26  14  27  14  28  14  29   8  30  14  31  14
M  ISO  4  32  14  33   8  34   8  35   8
M  END
>  <minimizedAffinity>  (1) 
-5.34888506

>  <minimizedRMSD>  (1) 
1.25636744

$$$$
