
     RDKit          3D

 33 34  0  0  1  0  0  0  0  0999 V2000
   46.1340   33.9440   41.1130 C   0  0  1  0  0  0  0  0  0  0  0  0
   45.0250   34.3120   40.2810 N   0  0  0  0  0  0  0  0  0  0  0  0
   43.7120   34.4250   40.8450 C   0  0  0  0  0  0  0  0  0  0  0  0
   43.3540   33.6230   41.8310 N   0  0  0  0  0  0  0  0  0  0  0  0
   42.6540   35.3170   40.4720 N   0  0  0  0  0  0  0  0  0  0  0  0
   43.9790   32.8910   42.2250 H   0  0  0  0  0  0  0  0  0  0  0  0
   47.1750   33.4790   40.2060 N   0  0  0  0  0  0  0  0  0  0  0  0
   47.5540   34.0250   39.0310 N   0  0  0  0  0  0  0  0  0  0  0  0
   48.5130   33.2760   38.4570 C   0  0  0  0  0  0  0  0  0  0  0  0
   48.7670   32.2090   39.2840 C   0  0  0  0  0  0  0  0  0  0  0  0
   47.9400   32.3450   40.3520 C   0  0  0  0  0  0  0  0  0  0  0  0
   46.5970   35.0390   42.0370 C   0  0  1  0  0  0  0  0  0  0  0  0
   46.0650   34.8920   43.4000 C   0  0  0  0  0  0  0  0  0  0  0  0
   46.4910   33.8600   44.1850 C   0  0  0  0  0  0  0  0  0  0  0  0
   45.9460   33.6640   45.4390 C   0  0  0  0  0  0  0  0  0  0  0  0
   44.9620   34.5600   45.8410 N   0  0  0  0  0  0  0  0  0  0  0  0
   44.5550   35.5650   45.0650 C   0  0  0  0  0  0  0  0  0  0  0  0
   45.1060   35.7100   43.8780 N   0  0  0  0  0  0  0  0  0  0  0  0
   48.1460   34.9930   42.0670 C   0  0  0  0  0  0  0  0  0  0  0  0
   45.8371   33.1513   41.8155 H   0  0  0  0  0  0  0  0  0  0  0  0
   45.1721   34.4951   39.2781 H   0  0  0  0  0  0  0  0  0  0  0  0
   41.7537   35.2855   40.9714 H   0  0  0  0  0  0  0  0  0  0  0  0
   42.7940   35.9896   39.7046 H   0  0  0  0  0  0  0  0  0  0  0  0
   49.0064   33.4817   37.4956 H   0  0  0  0  0  0  0  0  0  0  0  0
   49.4965   31.4034   39.1144 H   0  0  0  0  0  0  0  0  0  0  0  0
   47.8893   31.6528   41.2054 H   0  0  0  0  0  0  0  0  0  0  0  0
   46.2252   36.0041   41.6624 H   0  0  0  0  0  0  0  0  0  0  0  0
   47.2733   33.1800   43.8167 H   0  0  0  0  0  0  0  0  0  0  0  0
   46.2746   32.8390   46.0881 H   0  0  0  0  0  0  0  0  0  0  0  0
   43.7744   36.2592   45.4096 H   0  0  0  0  0  0  0  0  0  0  0  0
   48.4924   34.9827   43.1110 H   0  0  0  0  0  0  0  0  0  0  0  0
   48.4958   34.0841   41.5556 H   0  0  0  0  0  0  0  0  0  0  0  0
   48.5491   35.8796   41.5556 H   0  0  0  0  0  0  0  0  0  0  0  0
  1 12  1  0
  2  3  1  0
  2  1  1  0
  3  4  2  0
  4  6  1  0
  5  3  1  0
  7 11  1  0
  7  1  1  0
  8  7  1  0
  9  8  2  0
  9 10  1  0
 10 11  2  0
 12 19  1  0
 12 13  1  0
 13 18  1  0
 13 14  2  0
 14 15  1  0
 15 16  2  0
 17 16  1  0
 18 17  2  0
  1 20  1  1
  2 21  1  0
  5 22  1  0
  5 23  1  0
  9 24  1  0
 10 25  1  0
 11 26  1  0
 12 27  1  6
 14 28  1  0
 15 29  1  0
 17 30  1  0
 19 31  1  0
 19 32  1  0
 19 33  1  0
M  ISO  8  20   8  24  14  25  14  26  14  27   8  28  14  29  14  30  14
M  ISO  3  31   8  32   8  33   8
M  END
>  <minimizedAffinity>  (1) 
-4.883214

>  <minimizedRMSD>  (1) 
2.48466897

$$$$
