
     RDKit          3D

 38 39  0  0  1  0  0  0  0  0999 V2000
   45.4340   34.1260   42.3350 C   0  0  1  0  0  0  0  0  0  0  0  0
   44.4960   33.7090   41.3390 N   0  0  0  0  0  0  0  0  0  0  0  0
   43.3930   32.8680   41.7270 C   0  0  0  0  0  0  0  0  0  0  0  0
   43.5510   31.9760   42.6900 N   0  0  0  0  0  0  0  0  0  0  0  0
   42.0570   32.8210   41.2010 N   0  0  0  0  0  0  0  0  0  0  0  0
   44.4390   31.8420   43.2070 H   0  0  0  0  0  0  0  0  0  0  0  0
   46.5480   34.7470   41.6550 N   0  0  0  0  0  0  0  0  0  0  0  0
   47.7800   34.4240   42.4240 C   0  0  0  0  0  0  0  0  0  0  0  0
   48.8030   35.1780   41.6020 C   0  0  0  0  0  0  0  0  0  0  0  0
   48.3350   34.7980   40.1990 C   0  0  0  0  0  0  0  0  0  0  0  0
   46.9100   34.2400   40.3850 C   0  0  0  0  0  0  0  0  0  0  0  0
   44.8260   34.9300   43.4520 C   0  0  1  0  0  0  0  0  0  0  0  0
   45.1020   34.3350   44.7810 C   0  0  0  0  0  0  0  0  0  0  0  0
   45.8900   33.2030   44.8300 C   0  0  0  0  0  0  0  0  0  0  0  0
   46.1170   32.6040   46.0600 C   0  0  0  0  0  0  0  0  0  0  0  0
   45.5360   33.1810   47.1770 N   0  0  0  0  0  0  0  0  0  0  0  0
   44.7790   34.2790   47.0980 C   0  0  0  0  0  0  0  0  0  0  0  0
   44.5780   34.8280   45.9180 N   0  0  0  0  0  0  0  0  0  0  0  0
   45.3150   36.3750   43.3950 C   0  0  0  0  0  0  0  0  0  0  0  0
   45.8099   33.2518   42.8868 H   0  0  0  0  0  0  0  0  0  0  0  0
   44.6076   34.0057   40.3590 H   0  0  0  0  0  0  0  0  0  0  0  0
   41.3737   32.1554   41.5895 H   0  0  0  0  0  0  0  0  0  0  0  0
   41.7825   33.4529   40.4353 H   0  0  0  0  0  0  0  0  0  0  0  0
   47.7278   34.7997   43.4565 H   0  0  0  0  0  0  0  0  0  0  0  0
   47.9829   33.3499   42.5473 H   0  0  0  0  0  0  0  0  0  0  0  0
   48.7465   36.2632   41.7728 H   0  0  0  0  0  0  0  0  0  0  0  0
   49.8522   34.9349   41.8257 H   0  0  0  0  0  0  0  0  0  0  0  0
   48.9956   34.0322   39.7663 H   0  0  0  0  0  0  0  0  0  0  0  0
   48.3534   35.6575   39.5128 H   0  0  0  0  0  0  0  0  0  0  0  0
   46.2325   34.6097   39.6012 H   0  0  0  0  0  0  0  0  0  0  0  0
   46.8554   33.1434   40.3180 H   0  0  0  0  0  0  0  0  0  0  0  0
   43.7350   34.9171   43.3118 H   0  0  0  0  0  0  0  0  0  0  0  0
   46.3290   32.7845   43.9123 H   0  0  0  0  0  0  0  0  0  0  0  0
   46.7382   31.7002   46.1457 H   0  0  0  0  0  0  0  0  0  0  0  0
   44.3316   34.7167   48.0026 H   0  0  0  0  0  0  0  0  0  0  0  0
   45.4449   36.7588   44.4177 H   0  0  0  0  0  0  0  0  0  0  0  0
   46.2770   36.4158   42.8631 H   0  0  0  0  0  0  0  0  0  0  0  0
   44.5755   36.9916   42.8631 H   0  0  0  0  0  0  0  0  0  0  0  0
  1 12  1  0
  2  3  1  0
  2  1  1  0
  3  4  2  0
  4  6  1  0
  5  3  1  0
  7  1  1  0
  7  8  1  0
  9  8  1  0
 10 11  1  0
 10  9  1  0
 11  7  1  0
 12 13  1  0
 13 14  2  0
 13 18  1  0
 14 15  1  0
 15 16  2  0
 17 16  1  0
 18 17  2  0
 19 12  1  0
  1 20  1  1
  2 21  1  0
  5 22  1  0
  5 23  1  0
  8 24  1  0
  8 25  1  0
  9 26  1  0
  9 27  1  0
 10 28  1  0
 10 29  1  0
 11 30  1  0
 11 31  1  0
 12 32  1  6
 14 33  1  0
 15 34  1  0
 17 35  1  0
 19 36  1  0
 19 37  1  0
 19 38  1  0
M  ISO  8  20   8  24  13  25  13  26  13  27  13  28  13  29  13  30  13
M  ISO  8  31  13  32   8  33  14  34  14  35  14  36   8  37   8  38   8
M  END
>  <minimizedAffinity>  (1) 
-4.56106567

>  <minimizedRMSD>  (1) 
1.87664437

$$$$
