
     RDKit          3D

 32 33  0  0  1  0  0  0  0  0999 V2000
   44.5890   34.7530   41.4080 C   0  0  1  0  0  0  0  0  0  0  0  0
   44.8850   34.7420   42.8480 C   0  0  0  0  0  0  0  0  0  0  0  0
   45.7450   33.8040   43.3450 C   0  0  0  0  0  0  0  0  0  0  0  0
   45.9850   33.7280   44.7040 C   0  0  0  0  0  0  0  0  0  0  0  0
   45.3150   34.6410   45.5120 N   0  0  0  0  0  0  0  0  0  0  0  0
   44.4810   35.5520   45.0100 C   0  0  0  0  0  0  0  0  0  0  0  0
   44.2830   35.5860   43.7090 N   0  0  0  0  0  0  0  0  0  0  0  0
   45.7430   34.0860   40.6220 C   0  0  0  0  0  0  0  0  0  0  0  0
   43.3200   34.0150   41.0700 C   0  0  1  0  0  0  0  0  0  0  0  0
   42.8190   33.1890   42.1320 N   0  0  0  0  0  0  0  0  0  0  0  0
   42.7570   31.7660   41.9640 C   0  0  0  0  0  0  0  0  0  0  0  0
   42.4940   31.2650   40.7720 N   0  0  0  0  0  0  0  0  0  0  0  0
   42.9340   30.7370   42.9470 N   0  0  0  0  0  0  0  0  0  0  0  0
   42.3280   31.8460   39.9290 H   0  0  0  0  0  0  0  0  0  0  0  0
   42.2050   34.8740   40.6960 N   0  0  0  0  0  0  0  0  0  0  0  0
   41.7270   35.1200   39.4320 C   0  0  0  0  0  0  0  0  0  0  0  0
   40.6550   35.9250   39.5220 N   0  0  0  0  0  0  0  0  0  0  0  0
   40.4590   36.1840   40.8260 C   0  0  0  0  0  0  0  0  0  0  0  0
   41.3960   35.5470   41.5440 N   0  0  0  0  0  0  0  0  0  0  0  0
   44.4698   35.8097   41.1267 H   0  0  0  0  0  0  0  0  0  0  0  0
   46.2488   33.1059   42.6603 H   0  0  0  0  0  0  0  0  0  0  0  0
   46.6731   32.9811   45.1266 H   0  0  0  0  0  0  0  0  0  0  0  0
   43.9666   36.2638   45.6723 H   0  0  0  0  0  0  0  0  0  0  0  0
   46.4725   33.6643   41.3291 H   0  0  0  0  0  0  0  0  0  0  0  0
   45.3390   33.2822   39.9891 H   0  0  0  0  0  0  0  0  0  0  0  0
   46.2379   34.8374   39.9891 H   0  0  0  0  0  0  0  0  0  0  0  0
   43.6489   33.4055   40.2154 H   0  0  0  0  0  0  0  0  0  0  0  0
   42.5043   33.6180   43.0139 H   0  0  0  0  0  0  0  0  0  0  0  0
   42.8596   29.7464   42.6748 H   0  0  0  0  0  0  0  0  0  0  0  0
   43.1355   30.9885   43.9253 H   0  0  0  0  0  0  0  0  0  0  0  0
   42.1524   34.7228   38.4985 H   0  0  0  0  0  0  0  0  0  0  0  0
   39.6590   36.8165   41.2382 H   0  0  0  0  0  0  0  0  0  0  0  0
  1  2  1  0
  2  3  2  0
  2  7  1  0
  3  4  1  0
  4  5  2  0
  6  5  1  0
  7  6  2  0
  8  1  1  0
  9  1  1  0
  9 10  1  0
 11 10  1  0
 11 13  1  0
 12 11  2  0
 14 12  1  0
 15  9  1  0
 15 19  1  0
 16 17  2  0
 16 15  1  0
 17 18  1  0
 18 19  2  0
  1 20  1  6
  3 21  1  0
  4 22  1  0
  6 23  1  0
  8 24  1  0
  8 25  1  0
  8 26  1  0
  9 27  1  6
 10 28  1  0
 13 29  1  0
 13 30  1  0
 16 31  1  0
 18 32  1  0
M  ISO  8  20   8  21  14  22  14  23  14  24   8  25   8  26   8  27   8
M  ISO  2  31  14  32  14
M  END
>  <minimizedAffinity>  (1) 
-4.76686954

>  <minimizedRMSD>  (1) 
3.88798952

$$$$
