
     RDKit          3D

 38 42  0  0  0  0  0  0  0  0999 V2000
   46.4360   32.6050   46.8540 C   0  0  0  0  0  0  0  0  0  0  0  0
   45.6810   32.5940   48.0270 C   0  0  0  0  0  0  0  0  0  0  0  0
   46.3610   31.6810   48.8230 C   0  0  0  0  0  0  0  0  0  0  0  0
   47.4520   31.1970   48.1310 C   0  0  0  0  0  0  0  0  0  0  0  0
   47.4370   31.7850   46.9720 O   0  0  0  0  0  0  0  0  0  0  0  0
   48.3950   30.2170   48.6620 C   0  0  0  0  0  0  0  0  0  0  0  0
   48.4450   28.8660   48.3900 C   0  0  0  0  0  0  0  0  0  0  0  0
   49.4720   28.2960   49.0830 N   0  0  0  0  0  0  0  0  0  0  0  0
   50.0860   29.2560   49.7960 C   0  0  0  0  0  0  0  0  0  0  0  0
   51.1790   29.1630   50.6510 C   0  0  0  0  0  0  0  0  0  0  0  0
   51.6160   30.3220   51.2670 C   0  0  0  0  0  0  0  0  0  0  0  0
   50.9820   31.5340   51.0390 C   0  0  0  0  0  0  0  0  0  0  0  0
   49.8970   31.5860   50.1800 C   0  0  0  0  0  0  0  0  0  0  0  0
   49.4300   30.4620   49.5470 C   0  0  0  0  0  0  0  0  0  0  0  0
   46.7390   33.9920   43.5890 C   0  0  0  0  0  0  0  0  0  0  0  0
   45.6090   34.6390   44.0570 C   0  0  0  0  0  0  0  0  0  0  0  0
   45.3530   34.1940   45.3530 C   0  0  0  0  0  0  0  0  0  0  0  0
   46.3380   33.2950   45.6200 N   0  0  0  0  0  0  0  0  0  0  0  0
   47.1590   33.1730   44.5810 N   0  0  0  0  0  0  0  0  0  0  0  0
   48.6980   35.4250   40.8150 C   0  0  0  0  0  0  0  0  0  0  0  0
   48.1490   34.7290   39.7030 C   0  0  0  0  0  0  0  0  0  0  0  0
   47.1390   33.8030   39.9320 C   0  0  0  0  0  0  0  0  0  0  0  0
   46.7100   33.5920   41.2080 N   0  0  0  0  0  0  0  0  0  0  0  0
   47.2480   34.2660   42.2420 C   0  0  0  0  0  0  0  0  0  0  0  0
   48.2300   35.1760   42.0760 N   0  0  0  0  0  0  0  0  0  0  0  0
   44.7720   33.1667   48.2632 H   0  0  0  0  0  0  0  0  0  0  0  0
   46.0747   31.3897   49.8444 H   0  0  0  0  0  0  0  0  0  0  0  0
   47.7605   28.3296   47.7164 H   0  0  0  0  0  0  0  0  0  0  0  0
   49.7327   27.2997   49.0634 H   0  0  0  0  0  0  0  0  0  0  0  0
   51.6792   28.2001   50.8314 H   0  0  0  0  0  0  0  0  0  0  0  0
   52.4791   30.2816   51.9477 H   0  0  0  0  0  0  0  0  0  0  0  0
   51.3384   32.4478   51.5370 H   0  0  0  0  0  0  0  0  0  0  0  0
   49.3985   32.5501   50.0012 H   0  0  0  0  0  0  0  0  0  0  0  0
   45.0140   35.3785   43.5011 H   0  0  0  0  0  0  0  0  0  0  0  0
   44.5318   34.5031   46.0164 H   0  0  0  0  0  0  0  0  0  0  0  0
   49.4987   36.1633   40.6612 H   0  0  0  0  0  0  0  0  0  0  0  0
   48.5161   34.9197   38.6837 H   0  0  0  0  0  0  0  0  0  0  0  0
   46.6916   33.2476   39.0945 H   0  0  0  0  0  0  0  0  0  0  0  0
  1  5  1  0
  1  2  2  0
  2  3  1  0
  4  6  1  0
  4  3  2  0
  5  4  1  0
  6 14  1  0
  7  6  2  0
  7  8  1  0
  8  9  1  0
  9 10  2  0
 10 11  1  0
 12 11  2  0
 13 12  1  0
 14  9  1  0
 14 13  2  0
 15 16  1  0
 15 19  2  0
 16 17  2  0
 17 18  1  0
 18  1  1  0
 19 18  1  0
 20 25  2  0
 21 22  2  0
 21 20  1  0
 22 23  1  0
 23 24  2  0
 24 15  1  0
 25 24  1  0
  2 26  1  0
  3 27  1  0
  7 28  1  0
  8 29  1  0
 10 30  1  0
 11 31  1  0
 12 32  1  0
 13 33  1  0
 16 34  1  0
 17 35  1  0
 20 36  1  0
 21 37  1  0
 22 38  1  0
M  ISO  8  26  14  27  14  28  14  29   9  30  14  31  14  32  14  33  14
M  ISO  5  34  14  35  14  36  14  37  14  38  14
M  END
>  <minimizedAffinity>  (1) 
-6.36967945

>  <minimizedRMSD>  (1) 
1.25967693

$$$$
