
     RDKit          3D

 34 37  0  0  0  0  0  0  0  0999 V2000
   46.6560   34.1290   43.4860 C   0  0  0  0  0  0  0  0  0  0  0  0
   45.5180   34.8070   43.9220 C   0  0  0  0  0  0  0  0  0  0  0  0
   45.2250   34.3860   45.2180 C   0  0  0  0  0  0  0  0  0  0  0  0
   46.1850   33.4720   45.5280 N   0  0  0  0  0  0  0  0  0  0  0  0
   47.0110   33.3290   44.5170 N   0  0  0  0  0  0  0  0  0  0  0  0
   48.7100   35.4360   40.7420 C   0  0  0  0  0  0  0  0  0  0  0  0
   48.1840   34.7440   39.6400 C   0  0  0  0  0  0  0  0  0  0  0  0
   47.1490   33.8570   39.8580 C   0  0  0  0  0  0  0  0  0  0  0  0
   46.6800   33.6860   41.1260 N   0  0  0  0  0  0  0  0  0  0  0  0
   47.2050   34.3610   42.1620 C   0  0  0  0  0  0  0  0  0  0  0  0
   48.2220   35.2460   42.0060 N   0  0  0  0  0  0  0  0  0  0  0  0
   46.2210   32.8140   46.7760 C   0  0  0  0  0  0  0  0  0  0  0  0
   45.3520   32.6890   47.8570 C   0  0  0  0  0  0  0  0  0  0  0  0
   46.0560   31.8850   48.7460 C   0  0  0  0  0  0  0  0  0  0  0  0
   47.2790   31.5660   48.1910 C   0  0  0  0  0  0  0  0  0  0  0  0
   47.3170   32.1460   47.0230 O   0  0  0  0  0  0  0  0  0  0  0  0
   48.2660   30.7550   48.8230 N   0  0  0  0  0  0  0  0  0  0  0  0
   49.0950   31.2040   49.7850 C   0  0  0  0  0  0  0  0  0  0  0  0
   50.0080   30.3060   50.3130 C   0  0  0  0  0  0  0  0  0  0  0  0
   50.0430   29.0090   49.8500 C   0  0  0  0  0  0  0  0  0  0  0  0
   50.8440   28.1390   50.2810 O   0  0  0  0  0  0  0  0  0  0  0  0
   49.1860   28.6180   48.8850 N   0  0  0  0  0  0  0  0  0  0  0  0
   48.2930   29.4840   48.3630 C   0  0  0  0  0  0  0  0  0  0  0  0
   47.5300   29.0390   47.4670 O   0  0  0  0  0  0  0  0  0  0  0  0
   44.9485   35.5480   43.3418 H   0  0  0  0  0  0  0  0  0  0  0  0
   44.3937   34.7214   45.8556 H   0  0  0  0  0  0  0  0  0  0  0  0
   49.5339   36.1478   40.5858 H   0  0  0  0  0  0  0  0  0  0  0  0
   48.5861   34.9043   38.6288 H   0  0  0  0  0  0  0  0  0  0  0  0
   46.7091   33.2962   39.0201 H   0  0  0  0  0  0  0  0  0  0  0  0
   44.3484   33.1228   47.9784 H   0  0  0  0  0  0  0  0  0  0  0  0
   45.6966   31.5562   49.7323 H   0  0  0  0  0  0  0  0  0  0  0  0
   49.0487   32.2448   50.1381 H   0  0  0  0  0  0  0  0  0  0  0  0
   50.7044   30.6282   51.1012 H   0  0  0  0  0  0  0  0  0  0  0  0
   49.2136   27.6470   48.5426 H   0  0  0  0  0  0  0  0  0  0  0  0
  1  2  1  0
  1  5  2  0
  2  3  2  0
  3  4  1  0
  4 12  1  0
  5  4  1  0
  6 11  2  0
  7  8  2  0
  7  6  1  0
  8  9  1  0
  9 10  2  0
 10  1  1  0
 11 10  1  0
 12 16  1  0
 12 13  2  0
 13 14  1  0
 15 14  2  0
 15 17  1  0
 16 15  1  0
 17 18  1  0
 18 19  2  0
 20 21  2  0
 20 19  1  0
 22 20  1  0
 23 17  1  0
 23 22  1  0
 24 23  2  0
  2 25  1  0
  3 26  1  0
  6 27  1  0
  7 28  1  0
  8 29  1  0
 13 30  1  0
 14 31  1  0
 18 32  1  0
 19 33  1  0
 22 34  1  0
M  ISO  8  25  14  26  14  27  14  28  14  29  14  30  14  31  14  32  14
M  ISO  2  33  14  34   9
M  END
>  <minimizedAffinity>  (1) 
-6.31209564

>  <minimizedRMSD>  (1) 
0.899592876

$$$$
