
     RDKit          3D

 31 33  0  0  0  0  0  0  0  0999 V2000
   46.5740   33.9720   43.9340 C   0  0  0  0  0  0  0  0  0  0  0  0
   45.5000   34.7310   44.4000 C   0  0  0  0  0  0  0  0  0  0  0  0
   45.1560   34.2860   45.6790 C   0  0  0  0  0  0  0  0  0  0  0  0
   46.0270   33.2840   45.9380 N   0  0  0  0  0  0  0  0  0  0  0  0
   46.8610   33.0920   44.9220 N   0  0  0  0  0  0  0  0  0  0  0  0
   48.7640   35.2390   41.2750 C   0  0  0  0  0  0  0  0  0  0  0  0
   48.1700   34.6570   40.1210 C   0  0  0  0  0  0  0  0  0  0  0  0
   47.0420   33.8530   40.2960 C   0  0  0  0  0  0  0  0  0  0  0  0
   46.5420   33.6450   41.5480 N   0  0  0  0  0  0  0  0  0  0  0  0
   47.1410   34.2210   42.6190 C   0  0  0  0  0  0  0  0  0  0  0  0
   48.2390   35.0100   42.5050 N   0  0  0  0  0  0  0  0  0  0  0  0
   46.0130   32.5590   47.1540 C   0  0  0  0  0  0  0  0  0  0  0  0
   45.1040   32.4390   48.2180 C   0  0  0  0  0  0  0  0  0  0  0  0
   45.7410   31.5540   49.0790 C   0  0  0  0  0  0  0  0  0  0  0  0
   46.9530   31.1870   48.5360 C   0  0  0  0  0  0  0  0  0  0  0  0
   47.0410   31.8180   47.4050 O   0  0  0  0  0  0  0  0  0  0  0  0
   47.9060   30.2980   49.1050 N   0  0  0  0  0  0  0  0  0  0  0  0
   49.0460   30.7680   49.8030 C   0  0  0  0  0  0  0  0  0  0  0  0
   49.6030   31.8560   49.3450 N   0  0  0  0  0  0  0  0  0  0  0  0
   49.5020   30.0250   50.9520 N   0  0  0  0  0  0  0  0  0  0  0  0
   50.4430   32.2030   49.8610 H   0  0  0  0  0  0  0  0  0  0  0  0
   45.0054   35.5457   43.8508 H   0  0  0  0  0  0  0  0  0  0  0  0
   44.3551   34.6659   46.3303 H   0  0  0  0  0  0  0  0  0  0  0  0
   49.6533   35.8778   41.1697 H   0  0  0  0  0  0  0  0  0  0  0  0
   48.5875   34.8353   39.1191 H   0  0  0  0  0  0  0  0  0  0  0  0
   46.5570   33.3878   39.4252 H   0  0  0  0  0  0  0  0  0  0  0  0
   44.1257   32.9270   48.3399 H   0  0  0  0  0  0  0  0  0  0  0  0
   45.3412   31.2021   50.0415 H   0  0  0  0  0  0  0  0  0  0  0  0
   47.7634   29.2827   49.0069 H   0  0  0  0  0  0  0  0  0  0  0  0
   50.3282   30.3448   51.4773 H   0  0  0  0  0  0  0  0  0  0  0  0
   49.0014   29.1746   51.2472 H   0  0  0  0  0  0  0  0  0  0  0  0
  1  2  1  0
  1  5  2  0
  2  3  2  0
  3  4  1  0
  4 12  1  0
  5  4  1  0
  6 11  2  0
  7  8  2  0
  7  6  1  0
  8  9  1  0
  9 10  2  0
 10  1  1  0
 11 10  1  0
 12 16  1  0
 12 13  2  0
 13 14  1  0
 15 14  2  0
 15 17  1  0
 16 15  1  0
 17 18  1  0
 18 20  1  0
 19 18  2  0
 19 21  1  0
  2 22  1  0
  3 23  1  0
  6 24  1  0
  7 25  1  0
  8 26  1  0
 13 27  1  0
 14 28  1  0
 17 29  1  0
 20 30  1  0
 20 31  1  0
M  ISO  7  22  14  23  14  24  14  25  14  26  14  27  14  28  14
M  END
>  <minimizedAffinity>  (1) 
-6.16492605

>  <minimizedRMSD>  (1) 
0.72771436

$$$$
