
     RDKit          3D

 35 38  0  0  0  0  0  0  0  0999 V2000
   46.2850   32.7260   46.8770 C   0  0  0  0  0  0  0  0  0  0  0  0
   45.4260   32.5740   47.9560 C   0  0  0  0  0  0  0  0  0  0  0  0
   46.1460   31.7780   48.8380 C   0  0  0  0  0  0  0  0  0  0  0  0
   47.3710   31.4890   48.2750 C   0  0  0  0  0  0  0  0  0  0  0  0
   47.3940   32.0800   47.1120 O   0  0  0  0  0  0  0  0  0  0  0  0
   48.3780   30.6940   48.8920 N   0  0  0  0  0  0  0  0  0  0  0  0
   49.1590   31.0440   49.9310 C   0  0  0  0  0  0  0  0  0  0  0  0
   50.0900   30.1600   50.4150 C   0  0  0  0  0  0  0  0  0  0  0  0
   50.2440   28.9050   49.8490 C   0  0  0  0  0  0  0  0  0  0  0  0
   51.2010   27.9390   50.3110 N   0  0  0  0  0  0  0  0  0  0  0  0
   49.4490   28.5820   48.8080 N   0  0  0  0  0  0  0  0  0  0  0  0
   48.5300   29.4590   48.3340 C   0  0  0  0  0  0  0  0  0  0  0  0
   47.8290   29.0640   47.3530 O   0  0  0  0  0  0  0  0  0  0  0  0
   46.6640   34.0690   43.5950 C   0  0  0  0  0  0  0  0  0  0  0  0
   45.5300   34.7390   44.0460 C   0  0  0  0  0  0  0  0  0  0  0  0
   45.2560   34.3080   45.3410 C   0  0  0  0  0  0  0  0  0  0  0  0
   46.2210   33.4020   45.6270 N   0  0  0  0  0  0  0  0  0  0  0  0
   47.0450   33.2590   44.6090 N   0  0  0  0  0  0  0  0  0  0  0  0
   48.7010   35.4020   40.8350 C   0  0  0  0  0  0  0  0  0  0  0  0
   48.1490   34.7220   39.7210 C   0  0  0  0  0  0  0  0  0  0  0  0
   47.1050   33.8360   39.9500 C   0  0  0  0  0  0  0  0  0  0  0  0
   46.6520   33.6520   41.2200 N   0  0  0  0  0  0  0  0  0  0  0  0
   47.2000   34.3150   42.2550 C   0  0  0  0  0  0  0  0  0  0  0  0
   48.2210   35.1930   42.0970 N   0  0  0  0  0  0  0  0  0  0  0  0
   44.4141   32.9863   48.0830 H   0  0  0  0  0  0  0  0  0  0  0  0
   45.7965   31.4349   49.8230 H   0  0  0  0  0  0  0  0  0  0  0  0
   49.0510   32.0372   50.3913 H   0  0  0  0  0  0  0  0  0  0  0  0
   50.7237   30.4522   51.2653 H   0  0  0  0  0  0  0  0  0  0  0  0
   51.2696   27.0207   49.8496 H   0  0  0  0  0  0  0  0  0  0  0  0
   51.8188   28.1645   51.1037 H   0  0  0  0  0  0  0  0  0  0  0  0
   44.9505   35.4810   43.4771 H   0  0  0  0  0  0  0  0  0  0  0  0
   44.4318   34.6337   45.9927 H   0  0  0  0  0  0  0  0  0  0  0  0
   49.5292   36.1094   40.6812 H   0  0  0  0  0  0  0  0  0  0  0  0
   48.5361   34.8911   38.7053 H   0  0  0  0  0  0  0  0  0  0  0  0
   46.6483   33.2879   39.1128 H   0  0  0  0  0  0  0  0  0  0  0  0
  1  5  1  0
  1  2  2  0
  2  3  1  0
  4  3  2  0
  4  6  1  0
  5  4  1  0
  6  7  1  0
  7  8  2  0
  9 10  1  0
  9  8  1  0
 11  9  2  0
 12 11  1  0
 12  6  1  0
 13 12  2  0
 14 15  1  0
 14 18  2  0
 15 16  2  0
 16 17  1  0
 17  1  1  0
 18 17  1  0
 19 24  2  0
 20 21  2  0
 20 19  1  0
 21 22  1  0
 22 23  2  0
 23 14  1  0
 24 23  1  0
  2 25  1  0
  3 26  1  0
  7 27  1  0
  8 28  1  0
 10 29  1  0
 10 30  1  0
 15 31  1  0
 16 32  1  0
 19 33  1  0
 20 34  1  0
 21 35  1  0
M  ISO  8  25  14  26  14  27  14  28  14  31  14  32  14  33  14  34  14
M  ISO  1  35  14
M  END
>  <minimizedAffinity>  (1) 
-6.13572645

>  <minimizedRMSD>  (1) 
1.07975304

$$$$
