
     RDKit          3D

 35 39  0  0  0  0  0  0  0  0999 V2000
   46.3320   32.7740   46.9030 C   0  0  0  0  0  0  0  0  0  0  0  0
   45.4560   32.5670   47.9590 C   0  0  0  0  0  0  0  0  0  0  0  0
   46.2040   31.8460   48.8830 C   0  0  0  0  0  0  0  0  0  0  0  0
   47.4820   31.6510   48.3470 C   0  0  0  0  0  0  0  0  0  0  0  0
   47.4690   32.2240   47.1930 O   0  0  0  0  0  0  0  0  0  0  0  0
   48.5330   30.9500   49.0090 N   0  0  0  0  0  0  0  0  0  0  0  0
   49.4270   31.2650   49.9470 C   0  0  0  0  0  0  0  0  0  0  0  0
   50.1860   30.1800   50.1880 N   0  0  0  0  0  0  0  0  0  0  0  0
   49.7670   29.1640   49.3900 C   0  0  0  0  0  0  0  0  0  0  0  0
   50.2810   27.8850   49.3300 C   0  0  0  0  0  0  0  0  0  0  0  0
   49.6560   27.0760   48.4330 N   0  0  0  0  0  0  0  0  0  0  0  0
   48.6290   27.5100   47.6830 C   0  0  0  0  0  0  0  0  0  0  0  0
   48.1690   28.7580   47.7800 N   0  0  0  0  0  0  0  0  0  0  0  0
   48.7170   29.6480   48.6410 C   0  0  0  0  0  0  0  0  0  0  0  0
   46.6660   34.0640   43.6000 C   0  0  0  0  0  0  0  0  0  0  0  0
   45.5160   34.7080   44.0390 C   0  0  0  0  0  0  0  0  0  0  0  0
   45.2500   34.2960   45.3470 C   0  0  0  0  0  0  0  0  0  0  0  0
   46.2450   33.4190   45.6550 N   0  0  0  0  0  0  0  0  0  0  0  0
   47.0760   33.2850   44.6270 N   0  0  0  0  0  0  0  0  0  0  0  0
   48.6800   35.3800   40.8170 C   0  0  0  0  0  0  0  0  0  0  0  0
   48.1260   34.7030   39.7190 C   0  0  0  0  0  0  0  0  0  0  0  0
   47.0890   33.8210   39.9520 C   0  0  0  0  0  0  0  0  0  0  0  0
   46.6390   33.6390   41.2290 N   0  0  0  0  0  0  0  0  0  0  0  0
   47.1890   34.3020   42.2600 C   0  0  0  0  0  0  0  0  0  0  0  0
   48.2020   35.1690   42.0770 N   0  0  0  0  0  0  0  0  0  0  0  0
   44.4103   32.8973   48.0453 H   0  0  0  0  0  0  0  0  0  0  0  0
   45.8529   31.4911   49.8632 H   0  0  0  0  0  0  0  0  0  0  0  0
   49.5269   32.2436   50.4393 H   0  0  0  0  0  0  0  0  0  0  0  0
   51.1228   27.5490   49.9532 H   0  0  0  0  0  0  0  0  0  0  0  0
   48.1556   26.8182   46.9708 H   0  0  0  0  0  0  0  0  0  0  0  0
   44.9162   35.4218   43.4552 H   0  0  0  0  0  0  0  0  0  0  0  0
   44.4156   34.6123   45.9903 H   0  0  0  0  0  0  0  0  0  0  0  0
   49.5075   36.0874   40.6597 H   0  0  0  0  0  0  0  0  0  0  0  0
   48.5074   34.8704   38.7009 H   0  0  0  0  0  0  0  0  0  0  0  0
   46.6300   33.2705   39.1176 H   0  0  0  0  0  0  0  0  0  0  0  0
  1  5  1  0
  1  2  2  0
  2  3  1  0
  4  3  2  0
  4  6  1  0
  5  4  1  0
  6  7  1  0
  7  8  2  0
  9  8  1  0
 10  9  2  0
 11 10  1  0
 12 13  1  0
 12 11  2  0
 13 14  2  0
 14  6  1  0
 14  9  1  0
 15 16  1  0
 15 19  2  0
 16 17  2  0
 17 18  1  0
 18  1  1  0
 19 18  1  0
 20 25  2  0
 21 22  2  0
 21 20  1  0
 22 23  1  0
 23 24  2  0
 24 15  1  0
 25 24  1  0
  2 26  1  0
  3 27  1  0
  7 28  1  0
 10 29  1  0
 12 30  1  0
 16 31  1  0
 17 32  1  0
 20 33  1  0
 21 34  1  0
 22 35  1  0
M  ISO  8  26  14  27  14  28  14  29  14  30  14  31  14  32  14  33  14
M  ISO  2  34  14  35  14
M  END
>  <minimizedAffinity>  (1) 
-6.15730619

>  <minimizedRMSD>  (1) 
0.83591789

$$$$
