
     RDKit          3D

 29 32  0  0  0  0  0  0  0  0999 V2000
   46.6310   34.1110   43.5450 C   0  0  0  0  0  0  0  0  0  0  0  0
   45.4810   34.7350   43.9710 C   0  0  0  0  0  0  0  0  0  0  0  0
   45.2180   34.3350   45.2810 C   0  0  0  0  0  0  0  0  0  0  0  0
   46.2290   33.4730   45.6060 N   0  0  0  0  0  0  0  0  0  0  0  0
   47.0630   33.3380   44.5910 N   0  0  0  0  0  0  0  0  0  0  0  0
   48.6640   35.3710   40.7580 C   0  0  0  0  0  0  0  0  0  0  0  0
   48.1200   34.6820   39.6640 C   0  0  0  0  0  0  0  0  0  0  0  0
   47.0780   33.8110   39.9120 C   0  0  0  0  0  0  0  0  0  0  0  0
   46.6140   33.6450   41.1820 N   0  0  0  0  0  0  0  0  0  0  0  0
   47.1710   34.3310   42.2060 C   0  0  0  0  0  0  0  0  0  0  0  0
   48.1960   35.2030   42.0400 N   0  0  0  0  0  0  0  0  0  0  0  0
   46.2990   32.8580   46.8780 C   0  0  0  0  0  0  0  0  0  0  0  0
   45.3790   32.5190   47.8700 C   0  0  0  0  0  0  0  0  0  0  0  0
   46.1800   31.9380   48.8500 C   0  0  0  0  0  0  0  0  0  0  0  0
   47.5040   31.9470   48.4270 C   0  0  0  0  0  0  0  0  0  0  0  0
   47.5010   32.5070   47.2490 O   0  0  0  0  0  0  0  0  0  0  0  0
   48.5950   31.4060   49.2330 C   0  0  0  0  0  0  0  0  0  0  0  0
   49.7300   32.0500   49.5710 N   0  0  0  0  0  0  0  0  0  0  0  0
   50.4870   31.2740   50.2950 O   0  0  0  0  0  0  0  0  0  0  0  0
   49.8930   30.0960   50.4650 C   0  0  0  0  0  0  0  0  0  0  0  0
   48.7060   30.1850   49.7960 N   0  0  0  0  0  0  0  0  0  0  0  0
   44.8713   35.4324   43.3778 H   0  0  0  0  0  0  0  0  0  0  0  0
   44.3766   34.6465   45.9174 H   0  0  0  0  0  0  0  0  0  0  0  0
   49.4947   36.0708   40.5842 H   0  0  0  0  0  0  0  0  0  0  0  0
   48.5093   34.8302   38.6459 H   0  0  0  0  0  0  0  0  0  0  0  0
   46.6218   33.2502   39.0829 H   0  0  0  0  0  0  0  0  0  0  0  0
   44.2898   32.6726   47.8767 H   0  0  0  0  0  0  0  0  0  0  0  0
   45.8211   31.5351   49.8086 H   0  0  0  0  0  0  0  0  0  0  0  0
   50.2773   29.2317   51.0266 H   0  0  0  0  0  0  0  0  0  0  0  0
  1  2  1  0
  1  5  2  0
  2  3  2  0
  3  4  1  0
  4 12  1  0
  5  4  1  0
  6 11  2  0
  7  8  2  0
  7  6  1  0
  8  9  1  0
  9 10  2  0
 10  1  1  0
 11 10  1  0
 12 16  1  0
 12 13  2  0
 13 14  1  0
 15 14  2  0
 15 17  1  0
 16 15  1  0
 17 18  2  0
 17 21  1  0
 18 19  1  0
 19 20  1  0
 21 20  2  0
  2 22  1  0
  3 23  1  0
  6 24  1  0
  7 25  1  0
  8 26  1  0
 13 27  1  0
 14 28  1  0
 20 29  1  0
M  ISO  8  22  14  23  14  24  14  25  14  26  14  27  14  28  14  29  14
M  END
>  <minimizedAffinity>  (1) 
-5.9239049

>  <minimizedRMSD>  (1) 
0.419960946

$$$$
