
     RDKit          3D

 32 35  0  0  0  0  0  0  0  0999 V2000
   46.6900   34.0150   43.6570 C   0  0  0  0  0  0  0  0  0  0  0  0
   45.5580   34.6740   44.1220 C   0  0  0  0  0  0  0  0  0  0  0  0
   45.2910   34.2380   45.4260 C   0  0  0  0  0  0  0  0  0  0  0  0
   46.2630   33.3410   45.6970 N   0  0  0  0  0  0  0  0  0  0  0  0
   47.0940   33.1990   44.6650 N   0  0  0  0  0  0  0  0  0  0  0  0
   48.6920   35.3720   40.8960 C   0  0  0  0  0  0  0  0  0  0  0  0
   48.1250   34.7050   39.7800 C   0  0  0  0  0  0  0  0  0  0  0  0
   47.0830   33.8190   40.0070 C   0  0  0  0  0  0  0  0  0  0  0  0
   46.6360   33.6140   41.2840 N   0  0  0  0  0  0  0  0  0  0  0  0
   47.2050   34.2710   42.3220 C   0  0  0  0  0  0  0  0  0  0  0  0
   48.2180   35.1380   42.1420 N   0  0  0  0  0  0  0  0  0  0  0  0
   46.3520   32.6600   46.9350 C   0  0  0  0  0  0  0  0  0  0  0  0
   45.5290   32.5490   48.0480 C   0  0  0  0  0  0  0  0  0  0  0  0
   46.2280   31.7190   48.9110 C   0  0  0  0  0  0  0  0  0  0  0  0
   47.4130   31.3750   48.2950 C   0  0  0  0  0  0  0  0  0  0  0  0
   47.4330   31.9530   47.1430 O   0  0  0  0  0  0  0  0  0  0  0  0
   48.4340   30.5080   48.8790 C   0  0  0  0  0  0  0  0  0  0  0  0
   48.7880   29.3450   48.2240 C   0  0  0  0  0  0  0  0  0  0  0  0
   49.7690   28.5560   48.8300 C   0  0  0  0  0  0  0  0  0  0  0  0
   50.3820   28.8690   50.0090 N   0  0  0  0  0  0  0  0  0  0  0  0
   49.9870   30.0160   50.5870 C   0  0  0  0  0  0  0  0  0  0  0  0
   49.0330   30.8270   50.0410 N   0  0  0  0  0  0  0  0  0  0  0  0
   44.9700   35.4144   43.5598 H   0  0  0  0  0  0  0  0  0  0  0  0
   44.4696   34.5565   46.0847 H   0  0  0  0  0  0  0  0  0  0  0  0
   49.5195   36.0816   40.7484 H   0  0  0  0  0  0  0  0  0  0  0  0
   48.5016   34.8857   38.7624 H   0  0  0  0  0  0  0  0  0  0  0  0
   46.6184   33.2840   39.1656 H   0  0  0  0  0  0  0  0  0  0  0  0
   44.5453   33.0142   48.2086 H   0  0  0  0  0  0  0  0  0  0  0  0
   45.8968   31.3933   49.9081 H   0  0  0  0  0  0  0  0  0  0  0  0
   48.3205   29.0540   47.2717 H   0  0  0  0  0  0  0  0  0  0  0  0
   50.0659   27.6246   48.3257 H   0  0  0  0  0  0  0  0  0  0  0  0
   50.4509   30.3141   51.5388 H   0  0  0  0  0  0  0  0  0  0  0  0
  1  2  1  0
  1  5  2  0
  2  3  2  0
  3  4  1  0
  4 12  1  0
  5  4  1  0
  6 11  2  0
  7  8  2  0
  7  6  1  0
  8  9  1  0
  9 10  2  0
 10  1  1  0
 11 10  1  0
 12 16  1  0
 12 13  2  0
 13 14  1  0
 15 17  1  0
 15 14  2  0
 16 15  1  0
 17 22  2  0
 18 19  2  0
 18 17  1  0
 19 20  1  0
 20 21  2  0
 22 21  1  0
  2 23  1  0
  3 24  1  0
  6 25  1  0
  7 26  1  0
  8 27  1  0
 13 28  1  0
 14 29  1  0
 18 30  1  0
 19 31  1  0
 21 32  1  0
M  ISO  8  23  14  24  14  25  14  26  14  27  14  28  14  29  14  30  14
M  ISO  2  31  14  32  14
M  END
>  <minimizedAffinity>  (1) 
-5.97865295

>  <minimizedRMSD>  (1) 
0.776538491

$$$$
