
     RDKit          3D

 27 29  0  0  0  0  0  0  0  0999 V2000
   46.6020   34.1690   43.5450 C   0  0  0  0  0  0  0  0  0  0  0  0
   45.4570   34.8120   43.9550 C   0  0  0  0  0  0  0  0  0  0  0  0
   45.1690   34.4250   45.2610 C   0  0  0  0  0  0  0  0  0  0  0  0
   46.1500   33.5560   45.6020 N   0  0  0  0  0  0  0  0  0  0  0  0
   46.9880   33.4060   44.5990 N   0  0  0  0  0  0  0  0  0  0  0  0
   48.6860   35.3940   40.7730 C   0  0  0  0  0  0  0  0  0  0  0  0
   48.1460   34.6910   39.6860 C   0  0  0  0  0  0  0  0  0  0  0  0
   47.0950   33.8250   39.9130 C   0  0  0  0  0  0  0  0  0  0  0  0
   46.6230   33.6850   41.1870 N   0  0  0  0  0  0  0  0  0  0  0  0
   47.1570   34.3720   42.2210 C   0  0  0  0  0  0  0  0  0  0  0  0
   48.1750   35.2150   42.0220 N   0  0  0  0  0  0  0  0  0  0  0  0
   46.2150   32.9270   46.8740 C   0  0  0  0  0  0  0  0  0  0  0  0
   45.2850   32.6120   47.8540 C   0  0  0  0  0  0  0  0  0  0  0  0
   46.0460   31.9990   48.8450 C   0  0  0  0  0  0  0  0  0  0  0  0
   47.3750   31.9760   48.4220 C   0  0  0  0  0  0  0  0  0  0  0  0
   47.3900   32.5360   47.2630 O   0  0  0  0  0  0  0  0  0  0  0  0
   48.4590   31.4080   49.2080 C   0  0  0  0  0  0  0  0  0  0  0  0
   49.5580   32.0170   49.2600 O   0  0  0  0  0  0  0  0  0  0  0  0
   48.2070   30.2160   49.8570 O   0  0  0  0  0  0  0  0  0  0  0  0
   44.8663   35.5160   43.3505 H   0  0  0  0  0  0  0  0  0  0  0  0
   44.3242   34.7550   45.8835 H   0  0  0  0  0  0  0  0  0  0  0  0
   49.5229   36.0904   40.6161 H   0  0  0  0  0  0  0  0  0  0  0  0
   48.5519   34.8270   38.6727 H   0  0  0  0  0  0  0  0  0  0  0  0
   46.6463   33.2586   39.0836 H   0  0  0  0  0  0  0  0  0  0  0  0
   44.2015   32.8019   47.8490 H   0  0  0  0  0  0  0  0  0  0  0  0
   45.6652   31.6013   49.7973 H   0  0  0  0  0  0  0  0  0  0  0  0
   48.9143   29.7910   50.4040 H   0  0  0  0  0  0  0  0  0  0  0  0
  1  2  1  0
  1  5  2  0
  2  3  2  0
  3  4  1  0
  4 12  1  0
  5  4  1  0
  6 11  2  0
  7  8  2  0
  7  6  1  0
  8  9  1  0
  9 10  2  0
 10  1  1  0
 11 10  1  0
 12 16  1  0
 12 13  2  0
 13 14  1  0
 15 14  2  0
 15 17  1  0
 16 15  1  0
 17 18  2  0
 17 19  1  0
  2 20  1  0
  3 21  1  0
  6 22  1  0
  7 23  1  0
  8 24  1  0
 13 25  1  0
 14 26  1  0
 19 27  1  0
M  ISO  8  20  14  21  14  22  14  23  14  24  14  25  14  26  14  27   3
M  END
>  <minimizedAffinity>  (1) 
-5.84114122

>  <minimizedRMSD>  (1) 
0.201391771

$$$$
