
     RDKit          3D

 39 42  0  0  0  0  0  0  0  0999 V2000
   46.7060   33.9940   43.6530 C   0  0  0  0  0  0  0  0  0  0  0  0
   45.5700   34.6500   44.1290 C   0  0  0  0  0  0  0  0  0  0  0  0
   45.3190   34.2070   45.4170 C   0  0  0  0  0  0  0  0  0  0  0  0
   46.2970   33.3050   45.6850 N   0  0  0  0  0  0  0  0  0  0  0  0
   47.1120   33.1760   44.6570 N   0  0  0  0  0  0  0  0  0  0  0  0
   48.6960   35.3810   40.8860 C   0  0  0  0  0  0  0  0  0  0  0  0
   48.1370   34.7310   39.7750 C   0  0  0  0  0  0  0  0  0  0  0  0
   47.0900   33.8310   40.0020 C   0  0  0  0  0  0  0  0  0  0  0  0
   46.6480   33.6150   41.2790 N   0  0  0  0  0  0  0  0  0  0  0  0
   47.2130   34.2610   42.3170 C   0  0  0  0  0  0  0  0  0  0  0  0
   48.2240   35.1350   42.1410 N   0  0  0  0  0  0  0  0  0  0  0  0
   46.3930   32.6150   46.9240 C   0  0  0  0  0  0  0  0  0  0  0  0
   45.5870   32.5410   48.0520 C   0  0  0  0  0  0  0  0  0  0  0  0
   46.2700   31.6830   48.9000 C   0  0  0  0  0  0  0  0  0  0  0  0
   47.4270   31.2900   48.2610 C   0  0  0  0  0  0  0  0  0  0  0  0
   47.4410   31.8700   47.1040 O   0  0  0  0  0  0  0  0  0  0  0  0
   48.4030   30.4070   48.8020 N   0  0  0  0  0  0  0  0  0  0  0  0
   49.1850   30.6560   49.9980 C   0  0  0  0  0  0  0  0  0  0  0  0
   50.3570   29.7220   50.0100 C   0  0  0  0  0  0  0  0  0  0  0  0
   51.0300   29.5410   48.6860 C   0  0  0  0  0  0  0  0  0  0  0  0
   50.0830   29.3020   47.5370 C   0  0  0  0  0  0  0  0  0  0  0  0
   48.6930   29.1380   48.1610 C   0  0  0  0  0  0  0  0  0  0  0  0
   44.9756   35.3920   43.5758 H   0  0  0  0  0  0  0  0  0  0  0  0
   44.5004   34.5199   46.0819 H   0  0  0  0  0  0  0  0  0  0  0  0
   49.5211   36.0943   40.7431 H   0  0  0  0  0  0  0  0  0  0  0  0
   48.5100   34.9229   38.7581 H   0  0  0  0  0  0  0  0  0  0  0  0
   46.6247   33.2999   39.1585 H   0  0  0  0  0  0  0  0  0  0  0  0
   44.6269   33.0470   48.2316 H   0  0  0  0  0  0  0  0  0  0  0  0
   45.9465   31.3712   49.9040 H   0  0  0  0  0  0  0  0  0  0  0  0
   49.5413   31.6967   49.9971 H   0  0  0  0  0  0  0  0  0  0  0  0
   48.5653   30.4907   50.8917 H   0  0  0  0  0  0  0  0  0  0  0  0
   51.0997   30.1143   50.7203 H   0  0  0  0  0  0  0  0  0  0  0  0
   49.9629   28.7351   50.2940 H   0  0  0  0  0  0  0  0  0  0  0  0
   51.6133   30.4480   48.4690 H   0  0  0  0  0  0  0  0  0  0  0  0
   51.6563   28.6407   48.7710 H   0  0  0  0  0  0  0  0  0  0  0  0
   50.3668   28.3900   46.9914 H   0  0  0  0  0  0  0  0  0  0  0  0
   50.1055   30.1335   46.8172 H   0  0  0  0  0  0  0  0  0  0  0  0
   47.9459   28.9206   47.3835 H   0  0  0  0  0  0  0  0  0  0  0  0
   48.6632   28.3033   48.8768 H   0  0  0  0  0  0  0  0  0  0  0  0
  1  2  1  0
  1  5  2  0
  2  3  2  0
  3  4  1  0
  4 12  1  0
  5  4  1  0
  6 11  2  0
  7  8  2  0
  7  6  1  0
  8  9  1  0
  9 10  2  0
 10  1  1  0
 11 10  1  0
 12 16  1  0
 12 13  2  0
 13 14  1  0
 15 17  1  0
 15 14  2  0
 16 15  1  0
 17 18  1  0
 18 19  1  0
 20 19  1  0
 21 22  1  0
 21 20  1  0
 22 17  1  0
  2 23  1  0
  3 24  1  0
  6 25  1  0
  7 26  1  0
  8 27  1  0
 13 28  1  0
 14 29  1  0
 18 30  1  0
 18 31  1  0
 19 32  1  0
 19 33  1  0
 20 34  1  0
 20 35  1  0
 21 36  1  0
 21 37  1  0
 22 38  1  0
 22 39  1  0
M  ISO  8  23  14  24  14  25  14  26  14  27  14  28  14  29  14  30  13
M  ISO  8  31  13  32  13  33  13  34  13  35  13  36  13  37  13  38  13
M  ISO  1  39  13
M  END
>  <minimizedAffinity>  (1) 
-5.71845388

>  <minimizedRMSD>  (1) 
1.01756144

$$$$
