
     RDKit          3D

 31 34  0  0  0  0  0  0  0  0999 V2000
   46.5640   34.0640   43.8030 C   0  0  0  0  0  0  0  0  0  0  0  0
   45.4620   34.7940   44.2490 C   0  0  0  0  0  0  0  0  0  0  0  0
   45.1510   34.3680   45.5440 C   0  0  0  0  0  0  0  0  0  0  0  0
   46.0650   33.4080   45.8330 N   0  0  0  0  0  0  0  0  0  0  0  0
   46.9030   33.2140   44.8220 N   0  0  0  0  0  0  0  0  0  0  0  0
   48.7060   35.2960   41.0860 C   0  0  0  0  0  0  0  0  0  0  0  0
   48.1130   34.6630   39.9590 C   0  0  0  0  0  0  0  0  0  0  0  0
   47.0170   33.8470   40.1640 C   0  0  0  0  0  0  0  0  0  0  0  0
   46.5430   33.6780   41.4290 N   0  0  0  0  0  0  0  0  0  0  0  0
   47.1230   34.2890   42.4750 C   0  0  0  0  0  0  0  0  0  0  0  0
   48.1870   35.0870   42.3220 N   0  0  0  0  0  0  0  0  0  0  0  0
   46.0800   32.7240   47.0740 C   0  0  0  0  0  0  0  0  0  0  0  0
   45.1090   32.4000   48.0270 C   0  0  0  0  0  0  0  0  0  0  0  0
   45.8350   31.7180   49.0020 C   0  0  0  0  0  0  0  0  0  0  0  0
   47.1630   31.6580   48.6110 C   0  0  0  0  0  0  0  0  0  0  0  0
   47.2220   32.2740   47.4670 O   0  0  0  0  0  0  0  0  0  0  0  0
   48.2390   31.0040   49.4020 C   0  0  0  0  0  0  0  0  0  0  0  0
   49.3100   30.3150   48.5670 C   0  0  0  0  0  0  0  0  0  0  0  0
   49.6230   31.5330   49.3620 C   0  0  0  0  0  0  0  0  0  0  0  0
   44.9297   35.5706   43.6802 H   0  0  0  0  0  0  0  0  0  0  0  0
   44.3391   34.7331   46.1901 H   0  0  0  0  0  0  0  0  0  0  0  0
   49.5801   35.9511   40.9564 H   0  0  0  0  0  0  0  0  0  0  0  0
   48.5173   34.8193   38.9480 H   0  0  0  0  0  0  0  0  0  0  0  0
   46.5335   33.3403   39.3158 H   0  0  0  0  0  0  0  0  0  0  0  0
   44.0330   32.6281   48.0110 H   0  0  0  0  0  0  0  0  0  0  0  0
   45.4214   31.2964   49.9300 H   0  0  0  0  0  0  0  0  0  0  0  0
   47.5583   30.7475   50.2271 H   0  0  0  0  0  0  0  0  0  0  0  0
   49.2727   30.3661   47.4688 H   0  0  0  0  0  0  0  0  0  0  0  0
   49.7177   29.2954   48.5017 H   0  0  0  0  0  0  0  0  0  0  0  0
   50.2633   31.4530   50.2529 H   0  0  0  0  0  0  0  0  0  0  0  0
   50.0640   32.5124   49.1246 H   0  0  0  0  0  0  0  0  0  0  0  0
  1  2  1  0
  1  5  2  0
  2  3  2  0
  3  4  1  0
  4 12  1  0
  5  4  1  0
  6 11  2  0
  7  8  2  0
  7  6  1  0
  8  9  1  0
  9 10  2  0
 10  1  1  0
 11 10  1  0
 12 16  1  0
 12 13  2  0
 13 14  1  0
 15 14  2  0
 15 17  1  0
 16 15  1  0
 18 19  1  0
 18 17  1  0
 19 17  1  0
  2 20  1  0
  3 21  1  0
  6 22  1  0
  7 23  1  0
  8 24  1  0
 13 25  1  0
 14 26  1  0
 17 27  1  0
 18 28  1  0
 18 29  1  0
 19 30  1  0
 19 31  1  0
M  ISO  8  20  14  21  14  22  14  23  14  24  14  25  14  26  14  27  13
M  ISO  4  28  13  29  13  30  13  31  13
M  END
>  <minimizedAffinity>  (1) 
-5.73030758

>  <minimizedRMSD>  (1) 
0.179702327

$$$$
