
     RDKit          3D

 26 28  0  0  0  0  0  0  0  0999 V2000
   46.5420   34.0940   43.8080 C   0  0  0  0  0  0  0  0  0  0  0  0
   45.4440   34.8060   44.2400 C   0  0  0  0  0  0  0  0  0  0  0  0
   45.1270   34.4050   45.5300 C   0  0  0  0  0  0  0  0  0  0  0  0
   46.0410   33.4590   45.8470 N   0  0  0  0  0  0  0  0  0  0  0  0
   46.8790   33.2740   44.8290 N   0  0  0  0  0  0  0  0  0  0  0  0
   48.6890   35.2900   41.0710 C   0  0  0  0  0  0  0  0  0  0  0  0
   48.1130   34.6530   39.9600 C   0  0  0  0  0  0  0  0  0  0  0  0
   47.0070   33.8310   40.1660 C   0  0  0  0  0  0  0  0  0  0  0  0
   46.5260   33.6750   41.4350 N   0  0  0  0  0  0  0  0  0  0  0  0
   47.1050   34.3040   42.4830 C   0  0  0  0  0  0  0  0  0  0  0  0
   48.1670   35.0980   42.3120 N   0  0  0  0  0  0  0  0  0  0  0  0
   46.0820   32.7730   47.0940 C   0  0  0  0  0  0  0  0  0  0  0  0
   45.1020   32.4040   48.0040 C   0  0  0  0  0  0  0  0  0  0  0  0
   45.8320   31.7650   49.0020 C   0  0  0  0  0  0  0  0  0  0  0  0
   47.1690   31.7790   48.6570 C   0  0  0  0  0  0  0  0  0  0  0  0
   47.2400   32.3900   47.5200 O   0  0  0  0  0  0  0  0  0  0  0  0
   48.1890   31.2060   49.4660 N   0  0  0  0  0  0  0  0  0  0  0  0
   44.9063   35.5682   43.6570 H   0  0  0  0  0  0  0  0  0  0  0  0
   44.3066   34.7773   46.1611 H   0  0  0  0  0  0  0  0  0  0  0  0
   49.5629   35.9446   40.9374 H   0  0  0  0  0  0  0  0  0  0  0  0
   48.5253   34.7995   38.9508 H   0  0  0  0  0  0  0  0  0  0  0  0
   46.5287   33.3157   39.3200 H   0  0  0  0  0  0  0  0  0  0  0  0
   44.0166   32.5743   47.9501 H   0  0  0  0  0  0  0  0  0  0  0  0
   45.4122   31.3211   49.9167 H   0  0  0  0  0  0  0  0  0  0  0  0
   49.1717   31.2448   49.1600 H   0  0  0  0  0  0  0  0  0  0  0  0
   47.9449   30.7522   50.3579 H   0  0  0  0  0  0  0  0  0  0  0  0
  1  2  1  0
  1  5  2  0
  2  3  2  0
  3  4  1  0
  4 12  1  0
  5  4  1  0
  6 11  2  0
  7  8  2  0
  7  6  1  0
  8  9  1  0
  9 10  2  0
 10  1  1  0
 11 10  1  0
 12 16  1  0
 12 13  2  0
 13 14  1  0
 15 14  2  0
 15 17  1  0
 16 15  1  0
  2 18  1  0
  3 19  1  0
  6 20  1  0
  7 21  1  0
  8 22  1  0
 13 23  1  0
 14 24  1  0
 17 25  1  0
 17 26  1  0
M  ISO  7  18  14  19  14  20  14  21  14  22  14  23  14  24  14
M  END
>  <minimizedAffinity>  (1) 
-5.63537884

>  <minimizedRMSD>  (1) 
0.128447369

$$$$
