
     RDKit          3D

 36 38  0  0  0  0  0  0  0  0999 V2000
   46.5900   34.1960   43.5590 C   0  0  0  0  0  0  0  0  0  0  0  0
   45.5920   35.0340   44.0590 C   0  0  0  0  0  0  0  0  0  0  0  0
   45.1110   34.4810   45.2480 C   0  0  0  0  0  0  0  0  0  0  0  0
   45.8230   33.3450   45.4270 N   0  0  0  0  0  0  0  0  0  0  0  0
   46.6870   33.1710   44.4470 N   0  0  0  0  0  0  0  0  0  0  0  0
   48.9480   35.6660   41.1560 C   0  0  0  0  0  0  0  0  0  0  0  0
   48.5430   35.0680   39.9510 C   0  0  0  0  0  0  0  0  0  0  0  0
   47.4670   34.1720   39.9910 C   0  0  0  0  0  0  0  0  0  0  0  0
   46.8610   33.9190   41.1890 N   0  0  0  0  0  0  0  0  0  0  0  0
   47.2840   34.5140   42.3190 C   0  0  0  0  0  0  0  0  0  0  0  0
   48.3090   35.3770   42.3230 N   0  0  0  0  0  0  0  0  0  0  0  0
   45.6230   32.4960   46.5360 C   0  0  0  0  0  0  0  0  0  0  0  0
   45.4190   32.6910   47.9030 C   0  0  0  0  0  0  0  0  0  0  0  0
   45.2960   31.4080   48.4150 C   0  0  0  0  0  0  0  0  0  0  0  0
   45.4270   30.5100   47.3730 C   0  0  0  0  0  0  0  0  0  0  0  0
   45.6180   31.2150   46.2920 O   0  0  0  0  0  0  0  0  0  0  0  0
   45.3590   29.0250   47.4860 C   0  0  0  0  0  0  0  0  0  0  0  0
   46.7460   28.4300   47.3380 C   0  0  0  0  0  0  0  0  0  0  0  0
   44.4070   28.4560   46.4590 C   0  0  0  0  0  0  0  0  0  0  0  0
   44.8550   28.6780   48.8700 C   0  0  0  0  0  0  0  0  0  0  0  0
   45.2441   35.9693   43.5962 H   0  0  0  0  0  0  0  0  0  0  0  0
   44.3216   34.8835   45.8998 H   0  0  0  0  0  0  0  0  0  0  0  0
   49.7894   36.3745   41.1567 H   0  0  0  0  0  0  0  0  0  0  0  0
   49.0553   35.2965   39.0048 H   0  0  0  0  0  0  0  0  0  0  0  0
   47.1155   33.6798   39.0722 H   0  0  0  0  0  0  0  0  0  0  0  0
   45.3676   33.6444   48.4493 H   0  0  0  0  0  0  0  0  0  0  0  0
   45.1236   31.1495   49.4702 H   0  0  0  0  0  0  0  0  0  0  0  0
   47.1744   28.2462   48.3344 H   0  0  0  0  0  0  0  0  0  0  0  0
   46.6808   27.4807   46.7861 H   0  0  0  0  0  0  0  0  0  0  0  0
   47.3889   29.1315   46.7861 H   0  0  0  0  0  0  0  0  0  0  0  0
   43.5712   27.9565   46.9708 H   0  0  0  0  0  0  0  0  0  0  0  0
   44.0177   29.2697   45.8294 H   0  0  0  0  0  0  0  0  0  0  0  0
   44.9393   27.7278   45.8294 H   0  0  0  0  0  0  0  0  0  0  0  0
   45.5141   29.1318   49.6247 H   0  0  0  0  0  0  0  0  0  0  0  0
   43.8329   29.0647   48.9957 H   0  0  0  0  0  0  0  0  0  0  0  0
   44.8516   27.5852   48.9957 H   0  0  0  0  0  0  0  0  0  0  0  0
  1  2  1  0
  1  5  2  0
  2  3  2  0
  3  4  1  0
  4 12  1  0
  5  4  1  0
  6 11  2  0
  7  8  2  0
  7  6  1  0
  8  9  1  0
  9 10  2  0
 10 11  1  0
 10  1  1  0
 12 13  2  0
 13 14  1  0
 15 17  1  0
 15 14  2  0
 16 12  1  0
 16 15  1  0
 17 20  1  0
 18 17  1  0
 19 17  1  0
  2 21  1  0
  3 22  1  0
  6 23  1  0
  7 24  1  0
  8 25  1  0
 13 26  1  0
 14 27  1  0
 18 28  1  0
 18 29  1  0
 18 30  1  0
 19 31  1  0
 19 32  1  0
 19 33  1  0
 20 34  1  0
 20 35  1  0
 20 36  1  0
M  ISO  8  21  14  22  14  23  14  24  14  25  14  26  14  27  14  28   8
M  ISO  8  29   8  30   8  31   8  32   8  33   8  34   8  35   8  36   8
M  END
>  <minimizedAffinity>  (1) 
-4.8466711

>  <minimizedRMSD>  (1) 
2.37811422

$$$$
