
     RDKit          3D

 27 29  0  0  0  0  0  0  0  0999 V2000
   46.5970   34.1260   43.6260 C   0  0  0  0  0  0  0  0  0  0  0  0
   45.4760   34.8350   44.0470 C   0  0  0  0  0  0  0  0  0  0  0  0
   45.1740   34.4320   45.3440 C   0  0  0  0  0  0  0  0  0  0  0  0
   46.1190   33.4950   45.6650 N   0  0  0  0  0  0  0  0  0  0  0  0
   46.9580   33.3120   44.6560 N   0  0  0  0  0  0  0  0  0  0  0  0
   48.7060   35.3810   40.8890 C   0  0  0  0  0  0  0  0  0  0  0  0
   48.1670   34.7040   39.7820 C   0  0  0  0  0  0  0  0  0  0  0  0
   47.0930   33.8320   39.9930 C   0  0  0  0  0  0  0  0  0  0  0  0
   46.6090   33.6690   41.2600 N   0  0  0  0  0  0  0  0  0  0  0  0
   47.1550   34.3380   42.2920 C   0  0  0  0  0  0  0  0  0  0  0  0
   48.1870   35.1830   42.1290 N   0  0  0  0  0  0  0  0  0  0  0  0
   46.1440   32.8430   46.9250 C   0  0  0  0  0  0  0  0  0  0  0  0
   45.2060   32.6230   47.9250 C   0  0  0  0  0  0  0  0  0  0  0  0
   45.9150   31.9110   48.8840 C   0  0  0  0  0  0  0  0  0  0  0  0
   47.2090   31.7400   48.4300 C   0  0  0  0  0  0  0  0  0  0  0  0
   47.2680   32.3150   47.2710 O   0  0  0  0  0  0  0  0  0  0  0  0
   48.2430   31.0140   49.2150 C   0  0  0  0  0  0  0  0  0  0  0  0
   44.9252   35.5829   43.4577 H   0  0  0  0  0  0  0  0  0  0  0  0
   44.3497   34.7907   45.9779 H   0  0  0  0  0  0  0  0  0  0  0  0
   49.5500   36.0729   40.7514 H   0  0  0  0  0  0  0  0  0  0  0  0
   48.5794   34.8558   38.7736 H   0  0  0  0  0  0  0  0  0  0  0  0
   46.6447   33.2854   39.1502 H   0  0  0  0  0  0  0  0  0  0  0  0
   44.1523   32.9377   47.9514 H   0  0  0  0  0  0  0  0  0  0  0  0
   45.5149   31.5457   49.8413 H   0  0  0  0  0  0  0  0  0  0  0  0
   48.0499   31.1495   50.2894 H   0  0  0  0  0  0  0  0  0  0  0  0
   48.2058   29.9427   48.9681 H   0  0  0  0  0  0  0  0  0  0  0  0
   49.2380   31.4128   48.9681 H   0  0  0  0  0  0  0  0  0  0  0  0
  1  2  1  0
  1  5  2  0
  2  3  2  0
  3  4  1  0
  4 12  1  0
  5  4  1  0
  6 11  2  0
  7  8  2  0
  7  6  1  0
  8  9  1  0
  9 10  2  0
 10  1  1  0
 11 10  1  0
 12 16  1  0
 12 13  2  0
 13 14  1  0
 15 14  2  0
 15 17  1  0
 16 15  1  0
  2 18  1  0
  3 19  1  0
  6 20  1  0
  7 21  1  0
  8 22  1  0
 13 23  1  0
 14 24  1  0
 17 25  1  0
 17 26  1  0
 17 27  1  0
M  ISO  8  18  14  19  14  20  14  21  14  22  14  23  14  24  14  25   8
M  ISO  2  26   8  27   8
M  END
>  <minimizedAffinity>  (1) 
-5.42744398

>  <minimizedRMSD>  (1) 
0.130377293

$$$$
