
     RDKit          3D

 38 41  0  0  0  0  0  0  0  0999 V2000
   46.7290   33.9690   43.6650 C   0  0  0  0  0  0  0  0  0  0  0  0
   45.5880   34.6120   44.1450 C   0  0  0  0  0  0  0  0  0  0  0  0
   45.3470   34.1670   45.4430 C   0  0  0  0  0  0  0  0  0  0  0  0
   46.3360   33.2800   45.7040 N   0  0  0  0  0  0  0  0  0  0  0  0
   47.1500   33.1590   44.6690 N   0  0  0  0  0  0  0  0  0  0  0  0
   48.6730   35.3620   40.8780 C   0  0  0  0  0  0  0  0  0  0  0  0
   48.1050   34.7050   39.7710 C   0  0  0  0  0  0  0  0  0  0  0  0
   47.0720   33.8030   40.0060 C   0  0  0  0  0  0  0  0  0  0  0  0
   46.6560   33.5940   41.2910 N   0  0  0  0  0  0  0  0  0  0  0  0
   47.2230   34.2400   42.3230 C   0  0  0  0  0  0  0  0  0  0  0  0
   48.2290   35.1270   42.1480 N   0  0  0  0  0  0  0  0  0  0  0  0
   46.4470   32.5980   46.9360 C   0  0  0  0  0  0  0  0  0  0  0  0
   45.6310   32.4870   48.0750 C   0  0  0  0  0  0  0  0  0  0  0  0
   46.3680   31.6520   48.9050 C   0  0  0  0  0  0  0  0  0  0  0  0
   47.5440   31.3050   48.2730 C   0  0  0  0  0  0  0  0  0  0  0  0
   47.5310   31.8900   47.1240 O   0  0  0  0  0  0  0  0  0  0  0  0
   48.5280   30.4560   48.8510 N   0  0  0  0  0  0  0  0  0  0  0  0
   49.2890   30.8880   50.0070 C   0  0  0  0  0  0  0  0  0  0  0  0
   50.7290   30.9890   49.5990 C   0  0  0  0  0  0  0  0  0  0  0  0
   51.0520   30.1290   48.5060 N   0  0  0  0  0  0  0  0  0  0  0  0
   50.2990   28.8910   48.4720 C   0  0  0  0  0  0  0  0  0  0  0  0
   48.8160   29.1380   48.3170 C   0  0  0  0  0  0  0  0  0  0  0  0
   44.9819   35.3453   43.5929 H   0  0  0  0  0  0  0  0  0  0  0  0
   44.5287   34.4711   46.1123 H   0  0  0  0  0  0  0  0  0  0  0  0
   49.4912   36.0794   40.7173 H   0  0  0  0  0  0  0  0  0  0  0  0
   48.4668   34.8987   38.7504 H   0  0  0  0  0  0  0  0  0  0  0  0
   46.5977   33.2667   39.1709 H   0  0  0  0  0  0  0  0  0  0  0  0
   44.6501   32.9480   48.2629 H   0  0  0  0  0  0  0  0  0  0  0  0
   46.0621   31.3198   49.9081 H   0  0  0  0  0  0  0  0  0  0  0  0
   48.9272   31.8695   50.3473 H   0  0  0  0  0  0  0  0  0  0  0  0
   49.1738   30.1697   50.8321 H   0  0  0  0  0  0  0  0  0  0  0  0
   50.9395   32.0276   49.3041 H   0  0  0  0  0  0  0  0  0  0  0  0
   51.3412   30.6791   50.4587 H   0  0  0  0  0  0  0  0  0  0  0  0
   50.8707   30.6399   47.6302 H   0  0  0  0  0  0  0  0  0  0  0  0
   50.6492   28.2848   47.6235 H   0  0  0  0  0  0  0  0  0  0  0  0
   50.4598   28.3677   49.4261 H   0  0  0  0  0  0  0  0  0  0  0  0
   48.5388   29.0964   47.2533 H   0  0  0  0  0  0  0  0  0  0  0  0
   48.2402   28.3709   48.8555 H   0  0  0  0  0  0  0  0  0  0  0  0
  1  2  1  0
  1  5  2  0
  2  3  2  0
  3  4  1  0
  4 12  1  0
  5  4  1  0
  6 11  2  0
  7  8  2  0
  7  6  1  0
  8  9  1  0
  9 10  2  0
 10  1  1  0
 11 10  1  0
 12 16  1  0
 12 13  2  0
 13 14  1  0
 15 17  1  0
 15 14  2  0
 16 15  1  0
 17 18  1  0
 19 18  1  0
 20 19  1  0
 21 20  1  0
 22 21  1  0
 22 17  1  0
  2 23  1  0
  3 24  1  0
  6 25  1  0
  7 26  1  0
  8 27  1  0
 13 28  1  0
 14 29  1  0
 18 30  1  0
 18 31  1  0
 19 32  1  0
 19 33  1  0
 20 34  1  0
 21 35  1  0
 21 36  1  0
 22 37  1  0
 22 38  1  0
M  ISO  8  23  14  24  14  25  14  26  14  27  14  28  14  29  14  30  13
M  ISO  8  31  13  32  13  33  13  34   5  35  13  36  13  37  13  38  13
M  END
>  <minimizedAffinity>  (1) 
-5.60031605

>  <minimizedRMSD>  (1) 
1.17799115

$$$$
