
     RDKit          3D

 44 49  0  0  0  0  0  0  0  0999 V2000
   46.4070   32.6620   47.0950 C   0  0  0  0  0  0  0  0  0  0  0  0
   45.5910   32.4990   48.2050 C   0  0  0  0  0  0  0  0  0  0  0  0
   46.3540   31.7530   49.0830 C   0  0  0  0  0  0  0  0  0  0  0  0
   47.5730   31.4920   48.4950 C   0  0  0  0  0  0  0  0  0  0  0  0
   47.5410   32.0580   47.3210 O   0  0  0  0  0  0  0  0  0  0  0  0
   48.6210   30.7430   49.1110 N   0  0  0  0  0  0  0  0  0  0  0  0
   49.4830   31.0160   50.1220 C   0  0  0  0  0  0  0  0  0  0  0  0
   50.2860   29.9190   50.2960 C   0  0  0  0  0  0  0  0  0  0  0  0
   49.8960   28.9950   49.3850 N   0  0  0  0  0  0  0  0  0  0  0  0
   48.8810   29.4970   48.6620 C   0  0  0  0  0  0  0  0  0  0  0  0
   48.3000   28.6860   47.6260 N   0  0  0  0  0  0  0  0  0  0  0  0
   48.8650   27.6360   46.9820 C   0  0  0  0  0  0  0  0  0  0  0  0
   47.9900   27.1420   46.0760 N   0  0  0  0  0  0  0  0  0  0  0  0
   46.8840   27.9030   46.1740 C   0  0  0  0  0  0  0  0  0  0  0  0
   45.6640   27.9060   45.5290 C   0  0  0  0  0  0  0  0  0  0  0  0
   44.6570   28.7650   45.7690 N   0  0  0  0  0  0  0  0  0  0  0  0
   44.8660   29.6980   46.7180 C   0  0  0  0  0  0  0  0  0  0  0  0
   46.0480   29.7240   47.3660 N   0  0  0  0  0  0  0  0  0  0  0  0
   47.0530   28.8780   47.1380 C   0  0  0  0  0  0  0  0  0  0  0  0
   45.4450   26.9220   44.5300 N   0  0  0  0  0  0  0  0  0  0  0  0
   46.6530   33.9560   43.7780 C   0  0  0  0  0  0  0  0  0  0  0  0
   45.5040   34.5650   44.2410 C   0  0  0  0  0  0  0  0  0  0  0  0
   45.2760   34.1470   45.5520 C   0  0  0  0  0  0  0  0  0  0  0  0
   46.2830   33.3040   45.8420 N   0  0  0  0  0  0  0  0  0  0  0  0
   47.1040   33.1790   44.8120 N   0  0  0  0  0  0  0  0  0  0  0  0
   48.6350   35.2740   40.9820 C   0  0  0  0  0  0  0  0  0  0  0  0
   48.0390   34.6320   39.8860 C   0  0  0  0  0  0  0  0  0  0  0  0
   46.9650   33.7550   40.1210 C   0  0  0  0  0  0  0  0  0  0  0  0
   46.5480   33.5660   41.4100 N   0  0  0  0  0  0  0  0  0  0  0  0
   47.1510   34.2040   42.4230 C   0  0  0  0  0  0  0  0  0  0  0  0
   48.1820   35.0530   42.2540 N   0  0  0  0  0  0  0  0  0  0  0  0
   44.5688   32.8776   48.3527 H   0  0  0  0  0  0  0  0  0  0  0  0
   46.0407   31.4225   50.0843 H   0  0  0  0  0  0  0  0  0  0  0  0
   49.5293   31.9512   50.6994 H   0  0  0  0  0  0  0  0  0  0  0  0
   51.0936   29.8095   51.0348 H   0  0  0  0  0  0  0  0  0  0  0  0
   49.8769   27.2463   47.1670 H   0  0  0  0  0  0  0  0  0  0  0  0
   44.0817   30.4299   46.9613 H   0  0  0  0  0  0  0  0  0  0  0  0
   46.1844   26.2402   44.3079 H   0  0  0  0  0  0  0  0  0  0  0  0
   44.5467   26.8897   44.0271 H   0  0  0  0  0  0  0  0  0  0  0  0
   44.8735   35.2634   43.6712 H   0  0  0  0  0  0  0  0  0  0  0  0
   44.4466   34.4444   46.2105 H   0  0  0  0  0  0  0  0  0  0  0  0
   49.4763   35.9631   40.8167 H   0  0  0  0  0  0  0  0  0  0  0  0
   48.4043   34.8109   38.8640 H   0  0  0  0  0  0  0  0  0  0  0  0
   46.4718   33.2332   39.2877 H   0  0  0  0  0  0  0  0  0  0  0  0
  1  5  1  0
  1  2  2  0
  2  3  1  0
  4  3  2  0
  4  6  1  0
  5  4  1  0
  6  7  1  0
  7  8  2  0
  9  8  1  0
 10  6  1  0
 10  9  2  0
 11 10  1  0
 12 11  1  0
 13 14  1  0
 13 12  2  0
 14 19  2  0
 15 16  2  0
 15 14  1  0
 16 17  1  0
 17 18  2  0
 19 18  1  0
 19 11  1  0
 20 15  1  0
 21 22  1  0
 21 25  2  0
 22 23  2  0
 23 24  1  0
 24  1  1  0
 25 24  1  0
 26 31  2  0
 27 28  2  0
 27 26  1  0
 28 29  1  0
 29 30  2  0
 30 21  1  0
 31 30  1  0
  2 32  1  0
  3 33  1  0
  7 34  1  0
  8 35  1  0
 12 36  1  0
 17 37  1  0
 20 38  1  0
 20 39  1  0
 22 40  1  0
 23 41  1  0
 26 42  1  0
 27 43  1  0
 28 44  1  0
M  ISO  8  32  14  33  14  34  14  35  14  36  14  37  14  40  14  41  14
M  ISO  3  42  14  43  14  44  14
M  END
>  <minimizedAffinity>  (1) 
-6.74050283

>  <minimizedRMSD>  (1) 
1.84534001

$$$$
