
     RDKit          3D

 42 47  0  0  0  0  0  0  0  0999 V2000
   46.3890   32.6940   47.0040 C   0  0  0  0  0  0  0  0  0  0  0  0
   45.5940   32.5960   48.1350 C   0  0  0  0  0  0  0  0  0  0  0  0
   46.3140   31.7940   49.0010 C   0  0  0  0  0  0  0  0  0  0  0  0
   47.4970   31.4360   48.3890 C   0  0  0  0  0  0  0  0  0  0  0  0
   47.4730   32.0030   47.2130 O   0  0  0  0  0  0  0  0  0  0  0  0
   48.4900   30.6160   48.9750 N   0  0  0  0  0  0  0  0  0  0  0  0
   49.3340   30.8040   50.0450 C   0  0  0  0  0  0  0  0  0  0  0  0
   50.1000   29.6660   50.1690 C   0  0  0  0  0  0  0  0  0  0  0  0
   49.7100   28.8160   49.1820 N   0  0  0  0  0  0  0  0  0  0  0  0
   48.7350   29.4020   48.4650 C   0  0  0  0  0  0  0  0  0  0  0  0
   48.2280   28.6190   47.3900 N   0  0  0  0  0  0  0  0  0  0  0  0
   48.7720   27.7020   46.5680 C   0  0  0  0  0  0  0  0  0  0  0  0
   47.8510   27.2460   45.6990 N   0  0  0  0  0  0  0  0  0  0  0  0
   46.6780   27.8730   45.9530 C   0  0  0  0  0  0  0  0  0  0  0  0
   45.4540   27.7380   45.3300 C   0  0  0  0  0  0  0  0  0  0  0  0
   44.4690   28.5120   45.8220 N   0  0  0  0  0  0  0  0  0  0  0  0
   44.6820   29.3620   46.8600 C   0  0  0  0  0  0  0  0  0  0  0  0
   45.8860   29.4770   47.4530 N   0  0  0  0  0  0  0  0  0  0  0  0
   46.9240   28.7170   46.9980 C   0  0  0  0  0  0  0  0  0  0  0  0
   46.6560   33.9970   43.7050 C   0  0  0  0  0  0  0  0  0  0  0  0
   45.5150   34.6330   44.1640 C   0  0  0  0  0  0  0  0  0  0  0  0
   45.2840   34.2080   45.4720 C   0  0  0  0  0  0  0  0  0  0  0  0
   46.2850   33.3370   45.7600 N   0  0  0  0  0  0  0  0  0  0  0  0
   47.1030   33.2000   44.7300 N   0  0  0  0  0  0  0  0  0  0  0  0
   48.6380   35.3100   40.9060 C   0  0  0  0  0  0  0  0  0  0  0  0
   48.0620   34.6550   39.8140 C   0  0  0  0  0  0  0  0  0  0  0  0
   47.0010   33.7720   40.0460 C   0  0  0  0  0  0  0  0  0  0  0  0
   46.5810   33.5930   41.3350 N   0  0  0  0  0  0  0  0  0  0  0  0
   47.1600   34.2390   42.3520 C   0  0  0  0  0  0  0  0  0  0  0  0
   48.1900   35.1060   42.1800 N   0  0  0  0  0  0  0  0  0  0  0  0
   44.6088   33.0545   48.3058 H   0  0  0  0  0  0  0  0  0  0  0  0
   45.9963   31.4918   50.0098 H   0  0  0  0  0  0  0  0  0  0  0  0
   49.3873   31.6981   50.6836 H   0  0  0  0  0  0  0  0  0  0  0  0
   50.8790   29.4802   50.9230 H   0  0  0  0  0  0  0  0  0  0  0  0
   49.8208   27.3721   46.6018 H   0  0  0  0  0  0  0  0  0  0  0  0
   45.2946   27.0460   44.4899 H   0  0  0  0  0  0  0  0  0  0  0  0
   43.8458   29.9750   47.2275 H   0  0  0  0  0  0  0  0  0  0  0  0
   44.8996   35.3472   43.5972 H   0  0  0  0  0  0  0  0  0  0  0  0
   44.4607   34.5150   46.1338 H   0  0  0  0  0  0  0  0  0  0  0  0
   49.4721   36.0065   40.7353 H   0  0  0  0  0  0  0  0  0  0  0  0
   48.4345   34.8297   38.7939 H   0  0  0  0  0  0  0  0  0  0  0  0
   46.5185   33.2370   39.2147 H   0  0  0  0  0  0  0  0  0  0  0  0
  1  5  1  0
  1  2  2  0
  2  3  1  0
  4  6  1  0
  4  3  2  0
  5  4  1  0
  6  7  1  0
  7  8  2  0
  9  8  1  0
 10  6  1  0
 10  9  2  0
 11 10  1  0
 12 11  1  0
 13 14  1  0
 13 12  2  0
 14 19  2  0
 15 16  2  0
 15 14  1  0
 16 17  1  0
 17 18  2  0
 19 11  1  0
 19 18  1  0
 20 21  1  0
 20 24  2  0
 21 22  2  0
 22 23  1  0
 23  1  1  0
 24 23  1  0
 25 30  2  0
 26 27  2  0
 26 25  1  0
 27 28  1  0
 28 29  2  0
 29 20  1  0
 30 29  1  0
  2 31  1  0
  3 32  1  0
  7 33  1  0
  8 34  1  0
 12 35  1  0
 15 36  1  0
 17 37  1  0
 21 38  1  0
 22 39  1  0
 25 40  1  0
 26 41  1  0
 27 42  1  0
M  ISO  8  31  14  32  14  33  14  34  14  35  14  36  14  37  14  38  14
M  ISO  4  39  14  40  14  41  14  42  14
M  END
>  <minimizedAffinity>  (1) 
-6.70438623

>  <minimizedRMSD>  (1) 
1.90854037

$$$$
