
     RDKit          3D

 38 41  0  0  0  0  0  0  0  0999 V2000
   46.3780   32.7400   47.0110 C   0  0  0  0  0  0  0  0  0  0  0  0
   45.5260   32.4940   48.0660 C   0  0  0  0  0  0  0  0  0  0  0  0
   46.3100   31.7990   48.9840 C   0  0  0  0  0  0  0  0  0  0  0  0
   47.5860   31.6560   48.4530 C   0  0  0  0  0  0  0  0  0  0  0  0
   47.5350   32.2350   47.2980 O   0  0  0  0  0  0  0  0  0  0  0  0
   48.6440   30.9970   49.1200 N   0  0  0  0  0  0  0  0  0  0  0  0
   49.6180   31.4340   49.9720 C   0  0  0  0  0  0  0  0  0  0  0  0
   50.3850   30.3470   50.3180 C   0  0  0  0  0  0  0  0  0  0  0  0
   49.8710   29.2630   49.6730 N   0  0  0  0  0  0  0  0  0  0  0  0
   48.8070   29.6770   48.9460 C   0  0  0  0  0  0  0  0  0  0  0  0
   48.0830   28.7150   48.1650 N   0  0  0  0  0  0  0  0  0  0  0  0
   46.9490   28.9810   47.3510 C   0  0  0  0  0  0  0  0  0  0  0  0
   46.7660   30.2470   47.1520 N   0  0  0  0  0  0  0  0  0  0  0  0
   46.1730   27.8690   46.8610 N   0  0  0  0  0  0  0  0  0  0  0  0
   45.9540   30.5350   46.5630 H   0  0  0  0  0  0  0  0  0  0  0  0
   46.6430   34.0400   43.6960 C   0  0  0  0  0  0  0  0  0  0  0  0
   45.5030   34.6690   44.1520 C   0  0  0  0  0  0  0  0  0  0  0  0
   45.2720   34.2460   45.4650 C   0  0  0  0  0  0  0  0  0  0  0  0
   46.2640   33.3870   45.7580 N   0  0  0  0  0  0  0  0  0  0  0  0
   47.0940   33.2450   44.7270 N   0  0  0  0  0  0  0  0  0  0  0  0
   48.6340   35.3170   40.8810 C   0  0  0  0  0  0  0  0  0  0  0  0
   48.0600   34.6430   39.8070 C   0  0  0  0  0  0  0  0  0  0  0  0
   46.9920   33.7510   40.0350 C   0  0  0  0  0  0  0  0  0  0  0  0
   46.5830   33.6050   41.3330 N   0  0  0  0  0  0  0  0  0  0  0  0
   47.1610   34.2720   42.3410 C   0  0  0  0  0  0  0  0  0  0  0  0
   48.1750   35.1240   42.1530 N   0  0  0  0  0  0  0  0  0  0  0  0
   44.4684   32.7810   48.1613 H   0  0  0  0  0  0  0  0  0  0  0  0
   45.9755   31.4265   49.9635 H   0  0  0  0  0  0  0  0  0  0  0  0
   49.7624   32.4680   50.3184 H   0  0  0  0  0  0  0  0  0  0  0  0
   51.2543   30.3517   50.9920 H   0  0  0  0  0  0  0  0  0  0  0  0
   48.4164   27.7410   48.1975 H   0  0  0  0  0  0  0  0  0  0  0  0
   45.3470   28.0383   46.2694 H   0  0  0  0  0  0  0  0  0  0  0  0
   46.4446   26.9053   47.1026 H   0  0  0  0  0  0  0  0  0  0  0  0
   44.8844   35.3786   43.5829 H   0  0  0  0  0  0  0  0  0  0  0  0
   44.4466   34.5535   46.1239 H   0  0  0  0  0  0  0  0  0  0  0  0
   49.4669   36.0132   40.7034 H   0  0  0  0  0  0  0  0  0  0  0  0
   48.4372   34.8052   38.7865 H   0  0  0  0  0  0  0  0  0  0  0  0
   46.5123   33.2008   39.2121 H   0  0  0  0  0  0  0  0  0  0  0  0
  1  5  1  0
  1  2  2  0
  2  3  1  0
  4  3  2  0
  4  6  1  0
  5  4  1  0
  6  7  1  0
  7  8  2  0
  9  8  1  0
 10  6  1  0
 10  9  2  0
 11 10  1  0
 12 11  1  0
 13 12  2  0
 14 12  1  0
 15 13  1  0
 16 17  1  0
 16 20  2  0
 17 18  2  0
 18 19  1  0
 19  1  1  0
 20 19  1  0
 21 26  2  0
 22 23  2  0
 22 21  1  0
 23 24  1  0
 24 25  2  0
 25 16  1  0
 26 25  1  0
  2 27  1  0
  3 28  1  0
  7 29  1  0
  8 30  1  0
 11 31  1  0
 14 32  1  0
 14 33  1  0
 17 34  1  0
 18 35  1  0
 21 36  1  0
 22 37  1  0
 23 38  1  0
M  ISO  8  27  14  28  14  29  14  30  14  34  14  35  14  36  14  37  14
M  ISO  1  38  14
M  END
>  <minimizedAffinity>  (1) 
-6.45079088

>  <minimizedRMSD>  (1) 
0.775134921

$$$$
