
     RDKit          3D

 41 45  0  0  0  0  0  0  0  0999 V2000
   46.3470   32.8010   46.8980 C   0  0  0  0  0  0  0  0  0  0  0  0
   45.4890   32.5970   47.9580 C   0  0  0  0  0  0  0  0  0  0  0  0
   46.2380   31.8850   48.8850 C   0  0  0  0  0  0  0  0  0  0  0  0
   47.5010   31.6910   48.3580 C   0  0  0  0  0  0  0  0  0  0  0  0
   47.4880   32.2600   47.1810 O   0  0  0  0  0  0  0  0  0  0  0  0
   48.5500   31.0020   49.0150 N   0  0  0  0  0  0  0  0  0  0  0  0
   49.4980   31.3820   49.9290 C   0  0  0  0  0  0  0  0  0  0  0  0
   50.2730   30.2910   50.2290 C   0  0  0  0  0  0  0  0  0  0  0  0
   49.7840   29.2680   49.4940 N   0  0  0  0  0  0  0  0  0  0  0  0
   48.7440   29.7000   48.7620 C   0  0  0  0  0  0  0  0  0  0  0  0
   48.1290   28.7160   47.9340 N   0  0  0  0  0  0  0  0  0  0  0  0
   46.9740   28.8320   47.2490 C   0  0  0  0  0  0  0  0  0  0  0  0
   46.5170   27.7740   46.4890 C   0  0  0  0  0  0  0  0  0  0  0  0
   47.2350   26.5930   46.4230 C   0  0  0  0  0  0  0  0  0  0  0  0
   46.7920   25.6330   45.7160 O   0  0  0  0  0  0  0  0  0  0  0  0
   48.3790   26.5260   47.1230 N   0  0  0  0  0  0  0  0  0  0  0  0
   48.8380   27.5500   47.8690 C   0  0  0  0  0  0  0  0  0  0  0  0
   49.9330   27.3290   48.4700 O   0  0  0  0  0  0  0  0  0  0  0  0
   46.6630   34.0730   43.5730 C   0  0  0  0  0  0  0  0  0  0  0  0
   45.5000   34.7100   44.0180 C   0  0  0  0  0  0  0  0  0  0  0  0
   45.2530   34.2950   45.3330 C   0  0  0  0  0  0  0  0  0  0  0  0
   46.2430   33.4410   45.6430 N   0  0  0  0  0  0  0  0  0  0  0  0
   47.0860   33.2960   44.6170 N   0  0  0  0  0  0  0  0  0  0  0  0
   48.6670   35.3810   40.7970 C   0  0  0  0  0  0  0  0  0  0  0  0
   48.1130   34.7020   39.7000 C   0  0  0  0  0  0  0  0  0  0  0  0
   47.0690   33.8130   39.9330 C   0  0  0  0  0  0  0  0  0  0  0  0
   46.6200   33.6310   41.2120 N   0  0  0  0  0  0  0  0  0  0  0  0
   47.1810   34.3040   42.2300 C   0  0  0  0  0  0  0  0  0  0  0  0
   48.1940   35.1750   42.0580 N   0  0  0  0  0  0  0  0  0  0  0  0
   44.4431   32.9255   48.0489 H   0  0  0  0  0  0  0  0  0  0  0  0
   45.8875   31.5361   49.8675 H   0  0  0  0  0  0  0  0  0  0  0  0
   49.6171   32.3910   50.3505 H   0  0  0  0  0  0  0  0  0  0  0  0
   51.1220   30.2558   50.9275 H   0  0  0  0  0  0  0  0  0  0  0  0
   46.3970   29.7674   47.2954 H   0  0  0  0  0  0  0  0  0  0  0  0
   45.5739   27.8707   45.9311 H   0  0  0  0  0  0  0  0  0  0  0  0
   48.9286   25.6556   47.0882 H   0  0  0  0  0  0  0  0  0  0  0  0
   44.8864   35.4140   43.4368 H   0  0  0  0  0  0  0  0  0  0  0  0
   44.4189   34.6050   45.9797 H   0  0  0  0  0  0  0  0  0  0  0  0
   49.4938   36.0886   40.6362 H   0  0  0  0  0  0  0  0  0  0  0  0
   48.4950   34.8689   38.6820 H   0  0  0  0  0  0  0  0  0  0  0  0
   46.6099   33.2628   39.0984 H   0  0  0  0  0  0  0  0  0  0  0  0
  1  5  1  0
  1  2  2  0
  2  3  1  0
  4  3  2  0
  4  6  1  0
  5  4  1  0
  6  7  1  0
  7  8  2  0
  9  8  1  0
 10  6  1  0
 10  9  2  0
 11 10  1  0
 12 11  1  0
 13 12  2  0
 14 13  1  0
 14 16  1  0
 15 14  2  0
 16 17  1  0
 17 11  1  0
 17 18  2  0
 19 20  1  0
 19 23  2  0
 20 21  2  0
 21 22  1  0
 22  1  1  0
 23 22  1  0
 24 29  2  0
 25 26  2  0
 25 24  1  0
 26 27  1  0
 27 28  2  0
 28 19  1  0
 29 28  1  0
  2 30  1  0
  3 31  1  0
  7 32  1  0
  8 33  1  0
 12 34  1  0
 13 35  1  0
 16 36  1  0
 20 37  1  0
 21 38  1  0
 24 39  1  0
 25 40  1  0
 26 41  1  0
M  ISO  8  30  14  31  14  32  14  33  14  34  14  35  14  36   9  37  14
M  ISO  4  38  14  39  14  40  14  41  14
M  END
>  <minimizedAffinity>  (1) 
-6.40387297

>  <minimizedRMSD>  (1) 
1.55013406

$$$$
