
     RDKit          3D

 32 35  0  0  0  0  0  0  0  0999 V2000
   46.6690   34.0140   43.6930 C   0  0  0  0  0  0  0  0  0  0  0  0
   45.5180   34.6450   44.1550 C   0  0  0  0  0  0  0  0  0  0  0  0
   45.2860   34.2280   45.4640 C   0  0  0  0  0  0  0  0  0  0  0  0
   46.2820   33.3720   45.7580 N   0  0  0  0  0  0  0  0  0  0  0  0
   47.1050   33.2360   44.7250 N   0  0  0  0  0  0  0  0  0  0  0  0
   48.6530   35.3300   40.9070 C   0  0  0  0  0  0  0  0  0  0  0  0
   48.0700   34.6670   39.8040 C   0  0  0  0  0  0  0  0  0  0  0  0
   47.0150   33.7880   40.0420 C   0  0  0  0  0  0  0  0  0  0  0  0
   46.5860   33.6010   41.3220 N   0  0  0  0  0  0  0  0  0  0  0  0
   47.1710   34.2550   42.3420 C   0  0  0  0  0  0  0  0  0  0  0  0
   48.1880   35.1090   42.1620 N   0  0  0  0  0  0  0  0  0  0  0  0
   46.4010   32.7270   47.0030 C   0  0  0  0  0  0  0  0  0  0  0  0
   45.5410   32.4410   48.0560 C   0  0  0  0  0  0  0  0  0  0  0  0
   46.3180   31.7770   48.9810 C   0  0  0  0  0  0  0  0  0  0  0  0
   47.6100   31.6810   48.4740 C   0  0  0  0  0  0  0  0  0  0  0  0
   47.5740   32.2590   47.3170 O   0  0  0  0  0  0  0  0  0  0  0  0
   48.6910   31.0540   49.1580 N   0  0  0  0  0  0  0  0  0  0  0  0
   49.6660   31.5300   49.9720 C   0  0  0  0  0  0  0  0  0  0  0  0
   50.4510   30.4730   50.3540 C   0  0  0  0  0  0  0  0  0  0  0  0
   49.9360   29.3760   49.7640 N   0  0  0  0  0  0  0  0  0  0  0  0
   48.8520   29.7180   49.0250 C   0  0  0  0  0  0  0  0  0  0  0  0
   48.2080   28.6860   48.3510 O   0  0  0  0  0  0  0  0  0  0  0  0
   44.8976   35.3519   43.5845 H   0  0  0  0  0  0  0  0  0  0  0  0
   44.4593   34.5351   46.1215 H   0  0  0  0  0  0  0  0  0  0  0  0
   49.4877   36.0285   40.7474 H   0  0  0  0  0  0  0  0  0  0  0  0
   48.4397   34.8403   38.7826 H   0  0  0  0  0  0  0  0  0  0  0  0
   46.5356   33.2530   39.2090 H   0  0  0  0  0  0  0  0  0  0  0  0
   44.4725   32.6902   48.1345 H   0  0  0  0  0  0  0  0  0  0  0  0
   45.9757   31.3900   49.9521 H   0  0  0  0  0  0  0  0  0  0  0  0
   49.8027   32.5792   50.2726 H   0  0  0  0  0  0  0  0  0  0  0  0
   51.3303   30.5125   51.0138 H   0  0  0  0  0  0  0  0  0  0  0  0
   48.5459   27.7586   48.4268 H   0  0  0  0  0  0  0  0  0  0  0  0
  1  2  1  0
  1  5  2  0
  2  3  2  0
  3  4  1  0
  4 12  1  0
  5  4  1  0
  6 11  2  0
  7  8  2  0
  7  6  1  0
  8  9  1  0
  9 10  2  0
 10  1  1  0
 11 10  1  0
 12 16  1  0
 12 13  2  0
 13 14  1  0
 15 14  2  0
 15 17  1  0
 16 15  1  0
 17 18  1  0
 18 19  2  0
 20 19  1  0
 21 17  1  0
 21 20  2  0
 22 21  1  0
  2 23  1  0
  3 24  1  0
  6 25  1  0
  7 26  1  0
  8 27  1  0
 13 28  1  0
 14 29  1  0
 18 30  1  0
 19 31  1  0
 22 32  1  0
M  ISO  8  23  14  24  14  25  14  26  14  27  14  28  14  29  14  30  14
M  ISO  2  31  14  32   3
M  END
>  <minimizedAffinity>  (1) 
-5.95639467

>  <minimizedRMSD>  (1) 
0.482851297

$$$$
