
     RDKit          3D

 41 45  0  0  0  0  0  0  0  0999 V2000
   46.3650   32.6960   46.9680 C   0  0  0  0  0  0  0  0  0  0  0  0
   45.5370   32.5390   48.0660 C   0  0  0  0  0  0  0  0  0  0  0  0
   46.2640   31.7580   48.9470 C   0  0  0  0  0  0  0  0  0  0  0  0
   47.4900   31.4730   48.3620 C   0  0  0  0  0  0  0  0  0  0  0  0
   47.4750   32.0570   47.2060 O   0  0  0  0  0  0  0  0  0  0  0  0
   46.6720   34.0200   43.6740 C   0  0  0  0  0  0  0  0  0  0  0  0
   45.5340   34.6790   44.1440 C   0  0  0  0  0  0  0  0  0  0  0  0
   45.2930   34.2460   45.4510 C   0  0  0  0  0  0  0  0  0  0  0  0
   46.2660   33.3600   45.7300 N   0  0  0  0  0  0  0  0  0  0  0  0
   47.0900   33.2130   44.6940 N   0  0  0  0  0  0  0  0  0  0  0  0
   48.6550   35.3500   40.8860 C   0  0  0  0  0  0  0  0  0  0  0  0
   48.0920   34.6900   39.7930 C   0  0  0  0  0  0  0  0  0  0  0  0
   47.0450   33.8060   40.0290 C   0  0  0  0  0  0  0  0  0  0  0  0
   46.6040   33.6090   41.3090 N   0  0  0  0  0  0  0  0  0  0  0  0
   47.1770   34.2660   42.3330 C   0  0  0  0  0  0  0  0  0  0  0  0
   48.1880   35.1260   42.1420 N   0  0  0  0  0  0  0  0  0  0  0  0
   48.4980   30.6920   48.9790 N   0  0  0  0  0  0  0  0  0  0  0  0
   49.3180   30.9180   50.0590 C   0  0  0  0  0  0  0  0  0  0  0  0
   50.1080   29.7960   50.2010 C   0  0  0  0  0  0  0  0  0  0  0  0
   49.7550   28.9230   49.2180 N   0  0  0  0  0  0  0  0  0  0  0  0
   48.7790   29.4750   48.4820 C   0  0  0  0  0  0  0  0  0  0  0  0
   48.2280   28.7220   47.3540 C   0  0  0  0  0  0  0  0  0  0  0  0
   47.0840   27.9500   47.2960 C   0  0  0  0  0  0  0  0  0  0  0  0
   46.7650   27.3300   46.1050 C   0  0  0  0  0  0  0  0  0  0  0  0
   47.5550   27.4590   44.9820 C   0  0  0  0  0  0  0  0  0  0  0  0
   48.7050   28.2300   45.0320 C   0  0  0  0  0  0  0  0  0  0  0  0
   49.0280   28.8540   46.2170 C   0  0  0  0  0  0  0  0  0  0  0  0
   44.5246   32.9454   48.2071 H   0  0  0  0  0  0  0  0  0  0  0  0
   45.9285   31.4214   49.9390 H   0  0  0  0  0  0  0  0  0  0  0  0
   44.9328   35.4104   43.5840 H   0  0  0  0  0  0  0  0  0  0  0  0
   44.4757   34.5643   46.1149 H   0  0  0  0  0  0  0  0  0  0  0  0
   49.4831   36.0569   40.7295 H   0  0  0  0  0  0  0  0  0  0  0  0
   48.4660   34.8642   38.7733 H   0  0  0  0  0  0  0  0  0  0  0  0
   46.5745   33.2688   39.1923 H   0  0  0  0  0  0  0  0  0  0  0  0
   49.3400   31.8197   50.6886 H   0  0  0  0  0  0  0  0  0  0  0  0
   50.8808   29.6362   50.9674 H   0  0  0  0  0  0  0  0  0  0  0  0
   46.4408   27.8319   48.1805 H   0  0  0  0  0  0  0  0  0  0  0  0
   45.8545   26.7153   46.0499 H   0  0  0  0  0  0  0  0  0  0  0  0
   47.2726   26.9507   44.0483 H   0  0  0  0  0  0  0  0  0  0  0  0
   49.3460   28.3415   44.1451 H   0  0  0  0  0  0  0  0  0  0  0  0
   49.9374   29.4707   46.2688 H   0  0  0  0  0  0  0  0  0  0  0  0
  1  5  1  0
  1  2  2  0
  2  3  1  0
  4  3  2  0
  4 17  1  0
  5  4  1  0
  6  7  1  0
  6 10  2  0
  7  8  2  0
  8  9  1  0
  9  1  1  0
 10  9  1  0
 11 16  2  0
 12 13  2  0
 12 11  1  0
 13 14  1  0
 14 15  2  0
 15  6  1  0
 16 15  1  0
 17 18  1  0
 18 19  2  0
 20 19  1  0
 21 17  1  0
 21 20  2  0
 22 21  1  0
 23 22  2  0
 24 23  1  0
 25 26  1  0
 25 24  2  0
 26 27  2  0
 27 22  1  0
  2 28  1  0
  3 29  1  0
  7 30  1  0
  8 31  1  0
 11 32  1  0
 12 33  1  0
 13 34  1  0
 18 35  1  0
 19 36  1  0
 23 37  1  0
 24 38  1  0
 25 39  1  0
 26 40  1  0
 27 41  1  0
M  ISO  8  28  14  29  14  30  14  31  14  32  14  33  14  34  14  35  14
M  ISO  6  36  14  37  14  38  14  39  14  40  14  41  14
M  END
>  <minimizedAffinity>  (1) 
-5.94328499

>  <minimizedRMSD>  (1) 
1.79207969

$$$$
