
     RDKit          3D

 38 42  0  0  0  0  0  0  0  0999 V2000
   46.3160   32.7810   46.8950 C   0  0  0  0  0  0  0  0  0  0  0  0
   45.4750   32.6110   47.9750 C   0  0  0  0  0  0  0  0  0  0  0  0
   46.2040   31.8730   48.8850 C   0  0  0  0  0  0  0  0  0  0  0  0
   47.4480   31.6190   48.3440 C   0  0  0  0  0  0  0  0  0  0  0  0
   47.4440   32.1880   47.1640 O   0  0  0  0  0  0  0  0  0  0  0  0
   48.4810   30.8850   48.9880 N   0  0  0  0  0  0  0  0  0  0  0  0
   49.3820   31.1700   49.9600 C   0  0  0  0  0  0  0  0  0  0  0  0
   50.1510   30.0630   50.1910 C   0  0  0  0  0  0  0  0  0  0  0  0
   49.7060   29.1110   49.3520 N   0  0  0  0  0  0  0  0  0  0  0  0
   48.6830   29.5990   48.6070 C   0  0  0  0  0  0  0  0  0  0  0  0
   48.0950   28.7000   47.6560 N   0  0  0  0  0  0  0  0  0  0  0  0
   48.6450   27.7430   46.9280 N   0  0  0  0  0  0  0  0  0  0  0  0
   47.6460   27.2080   46.2060 C   0  0  0  0  0  0  0  0  0  0  0  0
   46.4260   27.8350   46.4790 C   0  0  0  0  0  0  0  0  0  0  0  0
   46.7640   28.7890   47.4180 C   0  0  0  0  0  0  0  0  0  0  0  0
   46.6700   34.0550   43.5810 C   0  0  0  0  0  0  0  0  0  0  0  0
   45.5160   34.7060   44.0290 C   0  0  0  0  0  0  0  0  0  0  0  0
   45.2590   34.2910   45.3370 C   0  0  0  0  0  0  0  0  0  0  0  0
   46.2530   33.4120   45.6370 N   0  0  0  0  0  0  0  0  0  0  0  0
   47.0830   33.2660   44.6200 N   0  0  0  0  0  0  0  0  0  0  0  0
   48.6830   35.3870   40.8230 C   0  0  0  0  0  0  0  0  0  0  0  0
   48.1240   34.7080   39.7190 C   0  0  0  0  0  0  0  0  0  0  0  0
   47.0740   33.8110   39.9430 C   0  0  0  0  0  0  0  0  0  0  0  0
   46.6260   33.6260   41.2240 N   0  0  0  0  0  0  0  0  0  0  0  0
   47.1850   34.2920   42.2440 C   0  0  0  0  0  0  0  0  0  0  0  0
   48.2050   35.1700   42.0780 N   0  0  0  0  0  0  0  0  0  0  0  0
   44.4459   32.9832   48.0867 H   0  0  0  0  0  0  0  0  0  0  0  0
   45.8531   31.5431   49.8739 H   0  0  0  0  0  0  0  0  0  0  0  0
   49.4788   32.1352   50.4788 H   0  0  0  0  0  0  0  0  0  0  0  0
   50.9707   29.9698   50.9186 H   0  0  0  0  0  0  0  0  0  0  0  0
   47.7718   26.3817   45.4909 H   0  0  0  0  0  0  0  0  0  0  0  0
   45.4364   27.6200   46.0494 H   0  0  0  0  0  0  0  0  0  0  0  0
   46.0712   29.4999   47.8920 H   0  0  0  0  0  0  0  0  0  0  0  0
   44.9142   35.4221   43.4501 H   0  0  0  0  0  0  0  0  0  0  0  0
   44.4295   34.6073   45.9866 H   0  0  0  0  0  0  0  0  0  0  0  0
   49.5099   36.0957   40.6677 H   0  0  0  0  0  0  0  0  0  0  0  0
   48.5065   34.8808   38.7022 H   0  0  0  0  0  0  0  0  0  0  0  0
   46.6165   33.2641   39.1054 H   0  0  0  0  0  0  0  0  0  0  0  0
  1  5  1  0
  1  2  2  0
  2  3  1  0
  4  3  2  0
  4  6  1  0
  5  4  1  0
  6  7  1  0
  7  8  2  0
  9  8  1  0
 10  6  1  0
 10  9  2  0
 11 10  1  0
 12 11  1  0
 13 14  1  0
 13 12  2  0
 14 15  2  0
 15 11  1  0
 16 17  1  0
 16 20  2  0
 17 18  2  0
 18 19  1  0
 19  1  1  0
 20 19  1  0
 21 26  2  0
 22 23  2  0
 22 21  1  0
 23 24  1  0
 24 25  2  0
 25 16  1  0
 26 25  1  0
  2 27  1  0
  3 28  1  0
  7 29  1  0
  8 30  1  0
 13 31  1  0
 14 32  1  0
 15 33  1  0
 17 34  1  0
 18 35  1  0
 21 36  1  0
 22 37  1  0
 23 38  1  0
M  ISO  8  27  14  28  14  29  14  30  14  31  14  32  14  33  14  34  14
M  ISO  4  35  14  36  14  37  14  38  14
M  END
>  <minimizedAffinity>  (1) 
-6.179914

>  <minimizedRMSD>  (1) 
1.35001969

$$$$
