
     RDKit          3D

 40 43  0  0  0  0  0  0  0  0999 V2000
   46.3070   32.7250   46.8900 C   0  0  0  0  0  0  0  0  0  0  0  0
   45.4550   32.5760   47.9750 C   0  0  0  0  0  0  0  0  0  0  0  0
   46.1710   31.7840   48.8620 C   0  0  0  0  0  0  0  0  0  0  0  0
   47.3950   31.4910   48.2980 C   0  0  0  0  0  0  0  0  0  0  0  0
   47.3930   32.0810   47.1440 O   0  0  0  0  0  0  0  0  0  0  0  0
   46.6670   34.0630   43.5990 C   0  0  0  0  0  0  0  0  0  0  0  0
   45.5280   34.7290   44.0610 C   0  0  0  0  0  0  0  0  0  0  0  0
   45.2700   34.2900   45.3630 C   0  0  0  0  0  0  0  0  0  0  0  0
   46.2360   33.3910   45.6510 N   0  0  0  0  0  0  0  0  0  0  0  0
   47.0730   33.2430   44.6190 N   0  0  0  0  0  0  0  0  0  0  0  0
   48.6880   35.3900   40.8410 C   0  0  0  0  0  0  0  0  0  0  0  0
   48.1380   34.7180   39.7450 C   0  0  0  0  0  0  0  0  0  0  0  0
   47.0780   33.8150   39.9600 C   0  0  0  0  0  0  0  0  0  0  0  0
   46.6410   33.6420   41.2400 N   0  0  0  0  0  0  0  0  0  0  0  0
   47.1950   34.3070   42.2640 C   0  0  0  0  0  0  0  0  0  0  0  0
   48.2060   35.1750   42.0960 N   0  0  0  0  0  0  0  0  0  0  0  0
   48.4010   30.6980   48.9180 N   0  0  0  0  0  0  0  0  0  0  0  0
   49.2060   30.8730   49.9920 C   0  0  0  0  0  0  0  0  0  0  0  0
   49.9930   29.7570   50.1220 C   0  0  0  0  0  0  0  0  0  0  0  0
   49.6510   28.9120   49.1140 N   0  0  0  0  0  0  0  0  0  0  0  0
   48.6800   29.4920   48.3810 C   0  0  0  0  0  0  0  0  0  0  0  0
   48.1540   28.7310   47.2150 C   0  0  0  0  0  0  0  0  0  0  0  0
   46.6380   28.5640   47.3260 C   0  0  0  0  0  0  0  0  0  0  0  0
   48.5640   29.3050   45.9040 C   0  0  0  0  0  0  0  0  0  0  0  0
   44.4441   32.9904   48.1029 H   0  0  0  0  0  0  0  0  0  0  0  0
   45.8210   31.4468   49.8488 H   0  0  0  0  0  0  0  0  0  0  0  0
   44.9385   35.4684   43.4990 H   0  0  0  0  0  0  0  0  0  0  0  0
   44.4477   34.6113   46.0192 H   0  0  0  0  0  0  0  0  0  0  0  0
   49.5162   36.0976   40.6881 H   0  0  0  0  0  0  0  0  0  0  0  0
   48.5268   34.8916   38.7308 H   0  0  0  0  0  0  0  0  0  0  0  0
   46.6185   33.2681   39.1235 H   0  0  0  0  0  0  0  0  0  0  0  0
   49.2257   31.7566   50.6468 H   0  0  0  0  0  0  0  0  0  0  0  0
   50.7555   29.5798   50.8948 H   0  0  0  0  0  0  0  0  0  0  0  0
   48.6138   27.7322   47.2463 H   0  0  0  0  0  0  0  0  0  0  0  0
   46.3493   28.5322   48.3870 H   0  0  0  0  0  0  0  0  0  0  0  0
   46.1387   29.4126   46.8354 H   0  0  0  0  0  0  0  0  0  0  0  0
   46.3354   27.6271   46.8354 H   0  0  0  0  0  0  0  0  0  0  0  0
   49.1958   30.1895   46.0725 H   0  0  0  0  0  0  0  0  0  0  0  0
   49.1304   28.5528   45.3354 H   0  0  0  0  0  0  0  0  0  0  0  0
   47.6687   29.5968   45.3354 H   0  0  0  0  0  0  0  0  0  0  0  0
  1  5  1  0
  1  2  2  0
  2  3  1  0
  4  3  2  0
  4 17  1  0
  5  4  1  0
  6  7  1  0
  6 10  2  0
  7  8  2  0
  8  9  1  0
  9  1  1  0
 10  9  1  0
 11 16  2  0
 12 13  2  0
 12 11  1  0
 13 14  1  0
 14 15  2  0
 15  6  1  0
 16 15  1  0
 17 18  1  0
 18 19  2  0
 20 19  1  0
 21 17  1  0
 21 20  2  0
 22 23  1  0
 22 21  1  0
 24 22  1  0
  2 25  1  0
  3 26  1  0
  7 27  1  0
  8 28  1  0
 11 29  1  0
 12 30  1  0
 13 31  1  0
 18 32  1  0
 19 33  1  0
 22 34  1  0
 23 35  1  0
 23 36  1  0
 23 37  1  0
 24 38  1  0
 24 39  1  0
 24 40  1  0
M  ISO  8  25  14  26  14  27  14  28  14  29  14  30  14  31  14  32  14
M  ISO  8  33  14  34   8  35   8  36   8  37   8  38   8  39   8  40   8
M  END
>  <minimizedAffinity>  (1) 
-5.85708189

>  <minimizedRMSD>  (1) 
1.13799107

$$$$
