
     RDKit          3D

 38 42  0  0  0  0  0  0  0  0999 V2000
   46.3720   32.6720   46.9740 C   0  0  0  0  0  0  0  0  0  0  0  0
   45.5360   32.5110   48.0730 C   0  0  0  0  0  0  0  0  0  0  0  0
   46.2640   31.7280   48.9480 C   0  0  0  0  0  0  0  0  0  0  0  0
   47.4880   31.4490   48.3660 C   0  0  0  0  0  0  0  0  0  0  0  0
   47.4740   32.0390   47.2060 O   0  0  0  0  0  0  0  0  0  0  0  0
   46.6730   34.0120   43.6840 C   0  0  0  0  0  0  0  0  0  0  0  0
   45.5400   34.6660   44.1640 C   0  0  0  0  0  0  0  0  0  0  0  0
   45.3010   34.2290   45.4660 C   0  0  0  0  0  0  0  0  0  0  0  0
   46.2720   33.3420   45.7390 N   0  0  0  0  0  0  0  0  0  0  0  0
   47.0870   33.2010   44.7040 N   0  0  0  0  0  0  0  0  0  0  0  0
   48.6610   35.3450   40.9110 C   0  0  0  0  0  0  0  0  0  0  0  0
   48.0920   34.6940   39.8180 C   0  0  0  0  0  0  0  0  0  0  0  0
   47.0280   33.7970   40.0310 C   0  0  0  0  0  0  0  0  0  0  0  0
   46.6000   33.6100   41.3190 N   0  0  0  0  0  0  0  0  0  0  0  0
   47.1780   34.2600   42.3430 C   0  0  0  0  0  0  0  0  0  0  0  0
   48.1910   35.1160   42.1620 N   0  0  0  0  0  0  0  0  0  0  0  0
   48.5000   30.6630   48.9810 N   0  0  0  0  0  0  0  0  0  0  0  0
   49.3130   30.8690   50.0510 C   0  0  0  0  0  0  0  0  0  0  0  0
   50.1130   29.7670   50.2080 C   0  0  0  0  0  0  0  0  0  0  0  0
   49.7660   28.9020   49.2160 N   0  0  0  0  0  0  0  0  0  0  0  0
   48.7850   29.4450   48.4690 C   0  0  0  0  0  0  0  0  0  0  0  0
   48.2220   28.7210   47.3310 C   0  0  0  0  0  0  0  0  0  0  0  0
   47.2080   27.8520   47.2660 C   0  0  0  0  0  0  0  0  0  0  0  0
   46.8510   27.2900   46.0670 C   0  0  0  0  0  0  0  0  0  0  0  0
   47.6220   27.6950   44.9500 C   0  0  0  0  0  0  0  0  0  0  0  0
   48.8550   28.8960   45.6870 S   0  0  0  0  0  0  0  0  0  0  0  0
   44.5230   32.9159   48.2141 H   0  0  0  0  0  0  0  0  0  0  0  0
   45.9282   31.3851   49.9378 H   0  0  0  0  0  0  0  0  0  0  0  0
   44.9375   35.4011   43.6104 H   0  0  0  0  0  0  0  0  0  0  0  0
   44.4852   34.5454   46.1326 H   0  0  0  0  0  0  0  0  0  0  0  0
   49.4941   36.0469   40.7583 H   0  0  0  0  0  0  0  0  0  0  0  0
   48.4695   34.8787   38.8015 H   0  0  0  0  0  0  0  0  0  0  0  0
   46.5564   33.2645   39.1920 H   0  0  0  0  0  0  0  0  0  0  0  0
   49.3266   31.7684   50.6841 H   0  0  0  0  0  0  0  0  0  0  0  0
   50.8809   29.6128   50.9803 H   0  0  0  0  0  0  0  0  0  0  0  0
   46.6566   27.5861   48.1799 H   0  0  0  0  0  0  0  0  0  0  0  0
   46.0216   26.5729   45.9787 H   0  0  0  0  0  0  0  0  0  0  0  0
   47.5207   27.3796   43.9011 H   0  0  0  0  0  0  0  0  0  0  0  0
  1  5  1  0
  1  2  2  0
  2  3  1  0
  4  3  2  0
  4 17  1  0
  5  4  1  0
  6  7  1  0
  6 10  2  0
  7  8  2  0
  8  9  1  0
  9  1  1  0
 10  9  1  0
 11 16  2  0
 12 13  2  0
 12 11  1  0
 13 14  1  0
 14 15  2  0
 15  6  1  0
 16 15  1  0
 17 18  1  0
 18 19  2  0
 20 19  1  0
 21 17  1  0
 21 20  2  0
 22 21  1  0
 23 22  2  0
 24 23  1  0
 25 26  1  0
 25 24  2  0
 26 22  1  0
  2 27  1  0
  3 28  1  0
  7 29  1  0
  8 30  1  0
 11 31  1  0
 12 32  1  0
 13 33  1  0
 18 34  1  0
 19 35  1  0
 23 36  1  0
 24 37  1  0
 25 38  1  0
M  ISO  8  27  14  28  14  29  14  30  14  31  14  32  14  33  14  34  14
M  ISO  4  35  14  36  14  37  14  38  14
M  END
>  <minimizedAffinity>  (1) 
-5.86255598

>  <minimizedRMSD>  (1) 
1.68654215

$$$$
