
     RDKit          3D

 37 41  0  0  0  0  0  0  0  0999 V2000
   46.3740   32.6820   46.9180 C   0  0  0  0  0  0  0  0  0  0  0  0
   45.5560   32.5310   48.0160 C   0  0  0  0  0  0  0  0  0  0  0  0
   46.2830   31.7620   48.9000 C   0  0  0  0  0  0  0  0  0  0  0  0
   47.4990   31.4680   48.3260 C   0  0  0  0  0  0  0  0  0  0  0  0
   47.4760   32.0440   47.1650 O   0  0  0  0  0  0  0  0  0  0  0  0
   46.6920   34.0080   43.6310 C   0  0  0  0  0  0  0  0  0  0  0  0
   45.5530   34.6700   44.0980 C   0  0  0  0  0  0  0  0  0  0  0  0
   45.3060   34.2340   45.3980 C   0  0  0  0  0  0  0  0  0  0  0  0
   46.2940   33.3290   45.6720 N   0  0  0  0  0  0  0  0  0  0  0  0
   47.1170   33.1850   44.6420 N   0  0  0  0  0  0  0  0  0  0  0  0
   48.6900   35.3800   40.8720 C   0  0  0  0  0  0  0  0  0  0  0  0
   48.1330   34.7250   39.7720 C   0  0  0  0  0  0  0  0  0  0  0  0
   47.0760   33.8160   39.9870 C   0  0  0  0  0  0  0  0  0  0  0  0
   46.6350   33.6100   41.2700 N   0  0  0  0  0  0  0  0  0  0  0  0
   47.2030   34.2650   42.2910 C   0  0  0  0  0  0  0  0  0  0  0  0
   48.2210   35.1460   42.1240 N   0  0  0  0  0  0  0  0  0  0  0  0
   48.5040   30.6880   48.9570 N   0  0  0  0  0  0  0  0  0  0  0  0
   49.3270   30.9460   50.0400 C   0  0  0  0  0  0  0  0  0  0  0  0
   50.1150   29.8690   50.2510 C   0  0  0  0  0  0  0  0  0  0  0  0
   49.7770   28.9800   49.3160 N   0  0  0  0  0  0  0  0  0  0  0  0
   48.7880   29.4660   48.5090 C   0  0  0  0  0  0  0  0  0  0  0  0
   48.2710   28.6650   47.3850 C   0  0  0  0  0  0  0  0  0  0  0  0
   48.9470   28.6040   46.0970 C   0  0  0  0  0  0  0  0  0  0  0  0
   47.8630   27.4840   45.1310 S   0  0  0  0  0  0  0  0  0  0  0  0
   46.6850   27.2780   46.5990 C   0  0  0  0  0  0  0  0  0  0  0  0
   47.1660   27.9400   47.4350 N   0  0  0  0  0  0  0  0  0  0  0  0
   44.5430   32.9359   48.1570 H   0  0  0  0  0  0  0  0  0  0  0  0
   45.9476   31.4380   49.8963 H   0  0  0  0  0  0  0  0  0  0  0  0
   44.9568   35.4055   43.5379 H   0  0  0  0  0  0  0  0  0  0  0  0
   44.4892   34.5507   46.0632 H   0  0  0  0  0  0  0  0  0  0  0  0
   49.5156   36.0914   40.7228 H   0  0  0  0  0  0  0  0  0  0  0  0
   48.5114   34.9143   38.7566 H   0  0  0  0  0  0  0  0  0  0  0  0
   46.6144   33.2828   39.1428 H   0  0  0  0  0  0  0  0  0  0  0  0
   49.3376   31.8739   50.6307 H   0  0  0  0  0  0  0  0  0  0  0  0
   50.8788   29.7498   51.0336 H   0  0  0  0  0  0  0  0  0  0  0  0
   49.8749   29.1041   45.7824 H   0  0  0  0  0  0  0  0  0  0  0  0
   45.7651   26.6773   46.6530 H   0  0  0  0  0  0  0  0  0  0  0  0
  1  5  1  0
  1  2  2  0
  2  3  1  0
  4  3  2  0
  4 17  1  0
  5  4  1  0
  6  7  1  0
  6 10  2  0
  7  8  2  0
  8  9  1  0
  9  1  1  0
 10  9  1  0
 11 16  2  0
 12 13  2  0
 12 11  1  0
 13 14  1  0
 14 15  2  0
 15  6  1  0
 16 15  1  0
 17 18  1  0
 18 19  2  0
 20 19  1  0
 21 17  1  0
 21 20  2  0
 22 26  1  0
 22 21  1  0
 23 22  2  0
 24 23  1  0
 24 25  1  0
 25 26  2  0
  2 27  1  0
  3 28  1  0
  7 29  1  0
  8 30  1  0
 11 31  1  0
 12 32  1  0
 13 33  1  0
 18 34  1  0
 19 35  1  0
 23 36  1  0
 25 37  1  0
M  ISO  8  27  14  28  14  29  14  30  14  31  14  32  14  33  14  34  14
M  ISO  3  35  14  36  14  37  14
M  END
>  <minimizedAffinity>  (1) 
-5.82298756

>  <minimizedRMSD>  (1) 
1.58195925

$$$$
