
     RDKit          3D

 34 37  0  0  0  0  0  0  0  0999 V2000
   46.6790   34.0150   43.6730 C   0  0  0  0  0  0  0  0  0  0  0  0
   45.5420   34.6680   44.1460 C   0  0  0  0  0  0  0  0  0  0  0  0
   45.2960   34.2310   45.4440 C   0  0  0  0  0  0  0  0  0  0  0  0
   46.2770   33.3380   45.7180 N   0  0  0  0  0  0  0  0  0  0  0  0
   47.0960   33.1990   44.6910 N   0  0  0  0  0  0  0  0  0  0  0  0
   48.6670   35.3490   40.8940 C   0  0  0  0  0  0  0  0  0  0  0  0
   48.0980   34.6950   39.8000 C   0  0  0  0  0  0  0  0  0  0  0  0
   47.0400   33.8030   40.0170 C   0  0  0  0  0  0  0  0  0  0  0  0
   46.6210   33.6230   41.3030 N   0  0  0  0  0  0  0  0  0  0  0  0
   47.1880   34.2670   42.3350 C   0  0  0  0  0  0  0  0  0  0  0  0
   48.2100   35.1330   42.1590 N   0  0  0  0  0  0  0  0  0  0  0  0
   46.3720   32.6650   46.9560 C   0  0  0  0  0  0  0  0  0  0  0  0
   45.5400   32.4890   48.0440 C   0  0  0  0  0  0  0  0  0  0  0  0
   46.2650   31.7150   48.9220 C   0  0  0  0  0  0  0  0  0  0  0  0
   47.4990   31.4480   48.3500 C   0  0  0  0  0  0  0  0  0  0  0  0
   47.4880   32.0410   47.1920 O   0  0  0  0  0  0  0  0  0  0  0  0
   48.5160   30.6700   48.9740 N   0  0  0  0  0  0  0  0  0  0  0  0
   49.3470   30.9110   50.0380 C   0  0  0  0  0  0  0  0  0  0  0  0
   50.1360   29.8060   50.2050 C   0  0  0  0  0  0  0  0  0  0  0  0
   49.7740   28.9100   49.2440 N   0  0  0  0  0  0  0  0  0  0  0  0
   48.7810   29.4500   48.4950 C   0  0  0  0  0  0  0  0  0  0  0  0
   48.2580   28.6030   47.3890 C   0  0  0  0  0  0  0  0  0  0  0  0
   44.9422   35.4027   43.5888 H   0  0  0  0  0  0  0  0  0  0  0  0
   44.4771   34.5448   46.1080 H   0  0  0  0  0  0  0  0  0  0  0  0
   49.4985   36.0507   40.7319 H   0  0  0  0  0  0  0  0  0  0  0  0
   48.4748   34.8773   38.7827 H   0  0  0  0  0  0  0  0  0  0  0  0
   46.5647   33.2676   39.1819 H   0  0  0  0  0  0  0  0  0  0  0  0
   44.5213   32.8812   48.1795 H   0  0  0  0  0  0  0  0  0  0  0  0
   45.9235   31.3680   49.9084 H   0  0  0  0  0  0  0  0  0  0  0  0
   49.3742   31.8268   50.6468 H   0  0  0  0  0  0  0  0  0  0  0  0
   50.9146   29.6671   50.9696 H   0  0  0  0  0  0  0  0  0  0  0  0
   47.7241   27.7384   47.8103 H   0  0  0  0  0  0  0  0  0  0  0  0
   47.5674   29.1941   46.7696 H   0  0  0  0  0  0  0  0  0  0  0  0
   49.0958   28.2504   46.7696 H   0  0  0  0  0  0  0  0  0  0  0  0
  1  2  1  0
  1  5  2  0
  2  3  2  0
  3  4  1  0
  4 12  1  0
  5  4  1  0
  6 11  2  0
  7  8  2  0
  7  6  1  0
  8  9  1  0
  9 10  2  0
 10  1  1  0
 11 10  1  0
 12 16  1  0
 12 13  2  0
 13 14  1  0
 15 14  2  0
 15 17  1  0
 16 15  1  0
 17 18  1  0
 18 19  2  0
 20 19  1  0
 21 17  1  0
 21 20  2  0
 22 21  1  0
  2 23  1  0
  3 24  1  0
  6 25  1  0
  7 26  1  0
  8 27  1  0
 13 28  1  0
 14 29  1  0
 18 30  1  0
 19 31  1  0
 22 32  1  0
 22 33  1  0
 22 34  1  0
M  ISO  8  23  14  24  14  25  14  26  14  27  14  28  14  29  14  30  14
M  ISO  4  31  14  32   8  33   8  34   8
M  END
>  <minimizedAffinity>  (1) 
-5.80079699

>  <minimizedRMSD>  (1) 
0.832603335

$$$$
