
     RDKit          3D

 51 56  0  0  1  0  0  0  0  0999 V2000
   46.3580   32.6760   46.9130 C   0  0  0  0  0  0  0  0  0  0  0  0
   45.5340   32.5250   47.9980 C   0  0  0  0  0  0  0  0  0  0  0  0
   46.2360   31.7200   48.8870 C   0  0  0  0  0  0  0  0  0  0  0  0
   47.4360   31.4290   48.3030 C   0  0  0  0  0  0  0  0  0  0  0  0
   47.4350   32.0270   47.1410 O   0  0  0  0  0  0  0  0  0  0  0  0
   46.6650   34.0450   43.6340 C   0  0  0  0  0  0  0  0  0  0  0  0
   45.5380   34.6900   44.0990 C   0  0  0  0  0  0  0  0  0  0  0  0
   45.2750   34.2540   45.4030 C   0  0  0  0  0  0  0  0  0  0  0  0
   46.2500   33.3620   45.6830 N   0  0  0  0  0  0  0  0  0  0  0  0
   47.0870   33.2200   44.6500 N   0  0  0  0  0  0  0  0  0  0  0  0
   48.6830   35.3820   40.8650 C   0  0  0  0  0  0  0  0  0  0  0  0
   48.1280   34.7260   39.7760 C   0  0  0  0  0  0  0  0  0  0  0  0
   47.0780   33.8400   39.9830 C   0  0  0  0  0  0  0  0  0  0  0  0
   46.6060   33.6260   41.2680 N   0  0  0  0  0  0  0  0  0  0  0  0
   47.1910   34.2960   42.2890 C   0  0  0  0  0  0  0  0  0  0  0  0
   48.2060   35.1590   42.1170 N   0  0  0  0  0  0  0  0  0  0  0  0
   48.4530   30.6200   48.9000 N   0  0  0  0  0  0  0  0  0  0  0  0
   49.3470   30.8660   49.9230 C   0  0  0  0  0  0  0  0  0  0  0  0
   50.1060   29.7270   50.0800 C   0  0  0  0  0  0  0  0  0  0  0  0
   49.6670   28.8120   49.1590 N   0  0  0  0  0  0  0  0  0  0  0  0
   48.6720   29.3730   48.4620 C   0  0  0  0  0  0  0  0  0  0  0  0
   47.9430   28.6360   47.3590 C   0  0  1  0  0  0  0  0  0  0  0  0
   48.1630   27.0800   47.3830 C   0  0  0  0  0  0  0  0  0  0  0  0
   46.8520   27.7240   47.6570 C   0  0  2  0  0  0  0  0  0  0  0  0
   45.7400   27.7220   46.6490 C   0  0  0  0  0  0  0  0  0  0  0  0
   45.1110   29.0760   46.4550 C   0  0  0  0  0  0  0  0  0  0  0  0
   43.8060   28.7000   45.7670 C   0  0  0  0  0  0  0  0  0  0  0  0
   43.5280   27.2500   46.1280 C   0  0  0  0  0  0  0  0  0  0  0  0
   44.5630   26.9400   47.2180 C   0  0  0  0  0  0  0  0  0  0  0  0
   44.5293   32.9511   48.1359 H   0  0  0  0  0  0  0  0  0  0  0  0
   45.8904   31.3810   49.8748 H   0  0  0  0  0  0  0  0  0  0  0  0
   44.9437   35.4259   43.5376 H   0  0  0  0  0  0  0  0  0  0  0  0
   44.4507   34.5701   46.0592 H   0  0  0  0  0  0  0  0  0  0  0  0
   49.5140   36.0867   40.7137 H   0  0  0  0  0  0  0  0  0  0  0  0
   48.5142   34.9050   38.7617 H   0  0  0  0  0  0  0  0  0  0  0  0
   46.6241   33.3115   39.1317 H   0  0  0  0  0  0  0  0  0  0  0  0
   49.4364   31.7962   50.5033 H   0  0  0  0  0  0  0  0  0  0  0  0
   50.9153   29.5792   50.8101 H   0  0  0  0  0  0  0  0  0  0  0  0
   48.0390   29.4754   46.6546 H   0  0  0  0  0  0  0  0  0  0  0  0
   48.3284   26.5243   46.4482 H   0  0  0  0  0  0  0  0  0  0  0  0
   48.8301   26.3774   47.9039 H   0  0  0  0  0  0  0  0  0  0  0  0
   46.1508   27.5723   48.4909 H   0  0  0  0  0  0  0  0  0  0  0  0
   46.1930   27.3317   45.7257 H   0  0  0  0  0  0  0  0  0  0  0  0
   44.9296   29.5778   47.4169 H   0  0  0  0  0  0  0  0  0  0  0  0
   45.7321   29.7853   45.8883 H   0  0  0  0  0  0  0  0  0  0  0  0
   43.9068   28.8073   44.6769 H   0  0  0  0  0  0  0  0  0  0  0  0
   42.9834   29.3546   46.0909 H   0  0  0  0  0  0  0  0  0  0  0  0
   42.5048   27.1314   46.5139 H   0  0  0  0  0  0  0  0  0  0  0  0
   43.6045   26.5739   45.2637 H   0  0  0  0  0  0  0  0  0  0  0  0
   44.7778   25.8636   47.2901 H   0  0  0  0  0  0  0  0  0  0  0  0
   44.2673   27.2052   48.2438 H   0  0  0  0  0  0  0  0  0  0  0  0
  1  5  1  0
  1  2  2  0
  2  3  1  0
  4  3  2  0
  4 17  1  0
  5  4  1  0
  6  7  1  0
  6 10  2  0
  7  8  2  0
  8  9  1  0
  9  1  1  0
 10  9  1  0
 11 16  2  0
 12 13  2  0
 12 11  1  0
 13 14  1  0
 14 15  2  0
 15  6  1  0
 16 15  1  0
 17 18  1  0
 18 19  2  0
 20 19  1  0
 21 17  1  0
 21 20  2  0
 22 23  1  0
 22 24  1  0
 22 21  1  0
 23 24  1  0
 25 29  1  0
 25 24  1  0
 26 25  1  0
 27 28  1  0
 27 26  1  0
 28 29  1  0
  2 30  1  0
  3 31  1  0
  7 32  1  0
  8 33  1  0
 11 34  1  0
 12 35  1  0
 13 36  1  0
 18 37  1  0
 19 38  1  0
 22 39  1  6
 23 40  1  0
 23 41  1  0
 24 42  1  1
 25 43  1  0
 26 44  1  0
 26 45  1  0
 27 46  1  0
 27 47  1  0
 28 48  1  0
 28 49  1  0
 29 50  1  0
 29 51  1  0
M  ISO  8  30  14  31  14  32  14  33  14  34  14  35  14  36  14  37  14
M  ISO  8  38  14  39  13  40  13  41  13  42  13  43  13  44  13  45  13
M  ISO  6  46  13  47  13  48  13  49  13  50  13  51  13
M  END
>  <minimizedAffinity>  (1) 
-6.32349825

>  <minimizedRMSD>  (1) 
0.688074291

$$$$
