
     RDKit          3D

 44 49  0  0  1  0  0  0  0  0999 V2000
   46.3700   32.6610   46.9330 C   0  0  0  0  0  0  0  0  0  0  0  0
   45.5410   32.5050   48.0310 C   0  0  0  0  0  0  0  0  0  0  0  0
   46.2530   31.7000   48.9110 C   0  0  0  0  0  0  0  0  0  0  0  0
   47.4510   31.4140   48.3230 C   0  0  0  0  0  0  0  0  0  0  0  0
   47.4490   32.0130   47.1600 O   0  0  0  0  0  0  0  0  0  0  0  0
   46.6680   34.0320   43.6570 C   0  0  0  0  0  0  0  0  0  0  0  0
   45.5400   34.6880   44.1340 C   0  0  0  0  0  0  0  0  0  0  0  0
   45.2900   34.2450   45.4380 C   0  0  0  0  0  0  0  0  0  0  0  0
   46.2680   33.3450   45.7050 N   0  0  0  0  0  0  0  0  0  0  0  0
   47.0890   33.2030   44.6740 N   0  0  0  0  0  0  0  0  0  0  0  0
   48.6750   35.3660   40.8820 C   0  0  0  0  0  0  0  0  0  0  0  0
   48.1140   34.7130   39.7870 C   0  0  0  0  0  0  0  0  0  0  0  0
   47.0580   33.8260   40.0060 C   0  0  0  0  0  0  0  0  0  0  0  0
   46.6050   33.6240   41.2910 N   0  0  0  0  0  0  0  0  0  0  0  0
   47.1880   34.2830   42.3120 C   0  0  0  0  0  0  0  0  0  0  0  0
   48.2010   35.1400   42.1400 N   0  0  0  0  0  0  0  0  0  0  0  0
   48.4750   30.6010   48.9230 N   0  0  0  0  0  0  0  0  0  0  0  0
   49.3110   30.8260   49.9880 C   0  0  0  0  0  0  0  0  0  0  0  0
   50.0960   29.7040   50.1140 C   0  0  0  0  0  0  0  0  0  0  0  0
   49.7290   28.8230   49.1350 N   0  0  0  0  0  0  0  0  0  0  0  0
   48.7440   29.3860   48.4230 C   0  0  0  0  0  0  0  0  0  0  0  0
   48.0790   28.6840   47.2540 C   0  0  1  0  0  0  0  0  0  0  0  0
   47.7130   27.1860   47.5440 C   0  0  0  0  0  0  0  0  0  0  0  0
   46.6940   28.2540   47.3660 C   0  0  2  0  0  0  0  0  0  0  0  0
   45.7850   28.1990   46.1960 C   0  0  0  0  0  0  0  0  0  0  0  0
   44.6410   29.0440   46.2290 C   0  0  0  0  0  0  0  0  0  0  0  0
   43.7790   28.6790   44.6020 S   0  0  0  0  0  0  0  0  0  0  0  0
   45.1520   27.4390   44.1910 C   0  0  0  0  0  0  0  0  0  0  0  0
   45.8220   27.4990   45.0840 N   0  0  0  0  0  0  0  0  0  0  0  0
   44.5356   32.9274   48.1753 H   0  0  0  0  0  0  0  0  0  0  0  0
   45.9139   31.3564   49.8994 H   0  0  0  0  0  0  0  0  0  0  0  0
   44.9447   35.4294   43.5809 H   0  0  0  0  0  0  0  0  0  0  0  0
   44.4736   34.5601   46.1044 H   0  0  0  0  0  0  0  0  0  0  0  0
   49.5069   36.0695   40.7305 H   0  0  0  0  0  0  0  0  0  0  0  0
   48.4949   34.8923   38.7708 H   0  0  0  0  0  0  0  0  0  0  0  0
   46.5934   33.2948   39.1622 H   0  0  0  0  0  0  0  0  0  0  0  0
   49.3462   31.7274   50.6175 H   0  0  0  0  0  0  0  0  0  0  0  0
   50.8801   29.5437   50.8686 H   0  0  0  0  0  0  0  0  0  0  0  0
   48.6276   29.2623   46.4960 H   0  0  0  0  0  0  0  0  0  0  0  0
   47.8564   26.4162   46.7715 H   0  0  0  0  0  0  0  0  0  0  0  0
   47.9594   26.4409   48.3148 H   0  0  0  0  0  0  0  0  0  0  0  0
   45.8582   28.6291   47.9749 H   0  0  0  0  0  0  0  0  0  0  0  0
   44.3345   29.7445   47.0198 H   0  0  0  0  0  0  0  0  0  0  0  0
   45.2627   26.8132   43.2932 H   0  0  0  0  0  0  0  0  0  0  0  0
  1  5  1  0
  1  2  2  0
  2  3  1  0
  4  3  2  0
  4 17  1  0
  5  4  1  0
  6  7  1  0
  6 10  2  0
  7  8  2  0
  8  9  1  0
  9  1  1  0
 10  9  1  0
 11 16  2  0
 12 13  2  0
 12 11  1  0
 13 14  1  0
 14 15  2  0
 15  6  1  0
 16 15  1  0
 17 18  1  0
 18 19  2  0
 20 19  1  0
 21 17  1  0
 21 20  2  0
 22 24  1  0
 22 23  1  0
 22 21  1  0
 24 23  1  0
 25 26  2  0
 25 24  1  0
 27 26  1  0
 28 27  1  0
 28 29  2  0
 29 25  1  0
  2 30  1  0
  3 31  1  0
  7 32  1  0
  8 33  1  0
 11 34  1  0
 12 35  1  0
 13 36  1  0
 18 37  1  0
 19 38  1  0
 22 39  1  6
 23 40  1  0
 23 41  1  0
 24 42  1  1
 26 43  1  0
 28 44  1  0
M  ISO  8  30  14  31  14  32  14  33  14  34  14  35  14  36  14  37  14
M  ISO  7  38  14  39  13  40  13  41  13  42  13  43  14  44  14
M  END
>  <minimizedAffinity>  (1) 
-6.00804567

>  <minimizedRMSD>  (1) 
0.38887015

$$$$
