
     RDKit          3D

 41 45  0  0  1  0  0  0  0  0999 V2000
   46.3680   32.6560   46.9490 C   0  0  0  0  0  0  0  0  0  0  0  0
   45.5410   32.4940   48.0350 C   0  0  0  0  0  0  0  0  0  0  0  0
   46.2550   31.6940   48.9200 C   0  0  0  0  0  0  0  0  0  0  0  0
   47.4590   31.4150   48.3390 C   0  0  0  0  0  0  0  0  0  0  0  0
   47.4600   32.0150   47.1760 O   0  0  0  0  0  0  0  0  0  0  0  0
   46.6590   34.0300   43.6700 C   0  0  0  0  0  0  0  0  0  0  0  0
   45.5430   34.6850   44.1450 C   0  0  0  0  0  0  0  0  0  0  0  0
   45.2910   34.2470   45.4500 C   0  0  0  0  0  0  0  0  0  0  0  0
   46.2640   33.3420   45.7180 N   0  0  0  0  0  0  0  0  0  0  0  0
   47.0920   33.1920   44.6790 N   0  0  0  0  0  0  0  0  0  0  0  0
   48.6810   35.3630   40.8950 C   0  0  0  0  0  0  0  0  0  0  0  0
   48.1180   34.7120   39.8070 C   0  0  0  0  0  0  0  0  0  0  0  0
   47.0630   33.8310   40.0150 C   0  0  0  0  0  0  0  0  0  0  0  0
   46.5950   33.6190   41.3030 N   0  0  0  0  0  0  0  0  0  0  0  0
   47.1790   34.2770   42.3220 C   0  0  0  0  0  0  0  0  0  0  0  0
   48.2020   35.1390   42.1590 N   0  0  0  0  0  0  0  0  0  0  0  0
   48.4810   30.6180   48.9330 N   0  0  0  0  0  0  0  0  0  0  0  0
   49.3080   30.8350   50.0200 C   0  0  0  0  0  0  0  0  0  0  0  0
   50.1180   29.7160   50.1400 C   0  0  0  0  0  0  0  0  0  0  0  0
   49.7740   28.8550   49.1390 N   0  0  0  0  0  0  0  0  0  0  0  0
   48.7880   29.4140   48.4240 C   0  0  0  0  0  0  0  0  0  0  0  0
   48.1560   28.7230   47.2330 C   0  0  1  0  0  0  0  0  0  0  0  0
   47.7110   27.2440   47.5340 C   0  0  0  0  0  0  0  0  0  0  0  0
   46.7560   28.3430   47.2390 C   0  0  2  0  0  0  0  0  0  0  0  0
   46.1220   28.2190   45.8480 C   0  0  0  0  0  0  0  0  0  0  0  0
   44.5315   32.9082   48.1740 H   0  0  0  0  0  0  0  0  0  0  0  0
   45.9129   31.3491   49.9069 H   0  0  0  0  0  0  0  0  0  0  0  0
   44.9499   35.4276   43.5911 H   0  0  0  0  0  0  0  0  0  0  0  0
   44.4769   34.5685   46.1163 H   0  0  0  0  0  0  0  0  0  0  0  0
   49.5161   36.0625   40.7422 H   0  0  0  0  0  0  0  0  0  0  0  0
   48.5018   34.8908   38.7918 H   0  0  0  0  0  0  0  0  0  0  0  0
   46.6031   33.3062   39.1647 H   0  0  0  0  0  0  0  0  0  0  0  0
   49.3208   31.7252   50.6660 H   0  0  0  0  0  0  0  0  0  0  0  0
   50.8946   29.5526   50.9017 H   0  0  0  0  0  0  0  0  0  0  0  0
   48.7707   29.2749   46.5067 H   0  0  0  0  0  0  0  0  0  0  0  0
   47.8894   26.4455   46.7987 H   0  0  0  0  0  0  0  0  0  0  0  0
   47.8623   26.5146   48.3433 H   0  0  0  0  0  0  0  0  0  0  0  0
   45.8794   28.7530   47.7619 H   0  0  0  0  0  0  0  0  0  0  0  0
   45.0473   28.0088   45.9523 H   0  0  0  0  0  0  0  0  0  0  0  0
   46.2596   29.1611   45.2970 H   0  0  0  0  0  0  0  0  0  0  0  0
   46.6044   27.3982   45.2970 H   0  0  0  0  0  0  0  0  0  0  0  0
  1  5  1  0
  1  2  2  0
  2  3  1  0
  4  3  2  0
  4 17  1  0
  5  4  1  0
  6  7  1  0
  6 10  2  0
  7  8  2  0
  8  9  1  0
  9  1  1  0
 10  9  1  0
 11 16  2  0
 12 13  2  0
 12 11  1  0
 13 14  1  0
 14 15  2  0
 15  6  1  0
 16 15  1  0
 17 18  1  0
 18 19  2  0
 20 19  1  0
 21 17  1  0
 21 20  2  0
 22 24  1  0
 22 23  1  0
 22 21  1  0
 24 23  1  0
 25 24  1  0
  2 26  1  0
  3 27  1  0
  7 28  1  0
  8 29  1  0
 11 30  1  0
 12 31  1  0
 13 32  1  0
 18 33  1  0
 19 34  1  0
 22 35  1  6
 23 36  1  0
 23 37  1  0
 24 38  1  1
 25 39  1  0
 25 40  1  0
 25 41  1  0
M  ISO  8  26  14  27  14  28  14  29  14  30  14  31  14  32  14  33  14
M  ISO  8  34  14  35  13  36  13  37  13  38  13  39   8  40   8  41   8
M  END
>  <minimizedAffinity>  (1) 
-5.88146257

>  <minimizedRMSD>  (1) 
0.0148007302

$$$$
