
     RDKit          3D

 34 37  0  0  0  0  0  0  0  0999 V2000
   45.3940   33.4550   46.2240 C   0  0  0  0  0  0  0  0  0  0  0  0
   45.8210   33.0680   44.9240 C   0  0  0  0  0  0  0  0  0  0  0  0
   46.7710   32.0310   44.8670 C   0  0  0  0  0  0  0  0  0  0  0  0
   47.1930   31.4960   46.0360 N   0  0  0  0  0  0  0  0  0  0  0  0
   46.7620   31.8940   47.2390 C   0  0  0  0  0  0  0  0  0  0  0  0
   45.8630   32.8730   47.3370 N   0  0  0  0  0  0  0  0  0  0  0  0
   47.1930   31.6550   43.5860 N   0  0  0  0  0  0  0  0  0  0  0  0
   46.9030   30.6710   42.7210 C   0  0  0  0  0  0  0  0  0  0  0  0
   47.6180   30.7870   41.5840 N   0  0  0  0  0  0  0  0  0  0  0  0
   48.3980   31.8790   41.7060 C   0  0  0  0  0  0  0  0  0  0  0  0
   49.3210   32.4590   40.8440 C   0  0  0  0  0  0  0  0  0  0  0  0
   49.5610   31.9800   39.7170 O   0  0  0  0  0  0  0  0  0  0  0  0
   49.9910   33.5600   41.1880 N   0  0  0  0  0  0  0  0  0  0  0  0
   49.7220   34.0660   42.3990 C   0  0  0  0  0  0  0  0  0  0  0  0
   50.3680   35.2330   42.8950 N   0  0  0  0  0  0  0  0  0  0  0  0
   48.8390   33.5290   43.2450 N   0  0  0  0  0  0  0  0  0  0  0  0
   48.1330   32.4170   42.9550 C   0  0  0  0  0  0  0  0  0  0  0  0
   45.1910   33.8070   43.8740 C   0  0  0  0  0  0  0  0  0  0  0  0
   44.4130   33.4000   42.8160 C   0  0  0  0  0  0  0  0  0  0  0  0
   43.8940   34.2660   41.8790 C   0  0  0  0  0  0  0  0  0  0  0  0
   44.1380   35.6160   41.9590 C   0  0  0  0  0  0  0  0  0  0  0  0
   44.9040   36.0750   42.9890 C   0  0  0  0  0  0  0  0  0  0  0  0
   45.4100   35.1900   43.9130 C   0  0  0  0  0  0  0  0  0  0  0  0
   44.6519   34.2612   46.3199 H   0  0  0  0  0  0  0  0  0  0  0  0
   47.1504   31.4122   48.1484 H   0  0  0  0  0  0  0  0  0  0  0  0
   46.1738   29.8706   42.9152 H   0  0  0  0  0  0  0  0  0  0  0  0
   50.6777   33.9973   40.5570 H   0  0  0  0  0  0  0  0  0  0  0  0
   50.1345   35.5921   43.8317 H   0  0  0  0  0  0  0  0  0  0  0  0
   51.0690   35.7185   42.3173 H   0  0  0  0  0  0  0  0  0  0  0  0
   44.1936   32.3271   42.7124 H   0  0  0  0  0  0  0  0  0  0  0  0
   43.2773   33.8726   41.0575 H   0  0  0  0  0  0  0  0  0  0  0  0
   43.7256   36.3088   41.2107 H   0  0  0  0  0  0  0  0  0  0  0  0
   45.1170   37.1502   43.0812 H   0  0  0  0  0  0  0  0  0  0  0  0
   46.0238   35.5930   44.7321 H   0  0  0  0  0  0  0  0  0  0  0  0
  1  6  2  0
  2  1  1  0
  3  2  2  0
  3  4  1  0
  4  5  2  0
  5  6  1  0
  7  3  1  0
  8  7  1  0
  9 10  1  0
  9  8  2  0
 10 17  2  0
 11 13  1  0
 11 10  1  0
 12 11  2  0
 13 14  1  0
 14 15  1  0
 14 16  2  0
 17 16  1  0
 17  7  1  0
 18 23  1  0
 18  2  1  0
 19 18  2  0
 20 21  2  0
 20 19  1  0
 21 22  1  0
 22 23  2  0
  1 24  1  0
  5 25  1  0
  8 26  1  0
 13 27  1  0
 15 28  1  0
 15 29  1  0
 19 30  1  0
 20 31  1  0
 21 32  1  0
 22 33  1  0
 23 34  1  0
M  ISO  8  24  14  25  14  26  14  27   9  30  14  31  14  32  14  33  14
M  ISO  1  34  14
M  END
>  <minimizedAffinity>  (1) 
-5.9618535

>  <minimizedRMSD>  (1) 
2.94746637

$$$$
