
     RDKit          3D

 31 34  0  0  0  0  0  0  0  0999 V2000
   46.1420   32.8850   42.7860 N   0  0  0  0  0  0  0  0  0  0  0  0
   45.3970   32.6140   41.7010 C   0  0  0  0  0  0  0  0  0  0  0  0
   46.0150   33.1100   40.5990 N   0  0  0  0  0  0  0  0  0  0  0  0
   47.1570   33.6970   40.9740 C   0  0  0  0  0  0  0  0  0  0  0  0
   48.1410   34.3470   40.2310 C   0  0  0  0  0  0  0  0  0  0  0  0
   48.0730   34.4750   39.0000 O   0  0  0  0  0  0  0  0  0  0  0  0
   49.2210   34.8630   40.8630 N   0  0  0  0  0  0  0  0  0  0  0  0
   49.2770   34.7150   42.1960 C   0  0  0  0  0  0  0  0  0  0  0  0
   50.3620   35.2140   42.9580 N   0  0  0  0  0  0  0  0  0  0  0  0
   48.3350   34.0930   42.9060 N   0  0  0  0  0  0  0  0  0  0  0  0
   47.2350   33.5560   42.3380 C   0  0  0  0  0  0  0  0  0  0  0  0
   45.5150   33.4880   46.3640 C   0  0  0  0  0  0  0  0  0  0  0  0
   45.6490   33.7220   44.9750 C   0  0  0  0  0  0  0  0  0  0  0  0
   46.0150   32.6310   44.1670 C   0  0  0  0  0  0  0  0  0  0  0  0
   46.2130   31.4380   44.7750 N   0  0  0  0  0  0  0  0  0  0  0  0
   46.0750   31.2620   46.0980 C   0  0  0  0  0  0  0  0  0  0  0  0
   45.7290   32.2740   46.8890 N   0  0  0  0  0  0  0  0  0  0  0  0
   45.4210   35.0340   44.3830 C   0  0  0  0  0  0  0  0  0  0  0  0
   44.1940   35.4870   43.7320 C   0  0  0  0  0  0  0  0  0  0  0  0
   44.4230   35.9100   45.1600 C   0  0  0  0  0  0  0  0  0  0  0  0
   44.4379   32.0753   41.7052 H   0  0  0  0  0  0  0  0  0  0  0  0
   49.9670   35.3478   40.3440 H   0  0  0  0  0  0  0  0  0  0  0  0
   50.3763   35.0847   43.9798 H   0  0  0  0  0  0  0  0  0  0  0  0
   51.1366   35.7061   42.4903 H   0  0  0  0  0  0  0  0  0  0  0  0
   45.2296   34.3190   47.0258 H   0  0  0  0  0  0  0  0  0  0  0  0
   46.2503   30.2676   46.5343 H   0  0  0  0  0  0  0  0  0  0  0  0
   46.4593   35.0503   44.0200 H   0  0  0  0  0  0  0  0  0  0  0  0
   44.2502   36.2357   42.9281 H   0  0  0  0  0  0  0  0  0  0  0  0
   43.3726   34.9740   43.2103 H   0  0  0  0  0  0  0  0  0  0  0  0
   43.8188   35.4798   45.9723 H   0  0  0  0  0  0  0  0  0  0  0  0
   44.4634   36.8628   45.7083 H   0  0  0  0  0  0  0  0  0  0  0  0
  1 14  1  0
  2  1  1  0
  3  4  1  0
  3  2  2  0
  4 11  2  0
  5  7  1  0
  5  4  1  0
  6  5  2  0
  7  8  1  0
  8 10  2  0
  8  9  1  0
 11  1  1  0
 11 10  1  0
 12 17  2  0
 13 12  1  0
 14 15  1  0
 14 13  2  0
 15 16  2  0
 16 17  1  0
 18 13  1  0
 18 20  1  0
 19 18  1  0
 19 20  1  0
  2 21  1  0
  7 22  1  0
  9 23  1  0
  9 24  1  0
 12 25  1  0
 16 26  1  0
 18 27  1  0
 19 28  1  0
 19 29  1  0
 20 30  1  0
 20 31  1  0
M  ISO  8  21  14  22   9  25  14  26  14  27  13  28  13  29  13  30  13
M  ISO  1  31  13
M  END
>  <minimizedAffinity>  (1) 
-5.77485657

>  <minimizedRMSD>  (1) 
2.07099104

$$$$
