
     RDKit          3D

 31 34  0  0  0  0  0  0  0  0999 V2000
   47.0260   31.5770   43.1410 N   0  0  0  0  0  0  0  0  0  0  0  0
   46.1460   31.1270   42.2120 C   0  0  0  0  0  0  0  0  0  0  0  0
   46.6420   31.3150   40.9680 N   0  0  0  0  0  0  0  0  0  0  0  0
   47.8570   31.8900   41.0880 C   0  0  0  0  0  0  0  0  0  0  0  0
   48.7870   32.2910   40.1210 C   0  0  0  0  0  0  0  0  0  0  0  0
   48.5730   32.1520   38.9000 O   0  0  0  0  0  0  0  0  0  0  0  0
   49.9510   32.8460   40.4890 N   0  0  0  0  0  0  0  0  0  0  0  0
   50.1570   32.9880   41.7960 C   0  0  0  0  0  0  0  0  0  0  0  0
   51.3580   33.5500   42.3180 N   0  0  0  0  0  0  0  0  0  0  0  0
   49.2800   32.6130   42.7350 N   0  0  0  0  0  0  0  0  0  0  0  0
   48.1020   32.0540   42.4410 C   0  0  0  0  0  0  0  0  0  0  0  0
   46.6080   32.8850   46.5320 C   0  0  0  0  0  0  0  0  0  0  0  0
   46.5760   32.8120   45.1190 C   0  0  0  0  0  0  0  0  0  0  0  0
   47.0490   31.6560   44.5380 C   0  0  0  0  0  0  0  0  0  0  0  0
   47.5060   30.6890   45.3670 N   0  0  0  0  0  0  0  0  0  0  0  0
   47.5300   30.7710   46.6950 C   0  0  0  0  0  0  0  0  0  0  0  0
   47.0840   31.8650   47.2890 N   0  0  0  0  0  0  0  0  0  0  0  0
   46.0220   34.0240   44.5120 C   0  0  0  0  0  0  0  0  0  0  0  0
   46.2040   34.6870   43.3110 C   0  0  0  0  0  0  0  0  0  0  0  0
   45.4940   35.8010   43.0950 C   0  0  0  0  0  0  0  0  0  0  0  0
   44.5980   36.3080   44.0130 C   0  0  0  0  0  0  0  0  0  0  0  0
   44.8190   35.0250   45.3170 S   0  0  0  0  0  0  0  0  0  0  0  0
   45.1693   30.6742   42.4380 H   0  0  0  0  0  0  0  0  0  0  0  0
   50.6502   33.1471   39.7952 H   0  0  0  0  0  0  0  0  0  0  0  0
   51.4824   33.6443   43.3361 H   0  0  0  0  0  0  0  0  0  0  0  0
   52.1016   33.8619   41.6772 H   0  0  0  0  0  0  0  0  0  0  0  0
   46.2370   33.7931   47.0297 H   0  0  0  0  0  0  0  0  0  0  0  0
   47.9182   29.9344   47.2945 H   0  0  0  0  0  0  0  0  0  0  0  0
   46.9106   34.3101   42.5569 H   0  0  0  0  0  0  0  0  0  0  0  0
   45.6311   36.3357   42.1435 H   0  0  0  0  0  0  0  0  0  0  0  0
   43.9536   37.1988   43.9777 H   0  0  0  0  0  0  0  0  0  0  0  0
  1 14  1  0
  2  1  1  0
  3  4  1  0
  3  2  2  0
  4 11  2  0
  5  7  1  0
  5  4  1  0
  6  5  2  0
  7  8  1  0
  8  9  1  0
  8 10  2  0
 11 10  1  0
 11  1  1  0
 12 17  2  0
 13 12  1  0
 14 13  2  0
 14 15  1  0
 15 16  2  0
 16 17  1  0
 18 13  1  0
 18 22  1  0
 19 18  2  0
 20 19  1  0
 20 21  2  0
 21 22  1  0
  2 23  1  0
  7 24  1  0
  9 25  1  0
  9 26  1  0
 12 27  1  0
 16 28  1  0
 19 29  1  0
 20 30  1  0
 21 31  1  0
M  ISO  7  23  14  24   9  27  14  28  14  29  14  30  14  31  14
M  END
>  <minimizedAffinity>  (1) 
-5.4554987

>  <minimizedRMSD>  (1) 
3.27955699

$$$$
