
     RDKit          3D

 45 48  0  0  1  0  0  0  0  0999 V2000
   45.8820   32.5980   46.3360 C   0  0  0  0  0  0  0  0  0  0  0  0
   46.2270   32.3310   45.0010 C   0  0  0  0  0  0  0  0  0  0  0  0
   47.1680   31.3390   44.7470 C   0  0  0  0  0  0  0  0  0  0  0  0
   47.6950   30.6900   45.8240 N   0  0  0  0  0  0  0  0  0  0  0  0
   47.3450   30.9670   47.0870 C   0  0  0  0  0  0  0  0  0  0  0  0
   46.4370   31.9230   47.3440 N   0  0  0  0  0  0  0  0  0  0  0  0
   47.4980   31.1000   43.4160 N   0  0  0  0  0  0  0  0  0  0  0  0
   47.1790   30.1770   42.4850 C   0  0  0  0  0  0  0  0  0  0  0  0
   47.8060   30.4430   41.3300 N   0  0  0  0  0  0  0  0  0  0  0  0
   48.5490   31.5410   41.4840 C   0  0  0  0  0  0  0  0  0  0  0  0
   49.3880   32.2070   40.6080 C   0  0  0  0  0  0  0  0  0  0  0  0
   49.5680   31.8480   39.4270 O   0  0  0  0  0  0  0  0  0  0  0  0
   50.0580   33.2960   41.0090 N   0  0  0  0  0  0  0  0  0  0  0  0
   49.8710   33.6900   42.2790 C   0  0  0  0  0  0  0  0  0  0  0  0
   50.5250   34.8280   42.8510 N   0  0  0  0  0  0  0  0  0  0  0  0
   49.0650   33.0570   43.1250 N   0  0  0  0  0  0  0  0  0  0  0  0
   48.3550   31.9420   42.7770 C   0  0  0  0  0  0  0  0  0  0  0  0
   45.5570   33.1060   43.9960 N   0  0  0  0  0  0  0  0  0  0  0  0
   44.5380   32.8560   43.0480 C   0  0  0  0  0  0  0  0  0  0  0  0
   44.8160   33.6820   41.8230 C   0  0  0  0  0  0  0  0  0  0  0  0
   46.0890   34.4200   42.2130 C   0  0  0  0  0  0  0  0  0  0  0  0
   45.8510   34.5150   43.7360 C   0  0  1  0  0  0  0  0  0  0  0  0
   44.7140   35.4570   43.9540 C   0  0  0  0  0  0  0  0  0  0  0  0
   44.3770   35.8060   45.3470 C   0  0  0  0  0  0  0  0  0  0  0  0
   45.1960   36.7790   43.3080 C   0  0  0  0  0  0  0  0  0  0  0  0
   45.1393   33.3793   46.5548 H   0  0  0  0  0  0  0  0  0  0  0  0
   47.8030   30.4093   47.9172 H   0  0  0  0  0  0  0  0  0  0  0  0
   46.5008   29.3269   42.6501 H   0  0  0  0  0  0  0  0  0  0  0  0
   50.6869   33.8068   40.3730 H   0  0  0  0  0  0  0  0  0  0  0  0
   50.3452   35.0863   43.8318 H   0  0  0  0  0  0  0  0  0  0  0  0
   51.1752   35.3884   42.2817 H   0  0  0  0  0  0  0  0  0  0  0  0
   44.5314   31.7885   42.7826 H   0  0  0  0  0  0  0  0  0  0  0  0
   43.5571   33.1223   43.4686 H   0  0  0  0  0  0  0  0  0  0  0  0
   43.9940   34.3845   41.6210 H   0  0  0  0  0  0  0  0  0  0  0  0
   44.9154   33.0870   40.9032 H   0  0  0  0  0  0  0  0  0  0  0  0
   46.9926   33.8412   41.9714 H   0  0  0  0  0  0  0  0  0  0  0  0
   46.2593   35.3773   41.6986 H   0  0  0  0  0  0  0  0  0  0  0  0
   46.6474   34.9027   44.3882 H   0  0  0  0  0  0  0  0  0  0  0  0
   43.8156   34.9685   43.5487 H   0  0  0  0  0  0  0  0  0  0  0  0
   44.9735   35.1882   46.0344 H   0  0  0  0  0  0  0  0  0  0  0  0
   44.5992   36.8689   45.5227 H   0  0  0  0  0  0  0  0  0  0  0  0
   43.3070   35.6211   45.5227 H   0  0  0  0  0  0  0  0  0  0  0  0
   45.4584   37.4986   44.0975 H   0  0  0  0  0  0  0  0  0  0  0  0
   46.0798   36.5812   42.6838 H   0  0  0  0  0  0  0  0  0  0  0  0
   44.3922   37.1965   42.6838 H   0  0  0  0  0  0  0  0  0  0  0  0
  1  6  2  0
  2  1  1  0
  3  2  2  0
  3  4  1  0
  4  5  2  0
  5  6  1  0
  7  3  1  0
  8  7  1  0
  9 10  1  0
  9  8  2  0
 10 17  2  0
 11 13  1  0
 11 10  1  0
 12 11  2  0
 13 14  1  0
 14 15  1  0
 14 16  2  0
 17 16  1  0
 17  7  1  0
 18  2  1  0
 19 18  1  0
 20 21  1  0
 20 19  1  0
 21 22  1  0
 22 23  1  0
 22 18  1  0
 23 24  1  0
 25 23  1  0
  1 26  1  0
  5 27  1  0
  8 28  1  0
 13 29  1  0
 15 30  1  0
 15 31  1  0
 19 32  1  0
 19 33  1  0
 20 34  1  0
 20 35  1  0
 21 36  1  0
 21 37  1  0
 22 38  1  1
 23 39  1  0
 24 40  1  0
 24 41  1  0
 24 42  1  0
 25 43  1  0
 25 44  1  0
 25 45  1  0
M  ISO  8  26  14  27  14  28  14  29   9  32  13  33  13  34  13  35  13
M  ISO  8  36  13  37  13  38  13  39   8  40   8  41   8  42   8  43   8
M  ISO  2  44   8  45   8
M  END
>  <minimizedAffinity>  (1) 
-5.70494938

>  <minimizedRMSD>  (1) 
1.49957168

$$$$
