
     RDKit          3D

 39 42  0  0  1  0  0  0  0  0999 V2000
   45.6800   33.0830   46.3440 C   0  0  0  0  0  0  0  0  0  0  0  0
   46.0600   32.7340   45.0330 C   0  0  0  0  0  0  0  0  0  0  0  0
   46.9590   31.6970   44.8470 C   0  0  0  0  0  0  0  0  0  0  0  0
   47.4290   31.0670   45.9660 N   0  0  0  0  0  0  0  0  0  0  0  0
   47.0490   31.4200   47.2060 C   0  0  0  0  0  0  0  0  0  0  0  0
   46.1810   32.4200   47.3960 N   0  0  0  0  0  0  0  0  0  0  0  0
   47.3120   31.3850   43.5360 N   0  0  0  0  0  0  0  0  0  0  0  0
   46.9800   30.4360   42.6380 C   0  0  0  0  0  0  0  0  0  0  0  0
   47.6400   30.6240   41.4890 N   0  0  0  0  0  0  0  0  0  0  0  0
   48.4200   31.7010   41.6130 C   0  0  0  0  0  0  0  0  0  0  0  0
   49.3020   32.3040   40.7310 C   0  0  0  0  0  0  0  0  0  0  0  0
   49.4920   31.8790   39.5710 O   0  0  0  0  0  0  0  0  0  0  0  0
   50.0020   33.3910   41.1020 N   0  0  0  0  0  0  0  0  0  0  0  0
   49.7980   33.8420   42.3420 C   0  0  0  0  0  0  0  0  0  0  0  0
   50.4720   34.9820   42.8640 N   0  0  0  0  0  0  0  0  0  0  0  0
   48.9510   33.2710   43.1960 N   0  0  0  0  0  0  0  0  0  0  0  0
   48.2130   32.1680   42.8840 C   0  0  0  0  0  0  0  0  0  0  0  0
   45.4650   33.5000   43.9800 N   0  0  0  0  0  0  0  0  0  0  0  0
   44.5330   33.2400   42.9470 C   0  0  0  0  0  0  0  0  0  0  0  0
   44.8900   34.0840   41.7560 C   0  0  0  0  0  0  0  0  0  0  0  0
   46.0820   34.8640   42.2700 C   0  0  0  0  0  0  0  0  0  0  0  0
   45.7540   34.9390   43.7530 C   0  0  1  0  0  0  0  0  0  0  0  0
   44.6250   35.8130   43.9870 C   0  0  0  0  0  0  0  0  0  0  0  0
   44.8660   37.0420   44.1580 O   0  0  0  0  0  0  0  0  0  0  0  0
   43.2570   35.8340   44.1100 O   0  0  0  0  0  0  0  0  0  0  0  0
   44.9673   33.9052   46.5055 H   0  0  0  0  0  0  0  0  0  0  0  0
   47.4562   30.8807   48.0740 H   0  0  0  0  0  0  0  0  0  0  0  0
   46.2658   29.6203   42.8238 H   0  0  0  0  0  0  0  0  0  0  0  0
   50.6629   33.8528   40.4610 H   0  0  0  0  0  0  0  0  0  0  0  0
   50.2840   35.2953   43.8270 H   0  0  0  0  0  0  0  0  0  0  0  0
   51.1477   35.4936   42.2787 H   0  0  0  0  0  0  0  0  0  0  0  0
   44.5718   32.1756   42.6720 H   0  0  0  0  0  0  0  0  0  0  0  0
   43.5159   33.4827   43.2885 H   0  0  0  0  0  0  0  0  0  0  0  0
   44.0631   34.7542   41.4786 H   0  0  0  0  0  0  0  0  0  0  0  0
   45.0991   33.5021   40.8462 H   0  0  0  0  0  0  0  0  0  0  0  0
   47.0252   34.3272   42.0905 H   0  0  0  0  0  0  0  0  0  0  0  0
   46.2308   35.8406   41.7861 H   0  0  0  0  0  0  0  0  0  0  0  0
   46.5214   35.3576   44.4207 H   0  0  0  0  0  0  0  0  0  0  0  0
   42.7886   36.6888   44.2832 H   0  0  0  0  0  0  0  0  0  0  0  0
  1  6  2  0
  2  1  1  0
  3  2  2  0
  3  4  1  0
  4  5  2  0
  5  6  1  0
  7  3  1  0
  8  7  1  0
  9 10  1  0
  9  8  2  0
 10 17  2  0
 11 13  1  0
 11 10  1  0
 12 11  2  0
 13 14  1  0
 14 15  1  0
 14 16  2  0
 17 16  1  0
 17  7  1  0
 18  2  1  0
 19 18  1  0
 20 21  1  0
 20 19  1  0
 21 22  1  0
 22 18  1  0
 22 23  1  0
 23 25  1  0
 23 24  2  0
  1 26  1  0
  5 27  1  0
  8 28  1  0
 13 29  1  0
 15 30  1  0
 15 31  1  0
 19 32  1  0
 19 33  1  0
 20 34  1  0
 20 35  1  0
 21 36  1  0
 21 37  1  0
 22 38  1  1
 25 39  1  0
M  ISO  8  26  14  27  14  28  14  29   9  32  13  33  13  34  13  35  13
M  ISO  4  36  13  37  13  38  13  39   3
M  END
>  <minimizedAffinity>  (1) 
-6.53159952

>  <minimizedRMSD>  (1) 
1.1374805

$$$$
