
     RDKit          3D

 23 24  0  0  0  0  0  0  0  0999 V2000
   46.5570   32.7420   44.9490 C   0  0  0  0  0  0  0  0  0  0  0  0
   47.2100   31.5580   45.2170 C   0  0  0  0  0  0  0  0  0  0  0  0
   47.0980   30.9810   46.4720 C   0  0  0  0  0  0  0  0  0  0  0  0
   46.3460   31.5780   47.4400 C   0  0  0  0  0  0  0  0  0  0  0  0
   45.6830   32.7540   47.2080 C   0  0  0  0  0  0  0  0  0  0  0  0
   45.8160   33.2950   45.9550 C   0  0  0  0  0  0  0  0  0  0  0  0
   47.7170   34.8470   42.2050 C   0  0  0  0  0  0  0  0  0  0  0  0
   46.8520   34.5230   41.1580 C   0  0  0  0  0  0  0  0  0  0  0  0
   45.8530   33.5660   41.4020 C   0  0  0  0  0  0  0  0  0  0  0  0
   45.7880   33.0090   42.6510 N   0  0  0  0  0  0  0  0  0  0  0  0
   46.6640   33.3680   43.6370 C   0  0  0  0  0  0  0  0  0  0  0  0
   47.6160   34.2810   43.4010 N   0  0  0  0  0  0  0  0  0  0  0  0
   45.0620   34.5190   45.8240 C   0  0  0  0  0  0  0  0  0  0  0  0
   44.6500   35.0810   44.7780 O   0  0  0  0  0  0  0  0  0  0  0  0
   44.4330   35.6100   46.3350 O   0  0  0  0  0  0  0  0  0  0  0  0
   47.8172   31.0734   44.4383 H   0  0  0  0  0  0  0  0  0  0  0  0
   47.6185   30.0364   46.6883 H   0  0  0  0  0  0  0  0  0  0  0  0
   46.2700   31.1044   48.4299 H   0  0  0  0  0  0  0  0  0  0  0  0
   45.0756   33.2391   47.9863 H   0  0  0  0  0  0  0  0  0  0  0  0
   48.5060   35.5940   42.0333 H   0  0  0  0  0  0  0  0  0  0  0  0
   46.9497   35.0022   40.1727 H   0  0  0  0  0  0  0  0  0  0  0  0
   45.1443   33.2730   40.6134 H   0  0  0  0  0  0  0  0  0  0  0  0
   43.9963   36.2590   45.7282 H   0  0  0  0  0  0  0  0  0  0  0  0
  1  2  2  0
  1  6  1  0
  2  3  1  0
  3  4  2  0
  5  4  1  0
  6  5  2  0
  7 12  2  0
  8  9  2  0
  8  7  1  0
  9 10  1  0
 10 11  2  0
 11  1  1  0
 12 11  1  0
 13  6  1  0
 13 15  1  0
 14 13  2  0
  2 16  1  0
  3 17  1  0
  4 18  1  0
  5 19  1  0
  7 20  1  0
  8 21  1  0
  9 22  1  0
 15 23  1  0
M  ISO  8  16  14  17  14  18  14  19  14  20  14  21  14  22  14  23   3
M  END
>  <minimizedAffinity>  (1) 
-4.76006651

>  <minimizedRMSD>  (1) 
2.75240159

$$$$
