
     RDKit          3D

 21 22  0  0  0  0  0  0  0  0999 V2000
   46.5390   34.0780   43.7300 C   0  0  0  0  0  0  0  0  0  0  0  0
   47.0590   33.0640   44.5250 C   0  0  0  0  0  0  0  0  0  0  0  0
   46.5910   32.8060   45.7890 C   0  0  0  0  0  0  0  0  0  0  0  0
   45.5720   33.6060   46.2420 C   0  0  0  0  0  0  0  0  0  0  0  0
   45.0210   34.6320   45.4840 C   0  0  0  0  0  0  0  0  0  0  0  0
   45.5100   34.8760   44.2060 C   0  0  0  0  0  0  0  0  0  0  0  0
   48.6840   35.3200   41.0350 C   0  0  0  0  0  0  0  0  0  0  0  0
   48.1740   34.6780   39.8880 C   0  0  0  0  0  0  0  0  0  0  0  0
   47.0740   33.8060   40.0610 C   0  0  0  0  0  0  0  0  0  0  0  0
   46.5610   33.6280   41.3230 N   0  0  0  0  0  0  0  0  0  0  0  0
   47.1050   34.2830   42.3840 C   0  0  0  0  0  0  0  0  0  0  0  0
   48.1630   35.1280   42.2530 N   0  0  0  0  0  0  0  0  0  0  0  0
   44.8890   36.1590   43.1360 S   0  0  0  0  0  0  0  0  0  0  0  0
   47.8763   32.4450   44.1264 H   0  0  0  0  0  0  0  0  0  0  0  0
   47.0111   31.9992   46.4075 H   0  0  0  0  0  0  0  0  0  0  0  0
   45.1732   33.4268   47.2514 H   0  0  0  0  0  0  0  0  0  0  0  0
   44.2046   35.2460   45.8920 H   0  0  0  0  0  0  0  0  0  0  0  0
   49.5398   36.0024   40.9252 H   0  0  0  0  0  0  0  0  0  0  0  0
   48.6154   34.8490   38.8951 H   0  0  0  0  0  0  0  0  0  0  0  0
   46.6367   33.2794   39.1999 H   0  0  0  0  0  0  0  0  0  0  0  0
   44.3921   37.1857   43.8948 H   0  0  0  0  0  0  0  0  0  0  0  0
  1  6  1  0
  1  2  2  0
  2  3  1  0
  3  4  2  0
  5  4  1  0
  6  5  2  0
  7 12  2  0
  8  9  2  0
  8  7  1  0
  9 10  1  0
 10 11  2  0
 11  1  1  0
 12 11  1  0
 13  6  1  0
  2 14  1  0
  3 15  1  0
  4 16  1  0
  5 17  1  0
  7 18  1  0
  8 19  1  0
  9 20  1  0
 13 21  1  0
M  ISO  8  14  14  15  14  16  14  17  14  18  14  19  14  20  14  21  11
M  END
>  <minimizedAffinity>  (1) 
-4.30467987

>  <minimizedRMSD>  (1) 
4.26690912

$$$$
