
     RDKit          3D

 34 36  0  0  1  0  0  0  0  0999 V2000
   47.2070   31.6910   44.9220 C   0  0  0  0  0  0  0  0  0  0  0  0
   46.5690   32.9570   44.8340 C   0  0  0  0  0  0  0  0  0  0  0  0
   45.9630   33.4180   46.0140 C   0  0  0  0  0  0  0  0  0  0  0  0
   46.0230   32.6500   47.1300 N   0  0  0  0  0  0  0  0  0  0  0  0
   46.6400   31.4570   47.1560 C   0  0  0  0  0  0  0  0  0  0  0  0
   47.2360   30.9580   46.0710 N   0  0  0  0  0  0  0  0  0  0  0  0
   46.6550   33.5650   43.5360 C   0  0  0  0  0  0  0  0  0  0  0  0
   47.8460   34.1890   43.3160 N   0  0  0  0  0  0  0  0  0  0  0  0
   48.1170   34.8240   42.1490 C   0  0  0  0  0  0  0  0  0  0  0  0
   47.2160   34.8710   41.1400 N   0  0  0  0  0  0  0  0  0  0  0  0
   46.0160   34.2600   41.3230 C   0  0  0  0  0  0  0  0  0  0  0  0
   45.0110   34.2330   40.3770 C   0  0  0  0  0  0  0  0  0  0  0  0
   43.8130   33.6080   40.5960 C   0  0  0  0  0  0  0  0  0  0  0  0
   43.5810   32.9710   41.8050 C   0  0  0  0  0  0  0  0  0  0  0  0
   44.5600   32.9790   42.7690 C   0  0  0  0  0  0  0  0  0  0  0  0
   45.7470   33.6200   42.5050 C   0  0  0  0  0  0  0  0  0  0  0  0
   46.6750   30.6900   48.4040 C   0  0  1  0  0  0  0  0  0  0  0  0
   47.8970   31.0530   49.2630 C   0  0  0  0  0  0  0  0  0  0  0  0
   45.4590   30.8610   49.2650 C   0  0  0  0  0  0  0  0  0  0  0  0
   45.5560   32.1140   49.9000 O   0  0  0  0  0  0  0  0  0  0  0  0
   47.6983   31.2850   44.0254 H   0  0  0  0  0  0  0  0  0  0  0  0
   45.4466   34.3891   46.0328 H   0  0  0  0  0  0  0  0  0  0  0  0
   49.0936   35.3132   42.0190 H   0  0  0  0  0  0  0  0  0  0  0  0
   45.1791   34.7323   39.4114 H   0  0  0  0  0  0  0  0  0  0  0  0
   43.0376   33.6113   39.8158 H   0  0  0  0  0  0  0  0  0  0  0  0
   42.6226   32.4641   41.9908 H   0  0  0  0  0  0  0  0  0  0  0  0
   44.3966   32.4807   43.7360 H   0  0  0  0  0  0  0  0  0  0  0  0
   46.7226   29.6439   48.0673 H   0  0  0  0  0  0  0  0  0  0  0  0
   47.6329   30.9746   50.3279 H   0  0  0  0  0  0  0  0  0  0  0  0
   48.7220   30.3611   49.0379 H   0  0  0  0  0  0  0  0  0  0  0  0
   48.2105   32.0831   49.0379 H   0  0  0  0  0  0  0  0  0  0  0  0
   44.5521   30.8253   48.6436 H   0  0  0  0  0  0  0  0  0  0  0  0
   45.3991   30.0549   50.0111 H   0  0  0  0  0  0  0  0  0  0  0  0
   45.5462   31.9880   50.8819 H   0  0  0  0  0  0  0  0  0  0  0  0
  1  6  2  0
  2  1  1  0
  2  3  2  0
  3  4  1  0
  4  5  2  0
  5 17  1  0
  6  5  1  0
  7  2  1  0
  8  7  2  0
  9  8  1  0
 10 11  1  0
 10  9  2  0
 11 16  2  0
 12 13  2  0
 12 11  1  0
 13 14  1  0
 14 15  2  0
 16 15  1  0
 16  7  1  0
 17 18  1  0
 17 19  1  0
 19 20  1  0
  1 21  1  0
  3 22  1  0
  9 23  1  0
 12 24  1  0
 13 25  1  0
 14 26  1  0
 15 27  1  0
 17 28  1  6
 18 29  1  0
 18 30  1  0
 18 31  1  0
 19 32  1  0
 19 33  1  0
 20 34  1  0
M  ISO  8  21  14  22  14  23  14  24  14  25  14  26  14  27  14  28   8
M  ISO  6  29   8  30   8  31   8  32   8  33   8  34   3
M  END
>  <minimizedAffinity>  (1) 
-5.21214628

>  <minimizedRMSD>  (1) 
0.244522572

$$$$
