
     RDKit          3D

 35 37  0  0  0  0  0  0  0  0999 V2000
   46.8380   33.9640   43.4260 C   0  0  0  0  0  0  0  0  0  0  0  0
   47.4670   33.0410   44.2480 C   0  0  0  0  0  0  0  0  0  0  0  0
   46.9610   32.7450   45.5000 C   0  0  0  0  0  0  0  0  0  0  0  0
   45.8300   33.3760   45.9140 C   0  0  0  0  0  0  0  0  0  0  0  0
   45.1700   34.2990   45.1390 C   0  0  0  0  0  0  0  0  0  0  0  0
   45.7150   34.5550   43.9090 C   0  0  0  0  0  0  0  0  0  0  0  0
   48.7780   35.5370   40.7740 C   0  0  0  0  0  0  0  0  0  0  0  0
   48.4330   34.7800   39.6360 C   0  0  0  0  0  0  0  0  0  0  0  0
   47.5170   33.7110   39.7900 C   0  0  0  0  0  0  0  0  0  0  0  0
   47.0180   33.4770   41.0420 N   0  0  0  0  0  0  0  0  0  0  0  0
   47.3930   34.2520   42.1130 C   0  0  0  0  0  0  0  0  0  0  0  0
   48.2520   35.2540   41.9660 N   0  0  0  0  0  0  0  0  0  0  0  0
   44.9710   35.5360   43.1310 C   0  0  0  0  0  0  0  0  0  0  0  0
   45.0220   36.7920   43.2050 O   0  0  0  0  0  0  0  0  0  0  0  0
   44.0640   34.9700   42.1560 N   0  0  0  0  0  0  0  0  0  0  0  0
   43.4590   35.7190   41.0690 C   0  0  0  0  0  0  0  0  0  0  0  0
   42.0030   35.4600   40.8790 C   0  0  0  0  0  0  0  0  0  0  0  0
   41.6010   34.3320   41.5760 O   0  0  0  0  0  0  0  0  0  0  0  0
   42.5560   33.3400   41.2580 C   0  0  0  0  0  0  0  0  0  0  0  0
   43.6860   33.5480   42.2090 C   0  0  0  0  0  0  0  0  0  0  0  0
   48.3808   32.5377   43.8991 H   0  0  0  0  0  0  0  0  0  0  0  0
   47.4638   32.0129   46.1490 H   0  0  0  0  0  0  0  0  0  0  0  0
   45.4271   33.1380   46.9095 H   0  0  0  0  0  0  0  0  0  0  0  0
   44.2563   34.8033   45.4866 H   0  0  0  0  0  0  0  0  0  0  0  0
   49.4892   36.3706   40.6775 H   0  0  0  0  0  0  0  0  0  0  0  0
   48.8650   35.0140   38.6518 H   0  0  0  0  0  0  0  0  0  0  0  0
   47.2172   33.0904   38.9327 H   0  0  0  0  0  0  0  0  0  0  0  0
   43.5940   36.7914   41.2730 H   0  0  0  0  0  0  0  0  0  0  0  0
   43.9594   35.3922   40.1455 H   0  0  0  0  0  0  0  0  0  0  0  0
   41.4335   36.3283   41.2419 H   0  0  0  0  0  0  0  0  0  0  0  0
   41.8149   35.2939   39.8080 H   0  0  0  0  0  0  0  0  0  0  0  0
   42.1247   32.3365   41.3885 H   0  0  0  0  0  0  0  0  0  0  0  0
   42.8868   33.4155   40.2117 H   0  0  0  0  0  0  0  0  0  0  0  0
   44.5418   32.9223   41.9156 H   0  0  0  0  0  0  0  0  0  0  0  0
   43.3853   33.2685   43.2295 H   0  0  0  0  0  0  0  0  0  0  0  0
  1  6  1  0
  1  2  2  0
  2  3  1  0
  3  4  2  0
  5  4  1  0
  6  5  2  0
  7 12  2  0
  8  9  2  0
  8  7  1  0
  9 10  1  0
 10 11  2  0
 11  1  1  0
 12 11  1  0
 13 14  2  0
 13  6  1  0
 15 20  1  0
 15 13  1  0
 16 15  1  0
 17 16  1  0
 17 18  1  0
 19 18  1  0
 19 20  1  0
  2 21  1  0
  3 22  1  0
  4 23  1  0
  5 24  1  0
  7 25  1  0
  8 26  1  0
  9 27  1  0
 16 28  1  0
 16 29  1  0
 17 30  1  0
 17 31  1  0
 19 32  1  0
 19 33  1  0
 20 34  1  0
 20 35  1  0
M  ISO  8  21  14  22  14  23  14  24  14  25  14  26  14  27  14  28  13
M  ISO  7  29  13  30  13  31  13  32  13  33  13  34  13  35  13
M  END
>  <minimizedAffinity>  (1) 
-5.46308279

>  <minimizedRMSD>  (1) 
0.67768544

$$$$
