
     RDKit          3D

 36 38  0  0  0  0  0  0  0  0999 V2000
   46.9630   34.2710   43.0990 C   0  0  0  0  0  0  0  0  0  0  0  0
   46.4490   35.4500   42.6260 C   0  0  0  0  0  0  0  0  0  0  0  0
   45.3290   36.0030   43.1990 C   0  0  0  0  0  0  0  0  0  0  0  0
   44.7300   35.3700   44.2440 C   0  0  0  0  0  0  0  0  0  0  0  0
   45.2120   34.1780   44.7560 C   0  0  0  0  0  0  0  0  0  0  0  0
   46.3360   33.6580   44.1540 C   0  0  0  0  0  0  0  0  0  0  0  0
   49.0880   32.2850   40.8840 C   0  0  0  0  0  0  0  0  0  0  0  0
   50.3900   32.6080   41.3070 C   0  0  0  0  0  0  0  0  0  0  0  0
   50.5260   33.5170   42.3640 C   0  0  0  0  0  0  0  0  0  0  0  0
   49.3970   34.0530   42.9400 N   0  0  0  0  0  0  0  0  0  0  0  0
   48.1550   33.6950   42.4790 C   0  0  0  0  0  0  0  0  0  0  0  0
   48.0260   32.8290   41.4710 N   0  0  0  0  0  0  0  0  0  0  0  0
   46.7860   32.4140   44.7360 C   0  0  0  0  0  0  0  0  0  0  0  0
   47.6160   31.5920   44.2460 O   0  0  0  0  0  0  0  0  0  0  0  0
   46.3740   31.8760   45.9880 N   0  0  0  0  0  0  0  0  0  0  0  0
   46.3260   32.8040   47.1030 C   0  0  0  0  0  0  0  0  0  0  0  0
   47.5150   32.4390   47.9830 C   0  0  0  0  0  0  0  0  0  0  0  0
   47.6660   31.0060   48.0970 N   0  0  0  0  0  0  0  0  0  0  0  0
   46.4440   30.2840   47.8220 C   0  0  0  0  0  0  0  0  0  0  0  0
   45.9740   30.5160   46.3820 C   0  0  0  0  0  0  0  0  0  0  0  0
   46.9368   35.9578   41.7809 H   0  0  0  0  0  0  0  0  0  0  0  0
   44.9201   36.9496   42.8160 H   0  0  0  0  0  0  0  0  0  0  0  0
   43.8340   35.8201   44.6963 H   0  0  0  0  0  0  0  0  0  0  0  0
   44.7222   33.6717   45.6008 H   0  0  0  0  0  0  0  0  0  0  0  0
   48.9465   31.5734   40.0572 H   0  0  0  0  0  0  0  0  0  0  0  0
   51.2718   32.1617   40.8240 H   0  0  0  0  0  0  0  0  0  0  0  0
   51.5243   33.7993   42.7296 H   0  0  0  0  0  0  0  0  0  0  0  0
   46.4153   33.8404   46.7455 H   0  0  0  0  0  0  0  0  0  0  0  0
   45.3747   32.7367   47.6512 H   0  0  0  0  0  0  0  0  0  0  0  0
   48.4299   32.8614   47.5419 H   0  0  0  0  0  0  0  0  0  0  0  0
   47.3409   32.8500   48.9884 H   0  0  0  0  0  0  0  0  0  0  0  0
   48.3864   30.6979   47.4284 H   0  0  0  0  0  0  0  0  0  0  0  0
   46.6211   29.2088   47.9726 H   0  0  0  0  0  0  0  0  0  0  0  0
   45.6632   30.6486   48.5057 H   0  0  0  0  0  0  0  0  0  0  0  0
   44.8799   30.4174   46.3257 H   0  0  0  0  0  0  0  0  0  0  0  0
   46.4260   29.7737   45.7077 H   0  0  0  0  0  0  0  0  0  0  0  0
  1  6  1  0
  2  1  2  0
  2  3  1  0
  3  4  2  0
  4  5  1  0
  6 13  1  0
  6  5  2  0
  7  8  2  0
  7 12  1  0
  8  9  1  0
  9 10  2  0
 11 10  1  0
 11  1  1  0
 12 11  2  0
 13 15  1  0
 14 13  2  0
 15 20  1  0
 15 16  1  0
 16 17  1  0
 17 18  1  0
 19 18  1  0
 20 19  1  0
  2 21  1  0
  3 22  1  0
  4 23  1  0
  5 24  1  0
  7 25  1  0
  8 26  1  0
  9 27  1  0
 16 28  1  0
 16 29  1  0
 17 30  1  0
 17 31  1  0
 18 32  1  0
 19 33  1  0
 19 34  1  0
 20 35  1  0
 20 36  1  0
M  ISO  8  21  14  22  14  23  14  24  14  25  14  26  14  27  14  28  13
M  ISO  8  29  13  30  13  31  13  32   5  33  13  34  13  35  13  36  13
M  END
>  <minimizedAffinity>  (1) 
-5.40240669

>  <minimizedRMSD>  (1) 
5.52119398

$$$$
