
     RDKit          3D

 35 37  0  0  1  0  0  0  0  0999 V2000
   47.2550   31.8160   44.9580 C   0  0  0  0  0  0  0  0  0  0  0  0
   46.5790   33.0680   44.8160 C   0  0  0  0  0  0  0  0  0  0  0  0
   45.9640   33.5630   45.9650 C   0  0  0  0  0  0  0  0  0  0  0  0
   46.0420   32.8430   47.1200 N   0  0  0  0  0  0  0  0  0  0  0  0
   46.6910   31.6740   47.1920 C   0  0  0  0  0  0  0  0  0  0  0  0
   47.2970   31.1460   46.1420 N   0  0  0  0  0  0  0  0  0  0  0  0
   46.6540   33.6140   43.4870 C   0  0  0  0  0  0  0  0  0  0  0  0
   47.8420   34.2390   43.2290 N   0  0  0  0  0  0  0  0  0  0  0  0
   48.1020   34.8150   42.0310 C   0  0  0  0  0  0  0  0  0  0  0  0
   47.1980   34.8020   41.0240 N   0  0  0  0  0  0  0  0  0  0  0  0
   46.0010   34.1870   41.2450 C   0  0  0  0  0  0  0  0  0  0  0  0
   44.9880   34.0940   40.3080 C   0  0  0  0  0  0  0  0  0  0  0  0
   43.7970   33.4660   40.5600 C   0  0  0  0  0  0  0  0  0  0  0  0
   43.5880   32.8970   41.7990 C   0  0  0  0  0  0  0  0  0  0  0  0
   44.5670   32.9650   42.7630 C   0  0  0  0  0  0  0  0  0  0  0  0
   45.7300   33.6000   42.4630 C   0  0  0  0  0  0  0  0  0  0  0  0
   46.7300   30.9690   48.4840 C   0  0  1  0  0  0  0  0  0  0  0  0
   48.1390   30.9710   49.0870 C   0  0  0  0  0  0  0  0  0  0  0  0
   45.7950   31.5120   49.5220 C   0  0  0  0  0  0  0  0  0  0  0  0
   44.4170   31.4790   49.1260 N   0  0  0  0  0  0  0  0  0  0  0  0
   47.7574   31.3802   44.0819 H   0  0  0  0  0  0  0  0  0  0  0  0
   45.4236   34.5208   45.9400 H   0  0  0  0  0  0  0  0  0  0  0  0
   49.0734   35.3062   41.8724 H   0  0  0  0  0  0  0  0  0  0  0  0
   45.1457   34.5441   39.3168 H   0  0  0  0  0  0  0  0  0  0  0  0
   43.0180   33.4162   39.7850 H   0  0  0  0  0  0  0  0  0  0  0  0
   42.6373   32.3882   42.0165 H   0  0  0  0  0  0  0  0  0  0  0  0
   44.4117   32.5152   43.7547 H   0  0  0  0  0  0  0  0  0  0  0  0
   46.4043   29.9491   48.2316 H   0  0  0  0  0  0  0  0  0  0  0  0
   48.0681   30.9709   50.1847 H   0  0  0  0  0  0  0  0  0  0  0  0
   48.6814   30.0736   48.7545 H   0  0  0  0  0  0  0  0  0  0  0  0
   48.6788   31.8699   48.7545 H   0  0  0  0  0  0  0  0  0  0  0  0
   45.9080   30.9145   50.4387 H   0  0  0  0  0  0  0  0  0  0  0  0
   46.0615   32.5681   49.6759 H   0  0  0  0  0  0  0  0  0  0  0  0
   43.8190   31.4647   49.9645 H   0  0  0  0  0  0  0  0  0  0  0  0
   44.2010   32.3151   48.5645 H   0  0  0  0  0  0  0  0  0  0  0  0
  1  6  2  0
  2  1  1  0
  2  3  2  0
  3  4  1  0
  4  5  2  0
  5 17  1  0
  6  5  1  0
  7  2  1  0
  8  7  2  0
  9  8  1  0
 10 11  1  0
 10  9  2  0
 11 16  2  0
 12 13  2  0
 12 11  1  0
 13 14  1  0
 14 15  2  0
 16 15  1  0
 16  7  1  0
 17 18  1  0
 17 19  1  0
 20 19  1  0
  1 21  1  0
  3 22  1  0
  9 23  1  0
 12 24  1  0
 13 25  1  0
 14 26  1  0
 15 27  1  0
 17 28  1  6
 18 29  1  0
 18 30  1  0
 18 31  1  0
 19 32  1  0
 19 33  1  0
 20 34  1  0
 20 35  1  0
M  ISO  8  21  14  22  14  23  14  24  14  25  14  26  14  27  14  28   8
M  ISO  7  29   8  30   8  31   8  32   8  33   8  34   5  35   5
M  END
>  <minimizedAffinity>  (1) 
-4.91044617

>  <minimizedRMSD>  (1) 
0.204439119

$$$$
