
     RDKit          3D

 37 40  0  0  0  0  0  0  0  0999 V2000
   46.4700   34.2360   41.8310 N   0  0  0  0  0  0  0  0  0  0  0  0
   45.8710   33.6180   40.8090 C   0  0  0  0  0  0  0  0  0  0  0  0
   46.4200   33.5420   39.5470 C   0  0  0  0  0  0  0  0  0  0  0  0
   47.6600   34.1630   39.4120 C   0  0  0  0  0  0  0  0  0  0  0  0
   48.2070   34.1220   38.2730 O   0  0  0  0  0  0  0  0  0  0  0  0
   48.2850   34.7930   40.4280 N   0  0  0  0  0  0  0  0  0  0  0  0
   47.6770   34.8240   41.6430 C   0  0  0  0  0  0  0  0  0  0  0  0
   48.3230   35.4290   42.5350 O   0  0  0  0  0  0  0  0  0  0  0  0
   44.6040   33.0230   41.0830 N   0  0  0  0  0  0  0  0  0  0  0  0
   44.5570   31.6720   41.2650 C   0  0  0  0  0  0  0  0  0  0  0  0
   43.2770   31.2920   41.5140 N   0  0  0  0  0  0  0  0  0  0  0  0
   42.5280   32.4090   41.4870 C   0  0  0  0  0  0  0  0  0  0  0  0
   41.1860   32.7190   41.6550 C   0  0  0  0  0  0  0  0  0  0  0  0
   40.3760   31.7960   41.9010 O   0  0  0  0  0  0  0  0  0  0  0  0
   40.7780   34.0110   41.5520 N   0  0  0  0  0  0  0  0  0  0  0  0
   41.6410   35.0340   41.2850 C   0  0  0  0  0  0  0  0  0  0  0  0
   41.0240   36.3200   41.2150 N   0  0  0  0  0  0  0  0  0  0  0  0
   42.9630   34.7670   41.1140 N   0  0  0  0  0  0  0  0  0  0  0  0
   43.3510   33.4810   41.2190 C   0  0  0  0  0  0  0  0  0  0  0  0
   44.7640   35.6960   44.7470 C   0  0  0  0  0  0  0  0  0  0  0  0
   45.2540   35.5320   43.4280 C   0  0  0  0  0  0  0  0  0  0  0  0
   45.9990   34.3670   43.1420 C   0  0  0  0  0  0  0  0  0  0  0  0
   46.1960   33.4820   44.1530 N   0  0  0  0  0  0  0  0  0  0  0  0
   45.7160   33.6670   45.3950 C   0  0  0  0  0  0  0  0  0  0  0  0
   44.9980   34.7710   45.7050 N   0  0  0  0  0  0  0  0  0  0  0  0
   45.7150   32.8450   38.4490 C   0  0  0  0  0  0  0  0  0  0  0  0
   49.2019   35.2402   40.2861 H   0  0  0  0  0  0  0  0  0  0  0  0
   45.4224   30.9946   41.2174 H   0  0  0  0  0  0  0  0  0  0  0  0
   39.7790   34.2266   41.6804 H   0  0  0  0  0  0  0  0  0  0  0  0
   41.5943   37.1548   41.0180 H   0  0  0  0  0  0  0  0  0  0  0  0
   40.0087   36.4127   41.3615 H   0  0  0  0  0  0  0  0  0  0  0  0
   44.1810   36.5946   44.9970 H   0  0  0  0  0  0  0  0  0  0  0  0
   45.0605   36.2873   42.6521 H   0  0  0  0  0  0  0  0  0  0  0  0
   45.9096   32.9105   46.1697 H   0  0  0  0  0  0  0  0  0  0  0  0
   44.9929   32.1311   38.8719 H   0  0  0  0  0  0  0  0  0  0  0  0
   45.1825   33.5815   37.8293 H   0  0  0  0  0  0  0  0  0  0  0  0
   46.4454   32.3041   37.8293 H   0  0  0  0  0  0  0  0  0  0  0  0
  1 22  1  0
  2  9  1  0
  2  1  1  0
  3  2  2  0
  4  3  1  0
  4  6  1  0
  5  4  2  0
  6  7  1  0
  7  1  1  0
  7  8  2  0
  9 19  1  0
  9 10  1  0
 10 11  2  0
 12 11  1  0
 12 13  1  0
 13 14  2  0
 15 13  1  0
 16 15  1  0
 17 16  1  0
 18 19  1  0
 18 16  2  0
 19 12  2  0
 20 25  2  0
 21 20  1  0
 22 21  2  0
 22 23  1  0
 23 24  2  0
 24 25  1  0
 26  3  1  0
  6 27  1  0
 10 28  1  0
 15 29  1  0
 17 30  1  0
 17 31  1  0
 20 32  1  0
 21 33  1  0
 24 34  1  0
 26 35  1  0
 26 36  1  0
 26 37  1  0
M  ISO  8  27   9  28  14  29   9  32  14  33  14  34  14  35   8  36   8
M  ISO  1  37   8
M  END
>  <minimizedAffinity>  (1) 
-6.52005291

>  <minimizedRMSD>  (1) 
0.680560529

$$$$
