
     RDKit          3D

 37 40  0  0  0  0  0  0  0  0999 V2000
   45.8810   34.2330   41.7790 N   0  0  0  0  0  0  0  0  0  0  0  0
   45.0920   33.6650   40.8360 C   0  0  0  0  0  0  0  0  0  0  0  0
   45.5730   33.3940   39.5650 C   0  0  0  0  0  0  0  0  0  0  0  0
   46.8880   33.7370   39.3320 C   0  0  0  0  0  0  0  0  0  0  0  0
   47.3790   33.5160   38.1920 O   0  0  0  0  0  0  0  0  0  0  0  0
   47.6860   34.3060   40.2730 N   0  0  0  0  0  0  0  0  0  0  0  0
   47.1680   34.5510   41.5000 C   0  0  0  0  0  0  0  0  0  0  0  0
   47.9550   35.0730   42.3140 O   0  0  0  0  0  0  0  0  0  0  0  0
   43.7350   33.2800   41.1980 C   0  0  0  0  0  0  0  0  0  0  0  0
   43.1900   32.1870   41.8340 C   0  0  0  0  0  0  0  0  0  0  0  0
   41.8520   32.2390   41.9070 N   0  0  0  0  0  0  0  0  0  0  0  0
   41.4610   33.3800   41.3160 C   0  0  0  0  0  0  0  0  0  0  0  0
   40.1660   33.8220   41.1630 C   0  0  0  0  0  0  0  0  0  0  0  0
   39.9680   35.0200   40.5120 C   0  0  0  0  0  0  0  0  0  0  0  0
   41.0570   35.7220   40.0450 C   0  0  0  0  0  0  0  0  0  0  0  0
   42.3250   35.2210   40.2330 C   0  0  0  0  0  0  0  0  0  0  0  0
   42.5970   34.0310   40.8750 C   0  0  0  0  0  0  0  0  0  0  0  0
   44.4880   36.1650   44.5900 C   0  0  0  0  0  0  0  0  0  0  0  0
   44.8920   35.7840   43.2960 C   0  0  0  0  0  0  0  0  0  0  0  0
   45.5070   34.5460   43.0890 C   0  0  0  0  0  0  0  0  0  0  0  0
   45.6870   33.7490   44.1870 N   0  0  0  0  0  0  0  0  0  0  0  0
   45.2940   34.1290   45.4180 C   0  0  0  0  0  0  0  0  0  0  0  0
   44.7020   35.3160   45.6280 N   0  0  0  0  0  0  0  0  0  0  0  0
   44.7100   32.7930   38.5460 C   0  0  0  0  0  0  0  0  0  0  0  0
   48.6642   34.5459   40.0577 H   0  0  0  0  0  0  0  0  0  0  0  0
   43.7891   31.3584   42.2395 H   0  0  0  0  0  0  0  0  0  0  0  0
   41.2371   31.5335   42.3373 H   0  0  0  0  0  0  0  0  0  0  0  0
   39.3172   33.2377   41.5480 H   0  0  0  0  0  0  0  0  0  0  0  0
   38.9505   35.4118   40.3667 H   0  0  0  0  0  0  0  0  0  0  0  0
   40.9138   36.6799   39.5235 H   0  0  0  0  0  0  0  0  0  0  0  0
   43.1735   35.8055   39.8476 H   0  0  0  0  0  0  0  0  0  0  0  0
   44.0048   37.1388   44.7580 H   0  0  0  0  0  0  0  0  0  0  0  0
   44.7233   36.4620   42.4464 H   0  0  0  0  0  0  0  0  0  0  0  0
   45.4615   33.4528   46.2693 H   0  0  0  0  0  0  0  0  0  0  0  0
   43.9017   32.2301   39.0357 H   0  0  0  0  0  0  0  0  0  0  0  0
   44.2767   33.5858   37.9184 H   0  0  0  0  0  0  0  0  0  0  0  0
   45.3033   32.1117   37.9184 H   0  0  0  0  0  0  0  0  0  0  0  0
  1 20  1  0
  2  9  1  0
  2  1  1  0
  3  2  2  0
  4  3  1  0
  4  6  1  0
  5  4  2  0
  6  7  1  0
  7  1  1  0
  7  8  2  0
  9 10  2  0
 10 11  1  0
 12 11  1  0
 13 12  2  0
 14 13  1  0
 15 16  1  0
 15 14  2  0
 16 17  2  0
 17  9  1  0
 17 12  1  0
 18 23  2  0
 19 18  1  0
 20 19  2  0
 20 21  1  0
 21 22  2  0
 22 23  1  0
 24  3  1  0
  6 25  1  0
 10 26  1  0
 11 27  1  0
 13 28  1  0
 14 29  1  0
 15 30  1  0
 16 31  1  0
 18 32  1  0
 19 33  1  0
 22 34  1  0
 24 35  1  0
 24 36  1  0
 24 37  1  0
M  ISO  8  25   9  26  14  27   9  28  14  29  14  30  14  31  14  32  14
M  ISO  5  33  14  34  14  35   8  36   8  37   8
M  END
>  <minimizedAffinity>  (1) 
-6.67279243

>  <minimizedRMSD>  (1) 
1.70562851

$$$$
