
     RDKit          3D

 36 38  0  0  0  0  0  0  0  0999 V2000
   46.5250   34.4160   41.5620 N   0  0  0  0  0  0  0  0  0  0  0  0
   45.8860   33.8480   40.5100 C   0  0  0  0  0  0  0  0  0  0  0  0
   46.5820   33.6300   39.3240 C   0  0  0  0  0  0  0  0  0  0  0  0
   47.9170   34.0210   39.3100 C   0  0  0  0  0  0  0  0  0  0  0  0
   48.5500   33.8220   38.2340 O   0  0  0  0  0  0  0  0  0  0  0  0
   48.5300   34.5830   40.3670 N   0  0  0  0  0  0  0  0  0  0  0  0
   47.8080   34.7730   41.4910 C   0  0  0  0  0  0  0  0  0  0  0  0
   48.4550   35.3070   42.4330 O   0  0  0  0  0  0  0  0  0  0  0  0
   44.7140   36.2880   44.1870 C   0  0  0  0  0  0  0  0  0  0  0  0
   45.3070   35.9720   42.9330 C   0  0  0  0  0  0  0  0  0  0  0  0
   45.9300   34.7020   42.8220 C   0  0  0  0  0  0  0  0  0  0  0  0
   45.9250   33.8760   43.8940 N   0  0  0  0  0  0  0  0  0  0  0  0
   45.3530   34.2130   45.0630 C   0  0  0  0  0  0  0  0  0  0  0  0
   44.7510   35.4050   45.2180 N   0  0  0  0  0  0  0  0  0  0  0  0
   44.4880   33.5030   40.7160 C   0  0  0  0  0  0  0  0  0  0  0  0
   43.5160   34.6770   40.7100 C   0  0  0  0  0  0  0  0  0  0  0  0
   42.2270   34.0270   41.1850 C   0  0  0  0  0  0  0  0  0  0  0  0
   42.5580   32.5520   41.4560 C   0  0  0  0  0  0  0  0  0  0  0  0
   44.0290   32.7790   41.8980 C   0  0  0  0  0  0  0  0  0  0  0  0
   45.8820   33.0510   38.1710 C   0  0  0  0  0  0  0  0  0  0  0  0
   49.5209   34.8601   40.3199 H   0  0  0  0  0  0  0  0  0  0  0  0
   44.2188   37.2607   44.3233 H   0  0  0  0  0  0  0  0  0  0  0  0
   45.2837   36.6783   42.0900 H   0  0  0  0  0  0  0  0  0  0  0  0
   45.3779   33.5041   45.9037 H   0  0  0  0  0  0  0  0  0  0  0  0
   44.4762   32.8317   39.8447 H   0  0  0  0  0  0  0  0  0  0  0  0
   43.8420   35.4685   41.4008 H   0  0  0  0  0  0  0  0  0  0  0  0
   43.4271   35.1724   39.7319 H   0  0  0  0  0  0  0  0  0  0  0  0
   41.8733   34.5128   42.1063 H   0  0  0  0  0  0  0  0  0  0  0  0
   41.4308   34.1247   40.4324 H   0  0  0  0  0  0  0  0  0  0  0  0
   41.9383   32.1197   42.2555 H   0  0  0  0  0  0  0  0  0  0  0  0
   42.3912   31.8456   40.6295 H   0  0  0  0  0  0  0  0  0  0  0  0
   44.5709   31.8329   42.0434 H   0  0  0  0  0  0  0  0  0  0  0  0
   44.1696   33.2904   42.8617 H   0  0  0  0  0  0  0  0  0  0  0  0
   45.0794   32.3872   38.5248 H   0  0  0  0  0  0  0  0  0  0  0  0
   45.4486   33.8581   37.5621 H   0  0  0  0  0  0  0  0  0  0  0  0
   46.5934   32.4739   37.5621 H   0  0  0  0  0  0  0  0  0  0  0  0
  1 11  1  0
  2 15  1  0
  2  1  1  0
  3  2  2  0
  4  3  1  0
  4  6  1  0
  5  4  2  0
  6  7  1  0
  7  1  1  0
  7  8  2  0
  9 14  2  0
 10  9  1  0
 11 10  2  0
 11 12  1  0
 12 13  2  0
 13 14  1  0
 15 19  1  0
 16 15  1  0
 16 17  1  0
 17 18  1  0
 18 19  1  0
 20  3  1  0
  6 21  1  0
  9 22  1  0
 10 23  1  0
 13 24  1  0
 15 25  1  0
 16 26  1  0
 16 27  1  0
 17 28  1  0
 17 29  1  0
 18 30  1  0
 18 31  1  0
 19 32  1  0
 19 33  1  0
 20 34  1  0
 20 35  1  0
 20 36  1  0
M  ISO  8  21   9  22  14  23  14  24  14  25  13  26  13  27  13  28  13
M  ISO  8  29  13  30  13  31  13  32  13  33  13  34   8  35   8  36   8
M  END
>  <minimizedAffinity>  (1) 
-5.50793552

>  <minimizedRMSD>  (1) 
0.284647077

$$$$
