
     RDKit          3D

 36 38  0  0  0  0  0  0  0  0999 V2000
   46.4970   34.4170   41.6100 N   0  0  0  0  0  0  0  0  0  0  0  0
   45.9020   33.8630   40.5510 C   0  0  0  0  0  0  0  0  0  0  0  0
   46.5380   33.6520   39.3510 C   0  0  0  0  0  0  0  0  0  0  0  0
   47.8610   34.0600   39.3110 C   0  0  0  0  0  0  0  0  0  0  0  0
   48.5030   33.8990   38.2390 O   0  0  0  0  0  0  0  0  0  0  0  0
   48.4900   34.6230   40.3710 N   0  0  0  0  0  0  0  0  0  0  0  0
   47.7950   34.7990   41.5220 C   0  0  0  0  0  0  0  0  0  0  0  0
   48.4460   35.3250   42.4550 O   0  0  0  0  0  0  0  0  0  0  0  0
   44.7150   36.2210   44.2880 C   0  0  0  0  0  0  0  0  0  0  0  0
   45.2940   35.9290   43.0250 C   0  0  0  0  0  0  0  0  0  0  0  0
   45.9360   34.6740   42.8660 C   0  0  0  0  0  0  0  0  0  0  0  0
   45.9510   33.8430   43.9350 N   0  0  0  0  0  0  0  0  0  0  0  0
   45.3990   34.1380   45.1170 C   0  0  0  0  0  0  0  0  0  0  0  0
   44.7790   35.3280   45.3020 N   0  0  0  0  0  0  0  0  0  0  0  0
   44.5510   33.4810   40.6860 N   0  0  0  0  0  0  0  0  0  0  0  0
   44.1600   32.1890   41.1790 C   0  0  0  0  0  0  0  0  0  0  0  0
   42.8590   31.7290   40.5600 C   0  0  0  0  0  0  0  0  0  0  0  0
   42.6450   32.3870   39.3600 O   0  0  0  0  0  0  0  0  0  0  0  0
   42.3450   33.7220   39.6460 C   0  0  0  0  0  0  0  0  0  0  0  0
   43.5150   34.4280   40.3080 C   0  0  0  0  0  0  0  0  0  0  0  0
   45.8360   33.0220   38.2120 C   0  0  0  0  0  0  0  0  0  0  0  0
   49.4765   34.9115   40.3038 H   0  0  0  0  0  0  0  0  0  0  0  0
   44.2083   37.1849   44.4438 H   0  0  0  0  0  0  0  0  0  0  0  0
   45.2464   36.6519   42.1972 H   0  0  0  0  0  0  0  0  0  0  0  0
   45.4487   33.4118   45.9417 H   0  0  0  0  0  0  0  0  0  0  0  0
   44.9480   31.4607   40.9368 H   0  0  0  0  0  0  0  0  0  0  0  0
   44.0165   32.2641   42.2670 H   0  0  0  0  0  0  0  0  0  0  0  0
   42.9058   30.6452   40.3776 H   0  0  0  0  0  0  0  0  0  0  0  0
   42.0319   31.9568   41.2485 H   0  0  0  0  0  0  0  0  0  0  0  0
   42.0988   34.2415   38.7081 H   0  0  0  0  0  0  0  0  0  0  0  0
   41.4928   33.7420   40.3413 H   0  0  0  0  0  0  0  0  0  0  0  0
   43.9372   35.1607   39.6046 H   0  0  0  0  0  0  0  0  0  0  0  0
   43.1516   34.9299   41.2169 H   0  0  0  0  0  0  0  0  0  0  0  0
   45.0675   32.3323   38.5911 H   0  0  0  0  0  0  0  0  0  0  0  0
   45.3593   33.8010   37.5989 H   0  0  0  0  0  0  0  0  0  0  0  0
   46.5591   32.4641   37.5989 H   0  0  0  0  0  0  0  0  0  0  0  0
  1 11  1  0
  2 15  1  0
  2  1  1  0
  3  2  2  0
  4  3  1  0
  4  6  1  0
  5  4  2  0
  6  7  1  0
  7  1  1  0
  7  8  2  0
  9 14  2  0
 10  9  1  0
 11 10  2  0
 11 12  1  0
 12 13  2  0
 13 14  1  0
 15 16  1  0
 17 16  1  0
 18 19  1  0
 18 17  1  0
 19 20  1  0
 20 15  1  0
 21  3  1  0
  6 22  1  0
  9 23  1  0
 10 24  1  0
 13 25  1  0
 16 26  1  0
 16 27  1  0
 17 28  1  0
 17 29  1  0
 19 30  1  0
 19 31  1  0
 20 32  1  0
 20 33  1  0
 21 34  1  0
 21 35  1  0
 21 36  1  0
M  ISO  8  22   9  23  14  24  14  25  14  26  13  27  13  28  13  29  13
M  ISO  7  30  13  31  13  32  13  33  13  34   8  35   8  36   8
M  END
>  <minimizedAffinity>  (1) 
-5.32074547

>  <minimizedRMSD>  (1) 
0.267661244

$$$$
