
     RDKit          3D

 23 24  0  0  0  0  0  0  0  0999 V2000
   43.7360   34.1220   41.3980 C   0  0  0  0  0  0  0  0  0  0  0  0
   44.6210   33.4300   40.6510 C   0  0  0  0  0  0  0  0  0  0  0  0
   45.8120   32.8370   41.9000 S   0  0  0  0  0  0  0  0  0  0  0  0
   44.8390   33.6810   43.2760 C   0  0  0  0  0  0  0  0  0  0  0  0
   43.9580   34.1700   42.6810 N   0  0  0  0  0  0  0  0  0  0  0  0
   45.3590   33.5400   44.6130 N   0  0  0  0  0  0  0  0  0  0  0  0
   46.7200   33.3930   44.9060 C   0  0  0  0  0  0  0  0  0  0  0  0
   47.5570   33.8290   44.0160 N   0  0  0  0  0  0  0  0  0  0  0  0
   47.0070   32.7710   46.1710 N   0  0  0  0  0  0  0  0  0  0  0  0
   48.5700   33.7120   44.2480 H   0  0  0  0  0  0  0  0  0  0  0  0
   40.4880   36.0470   40.8410 C   0  0  0  0  0  0  0  0  0  0  0  0
   41.5610   35.4340   41.4940 C   0  0  0  0  0  0  0  0  0  0  0  0
   42.5670   34.7930   40.7610 C   0  0  0  0  0  0  0  0  0  0  0  0
   42.3990   34.8280   39.4190 N   0  0  0  0  0  0  0  0  0  0  0  0
   41.3800   35.4080   38.7800 C   0  0  0  0  0  0  0  0  0  0  0  0
   40.4360   36.0120   39.5040 N   0  0  0  0  0  0  0  0  0  0  0  0
   44.6239   33.2649   39.5635 H   0  0  0  0  0  0  0  0  0  0  0  0
   44.6913   33.5479   45.3973 H   0  0  0  0  0  0  0  0  0  0  0  0
   47.9838   32.6252   46.4633 H   0  0  0  0  0  0  0  0  0  0  0  0
   46.2357   32.4715   46.7844 H   0  0  0  0  0  0  0  0  0  0  0  0
   39.6980   36.5507   41.4173 H   0  0  0  0  0  0  0  0  0  0  0  0
   41.6155   35.4553   42.5924 H   0  0  0  0  0  0  0  0  0  0  0  0
   41.3202   35.3883   37.6818 H   0  0  0  0  0  0  0  0  0  0  0  0
  1  5  1  0
  2  1  2  0
  2  3  1  0
  3  4  1  0
  4  6  1  0
  5  4  2  0
  6  7  1  0
  7  9  1  0
  8 10  1  0
  8  7  2  0
 11 12  2  0
 13  1  1  0
 13 12  1  0
 14 13  2  0
 15 14  1  0
 15 16  2  0
 16 11  1  0
  2 17  1  0
  6 18  1  0
  9 19  1  0
  9 20  1  0
 11 21  1  0
 12 22  1  0
 15 23  1  0
M  ISO  4  17  14  21  14  22  14  23  14
M  END
>  <minimizedAffinity>  (1) 
-4.49854851

>  <minimizedRMSD>  (1) 
5.92077827

$$$$
