
     RDKit          3D

 30 32  0  0  0  0  0  0  0  0999 V2000
   46.4730   34.4160   41.6300 N   0  0  0  0  0  0  0  0  0  0  0  0
   45.8570   33.9020   40.5660 C   0  0  0  0  0  0  0  0  0  0  0  0
   46.4980   33.6430   39.3750 C   0  0  0  0  0  0  0  0  0  0  0  0
   47.8550   33.9650   39.3730 C   0  0  0  0  0  0  0  0  0  0  0  0
   48.5360   33.7600   38.3150 O   0  0  0  0  0  0  0  0  0  0  0  0
   48.5090   34.4910   40.4440 N   0  0  0  0  0  0  0  0  0  0  0  0
   47.8000   34.7130   41.5750 C   0  0  0  0  0  0  0  0  0  0  0  0
   48.4620   35.1960   42.5180 O   0  0  0  0  0  0  0  0  0  0  0  0
   44.7030   36.3130   44.2450 C   0  0  0  0  0  0  0  0  0  0  0  0
   45.2860   35.9920   42.9940 C   0  0  0  0  0  0  0  0  0  0  0  0
   45.9100   34.7170   42.8760 C   0  0  0  0  0  0  0  0  0  0  0  0
   45.9210   33.8660   43.9700 N   0  0  0  0  0  0  0  0  0  0  0  0
   45.3420   34.2430   45.1350 C   0  0  0  0  0  0  0  0  0  0  0  0
   44.7380   35.4540   45.2740 N   0  0  0  0  0  0  0  0  0  0  0  0
   44.4290   33.5930   40.5670 C   0  0  0  0  0  0  0  0  0  0  0  0
   43.3030   34.3660   40.1420 C   0  0  0  0  0  0  0  0  0  0  0  0
   42.0800   33.8340   40.2780 C   0  0  0  0  0  0  0  0  0  0  0  0
   41.8370   32.5880   40.8020 C   0  0  0  0  0  0  0  0  0  0  0  0
   43.6410   32.1540   41.1320 S   0  0  0  0  0  0  0  0  0  0  0  0
   45.8420   33.0800   38.2040 C   0  0  0  0  0  0  0  0  0  0  0  0
   49.5135   34.7135   40.3953 H   0  0  0  0  0  0  0  0  0  0  0  0
   44.2110   37.2882   44.3748 H   0  0  0  0  0  0  0  0  0  0  0  0
   45.2579   36.6972   42.1502 H   0  0  0  0  0  0  0  0  0  0  0  0
   45.3607   33.5522   45.9908 H   0  0  0  0  0  0  0  0  0  0  0  0
   43.4371   35.3707   39.7147 H   0  0  0  0  0  0  0  0  0  0  0  0
   41.2176   34.4326   39.9495 H   0  0  0  0  0  0  0  0  0  0  0  0
   40.9038   32.0310   40.9719 H   0  0  0  0  0  0  0  0  0  0  0  0
   45.0436   32.3948   38.5250 H   0  0  0  0  0  0  0  0  0  0  0  0
   45.4084   33.8914   37.6010 H   0  0  0  0  0  0  0  0  0  0  0  0
   46.5783   32.5283   37.6010 H   0  0  0  0  0  0  0  0  0  0  0  0
  1 11  1  0
  2 15  1  0
  2  1  1  0
  3  2  2  0
  4  3  1  0
  4  6  1  0
  5  4  2  0
  6  7  1  0
  7  1  1  0
  7  8  2  0
  9 14  2  0
 10  9  1  0
 11 10  2  0
 11 12  1  0
 12 13  2  0
 13 14  1  0
 15 19  1  0
 16 17  1  0
 16 15  2  0
 17 18  2  0
 18 19  1  0
 20  3  1  0
  6 21  1  0
  9 22  1  0
 10 23  1  0
 13 24  1  0
 16 25  1  0
 17 26  1  0
 18 27  1  0
 20 28  1  0
 20 29  1  0
 20 30  1  0
M  ISO  8  21   9  22  14  23  14  24  14  25  14  26  14  27  14  28   8
M  ISO  2  29   8  30   8
M  END
>  <minimizedAffinity>  (1) 
-5.28149796

>  <minimizedRMSD>  (1) 
0.425770432

$$$$
