
     RDKit          3D

 26 27  0  0  0  0  0  0  0  0999 V2000
   46.5950   34.3970   41.5370 N   0  0  0  0  0  0  0  0  0  0  0  0
   46.0310   33.7750   40.4850 C   0  0  0  0  0  0  0  0  0  0  0  0
   46.6730   33.6280   39.2780 C   0  0  0  0  0  0  0  0  0  0  0  0
   47.9380   34.1620   39.2140 C   0  0  0  0  0  0  0  0  0  0  0  0
   48.5790   34.0570   38.1290 O   0  0  0  0  0  0  0  0  0  0  0  0
   48.5390   34.7960   40.2570 N   0  0  0  0  0  0  0  0  0  0  0  0
   47.8460   34.9030   41.4160 C   0  0  0  0  0  0  0  0  0  0  0  0
   48.4590   35.4990   42.3340 O   0  0  0  0  0  0  0  0  0  0  0  0
   44.6940   36.0380   44.2340 C   0  0  0  0  0  0  0  0  0  0  0  0
   45.2820   35.7790   42.9740 C   0  0  0  0  0  0  0  0  0  0  0  0
   46.0350   34.6020   42.8090 C   0  0  0  0  0  0  0  0  0  0  0  0
   46.1610   33.7690   43.8760 N   0  0  0  0  0  0  0  0  0  0  0  0
   45.5850   34.0520   45.0620 C   0  0  0  0  0  0  0  0  0  0  0  0
   44.8600   35.1700   45.2450 N   0  0  0  0  0  0  0  0  0  0  0  0
   46.0190   32.9380   38.1470 C   0  0  0  0  0  0  0  0  0  0  0  0
   44.6680   33.2490   40.6930 C   0  0  0  0  0  0  0  0  0  0  0  0
   49.4898   35.1820   40.1683 H   0  0  0  0  0  0  0  0  0  0  0  0
   44.1001   36.9514   44.3859 H   0  0  0  0  0  0  0  0  0  0  0  0
   45.1531   36.4839   42.1394 H   0  0  0  0  0  0  0  0  0  0  0  0
   45.7112   33.3512   45.9004 H   0  0  0  0  0  0  0  0  0  0  0  0
   45.3106   32.1906   38.5336 H   0  0  0  0  0  0  0  0  0  0  0  0
   45.4779   33.6727   37.5327 H   0  0  0  0  0  0  0  0  0  0  0  0
   46.7816   32.4370   37.5327 H   0  0  0  0  0  0  0  0  0  0  0  0
   44.4657   33.1709   41.7714 H   0  0  0  0  0  0  0  0  0  0  0  0
   43.9378   33.9299   40.2313 H   0  0  0  0  0  0  0  0  0  0  0  0
   44.5845   32.2541   40.2313 H   0  0  0  0  0  0  0  0  0  0  0  0
  1 11  1  0
  2 16  1  0
  2  1  1  0
  3  2  2  0
  4  3  1  0
  4  6  1  0
  5  4  2  0
  6  7  1  0
  7  1  1  0
  7  8  2  0
  9 14  2  0
 10  9  1  0
 11 10  2  0
 11 12  1  0
 12 13  2  0
 13 14  1  0
 15  3  1  0
  6 17  1  0
  9 18  1  0
 10 19  1  0
 13 20  1  0
 15 21  1  0
 15 22  1  0
 15 23  1  0
 16 24  1  0
 16 25  1  0
 16 26  1  0
M  ISO  8  17   9  18  14  19  14  20  14  21   8  22   8  23   8  24   8
M  ISO  2  25   8  26   8
M  END
>  <minimizedAffinity>  (1) 
-4.89393282

>  <minimizedRMSD>  (1) 
0.0184109192

$$$$
