
     RDKit          3D

 35 37  0  0  0  0  0  0  0  0999 V2000
   46.4650   34.4130   41.6140 N   0  0  0  0  0  0  0  0  0  0  0  0
   45.8560   33.8920   40.5520 C   0  0  0  0  0  0  0  0  0  0  0  0
   46.5230   33.6420   39.3600 C   0  0  0  0  0  0  0  0  0  0  0  0
   47.8730   33.9750   39.3530 C   0  0  0  0  0  0  0  0  0  0  0  0
   48.5280   33.7690   38.2930 O   0  0  0  0  0  0  0  0  0  0  0  0
   48.5050   34.5030   40.4190 N   0  0  0  0  0  0  0  0  0  0  0  0
   47.7890   34.7230   41.5600 C   0  0  0  0  0  0  0  0  0  0  0  0
   48.4550   35.2150   42.4990 O   0  0  0  0  0  0  0  0  0  0  0  0
   44.6900   36.2820   44.2460 C   0  0  0  0  0  0  0  0  0  0  0  0
   45.2690   35.9520   42.9940 C   0  0  0  0  0  0  0  0  0  0  0  0
   45.8970   34.7030   42.8560 C   0  0  0  0  0  0  0  0  0  0  0  0
   45.8990   33.8980   43.9550 N   0  0  0  0  0  0  0  0  0  0  0  0
   45.3490   34.2260   45.1250 C   0  0  0  0  0  0  0  0  0  0  0  0
   44.7410   35.4170   45.2800 N   0  0  0  0  0  0  0  0  0  0  0  0
   44.4800   33.5620   40.5590 N   0  0  0  0  0  0  0  0  0  0  0  0
   44.0070   32.2740   41.0270 C   0  0  0  0  0  0  0  0  0  0  0  0
   42.5610   32.5220   41.4040 C   0  0  0  0  0  0  0  0  0  0  0  0
   42.3070   34.0060   41.1900 C   0  0  0  0  0  0  0  0  0  0  0  0
   43.3170   34.3360   40.1190 C   0  0  0  0  0  0  0  0  0  0  0  0
   45.8150   33.0620   38.1960 C   0  0  0  0  0  0  0  0  0  0  0  0
   49.5073   34.7358   40.3740 H   0  0  0  0  0  0  0  0  0  0  0  0
   44.1934   37.2549   44.3755 H   0  0  0  0  0  0  0  0  0  0  0  0
   45.2273   36.6574   42.1510 H   0  0  0  0  0  0  0  0  0  0  0  0
   45.3924   33.5199   45.9673 H   0  0  0  0  0  0  0  0  0  0  0  0
   44.0781   31.5194   40.2298 H   0  0  0  0  0  0  0  0  0  0  0  0
   44.6010   31.8881   41.8686 H   0  0  0  0  0  0  0  0  0  0  0  0
   41.8939   31.9261   40.7638 H   0  0  0  0  0  0  0  0  0  0  0  0
   42.3666   32.2317   42.4470 H   0  0  0  0  0  0  0  0  0  0  0  0
   41.2796   34.1914   40.8435 H   0  0  0  0  0  0  0  0  0  0  0  0
   42.4076   34.6130   42.1018 H   0  0  0  0  0  0  0  0  0  0  0  0
   43.5382   35.4133   40.0947 H   0  0  0  0  0  0  0  0  0  0  0  0
   42.9810   34.0965   39.0993 H   0  0  0  0  0  0  0  0  0  0  0  0
   45.0090   32.4017   38.5488 H   0  0  0  0  0  0  0  0  0  0  0  0
   45.3858   33.8715   37.5872 H   0  0  0  0  0  0  0  0  0  0  0  0
   46.5242   32.4819   37.5872 H   0  0  0  0  0  0  0  0  0  0  0  0
  1 11  1  0
  2 15  1  0
  2  1  1  0
  3  2  2  0
  4  3  1  0
  4  6  1  0
  5  4  2  0
  6  7  1  0
  7  1  1  0
  7  8  2  0
  9 14  2  0
 10  9  1  0
 11 10  2  0
 11 12  1  0
 12 13  2  0
 13 14  1  0
 15 16  1  0
 16 17  1  0
 18 17  1  0
 19 15  1  0
 19 18  1  0
 20  3  1  0
  6 21  1  0
  9 22  1  0
 10 23  1  0
 13 24  1  0
 16 25  1  0
 16 26  1  0
 17 27  1  0
 17 28  1  0
 18 29  1  0
 18 30  1  0
 19 31  1  0
 19 32  1  0
 20 33  1  0
 20 34  1  0
 20 35  1  0
M  ISO  8  21   9  22  14  23  14  24  14  25  13  26  13  27  13  28  13
M  ISO  7  29  13  30  13  31  13  32  13  33   8  34   8  35   8
M  END
>  <minimizedAffinity>  (1) 
-5.27983046

>  <minimizedRMSD>  (1) 
0.878030837

$$$$
