
     RDKit          3D

 29 30  0  0  0  0  0  0  0  0999 V2000
   46.5870   34.4250   41.5360 N   0  0  0  0  0  0  0  0  0  0  0  0
   45.9890   33.8020   40.4920 C   0  0  0  0  0  0  0  0  0  0  0  0
   46.6490   33.6380   39.2920 C   0  0  0  0  0  0  0  0  0  0  0  0
   47.9440   34.1550   39.2550 C   0  0  0  0  0  0  0  0  0  0  0  0
   48.5870   34.0250   38.1660 O   0  0  0  0  0  0  0  0  0  0  0  0
   48.5310   34.7720   40.2950 N   0  0  0  0  0  0  0  0  0  0  0  0
   47.8290   34.8970   41.4360 C   0  0  0  0  0  0  0  0  0  0  0  0
   48.4500   35.4860   42.3630 O   0  0  0  0  0  0  0  0  0  0  0  0
   44.7030   36.1220   44.2280 C   0  0  0  0  0  0  0  0  0  0  0  0
   45.2970   35.8710   42.9530 C   0  0  0  0  0  0  0  0  0  0  0  0
   46.0030   34.6510   42.8130 C   0  0  0  0  0  0  0  0  0  0  0  0
   46.0640   33.8180   43.8790 N   0  0  0  0  0  0  0  0  0  0  0  0
   45.4900   34.0950   45.0590 C   0  0  0  0  0  0  0  0  0  0  0  0
   44.8120   35.2380   45.2380 N   0  0  0  0  0  0  0  0  0  0  0  0
   46.0100   32.9740   38.1610 C   0  0  0  0  0  0  0  0  0  0  0  0
   44.6610   33.3530   40.7650 C   0  0  0  0  0  0  0  0  0  0  0  0
   43.4400   33.9900   40.3730 C   0  0  0  0  0  0  0  0  0  0  0  0
   49.4907   35.1386   40.2206 H   0  0  0  0  0  0  0  0  0  0  0  0
   44.1452   37.0565   44.3879 H   0  0  0  0  0  0  0  0  0  0  0  0
   45.2105   36.5879   42.1232 H   0  0  0  0  0  0  0  0  0  0  0  0
   45.5762   33.3774   45.8883 H   0  0  0  0  0  0  0  0  0  0  0  0
   45.2919   32.2278   38.5318 H   0  0  0  0  0  0  0  0  0  0  0  0
   45.4810   33.7196   37.5492 H   0  0  0  0  0  0  0  0  0  0  0  0
   46.7753   32.4740   37.5492 H   0  0  0  0  0  0  0  0  0  0  0  0
   44.6073   32.3443   40.3295 H   0  0  0  0  0  0  0  0  0  0  0  0
   44.6254   33.5512   41.8464 H   0  0  0  0  0  0  0  0  0  0  0  0
   42.8756   34.2844   41.2701 H   0  0  0  0  0  0  0  0  0  0  0  0
   43.6686   34.8838   39.7739 H   0  0  0  0  0  0  0  0  0  0  0  0
   42.8378   33.2912   39.7739 H   0  0  0  0  0  0  0  0  0  0  0  0
  1 11  1  0
  2 16  1  0
  2  1  1  0
  3  2  2  0
  4  3  1  0
  4  6  1  0
  5  4  2  0
  6  7  1  0
  7  1  1  0
  7  8  2  0
  9 14  2  0
 10  9  1  0
 11 10  2  0
 11 12  1  0
 12 13  2  0
 13 14  1  0
 15  3  1  0
 17 16  1  0
  6 18  1  0
  9 19  1  0
 10 20  1  0
 13 21  1  0
 15 22  1  0
 15 23  1  0
 15 24  1  0
 16 25  1  0
 16 26  1  0
 17 27  1  0
 17 28  1  0
 17 29  1  0
M  ISO  8  18   9  19  14  20  14  21  14  22   8  23   8  24   8  25   8
M  ISO  4  26   8  27   8  28   8  29   8
M  END
>  <minimizedAffinity>  (1) 
-4.86988115

>  <minimizedRMSD>  (1) 
0.265811294

$$$$
