
     RDKit          3D

 24 25  0  0  0  0  0  0  0  0999 V2000
   46.5870   34.3970   41.5270 N   0  0  0  0  0  0  0  0  0  0  0  0
   46.0320   33.7780   40.4740 C   0  0  0  0  0  0  0  0  0  0  0  0
   46.6590   33.6190   39.2640 C   0  0  0  0  0  0  0  0  0  0  0  0
   47.9420   34.1580   39.2070 C   0  0  0  0  0  0  0  0  0  0  0  0
   48.5750   34.0450   38.1190 O   0  0  0  0  0  0  0  0  0  0  0  0
   48.5370   34.7910   40.2550 N   0  0  0  0  0  0  0  0  0  0  0  0
   47.8430   34.9030   41.4120 C   0  0  0  0  0  0  0  0  0  0  0  0
   48.4570   35.4980   42.3290 O   0  0  0  0  0  0  0  0  0  0  0  0
   44.6960   36.0390   44.2280 C   0  0  0  0  0  0  0  0  0  0  0  0
   45.2810   35.7910   42.9550 C   0  0  0  0  0  0  0  0  0  0  0  0
   46.0250   34.6060   42.7960 C   0  0  0  0  0  0  0  0  0  0  0  0
   46.1490   33.7600   43.8630 N   0  0  0  0  0  0  0  0  0  0  0  0
   45.5730   34.0420   45.0480 C   0  0  0  0  0  0  0  0  0  0  0  0
   44.8570   35.1610   45.2380 N   0  0  0  0  0  0  0  0  0  0  0  0
   46.0160   32.9350   38.1350 C   0  0  0  0  0  0  0  0  0  0  0  0
   44.3960   33.1550   40.7220 S   0  0  0  0  0  0  0  0  0  0  0  0
   49.4892   35.1743   40.1700 H   0  0  0  0  0  0  0  0  0  0  0  0
   44.1077   36.9544   44.3892 H   0  0  0  0  0  0  0  0  0  0  0  0
   45.1564   36.5005   42.1236 H   0  0  0  0  0  0  0  0  0  0  0  0
   45.6930   33.3356   45.8826 H   0  0  0  0  0  0  0  0  0  0  0  0
   45.3092   32.1832   38.5161 H   0  0  0  0  0  0  0  0  0  0  0  0
   45.4741   33.6699   37.5215 H   0  0  0  0  0  0  0  0  0  0  0  0
   46.7829   32.4395   37.5215 H   0  0  0  0  0  0  0  0  0  0  0  0
   44.1428   33.0586   42.0649 H   0  0  0  0  0  0  0  0  0  0  0  0
  1 11  1  0
  2 16  1  0
  2  1  1  0
  3  2  2  0
  4  3  1  0
  4  6  1  0
  5  4  2  0
  6  7  1  0
  7  1  1  0
  7  8  2  0
  9 14  2  0
 10  9  1  0
 11 10  2  0
 11 12  1  0
 12 13  2  0
 13 14  1  0
 15  3  1  0
  6 17  1  0
  9 18  1  0
 10 19  1  0
 13 20  1  0
 15 21  1  0
 15 22  1  0
 15 23  1  0
 16 24  1  0
M  ISO  8  17   9  18  14  19  14  20  14  21   8  22   8  23   8  24  11
M  END
>  <minimizedAffinity>  (1) 
-4.86779451

>  <minimizedRMSD>  (1) 
0.0272367969

$$$$
