
     RDKit          3D

 39 41  0  0  0  0  0  0  0  0999 V2000
   46.6210   34.4390   41.4870 N   0  0  0  0  0  0  0  0  0  0  0  0
   46.0100   33.8470   40.4240 C   0  0  0  0  0  0  0  0  0  0  0  0
   46.7130   33.6780   39.2340 C   0  0  0  0  0  0  0  0  0  0  0  0
   48.0130   34.1310   39.2190 C   0  0  0  0  0  0  0  0  0  0  0  0
   48.6640   33.9830   38.1500 O   0  0  0  0  0  0  0  0  0  0  0  0
   48.5980   34.7130   40.2830 N   0  0  0  0  0  0  0  0  0  0  0  0
   47.8850   34.8660   41.4310 C   0  0  0  0  0  0  0  0  0  0  0  0
   48.4950   35.4140   42.3690 O   0  0  0  0  0  0  0  0  0  0  0  0
   44.7310   36.1650   44.1530 C   0  0  0  0  0  0  0  0  0  0  0  0
   45.3430   35.9190   42.8880 C   0  0  0  0  0  0  0  0  0  0  0  0
   46.0070   34.6720   42.7460 C   0  0  0  0  0  0  0  0  0  0  0  0
   46.0130   33.8160   43.7940 N   0  0  0  0  0  0  0  0  0  0  0  0
   45.4180   34.1000   44.9660 C   0  0  0  0  0  0  0  0  0  0  0  0
   44.7800   35.2660   45.1490 N   0  0  0  0  0  0  0  0  0  0  0  0
   44.5890   33.4010   40.6100 C   0  0  0  0  0  0  0  0  0  0  0  0
   44.4020   32.2410   41.5310 C   0  0  0  0  0  0  0  0  0  0  0  0
   42.9280   32.3030   41.9640 C   0  0  0  0  0  0  0  0  0  0  0  0
   42.1320   32.6090   40.7050 C   0  0  0  0  0  0  0  0  0  0  0  0
   42.2540   34.0570   40.2760 C   0  0  0  0  0  0  0  0  0  0  0  0
   43.6180   34.5240   40.7530 C   0  0  0  0  0  0  0  0  0  0  0  0
   46.0440   33.0830   38.0790 C   0  0  0  0  0  0  0  0  0  0  0  0
   49.5737   35.0384   40.2281 H   0  0  0  0  0  0  0  0  0  0  0  0
   44.2047   37.1170   44.3168 H   0  0  0  0  0  0  0  0  0  0  0  0
   45.3028   36.6531   42.0698 H   0  0  0  0  0  0  0  0  0  0  0  0
   45.4548   33.3669   45.7853 H   0  0  0  0  0  0  0  0  0  0  0  0
   44.3096   32.9534   39.6448 H   0  0  0  0  0  0  0  0  0  0  0  0
   44.6110   31.2960   41.0083 H   0  0  0  0  0  0  0  0  0  0  0  0
   45.0854   32.2854   42.3918 H   0  0  0  0  0  0  0  0  0  0  0  0
   42.6140   31.3384   42.3893 H   0  0  0  0  0  0  0  0  0  0  0  0
   42.7678   33.0688   42.7372 H   0  0  0  0  0  0  0  0  0  0  0  0
   42.5007   31.9680   39.8906 H   0  0  0  0  0  0  0  0  0  0  0  0
   41.0720   32.4151   40.9257 H   0  0  0  0  0  0  0  0  0  0  0  0
   42.1841   34.1380   39.1812 H   0  0  0  0  0  0  0  0  0  0  0  0
   41.4472   34.6716   40.7018 H   0  0  0  0  0  0  0  0  0  0  0  0
   43.5564   34.8270   41.8086 H   0  0  0  0  0  0  0  0  0  0  0  0
   43.9497   35.3831   40.1514 H   0  0  0  0  0  0  0  0  0  0  0  0
   45.2637   32.3890   38.4246 H   0  0  0  0  0  0  0  0  0  0  0  0
   45.5855   33.8772   37.4715 H   0  0  0  0  0  0  0  0  0  0  0  0
   46.7793   32.5350   37.4715 H   0  0  0  0  0  0  0  0  0  0  0  0
  1 11  1  0
  2 15  1  0
  2  1  1  0
  3  2  2  0
  4  3  1  0
  4  6  1  0
  5  4  2  0
  6  7  1  0
  7  1  1  0
  7  8  2  0
  9 14  2  0
 10  9  1  0
 11 10  2  0
 11 12  1  0
 12 13  2  0
 13 14  1  0
 15 20  1  0
 15 16  1  0
 16 17  1  0
 18 17  1  0
 19 18  1  0
 19 20  1  0
 21  3  1  0
  6 22  1  0
  9 23  1  0
 10 24  1  0
 13 25  1  0
 15 26  1  0
 16 27  1  0
 16 28  1  0
 17 29  1  0
 17 30  1  0
 18 31  1  0
 18 32  1  0
 19 33  1  0
 19 34  1  0
 20 35  1  0
 20 36  1  0
 21 37  1  0
 21 38  1  0
 21 39  1  0
M  ISO  8  22   9  23  14  24  14  25  14  26  13  27  13  28  13  29  13
M  ISO  8  30  13  31  13  32  13  33  13  34  13  35  13  36  13  37   8
M  ISO  2  38   8  39   8
M  END
>  <minimizedAffinity>  (1) 
-5.51079321

>  <minimizedRMSD>  (1) 
0.537652254

$$$$
