
     RDKit          3D

 53 57  0  0  0  0  0  0  0  0999 V2000
   45.7890   33.8900   40.5130 N   0  0  0  0  0  0  0  0  0  0  0  0
   47.0030   33.5680   40.0190 C   0  0  0  0  0  0  0  0  0  0  0  0
   47.0960   33.1450   38.6880 C   0  0  0  0  0  0  0  0  0  0  0  0
   45.9250   33.0930   37.9770 C   0  0  0  0  0  0  0  0  0  0  0  0
   45.9690   32.7220   36.7800 O   0  0  0  0  0  0  0  0  0  0  0  0
   44.7270   33.4220   38.5010 N   0  0  0  0  0  0  0  0  0  0  0  0
   44.6700   33.8270   39.8000 C   0  0  0  0  0  0  0  0  0  0  0  0
   43.5220   34.1150   40.2140 O   0  0  0  0  0  0  0  0  0  0  0  0
   48.1910   33.7040   40.9170 C   0  0  0  0  0  0  0  0  0  0  0  0
   48.5780   35.1070   41.2540 C   0  0  0  0  0  0  0  0  0  0  0  0
   49.3960   35.0230   42.5300 C   0  0  0  0  0  0  0  0  0  0  0  0
   50.3370   33.8520   42.3420 C   0  0  0  0  0  0  0  0  0  0  0  0
   49.6750   32.4890   42.4160 C   0  0  0  0  0  0  0  0  0  0  0  0
   48.2170   32.7510   42.0560 C   0  0  0  0  0  0  0  0  0  0  0  0
   45.1530   33.7450   44.1480 C   0  0  0  0  0  0  0  0  0  0  0  0
   45.3770   33.3210   42.8110 C   0  0  0  0  0  0  0  0  0  0  0  0
   45.5490   34.3340   41.8430 C   0  0  0  0  0  0  0  0  0  0  0  0
   45.4790   35.5970   42.2780 N   0  0  0  0  0  0  0  0  0  0  0  0
   45.2670   35.9780   43.5320 C   0  0  0  0  0  0  0  0  0  0  0  0
   45.1020   35.0490   44.4770 N   0  0  0  0  0  0  0  0  0  0  0  0
   48.3930   32.7400   38.1420 C   0  0  0  0  0  0  0  0  0  0  0  0
   48.7500   31.3350   38.4450 C   0  0  0  0  0  0  0  0  0  0  0  0
   47.8820   30.3540   38.1680 N   0  0  0  0  0  0  0  0  0  0  0  0
   48.1570   29.0570   38.2750 C   0  0  0  0  0  0  0  0  0  0  0  0
   49.3360   28.5910   38.6750 N   0  0  0  0  0  0  0  0  0  0  0  0
   50.3160   29.4810   38.9930 C   0  0  0  0  0  0  0  0  0  0  0  0
   51.5700   29.1360   39.4540 C   0  0  0  0  0  0  0  0  0  0  0  0
   52.5250   30.0950   39.8070 C   0  0  0  0  0  0  0  0  0  0  0  0
   52.1720   31.4210   39.6810 C   0  0  0  0  0  0  0  0  0  0  0  0
   50.9020   31.7590   39.2130 C   0  0  0  0  0  0  0  0  0  0  0  0
   49.9840   30.7990   38.8670 C   0  0  0  0  0  0  0  0  0  0  0  0
   43.8715   33.3681   37.9299 H   0  0  0  0  0  0  0  0  0  0  0  0
   49.0269   33.3705   40.2844 H   0  0  0  0  0  0  0  0  0  0  0  0
   49.1798   35.5424   40.4427 H   0  0  0  0  0  0  0  0  0  0  0  0
   47.6934   35.7475   41.3851 H   0  0  0  0  0  0  0  0  0  0  0  0
   49.9659   35.9516   42.6812 H   0  0  0  0  0  0  0  0  0  0  0  0
   48.7545   34.8884   43.4134 H   0  0  0  0  0  0  0  0  0  0  0  0
   51.1071   33.9019   43.1258 H   0  0  0  0  0  0  0  0  0  0  0  0
   50.7477   33.9433   41.3256 H   0  0  0  0  0  0  0  0  0  0  0  0
   50.1340   31.7946   41.6969 H   0  0  0  0  0  0  0  0  0  0  0  0
   49.7835   32.0253   43.4075 H   0  0  0  0  0  0  0  0  0  0  0  0
   47.6915   33.1859   42.9190 H   0  0  0  0  0  0  0  0  0  0  0  0
   47.7161   31.8113   41.7803 H   0  0  0  0  0  0  0  0  0  0  0  0
   45.0177   32.9881   44.9347 H   0  0  0  0  0  0  0  0  0  0  0  0
   45.4146   32.2548   42.5428 H   0  0  0  0  0  0  0  0  0  0  0  0
   45.2277   37.0467   43.7896 H   0  0  0  0  0  0  0  0  0  0  0  0
   49.1686   33.3951   38.5653 H   0  0  0  0  0  0  0  0  0  0  0  0
   48.3242   32.8270   37.0476 H   0  0  0  0  0  0  0  0  0  0  0  0
   47.3689   28.3333   38.0196 H   0  0  0  0  0  0  0  0  0  0  0  0
   51.8273   28.0706   39.5470 H   0  0  0  0  0  0  0  0  0  0  0  0
   53.5205   29.8017   40.1715 H   0  0  0  0  0  0  0  0  0  0  0  0
   52.8895   32.2107   39.9486 H   0  0  0  0  0  0  0  0  0  0  0  0
   50.6297   32.8206   39.1190 H   0  0  0  0  0  0  0  0  0  0  0  0
  1 17  1  0
  2  1  1  0
  2  9  1  0
  3  2  2  0
  4  6  1  0
  4  3  1  0
  5  4  2  0
  6  7  1  0
  7  8  2  0
  7  1  1  0
  9 10  1  0
  9 14  1  0
 10 11  1  0
 12 13  1  0
 12 11  1  0
 14 13  1  0
 15 20  2  0
 16 15  1  0
 17 18  1  0
 17 16  2  0
 18 19  2  0
 19 20  1  0
 21 22  1  0
 21  3  1  0
 22 31  2  0
 23 24  2  0
 23 22  1  0
 24 25  1  0
 25 26  2  0
 26 27  1  0
 27 28  2  0
 29 28  1  0
 30 29  2  0
 31 26  1  0
 31 30  1  0
  6 32  1  0
  9 33  1  0
 10 34  1  0
 10 35  1  0
 11 36  1  0
 11 37  1  0
 12 38  1  0
 12 39  1  0
 13 40  1  0
 13 41  1  0
 14 42  1  0
 14 43  1  0
 15 44  1  0
 16 45  1  0
 19 46  1  0
 21 47  1  0
 21 48  1  0
 24 49  1  0
 27 50  1  0
 28 51  1  0
 29 52  1  0
 30 53  1  0
M  ISO  8  32   9  33  13  34  13  35  13  36  13  37  13  38  13  39  13
M  ISO  8  40  13  41  13  42  13  43  13  44  14  45  14  46  14  47   8
M  ISO  6  48   8  49  14  50  14  51  14  52  14  53  14
M  END
>  <minimizedAffinity>  (1) 
-5.65414143

>  <minimizedRMSD>  (1) 
6.1019721

$$$$
