
     RDKit          3D

 46 49  0  0  0  0  0  0  0  0999 V2000
   46.6560   34.3840   41.3930 N   0  0  0  0  0  0  0  0  0  0  0  0
   46.0260   33.8360   40.3260 C   0  0  0  0  0  0  0  0  0  0  0  0
   46.6930   33.7040   39.1060 C   0  0  0  0  0  0  0  0  0  0  0  0
   48.0030   34.1640   39.1010 C   0  0  0  0  0  0  0  0  0  0  0  0
   48.6470   34.0610   38.0200 O   0  0  0  0  0  0  0  0  0  0  0  0
   48.6140   34.7080   40.1810 N   0  0  0  0  0  0  0  0  0  0  0  0
   47.9120   34.8110   41.3380 C   0  0  0  0  0  0  0  0  0  0  0  0
   48.5340   35.3190   42.2830 O   0  0  0  0  0  0  0  0  0  0  0  0
   44.5970   33.3850   40.5030 C   0  0  0  0  0  0  0  0  0  0  0  0
   44.3960   32.2660   41.4540 C   0  0  0  0  0  0  0  0  0  0  0  0
   42.9320   32.3440   41.8870 C   0  0  0  0  0  0  0  0  0  0  0  0
   42.1460   32.5960   40.6150 C   0  0  0  0  0  0  0  0  0  0  0  0
   42.2800   33.9930   40.0640 C   0  0  0  0  0  0  0  0  0  0  0  0
   43.6110   34.4950   40.6140 C   0  0  0  0  0  0  0  0  0  0  0  0
   44.7580   36.0480   44.0910 C   0  0  0  0  0  0  0  0  0  0  0  0
   45.3670   35.8290   42.8240 C   0  0  0  0  0  0  0  0  0  0  0  0
   46.0580   34.5900   42.6590 C   0  0  0  0  0  0  0  0  0  0  0  0
   46.0640   33.7690   43.7060 N   0  0  0  0  0  0  0  0  0  0  0  0
   45.4870   33.9990   44.8780 C   0  0  0  0  0  0  0  0  0  0  0  0
   44.8260   35.1490   45.0740 N   0  0  0  0  0  0  0  0  0  0  0  0
   46.0540   33.1410   37.9450 C   0  0  0  0  0  0  0  0  0  0  0  0
   46.3240   31.7100   37.7870 C   0  0  0  0  0  0  0  0  0  0  0  0
   46.6790   31.1850   36.5330 C   0  0  0  0  0  0  0  0  0  0  0  0
   46.8710   29.8280   36.5650 C   0  0  0  0  0  0  0  0  0  0  0  0
   46.6250   29.5460   37.8620 N   0  0  0  0  0  0  0  0  0  0  0  0
   46.3170   30.6270   38.5370 N   0  0  0  0  0  0  0  0  0  0  0  0
   49.5888   35.0359   40.1253 H   0  0  0  0  0  0  0  0  0  0  0  0
   44.3563   32.9179   39.5367 H   0  0  0  0  0  0  0  0  0  0  0  0
   44.5988   31.3037   40.9613 H   0  0  0  0  0  0  0  0  0  0  0  0
   45.0769   32.3395   42.3148 H   0  0  0  0  0  0  0  0  0  0  0  0
   42.6177   31.3979   42.3520 H   0  0  0  0  0  0  0  0  0  0  0  0
   42.7684   33.1370   42.6316 H   0  0  0  0  0  0  0  0  0  0  0  0
   42.4968   31.8892   39.8486 H   0  0  0  0  0  0  0  0  0  0  0  0
   41.0847   32.4610   40.8709 H   0  0  0  0  0  0  0  0  0  0  0  0
   41.4517   34.6286   40.4104 H   0  0  0  0  0  0  0  0  0  0  0  0
   42.2474   34.0137   38.9647 H   0  0  0  0  0  0  0  0  0  0  0  0
   43.4939   34.7875   41.6679 H   0  0  0  0  0  0  0  0  0  0  0  0
   43.9548   35.3725   40.0467 H   0  0  0  0  0  0  0  0  0  0  0  0
   44.2141   36.9881   44.2654 H   0  0  0  0  0  0  0  0  0  0  0  0
   45.3089   36.5730   42.0159 H   0  0  0  0  0  0  0  0  0  0  0  0
   45.5503   33.2520   45.6830 H   0  0  0  0  0  0  0  0  0  0  0  0
   44.9674   33.2857   38.0369 H   0  0  0  0  0  0  0  0  0  0  0  0
   46.4605   33.6545   37.0612 H   0  0  0  0  0  0  0  0  0  0  0  0
   46.7906   31.7959   35.6251 H   0  0  0  0  0  0  0  0  0  0  0  0
   47.1519   29.1473   35.7479 H   0  0  0  0  0  0  0  0  0  0  0  0
   46.6732   28.6013   38.2697 H   0  0  0  0  0  0  0  0  0  0  0  0
  1 17  1  0
  2  9  1  0
  2  1  1  0
  3  2  2  0
  4  3  1  0
  4  6  1  0
  5  4  2  0
  6  7  1  0
  7  1  1  0
  7  8  2  0
  9 14  1  0
  9 10  1  0
 10 11  1  0
 12 11  1  0
 13 14  1  0
 13 12  1  0
 15 20  2  0
 16 15  1  0
 17 16  2  0
 17 18  1  0
 18 19  2  0
 19 20  1  0
 21  3  1  0
 22 21  1  0
 22 26  2  0
 23 24  2  0
 23 22  1  0
 24 25  1  0
 25 26  1  0
  6 27  1  0
  9 28  1  0
 10 29  1  0
 10 30  1  0
 11 31  1  0
 11 32  1  0
 12 33  1  0
 12 34  1  0
 13 35  1  0
 13 36  1  0
 14 37  1  0
 14 38  1  0
 15 39  1  0
 16 40  1  0
 19 41  1  0
 21 42  1  0
 21 43  1  0
 23 44  1  0
 24 45  1  0
 25 46  1  0
M  ISO  8  27   9  28  13  29  13  30  13  31  13  32  13  33  13  34  13
M  ISO  8  35  13  36  13  37  13  38  13  39  14  40  14  41  14  42   8
M  ISO  4  43   8  44  14  45  14  46   9
M  END
>  <minimizedAffinity>  (1) 
-5.35064554

>  <minimizedRMSD>  (1) 
0.425935268

$$$$
