
     RDKit          3D

 46 49  0  0  0  0  0  0  0  0999 V2000
   46.6420   34.3980   41.4190 N   0  0  0  0  0  0  0  0  0  0  0  0
   46.0150   33.8490   40.3530 C   0  0  0  0  0  0  0  0  0  0  0  0
   46.6890   33.6970   39.1430 C   0  0  0  0  0  0  0  0  0  0  0  0
   48.0040   34.1380   39.1400 C   0  0  0  0  0  0  0  0  0  0  0  0
   48.6520   34.0130   38.0670 O   0  0  0  0  0  0  0  0  0  0  0  0
   48.6110   34.6820   40.2160 N   0  0  0  0  0  0  0  0  0  0  0  0
   47.9050   34.8110   41.3760 C   0  0  0  0  0  0  0  0  0  0  0  0
   48.5250   35.3190   42.3170 O   0  0  0  0  0  0  0  0  0  0  0  0
   44.5780   33.4110   40.5270 C   0  0  0  0  0  0  0  0  0  0  0  0
   44.3710   32.2730   41.4580 C   0  0  0  0  0  0  0  0  0  0  0  0
   42.9110   32.3600   41.9000 C   0  0  0  0  0  0  0  0  0  0  0  0
   42.1170   32.6500   40.6380 C   0  0  0  0  0  0  0  0  0  0  0  0
   42.2720   34.0450   40.1040 C   0  0  0  0  0  0  0  0  0  0  0  0
   43.6080   34.5300   40.6590 C   0  0  0  0  0  0  0  0  0  0  0  0
   44.7550   36.0860   44.1100 C   0  0  0  0  0  0  0  0  0  0  0  0
   45.3650   35.8620   42.8460 C   0  0  0  0  0  0  0  0  0  0  0  0
   46.0390   34.6150   42.6830 C   0  0  0  0  0  0  0  0  0  0  0  0
   46.0330   33.7880   43.7280 N   0  0  0  0  0  0  0  0  0  0  0  0
   45.4530   34.0260   44.8990 C   0  0  0  0  0  0  0  0  0  0  0  0
   44.8120   35.1760   45.0940 N   0  0  0  0  0  0  0  0  0  0  0  0
   46.0450   33.1340   37.9810 C   0  0  0  0  0  0  0  0  0  0  0  0
   46.2750   31.6950   37.8600 C   0  0  0  0  0  0  0  0  0  0  0  0
   46.6100   31.1680   36.5990 C   0  0  0  0  0  0  0  0  0  0  0  0
   46.7900   29.8040   36.6630 C   0  0  0  0  0  0  0  0  0  0  0  0
   46.5460   29.5780   38.0010 C   0  0  0  0  0  0  0  0  0  0  0  0
   46.2570   30.6710   38.6520 O   0  0  0  0  0  0  0  0  0  0  0  0
   49.5910   34.9945   40.1620 H   0  0  0  0  0  0  0  0  0  0  0  0
   44.3217   32.9646   39.5548 H   0  0  0  0  0  0  0  0  0  0  0  0
   44.5601   31.3185   40.9449 H   0  0  0  0  0  0  0  0  0  0  0  0
   45.0581   32.3203   42.3157 H   0  0  0  0  0  0  0  0  0  0  0  0
   42.5879   31.4080   42.3463 H   0  0  0  0  0  0  0  0  0  0  0  0
   42.7628   33.1398   42.6615 H   0  0  0  0  0  0  0  0  0  0  0  0
   42.4445   31.9466   39.8583 H   0  0  0  0  0  0  0  0  0  0  0  0
   41.0562   32.5368   40.9063 H   0  0  0  0  0  0  0  0  0  0  0  0
   42.2888   34.0390   39.0041 H   0  0  0  0  0  0  0  0  0  0  0  0
   41.4380   34.6978   40.4011 H   0  0  0  0  0  0  0  0  0  0  0  0
   43.4966   34.8079   41.7175 H   0  0  0  0  0  0  0  0  0  0  0  0
   43.9590   35.4147   40.1076 H   0  0  0  0  0  0  0  0  0  0  0  0
   44.2214   37.0316   44.2863 H   0  0  0  0  0  0  0  0  0  0  0  0
   45.3200   36.6080   42.0388 H   0  0  0  0  0  0  0  0  0  0  0  0
   45.5022   33.2769   45.7030 H   0  0  0  0  0  0  0  0  0  0  0  0
   44.9623   33.3139   38.0549 H   0  0  0  0  0  0  0  0  0  0  0  0
   46.4737   33.6187   37.0915 H   0  0  0  0  0  0  0  0  0  0  0  0
   46.7144   31.7669   35.6823 H   0  0  0  0  0  0  0  0  0  0  0  0
   47.0550   29.0923   35.8672 H   0  0  0  0  0  0  0  0  0  0  0  0
   46.5902   28.5835   38.4690 H   0  0  0  0  0  0  0  0  0  0  0  0
  1 17  1  0
  2  9  1  0
  2  1  1  0
  3  2  2  0
  4  3  1  0
  4  6  1  0
  5  4  2  0
  6  7  1  0
  7  1  1  0
  7  8  2  0
  9 14  1  0
  9 10  1  0
 10 11  1  0
 12 11  1  0
 13 12  1  0
 13 14  1  0
 15 20  2  0
 16 15  1  0
 17 16  2  0
 17 18  1  0
 18 19  2  0
 19 20  1  0
 21  3  1  0
 22 21  1  0
 22 26  1  0
 23 24  1  0
 23 22  2  0
 24 25  2  0
 25 26  1  0
  6 27  1  0
  9 28  1  0
 10 29  1  0
 10 30  1  0
 11 31  1  0
 11 32  1  0
 12 33  1  0
 12 34  1  0
 13 35  1  0
 13 36  1  0
 14 37  1  0
 14 38  1  0
 15 39  1  0
 16 40  1  0
 19 41  1  0
 21 42  1  0
 21 43  1  0
 23 44  1  0
 24 45  1  0
 25 46  1  0
M  ISO  8  27   9  28  13  29  13  30  13  31  13  32  13  33  13  34  13
M  ISO  8  35  13  36  13  37  13  38  13  39  14  40  14  41  14  42   8
M  ISO  4  43   8  44  14  45  14  46  14
M  END
>  <minimizedAffinity>  (1) 
-5.34081411

>  <minimizedRMSD>  (1) 
0.370947272

$$$$
