
     RDKit          3D

 44 47  0  0  0  0  0  0  0  0999 V2000
   46.7110   34.4490   41.4100 N   0  0  0  0  0  0  0  0  0  0  0  0
   46.1210   33.8420   40.3510 C   0  0  0  0  0  0  0  0  0  0  0  0
   46.8000   33.7490   39.1260 C   0  0  0  0  0  0  0  0  0  0  0  0
   48.0560   34.3060   39.1050 C   0  0  0  0  0  0  0  0  0  0  0  0
   48.6930   34.2430   38.0220 O   0  0  0  0  0  0  0  0  0  0  0  0
   48.6260   34.9030   40.1640 N   0  0  0  0  0  0  0  0  0  0  0  0
   47.9350   34.9720   41.3320 C   0  0  0  0  0  0  0  0  0  0  0  0
   48.5260   35.5380   42.2700 O   0  0  0  0  0  0  0  0  0  0  0  0
   44.7270   33.2890   40.5470 C   0  0  0  0  0  0  0  0  0  0  0  0
   44.6140   32.1970   41.5460 C   0  0  0  0  0  0  0  0  0  0  0  0
   43.1570   32.1710   41.9950 C   0  0  0  0  0  0  0  0  0  0  0  0
   42.3410   32.3110   40.7190 C   0  0  0  0  0  0  0  0  0  0  0  0
   42.3730   33.6720   40.0870 C   0  0  0  0  0  0  0  0  0  0  0  0
   43.6570   34.3180   40.6090 C   0  0  0  0  0  0  0  0  0  0  0  0
   44.7450   35.9820   44.1250 C   0  0  0  0  0  0  0  0  0  0  0  0
   45.3490   35.8080   42.8540 C   0  0  0  0  0  0  0  0  0  0  0  0
   46.1180   34.6160   42.6790 C   0  0  0  0  0  0  0  0  0  0  0  0
   46.1900   33.7930   43.7230 N   0  0  0  0  0  0  0  0  0  0  0  0
   45.6120   33.9840   44.9030 C   0  0  0  0  0  0  0  0  0  0  0  0
   44.8850   35.0800   45.1100 N   0  0  0  0  0  0  0  0  0  0  0  0
   46.1570   33.0930   38.0050 C   0  0  0  0  0  0  0  0  0  0  0  0
   46.7470   31.7510   37.8060 C   0  0  0  0  0  0  0  0  0  0  0  0
   47.4570   31.2520   36.7790 N   0  0  0  0  0  0  0  0  0  0  0  0
   47.7710   30.0080   37.0070 O   0  0  0  0  0  0  0  0  0  0  0  0
   47.2990   29.6240   38.1690 C   0  0  0  0  0  0  0  0  0  0  0  0
   46.6630   30.6970   38.6720 N   0  0  0  0  0  0  0  0  0  0  0  0
   49.5726   35.3026   40.0921 H   0  0  0  0  0  0  0  0  0  0  0  0
   44.5241   32.7672   39.6002 H   0  0  0  0  0  0  0  0  0  0  0  0
   44.8884   31.2345   41.0897 H   0  0  0  0  0  0  0  0  0  0  0  0
   45.2900   32.3648   42.3974 H   0  0  0  0  0  0  0  0  0  0  0  0
   42.9257   31.2204   42.4978 H   0  0  0  0  0  0  0  0  0  0  0  0
   42.9351   32.9736   42.7137 H   0  0  0  0  0  0  0  0  0  0  0  0
   42.7270   31.5865   39.9868 H   0  0  0  0  0  0  0  0  0  0  0  0
   41.2940   32.1312   41.0045 H   0  0  0  0  0  0  0  0  0  0  0  0
   41.4936   34.2597   40.3890 H   0  0  0  0  0  0  0  0  0  0  0  0
   42.3530   33.6191   38.9885 H   0  0  0  0  0  0  0  0  0  0  0  0
   43.5152   34.6513   41.6477 H   0  0  0  0  0  0  0  0  0  0  0  0
   43.9255   35.1956   40.0025 H   0  0  0  0  0  0  0  0  0  0  0  0
   44.1430   36.8839   44.3099 H   0  0  0  0  0  0  0  0  0  0  0  0
   45.2324   36.5481   42.0486 H   0  0  0  0  0  0  0  0  0  0  0  0
   45.7331   33.2409   45.7050 H   0  0  0  0  0  0  0  0  0  0  0  0
   45.0807   32.9925   38.2087 H   0  0  0  0  0  0  0  0  0  0  0  0
   46.3069   33.6947   37.0965 H   0  0  0  0  0  0  0  0  0  0  0  0
   47.4018   28.6326   38.6344 H   0  0  0  0  0  0  0  0  0  0  0  0
  1 17  1  0
  2  9  1  0
  2  1  1  0
  3  2  2  0
  4  3  1  0
  4  6  1  0
  5  4  2  0
  6  7  1  0
  7  1  1  0
  7  8  2  0
  9 14  1  0
  9 10  1  0
 10 11  1  0
 12 11  1  0
 13 14  1  0
 13 12  1  0
 15 20  2  0
 16 15  1  0
 17 16  2  0
 17 18  1  0
 18 19  2  0
 19 20  1  0
 21  3  1  0
 22 21  1  0
 22 26  1  0
 23 24  1  0
 23 22  2  0
 24 25  1  0
 25 26  2  0
  6 27  1  0
  9 28  1  0
 10 29  1  0
 10 30  1  0
 11 31  1  0
 11 32  1  0
 12 33  1  0
 12 34  1  0
 13 35  1  0
 13 36  1  0
 14 37  1  0
 14 38  1  0
 15 39  1  0
 16 40  1  0
 19 41  1  0
 21 42  1  0
 21 43  1  0
 25 44  1  0
M  ISO  8  27   9  28  13  29  13  30  13  31  13  32  13  33  13  34  13
M  ISO  8  35  13  36  13  37  13  38  13  39  14  40  14  41  14  42   8
M  ISO  2  43   8  44  14
M  END
>  <minimizedAffinity>  (1) 
-5.33116007

>  <minimizedRMSD>  (1) 
1.36816001

$$$$
