
     RDKit          3D

 50 54  0  0  0  0  0  0  0  0999 V2000
   46.6710   33.6520   41.8560 N   0  0  0  0  0  0  0  0  0  0  0  0
   46.0020   32.9020   40.9550 C   0  0  0  0  0  0  0  0  0  0  0  0
   46.2970   32.9810   39.6020 C   0  0  0  0  0  0  0  0  0  0  0  0
   47.3130   33.8750   39.2760 C   0  0  0  0  0  0  0  0  0  0  0  0
   47.6370   33.9980   38.0620 O   0  0  0  0  0  0  0  0  0  0  0  0
   47.9770   34.6220   40.1930 N   0  0  0  0  0  0  0  0  0  0  0  0
   47.6400   34.4990   41.5000 C   0  0  0  0  0  0  0  0  0  0  0  0
   48.2870   35.2120   42.2840 O   0  0  0  0  0  0  0  0  0  0  0  0
   44.9360   31.9690   41.4670 C   0  0  0  0  0  0  0  0  0  0  0  0
   45.4250   30.7960   42.2440 C   0  0  0  0  0  0  0  0  0  0  0  0
   44.2570   30.3310   43.1010 C   0  0  0  0  0  0  0  0  0  0  0  0
   43.0480   30.3540   42.1780 C   0  0  0  0  0  0  0  0  0  0  0  0
   42.5440   31.7320   41.8650 C   0  0  0  0  0  0  0  0  0  0  0  0
   43.7500   32.6440   42.0480 C   0  0  0  0  0  0  0  0  0  0  0  0
   45.2240   34.5850   45.1110 C   0  0  0  0  0  0  0  0  0  0  0  0
   45.4710   34.5920   43.7130 C   0  0  0  0  0  0  0  0  0  0  0  0
   46.4330   33.6460   43.2510 C   0  0  0  0  0  0  0  0  0  0  0  0
   47.0000   32.8620   44.1700 N   0  0  0  0  0  0  0  0  0  0  0  0
   46.7450   32.8810   45.4710 C   0  0  0  0  0  0  0  0  0  0  0  0
   45.8520   33.7460   45.9490 N   0  0  0  0  0  0  0  0  0  0  0  0
   45.6220   32.2140   38.6140 C   0  0  0  0  0  0  0  0  0  0  0  0
   44.2300   32.2960   38.4950 N   0  0  0  0  0  0  0  0  0  0  0  0
   43.7090   31.0530   38.1720 C   0  0  0  0  0  0  0  0  0  0  0  0
   42.3630   31.0980   37.9430 N   0  0  0  0  0  0  0  0  0  0  0  0
   41.9230   32.3590   38.1020 C   0  0  0  0  0  0  0  0  0  0  0  0
   40.7730   33.1190   38.0910 C   0  0  0  0  0  0  0  0  0  0  0  0
   40.8230   34.4480   38.3990 N   0  0  0  0  0  0  0  0  0  0  0  0
   42.0140   35.0130   38.7160 C   0  0  0  0  0  0  0  0  0  0  0  0
   43.1890   34.3120   38.7420 N   0  0  0  0  0  0  0  0  0  0  0  0
   43.0920   32.9960   38.4260 C   0  0  0  0  0  0  0  0  0  0  0  0
   48.7227   35.2700   39.9018 H   0  0  0  0  0  0  0  0  0  0  0  0
   44.5556   31.5070   40.5440 H   0  0  0  0  0  0  0  0  0  0  0  0
   45.7400   29.9925   41.5620 H   0  0  0  0  0  0  0  0  0  0  0  0
   46.2934   31.0626   42.8644 H   0  0  0  0  0  0  0  0  0  0  0  0
   44.4359   29.3126   43.4764 H   0  0  0  0  0  0  0  0  0  0  0  0
   44.1129   30.9740   43.9818 H   0  0  0  0  0  0  0  0  0  0  0  0
   43.3253   29.8644   41.2328 H   0  0  0  0  0  0  0  0  0  0  0  0
   42.2362   29.8307   42.7045 H   0  0  0  0  0  0  0  0  0  0  0  0
   41.7369   32.0148   42.5568 H   0  0  0  0  0  0  0  0  0  0  0  0
   42.1262   31.7983   40.8496 H   0  0  0  0  0  0  0  0  0  0  0  0
   43.9159   32.8310   43.1192 H   0  0  0  0  0  0  0  0  0  0  0  0
   43.5772   33.6068   41.5448 H   0  0  0  0  0  0  0  0  0  0  0  0
   44.4904   35.2938   45.5226 H   0  0  0  0  0  0  0  0  0  0  0  0
   44.9539   35.2824   43.0304 H   0  0  0  0  0  0  0  0  0  0  0  0
   47.2659   32.1890   46.1491 H   0  0  0  0  0  0  0  0  0  0  0  0
   46.0419   32.5092   37.6411 H   0  0  0  0  0  0  0  0  0  0  0  0
   45.7872   31.1772   38.9422 H   0  0  0  0  0  0  0  0  0  0  0  0
   44.3109   30.1346   38.1074 H   0  0  0  0  0  0  0  0  0  0  0  0
   39.8108   32.6525   37.8329 H   0  0  0  0  0  0  0  0  0  0  0  0
   42.0369   36.0845   38.9638 H   0  0  0  0  0  0  0  0  0  0  0  0
  1 17  1  0
  2  9  1  0
  2  1  1  0
  3  2  2  0
  4  3  1  0
  4  6  1  0
  5  4  2  0
  6  7  1  0
  7  1  1  0
  7  8  2  0
  9 14  1  0
  9 10  1  0
 10 11  1  0
 12 11  1  0
 13 14  1  0
 13 12  1  0
 15 20  2  0
 16 15  1  0
 17 16  2  0
 17 18  1  0
 18 19  2  0
 19 20  1  0
 21  3  1  0
 22 21  1  0
 23 22  1  0
 24 25  1  0
 24 23  2  0
 25 30  2  0
 26 25  1  0
 26 27  2  0
 27 28  1  0
 28 29  2  0
 30 22  1  0
 30 29  1  0
  6 31  1  0
  9 32  1  0
 10 33  1  0
 10 34  1  0
 11 35  1  0
 11 36  1  0
 12 37  1  0
 12 38  1  0
 13 39  1  0
 13 40  1  0
 14 41  1  0
 14 42  1  0
 15 43  1  0
 16 44  1  0
 19 45  1  0
 21 46  1  0
 21 47  1  0
 23 48  1  0
 26 49  1  0
 28 50  1  0
M  ISO  8  31   9  32  13  33  13  34  13  35  13  36  13  37  13  38  13
M  ISO  8  39  13  40  13  41  13  42  13  43  14  44  14  45  14  46   8
M  ISO  4  47   8  48  14  49  14  50  14
M  END
>  <minimizedAffinity>  (1) 
-5.30617142

>  <minimizedRMSD>  (1) 
2.35385489

$$$$
