
     RDKit          3D

 40 42  0  0  0  0  0  0  0  0999 V2000
   46.6210   34.4500   41.5000 N   0  0  0  0  0  0  0  0  0  0  0  0
   46.0120   33.8590   40.4440 C   0  0  0  0  0  0  0  0  0  0  0  0
   46.7130   33.6900   39.2540 C   0  0  0  0  0  0  0  0  0  0  0  0
   48.0090   34.1450   39.2340 C   0  0  0  0  0  0  0  0  0  0  0  0
   48.6500   33.9910   38.1600 O   0  0  0  0  0  0  0  0  0  0  0  0
   48.5890   34.7260   40.2890 N   0  0  0  0  0  0  0  0  0  0  0  0
   47.8790   34.8780   41.4380 C   0  0  0  0  0  0  0  0  0  0  0  0
   48.4930   35.4330   42.3800 O   0  0  0  0  0  0  0  0  0  0  0  0
   44.5830   33.4110   40.6150 C   0  0  0  0  0  0  0  0  0  0  0  0
   44.3940   32.2380   41.5130 C   0  0  0  0  0  0  0  0  0  0  0  0
   42.9500   32.2830   41.9910 C   0  0  0  0  0  0  0  0  0  0  0  0
   42.1220   32.6190   40.7550 C   0  0  0  0  0  0  0  0  0  0  0  0
   42.2590   34.0290   40.2620 C   0  0  0  0  0  0  0  0  0  0  0  0
   43.6030   34.5080   40.8110 C   0  0  0  0  0  0  0  0  0  0  0  0
   44.7380   36.1740   44.1580 C   0  0  0  0  0  0  0  0  0  0  0  0
   45.3540   35.9390   42.8930 C   0  0  0  0  0  0  0  0  0  0  0  0
   46.0170   34.6870   42.7520 C   0  0  0  0  0  0  0  0  0  0  0  0
   45.9980   33.8690   43.8060 N   0  0  0  0  0  0  0  0  0  0  0  0
   45.4160   34.1190   44.9740 C   0  0  0  0  0  0  0  0  0  0  0  0
   44.7810   35.2770   45.1500 N   0  0  0  0  0  0  0  0  0  0  0  0
   46.0470   33.0630   38.1030 C   0  0  0  0  0  0  0  0  0  0  0  0
   46.4110   31.2730   38.1930 S   0  0  0  0  0  0  0  0  0  0  0  0
   49.5634   35.0549   40.2318 H   0  0  0  0  0  0  0  0  0  0  0  0
   44.3262   33.0135   39.6220 H   0  0  0  0  0  0  0  0  0  0  0  0
   44.5824   31.3045   40.9624 H   0  0  0  0  0  0  0  0  0  0  0  0
   45.0934   32.2718   42.3614 H   0  0  0  0  0  0  0  0  0  0  0  0
   42.6502   31.3073   42.4010 H   0  0  0  0  0  0  0  0  0  0  0  0
   42.8079   33.0242   42.7913 H   0  0  0  0  0  0  0  0  0  0  0  0
   42.4304   31.9429   39.9440 H   0  0  0  0  0  0  0  0  0  0  0  0
   41.0690   32.4981   41.0492 H   0  0  0  0  0  0  0  0  0  0  0  0
   42.2580   34.0565   39.1623 H   0  0  0  0  0  0  0  0  0  0  0  0
   41.4255   34.6663   40.5924 H   0  0  0  0  0  0  0  0  0  0  0  0
   43.5095   34.7408   41.8820 H   0  0  0  0  0  0  0  0  0  0  0  0
   43.9319   35.4185   40.2886 H   0  0  0  0  0  0  0  0  0  0  0  0
   44.2099   37.1246   44.3236 H   0  0  0  0  0  0  0  0  0  0  0  0
   45.3190   36.6777   42.0787 H   0  0  0  0  0  0  0  0  0  0  0  0
   45.4580   33.3784   45.7863 H   0  0  0  0  0  0  0  0  0  0  0  0
   46.4383   33.4823   37.1644 H   0  0  0  0  0  0  0  0  0  0  0  0
   44.9627   33.2470   38.1258 H   0  0  0  0  0  0  0  0  0  0  0  0
   46.4892   30.8883   39.5056 H   0  0  0  0  0  0  0  0  0  0  0  0
  1 17  1  0
  2  9  1  0
  2  1  1  0
  3  2  2  0
  4  3  1  0
  4  6  1  0
  5  4  2  0
  6  7  1  0
  7  1  1  0
  7  8  2  0
  9 14  1  0
  9 10  1  0
 10 11  1  0
 12 11  1  0
 13 12  1  0
 13 14  1  0
 15 20  2  0
 16 15  1  0
 17 16  2  0
 17 18  1  0
 18 19  2  0
 19 20  1  0
 21 22  1  0
 21  3  1  0
  6 23  1  0
  9 24  1  0
 10 25  1  0
 10 26  1  0
 11 27  1  0
 11 28  1  0
 12 29  1  0
 12 30  1  0
 13 31  1  0
 13 32  1  0
 14 33  1  0
 14 34  1  0
 15 35  1  0
 16 36  1  0
 19 37  1  0
 21 38  1  0
 21 39  1  0
 22 40  1  0
M  ISO  8  23   9  24  13  25  13  26  13  27  13  28  13  29  13  30  13
M  ISO  8  31  13  32  13  33  13  34  13  35  14  36  14  37  14  38   8
M  ISO  2  39   8  40  11
M  END
>  <minimizedAffinity>  (1) 
-5.31413269

>  <minimizedRMSD>  (1) 
0.520442426

$$$$
