
     RDKit          3D

 31 34  0  0  0  0  0  0  0  0999 V2000
   43.6550   34.8410   42.1670 C   0  0  0  0  0  0  0  0  0  0  0  0
   42.7450   33.9410   41.5790 C   0  0  0  0  0  0  0  0  0  0  0  0
   42.9340   32.5790   41.7190 C   0  0  0  0  0  0  0  0  0  0  0  0
   44.0200   32.1530   42.4410 N   0  0  0  0  0  0  0  0  0  0  0  0
   44.8740   33.0280   42.9920 C   0  0  0  0  0  0  0  0  0  0  0  0
   44.7040   34.3470   42.8640 N   0  0  0  0  0  0  0  0  0  0  0  0
   41.9850   31.7140   41.1050 N   0  0  0  0  0  0  0  0  0  0  0  0
   41.7840   31.6240   39.7760 C   0  0  0  0  0  0  0  0  0  0  0  0
   40.8060   30.6970   39.5800 N   0  0  0  0  0  0  0  0  0  0  0  0
   40.4100   30.2200   40.7970 C   0  0  0  0  0  0  0  0  0  0  0  0
   39.4520   29.2700   41.1640 C   0  0  0  0  0  0  0  0  0  0  0  0
   38.7700   28.6830   40.2630 O   0  0  0  0  0  0  0  0  0  0  0  0
   39.2990   29.0200   42.4780 N   0  0  0  0  0  0  0  0  0  0  0  0
   40.0290   29.6510   43.4140 C   0  0  0  0  0  0  0  0  0  0  0  0
   39.7680   29.2930   44.7620 N   0  0  0  0  0  0  0  0  0  0  0  0
   40.9510   30.5660   43.0590 N   0  0  0  0  0  0  0  0  0  0  0  0
   41.1720   30.8800   41.7650 C   0  0  0  0  0  0  0  0  0  0  0  0
   41.6750   34.5450   40.8660 N   0  0  0  0  0  0  0  0  0  0  0  0
   41.8800   35.0150   39.6540 N   0  0  0  0  0  0  0  0  0  0  0  0
   40.7060   35.5380   39.1940 C   0  0  0  0  0  0  0  0  0  0  0  0
   39.7790   35.3400   40.2340 C   0  0  0  0  0  0  0  0  0  0  0  0
   40.4150   34.7010   41.3010 C   0  0  0  0  0  0  0  0  0  0  0  0
   43.5152   35.9269   42.0613 H   0  0  0  0  0  0  0  0  0  0  0  0
   45.7351   32.6507   43.5630 H   0  0  0  0  0  0  0  0  0  0  0  0
   42.3110   32.1926   38.9956 H   0  0  0  0  0  0  0  0  0  0  0  0
   38.6009   28.3236   42.7754 H   0  0  0  0  0  0  0  0  0  0  0  0
   40.2947   29.7414   45.5252 H   0  0  0  0  0  0  0  0  0  0  0  0
   39.0518   28.5848   44.9773 H   0  0  0  0  0  0  0  0  0  0  0  0
   40.5236   36.0128   38.2187 H   0  0  0  0  0  0  0  0  0  0  0  0
   38.7212   35.6407   40.2105 H   0  0  0  0  0  0  0  0  0  0  0  0
   39.9855   34.3980   42.2673 H   0  0  0  0  0  0  0  0  0  0  0  0
  1  6  2  0
  2  3  2  0
  2  1  1  0
  3  4  1  0
  4  5  2  0
  6  5  1  0
  7  3  1  0
  7 17  1  0
  8  7  1  0
  9  8  2  0
  9 10  1  0
 10 11  1  0
 10 17  2  0
 11 13  1  0
 12 11  2  0
 13 14  1  0
 14 15  1  0
 16 14  2  0
 17 16  1  0
 18 22  1  0
 18  2  1  0
 19 18  1  0
 20 19  2  0
 20 21  1  0
 21 22  2  0
  1 23  1  0
  5 24  1  0
  8 25  1  0
 13 26  1  0
 15 27  1  0
 15 28  1  0
 20 29  1  0
 21 30  1  0
 22 31  1  0
M  ISO  7  23  14  24  14  25  14  26   9  29  14  30  14  31  14
M  END
>  <minimizedAffinity>  (1) 
-4.98024797

>  <minimizedRMSD>  (1) 
3.61872983

$$$$
