
     RDKit          3D

 24 26  0  0  0  0  0  0  0  0999 V2000
   45.2980   36.0470   43.3330 C   0  0  0  0  0  0  0  0  0  0  0  0
   46.1080   34.8890   43.2260 C   0  0  0  0  0  0  0  0  0  0  0  0
   46.1520   33.9530   44.2440 C   0  0  0  0  0  0  0  0  0  0  0  0
   45.3690   34.2260   45.3490 N   0  0  0  0  0  0  0  0  0  0  0  0
   44.6130   35.3200   45.4350 C   0  0  0  0  0  0  0  0  0  0  0  0
   44.5650   36.2240   44.4580 N   0  0  0  0  0  0  0  0  0  0  0  0
   46.8690   34.7750   42.0270 N   0  0  0  0  0  0  0  0  0  0  0  0
   48.0510   35.2900   41.9150 N   0  0  0  0  0  0  0  0  0  0  0  0
   48.5530   35.0490   40.6740 C   0  0  0  0  0  0  0  0  0  0  0  0
   47.5370   34.3180   40.0240 C   0  0  0  0  0  0  0  0  0  0  0  0
   46.4510   34.1450   40.9050 C   0  0  0  0  0  0  0  0  0  0  0  0
   46.9230   32.7360   44.1810 C   0  0  0  0  0  0  0  0  0  0  0  0
   46.8000   31.7840   45.1800 C   0  0  0  0  0  0  0  0  0  0  0  0
   47.5960   30.6900   44.9740 C   0  0  0  0  0  0  0  0  0  0  0  0
   48.2200   31.0160   43.7950 C   0  0  0  0  0  0  0  0  0  0  0  0
   47.7900   32.1580   43.4310 O   0  0  0  0  0  0  0  0  0  0  0  0
   45.2653   36.7865   42.5194 H   0  0  0  0  0  0  0  0  0  0  0  0
   44.0100   35.4814   46.3407 H   0  0  0  0  0  0  0  0  0  0  0  0
   49.5292   35.3547   40.2695 H   0  0  0  0  0  0  0  0  0  0  0  0
   47.5849   33.9419   38.9914 H   0  0  0  0  0  0  0  0  0  0  0  0
   45.4982   33.6257   40.7249 H   0  0  0  0  0  0  0  0  0  0  0  0
   46.1328   31.8957   46.0474 H   0  0  0  0  0  0  0  0  0  0  0  0
   47.7069   29.7862   45.5912 H   0  0  0  0  0  0  0  0  0  0  0  0
   48.9590   30.4008   43.2607 H   0  0  0  0  0  0  0  0  0  0  0  0
  1  6  2  0
  2  1  1  0
  2  3  2  0
  3  4  1  0
  4  5  2  0
  6  5  1  0
  7  2  1  0
  8  7  1  0
  9  8  2  0
 10  9  1  0
 10 11  2  0
 11  7  1  0
 12  3  1  0
 12 13  2  0
 14 13  1  0
 15 14  2  0
 16 15  1  0
 16 12  1  0
  1 17  1  0
  5 18  1  0
  9 19  1  0
 10 20  1  0
 11 21  1  0
 13 22  1  0
 14 23  1  0
 15 24  1  0
M  ISO  8  17  14  18  14  19  14  20  14  21  14  22  14  23  14  24  14
M  END
>  <minimizedAffinity>  (1) 
-4.65129662

>  <minimizedRMSD>  (1) 
3.31538725

$$$$
