
     RDKit          3D

 28 30  0  0  0  0  0  0  0  0999 V2000
   43.8760   34.4080   41.9570 C   0  0  0  0  0  0  0  0  0  0  0  0
   42.6950   33.8680   41.4650 C   0  0  0  0  0  0  0  0  0  0  0  0
   42.4460   32.5210   41.6440 C   0  0  0  0  0  0  0  0  0  0  0  0
   43.3790   31.7630   42.3050 N   0  0  0  0  0  0  0  0  0  0  0  0
   44.5040   32.3220   42.7640 C   0  0  0  0  0  0  0  0  0  0  0  0
   44.7700   33.6360   42.6020 N   0  0  0  0  0  0  0  0  0  0  0  0
   41.2470   31.9580   41.1460 N   0  0  0  0  0  0  0  0  0  0  0  0
   40.1250   31.9970   41.8840 C   0  0  0  0  0  0  0  0  0  0  0  0
   38.9830   31.4470   41.3810 C   0  0  0  0  0  0  0  0  0  0  0  0
   39.0730   30.8860   40.1310 C   0  0  0  0  0  0  0  0  0  0  0  0
   37.9510   30.2900   39.5170 N   0  0  0  0  0  0  0  0  0  0  0  0
   40.2140   30.8540   39.3940 N   0  0  0  0  0  0  0  0  0  0  0  0
   41.3430   31.4110   39.9210 C   0  0  0  0  0  0  0  0  0  0  0  0
   42.4110   31.3910   39.2550 O   0  0  0  0  0  0  0  0  0  0  0  0
   41.8140   34.7420   40.8040 N   0  0  0  0  0  0  0  0  0  0  0  0
   41.8090   34.8730   39.5000 N   0  0  0  0  0  0  0  0  0  0  0  0
   40.8550   35.7850   39.1420 C   0  0  0  0  0  0  0  0  0  0  0  0
   40.2760   36.2000   40.3480 C   0  0  0  0  0  0  0  0  0  0  0  0
   40.8980   35.5280   41.3940 C   0  0  0  0  0  0  0  0  0  0  0  0
   44.0832   35.4793   41.8179 H   0  0  0  0  0  0  0  0  0  0  0  0
   45.2358   31.6914   43.2902 H   0  0  0  0  0  0  0  0  0  0  0  0
   40.1275   32.4656   42.8792 H   0  0  0  0  0  0  0  0  0  0  0  0
   38.0396   31.4525   41.9467 H   0  0  0  0  0  0  0  0  0  0  0  0
   38.0377   29.8741   38.5787 H   0  0  0  0  0  0  0  0  0  0  0  0
   37.0453   30.2708   40.0071 H   0  0  0  0  0  0  0  0  0  0  0  0
   40.5979   36.1203   38.1264 H   0  0  0  0  0  0  0  0  0  0  0  0
   39.4643   36.9352   40.4504 H   0  0  0  0  0  0  0  0  0  0  0  0
   40.6864   35.6198   42.4696 H   0  0  0  0  0  0  0  0  0  0  0  0
  1  6  2  0
  2  3  2  0
  2  1  1  0
  3  4  1  0
  4  5  2  0
  6  5  1  0
  7  3  1  0
  7  8  1  0
  9  8  2  0
 10  9  1  0
 11 10  1  0
 12 13  1  0
 12 10  2  0
 13  7  1  0
 14 13  2  0
 15 19  1  0
 15  2  1  0
 16 15  1  0
 17 16  2  0
 17 18  1  0
 18 19  2  0
  1 20  1  0
  5 21  1  0
  8 22  1  0
  9 23  1  0
 11 24  1  0
 11 25  1  0
 17 26  1  0
 18 27  1  0
 19 28  1  0
M  ISO  7  20  14  21  14  22  14  23  14  26  14  27  14  28  14
M  END
>  <minimizedAffinity>  (1) 
-4.35594559

>  <minimizedRMSD>  (1) 
4.45619154

$$$$
