
     RDKit          3D

 31 33  0  0  0  0  0  0  0  0999 V2000
   45.3930   36.2690   43.1720 C   0  0  0  0  0  0  0  0  0  0  0  0
   45.8960   34.9560   43.0390 C   0  0  0  0  0  0  0  0  0  0  0  0
   45.6990   34.0040   44.0490 C   0  0  0  0  0  0  0  0  0  0  0  0
   44.9990   34.4100   45.1610 N   0  0  0  0  0  0  0  0  0  0  0  0
   44.5270   35.6730   45.2660 C   0  0  0  0  0  0  0  0  0  0  0  0
   44.7130   36.5970   44.2970 N   0  0  0  0  0  0  0  0  0  0  0  0
   46.6110   34.6860   41.8450 N   0  0  0  0  0  0  0  0  0  0  0  0
   47.8750   35.0300   41.7290 N   0  0  0  0  0  0  0  0  0  0  0  0
   48.3170   34.6630   40.4910 C   0  0  0  0  0  0  0  0  0  0  0  0
   47.2020   34.0660   39.8700 C   0  0  0  0  0  0  0  0  0  0  0  0
   46.1010   34.0830   40.7520 C   0  0  0  0  0  0  0  0  0  0  0  0
   46.1700   32.6750   43.9300 N   0  0  0  0  0  0  0  0  0  0  0  0
   45.6130   31.5000   43.2580 C   0  0  0  0  0  0  0  0  0  0  0  0
   46.6680   30.5170   42.8810 C   0  0  0  0  0  0  0  0  0  0  0  0
   47.4980   30.1090   43.9870 N   0  0  0  0  0  0  0  0  0  0  0  0
   47.3790   30.9880   45.1260 C   0  0  0  0  0  0  0  0  0  0  0  0
   47.4360   32.4290   44.5950 C   0  0  0  0  0  0  0  0  0  0  0  0
   45.5505   37.0121   42.3764 H   0  0  0  0  0  0  0  0  0  0  0  0
   43.9721   35.9585   46.1719 H   0  0  0  0  0  0  0  0  0  0  0  0
   49.3236   34.8027   40.0701 H   0  0  0  0  0  0  0  0  0  0  0  0
   47.1915   33.6498   38.8518 H   0  0  0  0  0  0  0  0  0  0  0  0
   45.0826   33.7005   40.5890 H   0  0  0  0  0  0  0  0  0  0  0  0
   44.8975   31.0102   43.9349 H   0  0  0  0  0  0  0  0  0  0  0  0
   45.1208   31.8394   42.3347 H   0  0  0  0  0  0  0  0  0  0  0  0
   46.1786   29.6238   42.4653 H   0  0  0  0  0  0  0  0  0  0  0  0
   47.3244   31.0124   42.1504 H   0  0  0  0  0  0  0  0  0  0  0  0
   47.2218   29.1590   44.2735 H   0  0  0  0  0  0  0  0  0  0  0  0
   46.4218   30.8128   45.6390 H   0  0  0  0  0  0  0  0  0  0  0  0
   48.1892   30.8050   45.8472 H   0  0  0  0  0  0  0  0  0  0  0  0
   48.2668   32.5385   43.8824 H   0  0  0  0  0  0  0  0  0  0  0  0
   47.6017   33.1470   45.4117 H   0  0  0  0  0  0  0  0  0  0  0  0
  1  6  2  0
  2  1  1  0
  2  3  2  0
  3  4  1  0
  4  5  2  0
  6  5  1  0
  7  2  1  0
  8  7  1  0
  9  8  2  0
 10  9  1  0
 10 11  2  0
 11  7  1  0
 12  3  1  0
 12 17  1  0
 13 12  1  0
 14 13  1  0
 14 15  1  0
 15 16  1  0
 17 16  1  0
  1 18  1  0
  5 19  1  0
  9 20  1  0
 10 21  1  0
 11 22  1  0
 13 23  1  0
 13 24  1  0
 14 25  1  0
 14 26  1  0
 15 27  1  0
 16 28  1  0
 16 29  1  0
 17 30  1  0
 17 31  1  0
M  ISO  8  18  14  19  14  20  14  21  14  22  14  23  13  24  13  25  13
M  ISO  6  26  13  27   5  28  13  29  13  30  13  31  13
M  END
>  <minimizedAffinity>  (1) 
-4.18708706

>  <minimizedRMSD>  (1) 
3.05418658

$$$$
