
     RDKit          3D

 30 32  0  0  0  0  0  0  0  0999 V2000
   45.3770   36.1680   43.1370 C   0  0  0  0  0  0  0  0  0  0  0  0
   45.8160   34.8600   42.9530 C   0  0  0  0  0  0  0  0  0  0  0  0
   45.6150   33.9230   43.9730 C   0  0  0  0  0  0  0  0  0  0  0  0
   44.9930   34.3470   45.0990 N   0  0  0  0  0  0  0  0  0  0  0  0
   44.5830   35.6070   45.2460 C   0  0  0  0  0  0  0  0  0  0  0  0
   44.7680   36.5080   44.2880 N   0  0  0  0  0  0  0  0  0  0  0  0
   46.4360   34.5460   41.7340 N   0  0  0  0  0  0  0  0  0  0  0  0
   47.6950   34.7440   41.5070 N   0  0  0  0  0  0  0  0  0  0  0  0
   48.0390   34.3530   40.2570 C   0  0  0  0  0  0  0  0  0  0  0  0
   46.8440   33.8850   39.7280 C   0  0  0  0  0  0  0  0  0  0  0  0
   45.8220   34.0050   40.6620 C   0  0  0  0  0  0  0  0  0  0  0  0
   46.0360   32.5900   43.8840 N   0  0  0  0  0  0  0  0  0  0  0  0
   45.7490   31.3300   43.2350 C   0  0  0  0  0  0  0  0  0  0  0  0
   47.0200   30.9640   42.4420 C   0  0  0  0  0  0  0  0  0  0  0  0
   48.0560   30.6560   43.3170 O   0  0  0  0  0  0  0  0  0  0  0  0
   47.8000   31.0230   44.6220 C   0  0  0  0  0  0  0  0  0  0  0  0
   47.1780   32.3980   44.7640 C   0  0  0  0  0  0  0  0  0  0  0  0
   45.5268   36.9187   42.3470 H   0  0  0  0  0  0  0  0  0  0  0  0
   44.0820   35.9061   46.1785 H   0  0  0  0  0  0  0  0  0  0  0  0
   49.0275   34.3959   39.7764 H   0  0  0  0  0  0  0  0  0  0  0  0
   46.7232   33.4771   38.7136 H   0  0  0  0  0  0  0  0  0  0  0  0
   44.7638   33.7252   40.5529 H   0  0  0  0  0  0  0  0  0  0  0  0
   45.5290   30.5551   43.9841 H   0  0  0  0  0  0  0  0  0  0  0  0
   44.8704   31.4052   42.5775 H   0  0  0  0  0  0  0  0  0  0  0  0
   46.8122   30.0931   41.8030 H   0  0  0  0  0  0  0  0  0  0  0  0
   47.3163   31.8216   41.8202 H   0  0  0  0  0  0  0  0  0  0  0  0
   47.1121   30.2850   45.0605 H   0  0  0  0  0  0  0  0  0  0  0  0
   48.7700   31.0570   45.1396 H   0  0  0  0  0  0  0  0  0  0  0  0
   47.9389   33.1552   44.5237 H   0  0  0  0  0  0  0  0  0  0  0  0
   46.8202   32.4960   45.7996 H   0  0  0  0  0  0  0  0  0  0  0  0
  1  6  2  0
  2  1  1  0
  2  3  2  0
  3  4  1  0
  4  5  2  0
  6  5  1  0
  7  2  1  0
  8  7  1  0
  9  8  2  0
 10  9  1  0
 10 11  2  0
 11  7  1  0
 12  3  1  0
 12 17  1  0
 13 12  1  0
 14 13  1  0
 14 15  1  0
 15 16  1  0
 16 17  1  0
  1 18  1  0
  5 19  1  0
  9 20  1  0
 10 21  1  0
 11 22  1  0
 13 23  1  0
 13 24  1  0
 14 25  1  0
 14 26  1  0
 16 27  1  0
 16 28  1  0
 17 29  1  0
 17 30  1  0
M  ISO  8  18  14  19  14  20  14  21  14  22  14  23  13  24  13  25  13
M  ISO  5  26  13  27  13  28  13  29  13  30  13
M  END
>  <minimizedAffinity>  (1) 
-4.12159729

>  <minimizedRMSD>  (1) 
2.78601789

$$$$
