
     RDKit          3D

 29 30  0  0  0  0  0  0  0  0999 V2000
   44.1180   35.7330   42.0820 C   0  0  0  0  0  0  0  0  0  0  0  0
   43.2840   34.6950   41.6090 C   0  0  0  0  0  0  0  0  0  0  0  0
   43.5620   33.3370   41.8300 C   0  0  0  0  0  0  0  0  0  0  0  0
   44.6990   33.1090   42.5370 N   0  0  0  0  0  0  0  0  0  0  0  0
   45.4920   34.0790   42.9870 C   0  0  0  0  0  0  0  0  0  0  0  0
   45.2230   35.3920   42.7730 N   0  0  0  0  0  0  0  0  0  0  0  0
   42.1240   35.1530   40.9120 N   0  0  0  0  0  0  0  0  0  0  0  0
   42.1120   35.1990   39.6380 N   0  0  0  0  0  0  0  0  0  0  0  0
   40.9260   35.6740   39.1800 C   0  0  0  0  0  0  0  0  0  0  0  0
   40.2090   35.9140   40.3670 C   0  0  0  0  0  0  0  0  0  0  0  0
   40.9690   35.5830   41.4640 C   0  0  0  0  0  0  0  0  0  0  0  0
   42.7370   32.2470   41.3060 C   0  0  0  0  0  0  0  0  0  0  0  0
   43.3510   30.9680   41.9590 C   0  0  0  0  0  0  0  0  0  0  0  0
   41.3070   32.2200   41.7130 C   0  0  0  0  0  0  0  0  0  0  0  0
   42.9570   31.9520   39.8160 C   0  0  0  0  0  0  0  0  0  0  0  0
   43.8722   36.7882   41.8916 H   0  0  0  0  0  0  0  0  0  0  0  0
   46.3961   33.8071   43.5515 H   0  0  0  0  0  0  0  0  0  0  0  0
   40.6050   35.8321   38.1398 H   0  0  0  0  0  0  0  0  0  0  0  0
   39.1840   36.3109   40.4110 H   0  0  0  0  0  0  0  0  0  0  0  0
   40.7020   35.6516   42.5289 H   0  0  0  0  0  0  0  0  0  0  0  0
   43.3075   31.0586   43.0544 H   0  0  0  0  0  0  0  0  0  0  0  0
   42.7793   30.0836   41.6413 H   0  0  0  0  0  0  0  0  0  0  0  0
   44.3987   30.8610   41.6413 H   0  0  0  0  0  0  0  0  0  0  0  0
   41.2382   32.2187   42.8108 H   0  0  0  0  0  0  0  0  0  0  0  0
   40.7955   33.1086   41.3146 H   0  0  0  0  0  0  0  0  0  0  0  0
   40.8295   31.3127   41.3146 H   0  0  0  0  0  0  0  0  0  0  0  0
   43.6115   31.0744   39.7087 H   0  0  0  0  0  0  0  0  0  0  0  0
   41.9886   31.7481   39.3357 H   0  0  0  0  0  0  0  0  0  0  0  0
   43.4286   32.8220   39.3357 H   0  0  0  0  0  0  0  0  0  0  0  0
  1  6  2  0
  2  3  2  0
  2  1  1  0
  3  4  1  0
  4  5  2  0
  6  5  1  0
  7 11  1  0
  7  2  1  0
  8  7  1  0
  9  8  2  0
  9 10  1  0
 10 11  2  0
 12 14  1  0
 12  3  1  0
 12 13  1  0
 15 12  1  0
  1 16  1  0
  5 17  1  0
  9 18  1  0
 10 19  1  0
 11 20  1  0
 13 21  1  0
 13 22  1  0
 13 23  1  0
 14 24  1  0
 14 25  1  0
 14 26  1  0
 15 27  1  0
 15 28  1  0
 15 29  1  0
M  ISO  8  16  14  17  14  18  14  19  14  20  14  21   8  22   8  23   8
M  ISO  6  24   8  25   8  26   8  27   8  28   8  29   8
M  END
>  <minimizedAffinity>  (1) 
-3.64861536

>  <minimizedRMSD>  (1) 
2.52912736

$$$$
