
     RDKit          3D

 33 35  0  0  0  0  0  0  0  0999 V2000
   44.0040   35.4890   42.0840 C   0  0  0  0  0  0  0  0  0  0  0  0
   43.1140   34.5660   41.5480 C   0  0  0  0  0  0  0  0  0  0  0  0
   43.3150   33.2040   41.7420 C   0  0  0  0  0  0  0  0  0  0  0  0
   44.4080   32.8200   42.4710 N   0  0  0  0  0  0  0  0  0  0  0  0
   45.2550   33.7200   42.9810 C   0  0  0  0  0  0  0  0  0  0  0  0
   45.0690   35.0280   42.7980 N   0  0  0  0  0  0  0  0  0  0  0  0
   42.0230   35.0870   40.8230 N   0  0  0  0  0  0  0  0  0  0  0  0
   42.0540   35.2170   39.5350 N   0  0  0  0  0  0  0  0  0  0  0  0
   40.8900   35.7370   39.0770 C   0  0  0  0  0  0  0  0  0  0  0  0
   40.1160   35.9210   40.2420 C   0  0  0  0  0  0  0  0  0  0  0  0
   40.8560   35.4990   41.3570 C   0  0  0  0  0  0  0  0  0  0  0  0
   42.4300   32.1720   41.2050 C   0  0  0  0  0  0  0  0  0  0  0  0
   41.0360   32.4860   41.6250 C   0  0  0  0  0  0  0  0  0  0  0  0
   39.9830   31.6280   40.9980 C   0  0  0  0  0  0  0  0  0  0  0  0
   40.2180   31.3670   39.5330 C   0  0  0  0  0  0  0  0  0  0  0  0
   41.6470   31.0990   39.1780 C   0  0  0  0  0  0  0  0  0  0  0  0
   42.4520   32.3080   39.6680 C   0  0  0  0  0  0  0  0  0  0  0  0
   43.8520   36.5682   41.9351 H   0  0  0  0  0  0  0  0  0  0  0  0
   46.1223   33.3749   43.5630 H   0  0  0  0  0  0  0  0  0  0  0  0
   40.6124   35.9635   38.0370 H   0  0  0  0  0  0  0  0  0  0  0  0
   39.0953   36.3300   40.2716 H   0  0  0  0  0  0  0  0  0  0  0  0
   40.5553   35.5034   42.4151 H   0  0  0  0  0  0  0  0  0  0  0  0
   42.7437   31.1753   41.5488 H   0  0  0  0  0  0  0  0  0  0  0  0
   40.9718   32.3638   42.7163 H   0  0  0  0  0  0  0  0  0  0  0  0
   40.8364   33.5148   41.2907 H   0  0  0  0  0  0  0  0  0  0  0  0
   39.9604   30.6627   41.5249 H   0  0  0  0  0  0  0  0  0  0  0  0
   39.0296   32.1702   41.0824 H   0  0  0  0  0  0  0  0  0  0  0  0
   39.6197   30.4923   39.2383 H   0  0  0  0  0  0  0  0  0  0  0  0
   39.9265   32.2831   38.9985 H   0  0  0  0  0  0  0  0  0  0  0  0
   41.9967   30.1826   39.6760 H   0  0  0  0  0  0  0  0  0  0  0  0
   41.7670   30.9544   38.0942 H   0  0  0  0  0  0  0  0  0  0  0  0
   43.4832   32.2718   39.2868 H   0  0  0  0  0  0  0  0  0  0  0  0
   42.0335   33.2644   39.3212 H   0  0  0  0  0  0  0  0  0  0  0  0
  1  6  2  0
  2  3  2  0
  2  1  1  0
  3  4  1  0
  4  5  2  0
  6  5  1  0
  7 11  1  0
  7  2  1  0
  8  7  1  0
  9  8  2  0
  9 10  1  0
 10 11  2  0
 12 13  1  0
 12  3  1  0
 14 13  1  0
 15 14  1  0
 16 15  1  0
 16 17  1  0
 17 12  1  0
  1 18  1  0
  5 19  1  0
  9 20  1  0
 10 21  1  0
 11 22  1  0
 12 23  1  0
 13 24  1  0
 13 25  1  0
 14 26  1  0
 14 27  1  0
 15 28  1  0
 15 29  1  0
 16 30  1  0
 16 31  1  0
 17 32  1  0
 17 33  1  0
M  ISO  8  18  14  19  14  20  14  21  14  22  14  23  13  24  13  25  13
M  ISO  8  26  13  27  13  28  13  29  13  30  13  31  13  32  13  33  13
M  END
>  <minimizedAffinity>  (1) 
-3.97804761

>  <minimizedRMSD>  (1) 
2.9168148

$$$$
