
     RDKit          3D

 24 26  0  0  0  0  0  0  0  0999 V2000
   44.2020   35.3940   41.8420 C   0  0  0  0  0  0  0  0  0  0  0  0
   43.1620   34.4730   41.5340 C   0  0  0  0  0  0  0  0  0  0  0  0
   43.2940   33.1200   41.7750 C   0  0  0  0  0  0  0  0  0  0  0  0
   44.5170   32.7480   42.3230 N   0  0  0  0  0  0  0  0  0  0  0  0
   45.4850   33.6070   42.6050 C   0  0  0  0  0  0  0  0  0  0  0  0
   45.3520   34.9110   42.3800 N   0  0  0  0  0  0  0  0  0  0  0  0
   42.0340   35.0370   40.8680 N   0  0  0  0  0  0  0  0  0  0  0  0
   41.9750   35.0960   39.5560 N   0  0  0  0  0  0  0  0  0  0  0  0
   40.8140   35.7060   39.1800 C   0  0  0  0  0  0  0  0  0  0  0  0
   40.1720   36.0150   40.4060 C   0  0  0  0  0  0  0  0  0  0  0  0
   40.9640   35.5810   41.5010 C   0  0  0  0  0  0  0  0  0  0  0  0
   42.3120   32.1130   41.5710 C   0  0  0  0  0  0  0  0  0  0  0  0
   42.3860   30.9560   42.3740 C   0  0  0  0  0  0  0  0  0  0  0  0
   41.4780   30.0230   42.0640 N   0  0  0  0  0  0  0  0  0  0  0  0
   40.7640   30.5030   41.0560 C   0  0  0  0  0  0  0  0  0  0  0  0
   41.3010   31.6870   40.8430 N   0  0  0  0  0  0  0  0  0  0  0  0
   44.0779   36.4699   41.6493 H   0  0  0  0  0  0  0  0  0  0  0  0
   46.4244   33.2316   43.0370 H   0  0  0  0  0  0  0  0  0  0  0  0
   40.4577   35.9111   38.1597 H   0  0  0  0  0  0  0  0  0  0  0  0
   39.1986   36.5194   40.4957 H   0  0  0  0  0  0  0  0  0  0  0  0
   40.7632   35.6638   42.5793 H   0  0  0  0  0  0  0  0  0  0  0  0
   43.1227   30.8318   43.1814 H   0  0  0  0  0  0  0  0  0  0  0  0
   39.9257   30.0278   40.5255 H   0  0  0  0  0  0  0  0  0  0  0  0
   40.9245   32.2881   40.0962 H   0  0  0  0  0  0  0  0  0  0  0  0
  1  6  2  0
  2  3  2  0
  2  1  1  0
  3  4  1  0
  4  5  2  0
  6  5  1  0
  7 11  1  0
  7  2  1  0
  8  7  1  0
  9  8  2  0
  9 10  1  0
 10 11  2  0
 12  3  1  0
 12 13  2  0
 14 13  1  0
 15 14  2  0
 16 15  1  0
 16 12  1  0
  1 17  1  0
  5 18  1  0
  9 19  1  0
 10 20  1  0
 11 21  1  0
 13 22  1  0
 15 23  1  0
 16 24  1  0
M  ISO  8  17  14  18  14  19  14  20  14  21  14  22  14  23  14  24   9
M  END
>  <minimizedAffinity>  (1) 
-3.80757928

>  <minimizedRMSD>  (1) 
2.80031157

$$$$
