
     RDKit          3D

 19 20  0  0  0  0  0  0  0  0999 V2000
   44.3330   35.8970   42.4020 C   0  0  0  0  0  0  0  0  0  0  0  0
   43.6130   34.8220   41.8870 C   0  0  0  0  0  0  0  0  0  0  0  0
   43.9990   33.5100   42.1930 C   0  0  0  0  0  0  0  0  0  0  0  0
   45.1040   33.3790   43.0070 N   0  0  0  0  0  0  0  0  0  0  0  0
   45.7720   34.4290   43.4830 C   0  0  0  0  0  0  0  0  0  0  0  0
   45.4000   35.6870   43.1890 N   0  0  0  0  0  0  0  0  0  0  0  0
   42.5070   35.1390   41.0700 N   0  0  0  0  0  0  0  0  0  0  0  0
   42.5630   34.9960   39.7640 N   0  0  0  0  0  0  0  0  0  0  0  0
   41.3730   35.3690   39.2080 C   0  0  0  0  0  0  0  0  0  0  0  0
   40.5810   35.7570   40.3110 C   0  0  0  0  0  0  0  0  0  0  0  0
   41.3310   35.5980   41.4690 C   0  0  0  0  0  0  0  0  0  0  0  0
   43.2520   32.4430   41.6600 N   0  0  0  0  0  0  0  0  0  0  0  0
   44.0252   36.9255   42.1622 H   0  0  0  0  0  0  0  0  0  0  0  0
   46.6460   34.2631   44.1300 H   0  0  0  0  0  0  0  0  0  0  0  0
   41.0947   35.3676   38.1438 H   0  0  0  0  0  0  0  0  0  0  0  0
   39.5450   36.1233   40.2613 H   0  0  0  0  0  0  0  0  0  0  0  0
   41.0144   35.8091   42.5011 H   0  0  0  0  0  0  0  0  0  0  0  0
   43.5186   31.4710   41.8724 H   0  0  0  0  0  0  0  0  0  0  0  0
   42.4387   32.6341   41.0575 H   0  0  0  0  0  0  0  0  0  0  0  0
  1  6  2  0
  2  3  2  0
  2  1  1  0
  3  4  1  0
  4  5  2  0
  6  5  1  0
  7 11  1  0
  7  2  1  0
  8  7  1  0
  9  8  2  0
  9 10  1  0
 10 11  2  0
 12  3  1  0
  1 13  1  0
  5 14  1  0
  9 15  1  0
 10 16  1  0
 11 17  1  0
 12 18  1  0
 12 19  1  0
M  ISO  5  13  14  14  14  15  14  16  14  17  14
M  END
>  <minimizedAffinity>  (1) 
-3.44678617

>  <minimizedRMSD>  (1) 
1.89763391

$$$$
