
     RDKit          3D

 18 19  0  0  0  0  0  0  0  0999 V2000
   44.0520   35.7000   43.6250 C   0  0  0  0  0  0  0  0  0  0  0  0
   43.9490   34.6740   42.6790 C   0  0  0  0  0  0  0  0  0  0  0  0
   44.6430   33.4710   42.8650 C   0  0  0  0  0  0  0  0  0  0  0  0
   45.4100   33.3620   44.0000 N   0  0  0  0  0  0  0  0  0  0  0  0
   45.4820   34.3780   44.8900 C   0  0  0  0  0  0  0  0  0  0  0  0
   44.8210   35.5230   44.7120 N   0  0  0  0  0  0  0  0  0  0  0  0
   43.1180   34.9240   41.5480 N   0  0  0  0  0  0  0  0  0  0  0  0
   43.5720   34.7460   40.3300 N   0  0  0  0  0  0  0  0  0  0  0  0
   42.5660   35.0590   39.4500 C   0  0  0  0  0  0  0  0  0  0  0  0
   41.4800   35.4350   40.2560 C   0  0  0  0  0  0  0  0  0  0  0  0
   41.8440   35.3450   41.5980 C   0  0  0  0  0  0  0  0  0  0  0  0
   44.4870   32.5230   41.8970 O   0  0  0  0  0  0  0  0  0  0  0  0
   43.5072   36.6445   43.4795 H   0  0  0  0  0  0  0  0  0  0  0  0
   46.1049   34.2564   45.7884 H   0  0  0  0  0  0  0  0  0  0  0  0
   42.6029   35.0230   38.3512 H   0  0  0  0  0  0  0  0  0  0  0  0
   40.4939   35.7518   39.8854 H   0  0  0  0  0  0  0  0  0  0  0  0
   41.2336   35.5660   42.4860 H   0  0  0  0  0  0  0  0  0  0  0  0
   44.9536   31.6535   41.9760 H   0  0  0  0  0  0  0  0  0  0  0  0
  1  6  2  0
  2  3  2  0
  2  1  1  0
  3  4  1  0
  4  5  2  0
  6  5  1  0
  7 11  1  0
  7  2  1  0
  8  7  1  0
  9 10  1  0
  9  8  2  0
 10 11  2  0
 12  3  1  0
  1 13  1  0
  5 14  1  0
  9 15  1  0
 10 16  1  0
 11 17  1  0
 12 18  1  0
M  ISO  6  13  14  14  14  15  14  16  14  17  14  18   3
M  END
>  <minimizedAffinity>  (1) 
-3.19081473

>  <minimizedRMSD>  (1) 
0.911829591

$$$$
