
     RDKit          3D

 33 35  0  0  0  0  0  0  0  0999 V2000
   43.9610   34.5090   41.3510 C   0  0  0  0  0  0  0  0  0  0  0  0
   42.8880   33.9190   40.6820 C   0  0  0  0  0  0  0  0  0  0  0  0
   42.5110   32.6400   41.0840 C   0  0  0  0  0  0  0  0  0  0  0  0
   43.1960   32.0330   42.0970 N   0  0  0  0  0  0  0  0  0  0  0  0
   44.2160   32.6400   42.7050 C   0  0  0  0  0  0  0  0  0  0  0  0
   44.5960   33.8590   42.3420 N   0  0  0  0  0  0  0  0  0  0  0  0
   41.4130   32.0290   40.4030 N   0  0  0  0  0  0  0  0  0  0  0  0
   41.6150   31.5760   39.1360 C   0  0  0  0  0  0  0  0  0  0  0  0
   40.5470   30.9950   38.5060 C   0  0  0  0  0  0  0  0  0  0  0  0
   39.3020   30.8560   39.1010 C   0  0  0  0  0  0  0  0  0  0  0  0
   38.3790   30.3140   38.4560 O   0  0  0  0  0  0  0  0  0  0  0  0
   39.1470   31.3230   40.3680 N   0  0  0  0  0  0  0  0  0  0  0  0
   40.1960   31.8910   40.9790 C   0  0  0  0  0  0  0  0  0  0  0  0
   40.0030   32.3030   42.1400 O   0  0  0  0  0  0  0  0  0  0  0  0
   40.7880   30.5000   37.1040 C   0  0  0  0  0  0  0  0  0  0  0  0
   42.2790   34.6550   39.6620 N   0  0  0  0  0  0  0  0  0  0  0  0
   42.8040   34.7130   38.4670 N   0  0  0  0  0  0  0  0  0  0  0  0
   42.0230   35.4870   37.6670 C   0  0  0  0  0  0  0  0  0  0  0  0
   40.9750   35.8980   38.4790 C   0  0  0  0  0  0  0  0  0  0  0  0
   41.1540   35.3570   39.7510 C   0  0  0  0  0  0  0  0  0  0  0  0
   40.2490   35.5730   40.8770 C   0  0  0  0  0  0  0  0  0  0  0  0
   39.8230   36.9090   40.8160 F   0  0  0  0  0  0  0  0  0  0  0  0
   39.0960   34.8370   40.6940 F   0  0  0  0  0  0  0  0  0  0  0  0
   40.8740   35.3290   42.0810 F   0  0  0  0  0  0  0  0  0  0  0  0
   44.2914   35.5182   41.0641 H   0  0  0  0  0  0  0  0  0  0  0  0
   44.7490   32.1242   43.5173 H   0  0  0  0  0  0  0  0  0  0  0  0
   42.5922   31.6722   38.6401 H   0  0  0  0  0  0  0  0  0  0  0  0
   38.2402   31.2419   40.8497 H   0  0  0  0  0  0  0  0  0  0  0  0
   41.2692   29.5116   37.1418 H   0  0  0  0  0  0  0  0  0  0  0  0
   39.8279   30.4203   36.5732 H   0  0  0  0  0  0  0  0  0  0  0  0
   41.4429   31.2066   36.5732 H   0  0  0  0  0  0  0  0  0  0  0  0
   42.1862   35.7336   36.6075 H   0  0  0  0  0  0  0  0  0  0  0  0
   40.1405   36.5444   38.1695 H   0  0  0  0  0  0  0  0  0  0  0  0
  1  6  2  0
  2  3  2  0
  2  1  1  0
  3  4  1  0
  4  5  2  0
  6  5  1  0
  7 13  1  0
  7  3  1  0
  8  7  1  0
  9 10  1  0
  9  8  2  0
 10 12  1  0
 11 10  2  0
 12 13  1  0
 13 14  2  0
 15  9  1  0
 16 20  1  0
 16  2  1  0
 17 16  1  0
 18 17  2  0
 18 19  1  0
 19 20  2  0
 20 21  1  0
 21 24  1  0
 22 21  1  0
 23 21  1  0
  1 25  1  0
  5 26  1  0
  8 27  1  0
 12 28  1  0
 15 29  1  0
 15 30  1  0
 15 31  1  0
 18 32  1  0
 19 33  1  0
M  ISO  8  25  14  26  14  27  14  28   9  29   8  30   8  31   8  32  14
M  ISO  1  33  14
M  END
>  <minimizedAffinity>  (1) 
-5.22162533

>  <minimizedRMSD>  (1) 
1.20179236

$$$$
