
     RDKit          3D

 38 41  0  0  0  0  0  0  0  0999 V2000
   44.5660   35.7200   42.7220 C   0  0  0  0  0  0  0  0  0  0  0  0
   44.9580   34.4030   42.4640 C   0  0  0  0  0  0  0  0  0  0  0  0
   45.2550   33.5990   43.5620 C   0  0  0  0  0  0  0  0  0  0  0  0
   45.1520   34.1260   44.8200 N   0  0  0  0  0  0  0  0  0  0  0  0
   44.7720   35.3880   45.0070 C   0  0  0  0  0  0  0  0  0  0  0  0
   44.4830   36.1810   43.9780 N   0  0  0  0  0  0  0  0  0  0  0  0
   45.6570   32.2590   43.3110 N   0  0  0  0  0  0  0  0  0  0  0  0
   46.9830   31.9520   43.4030 C   0  0  0  0  0  0  0  0  0  0  0  0
   47.3490   30.6530   43.1540 C   0  0  0  0  0  0  0  0  0  0  0  0
   46.4300   29.6580   42.8160 C   0  0  0  0  0  0  0  0  0  0  0  0
   46.8540   28.5070   42.6070 O   0  0  0  0  0  0  0  0  0  0  0  0
   45.1210   30.0130   42.7370 N   0  0  0  0  0  0  0  0  0  0  0  0
   44.7760   31.2890   42.9840 C   0  0  0  0  0  0  0  0  0  0  0  0
   43.5590   31.5430   42.8940 O   0  0  0  0  0  0  0  0  0  0  0  0
   48.8130   30.3310   43.2600 C   0  0  0  0  0  0  0  0  0  0  0  0
   45.0230   33.9990   41.1270 N   0  0  0  0  0  0  0  0  0  0  0  0
   46.1640   33.6510   40.5840 N   0  0  0  0  0  0  0  0  0  0  0  0
   45.9490   33.3000   39.2870 C   0  0  0  0  0  0  0  0  0  0  0  0
   44.5900   33.4630   39.0850 C   0  0  0  0  0  0  0  0  0  0  0  0
   44.0070   33.9150   40.2810 C   0  0  0  0  0  0  0  0  0  0  0  0
   42.6050   34.2120   40.4220 C   0  0  0  0  0  0  0  0  0  0  0  0
   42.0210   35.2320   39.6900 C   0  0  0  0  0  0  0  0  0  0  0  0
   40.6980   35.6120   39.7340 C   0  0  0  0  0  0  0  0  0  0  0  0
   39.9000   34.9150   40.5760 N   0  0  0  0  0  0  0  0  0  0  0  0
   40.4220   33.9010   41.3210 C   0  0  0  0  0  0  0  0  0  0  0  0
   41.7250   33.5960   41.2150 N   0  0  0  0  0  0  0  0  0  0  0  0
   44.3222   36.3874   41.8823 H   0  0  0  0  0  0  0  0  0  0  0  0
   44.6954   35.7827   46.0309 H   0  0  0  0  0  0  0  0  0  0  0  0
   47.7296   32.7157   43.6664 H   0  0  0  0  0  0  0  0  0  0  0  0
   44.4039   29.3155   42.4917 H   0  0  0  0  0  0  0  0  0  0  0  0
   49.0988   30.2681   44.3204 H   0  0  0  0  0  0  0  0  0  0  0  0
   49.0130   29.3674   42.7686 H   0  0  0  0  0  0  0  0  0  0  0  0
   49.3989   31.1218   42.7686 H   0  0  0  0  0  0  0  0  0  0  0  0
   46.6963   32.9593   38.5552 H   0  0  0  0  0  0  0  0  0  0  0  0
   44.0544   33.2706   38.1437 H   0  0  0  0  0  0  0  0  0  0  0  0
   42.6768   35.7927   39.0077 H   0  0  0  0  0  0  0  0  0  0  0  0
   40.3109   36.4372   39.1182 H   0  0  0  0  0  0  0  0  0  0  0  0
   39.7772   33.3333   42.0080 H   0  0  0  0  0  0  0  0  0  0  0  0
  1  6  2  0
  2  1  1  0
  2  3  2  0
  3  4  1  0
  4  5  2  0
  6  5  1  0
  7  8  1  0
  7  3  1  0
  9 15  1  0
  9  8  2  0
 10  9  1  0
 11 10  2  0
 12 10  1  0
 12 13  1  0
 13  7  1  0
 14 13  2  0
 16  2  1  0
 17 16  1  0
 18 17  2  0
 19 18  1  0
 19 20  2  0
 20 21  1  0
 20 16  1  0
 21 26  2  0
 22 23  2  0
 22 21  1  0
 23 24  1  0
 24 25  2  0
 26 25  1  0
  1 27  1  0
  5 28  1  0
  8 29  1  0
 12 30  1  0
 15 31  1  0
 15 32  1  0
 15 33  1  0
 18 34  1  0
 19 35  1  0
 22 36  1  0
 23 37  1  0
 25 38  1  0
M  ISO  8  27  14  28  14  29  14  30   9  31   8  32   8  33   8  34  14
M  ISO  4  35  14  36  14  37  14  38  14
M  END
>  <minimizedAffinity>  (1) 
-4.98822927

>  <minimizedRMSD>  (1) 
5.41123772

$$$$
