
     RDKit          3D

 42 45  0  0  0  0  0  0  0  0999 V2000
   44.0310   35.3090   42.3740 C   0  0  0  0  0  0  0  0  0  0  0  0
   44.6280   34.0930   42.0490 C   0  0  0  0  0  0  0  0  0  0  0  0
   45.3340   33.4320   43.0400 C   0  0  0  0  0  0  0  0  0  0  0  0
   45.4150   34.0010   44.2940 N   0  0  0  0  0  0  0  0  0  0  0  0
   44.8250   35.1690   44.5520 C   0  0  0  0  0  0  0  0  0  0  0  0
   44.1380   35.8180   43.6010 N   0  0  0  0  0  0  0  0  0  0  0  0
   45.9440   32.1800   42.7130 N   0  0  0  0  0  0  0  0  0  0  0  0
   47.2450   32.1910   42.3460 C   0  0  0  0  0  0  0  0  0  0  0  0
   47.8230   31.0010   42.0350 C   0  0  0  0  0  0  0  0  0  0  0  0
   47.1220   29.7890   42.0820 C   0  0  0  0  0  0  0  0  0  0  0  0
   47.7280   28.7350   41.7790 O   0  0  0  0  0  0  0  0  0  0  0  0
   45.8220   29.8270   42.4540 N   0  0  0  0  0  0  0  0  0  0  0  0
   45.2690   31.0110   42.7570 C   0  0  0  0  0  0  0  0  0  0  0  0
   44.0560   30.9970   43.0970 O   0  0  0  0  0  0  0  0  0  0  0  0
   49.2690   31.0090   41.6260 C   0  0  0  0  0  0  0  0  0  0  0  0
   44.4740   33.6330   40.7400 N   0  0  0  0  0  0  0  0  0  0  0  0
   45.4790   33.5680   39.9130 N   0  0  0  0  0  0  0  0  0  0  0  0
   45.0780   33.1000   38.7160 C   0  0  0  0  0  0  0  0  0  0  0  0
   43.7120   32.8680   38.8570 C   0  0  0  0  0  0  0  0  0  0  0  0
   43.3440   33.2150   40.1630 C   0  0  0  0  0  0  0  0  0  0  0  0
   42.0280   33.0940   40.6330 N   0  0  0  0  0  0  0  0  0  0  0  0
   41.1630   34.1850   40.2700 C   0  0  0  0  0  0  0  0  0  0  0  0
   40.4690   34.6270   41.5460 C   0  0  0  0  0  0  0  0  0  0  0  0
   39.5600   33.5630   41.8920 N   0  0  0  0  0  0  0  0  0  0  0  0
   40.1580   32.2780   42.0190 C   0  0  0  0  0  0  0  0  0  0  0  0
   41.4730   32.0460   41.4070 C   0  0  0  0  0  0  0  0  0  0  0  0
   43.4634   35.8566   41.6072 H   0  0  0  0  0  0  0  0  0  0  0  0
   44.9031   35.6057   45.5586 H   0  0  0  0  0  0  0  0  0  0  0  0
   47.8158   33.1302   42.3007 H   0  0  0  0  0  0  0  0  0  0  0  0
   45.2661   28.9613   42.5038 H   0  0  0  0  0  0  0  0  0  0  0  0
   49.9041   31.0125   42.5241 H   0  0  0  0  0  0  0  0  0  0  0  0
   49.4857   30.1120   41.0272 H   0  0  0  0  0  0  0  0  0  0  0  0
   49.4757   31.9083   41.0272 H   0  0  0  0  0  0  0  0  0  0  0  0
   45.6955   32.9363   37.8205 H   0  0  0  0  0  0  0  0  0  0  0  0
   43.0392   32.4798   38.0781 H   0  0  0  0  0  0  0  0  0  0  0  0
   41.7522   35.0140   39.8510 H   0  0  0  0  0  0  0  0  0  0  0  0
   40.4336   33.8775   39.5062 H   0  0  0  0  0  0  0  0  0  0  0  0
   41.2053   34.7773   42.3493 H   0  0  0  0  0  0  0  0  0  0  0  0
   39.9391   35.5809   41.4072 H   0  0  0  0  0  0  0  0  0  0  0  0
   38.5525   33.7211   42.0366 H   0  0  0  0  0  0  0  0  0  0  0  0
   39.6448   31.4731   42.5655 H   0  0  0  0  0  0  0  0  0  0  0  0
   42.0066   31.0940   41.5447 H   0  0  0  0  0  0  0  0  0  0  0  0
  1  6  2  0
  2  1  1  0
  2  3  2  0
  3  4  1  0
  4  5  2  0
  6  5  1  0
  7 13  1  0
  7  3  1  0
  8  7  1  0
  9 10  1  0
  9  8  2  0
 10 12  1  0
 11 10  2  0
 12 13  1  0
 13 14  2  0
 15  9  1  0
 16  2  1  0
 17 16  1  0
 18 19  1  0
 18 17  2  0
 19 20  2  0
 20 21  1  0
 20 16  1  0
 21 26  1  0
 22 21  1  0
 22 23  1  0
 23 24  1  0
 24 25  1  0
 26 25  2  0
  1 27  1  0
  5 28  1  0
  8 29  1  0
 12 30  1  0
 15 31  1  0
 15 32  1  0
 15 33  1  0
 18 34  1  0
 19 35  1  0
 22 36  1  0
 22 37  1  0
 23 38  1  0
 23 39  1  0
 24 40  1  0
 25 41  1  0
 26 42  1  0
M  ISO  8  27  14  28  14  29  14  30   9  31   8  32   8  33   8  34  14
M  ISO  7  35  14  36  13  37  13  38  13  39  13  41  13  42  13
M  END
>  <minimizedAffinity>  (1) 
-4.72827435

>  <minimizedRMSD>  (1) 
5.29749537

$$$$
