
     RDKit          3D

 48 52  0  0  0  0  0  0  0  0999 V2000
   44.4020   35.4680   42.0630 C   0  0  0  0  0  0  0  0  0  0  0  0
   44.4670   34.1040   41.7140 C   0  0  0  0  0  0  0  0  0  0  0  0
   44.8010   33.2270   42.7250 C   0  0  0  0  0  0  0  0  0  0  0  0
   45.0460   33.7000   43.9860 N   0  0  0  0  0  0  0  0  0  0  0  0
   44.9700   34.9930   44.2580 C   0  0  0  0  0  0  0  0  0  0  0  0
   44.6540   35.8680   43.3180 N   0  0  0  0  0  0  0  0  0  0  0  0
   44.8710   31.8380   42.3830 N   0  0  0  0  0  0  0  0  0  0  0  0
   46.0960   31.3150   42.0800 C   0  0  0  0  0  0  0  0  0  0  0  0
   46.1550   29.9870   41.7530 C   0  0  0  0  0  0  0  0  0  0  0  0
   45.0200   29.1790   41.7230 C   0  0  0  0  0  0  0  0  0  0  0  0
   45.1660   27.9720   41.4120 O   0  0  0  0  0  0  0  0  0  0  0  0
   43.8260   29.7390   42.0300 N   0  0  0  0  0  0  0  0  0  0  0  0
   43.7830   31.0390   42.3480 C   0  0  0  0  0  0  0  0  0  0  0  0
   42.6670   31.5200   42.6240 O   0  0  0  0  0  0  0  0  0  0  0  0
   47.5110   29.4260   41.4230 C   0  0  0  0  0  0  0  0  0  0  0  0
   44.1890   33.7670   40.3760 N   0  0  0  0  0  0  0  0  0  0  0  0
   45.1460   33.4730   39.5620 N   0  0  0  0  0  0  0  0  0  0  0  0
   44.6390   33.1880   38.3470 C   0  0  0  0  0  0  0  0  0  0  0  0
   43.2680   33.3370   38.4980 C   0  0  0  0  0  0  0  0  0  0  0  0
   42.9840   33.7120   39.8150 C   0  0  0  0  0  0  0  0  0  0  0  0
   41.6650   33.9730   40.3990 C   0  0  0  0  0  0  0  0  0  0  0  0
   41.5160   34.4230   41.5690 O   0  0  0  0  0  0  0  0  0  0  0  0
   40.5670   33.6570   39.4880 C   0  0  0  0  0  0  0  0  0  0  0  0
   40.1120   34.6640   38.6290 C   0  0  0  0  0  0  0  0  0  0  0  0
   39.0720   34.4710   37.7150 C   0  0  0  0  0  0  0  0  0  0  0  0
   38.4730   33.2310   37.6600 C   0  0  0  0  0  0  0  0  0  0  0  0
   38.9070   32.2500   38.4870 C   0  0  0  0  0  0  0  0  0  0  0  0
   38.2900   31.0000   38.4240 C   0  0  0  0  0  0  0  0  0  0  0  0
   38.7120   29.9650   39.2650 C   0  0  0  0  0  0  0  0  0  0  0  0
   39.7470   30.1900   40.1620 C   0  0  0  0  0  0  0  0  0  0  0  0
   40.3330   31.4380   40.1980 C   0  0  0  0  0  0  0  0  0  0  0  0
   39.9260   32.4430   39.3830 C   0  0  0  0  0  0  0  0  0  0  0  0
   44.1415   36.2132   41.2970 H   0  0  0  0  0  0  0  0  0  0  0  0
   45.1725   35.3449   45.2803 H   0  0  0  0  0  0  0  0  0  0  0  0
   47.0022   31.9383   42.0981 H   0  0  0  0  0  0  0  0  0  0  0  0
   42.9648   29.1741   42.0191 H   0  0  0  0  0  0  0  0  0  0  0  0
   48.0518   29.2023   42.3544 H   0  0  0  0  0  0  0  0  0  0  0  0
   47.3931   28.5028   40.8366 H   0  0  0  0  0  0  0  0  0  0  0  0
   48.0798   30.1627   40.8366 H   0  0  0  0  0  0  0  0  0  0  0  0
   45.1889   32.9013   37.4385 H   0  0  0  0  0  0  0  0  0  0  0  0
   42.5208   33.1840   37.7054 H   0  0  0  0  0  0  0  0  0  0  0  0
   40.5944   35.6515   38.6752 H   0  0  0  0  0  0  0  0  0  0  0  0
   38.7404   35.2876   37.0568 H   0  0  0  0  0  0  0  0  0  0  0  0
   37.6522   33.0403   36.9529 H   0  0  0  0  0  0  0  0  0  0  0  0
   37.4699   30.8282   37.7113 H   0  0  0  0  0  0  0  0  0  0  0  0
   38.2267   28.9791   39.2158 H   0  0  0  0  0  0  0  0  0  0  0  0
   40.0932   29.3885   40.8312 H   0  0  0  0  0  0  0  0  0  0  0  0
   41.1531   31.6235   40.9072 H   0  0  0  0  0  0  0  0  0  0  0  0
  1  6  2  0
  2  1  1  0
  2  3  2  0
  3  4  1  0
  4  5  2  0
  6  5  1  0
  7  3  1  0
  8  7  1  0
  9  8  2  0
 10  9  1  0
 10 12  1  0
 11 10  2  0
 12 13  1  0
 13  7  1  0
 13 14  2  0
 15  9  1  0
 16  2  1  0
 17 16  1  0
 18 19  1  0
 18 17  2  0
 19 20  2  0
 20 16  1  0
 20 21  1  0
 21 22  2  0
 23 21  1  0
 24 23  2  0
 25 24  1  0
 26 25  2  0
 26 27  1  0
 27 32  2  0
 28 27  1  0
 28 29  2  0
 29 30  1  0
 30 31  2  0
 32 23  1  0
 32 31  1  0
  1 33  1  0
  5 34  1  0
  8 35  1  0
 12 36  1  0
 15 37  1  0
 15 38  1  0
 15 39  1  0
 18 40  1  0
 19 41  1  0
 24 42  1  0
 25 43  1  0
 26 44  1  0
 28 45  1  0
 29 46  1  0
 30 47  1  0
 31 48  1  0
M  ISO  8  33  14  34  14  35  14  36   9  37   8  38   8  39   8  40  14
M  ISO  8  41  14  42  14  43  14  44  14  45  14  46  14  47  14  48  14
M  END
>  <minimizedAffinity>  (1) 
-5.79284477

>  <minimizedRMSD>  (1) 
4.22291851

$$$$
