
     RDKit          3D

 37 40  0  0  0  0  0  0  0  0999 V2000
   42.7200   35.4510   41.4230 C   0  0  0  0  0  0  0  0  0  0  0  0
   42.5190   34.3840   40.5390 C   0  0  0  0  0  0  0  0  0  0  0  0
   43.3320   33.2860   40.6750 C   0  0  0  0  0  0  0  0  0  0  0  0
   44.2950   33.2770   41.6590 N   0  0  0  0  0  0  0  0  0  0  0  0
   44.4460   34.3130   42.4730 C   0  0  0  0  0  0  0  0  0  0  0  0
   43.6720   35.3870   42.3610 N   0  0  0  0  0  0  0  0  0  0  0  0
   43.1330   32.1930   39.7770 N   0  0  0  0  0  0  0  0  0  0  0  0
   43.6310   32.3040   38.5110 C   0  0  0  0  0  0  0  0  0  0  0  0
   43.4220   31.2330   37.6670 C   0  0  0  0  0  0  0  0  0  0  0  0
   42.7450   30.0870   38.0560 C   0  0  0  0  0  0  0  0  0  0  0  0
   42.6140   29.1790   37.2080 O   0  0  0  0  0  0  0  0  0  0  0  0
   42.2770   30.0330   39.3120 N   0  0  0  0  0  0  0  0  0  0  0  0
   42.4720   31.0710   40.1470 C   0  0  0  0  0  0  0  0  0  0  0  0
   42.0150   30.9640   41.3060 O   0  0  0  0  0  0  0  0  0  0  0  0
   43.9790   31.3740   36.2730 C   0  0  0  0  0  0  0  0  0  0  0  0
   41.4960   34.5250   39.5780 N   0  0  0  0  0  0  0  0  0  0  0  0
   41.7010   35.1500   38.4650 N   0  0  0  0  0  0  0  0  0  0  0  0
   40.5820   35.1550   37.7130 C   0  0  0  0  0  0  0  0  0  0  0  0
   39.6560   34.4630   38.4850 C   0  0  0  0  0  0  0  0  0  0  0  0
   40.2470   34.0610   39.6810 C   0  0  0  0  0  0  0  0  0  0  0  0
   39.6210   33.3140   40.7590 C   0  0  0  0  0  0  0  0  0  0  0  0
   39.6420   33.6710   41.9650 O   0  0  0  0  0  0  0  0  0  0  0  0
   38.9170   32.0700   40.4590 C   0  0  0  0  0  0  0  0  0  0  0  0
   37.9180   31.5240   41.1700 N   0  0  0  0  0  0  0  0  0  0  0  0
   37.5100   30.4180   40.6370 O   0  0  0  0  0  0  0  0  0  0  0  0
   38.2650   30.2500   39.5550 C   0  0  0  0  0  0  0  0  0  0  0  0
   39.1450   31.2520   39.4160 N   0  0  0  0  0  0  0  0  0  0  0  0
   42.0900   36.3494   41.3457 H   0  0  0  0  0  0  0  0  0  0  0  0
   45.2226   34.2827   43.2514 H   0  0  0  0  0  0  0  0  0  0  0  0
   44.1721   33.2028   38.1802 H   0  0  0  0  0  0  0  0  0  0  0  0
   41.7689   29.1982   39.6373 H   0  0  0  0  0  0  0  0  0  0  0  0
   45.0440   31.6436   36.3292 H   0  0  0  0  0  0  0  0  0  0  0  0
   43.8701   30.4200   35.7364 H   0  0  0  0  0  0  0  0  0  0  0  0
   43.4293   32.1613   35.7364 H   0  0  0  0  0  0  0  0  0  0  0  0
   40.4357   35.6028   36.7190 H   0  0  0  0  0  0  0  0  0  0  0  0
   38.6138   34.2630   38.1954 H   0  0  0  0  0  0  0  0  0  0  0  0
   38.1786   29.3989   38.8635 H   0  0  0  0  0  0  0  0  0  0  0  0
  1  6  2  0
  2  3  2  0
  2  1  1  0
  3  4  1  0
  4  5  2  0
  6  5  1  0
  7 13  1  0
  7  3  1  0
  8  7  1  0
  9 10  1  0
  9  8  2  0
 10 12  1  0
 11 10  2  0
 12 13  1  0
 13 14  2  0
 15  9  1  0
 16 20  1  0
 16  2  1  0
 17 16  1  0
 18 17  2  0
 18 19  1  0
 19 20  2  0
 20 21  1  0
 21 22  2  0
 23 21  1  0
 23 24  2  0
 25 24  1  0
 26 25  1  0
 27 26  2  0
 27 23  1  0
  1 28  1  0
  5 29  1  0
  8 30  1  0
 12 31  1  0
 15 32  1  0
 15 33  1  0
 15 34  1  0
 18 35  1  0
 19 36  1  0
 26 37  1  0
M  ISO  8  28  14  29  14  30  14  31   9  32   8  33   8  34   8  35  14
M  ISO  2  36  14  37  14
M  END
>  <minimizedAffinity>  (1) 
-4.86748266

>  <minimizedRMSD>  (1) 
3.2785697

$$$$
