
     RDKit          3D

 39 42  0  0  0  0  0  0  0  0999 V2000
   44.5000   35.3160   42.2550 C   0  0  0  0  0  0  0  0  0  0  0  0
   44.2930   34.0320   41.7340 C   0  0  0  0  0  0  0  0  0  0  0  0
   44.5840   32.9630   42.5580 C   0  0  0  0  0  0  0  0  0  0  0  0
   45.0540   33.1970   43.8280 N   0  0  0  0  0  0  0  0  0  0  0  0
   45.2320   34.4400   44.2700 C   0  0  0  0  0  0  0  0  0  0  0  0
   44.9590   35.4930   43.4940 N   0  0  0  0  0  0  0  0  0  0  0  0
   44.3780   31.6580   42.0420 N   0  0  0  0  0  0  0  0  0  0  0  0
   45.4490   30.9780   41.5390 C   0  0  0  0  0  0  0  0  0  0  0  0
   45.2290   29.7190   41.0450 C   0  0  0  0  0  0  0  0  0  0  0  0
   43.9760   29.1230   41.0380 C   0  0  0  0  0  0  0  0  0  0  0  0
   43.8720   27.9660   40.5650 O   0  0  0  0  0  0  0  0  0  0  0  0
   42.9480   29.8180   41.5400 N   0  0  0  0  0  0  0  0  0  0  0  0
   43.1490   31.0560   42.0280 C   0  0  0  0  0  0  0  0  0  0  0  0
   42.1670   31.6640   42.4830 O   0  0  0  0  0  0  0  0  0  0  0  0
   46.4350   28.9940   40.4960 C   0  0  0  0  0  0  0  0  0  0  0  0
   43.8080   33.9370   40.4190 N   0  0  0  0  0  0  0  0  0  0  0  0
   44.5640   33.5250   39.4480 N   0  0  0  0  0  0  0  0  0  0  0  0
   43.8860   33.5180   38.2880 C   0  0  0  0  0  0  0  0  0  0  0  0
   42.6140   33.9720   38.6370 C   0  0  0  0  0  0  0  0  0  0  0  0
   42.5670   34.2400   40.0050 C   0  0  0  0  0  0  0  0  0  0  0  0
   41.4390   34.7280   40.7690 C   0  0  0  0  0  0  0  0  0  0  0  0
   41.4850   35.6750   41.5930 O   0  0  0  0  0  0  0  0  0  0  0  0
   40.1200   34.1100   40.6100 C   0  0  0  0  0  0  0  0  0  0  0  0
   39.2360   34.2720   39.5790 C   0  0  0  0  0  0  0  0  0  0  0  0
   38.0990   33.5140   39.8050 C   0  0  0  0  0  0  0  0  0  0  0  0
   38.3270   32.9090   40.9760 N   0  0  0  0  0  0  0  0  0  0  0  0
   39.5240   33.2450   41.4810 N   0  0  0  0  0  0  0  0  0  0  0  0
   44.2797   36.1942   41.6302 H   0  0  0  0  0  0  0  0  0  0  0  0
   45.6098   34.6029   45.2902 H   0  0  0  0  0  0  0  0  0  0  0  0
   46.4540   31.4251   41.5304 H   0  0  0  0  0  0  0  0  0  0  0  0
   42.0042   29.4057   41.5528 H   0  0  0  0  0  0  0  0  0  0  0  0
   47.0508   28.6238   41.3289 H   0  0  0  0  0  0  0  0  0  0  0  0
   46.1035   28.1454   39.8796 H   0  0  0  0  0  0  0  0  0  0  0  0
   47.0290   29.6849   39.8796 H   0  0  0  0  0  0  0  0  0  0  0  0
   44.2499   33.2225   37.2929 H   0  0  0  0  0  0  0  0  0  0  0  0
   41.7741   34.0995   37.9382 H   0  0  0  0  0  0  0  0  0  0  0  0
   39.4035   34.9107   38.6992 H   0  0  0  0  0  0  0  0  0  0  0  0
   37.2084   33.4287   39.1651 H   0  0  0  0  0  0  0  0  0  0  0  0
   37.6658   32.2651   41.4333 H   0  0  0  0  0  0  0  0  0  0  0  0
  1  6  2  0
  2  1  1  0
  2  3  2  0
  3  4  1  0
  4  5  2  0
  6  5  1  0
  7  3  1  0
  8  7  1  0
  9  8  2  0
 10  9  1  0
 10 12  1  0
 11 10  2  0
 12 13  1  0
 13  7  1  0
 13 14  2  0
 15  9  1  0
 16  2  1  0
 17 16  1  0
 18 19  1  0
 18 17  2  0
 19 20  2  0
 20 16  1  0
 20 21  1  0
 21 22  2  0
 23 21  1  0
 23 27  2  0
 24 25  2  0
 24 23  1  0
 25 26  1  0
 26 27  1  0
  1 28  1  0
  5 29  1  0
  8 30  1  0
 12 31  1  0
 15 32  1  0
 15 33  1  0
 15 34  1  0
 18 35  1  0
 19 36  1  0
 24 37  1  0
 25 38  1  0
 26 39  1  0
M  ISO  8  28  14  29  14  30  14  31   9  32   8  33   8  34   8  35  14
M  ISO  4  36  14  37  14  38  14  39   9
M  END
>  <minimizedAffinity>  (1) 
-5.09399939

>  <minimizedRMSD>  (1) 
3.5311594

$$$$
