
     RDKit          3D

 39 41  0  0  0  0  0  0  0  0999 V2000
   44.0381   34.2513   41.3212 C   0  0  0  0  0  0  0  0  0  0  0  0
   42.8978   33.7440   40.7067 C   0  0  0  0  0  0  0  0  0  0  0  0
   42.4597   32.4939   41.0945 C   0  0  0  0  0  0  0  0  0  0  0  0
   43.1705   31.8181   42.0639 N   0  0  0  0  0  0  0  0  0  0  0  0
   44.2533   32.3501   42.6175 C   0  0  0  0  0  0  0  0  0  0  0  0
   44.6840   33.5463   42.2558 N   0  0  0  0  0  0  0  0  0  0  0  0
   41.2958   31.9706   40.4706 N   0  0  0  0  0  0  0  0  0  0  0  0
   41.4072   31.4292   39.2312 C   0  0  0  0  0  0  0  0  0  0  0  0
   40.2752   30.9322   38.6507 C   0  0  0  0  0  0  0  0  0  0  0  0
   39.0292   30.9622   39.2788 C   0  0  0  0  0  0  0  0  0  0  0  0
   38.0537   30.4805   38.6611 O   0  0  0  0  0  0  0  0  0  0  0  0
   38.9686   31.5079   40.5044 N   0  0  0  0  0  0  0  0  0  0  0  0
   40.0781   31.9962   41.0762 C   0  0  0  0  0  0  0  0  0  0  0  0
   39.9555   32.4921   42.2205 O   0  0  0  0  0  0  0  0  0  0  0  0
   40.4273   30.3354   37.2715 C   0  0  0  0  0  0  0  0  0  0  0  0
   42.2742   34.5528   39.7287 N   0  0  0  0  0  0  0  0  0  0  0  0
   42.6843   34.5473   38.5021 N   0  0  0  0  0  0  0  0  0  0  0  0
   41.9407   35.3909   37.7651 C   0  0  0  0  0  0  0  0  0  0  0  0
   41.0215   35.9264   38.6563 C   0  0  0  0  0  0  0  0  0  0  0  0
   41.2338   35.3857   39.9316 C   0  0  0  0  0  0  0  0  0  0  0  0
   40.5081   35.6636   41.1499 C   0  0  0  0  0  0  0  0  0  0  0  0
   41.0271   35.6752   42.2927 O   0  0  0  0  0  0  0  0  0  0  0  0
   44.4150   35.2429   41.0372 H   0  0  0  0  0  0  0  0  0  0  0  0
   44.7987   31.8055   43.3768 H   0  0  0  0  0  0  0  0  0  0  0  0
   42.3560   31.3980   38.7348 H   0  0  0  0  0  0  0  0  0  0  0  0
   38.0626   31.5433   40.9909 H   0  0  0  0  0  0  0  0  0  0  0  0
   39.4705   30.3692   36.7099 H   0  0  0  0  0  0  0  0  0  0  0  0
   41.2330   30.8336   36.7206 H   0  0  0  0  0  0  0  0  0  0  0  0
   40.7274   29.2714   37.4196 H   0  0  0  0  0  0  0  0  0  0  0  0
   42.0507   35.5913   36.7190 H   0  0  0  0  0  0  0  0  0  0  0  0
   40.2406   36.6592   38.4261 H   0  0  0  0  0  0  0  0  0  0  0  0
   39.1133   35.9502   41.1236 N   0  0  0  0  0  0  0  0  0  0  0  0
   38.4576   36.2868   39.8833 C   0  0  0  0  0  0  0  0  0  0  0  0
   39.1407   36.3289   38.7868 N   0  0  0  0  0  0  0  0  0  0  0  0
   37.0633   36.5684   39.8867 N   0  0  0  0  0  0  0  0  0  0  0  0
   38.5403   35.9207   42.0081 H   0  0  0  0  0  0  0  0  0  0  0  0
   38.6986   36.5717   37.8546 H   0  0  0  0  0  0  0  0  0  0  0  0
   36.0961   36.2005   39.8763 H   0  0  0  0  0  0  0  0  0  0  0  0
   36.6320   35.6157   39.8642 H   0  0  0  0  0  0  0  0  0  0  0  0
  1  6  2  0
  2  3  2  0
  2  1  1  0
  3  4  1  0
  4  5  2  0
  6  5  1  0
  7 13  1  0
  7  3  1  0
  8  7  1  0
  9  8  2  0
  9 10  1  0
 10 12  1  0
 11 10  2  0
 12 13  1  0
 13 14  2  0
 15  9  1  0
 16 20  1  0
 16  2  1  0
 17 16  1  0
 18 17  2  0
 18 19  1  0
 19 20  2  0
 20 21  1  0
 21 22  2  0
  1 23  1  0
  5 24  1  0
  8 25  1  0
 12 26  1  0
 15 27  1  0
 15 28  1  0
 15 29  1  0
 18 30  1  0
 19 31  1  0
 32 33  1  0
 33 34  2  3
 33 35  1  0
 32 36  1  0
 34 37  1  0
 35 38  1  0
 35 39  1  0
 21 32  1  0
M  END
>  <DihAtoms>  (1) 
19,20,31,32

>  <DihDeg>  (1) 
179.99990641279126

$$$$
