
     RDKit          3D

 31 34  0  0  0  0  0  0  0  0999 V2000
   44.3060   34.2620   42.5790 N   0  0  0  0  0  0  0  0  0  0  0  0
   43.5230   33.8540   41.5880 C   0  0  0  0  0  0  0  0  0  0  0  0
   43.0780   34.9810   40.9040 C   0  0  0  0  0  0  0  0  0  0  0  0
   43.5990   36.0450   41.4880 N   0  0  0  0  0  0  0  0  0  0  0  0
   44.3550   35.6180   42.5170 C   0  0  0  0  0  0  0  0  0  0  0  0
   42.1870   34.8480   39.7470 C   0  0  0  0  0  0  0  0  0  0  0  0
   42.4000   35.1380   38.4070 C   0  0  0  0  0  0  0  0  0  0  0  0
   41.2810   34.8500   37.7170 N   0  0  0  0  0  0  0  0  0  0  0  0
   40.3550   34.3850   38.5640 C   0  0  0  0  0  0  0  0  0  0  0  0
   39.0500   33.9610   38.3130 C   0  0  0  0  0  0  0  0  0  0  0  0
   38.3580   33.5360   39.4320 C   0  0  0  0  0  0  0  0  0  0  0  0
   38.7970   33.4840   40.7310 C   0  0  0  0  0  0  0  0  0  0  0  0
   40.1120   33.9240   40.9100 C   0  0  0  0  0  0  0  0  0  0  0  0
   40.8790   34.3670   39.8430 C   0  0  0  0  0  0  0  0  0  0  0  0
   45.3420   34.1740   44.7220 C   0  0  0  0  0  0  0  0  0  0  0  0
   44.9870   33.4810   43.5410 C   0  0  0  0  0  0  0  0  0  0  0  0
   45.3260   32.1420   43.4340 C   0  0  0  0  0  0  0  0  0  0  0  0
   45.9830   31.5570   44.4690 N   0  0  0  0  0  0  0  0  0  0  0  0
   46.3090   32.2520   45.5900 C   0  0  0  0  0  0  0  0  0  0  0  0
   45.9870   33.5490   45.7090 N   0  0  0  0  0  0  0  0  0  0  0  0
   43.2707   32.8102   41.3497 H   0  0  0  0  0  0  0  0  0  0  0  0
   44.9234   36.2659   43.2005 H   0  0  0  0  0  0  0  0  0  0  0  0
   43.3310   35.5378   37.9788 H   0  0  0  0  0  0  0  0  0  0  0  0
   41.1573   34.9683   36.7013 H   0  0  0  0  0  0  0  0  0  0  0  0
   38.6072   33.9645   37.3061 H   0  0  0  0  0  0  0  0  0  0  0  0
   37.3259   33.1970   39.2592 H   0  0  0  0  0  0  0  0  0  0  0  0
   38.1685   33.1269   41.5601 H   0  0  0  0  0  0  0  0  0  0  0  0
   40.5480   33.9186   41.9199 H   0  0  0  0  0  0  0  0  0  0  0  0
   45.0840   35.2381   44.8278 H   0  0  0  0  0  0  0  0  0  0  0  0
   45.0693   31.5664   42.5325 H   0  0  0  0  0  0  0  0  0  0  0  0
   46.8424   31.7462   46.4083 H   0  0  0  0  0  0  0  0  0  0  0  0
  1 16  1  0
  2  1  1  0
  3  4  1  0
  3  2  2  0
  4  5  2  0
  5  1  1  0
  6 14  1  0
  6  3  1  0
  7  6  2  0
  8  7  1  0
  8  9  1  0
  9 14  2  0
 10  9  1  0
 10 11  2  0
 11 12  1  0
 12 13  2  0
 14 13  1  0
 15 20  2  0
 16 15  1  0
 17 16  2  0
 17 18  1  0
 18 19  2  0
 19 20  1  0
  2 21  1  0
  5 22  1  0
  7 23  1  0
  8 24  1  0
 10 25  1  0
 11 26  1  0
 12 27  1  0
 13 28  1  0
 15 29  1  0
 17 30  1  0
 19 31  1  0
M  ISO  8  21  14  22  14  23  14  24   9  25  14  26  14  27  14  28  14
M  ISO  3  29  14  30  14  31  14
M  END
>  <minimizedAffinity>  (1) 
-5.86647892

>  <minimizedRMSD>  (1) 
4.26751471

$$$$
