
     RDKit          3D

 31 34  0  0  0  0  0  0  0  0999 V2000
   46.2510   33.3630   45.4200 N   0  0  0  0  0  0  0  0  0  0  0  0
   47.1170   33.2870   44.4080 C   0  0  0  0  0  0  0  0  0  0  0  0
   46.7440   34.1830   43.4170 C   0  0  0  0  0  0  0  0  0  0  0  0
   45.6380   34.8000   43.8490 N   0  0  0  0  0  0  0  0  0  0  0  0
   45.3390   34.2990   45.0670 C   0  0  0  0  0  0  0  0  0  0  0  0
   47.3520   34.4590   42.1620 N   0  0  0  0  0  0  0  0  0  0  0  0
   48.4210   35.2680   41.9620 C   0  0  0  0  0  0  0  0  0  0  0  0
   48.7560   35.3220   40.6740 N   0  0  0  0  0  0  0  0  0  0  0  0
   47.9050   34.5420   39.9940 C   0  0  0  0  0  0  0  0  0  0  0  0
   47.8240   34.2610   38.6520 C   0  0  0  0  0  0  0  0  0  0  0  0
   48.6450   34.7810   37.8710 O   0  0  0  0  0  0  0  0  0  0  0  0
   46.8320   33.4200   38.2830 N   0  0  0  0  0  0  0  0  0  0  0  0
   45.9700   32.8900   39.1910 C   0  0  0  0  0  0  0  0  0  0  0  0
   44.9950   32.0250   38.5880 N   0  0  0  0  0  0  0  0  0  0  0  0
   46.0860   33.1940   40.5050 N   0  0  0  0  0  0  0  0  0  0  0  0
   47.0410   34.0150   40.9300 C   0  0  0  0  0  0  0  0  0  0  0  0
   47.2140   31.6510   46.7890 C   0  0  0  0  0  0  0  0  0  0  0  0
   46.2190   32.6510   46.6370 C   0  0  0  0  0  0  0  0  0  0  0  0
   45.3030   32.8620   47.6650 C   0  0  0  0  0  0  0  0  0  0  0  0
   45.4130   32.0870   48.7760 N   0  0  0  0  0  0  0  0  0  0  0  0
   46.3760   31.1330   48.8990 C   0  0  0  0  0  0  0  0  0  0  0  0
   47.2770   30.9170   47.9020 N   0  0  0  0  0  0  0  0  0  0  0  0
   47.9897   32.6187   44.3661 H   0  0  0  0  0  0  0  0  0  0  0  0
   44.4803   34.6064   45.6820 H   0  0  0  0  0  0  0  0  0  0  0  0
   48.9454   35.8111   42.7620 H   0  0  0  0  0  0  0  0  0  0  0  0
   46.7265   33.1744   37.2883 H   0  0  0  0  0  0  0  0  0  0  0  0
   44.2851   31.5621   39.1734 H   0  0  0  0  0  0  0  0  0  0  0  0
   45.0056   31.8675   37.5702 H   0  0  0  0  0  0  0  0  0  0  0  0
   47.9408   31.4789   45.9814 H   0  0  0  0  0  0  0  0  0  0  0  0
   44.5186   33.6285   47.5806 H   0  0  0  0  0  0  0  0  0  0  0  0
   46.4268   30.5284   49.8166 H   0  0  0  0  0  0  0  0  0  0  0  0
  1 18  1  0
  2  1  1  0
  3  4  1  0
  3  2  2  0
  4  5  2  0
  5  1  1  0
  6  3  1  0
  7  6  1  0
  8  7  2  0
  9  8  1  0
  9 16  2  0
 10  9  1  0
 11 10  2  0
 12 10  1  0
 12 13  1  0
 13 15  2  0
 14 13  1  0
 15 16  1  0
 16  6  1  0
 17 22  2  0
 18 17  1  0
 18 19  2  0
 19 20  1  0
 20 21  2  0
 22 21  1  0
  2 23  1  0
  5 24  1  0
  7 25  1  0
 12 26  1  0
 14 27  1  0
 14 28  1  0
 17 29  1  0
 19 30  1  0
 21 31  1  0
M  ISO  7  23  14  24  14  25  14  26   9  29  14  30  14  31  14
M  END
>  <minimizedAffinity>  (1) 
-5.76478291

>  <minimizedRMSD>  (1) 
5.76474237

$$$$
