
     RDKit          3D

 27 29  0  0  0  0  0  0  0  0999 V2000
   46.2590   33.1870   45.6340 N   0  0  0  0  0  0  0  0  0  0  0  0
   46.9720   33.0910   44.5150 C   0  0  0  0  0  0  0  0  0  0  0  0
   46.5170   34.0570   43.6310 C   0  0  0  0  0  0  0  0  0  0  0  0
   45.5300   34.7300   44.2230 N   0  0  0  0  0  0  0  0  0  0  0  0
   45.3650   34.1990   45.4590 C   0  0  0  0  0  0  0  0  0  0  0  0
   45.2990   32.6520   47.7730 C   0  0  0  0  0  0  0  0  0  0  0  0
   46.3290   32.4400   46.8270 C   0  0  0  0  0  0  0  0  0  0  0  0
   47.3460   31.5160   47.1190 C   0  0  0  0  0  0  0  0  0  0  0  0
   47.2720   30.8710   48.3200 N   0  0  0  0  0  0  0  0  0  0  0  0
   46.2750   31.1010   49.1930 C   0  0  0  0  0  0  0  0  0  0  0  0
   45.2870   31.9910   48.9240 N   0  0  0  0  0  0  0  0  0  0  0  0
   47.0370   34.2650   42.3240 N   0  0  0  0  0  0  0  0  0  0  0  0
   48.1680   34.9610   42.1310 C   0  0  0  0  0  0  0  0  0  0  0  0
   48.6700   35.1620   40.8680 C   0  0  0  0  0  0  0  0  0  0  0  0
   48.0100   34.6430   39.7610 C   0  0  0  0  0  0  0  0  0  0  0  0
   48.3280   34.7320   38.5540 O   0  0  0  0  0  0  0  0  0  0  0  0
   46.8630   33.9370   39.9660 N   0  0  0  0  0  0  0  0  0  0  0  0
   46.4130   33.7700   41.2420 C   0  0  0  0  0  0  0  0  0  0  0  0
   45.3480   33.1130   41.4080 O   0  0  0  0  0  0  0  0  0  0  0  0
   47.7813   32.3708   44.3245 H   0  0  0  0  0  0  0  0  0  0  0  0
   44.6262   34.5326   46.2026 H   0  0  0  0  0  0  0  0  0  0  0  0
   44.4984   33.3733   47.5522 H   0  0  0  0  0  0  0  0  0  0  0  0
   48.1654   31.3209   46.4116 H   0  0  0  0  0  0  0  0  0  0  0  0
   46.2603   30.5546   50.1476 H   0  0  0  0  0  0  0  0  0  0  0  0
   48.7018   35.3773   42.9980 H   0  0  0  0  0  0  0  0  0  0  0  0
   49.5984   35.7363   40.7326 H   0  0  0  0  0  0  0  0  0  0  0  0
   46.3449   33.5365   39.1710 H   0  0  0  0  0  0  0  0  0  0  0  0
  1  7  1  0
  2  1  1  0
  3  4  1  0
  3  2  2  0
  4  5  2  0
  5  1  1  0
  6 11  2  0
  7  8  2  0
  7  6  1  0
  8  9  1  0
  9 10  2  0
 11 10  1  0
 12  3  1  0
 13 12  1  0
 14 13  2  0
 15 17  1  0
 15 14  1  0
 16 15  2  0
 17 18  1  0
 18 19  2  0
 18 12  1  0
  2 20  1  0
  5 21  1  0
  6 22  1  0
  8 23  1  0
 10 24  1  0
 13 25  1  0
 14 26  1  0
 17 27  1  0
M  ISO  8  20  14  21  14  22  14  23  14  24  14  25  14  26  14  27   9
M  END
>  <minimizedAffinity>  (1) 
-5.44939041

>  <minimizedRMSD>  (1) 
5.71976376

$$$$
