
     RDKit          3D

 24 26  0  0  0  0  0  0  0  0999 V2000
   46.7520   31.9570   47.5810 N   0  0  0  0  0  0  0  0  0  0  0  0
   46.6780   32.7080   46.4860 C   0  0  0  0  0  0  0  0  0  0  0  0
   45.5250   33.4750   46.5500 C   0  0  0  0  0  0  0  0  0  0  0  0
   44.9190   33.1750   47.6840 N   0  0  0  0  0  0  0  0  0  0  0  0
   45.6610   32.2470   48.3240 C   0  0  0  0  0  0  0  0  0  0  0  0
   48.5350   31.3870   49.0770 C   0  0  0  0  0  0  0  0  0  0  0  0
   47.7370   31.0230   47.9640 C   0  0  0  0  0  0  0  0  0  0  0  0
   47.9720   29.7950   47.3370 C   0  0  0  0  0  0  0  0  0  0  0  0
   48.9660   29.0120   47.8400 N   0  0  0  0  0  0  0  0  0  0  0  0
   49.7070   29.3880   48.8980 C   0  0  0  0  0  0  0  0  0  0  0  0
   49.4940   30.5660   49.5140 N   0  0  0  0  0  0  0  0  0  0  0  0
   45.2570   34.3580   45.4580 N   0  0  0  0  0  0  0  0  0  0  0  0
   44.6830   35.5520   45.4200 N   0  0  0  0  0  0  0  0  0  0  0  0
   44.6590   35.9950   44.1380 C   0  0  0  0  0  0  0  0  0  0  0  0
   45.2540   35.0020   43.3790 C   0  0  0  0  0  0  0  0  0  0  0  0
   45.6290   33.9690   44.2350 C   0  0  0  0  0  0  0  0  0  0  0  0
   47.4104   32.7188   45.6654 H   0  0  0  0  0  0  0  0  0  0  0  0
   45.4162   31.7973   49.2976 H   0  0  0  0  0  0  0  0  0  0  0  0
   48.3642   32.3488   49.5828 H   0  0  0  0  0  0  0  0  0  0  0  0
   47.3761   29.4738   46.4700 H   0  0  0  0  0  0  0  0  0  0  0  0
   50.5007   28.7213   49.2662 H   0  0  0  0  0  0  0  0  0  0  0  0
   44.2498   36.9495   43.7753 H   0  0  0  0  0  0  0  0  0  0  0  0
   45.4045   35.0247   42.2896 H   0  0  0  0  0  0  0  0  0  0  0  0
   46.1281   33.0278   43.9609 H   0  0  0  0  0  0  0  0  0  0  0  0
  1  7  1  0
  1  5  1  0
  2  3  2  0
  2  1  1  0
  3  4  1  0
  4  5  2  0
  6 11  2  0
  7  6  1  0
  8  9  1  0
  8  7  2  0
  9 10  2  0
 10 11  1  0
 12  3  1  0
 13 12  1  0
 14 13  2  0
 15 14  1  0
 15 16  2  0
 16 12  1  0
  2 17  1  0
  5 18  1  0
  6 19  1  0
  8 20  1  0
 10 21  1  0
 14 22  1  0
 15 23  1  0
 16 24  1  0
M  ISO  8  17  14  18  14  19  14  20  14  21  14  22  14  23  14  24  14
M  END
>  <minimizedAffinity>  (1) 
-4.61124516

>  <minimizedRMSD>  (1) 
7.74544525

$$$$
