
     RDKit          3D

 23 25  0  0  0  0  0  0  0  0999 V2000
   45.5660   32.7080   44.1600 N   0  0  0  0  0  0  0  0  0  0  0  0
   46.2850   32.7410   45.2610 C   0  0  0  0  0  0  0  0  0  0  0  0
   46.6100   31.4650   45.6790 C   0  0  0  0  0  0  0  0  0  0  0  0
   46.0660   30.6490   44.7970 N   0  0  0  0  0  0  0  0  0  0  0  0
   45.4230   31.3840   43.8580 C   0  0  0  0  0  0  0  0  0  0  0  0
   44.2140   33.3460   42.2980 C   0  0  0  0  0  0  0  0  0  0  0  0
   45.0190   33.7360   43.3860 C   0  0  0  0  0  0  0  0  0  0  0  0
   45.2160   35.1000   43.6230 C   0  0  0  0  0  0  0  0  0  0  0  0
   44.6080   35.9810   42.7710 N   0  0  0  0  0  0  0  0  0  0  0  0
   43.8460   35.5810   41.7420 C   0  0  0  0  0  0  0  0  0  0  0  0
   43.6500   34.2540   41.5070 N   0  0  0  0  0  0  0  0  0  0  0  0
   47.4090   31.1290   46.8820 C   0  0  0  0  0  0  0  0  0  0  0  0
   47.5100   32.0830   47.9550 C   0  0  0  0  0  0  0  0  0  0  0  0
   48.5560   31.2420   49.1600 S   0  0  0  0  0  0  0  0  0  0  0  0
   48.7070   29.7160   48.0340 C   0  0  0  0  0  0  0  0  0  0  0  0
   48.0850   30.0060   47.1250 N   0  0  0  0  0  0  0  0  0  0  0  0
   46.5874   33.6625   45.7801 H   0  0  0  0  0  0  0  0  0  0  0  0
   44.8753   30.9803   42.9937 H   0  0  0  0  0  0  0  0  0  0  0  0
   44.0497   32.2765   42.1001 H   0  0  0  0  0  0  0  0  0  0  0  0
   45.8355   35.4508   44.4615 H   0  0  0  0  0  0  0  0  0  0  0  0
   43.3773   36.3284   41.0849 H   0  0  0  0  0  0  0  0  0  0  0  0
   47.0583   33.0836   48.0236 H   0  0  0  0  0  0  0  0  0  0  0  0
   49.2596   28.7825   48.2162 H   0  0  0  0  0  0  0  0  0  0  0  0
  1  2  1  0
  2  3  2  0
  3 12  1  0
  4  3  1  0
  5  1  1  0
  5  4  2  0
  6  7  2  0
  7  8  1  0
  7  1  1  0
  9  8  2  0
 10  9  1  0
 11 10  2  0
 11  6  1  0
 12 16  1  0
 12 13  2  0
 13 14  1  0
 15 14  1  0
 16 15  2  0
  2 17  1  0
  5 18  1  0
  6 19  1  0
  8 20  1  0
 10 21  1  0
 13 22  1  0
 15 23  1  0
M  ISO  7  17  14  18  14  19  14  20  14  21  14  22  14  23  14
M  END
>  <minimizedAffinity>  (1) 
-3.71980834

>  <minimizedRMSD>  (1) 
7.81753731

$$$$
