
     RDKit          3D

 23 25  0  0  0  0  0  0  0  0999 V2000
   46.3530   33.1130   45.6080 N   0  0  0  0  0  0  0  0  0  0  0  0
   47.1870   33.1140   44.5780 C   0  0  0  0  0  0  0  0  0  0  0  0
   46.7700   34.0710   43.6590 C   0  0  0  0  0  0  0  0  0  0  0  0
   45.6710   34.6490   44.1520 N   0  0  0  0  0  0  0  0  0  0  0  0
   45.4130   34.0660   45.3450 C   0  0  0  0  0  0  0  0  0  0  0  0
   45.3760   32.6510   47.7430 C   0  0  0  0  0  0  0  0  0  0  0  0
   46.3690   32.3280   46.7660 C   0  0  0  0  0  0  0  0  0  0  0  0
   47.2420   31.2900   47.0400 C   0  0  0  0  0  0  0  0  0  0  0  0
   47.1140   30.6250   48.2280 N   0  0  0  0  0  0  0  0  0  0  0  0
   46.1570   30.9610   49.1320 C   0  0  0  0  0  0  0  0  0  0  0  0
   45.2860   31.9770   48.8880 N   0  0  0  0  0  0  0  0  0  0  0  0
   47.3380   34.4390   42.4060 N   0  0  0  0  0  0  0  0  0  0  0  0
   46.7970   33.9220   41.2800 C   0  0  0  0  0  0  0  0  0  0  0  0
   47.5050   34.4170   40.2290 N   0  0  0  0  0  0  0  0  0  0  0  0
   48.4650   35.2240   40.7040 C   0  0  0  0  0  0  0  0  0  0  0  0
   48.3450   35.2230   42.0380 N   0  0  0  0  0  0  0  0  0  0  0  0
   48.0669   32.4631   44.4678 H   0  0  0  0  0  0  0  0  0  0  0  0
   44.5709   34.3221   46.0047 H   0  0  0  0  0  0  0  0  0  0  0  0
   44.6722   33.4728   47.5447 H   0  0  0  0  0  0  0  0  0  0  0  0
   48.0218   31.0060   46.3180 H   0  0  0  0  0  0  0  0  0  0  0  0
   46.0853   30.4022   50.0768 H   0  0  0  0  0  0  0  0  0  0  0  0
   45.9436   33.2302   41.2241 H   0  0  0  0  0  0  0  0  0  0  0  0
   49.2076   35.7795   40.1123 H   0  0  0  0  0  0  0  0  0  0  0  0
  1  7  1  0
  2  1  1  0
  3  4  1  0
  3  2  2  0
  4  5  2  0
  5  1  1  0
  6 11  2  0
  7  8  2  0
  7  6  1  0
  8  9  1  0
  9 10  2  0
 11 10  1  0
 12  3  1  0
 13 12  1  0
 14 15  1  0
 14 13  2  0
 15 16  2  0
 16 12  1  0
  2 17  1  0
  5 18  1  0
  6 19  1  0
  8 20  1  0
 10 21  1  0
 13 22  1  0
 15 23  1  0
M  ISO  7  17  14  18  14  19  14  20  14  21  14  22  14  23  14
M  END
>  <minimizedAffinity>  (1) 
-4.5456624

>  <minimizedRMSD>  (1) 
5.70036316

$$$$
