
     RDKit          3D

 26 27  0  0  0  0  0  0  0  0999 V2000
   43.5220   34.3130   41.4340 N   0  0  0  0  0  0  0  0  0  0  0  0
   42.9400   33.3740   40.6960 C   0  0  0  0  0  0  0  0  0  0  0  0
   42.3650   33.9890   39.5890 C   0  0  0  0  0  0  0  0  0  0  0  0
   42.6060   35.2830   39.6720 N   0  0  0  0  0  0  0  0  0  0  0  0
   43.3200   35.4890   40.8120 C   0  0  0  0  0  0  0  0  0  0  0  0
   44.2960   35.3110   43.4470 C   0  0  0  0  0  0  0  0  0  0  0  0
   44.2240   34.1550   42.6430 C   0  0  0  0  0  0  0  0  0  0  0  0
   44.8420   32.9910   43.1080 C   0  0  0  0  0  0  0  0  0  0  0  0
   45.4740   33.0480   44.3110 N   0  0  0  0  0  0  0  0  0  0  0  0
   45.5230   34.1720   45.0520 C   0  0  0  0  0  0  0  0  0  0  0  0
   44.9280   35.3180   44.6200 N   0  0  0  0  0  0  0  0  0  0  0  0
   41.6250   33.2000   38.5520 C   0  0  0  0  0  0  0  0  0  0  0  0
   40.4130   33.9640   38.0610 C   0  0  0  0  0  0  0  0  0  0  0  0
   41.1630   31.8590   39.1210 C   0  0  0  0  0  0  0  0  0  0  0  0
   42.9169   32.2976   40.9213 H   0  0  0  0  0  0  0  0  0  0  0  0
   43.6769   36.4660   41.1698 H   0  0  0  0  0  0  0  0  0  0  0  0
   43.8155   36.2358   43.0950 H   0  0  0  0  0  0  0  0  0  0  0  0
   44.8181   32.0608   42.5213 H   0  0  0  0  0  0  0  0  0  0  0  0
   46.0500   34.1639   46.0175 H   0  0  0  0  0  0  0  0  0  0  0  0
   42.3149   33.0260   37.7131 H   0  0  0  0  0  0  0  0  0  0  0  0
   39.8351   34.3283   38.9232 H   0  0  0  0  0  0  0  0  0  0  0  0
   40.7407   34.8191   37.4516 H   0  0  0  0  0  0  0  0  0  0  0  0
   39.7828   33.2995   37.4516 H   0  0  0  0  0  0  0  0  0  0  0  0
   41.1779   31.9023   40.2200 H   0  0  0  0  0  0  0  0  0  0  0  0
   40.1401   31.6473   38.7763 H   0  0  0  0  0  0  0  0  0  0  0  0
   41.8384   31.0622   38.7763 H   0  0  0  0  0  0  0  0  0  0  0  0
  1  7  1  0
  2  1  1  0
  3  4  1  0
  3  2  2  0
  4  5  2  0
  5  1  1  0
  6 11  2  0
  7  8  2  0
  7  6  1  0
  8  9  1  0
  9 10  2  0
 11 10  1  0
 12 14  1  0
 12  3  1  0
 13 12  1  0
  2 15  1  0
  5 16  1  0
  6 17  1  0
  8 18  1  0
 10 19  1  0
 12 20  1  0
 13 21  1  0
 13 22  1  0
 13 23  1  0
 14 24  1  0
 14 25  1  0
 14 26  1  0
M  ISO  8  15  14  16  14  17  14  18  14  19  14  20   8  21   8  22   8
M  ISO  4  23   8  24   8  25   8  26   8
M  END
>  <minimizedAffinity>  (1) 
-3.59233999

>  <minimizedRMSD>  (1) 
1.14516222

$$$$
