
     RDKit          3D

 27 29  0  0  0  0  0  0  0  0999 V2000
   46.0600   31.3950   46.2200 N   0  0  0  0  0  0  0  0  0  0  0  0
   46.3700   31.8090   45.0020 C   0  0  0  0  0  0  0  0  0  0  0  0
   46.3610   33.1880   44.9540 C   0  0  0  0  0  0  0  0  0  0  0  0
   46.0390   33.6090   46.1760 N   0  0  0  0  0  0  0  0  0  0  0  0
   45.8580   32.5210   46.9410 C   0  0  0  0  0  0  0  0  0  0  0  0
   46.9940   29.2070   46.3260 C   0  0  0  0  0  0  0  0  0  0  0  0
   45.9520   30.0940   46.7170 C   0  0  0  0  0  0  0  0  0  0  0  0
   44.9480   29.6080   47.5310 C   0  0  0  0  0  0  0  0  0  0  0  0
   45.0140   28.3010   47.9160 N   0  0  0  0  0  0  0  0  0  0  0  0
   45.9950   27.4790   47.5430 C   0  0  0  0  0  0  0  0  0  0  0  0
   46.9640   27.9450   46.7580 N   0  0  0  0  0  0  0  0  0  0  0  0
   46.6450   34.0270   43.8040 C   0  0  0  0  0  0  0  0  0  0  0  0
   45.6980   34.7190   43.0600 C   0  0  0  0  0  0  0  0  0  0  0  0
   46.4380   35.3760   42.0690 C   0  0  0  0  0  0  0  0  0  0  0  0
   47.7620   35.0510   42.2680 C   0  0  0  0  0  0  0  0  0  0  0  0
   47.8280   34.2630   43.2890 O   0  0  0  0  0  0  0  0  0  0  0  0
   48.9200   35.5030   41.4760 C   0  0  0  0  0  0  0  0  0  0  0  0
   49.2650   36.7930   41.8170 F   0  0  0  0  0  0  0  0  0  0  0  0
   48.6720   35.4820   40.1190 F   0  0  0  0  0  0  0  0  0  0  0  0
   49.9630   34.6360   41.7390 F   0  0  0  0  0  0  0  0  0  0  0  0
   46.6011   31.1501   44.1520 H   0  0  0  0  0  0  0  0  0  0  0  0
   45.5836   32.5424   48.0060 H   0  0  0  0  0  0  0  0  0  0  0  0
   47.8112   29.5564   45.6779 H   0  0  0  0  0  0  0  0  0  0  0  0
   44.1207   30.2547   47.8588 H   0  0  0  0  0  0  0  0  0  0  0  0
   46.0037   26.4315   47.8788 H   0  0  0  0  0  0  0  0  0  0  0  0
   44.6092   34.7452   43.2147 H   0  0  0  0  0  0  0  0  0  0  0  0
   46.0373   36.0291   41.2797 H   0  0  0  0  0  0  0  0  0  0  0  0
  1  7  1  0
  1  5  1  0
  2  1  1  0
  3  2  2  0
  3  4  1  0
  4  5  2  0
  6  7  2  0
  6 11  1  0
  7  8  1  0
  8  9  2  0
 10  9  1  0
 11 10  2  0
 12  3  1  0
 13 12  2  0
 14 15  2  0
 14 13  1  0
 15 16  1  0
 16 12  1  0
 17 20  1  0
 17 18  1  0
 17 15  1  0
 19 17  1  0
  2 21  1  0
  5 22  1  0
  6 23  1  0
  8 24  1  0
 10 25  1  0
 13 26  1  0
 14 27  1  0
M  ISO  7  21  14  22  14  23  14  24  14  25  14  26  14  27  14
M  END
>  <minimizedAffinity>  (1) 
-5.46881723

>  <minimizedRMSD>  (1) 
4.10186434

$$$$
