
     RDKit          3D

 26 28  0  0  0  0  0  0  0  0999 V2000
   44.8930   35.1500   44.2710 C   0  0  0  0  0  0  0  0  0  0  0  0
   45.6310   35.3620   43.1050 C   0  0  0  0  0  0  0  0  0  0  0  0
   46.7930   34.6030   42.9180 C   0  0  0  0  0  0  0  0  0  0  0  0
   47.1440   33.7000   43.8770 N   0  0  0  0  0  0  0  0  0  0  0  0
   46.4030   33.5310   44.9820 C   0  0  0  0  0  0  0  0  0  0  0  0
   45.2940   34.2390   45.1850 N   0  0  0  0  0  0  0  0  0  0  0  0
   43.6980   35.8380   44.6010 N   0  0  0  0  0  0  0  0  0  0  0  0
   47.5540   34.8370   41.6940 C   0  0  0  0  0  0  0  0  0  0  0  0
   48.6620   35.6440   41.5170 C   0  0  0  0  0  0  0  0  0  0  0  0
   49.0460   35.5690   40.2330 N   0  0  0  0  0  0  0  0  0  0  0  0
   48.2300   34.7400   39.5580 C   0  0  0  0  0  0  0  0  0  0  0  0
   48.2160   34.3440   38.2350 C   0  0  0  0  0  0  0  0  0  0  0  0
   47.2390   33.4570   37.7880 C   0  0  0  0  0  0  0  0  0  0  0  0
   46.2780   32.9690   38.6730 C   0  0  0  0  0  0  0  0  0  0  0  0
   46.3460   33.4070   40.0010 C   0  0  0  0  0  0  0  0  0  0  0  0
   47.3060   34.2830   40.4540 C   0  0  0  0  0  0  0  0  0  0  0  0
   45.3099   36.1018   42.3569 H   0  0  0  0  0  0  0  0  0  0  0  0
   46.7176   32.7933   45.7349 H   0  0  0  0  0  0  0  0  0  0  0  0
   43.3200   36.5502   43.9601 H   0  0  0  0  0  0  0  0  0  0  0  0
   43.2078   35.6256   45.4816 H   0  0  0  0  0  0  0  0  0  0  0  0
   49.1480   36.2471   42.2980 H   0  0  0  0  0  0  0  0  0  0  0  0
   49.8470   36.0719   39.8251 H   0  0  0  0  0  0  0  0  0  0  0  0
   48.9740   34.7278   37.5363 H   0  0  0  0  0  0  0  0  0  0  0  0
   47.2256   33.1408   36.7345 H   0  0  0  0  0  0  0  0  0  0  0  0
   45.4979   32.2681   38.3410 H   0  0  0  0  0  0  0  0  0  0  0  0
   45.5975   33.0337   40.7154 H   0  0  0  0  0  0  0  0  0  0  0  0
  1  7  1  0
  1  6  2  0
  2  1  1  0
  3  2  2  0
  3  4  1  0
  4  5  2  0
  5  6  1  0
  8  3  1  0
  9  8  2  0
 10  9  1  0
 11 10  1  0
 11 16  2  0
 12 11  1  0
 13 12  2  0
 13 14  1  0
 14 15  2  0
 15 16  1  0
 16  8  1  0
  2 17  1  0
  5 18  1  0
  7 19  1  0
  7 20  1  0
  9 21  1  0
 10 22  1  0
 12 23  1  0
 13 24  1  0
 14 25  1  0
 15 26  1  0
M  ISO  8  17  14  18  14  21  14  22   9  23  14  24  14  25  14  26  14
M  END
>  <minimizedAffinity>  (1) 
-6.05320454

>  <minimizedRMSD>  (1) 
1.09773111

$$$$
