
     RDKit          3D

 27 28  0  0  0  0  0  0  0  0999 V2000
   44.8860   35.0920   44.5820 C   0  0  0  0  0  0  0  0  0  0  0  0
   45.6660   35.2020   43.4180 C   0  0  0  0  0  0  0  0  0  0  0  0
   46.7780   34.3580   43.2970 C   0  0  0  0  0  0  0  0  0  0  0  0
   47.0530   33.4770   44.2970 N   0  0  0  0  0  0  0  0  0  0  0  0
   46.2700   33.4080   45.4010 C   0  0  0  0  0  0  0  0  0  0  0  0
   45.2070   34.1990   45.5430 N   0  0  0  0  0  0  0  0  0  0  0  0
   43.7400   35.8700   44.8470 N   0  0  0  0  0  0  0  0  0  0  0  0
   47.5800   34.4440   42.1420 N   0  0  0  0  0  0  0  0  0  0  0  0
   47.0160   34.0480   40.8800 C   0  0  0  0  0  0  0  0  0  0  0  0
   47.9140   34.2300   39.7090 C   0  0  0  0  0  0  0  0  0  0  0  0
   48.8740   35.3640   39.7820 C   0  0  0  0  0  0  0  0  0  0  0  0
   49.1250   35.9240   41.1440 C   0  0  0  0  0  0  0  0  0  0  0  0
   48.9450   34.9300   42.2590 C   0  0  0  0  0  0  0  0  0  0  0  0
   45.4123   35.9256   42.6293 H   0  0  0  0  0  0  0  0  0  0  0  0
   46.5163   32.6863   46.1938 H   0  0  0  0  0  0  0  0  0  0  0  0
   43.4269   36.5749   44.1644 H   0  0  0  0  0  0  0  0  0  0  0  0
   43.2161   35.7333   45.7232 H   0  0  0  0  0  0  0  0  0  0  0  0
   46.7493   32.9827   40.9440 H   0  0  0  0  0  0  0  0  0  0  0  0
   46.1496   34.7039   40.7096 H   0  0  0  0  0  0  0  0  0  0  0  0
   47.2811   34.3838   38.8225 H   0  0  0  0  0  0  0  0  0  0  0  0
   48.5352   33.3229   39.6732 H   0  0  0  0  0  0  0  0  0  0  0  0
   49.8365   35.0164   39.3786 H   0  0  0  0  0  0  0  0  0  0  0  0
   48.4126   36.1801   39.2066 H   0  0  0  0  0  0  0  0  0  0  0  0
   50.1587   36.2986   41.1785 H   0  0  0  0  0  0  0  0  0  0  0  0
   48.3803   36.7178   41.3031 H   0  0  0  0  0  0  0  0  0  0  0  0
   49.0957   35.4168   43.2338 H   0  0  0  0  0  0  0  0  0  0  0  0
   49.6737   34.1089   42.1900 H   0  0  0  0  0  0  0  0  0  0  0  0
  1  7  1  0
  1  6  2  0
  2  1  1  0
  3  2  2  0
  3  4  1  0
  4  5  2  0
  5  6  1  0
  8 13  1  0
  8  3  1  0
  9  8  1  0
 10 11  1  0
 10  9  1  0
 11 12  1  0
 12 13  1  0
  2 14  1  0
  5 15  1  0
  7 16  1  0
  7 17  1  0
  9 18  1  0
  9 19  1  0
 10 20  1  0
 10 21  1  0
 11 22  1  0
 11 23  1  0
 12 24  1  0
 12 25  1  0
 13 26  1  0
 13 27  1  0
M  ISO  8  14  14  15  14  18  13  19  13  20  13  21  13  22  13  23  13
M  ISO  4  24  13  25  13  26  13  27  13
M  END
>  <minimizedAffinity>  (1) 
-4.6806035

>  <minimizedRMSD>  (1) 
0.862610221

$$$$
