
     RDKit          3D

 19 20  0  0  0  0  0  0  0  0999 V2000
   45.2200   34.7600   44.8470 C   0  0  0  0  0  0  0  0  0  0  0  0
   45.7950   35.0740   43.6120 C   0  0  0  0  0  0  0  0  0  0  0  0
   46.8790   34.2950   43.1920 C   0  0  0  0  0  0  0  0  0  0  0  0
   47.3100   33.2880   43.9970 N   0  0  0  0  0  0  0  0  0  0  0  0
   46.7220   33.0240   45.1820 C   0  0  0  0  0  0  0  0  0  0  0  0
   45.6880   33.7580   45.5940 N   0  0  0  0  0  0  0  0  0  0  0  0
   44.1110   35.4750   45.3920 N   0  0  0  0  0  0  0  0  0  0  0  0
   47.5200   34.5700   41.9180 C   0  0  0  0  0  0  0  0  0  0  0  0
   48.5120   35.5030   41.7270 C   0  0  0  0  0  0  0  0  0  0  0  0
   48.8410   35.4490   40.3860 C   0  0  0  0  0  0  0  0  0  0  0  0
   48.0230   34.4780   39.8260 C   0  0  0  0  0  0  0  0  0  0  0  0
   47.2580   33.9920   40.7940 O   0  0  0  0  0  0  0  0  0  0  0  0
   45.4109   35.9000   42.9954 H   0  0  0  0  0  0  0  0  0  0  0  0
   47.0963   32.2017   45.8095 H   0  0  0  0  0  0  0  0  0  0  0  0
   43.6981   36.2609   44.8698 H   0  0  0  0  0  0  0  0  0  0  0  0
   43.7238   35.2049   46.3074 H   0  0  0  0  0  0  0  0  0  0  0  0
   48.9550   36.1608   42.4893 H   0  0  0  0  0  0  0  0  0  0  0  0
   49.5989   36.0540   39.8668 H   0  0  0  0  0  0  0  0  0  0  0  0
   48.0113   34.1678   38.7707 H   0  0  0  0  0  0  0  0  0  0  0  0
  1  7  1  0
  1  6  2  0
  2  1  1  0
  3  2  2  0
  3  4  1  0
  4  5  2  0
  5  6  1  0
  8  3  1  0
  9  8  2  0
 10  9  1  0
 11 10  2  0
 11 12  1  0
 12  8  1  0
  2 13  1  0
  5 14  1  0
  7 15  1  0
  7 16  1  0
  9 17  1  0
 10 18  1  0
 11 19  1  0
M  ISO  5  13  14  14  14  17  14  18  14  19  14
M  END
>  <minimizedAffinity>  (1) 
-4.57344103

>  <minimizedRMSD>  (1) 
1.21644652

$$$$
