
     RDKit          3D

 22 23  0  0  0  0  0  0  0  0999 V2000
   44.9810   35.0560   44.2880 C   0  0  0  0  0  0  0  0  0  0  0  0
   46.0660   34.6710   43.5040 C   0  0  0  0  0  0  0  0  0  0  0  0
   46.9850   33.7570   44.0280 C   0  0  0  0  0  0  0  0  0  0  0  0
   46.7610   33.2940   45.2870 N   0  0  0  0  0  0  0  0  0  0  0  0
   45.7080   33.6870   46.0080 C   0  0  0  0  0  0  0  0  0  0  0  0
   44.8140   34.5650   45.5170 N   0  0  0  0  0  0  0  0  0  0  0  0
   43.9860   35.9690   43.8740 N   0  0  0  0  0  0  0  0  0  0  0  0
   48.1380   33.3220   43.2510 C   0  0  0  0  0  0  0  0  0  0  0  0
   48.3650   32.0430   42.7900 C   0  0  0  0  0  0  0  0  0  0  0  0
   49.4920   31.7530   42.0640 C   0  0  0  0  0  0  0  0  0  0  0  0
   50.4530   32.6920   41.7520 C   0  0  0  0  0  0  0  0  0  0  0  0
   50.2390   33.9860   42.2110 C   0  0  0  0  0  0  0  0  0  0  0  0
   49.0990   34.2590   42.9380 C   0  0  0  0  0  0  0  0  0  0  0  0
   46.1974   35.0787   42.4908 H   0  0  0  0  0  0  0  0  0  0  0  0
   45.5686   33.2855   47.0226 H   0  0  0  0  0  0  0  0  0  0  0  0
   44.0369   36.3970   42.9385 H   0  0  0  0  0  0  0  0  0  0  0  0
   43.2095   36.2068   44.5076 H   0  0  0  0  0  0  0  0  0  0  0  0
   47.6361   31.2481   43.0062 H   0  0  0  0  0  0  0  0  0  0  0  0
   49.6366   30.7205   41.7132 H   0  0  0  0  0  0  0  0  0  0  0  0
   51.3468   32.4289   41.1673 H   0  0  0  0  0  0  0  0  0  0  0  0
   50.9683   34.7813   41.9976 H   0  0  0  0  0  0  0  0  0  0  0  0
   48.9473   35.2900   43.2903 H   0  0  0  0  0  0  0  0  0  0  0  0
  1  6  2  0
  2  3  2  0
  2  1  1  0
  3  4  1  0
  4  5  2  0
  6  5  1  0
  7  1  1  0
  8  3  1  0
  9  8  2  0
 10  9  1  0
 11 10  2  0
 11 12  1  0
 12 13  2  0
 13  8  1  0
  2 14  1  0
  5 15  1  0
  7 16  1  0
  7 17  1  0
  9 18  1  0
 10 19  1  0
 11 20  1  0
 12 21  1  0
 13 22  1  0
M  ISO  7  14  14  15  14  18  14  19  14  20  14  21  14  22  14
M  END
>  <minimizedAffinity>  (1) 
-4.57486057

>  <minimizedRMSD>  (1) 
0.980862677

$$$$
