
     RDKit          3D

 21 22  0  0  0  0  0  0  0  0999 V2000
   44.9840   35.0500   44.2850 C   0  0  0  0  0  0  0  0  0  0  0  0
   46.0760   34.7060   43.4750 C   0  0  0  0  0  0  0  0  0  0  0  0
   46.9940   33.7940   44.0100 C   0  0  0  0  0  0  0  0  0  0  0  0
   46.7940   33.2940   45.2570 N   0  0  0  0  0  0  0  0  0  0  0  0
   45.7250   33.6620   45.9930 C   0  0  0  0  0  0  0  0  0  0  0  0
   44.8160   34.5380   45.5130 N   0  0  0  0  0  0  0  0  0  0  0  0
   43.9660   35.9690   43.8710 N   0  0  0  0  0  0  0  0  0  0  0  0
   48.1310   33.4050   43.2250 C   0  0  0  0  0  0  0  0  0  0  0  0
   49.1310   34.3070   42.9340 C   0  0  0  0  0  0  0  0  0  0  0  0
   50.2390   33.9680   42.1830 C   0  0  0  0  0  0  0  0  0  0  0  0
   50.3160   32.6510   41.7150 C   0  0  0  0  0  0  0  0  0  0  0  0
   49.2940   31.7750   42.0270 C   0  0  0  0  0  0  0  0  0  0  0  0
   48.2250   32.1480   42.7660 N   0  0  0  0  0  0  0  0  0  0  0  0
   46.2050   35.1317   42.4689 H   0  0  0  0  0  0  0  0  0  0  0  0
   45.5915   33.2417   47.0007 H   0  0  0  0  0  0  0  0  0  0  0  0
   44.0170   36.4095   42.9414 H   0  0  0  0  0  0  0  0  0  0  0  0
   43.1831   36.1892   44.5030 H   0  0  0  0  0  0  0  0  0  0  0  0
   49.0434   35.3355   43.3141 H   0  0  0  0  0  0  0  0  0  0  0  0
   51.0279   34.7019   41.9618 H   0  0  0  0  0  0  0  0  0  0  0  0
   51.1734   32.3199   41.1106 H   0  0  0  0  0  0  0  0  0  0  0  0
   49.3521   30.7390   41.6618 H   0  0  0  0  0  0  0  0  0  0  0  0
  1  6  2  0
  2  3  2  0
  2  1  1  0
  3  4  1  0
  4  5  2  0
  6  5  1  0
  7  1  1  0
  8  3  1  0
  9  8  2  0
 10  9  1  0
 11 12  1  0
 11 10  2  0
 12 13  2  0
 13  8  1  0
  2 14  1  0
  5 15  1  0
  7 16  1  0
  7 17  1  0
  9 18  1  0
 10 19  1  0
 11 20  1  0
 12 21  1  0
M  ISO  6  14  14  15  14  18  14  19  14  20  14  21  14
M  END
>  <minimizedAffinity>  (1) 
-4.41152477

>  <minimizedRMSD>  (1) 
0.927366972

$$$$
