
     RDKit          3D

 25 27  0  0  0  0  0  0  0  0999 V2000
   46.5430   32.7270   43.4890 N   0  0  0  0  0  0  0  0  0  0  0  0
   46.0770   31.4760   43.2790 C   0  0  0  0  0  0  0  0  0  0  0  0
   47.0610   30.7390   42.7200 N   0  0  0  0  0  0  0  0  0  0  0  0
   48.1480   31.5200   42.5770 C   0  0  0  0  0  0  0  0  0  0  0  0
   49.4350   31.3440   42.0790 C   0  0  0  0  0  0  0  0  0  0  0  0
   50.2810   32.3980   42.1000 N   0  0  0  0  0  0  0  0  0  0  0  0
   49.9670   33.6040   42.5660 C   0  0  0  0  0  0  0  0  0  0  0  0
   48.7170   33.8090   43.0590 N   0  0  0  0  0  0  0  0  0  0  0  0
   47.8170   32.7760   43.0630 C   0  0  0  0  0  0  0  0  0  0  0  0
   50.9630   34.6210   42.5240 N   0  0  0  0  0  0  0  0  0  0  0  0
   45.0400   36.0850   43.7590 C   0  0  0  0  0  0  0  0  0  0  0  0
   45.7130   34.9770   43.2250 C   0  0  0  0  0  0  0  0  0  0  0  0
   45.8570   33.8340   44.0550 C   0  0  0  0  0  0  0  0  0  0  0  0
   45.3440   33.8710   45.3020 N   0  0  0  0  0  0  0  0  0  0  0  0
   44.7060   34.9610   45.7650 C   0  0  0  0  0  0  0  0  0  0  0  0
   44.5510   36.0490   45.0210 N   0  0  0  0  0  0  0  0  0  0  0  0
   44.8280   37.2860   43.0400 N   0  0  0  0  0  0  0  0  0  0  0  0
   45.0658   31.1180   43.5225 H   0  0  0  0  0  0  0  0  0  0  0  0
   49.7562   30.3713   41.6781 H   0  0  0  0  0  0  0  0  0  0  0  0
   50.7505   35.5649   42.8773 H   0  0  0  0  0  0  0  0  0  0  0  0
   51.8959   34.4127   42.1404 H   0  0  0  0  0  0  0  0  0  0  0  0
   46.1146   34.9926   42.2010 H   0  0  0  0  0  0  0  0  0  0  0  0
   44.3018   34.9503   46.7880 H   0  0  0  0  0  0  0  0  0  0  0  0
   45.1758   37.3766   42.0747 H   0  0  0  0  0  0  0  0  0  0  0  0
   44.3260   38.0692   43.4822 H   0  0  0  0  0  0  0  0  0  0  0  0
  1 13  1  0
  2  1  1  0
  3  2  2  0
  4  3  1  0
  4  9  2  0
  5  6  2  0
  5  4  1  0
  6  7  1  0
  7  8  2  0
  8  9  1  0
  9  1  1  0
 10  7  1  0
 11 16  2  0
 12 11  1  0
 12 13  2  0
 13 14  1  0
 14 15  2  0
 16 15  1  0
 17 11  1  0
  2 18  1  0
  5 19  1  0
 10 20  1  0
 10 21  1  0
 12 22  1  0
 15 23  1  0
 17 24  1  0
 17 25  1  0
M  ISO  4  18  14  19  14  22  14  23  14
M  END
>  <minimizedAffinity>  (1) 
-4.91827869

>  <minimizedRMSD>  (1) 
0.717738032

$$$$
