
     RDKit          3D

 36 39  0  0  0  0  0  0  0  0999 V2000
   41.4900   32.6320   41.4320 N   0  0  0  0  0  0  0  0  0  0  0  0
   40.7010   31.5620   41.6600 C   0  0  0  0  0  0  0  0  0  0  0  0
   41.4510   30.5940   42.2290 N   0  0  0  0  0  0  0  0  0  0  0  0
   42.6960   31.0480   42.3590 C   0  0  0  0  0  0  0  0  0  0  0  0
   43.8930   30.5400   42.8570 C   0  0  0  0  0  0  0  0  0  0  0  0
   44.9880   31.3080   42.8240 N   0  0  0  0  0  0  0  0  0  0  0  0
   45.0300   32.5640   42.3360 C   0  0  0  0  0  0  0  0  0  0  0  0
   43.8820   33.0890   41.8430 N   0  0  0  0  0  0  0  0  0  0  0  0
   42.7390   32.3300   41.8610 C   0  0  0  0  0  0  0  0  0  0  0  0
   46.2650   33.2700   42.3620 N   0  0  0  0  0  0  0  0  0  0  0  0
   46.8170   33.8990   41.3110 C   0  0  0  0  0  0  0  0  0  0  0  0
   48.0290   34.5650   41.4260 C   0  0  0  0  0  0  0  0  0  0  0  0
   48.6300   35.2600   40.2520 C   0  0  0  0  0  0  0  0  0  0  0  0
   48.6790   34.5820   42.6410 C   0  0  0  0  0  0  0  0  0  0  0  0
   49.7840   35.1920   42.7330 O   0  0  0  0  0  0  0  0  0  0  0  0
   48.1340   33.9570   43.6890 N   0  0  0  0  0  0  0  0  0  0  0  0
   46.9580   33.3300   43.5130 C   0  0  0  0  0  0  0  0  0  0  0  0
   46.4780   32.7530   44.5280 O   0  0  0  0  0  0  0  0  0  0  0  0
   40.8560   35.1710   38.8310 C   0  0  0  0  0  0  0  0  0  0  0  0
   41.2120   33.9500   39.4280 C   0  0  0  0  0  0  0  0  0  0  0  0
   41.1250   33.8770   40.8480 C   0  0  0  0  0  0  0  0  0  0  0  0
   40.7110   34.9670   41.5350 N   0  0  0  0  0  0  0  0  0  0  0  0
   40.3830   36.1090   40.9160 C   0  0  0  0  0  0  0  0  0  0  0  0
   40.4520   36.2180   39.5800 N   0  0  0  0  0  0  0  0  0  0  0  0
   40.8840   35.4150   37.4510 N   0  0  0  0  0  0  0  0  0  0  0  0
   39.6293   31.4902   41.4228 H   0  0  0  0  0  0  0  0  0  0  0  0
   43.9377   29.5221   43.2715 H   0  0  0  0  0  0  0  0  0  0  0  0
   46.2984   33.8858   40.3410 H   0  0  0  0  0  0  0  0  0  0  0  0
   49.3120   36.0487   40.6024 H   0  0  0  0  0  0  0  0  0  0  0  0
   49.1901   34.5346   39.6437 H   0  0  0  0  0  0  0  0  0  0  0  0
   47.8314   35.7095   39.6437 H   0  0  0  0  0  0  0  0  0  0  0  0
   48.6022   33.9557   44.6064 H   0  0  0  0  0  0  0  0  0  0  0  0
   41.5426   33.0902   38.8267 H   0  0  0  0  0  0  0  0  0  0  0  0
   40.0516   36.9717   41.5126 H   0  0  0  0  0  0  0  0  0  0  0  0
   40.6083   36.3376   37.0854 H   0  0  0  0  0  0  0  0  0  0  0  0
   41.1803   34.6717   36.8025 H   0  0  0  0  0  0  0  0  0  0  0  0
  1  2  1  0
  1  9  1  0
  2  3  2  0
  3  4  1  0
  4  5  2  0
  6  5  1  0
  7 10  1  0
  7  6  2  0
  8  9  2  0
  8  7  1  0
  9  4  1  0
 10 17  1  0
 11 12  2  0
 11 10  1  0
 12 14  1  0
 13 12  1  0
 14 15  2  0
 14 16  1  0
 17 16  1  0
 17 18  2  0
 19 20  2  0
 19 24  1  0
 20 21  1  0
 21  1  1  0
 21 22  2  0
 23 22  1  0
 24 23  2  0
 25 19  1  0
  2 26  1  0
  5 27  1  0
 11 28  1  0
 13 29  1  0
 13 30  1  0
 13 31  1  0
 16 32  1  0
 20 33  1  0
 23 34  1  0
 25 35  1  0
 25 36  1  0
M  ISO  8  26  14  27  14  28  14  29   8  30   8  31   8  32   9  33  14
M  ISO  1  34  14
M  END
>  <minimizedAffinity>  (1) 
-6.69400883

>  <minimizedRMSD>  (1) 
6.01603079

$$$$
