
     RDKit          3D

 25 27  0  0  0  0  0  0  0  0999 V2000
   46.5740   31.8050   43.8030 N   0  0  0  0  0  0  0  0  0  0  0  0
   46.2450   30.6560   43.1970 C   0  0  0  0  0  0  0  0  0  0  0  0
   46.9290   30.5580   42.0460 N   0  0  0  0  0  0  0  0  0  0  0  0
   47.6980   31.6460   41.9150 C   0  0  0  0  0  0  0  0  0  0  0  0
   48.6020   32.1100   40.9670 C   0  0  0  0  0  0  0  0  0  0  0  0
   49.2150   33.3020   41.1800 N   0  0  0  0  0  0  0  0  0  0  0  0
   49.0020   34.0660   42.2480 C   0  0  0  0  0  0  0  0  0  0  0  0
   48.1270   33.6460   43.1920 N   0  0  0  0  0  0  0  0  0  0  0  0
   47.4820   32.4480   43.0250 C   0  0  0  0  0  0  0  0  0  0  0  0
   45.0530   34.1390   46.2180 C   0  0  0  0  0  0  0  0  0  0  0  0
   45.5190   33.6090   45.0000 C   0  0  0  0  0  0  0  0  0  0  0  0
   46.1090   32.3310   45.0320 C   0  0  0  0  0  0  0  0  0  0  0  0
   46.1930   31.6840   46.2320 N   0  0  0  0  0  0  0  0  0  0  0  0
   45.7360   32.2310   47.3580 C   0  0  0  0  0  0  0  0  0  0  0  0
   45.1720   33.4350   47.3740 N   0  0  0  0  0  0  0  0  0  0  0  0
   44.4410   35.4010   46.3500 N   0  0  0  0  0  0  0  0  0  0  0  0
   49.7160   35.3160   42.3570 C   0  0  0  0  0  0  0  0  0  0  0  0
   49.3220   36.2840   41.6580 O   0  0  0  0  0  0  0  0  0  0  0  0
   45.5301   29.9132   43.5806 H   0  0  0  0  0  0  0  0  0  0  0  0
   48.8165   31.5228   40.0619 H   0  0  0  0  0  0  0  0  0  0  0  0
   45.4258   34.1717   44.0594 H   0  0  0  0  0  0  0  0  0  0  0  0
   45.8279   31.6710   48.3003 H   0  0  0  0  0  0  0  0  0  0  0  0
   44.3117   35.9998   45.5220 H   0  0  0  0  0  0  0  0  0  0  0  0
   44.1228   35.7249   47.2745 H   0  0  0  0  0  0  0  0  0  0  0  0
   50.5789   35.4185   43.0314 H   0  0  0  0  0  0  0  0  0  0  0  0
  1 12  1  0
  2  1  1  0
  3  2  2  0
  4  3  1  0
  4  9  2  0
  5  6  2  0
  5  4  1  0
  6  7  1  0
  7 17  1  0
  7  8  2  0
  9  8  1  0
  9  1  1  0
 10 16  1  0
 10 15  2  0
 11 12  2  0
 11 10  1  0
 12 13  1  0
 13 14  2  0
 14 15  1  0
 18 17  2  0
  2 19  1  0
  5 20  1  0
 11 21  1  0
 14 22  1  0
 16 23  1  0
 16 24  1  0
 17 25  1  0
M  ISO  5  19  14  20  14  21  14  22  14  25   6
M  END
>  <minimizedAffinity>  (1) 
-4.67080402

>  <minimizedRMSD>  (1) 
2.21301484

$$$$
