
     RDKit          3D

 30 32  0  0  0  0  0  0  0  0999 V2000
   46.6750   31.2500   44.4930 N   0  0  0  0  0  0  0  0  0  0  0  0
   46.4210   29.9760   44.1980 C   0  0  0  0  0  0  0  0  0  0  0  0
   47.1930   29.6130   43.1660 N   0  0  0  0  0  0  0  0  0  0  0  0
   47.9430   30.6510   42.7960 C   0  0  0  0  0  0  0  0  0  0  0  0
   48.9090   30.8850   41.8200 C   0  0  0  0  0  0  0  0  0  0  0  0
   49.4660   32.1080   41.7520 N   0  0  0  0  0  0  0  0  0  0  0  0
   49.1620   33.1410   42.5640 C   0  0  0  0  0  0  0  0  0  0  0  0
   48.2240   32.9350   43.5230 N   0  0  0  0  0  0  0  0  0  0  0  0
   47.6280   31.7130   43.6340 C   0  0  0  0  0  0  0  0  0  0  0  0
   49.8000   34.3910   42.4180 N   0  0  0  0  0  0  0  0  0  0  0  0
   49.2250   35.3600   41.5580 C   0  0  0  0  0  0  0  0  0  0  0  0
   48.5120   34.9500   40.5470 N   0  0  0  0  0  0  0  0  0  0  0  0
   49.4470   36.7580   41.8290 N   0  0  0  0  0  0  0  0  0  0  0  0
   48.1020   35.6860   39.9330 H   0  0  0  0  0  0  0  0  0  0  0  0
   45.0700   34.1640   46.1160 C   0  0  0  0  0  0  0  0  0  0  0  0
   45.6380   33.3520   45.1130 C   0  0  0  0  0  0  0  0  0  0  0  0
   46.1010   32.0690   45.5110 C   0  0  0  0  0  0  0  0  0  0  0  0
   45.9760   31.6890   46.8200 N   0  0  0  0  0  0  0  0  0  0  0  0
   45.4260   32.5140   47.7230 C   0  0  0  0  0  0  0  0  0  0  0  0
   44.9770   33.7330   47.3870 N   0  0  0  0  0  0  0  0  0  0  0  0
   44.5710   35.4500   45.8820 N   0  0  0  0  0  0  0  0  0  0  0  0
   45.6973   29.3296   44.7161 H   0  0  0  0  0  0  0  0  0  0  0  0
   49.2091   30.0895   41.1220 H   0  0  0  0  0  0  0  0  0  0  0  0
   50.6706   34.5963   42.9287 H   0  0  0  0  0  0  0  0  0  0  0  0
   49.0356   37.4737   41.2130 H   0  0  0  0  0  0  0  0  0  0  0  0
   50.0170   37.0414   42.6387 H   0  0  0  0  0  0  0  0  0  0  0  0
   45.7189   33.6957   44.0712 H   0  0  0  0  0  0  0  0  0  0  0  0
   45.3406   32.1821   48.7683 H   0  0  0  0  0  0  0  0  0  0  0  0
   44.6061   35.8515   44.9341 H   0  0  0  0  0  0  0  0  0  0  0  0
   44.1685   35.9953   46.6576 H   0  0  0  0  0  0  0  0  0  0  0  0
  1 17  1  0
  2  1  1  0
  3  2  2  0
  4  3  1  0
  4  9  2  0
  5  4  1  0
  6  5  2  0
  6  7  1  0
  7  8  2  0
  8  9  1  0
  9  1  1  0
 10  7  1  0
 11 13  1  0
 11 10  1  0
 12 11  2  0
 14 12  1  0
 15 20  2  0
 16 17  2  0
 16 15  1  0
 17 18  1  0
 18 19  2  0
 20 19  1  0
 21 15  1  0
  2 22  1  0
  5 23  1  0
 10 24  1  0
 13 25  1  0
 13 26  1  0
 16 27  1  0
 19 28  1  0
 21 29  1  0
 21 30  1  0
M  ISO  4  22  14  23  14  27  14  28  14
M  END
>  <minimizedAffinity>  (1) 
-4.87840843

>  <minimizedRMSD>  (1) 
2.30616498

$$$$
