
     RDKit          3D

 38 41  0  0  0  0  0  0  0  0999 V2000
   46.0890   32.1410   45.7040 N   0  0  0  0  0  0  0  0  0  0  0  0
   45.7100   31.4950   46.8180 C   0  0  0  0  0  0  0  0  0  0  0  0
   46.4680   30.3950   46.9520 N   0  0  0  0  0  0  0  0  0  0  0  0
   47.3320   30.3350   45.9260 C   0  0  0  0  0  0  0  0  0  0  0  0
   48.3410   29.4690   45.5150 C   0  0  0  0  0  0  0  0  0  0  0  0
   49.0030   29.7590   44.3970 N   0  0  0  0  0  0  0  0  0  0  0  0
   48.7950   30.8180   43.6140 C   0  0  0  0  0  0  0  0  0  0  0  0
   47.8140   31.6850   43.9890 N   0  0  0  0  0  0  0  0  0  0  0  0
   47.0970   31.4480   45.1240 C   0  0  0  0  0  0  0  0  0  0  0  0
   45.0030   34.6370   43.2130 C   0  0  0  0  0  0  0  0  0  0  0  0
   45.5130   33.4650   43.7640 C   0  0  0  0  0  0  0  0  0  0  0  0
   45.5640   33.3440   45.1760 C   0  0  0  0  0  0  0  0  0  0  0  0
   45.1100   34.3820   45.9120 N   0  0  0  0  0  0  0  0  0  0  0  0
   44.6210   35.5030   45.3560 C   0  0  0  0  0  0  0  0  0  0  0  0
   44.5640   35.6380   44.0240 N   0  0  0  0  0  0  0  0  0  0  0  0
   44.8920   34.8940   41.8330 N   0  0  0  0  0  0  0  0  0  0  0  0
   49.6120   31.0020   42.4070 C   0  0  0  0  0  0  0  0  0  0  0  0
   48.8720   31.6430   41.2760 C   0  0  0  0  0  0  0  0  0  0  0  0
   48.9980   33.1220   41.4180 C   0  0  0  0  0  0  0  0  0  0  0  0
   48.2040   33.8900   40.5960 C   0  0  0  0  0  0  0  0  0  0  0  0
   48.3090   35.2590   40.7170 C   0  0  0  0  0  0  0  0  0  0  0  0
   49.1830   35.8290   41.6300 C   0  0  0  0  0  0  0  0  0  0  0  0
   49.9790   35.0290   42.4540 C   0  0  0  0  0  0  0  0  0  0  0  0
   49.8330   33.7090   42.2920 N   0  0  0  0  0  0  0  0  0  0  0  0
   44.9125   31.8134   47.5055 H   0  0  0  0  0  0  0  0  0  0  0  0
   48.5850   28.5689   46.0984 H   0  0  0  0  0  0  0  0  0  0  0  0
   45.8692   32.6494   43.1175 H   0  0  0  0  0  0  0  0  0  0  0  0
   44.2635   36.3190   46.0012 H   0  0  0  0  0  0  0  0  0  0  0  0
   44.5023   35.7895   41.5056 H   0  0  0  0  0  0  0  0  0  0  0  0
   45.2005   34.1865   41.1509 H   0  0  0  0  0  0  0  0  0  0  0  0
   50.4733   31.6365   42.6632 H   0  0  0  0  0  0  0  0  0  0  0  0
   49.9167   30.0010   42.0675 H   0  0  0  0  0  0  0  0  0  0  0  0
   47.8113   31.3540   41.3133 H   0  0  0  0  0  0  0  0  0  0  0  0
   49.2910   31.3159   40.3129 H   0  0  0  0  0  0  0  0  0  0  0  0
   47.5145   33.4301   39.8728 H   0  0  0  0  0  0  0  0  0  0  0  0
   47.6906   35.9086   40.0801 H   0  0  0  0  0  0  0  0  0  0  0  0
   49.2506   36.9242   41.7066 H   0  0  0  0  0  0  0  0  0  0  0  0
   50.6791   35.4561   43.1871 H   0  0  0  0  0  0  0  0  0  0  0  0
  1  2  1  0
  2  3  2  0
  4  3  1  0
  5  4  2  0
  6  5  1  0
  7  8  1  0
  7  6  2  0
  8  9  2  0
  9  1  1  0
  9  4  1  0
 10 11  2  0
 10 15  1  0
 11 12  1  0
 12  1  1  0
 12 13  2  0
 14 13  1  0
 15 14  2  0
 16 10  1  0
 17  7  1  0
 18 19  1  0
 18 17  1  0
 19 24  2  0
 20 21  2  0
 20 19  1  0
 21 22  1  0
 22 23  2  0
 24 23  1  0
  2 25  1  0
  5 26  1  0
 11 27  1  0
 14 28  1  0
 16 29  1  0
 16 30  1  0
 17 31  1  0
 17 32  1  0
 18 33  1  0
 18 34  1  0
 20 35  1  0
 21 36  1  0
 22 37  1  0
 23 38  1  0
M  ISO  8  25  14  26  14  27  14  28  14  31   8  32   8  33   8  34   8
M  ISO  4  35  14  36  14  37  14  38  14
M  END
>  <minimizedAffinity>  (1) 
-5.60778093

>  <minimizedRMSD>  (1) 
3.45255661

$$$$
