
     RDKit          3D

 36 39  0  0  0  0  0  0  0  0999 V2000
   46.1840   32.3020   45.5700 N   0  0  0  0  0  0  0  0  0  0  0  0
   45.9040   31.6720   46.7410 C   0  0  0  0  0  0  0  0  0  0  0  0
   46.7010   30.5890   46.8320 N   0  0  0  0  0  0  0  0  0  0  0  0
   47.4680   30.5300   45.7480 C   0  0  0  0  0  0  0  0  0  0  0  0
   48.4580   29.6710   45.2790 C   0  0  0  0  0  0  0  0  0  0  0  0
   49.0290   29.9370   44.1040 N   0  0  0  0  0  0  0  0  0  0  0  0
   48.7320   30.9790   43.3080 C   0  0  0  0  0  0  0  0  0  0  0  0
   47.7690   31.8290   43.7460 N   0  0  0  0  0  0  0  0  0  0  0  0
   47.1570   31.6010   44.9400 C   0  0  0  0  0  0  0  0  0  0  0  0
   44.9130   34.7440   43.1290 C   0  0  0  0  0  0  0  0  0  0  0  0
   45.4960   33.5870   43.6620 C   0  0  0  0  0  0  0  0  0  0  0  0
   45.5920   33.4770   45.0620 C   0  0  0  0  0  0  0  0  0  0  0  0
   45.1130   34.4970   45.8060 N   0  0  0  0  0  0  0  0  0  0  0  0
   44.5610   35.5890   45.2810 C   0  0  0  0  0  0  0  0  0  0  0  0
   44.4570   35.7220   43.9540 N   0  0  0  0  0  0  0  0  0  0  0  0
   44.7500   34.9920   41.7530 N   0  0  0  0  0  0  0  0  0  0  0  0
   49.4450   31.1470   42.0350 C   0  0  0  0  0  0  0  0  0  0  0  0
   48.7880   32.1220   41.1120 C   0  0  0  0  0  0  0  0  0  0  0  0
   49.1160   33.5110   41.5280 C   0  0  0  0  0  0  0  0  0  0  0  0
   48.3590   34.5300   40.9540 C   0  0  0  0  0  0  0  0  0  0  0  0
   48.8400   35.7210   41.4880 C   0  0  0  0  0  0  0  0  0  0  0  0
   49.8690   35.3510   42.3600 C   0  0  0  0  0  0  0  0  0  0  0  0
   49.9850   34.0510   42.3450 O   0  0  0  0  0  0  0  0  0  0  0  0
   45.1579   31.9901   47.4841 H   0  0  0  0  0  0  0  0  0  0  0  0
   48.7626   28.7916   45.8653 H   0  0  0  0  0  0  0  0  0  0  0  0
   45.8682   32.7871   43.0050 H   0  0  0  0  0  0  0  0  0  0  0  0
   44.1886   36.3857   45.9417 H   0  0  0  0  0  0  0  0  0  0  0  0
   44.3111   35.8682   41.4361 H   0  0  0  0  0  0  0  0  0  0  0  0
   45.0696   34.2972   41.0631 H   0  0  0  0  0  0  0  0  0  0  0  0
   50.4637   31.5020   42.2499 H   0  0  0  0  0  0  0  0  0  0  0  0
   49.4438   30.1697   41.5301 H   0  0  0  0  0  0  0  0  0  0  0  0
   47.6979   31.9788   41.1457 H   0  0  0  0  0  0  0  0  0  0  0  0
   49.1531   31.9544   40.0880 H   0  0  0  0  0  0  0  0  0  0  0  0
   47.5438   34.4156   40.2243 H   0  0  0  0  0  0  0  0  0  0  0  0
   48.4857   36.7394   41.2703 H   0  0  0  0  0  0  0  0  0  0  0  0
   50.4799   36.0418   42.9597 H   0  0  0  0  0  0  0  0  0  0  0  0
  1  2  1  0
  2  3  2  0
  4  3  1  0
  5  4  2  0
  6  5  1  0
  7  8  1  0
  7  6  2  0
  8  9  2  0
  9  1  1  0
  9  4  1  0
 10 11  2  0
 10 15  1  0
 11 12  1  0
 12  1  1  0
 12 13  2  0
 14 13  1  0
 15 14  2  0
 16 10  1  0
 17  7  1  0
 18 19  1  0
 18 17  1  0
 19 23  1  0
 20 21  1  0
 20 19  2  0
 21 22  2  0
 23 22  1  0
  2 24  1  0
  5 25  1  0
 11 26  1  0
 14 27  1  0
 16 28  1  0
 16 29  1  0
 17 30  1  0
 17 31  1  0
 18 32  1  0
 18 33  1  0
 20 34  1  0
 21 35  1  0
 22 36  1  0
M  ISO  8  24  14  25  14  26  14  27  14  30   8  31   8  32   8  33   8
M  ISO  3  34  14  35  14  36  14
M  END
>  <minimizedAffinity>  (1) 
-5.42524815

>  <minimizedRMSD>  (1) 
3.15629029

$$$$
