
     RDKit          3D

 39 42  0  0  0  0  0  0  0  0999 V2000
   46.8770   31.8480   44.8600 N   0  0  0  0  0  0  0  0  0  0  0  0
   46.8530   30.4990   45.0030 C   0  0  0  0  0  0  0  0  0  0  0  0
   47.7980   29.9790   44.1970 N   0  0  0  0  0  0  0  0  0  0  0  0
   48.4130   30.9710   43.5540 C   0  0  0  0  0  0  0  0  0  0  0  0
   49.4410   31.0660   42.6180 C   0  0  0  0  0  0  0  0  0  0  0  0
   49.7970   32.2780   42.1890 N   0  0  0  0  0  0  0  0  0  0  0  0
   49.2550   33.4340   42.5750 C   0  0  0  0  0  0  0  0  0  0  0  0
   48.2500   33.3740   43.4870 N   0  0  0  0  0  0  0  0  0  0  0  0
   47.8400   32.1670   43.9630 C   0  0  0  0  0  0  0  0  0  0  0  0
   44.7190   34.8000   45.3470 C   0  0  0  0  0  0  0  0  0  0  0  0
   45.5310   33.8450   44.7200 C   0  0  0  0  0  0  0  0  0  0  0  0
   46.0640   32.7960   45.5090 C   0  0  0  0  0  0  0  0  0  0  0  0
   45.7380   32.8050   46.8140 N   0  0  0  0  0  0  0  0  0  0  0  0
   44.9620   33.7240   47.3920 C   0  0  0  0  0  0  0  0  0  0  0  0
   44.4550   34.7160   46.6610 N   0  0  0  0  0  0  0  0  0  0  0  0
   44.1350   35.8940   44.6410 N   0  0  0  0  0  0  0  0  0  0  0  0
   49.7540   34.6990   42.0130 C   0  0  0  0  0  0  0  0  0  0  0  0
   48.6960   35.4900   41.2960 C   0  0  0  0  0  0  0  0  0  0  0  0
   47.9330   34.6960   40.3240 C   0  0  0  0  0  0  0  0  0  0  0  0
   48.3560   34.3230   39.0650 C   0  0  0  0  0  0  0  0  0  0  0  0
   47.5530   33.5740   38.2350 C   0  0  0  0  0  0  0  0  0  0  0  0
   46.3050   33.1660   38.6160 C   0  0  0  0  0  0  0  0  0  0  0  0
   45.8580   33.5250   39.8680 C   0  0  0  0  0  0  0  0  0  0  0  0
   46.6620   34.2800   40.7110 C   0  0  0  0  0  0  0  0  0  0  0  0
   46.1800   29.9302   45.6615 H   0  0  0  0  0  0  0  0  0  0  0  0
   49.9463   30.1641   42.2422 H   0  0  0  0  0  0  0  0  0  0  0  0
   45.7487   33.9083   43.6436 H   0  0  0  0  0  0  0  0  0  0  0  0
   44.7417   33.6628   48.4680 H   0  0  0  0  0  0  0  0  0  0  0  0
   44.3056   36.0052   43.6313 H   0  0  0  0  0  0  0  0  0  0  0  0
   43.5429   36.5724   45.1411 H   0  0  0  0  0  0  0  0  0  0  0  0
   50.1521   35.3128   42.8344 H   0  0  0  0  0  0  0  0  0  0  0  0
   50.5272   34.4440   41.2733 H   0  0  0  0  0  0  0  0  0  0  0  0
   47.9963   35.8936   42.0427 H   0  0  0  0  0  0  0  0  0  0  0  0
   49.2090   36.2850   40.7349 H   0  0  0  0  0  0  0  0  0  0  0  0
   49.3537   34.6299   38.7179 H   0  0  0  0  0  0  0  0  0  0  0  0
   47.9256   33.2961   37.2380 H   0  0  0  0  0  0  0  0  0  0  0  0
   45.6754   32.5675   37.9411 H   0  0  0  0  0  0  0  0  0  0  0  0
   44.8579   33.2117   40.2021 H   0  0  0  0  0  0  0  0  0  0  0  0
   46.2863   34.5558   41.7074 H   0  0  0  0  0  0  0  0  0  0  0  0
  1  2  1  0
  1 12  1  0
  3  2  2  0
  4  9  2  0
  4  3  1  0
  5  4  1  0
  6  7  1  0
  6  5  2  0
  7  8  2  0
  8  9  1  0
  9  1  1  0
 10 15  2  0
 11 10  1  0
 11 12  2  0
 12 13  1  0
 13 14  2  0
 15 14  1  0
 16 10  1  0
 17  7  1  0
 18 17  1  0
 19 24  1  0
 19 18  1  0
 20 19  2  0
 21 22  2  0
 21 20  1  0
 22 23  1  0
 23 24  2  0
  2 25  1  0
  5 26  1  0
 11 27  1  0
 14 28  1  0
 16 29  1  0
 16 30  1  0
 17 31  1  0
 17 32  1  0
 18 33  1  0
 18 34  1  0
 20 35  1  0
 21 36  1  0
 22 37  1  0
 23 38  1  0
 24 39  1  0
M  ISO  8  25  14  26  14  27  14  28  14  31   8  32   8  33   8  34   8
M  ISO  5  35  14  36  14  37  14  38  14  39  14
M  END
>  <minimizedAffinity>  (1) 
-5.5364852

>  <minimizedRMSD>  (1) 
0.922424376

$$$$
