
     RDKit          3D

 42 45  0  0  0  0  0  0  0  0999 V2000
   45.1810   29.7540   45.1200 N   0  0  0  0  0  0  0  0  0  0  0  0
   44.2180   28.8120   45.0360 C   0  0  0  0  0  0  0  0  0  0  0  0
   43.6400   28.9130   43.8220 N   0  0  0  0  0  0  0  0  0  0  0  0
   44.2210   29.8980   43.1440 C   0  0  0  0  0  0  0  0  0  0  0  0
   44.0720   30.4630   41.8890 C   0  0  0  0  0  0  0  0  0  0  0  0
   44.8650   31.4790   41.5380 N   0  0  0  0  0  0  0  0  0  0  0  0
   45.8240   32.0230   42.3100 C   0  0  0  0  0  0  0  0  0  0  0  0
   45.9800   31.4790   43.5400 N   0  0  0  0  0  0  0  0  0  0  0  0
   45.1960   30.4420   43.9450 C   0  0  0  0  0  0  0  0  0  0  0  0
   46.3120   30.6790   48.5000 C   0  0  0  0  0  0  0  0  0  0  0  0
   45.4630   30.4070   47.4250 C   0  0  0  0  0  0  0  0  0  0  0  0
   46.0500   30.0270   46.2030 C   0  0  0  0  0  0  0  0  0  0  0  0
   47.3970   29.9480   46.1430 N   0  0  0  0  0  0  0  0  0  0  0  0
   48.1910   30.2150   47.1880 C   0  0  0  0  0  0  0  0  0  0  0  0
   47.6620   30.5760   48.3580 N   0  0  0  0  0  0  0  0  0  0  0  0
   45.8700   31.0690   49.7800 N   0  0  0  0  0  0  0  0  0  0  0  0
   46.6230   33.1380   41.7920 C   0  0  0  0  0  0  0  0  0  0  0  0
   46.1850   34.4630   42.3000 C   0  0  0  0  0  0  0  0  0  0  0  0
   44.8410   34.8220   41.9670 N   0  0  0  0  0  0  0  0  0  0  0  0
   44.3100   34.7580   40.7340 C   0  0  0  0  0  0  0  0  0  0  0  0
   42.9930   35.1300   40.5060 C   0  0  0  0  0  0  0  0  0  0  0  0
   42.3790   35.0690   39.1440 C   0  0  0  0  0  0  0  0  0  0  0  0
   42.1840   35.5730   41.5170 C   0  0  0  0  0  0  0  0  0  0  0  0
   40.9850   35.9340   41.4290 O   0  0  0  0  0  0  0  0  0  0  0  0
   42.7540   35.6230   42.7400 N   0  0  0  0  0  0  0  0  0  0  0  0
   44.0310   35.2660   42.9740 C   0  0  0  0  0  0  0  0  0  0  0  0
   44.5080   35.3360   44.1520 O   0  0  0  0  0  0  0  0  0  0  0  0
   43.9514   28.0886   45.8206 H   0  0  0  0  0  0  0  0  0  0  0  0
   43.3121   30.0811   41.1914 H   0  0  0  0  0  0  0  0  0  0  0  0
   44.3709   30.4871   47.5296 H   0  0  0  0  0  0  0  0  0  0  0  0
   49.2830   30.1363   47.0810 H   0  0  0  0  0  0  0  0  0  0  0  0
   46.5546   31.2537   50.5271 H   0  0  0  0  0  0  0  0  0  0  0  0
   44.8624   31.1693   49.9685 H   0  0  0  0  0  0  0  0  0  0  0  0
   46.5457   33.1422   40.6947 H   0  0  0  0  0  0  0  0  0  0  0  0
   47.6567   32.9840   42.1352 H   0  0  0  0  0  0  0  0  0  0  0  0
   46.2749   34.4553   43.3963 H   0  0  0  0  0  0  0  0  0  0  0  0
   46.8324   35.2084   41.8150 H   0  0  0  0  0  0  0  0  0  0  0  0
   44.9277   34.4061   39.8946 H   0  0  0  0  0  0  0  0  0  0  0  0
   41.2884   34.9606   39.2380 H   0  0  0  0  0  0  0  0  0  0  0  0
   42.6097   35.9945   38.5960 H   0  0  0  0  0  0  0  0  0  0  0  0
   42.7872   34.2070   38.5960 H   0  0  0  0  0  0  0  0  0  0  0  0
   42.1839   35.9503   43.5329 H   0  0  0  0  0  0  0  0  0  0  0  0
  1 12  1  0
  2  1  1  0
  3  2  2  0
  4  3  1  0
  4  9  2  0
  5  4  1  0
  6  5  2  0
  6  7  1  0
  7  8  2  0
  8  9  1  0
  9  1  1  0
 10 16  1  0
 11 10  2  0
 12 11  1  0
 13 12  2  0
 13 14  1  0
 14 15  2  0
 15 10  1  0
 17 18  1  0
 17  7  1  0
 19 18  1  0
 19 26  1  0
 20 19  1  0
 21 20  2  0
 21 23  1  0
 22 21  1  0
 23 25  1  0
 24 23  2  0
 25 26  1  0
 26 27  2  0
  2 28  1  0
  5 29  1  0
 11 30  1  0
 14 31  1  0
 16 32  1  0
 16 33  1  0
 17 34  1  0
 17 35  1  0
 18 36  1  0
 18 37  1  0
 20 38  1  0
 22 39  1  0
 22 40  1  0
 22 41  1  0
 25 42  1  0
M  ISO  8  28  14  29  14  30  14  31  14  34   8  35   8  36   8  37   8
M  ISO  5  38  14  39   8  40   8  41   8  42   9
M  END
>  <minimizedAffinity>  (1) 
-5.46663618

>  <minimizedRMSD>  (1) 
5.94431448

$$$$
