
     RDKit          3D

 37 40  0  0  0  0  0  0  0  0999 V2000
   46.2980   32.2700   44.8420 N   0  0  0  0  0  0  0  0  0  0  0  0
   46.0180   31.2790   45.7310 C   0  0  0  0  0  0  0  0  0  0  0  0
   46.9280   30.3070   45.5680 N   0  0  0  0  0  0  0  0  0  0  0  0
   47.7750   30.6610   44.5970 C   0  0  0  0  0  0  0  0  0  0  0  0
   48.8840   30.0830   44.0030 C   0  0  0  0  0  0  0  0  0  0  0  0
   49.5070   30.7470   43.0250 N   0  0  0  0  0  0  0  0  0  0  0  0
   49.1410   31.9580   42.5580 C   0  0  0  0  0  0  0  0  0  0  0  0
   48.0560   32.5390   43.1290 N   0  0  0  0  0  0  0  0  0  0  0  0
   47.3930   31.8980   44.1260 C   0  0  0  0  0  0  0  0  0  0  0  0
   44.5530   35.0050   43.1120 C   0  0  0  0  0  0  0  0  0  0  0  0
   45.2360   33.8140   43.3320 C   0  0  0  0  0  0  0  0  0  0  0  0
   45.6080   33.4810   44.6570 C   0  0  0  0  0  0  0  0  0  0  0  0
   45.2710   34.3500   45.6270 N   0  0  0  0  0  0  0  0  0  0  0  0
   44.6140   35.4920   45.4020 C   0  0  0  0  0  0  0  0  0  0  0  0
   44.2520   35.8250   44.1490 N   0  0  0  0  0  0  0  0  0  0  0  0
   44.1210   35.4650   41.8530 N   0  0  0  0  0  0  0  0  0  0  0  0
   49.9180   32.5690   41.4800 C   0  0  0  0  0  0  0  0  0  0  0  0
   49.7280   31.8920   40.1490 C   0  0  0  0  0  0  0  0  0  0  0  0
   51.0850   31.6410   39.5700 C   0  0  0  0  0  0  0  0  0  0  0  0
   52.1380   31.3810   40.4220 C   0  0  0  0  0  0  0  0  0  0  0  0
   53.3410   31.1640   39.7910 C   0  0  0  0  0  0  0  0  0  0  0  0
   53.5340   31.1920   38.4610 N   0  0  0  0  0  0  0  0  0  0  0  0
   52.4740   31.4500   37.6680 C   0  0  0  0  0  0  0  0  0  0  0  0
   51.2480   31.6760   38.2160 N   0  0  0  0  0  0  0  0  0  0  0  0
   45.1908   31.2754   46.4560 H   0  0  0  0  0  0  0  0  0  0  0  0
   49.2451   29.0967   44.3297 H   0  0  0  0  0  0  0  0  0  0  0  0
   45.4821   33.1447   42.4945 H   0  0  0  0  0  0  0  0  0  0  0  0
   44.3690   36.1599   46.2410 H   0  0  0  0  0  0  0  0  0  0  0  0
   43.6197   36.3615   41.7765 H   0  0  0  0  0  0  0  0  0  0  0  0
   44.3064   34.9049   41.0087 H   0  0  0  0  0  0  0  0  0  0  0  0
   49.6124   33.6212   41.3829 H   0  0  0  0  0  0  0  0  0  0  0  0
   50.9802   32.4678   41.7474 H   0  0  0  0  0  0  0  0  0  0  0  0
   49.1966   30.9387   40.2858 H   0  0  0  0  0  0  0  0  0  0  0  0
   49.1322   32.5255   39.4754 H   0  0  0  0  0  0  0  0  0  0  0  0
   52.0252   31.3497   41.5158 H   0  0  0  0  0  0  0  0  0  0  0  0
   54.2142   30.9507   40.4251 H   0  0  0  0  0  0  0  0  0  0  0  0
   52.6001   31.4779   36.5756 H   0  0  0  0  0  0  0  0  0  0  0  0
  1  2  1  0
  3  2  2  0
  4  3  1  0
  5  4  2  0
  6  5  1  0
  7  6  2  0
  7  8  1  0
  8  9  2  0
  9  4  1  0
  9  1  1  0
 10 11  2  0
 10 15  1  0
 11 12  1  0
 12  1  1  0
 12 13  2  0
 14 13  1  0
 15 14  2  0
 16 10  1  0
 17  7  1  0
 18 17  1  0
 19 18  1  0
 19 20  2  0
 21 20  1  0
 22 21  2  0
 23 24  2  0
 23 22  1  0
 24 19  1  0
  2 25  1  0
  5 26  1  0
 11 27  1  0
 14 28  1  0
 16 29  1  0
 16 30  1  0
 17 31  1  0
 17 32  1  0
 18 33  1  0
 18 34  1  0
 20 35  1  0
 21 36  1  0
 23 37  1  0
M  ISO  8  25  14  26  14  27  14  28  14  31   8  32   8  33   8  34   8
M  ISO  3  35  14  36  14  37  14
M  END
>  <minimizedAffinity>  (1) 
-4.88655233

>  <minimizedRMSD>  (1) 
4.37730742

$$$$
