
     RDKit          3D

 41 44  0  0  0  0  0  0  0  0999 V2000
   46.0940   32.0740   45.5820 N   0  0  0  0  0  0  0  0  0  0  0  0
   45.7240   31.3320   46.6600 C   0  0  0  0  0  0  0  0  0  0  0  0
   46.5200   30.2570   46.7180 N   0  0  0  0  0  0  0  0  0  0  0  0
   47.3890   30.2930   45.7040 C   0  0  0  0  0  0  0  0  0  0  0  0
   48.4210   29.5000   45.2440 C   0  0  0  0  0  0  0  0  0  0  0  0
   49.0880   29.8690   44.1620 N   0  0  0  0  0  0  0  0  0  0  0  0
   48.8510   30.9760   43.4440 C   0  0  0  0  0  0  0  0  0  0  0  0
   47.8440   31.7810   43.8650 N   0  0  0  0  0  0  0  0  0  0  0  0
   47.1310   31.4450   44.9700 C   0  0  0  0  0  0  0  0  0  0  0  0
   44.7870   34.6230   43.2730 C   0  0  0  0  0  0  0  0  0  0  0  0
   45.3410   33.4300   43.7380 C   0  0  0  0  0  0  0  0  0  0  0  0
   45.5330   33.2880   45.1340 C   0  0  0  0  0  0  0  0  0  0  0  0
   45.1660   34.3170   45.9230 N   0  0  0  0  0  0  0  0  0  0  0  0
   44.6370   35.4500   45.4560 C   0  0  0  0  0  0  0  0  0  0  0  0
   44.4450   35.6100   44.1330 N   0  0  0  0  0  0  0  0  0  0  0  0
   44.5410   34.9010   41.9150 N   0  0  0  0  0  0  0  0  0  0  0  0
   49.6740   31.2760   42.2510 C   0  0  0  0  0  0  0  0  0  0  0  0
   48.9080   31.9470   41.1600 C   0  0  0  0  0  0  0  0  0  0  0  0
   49.1740   33.3380   41.1830 N   0  0  0  0  0  0  0  0  0  0  0  0
   50.1230   33.7570   42.1790 C   0  0  0  0  0  0  0  0  0  0  0  0
   49.8310   35.2330   42.3450 C   0  0  0  0  0  0  0  0  0  0  0  0
   48.7880   35.5720   41.3050 C   0  0  0  0  0  0  0  0  0  0  0  0
   48.0620   34.2230   41.1820 C   0  0  0  0  0  0  0  0  0  0  0  0
   44.9122   31.5731   47.3620 H   0  0  0  0  0  0  0  0  0  0  0  0
   48.6861   28.5715   45.7709 H   0  0  0  0  0  0  0  0  0  0  0  0
   45.6199   32.6249   43.0422 H   0  0  0  0  0  0  0  0  0  0  0  0
   44.3576   36.2539   46.1528 H   0  0  0  0  0  0  0  0  0  0  0  0
   44.1288   35.8042   41.6407 H   0  0  0  0  0  0  0  0  0  0  0  0
   44.7732   34.2012   41.1958 H   0  0  0  0  0  0  0  0  0  0  0  0
   50.5008   31.9353   42.5538 H   0  0  0  0  0  0  0  0  0  0  0  0
   50.0345   30.3157   41.8535 H   0  0  0  0  0  0  0  0  0  0  0  0
   47.8316   31.7770   41.3096 H   0  0  0  0  0  0  0  0  0  0  0  0
   49.2133   31.5313   40.1884 H   0  0  0  0  0  0  0  0  0  0  0  0
   49.9661   33.2163   43.1240 H   0  0  0  0  0  0  0  0  0  0  0  0
   51.1651   33.5559   41.8899 H   0  0  0  0  0  0  0  0  0  0  0  0
   49.4435   35.4346   43.3545 H   0  0  0  0  0  0  0  0  0  0  0  0
   50.7394   35.8399   42.2167 H   0  0  0  0  0  0  0  0  0  0  0  0
   48.1115   36.3665   41.6530 H   0  0  0  0  0  0  0  0  0  0  0  0
   49.1944   35.9604   40.3595 H   0  0  0  0  0  0  0  0  0  0  0  0
   47.4869   34.1536   40.2469 H   0  0  0  0  0  0  0  0  0  0  0  0
   47.3159   34.0274   41.9662 H   0  0  0  0  0  0  0  0  0  0  0  0
  1  2  1  0
  2  3  2  0
  4  3  1  0
  5  4  2  0
  6  5  1  0
  7  8  1  0
  7  6  2  0
  8  9  2  0
  9  1  1  0
  9  4  1  0
 10 11  2  0
 10 15  1  0
 11 12  1  0
 12  1  1  0
 12 13  2  0
 14 13  1  0
 15 14  2  0
 16 10  1  0
 17  7  1  0
 18 19  1  0
 18 17  1  0
 19 20  1  0
 20 21  1  0
 22 21  1  0
 23 19  1  0
 23 22  1  0
  2 24  1  0
  5 25  1  0
 11 26  1  0
 14 27  1  0
 16 28  1  0
 16 29  1  0
 17 30  1  0
 17 31  1  0
 18 32  1  0
 18 33  1  0
 20 34  1  0
 20 35  1  0
 21 36  1  0
 21 37  1  0
 22 38  1  0
 22 39  1  0
 23 40  1  0
 23 41  1  0
M  ISO  8  24  14  25  14  26  14  27  14  30   8  31   8  32   8  33   8
M  ISO  8  34  13  35  13  36  13  37  13  38  13  39  13  40  13  41  13
M  END
>  <minimizedAffinity>  (1) 
-5.27660704

>  <minimizedRMSD>  (1) 
3.09908104

$$$$
