
     RDKit          3D

 36 38  0  0  0  0  0  0  0  0999 V2000
   46.2910   32.3420   44.6600 N   0  0  0  0  0  0  0  0  0  0  0  0
   46.1570   31.3080   45.5100 C   0  0  0  0  0  0  0  0  0  0  0  0
   47.0280   30.3450   45.1510 N   0  0  0  0  0  0  0  0  0  0  0  0
   47.7120   30.7610   44.0830 C   0  0  0  0  0  0  0  0  0  0  0  0
   48.7150   30.2340   43.2800 C   0  0  0  0  0  0  0  0  0  0  0  0
   49.1720   30.9700   42.2570 N   0  0  0  0  0  0  0  0  0  0  0  0
   48.7420   32.1870   41.9360 C   0  0  0  0  0  0  0  0  0  0  0  0
   47.7630   32.7280   42.7020 N   0  0  0  0  0  0  0  0  0  0  0  0
   47.2590   32.0230   43.7580 C   0  0  0  0  0  0  0  0  0  0  0  0
   44.4980   35.2800   43.3560 C   0  0  0  0  0  0  0  0  0  0  0  0
   45.1970   34.0760   43.3860 C   0  0  0  0  0  0  0  0  0  0  0  0
   45.5880   33.5640   44.6480 C   0  0  0  0  0  0  0  0  0  0  0  0
   45.2520   34.2860   45.7360 N   0  0  0  0  0  0  0  0  0  0  0  0
   44.5770   35.4440   45.6720 C   0  0  0  0  0  0  0  0  0  0  0  0
   44.1990   35.9460   44.4920 N   0  0  0  0  0  0  0  0  0  0  0  0
   44.0470   35.9050   42.1580 N   0  0  0  0  0  0  0  0  0  0  0  0
   49.3410   32.8820   40.7770 C   0  0  0  0  0  0  0  0  0  0  0  0
   48.3450   33.5890   39.9240 C   0  0  0  0  0  0  0  0  0  0  0  0
   48.8990   33.8690   38.6180 N   0  0  0  0  0  0  0  0  0  0  0  0
   48.0740   33.8290   37.4710 C   0  0  0  0  0  0  0  0  0  0  0  0
   46.8000   33.8940   37.5280 N   0  0  0  0  0  0  0  0  0  0  0  0
   48.6660   33.7120   36.1960 N   0  0  0  0  0  0  0  0  0  0  0  0
   46.2540   33.9810   38.4080 H   0  0  0  0  0  0  0  0  0  0  0  0
   45.4549   31.2574   46.3553 H   0  0  0  0  0  0  0  0  0  0  0  0
   49.1260   29.2333   43.4793 H   0  0  0  0  0  0  0  0  0  0  0  0
   45.4385   33.5382   42.4573 H   0  0  0  0  0  0  0  0  0  0  0  0
   44.3326   35.9847   46.5982 H   0  0  0  0  0  0  0  0  0  0  0  0
   43.5342   36.7971   42.2041 H   0  0  0  0  0  0  0  0  0  0  0  0
   44.2337   35.4648   41.2457 H   0  0  0  0  0  0  0  0  0  0  0  0
   50.0650   33.6209   41.1510 H   0  0  0  0  0  0  0  0  0  0  0  0
   49.8140   32.1124   40.1493 H   0  0  0  0  0  0  0  0  0  0  0  0
   47.4529   32.9557   39.8098 H   0  0  0  0  0  0  0  0  0  0  0  0
   48.0776   34.5406   40.4066 H   0  0  0  0  0  0  0  0  0  0  0  0
   49.8986   34.0985   38.5232 H   0  0  0  0  0  0  0  0  0  0  0  0
   49.6907   33.6567   36.1071 H   0  0  0  0  0  0  0  0  0  0  0  0
   48.0736   33.6818   35.3539 H   0  0  0  0  0  0  0  0  0  0  0  0
  1  2  1  0
  3  2  2  0
  4  3  1  0
  5  4  2  0
  6  5  1  0
  7  6  2  0
  7  8  1  0
  8  9  2  0
  9  4  1  0
  9  1  1  0
 10 11  2  0
 10 15  1  0
 11 12  1  0
 12  1  1  0
 12 13  2  0
 14 13  1  0
 15 14  2  0
 16 10  1  0
 17  7  1  0
 18 17  1  0
 19 18  1  0
 20 21  2  0
 20 19  1  0
 21 23  1  0
 22 20  1  0
  2 24  1  0
  5 25  1  0
 11 26  1  0
 14 27  1  0
 16 28  1  0
 16 29  1  0
 17 30  1  0
 17 31  1  0
 18 32  1  0
 18 33  1  0
 19 34  1  0
 22 35  1  0
 22 36  1  0
M  ISO  8  24  14  25  14  26  14  27  14  30   8  31   8  32   8  33   8
M  END
>  <minimizedAffinity>  (1) 
-5.00466251

>  <minimizedRMSD>  (1) 
2.78748631

$$$$
