
     RDKit          3D

 35 38  0  0  0  0  0  0  0  0999 V2000
   46.3000   32.2610   44.8280 N   0  0  0  0  0  0  0  0  0  0  0  0
   46.0030   31.2720   45.7100 C   0  0  0  0  0  0  0  0  0  0  0  0
   46.9160   30.2850   45.5590 N   0  0  0  0  0  0  0  0  0  0  0  0
   47.7710   30.6380   44.6050 C   0  0  0  0  0  0  0  0  0  0  0  0
   48.8900   30.0710   44.0120 C   0  0  0  0  0  0  0  0  0  0  0  0
   49.5190   30.7380   43.0520 N   0  0  0  0  0  0  0  0  0  0  0  0
   49.1710   31.9520   42.5760 C   0  0  0  0  0  0  0  0  0  0  0  0
   48.0780   32.5220   43.1450 N   0  0  0  0  0  0  0  0  0  0  0  0
   47.3970   31.8870   44.1290 C   0  0  0  0  0  0  0  0  0  0  0  0
   44.5570   34.9940   43.0950 C   0  0  0  0  0  0  0  0  0  0  0  0
   45.2400   33.7940   43.3090 C   0  0  0  0  0  0  0  0  0  0  0  0
   45.6130   33.4730   44.6410 C   0  0  0  0  0  0  0  0  0  0  0  0
   45.2810   34.3490   45.6080 N   0  0  0  0  0  0  0  0  0  0  0  0
   44.6250   35.4910   45.3770 C   0  0  0  0  0  0  0  0  0  0  0  0
   44.2660   35.8150   44.1380 N   0  0  0  0  0  0  0  0  0  0  0  0
   44.1300   35.4340   41.8260 N   0  0  0  0  0  0  0  0  0  0  0  0
   49.9600   32.5700   41.5090 C   0  0  0  0  0  0  0  0  0  0  0  0
   50.0160   31.7540   40.2700 C   0  0  0  0  0  0  0  0  0  0  0  0
   49.3260   32.4520   39.1250 C   0  0  0  0  0  0  0  0  0  0  0  0
   49.6280   32.1570   37.7770 C   0  0  0  0  0  0  0  0  0  0  0  0
   48.4990   33.2930   36.8780 S   0  0  0  0  0  0  0  0  0  0  0  0
   47.8270   33.9580   38.5100 C   0  0  0  0  0  0  0  0  0  0  0  0
   48.3960   33.3840   39.3040 N   0  0  0  0  0  0  0  0  0  0  0  0
   45.1656   31.2732   46.4233 H   0  0  0  0  0  0  0  0  0  0  0  0
   49.2508   29.0827   44.3329 H   0  0  0  0  0  0  0  0  0  0  0  0
   45.4808   33.1203   42.4734 H   0  0  0  0  0  0  0  0  0  0  0  0
   44.3819   36.1635   46.2129 H   0  0  0  0  0  0  0  0  0  0  0  0
   43.6301   36.3297   41.7328 H   0  0  0  0  0  0  0  0  0  0  0  0
   44.3179   34.8599   40.9918 H   0  0  0  0  0  0  0  0  0  0  0  0
   49.5131   33.5450   41.2647 H   0  0  0  0  0  0  0  0  0  0  0  0
   50.9906   32.6670   41.8812 H   0  0  0  0  0  0  0  0  0  0  0  0
   51.0687   31.5803   40.0022 H   0  0  0  0  0  0  0  0  0  0  0  0
   49.5008   30.8004   40.4576 H   0  0  0  0  0  0  0  0  0  0  0  0
   50.3514   31.4346   37.3711 H   0  0  0  0  0  0  0  0  0  0  0  0
   47.0565   34.7291   38.6576 H   0  0  0  0  0  0  0  0  0  0  0  0
  1  2  1  0
  3  2  2  0
  4  3  1  0
  5  4  2  0
  6  5  1  0
  7  6  2  0
  7  8  1  0
  8  9  2  0
  9  4  1  0
  9  1  1  0
 10 11  2  0
 10 15  1  0
 11 12  1  0
 12  1  1  0
 12 13  2  0
 14 13  1  0
 15 14  2  0
 16 10  1  0
 17  7  1  0
 18 17  1  0
 19 23  1  0
 19 18  1  0
 20 19  2  0
 21 20  1  0
 21 22  1  0
 22 23  2  0
  2 24  1  0
  5 25  1  0
 11 26  1  0
 14 27  1  0
 16 28  1  0
 16 29  1  0
 17 30  1  0
 17 31  1  0
 18 32  1  0
 18 33  1  0
 20 34  1  0
 22 35  1  0
M  ISO  8  24  14  25  14  26  14  27  14  30   8  31   8  32   8  33   8
M  ISO  2  34  14  35  14
M  END
>  <minimizedAffinity>  (1) 
-4.67147732

>  <minimizedRMSD>  (1) 
3.53000116

$$$$
