
     RDKit          3D

 42 46  0  0  0  0  0  0  0  0999 V2000
   44.8130   31.0140   42.6770 N   0  0  0  0  0  0  0  0  0  0  0  0
   44.4980   30.0180   43.5370 C   0  0  0  0  0  0  0  0  0  0  0  0
   43.7290   29.1350   42.8710 N   0  0  0  0  0  0  0  0  0  0  0  0
   43.5580   29.5570   41.6220 C   0  0  0  0  0  0  0  0  0  0  0  0
   42.8880   29.0950   40.4960 C   0  0  0  0  0  0  0  0  0  0  0  0
   42.9460   29.8210   39.3730 N   0  0  0  0  0  0  0  0  0  0  0  0
   43.6030   30.9760   39.2240 C   0  0  0  0  0  0  0  0  0  0  0  0
   44.2680   31.4510   40.3150 N   0  0  0  0  0  0  0  0  0  0  0  0
   44.2450   30.7590   41.4820 C   0  0  0  0  0  0  0  0  0  0  0  0
   45.6820   34.4920   43.5260 C   0  0  0  0  0  0  0  0  0  0  0  0
   44.9250   33.3530   43.2630 C   0  0  0  0  0  0  0  0  0  0  0  0
   45.6050   32.1590   42.9410 C   0  0  0  0  0  0  0  0  0  0  0  0
   46.9540   32.1970   42.9070 N   0  0  0  0  0  0  0  0  0  0  0  0
   47.6620   33.3000   43.1630 C   0  0  0  0  0  0  0  0  0  0  0  0
   47.0350   34.4430   43.4700 N   0  0  0  0  0  0  0  0  0  0  0  0
   45.1410   35.7480   43.8590 N   0  0  0  0  0  0  0  0  0  0  0  0
   43.5770   31.6610   37.9300 C   0  0  0  0  0  0  0  0  0  0  0  0
   44.2290   33.0150   37.9600 C   0  0  0  0  0  0  0  0  0  0  0  0
   45.5850   32.9280   37.4540 N   0  0  0  0  0  0  0  0  0  0  0  0
   46.6850   33.1810   38.2230 C   0  0  0  0  0  0  0  0  0  0  0  0
   47.8340   33.0370   37.5370 N   0  0  0  0  0  0  0  0  0  0  0  0
   47.4770   32.6800   36.2890 C   0  0  0  0  0  0  0  0  0  0  0  0
   48.1150   32.3790   35.1030 C   0  0  0  0  0  0  0  0  0  0  0  0
   47.4210   32.0470   33.9930 N   0  0  0  0  0  0  0  0  0  0  0  0
   46.0750   31.9920   33.9820 C   0  0  0  0  0  0  0  0  0  0  0  0
   45.4330   32.2840   35.1330 N   0  0  0  0  0  0  0  0  0  0  0  0
   46.0940   32.6160   36.2480 C   0  0  0  0  0  0  0  0  0  0  0  0
   49.5330   32.4290   35.0890 N   0  0  0  0  0  0  0  0  0  0  0  0
   44.8126   29.9430   44.5884 H   0  0  0  0  0  0  0  0  0  0  0  0
   42.3218   28.1524   40.5267 H   0  0  0  0  0  0  0  0  0  0  0  0
   43.8262   33.3832   43.3051 H   0  0  0  0  0  0  0  0  0  0  0  0
   48.7608   33.2698   43.1217 H   0  0  0  0  0  0  0  0  0  0  0  0
   45.7661   36.5463   44.0404 H   0  0  0  0  0  0  0  0  0  0  0  0
   44.1200   35.8688   43.9213 H   0  0  0  0  0  0  0  0  0  0  0  0
   42.5284   31.7854   37.6220 H   0  0  0  0  0  0  0  0  0  0  0  0
   44.1467   31.0411   37.2221 H   0  0  0  0  0  0  0  0  0  0  0  0
   43.6512   33.7107   37.3337 H   0  0  0  0  0  0  0  0  0  0  0  0
   44.2554   33.3783   38.9980 H   0  0  0  0  0  0  0  0  0  0  0  0
   46.6373   33.4699   39.2833 H   0  0  0  0  0  0  0  0  0  0  0  0
   45.5212   31.7200   33.0714 H   0  0  0  0  0  0  0  0  0  0  0  0
   50.0475   32.2112   34.2237 H   0  0  0  0  0  0  0  0  0  0  0  0
   50.0478   32.6830   35.9442 H   0  0  0  0  0  0  0  0  0  0  0  0
  1 12  1  0
  1  2  1  0
  3  2  2  0
  4  3  1  0
  5  4  2  0
  6  5  1  0
  7  6  2  0
  7  8  1  0
  8  9  2  0
  9  4  1  0
  9  1  1  0
 10 16  1  0
 11 10  2  0
 12 11  1  0
 13 12  2  0
 13 14  1  0
 14 15  2  0
 15 10  1  0
 17 18  1  0
 17  7  1  0
 19 18  1  0
 19 20  1  0
 21 20  2  0
 22 21  1  0
 23 22  2  0
 24 23  1  0
 25 24  2  0
 25 26  1  0
 26 27  2  0
 27 22  1  0
 27 19  1  0
 28 23  1  0
  2 29  1  0
  5 30  1  0
 11 31  1  0
 14 32  1  0
 16 33  1  0
 16 34  1  0
 17 35  1  0
 17 36  1  0
 18 37  1  0
 18 38  1  0
 20 39  1  0
 25 40  1  0
 28 41  1  0
 28 42  1  0
M  ISO  8  29  14  30  14  31  14  32  14  35   8  36   8  37   8  38   8
M  ISO  2  39  14  40  14
M  END
>  <minimizedAffinity>  (1) 
-4.08378601

>  <minimizedRMSD>  (1) 
6.40855217

$$$$
