
     RDKit          3D

 30 32  0  0  0  0  0  0  0  0999 V2000
   46.7710   31.4700   44.4830 N   0  0  0  0  0  0  0  0  0  0  0  0
   46.5500   30.1790   44.1250 C   0  0  0  0  0  0  0  0  0  0  0  0
   47.3420   29.8990   43.0710 N   0  0  0  0  0  0  0  0  0  0  0  0
   48.0550   30.9890   42.7600 C   0  0  0  0  0  0  0  0  0  0  0  0
   49.0040   31.3180   41.8140 C   0  0  0  0  0  0  0  0  0  0  0  0
   49.5150   32.5480   41.8060 N   0  0  0  0  0  0  0  0  0  0  0  0
   49.1770   33.5300   42.6640 C   0  0  0  0  0  0  0  0  0  0  0  0
   48.2490   33.2390   43.6060 N   0  0  0  0  0  0  0  0  0  0  0  0
   47.6980   31.9900   43.6520 C   0  0  0  0  0  0  0  0  0  0  0  0
   45.0370   34.1970   46.2430 C   0  0  0  0  0  0  0  0  0  0  0  0
   45.6520   33.4680   45.2180 C   0  0  0  0  0  0  0  0  0  0  0  0
   46.1580   32.1800   45.5310 C   0  0  0  0  0  0  0  0  0  0  0  0
   46.0090   31.7510   46.8040 N   0  0  0  0  0  0  0  0  0  0  0  0
   45.4160   32.4720   47.7630 C   0  0  0  0  0  0  0  0  0  0  0  0
   44.9300   33.6900   47.4890 N   0  0  0  0  0  0  0  0  0  0  0  0
   44.4900   35.4880   46.0640 N   0  0  0  0  0  0  0  0  0  0  0  0
   49.8270   34.8320   42.5300 C   0  0  0  0  0  0  0  0  0  0  0  0
   49.0570   35.7920   41.6580 C   0  0  0  0  0  0  0  0  0  0  0  0
   48.2270   34.9350   40.2950 S   0  0  0  0  0  0  0  0  0  0  0  0
   45.8483   29.4842   44.6097 H   0  0  0  0  0  0  0  0  0  0  0  0
   49.3347   30.5732   41.0751 H   0  0  0  0  0  0  0  0  0  0  0  0
   45.7401   33.8808   44.2022 H   0  0  0  0  0  0  0  0  0  0  0  0
   45.3273   32.0629   48.7802 H   0  0  0  0  0  0  0  0  0  0  0  0
   44.5331   35.9421   45.1405 H   0  0  0  0  0  0  0  0  0  0  0  0
   44.0483   35.9747   46.8571 H   0  0  0  0  0  0  0  0  0  0  0  0
   49.9315   35.2756   43.5312 H   0  0  0  0  0  0  0  0  0  0  0  0
   50.8021   34.6633   42.0497 H   0  0  0  0  0  0  0  0  0  0  0  0
   48.3007   36.3036   42.2714 H   0  0  0  0  0  0  0  0  0  0  0  0
   49.7680   36.5134   41.2290 H   0  0  0  0  0  0  0  0  0  0  0  0
   47.3416   34.0208   40.8021 H   0  0  0  0  0  0  0  0  0  0  0  0
  1 12  1  0
  2  1  1  0
  3  2  2  0
  4  3  1  0
  4  9  2  0
  5  4  1  0
  6  5  2  0
  6  7  1  0
  7  8  2  0
  8  9  1  0
  9  1  1  0
 10 15  2  0
 11 12  2  0
 11 10  1  0
 12 13  1  0
 13 14  2  0
 15 14  1  0
 16 10  1  0
 17  7  1  0
 18 17  1  0
 19 18  1  0
  2 20  1  0
  5 21  1  0
 11 22  1  0
 14 23  1  0
 16 24  1  0
 16 25  1  0
 17 26  1  0
 17 27  1  0
 18 28  1  0
 18 29  1  0
 19 30  1  0
M  ISO  8  20  14  21  14  22  14  23  14  26   8  27   8  28   8  29   8
M  ISO  1  30  11
M  END
>  <minimizedAffinity>  (1) 
-4.54122019

>  <minimizedRMSD>  (1) 
0.996568918

$$$$
