
     RDKit          3D

 28 28  0  0  0  0  0  0  0  0999 V2000
   48.6700   34.7870   41.6160 C   0  0  0  0  0  0  0  0  0  0  0  0
   45.2540   34.9000   43.2950 C   0  0  0  0  0  0  0  0  0  0  0  0
   46.2520   35.1910   42.3320 C   0  0  0  0  0  0  0  0  0  0  0  0
   47.5150   34.5780   42.5310 C   0  0  0  0  0  0  0  0  0  0  0  0
   47.6940   33.7650   43.6070 N   0  0  0  0  0  0  0  0  0  0  0  0
   46.6990   33.5210   44.4980 C   0  0  0  0  0  0  0  0  0  0  0  0
   45.4860   34.0910   44.3360 N   0  0  0  0  0  0  0  0  0  0  0  0
   43.9550   35.5750   43.0260 C   0  0  0  0  0  0  0  0  0  0  0  0
   43.6630   35.6050   41.5490 C   0  0  0  0  0  0  0  0  0  0  0  0
   48.2000   34.4710   40.2160 C   0  0  0  0  0  0  0  0  0  0  0  0
   49.7540   33.8120   41.9780 C   0  0  0  0  0  0  0  0  0  0  0  0
   49.2520   36.1690   41.6920 C   0  0  0  0  0  0  0  0  0  0  0  0
   46.0576   35.8557   41.4774 H   0  0  0  0  0  0  0  0  0  0  0  0
   46.8819   32.8563   45.3552 H   0  0  0  0  0  0  0  0  0  0  0  0
   43.1513   35.0287   43.5414 H   0  0  0  0  0  0  0  0  0  0  0  0
   44.0126   36.6097   43.3948 H   0  0  0  0  0  0  0  0  0  0  0  0
   42.5800   35.7163   41.3915 H   0  0  0  0  0  0  0  0  0  0  0  0
   44.1896   36.4538   41.0883 H   0  0  0  0  0  0  0  0  0  0  0  0
   44.0060   34.6669   41.0883 H   0  0  0  0  0  0  0  0  0  0  0  0
   47.2880   33.8579   40.2650 H   0  0  0  0  0  0  0  0  0  0  0  0
   47.9837   35.4078   39.6816 H   0  0  0  0  0  0  0  0  0  0  0  0
   48.9859   33.9171   39.6816 H   0  0  0  0  0  0  0  0  0  0  0  0
   49.8328   33.7411   43.0729 H   0  0  0  0  0  0  0  0  0  0  0  0
   49.5109   32.8227   41.5631 H   0  0  0  0  0  0  0  0  0  0  0  0
   50.7121   34.1582   41.5631 H   0  0  0  0  0  0  0  0  0  0  0  0
   49.3738   36.4581   42.7463 H   0  0  0  0  0  0  0  0  0  0  0  0
   50.2321   36.1821   41.1927 H   0  0  0  0  0  0  0  0  0  0  0  0
   48.5766   36.8793   41.1927 H   0  0  0  0  0  0  0  0  0  0  0  0
  1 12  1  0
  1 11  1  0
  1  4  1  0
  2  7  2  0
  3  4  2  0
  3  2  1  0
  4  5  1  0
  5  6  2  0
  7  6  1  0
  8  2  1  0
  9  8  1  0
 10  1  1  0
  3 13  1  0
  6 14  1  0
  8 15  1  0
  8 16  1  0
  9 17  1  0
  9 18  1  0
  9 19  1  0
 10 20  1  0
 10 21  1  0
 10 22  1  0
 11 23  1  0
 11 24  1  0
 11 25  1  0
 12 26  1  0
 12 27  1  0
 12 28  1  0
M  ISO  8  13  14  14  14  15   8  16   8  17   8  18   8  19   8  20   8
M  ISO  8  21   8  22   8  23   8  24   8  25   8  26   8  27   8  28   8
M  END
>  <minimizedAffinity>  (1) 
-4.27811241

>  <minimizedRMSD>  (1) 
1.76381469

$$$$
