
     RDKit          3D

 24 24  0  0  0  0  0  0  0  0999 V2000
   48.0750   34.6580   41.2060 C   0  0  0  0  0  0  0  0  0  0  0  0
   44.9220   35.3770   43.1930 C   0  0  0  0  0  0  0  0  0  0  0  0
   46.3020   35.3260   42.8900 C   0  0  0  0  0  0  0  0  0  0  0  0
   46.6670   34.7710   41.6480 C   0  0  0  0  0  0  0  0  0  0  0  0
   45.6960   34.3110   40.7990 N   0  0  0  0  0  0  0  0  0  0  0  0
   44.3810   34.3890   41.1520 C   0  0  0  0  0  0  0  0  0  0  0  0
   44.0020   34.9120   42.3290 N   0  0  0  0  0  0  0  0  0  0  0  0
   44.6160   35.9630   44.4940 C   0  0  0  0  0  0  0  0  0  0  0  0
   44.5700   35.3520   45.5720 O   0  0  0  0  0  0  0  0  0  0  0  0
   48.0540   34.3720   39.7040 C   0  0  0  0  0  0  0  0  0  0  0  0
   48.6950   33.4330   41.8450 C   0  0  0  0  0  0  0  0  0  0  0  0
   48.9370   35.8180   41.5220 C   0  0  0  0  0  0  0  0  0  0  0  0
   47.0582   35.7036   43.5940 H   0  0  0  0  0  0  0  0  0  0  0  0
   43.6143   34.0153   40.4574 H   0  0  0  0  0  0  0  0  0  0  0  0
   44.4076   37.0428   44.5207 H   0  0  0  0  0  0  0  0  0  0  0  0
   47.9744   33.2875   39.5383 H   0  0  0  0  0  0  0  0  0  0  0  0
   47.1905   34.8772   39.2466 H   0  0  0  0  0  0  0  0  0  0  0  0
   48.9820   34.7456   39.2466 H   0  0  0  0  0  0  0  0  0  0  0  0
   48.6475   33.5268   42.9400 H   0  0  0  0  0  0  0  0  0  0  0  0
   48.1426   32.5356   41.5296 H   0  0  0  0  0  0  0  0  0  0  0  0
   49.7453   33.3468   41.5296 H   0  0  0  0  0  0  0  0  0  0  0  0
   49.0185   35.9277   42.6135 H   0  0  0  0  0  0  0  0  0  0  0  0
   49.9376   35.6587   41.0937 H   0  0  0  0  0  0  0  0  0  0  0  0
   48.4958   36.7301   41.0937 H   0  0  0  0  0  0  0  0  0  0  0  0
  1 12  1  0
  1  4  1  0
  1 11  1  0
  2  8  1  0
  3  2  2  0
  4  3  1  0
  5  6  1  0
  5  4  2  0
  6  7  2  0
  7  2  1  0
  8  9  2  0
 10  1  1  0
  3 13  1  0
  6 14  1  0
  8 15  1  0
 10 16  1  0
 10 17  1  0
 10 18  1  0
 11 19  1  0
 11 20  1  0
 11 21  1  0
 12 22  1  0
 12 23  1  0
 12 24  1  0
M  ISO  8  13  14  14  14  15   6  16   8  17   8  18   8  19   8  20   8
M  ISO  4  21   8  22   8  23   8  24   8
M  END
>  <minimizedAffinity>  (1) 
-4.5635767

>  <minimizedRMSD>  (1) 
2.35391068

$$$$
