
     RDKit          3D

 26 26  0  0  0  0  0  0  0  0999 V2000
   48.1790   34.6550   41.3410 C   0  0  0  0  0  0  0  0  0  0  0  0
   44.9660   35.3910   43.2000 C   0  0  0  0  0  0  0  0  0  0  0  0
   46.3560   35.3320   42.9680 C   0  0  0  0  0  0  0  0  0  0  0  0
   46.7690   34.7920   41.7420 C   0  0  0  0  0  0  0  0  0  0  0  0
   45.8250   34.3560   40.8430 N   0  0  0  0  0  0  0  0  0  0  0  0
   44.4980   34.4450   41.1340 C   0  0  0  0  0  0  0  0  0  0  0  0
   44.0790   34.9570   42.3010 N   0  0  0  0  0  0  0  0  0  0  0  0
   44.6210   35.9690   44.5060 C   0  0  0  0  0  0  0  0  0  0  0  0
   44.5670   35.3580   45.5850 O   0  0  0  0  0  0  0  0  0  0  0  0
   48.2430   34.5500   39.8270 C   0  0  0  0  0  0  0  0  0  0  0  0
   48.7160   33.3390   41.8820 C   0  0  0  0  0  0  0  0  0  0  0  0
   49.0830   35.7270   41.8390 C   0  0  0  0  0  0  0  0  0  0  0  0
   50.0150   35.2130   42.8470 N   0  0  0  0  0  0  0  0  0  0  0  0
   47.0808   35.6922   43.7129 H   0  0  0  0  0  0  0  0  0  0  0  0
   43.7580   34.0916   40.4009 H   0  0  0  0  0  0  0  0  0  0  0  0
   44.3888   37.0440   44.5297 H   0  0  0  0  0  0  0  0  0  0  0  0
   48.7964   33.6420   39.5455 H   0  0  0  0  0  0  0  0  0  0  0  0
   47.2225   34.4985   39.4196 H   0  0  0  0  0  0  0  0  0  0  0  0
   48.7564   35.4334   39.4196 H   0  0  0  0  0  0  0  0  0  0  0  0
   48.7061   33.3633   42.9817 H   0  0  0  0  0  0  0  0  0  0  0  0
   48.0836   32.5116   41.5278 H   0  0  0  0  0  0  0  0  0  0  0  0
   49.7467   33.1903   41.5278 H   0  0  0  0  0  0  0  0  0  0  0  0
   49.6578   36.1324   40.9933 H   0  0  0  0  0  0  0  0  0  0  0  0
   48.4677   36.5117   42.3035 H   0  0  0  0  0  0  0  0  0  0  0  0
   49.6486   35.4151   43.7882 H   0  0  0  0  0  0  0  0  0  0  0  0
   50.1195   34.1950   42.7305 H   0  0  0  0  0  0  0  0  0  0  0  0
  1  4  1  0
  1 12  1  0
  1 11  1  0
  2  8  1  0
  3  2  2  0
  4  3  1  0
  5  6  1  0
  5  4  2  0
  6  7  2  0
  7  2  1  0
  8  9  2  0
 10  1  1  0
 12 13  1  0
  3 14  1  0
  6 15  1  0
  8 16  1  0
 10 17  1  0
 10 18  1  0
 10 19  1  0
 11 20  1  0
 11 21  1  0
 11 22  1  0
 12 23  1  0
 12 24  1  0
 13 25  1  0
 13 26  1  0
M  ISO  8  14  14  15  14  16   6  17   8  18   8  19   8  20   8  21   8
M  ISO  5  22   8  23   8  24   8  25   5  26   5
M  END
>  <minimizedAffinity>  (1) 
-4.88293791

>  <minimizedRMSD>  (1) 
0.549189329

$$$$
