
     RDKit          3D

 31 32  0  0  0  0  0  0  0  0999 V2000
   46.6720   33.7170   40.7450 C   0  0  0  0  0  0  0  0  0  0  0  0
   44.3840   35.4270   43.2300 C   0  0  0  0  0  0  0  0  0  0  0  0
   45.5570   34.8270   42.7310 C   0  0  0  0  0  0  0  0  0  0  0  0
   45.5290   34.3610   41.4010 C   0  0  0  0  0  0  0  0  0  0  0  0
   44.3750   34.5140   40.6690 N   0  0  0  0  0  0  0  0  0  0  0  0
   43.2750   35.1060   41.2180 C   0  0  0  0  0  0  0  0  0  0  0  0
   43.2840   35.5550   42.4860 N   0  0  0  0  0  0  0  0  0  0  0  0
   44.4850   35.8860   44.6170 C   0  0  0  0  0  0  0  0  0  0  0  0
   44.6220   35.1920   45.6240 O   0  0  0  0  0  0  0  0  0  0  0  0
   46.1990   33.2090   39.3890 C   0  0  0  0  0  0  0  0  0  0  0  0
   47.0610   32.4900   41.5380 C   0  0  0  0  0  0  0  0  0  0  0  0
   47.8830   34.5700   40.5990 C   0  0  0  0  0  0  0  0  0  0  0  0
   48.3740   35.2000   41.8640 C   0  0  0  0  0  0  0  0  0  0  0  0
   49.3940   36.3500   41.6170 C   0  0  0  0  0  0  0  0  0  0  0  0
   49.7630   35.0680   42.3460 C   0  0  0  0  0  0  0  0  0  0  0  0
   46.4580   34.7263   43.3539 H   0  0  0  0  0  0  0  0  0  0  0  0
   42.3637   35.2182   40.6123 H   0  0  0  0  0  0  0  0  0  0  0  0
   44.4325   36.9731   44.7766 H   0  0  0  0  0  0  0  0  0  0  0  0
   45.4561   32.4111   39.5352 H   0  0  0  0  0  0  0  0  0  0  0  0
   45.7424   34.0366   38.8263 H   0  0  0  0  0  0  0  0  0  0  0  0
   47.0570   32.8125   38.8263 H   0  0  0  0  0  0  0  0  0  0  0  0
   46.9909   32.7110   42.6133 H   0  0  0  0  0  0  0  0  0  0  0  0
   46.3814   31.6617   41.2888 H   0  0  0  0  0  0  0  0  0  0  0  0
   48.0937   32.2046   41.2888 H   0  0  0  0  0  0  0  0  0  0  0  0
   48.6925   33.9454   40.1933 H   0  0  0  0  0  0  0  0  0  0  0  0
   47.5944   35.3994   39.9366 H   0  0  0  0  0  0  0  0  0  0  0  0
   47.4159   35.0276   42.3761 H   0  0  0  0  0  0  0  0  0  0  0  0
   49.7784   36.5461   40.6052 H   0  0  0  0  0  0  0  0  0  0  0  0
   49.4423   37.4275   41.8332 H   0  0  0  0  0  0  0  0  0  0  0  0
   49.9677   35.0977   43.4264 H   0  0  0  0  0  0  0  0  0  0  0  0
   50.5494   34.3115   42.2072 H   0  0  0  0  0  0  0  0  0  0  0  0
  1  4  1  0
  1 11  1  0
  2  8  1  0
  3  2  2  0
  4  3  1  0
  5  6  1  0
  5  4  2  0
  6  7  2  0
  7  2  1  0
  8  9  2  0
 10  1  1  0
 12  1  1  0
 12 13  1  0
 13 15  1  0
 14 13  1  0
 14 15  1  0
  3 16  1  0
  6 17  1  0
  8 18  1  0
 10 19  1  0
 10 20  1  0
 10 21  1  0
 11 22  1  0
 11 23  1  0
 11 24  1  0
 12 25  1  0
 12 26  1  0
 13 27  1  0
 14 28  1  0
 14 29  1  0
 15 30  1  0
 15 31  1  0
M  ISO  8  16  14  17  14  18   6  19   8  20   8  21   8  22   8  23   8
M  ISO  8  24   8  25   8  26   8  27  13  28  13  29  13  30  13  31  13
M  END
>  <minimizedAffinity>  (1) 
-4.70848083

>  <minimizedRMSD>  (1) 
1.72906184

$$$$
