
     RDKit          3D

 25 25  0  0  0  0  0  0  0  0999 V2000
   47.7560   34.4050   41.2670 C   0  0  0  0  0  0  0  0  0  0  0  0
   44.7500   35.4120   43.3450 C   0  0  0  0  0  0  0  0  0  0  0  0
   46.0940   35.1790   43.0140 C   0  0  0  0  0  0  0  0  0  0  0  0
   46.3920   34.6890   41.7360 C   0  0  0  0  0  0  0  0  0  0  0  0
   45.3490   34.4590   40.8660 N   0  0  0  0  0  0  0  0  0  0  0  0
   44.0680   34.7030   41.2440 C   0  0  0  0  0  0  0  0  0  0  0  0
   43.7710   35.1720   42.4650 N   0  0  0  0  0  0  0  0  0  0  0  0
   44.5250   35.9240   44.6980 C   0  0  0  0  0  0  0  0  0  0  0  0
   44.5640   35.2720   45.7440 O   0  0  0  0  0  0  0  0  0  0  0  0
   47.6560   34.0050   39.7990 C   0  0  0  0  0  0  0  0  0  0  0  0
   48.2820   33.1780   41.9790 C   0  0  0  0  0  0  0  0  0  0  0  0
   48.7260   35.5050   41.4400 C   0  0  0  0  0  0  0  0  0  0  0  0
   49.1300   35.9190   40.1720 O   0  0  0  0  0  0  0  0  0  0  0  0
   46.8950   35.3767   43.7416 H   0  0  0  0  0  0  0  0  0  0  0  0
   43.2529   34.5112   40.5307 H   0  0  0  0  0  0  0  0  0  0  0  0
   44.2988   36.9965   44.7907 H   0  0  0  0  0  0  0  0  0  0  0  0
   47.3898   32.9402   39.7264 H   0  0  0  0  0  0  0  0  0  0  0  0
   46.8817   34.6110   39.3058 H   0  0  0  0  0  0  0  0  0  0  0  0
   48.6244   34.1753   39.3058 H   0  0  0  0  0  0  0  0  0  0  0  0
   48.2172   33.3292   43.0666 H   0  0  0  0  0  0  0  0  0  0  0  0
   47.6801   32.3025   41.6940 H   0  0  0  0  0  0  0  0  0  0  0  0
   49.3311   33.0102   41.6940 H   0  0  0  0  0  0  0  0  0  0  0  0
   48.2517   36.3419   41.9736 H   0  0  0  0  0  0  0  0  0  0  0  0
   49.5917   35.1655   42.0277 H   0  0  0  0  0  0  0  0  0  0  0  0
   49.8187   36.6248   40.2592 H   0  0  0  0  0  0  0  0  0  0  0  0
  1 12  1  0
  1  4  1  0
  1 11  1  0
  2  8  1  0
  3  2  2  0
  4  3  1  0
  5  6  1  0
  5  4  2  0
  6  7  2  0
  7  2  1  0
  8  9  2  0
 10  1  1  0
 13 12  1  0
  3 14  1  0
  6 15  1  0
  8 16  1  0
 10 17  1  0
 10 18  1  0
 10 19  1  0
 11 20  1  0
 11 21  1  0
 11 22  1  0
 12 23  1  0
 12 24  1  0
 13 25  1  0
M  ISO  8  14  14  15  14  16   6  17   8  18   8  19   8  20   8  21   8
M  ISO  4  22   8  23   8  24   8  25   3
M  END
>  <minimizedAffinity>  (1) 
-4.57791281

>  <minimizedRMSD>  (1) 
0.535162985

$$$$
