
     RDKit          3D

 44 47  0  0  1  0  0  0  0  0999 V2000
   47.2370   32.4450   44.6010 C   0  0  0  0  0  0  0  0  0  0  0  0
   46.6910   33.6430   44.0740 C   0  0  0  0  0  0  0  0  0  0  0  0
   45.7340   34.2570   44.8710 C   0  0  0  0  0  0  0  0  0  0  0  0
   45.3780   33.7170   46.0630 N   0  0  0  0  0  0  0  0  0  0  0  0
   45.9320   32.5790   46.5120 C   0  0  0  0  0  0  0  0  0  0  0  0
   46.8440   31.9400   45.8120 N   0  0  0  0  0  0  0  0  0  0  0  0
   47.2180   34.0220   42.8060 C   0  0  0  0  0  0  0  0  0  0  0  0
   48.3120   34.8190   42.8960 N   0  0  0  0  0  0  0  0  0  0  0  0
   48.9500   35.2780   41.7920 C   0  0  0  0  0  0  0  0  0  0  0  0
   48.5290   34.9660   40.5350 N   0  0  0  0  0  0  0  0  0  0  0  0
   47.4360   34.1700   40.4050 C   0  0  0  0  0  0  0  0  0  0  0  0
   46.8930   33.7700   39.1950 C   0  0  0  0  0  0  0  0  0  0  0  0
   45.8060   32.9790   39.0940 C   0  0  0  0  0  0  0  0  0  0  0  0
   45.1950   32.5390   40.2490 C   0  0  0  0  0  0  0  0  0  0  0  0
   45.6780   32.8960   41.4790 C   0  0  0  0  0  0  0  0  0  0  0  0
   46.7910   33.7070   41.5230 C   0  0  0  0  0  0  0  0  0  0  0  0
   45.5030   32.0660   47.8050 C   0  0  1  0  0  0  0  0  0  0  0  0
   45.0870   30.5630   47.7160 C   0  0  0  0  0  0  0  0  0  0  0  0
   46.5220   32.2010   48.8930 C   0  0  0  0  0  0  0  0  0  0  0  0
   47.1190   31.0040   49.0800 O   0  0  0  0  0  0  0  0  0  0  0  0
   48.4380   30.6020   48.9990 C   0  0  0  0  0  0  0  0  0  0  0  0
   48.9740   30.2270   47.9190 O   0  0  0  0  0  0  0  0  0  0  0  0
   49.1810   30.6190   50.1620 O   0  0  0  0  0  0  0  0  0  0  0  0
   50.4650   31.3100   50.1940 C   0  0  0  0  0  0  0  0  0  0  0  0
   50.9090   31.7010   51.4370 C   0  0  0  0  0  0  0  0  0  0  0  0
   52.0910   32.3040   51.2090 N   0  0  0  0  0  0  0  0  0  0  0  0
   52.3440   32.2760   49.8830 C   0  0  0  0  0  0  0  0  0  0  0  0
   51.3390   31.6580   49.2320 N   0  0  0  0  0  0  0  0  0  0  0  0
   47.9990   31.9051   44.0198 H   0  0  0  0  0  0  0  0  0  0  0  0
   45.2602   35.1902   44.5324 H   0  0  0  0  0  0  0  0  0  0  0  0
   49.8337   35.9214   41.9148 H   0  0  0  0  0  0  0  0  0  0  0  0
   47.3739   34.1159   38.2681 H   0  0  0  0  0  0  0  0  0  0  0  0
   45.4136   32.6898   38.1079 H   0  0  0  0  0  0  0  0  0  0  0  0
   44.3076   31.8925   40.1811 H   0  0  0  0  0  0  0  0  0  0  0  0
   45.1932   32.5467   42.4026 H   0  0  0  0  0  0  0  0  0  0  0  0
   44.6418   32.6970   48.0701 H   0  0  0  0  0  0  0  0  0  0  0  0
   44.9736   30.1532   48.7305 H   0  0  0  0  0  0  0  0  0  0  0  0
   44.1316   30.4782   47.1774 H   0  0  0  0  0  0  0  0  0  0  0  0
   45.8628   29.9991   47.1774 H   0  0  0  0  0  0  0  0  0  0  0  0
   47.2751   32.9488   48.6037 H   0  0  0  0  0  0  0  0  0  0  0  0
   46.0344   32.5254   49.8241 H   0  0  0  0  0  0  0  0  0  0  0  0
   50.4077   31.5531   52.4049 H   0  0  0  0  0  0  0  0  0  0  0  0
   53.2403   32.6966   49.4038 H   0  0  0  0  0  0  0  0  0  0  0  0
   51.2576   31.4889   48.2192 H   0  0  0  0  0  0  0  0  0  0  0  0
  1  6  2  0
  2  1  1  0
  2  3  2  0
  3  4  1  0
  4  5  2  0
  5 17  1  0
  6  5  1  0
  7  8  2  0
  7  2  1  0
  9  8  1  0
 10  9  2  0
 11 10  1  0
 11 16  2  0
 12 11  1  0
 13 12  2  0
 13 14  1  0
 14 15  2  0
 15 16  1  0
 16  7  1  0
 17 19  1  0
 18 17  1  0
 19 20  1  0
 21 20  1  0
 21 23  1  0
 22 21  2  0
 23 24  1  0
 24 25  2  0
 26 25  1  0
 27 26  2  0
 28 27  1  0
 28 24  1  0
  1 29  1  0
  3 30  1  0
  9 31  1  0
 12 32  1  0
 13 33  1  0
 14 34  1  0
 15 35  1  0
 17 36  1  1
 18 37  1  0
 18 38  1  0
 18 39  1  0
 19 40  1  0
 19 41  1  0
 25 42  1  0
 27 43  1  0
 28 44  1  0
M  ISO  8  29  14  30  14  31  14  32  14  33  14  34  14  35  14  36   8
M  ISO  8  37   8  38   8  39   8  40   8  41   8  42  14  43  14  44   9
M  END
>  <minimizedAffinity>  (1) 
-5.56007862

>  <minimizedRMSD>  (1) 
4.75670958

$$$$
