
     RDKit          3D

 32 33  0  0  0  0  0  0  0  0999 V2000
   47.9590   34.4150   41.1350 C   0  0  0  0  0  0  0  0  0  0  0  0
   44.1910   34.7960   41.3480 C   0  0  0  0  0  0  0  0  0  0  0  0
   45.4370   34.4120   40.8380 C   0  0  0  0  0  0  0  0  0  0  0  0
   46.5920   34.7600   41.5640 C   0  0  0  0  0  0  0  0  0  0  0  0
   46.4370   35.4630   42.7410 N   0  0  0  0  0  0  0  0  0  0  0  0
   45.1960   35.8060   43.1810 C   0  0  0  0  0  0  0  0  0  0  0  0
   44.0970   35.4810   42.5020 N   0  0  0  0  0  0  0  0  0  0  0  0
   43.0360   34.3940   40.5330 C   0  0  0  0  0  0  0  0  0  0  0  0
   42.4590   35.0760   39.6950 O   0  0  0  0  0  0  0  0  0  0  0  0
   48.8590   35.5750   41.5470 C   0  0  0  0  0  0  0  0  0  0  0  0
   48.0110   34.3720   39.6320 C   0  0  0  0  0  0  0  0  0  0  0  0
   48.4790   33.1320   41.6540 C   0  0  0  0  0  0  0  0  0  0  0  0
   49.8770   33.2370   41.7180 O   0  0  0  0  0  0  0  0  0  0  0  0
   50.3310   32.0170   41.2220 C   0  0  0  0  0  0  0  0  0  0  0  0
   51.7150   31.7450   40.8410 C   0  0  0  0  0  0  0  0  0  0  0  0
   51.2910   31.3390   42.2060 C   0  0  0  0  0  0  0  0  0  0  0  0
   45.5117   33.8525   39.8939 H   0  0  0  0  0  0  0  0  0  0  0  0
   45.0976   36.3665   44.1224 H   0  0  0  0  0  0  0  0  0  0  0  0
   42.6501   33.3762   40.6919 H   0  0  0  0  0  0  0  0  0  0  0  0
   48.9036   35.6325   42.6446 H   0  0  0  0  0  0  0  0  0  0  0  0
   49.8709   35.4141   41.1468 H   0  0  0  0  0  0  0  0  0  0  0  0
   48.4517   36.5152   41.1468 H   0  0  0  0  0  0  0  0  0  0  0  0
   48.8221   33.7013   39.3122 H   0  0  0  0  0  0  0  0  0  0  0  0
   47.0521   33.9995   39.2424 H   0  0  0  0  0  0  0  0  0  0  0  0
   48.1968   35.3838   39.2424 H   0  0  0  0  0  0  0  0  0  0  0  0
   48.0707   32.9398   42.6572 H   0  0  0  0  0  0  0  0  0  0  0  0
   48.1831   32.3006   40.9973 H   0  0  0  0  0  0  0  0  0  0  0  0
   49.3975   31.8320   40.6704 H   0  0  0  0  0  0  0  0  0  0  0  0
   51.9283   30.9729   40.0871 H   0  0  0  0  0  0  0  0  0  0  0  0
   52.5341   32.3672   40.4513 H   0  0  0  0  0  0  0  0  0  0  0  0
   51.6596   31.8839   43.0876 H   0  0  0  0  0  0  0  0  0  0  0  0
   51.2955   30.4070   42.7903 H   0  0  0  0  0  0  0  0  0  0  0  0
  1 10  1  0
  1  4  1  0
  1 12  1  0
  2  7  2  0
  3  2  1  0
  3  4  2  0
  4  5  1  0
  5  6  2  0
  7  6  1  0
  8  2  1  0
  9  8  2  0
 11  1  1  0
 12 13  1  0
 14 13  1  0
 14 16  1  0
 15 14  1  0
 15 16  1  0
  3 17  1  0
  6 18  1  0
  8 19  1  0
 10 20  1  0
 10 21  1  0
 10 22  1  0
 11 23  1  0
 11 24  1  0
 11 25  1  0
 12 26  1  0
 12 27  1  0
 14 28  1  0
 15 29  1  0
 15 30  1  0
 16 31  1  0
 16 32  1  0
M  ISO  8  17  14  18  14  19   6  20   8  21   8  22   8  23   8  24   8
M  ISO  8  25   8  26   8  27   8  28  13  29  13  30  13  31  13  32  13
M  END
>  <minimizedAffinity>  (1) 
-4.13412333

>  <minimizedRMSD>  (1) 
3.86983252

$$$$
