
     RDKit          3D

 31 31  0  0  0  0  0  0  0  0999 V2000
   45.6480   33.9350   41.7420 C   0  0  0  0  0  0  0  0  0  0  0  0
   45.4460   33.9370   45.5200 C   0  0  0  0  0  0  0  0  0  0  0  0
   45.7540   33.5000   44.2200 C   0  0  0  0  0  0  0  0  0  0  0  0
   45.3750   34.3010   43.1350 C   0  0  0  0  0  0  0  0  0  0  0  0
   44.7190   35.4820   43.3930 N   0  0  0  0  0  0  0  0  0  0  0  0
   44.4470   35.8570   44.6690 C   0  0  0  0  0  0  0  0  0  0  0  0
   44.8050   35.0960   45.7190 N   0  0  0  0  0  0  0  0  0  0  0  0
   45.8720   33.0500   46.5970 C   0  0  0  0  0  0  0  0  0  0  0  0
   45.2640   32.8060   47.6410 O   0  0  0  0  0  0  0  0  0  0  0  0
   44.6210   34.6750   40.8750 C   0  0  0  0  0  0  0  0  0  0  0  0
   45.3140   32.4670   41.5320 C   0  0  0  0  0  0  0  0  0  0  0  0
   47.0120   34.1950   41.2500 C   0  0  0  0  0  0  0  0  0  0  0  0
   47.4790   35.3480   41.8450 O   0  0  0  0  0  0  0  0  0  0  0  0
   48.7960   35.6340   41.6040 C   0  0  0  0  0  0  0  0  0  0  0  0
   49.7970   34.9540   42.4840 C   0  0  0  0  0  0  0  0  0  0  0  0
   46.2818   32.5486   44.0580 H   0  0  0  0  0  0  0  0  0  0  0  0
   43.9211   36.8062   44.8488 H   0  0  0  0  0  0  0  0  0  0  0  0
   46.8398   32.5446   46.4630 H   0  0  0  0  0  0  0  0  0  0  0  0
   43.9001   35.1944   41.5234 H   0  0  0  0  0  0  0  0  0  0  0  0
   45.1384   35.4092   40.2400 H   0  0  0  0  0  0  0  0  0  0  0  0
   44.0882   33.9519   40.2400 H   0  0  0  0  0  0  0  0  0  0  0  0
   45.2017   31.9732   42.5085 H   0  0  0  0  0  0  0  0  0  0  0  0
   44.3736   32.3820   40.9678 H   0  0  0  0  0  0  0  0  0  0  0  0
   46.1251   31.9835   40.9678 H   0  0  0  0  0  0  0  0  0  0  0  0
   47.6677   33.3511   41.5106 H   0  0  0  0  0  0  0  0  0  0  0  0
   47.0024   34.3123   40.1563 H   0  0  0  0  0  0  0  0  0  0  0  0
   49.0156   35.3484   40.5647 H   0  0  0  0  0  0  0  0  0  0  0  0
   48.9046   36.7082   41.8143 H   0  0  0  0  0  0  0  0  0  0  0  0
   49.5378   35.1301   43.5384 H   0  0  0  0  0  0  0  0  0  0  0  0
   49.7899   33.8731   42.2803 H   0  0  0  0  0  0  0  0  0  0  0  0
   50.7993   35.3589   42.2803 H   0  0  0  0  0  0  0  0  0  0  0  0
  1  4  1  0
  2  7  2  0
  2  8  1  0
  3  2  1  0
  4  5  1  0
  4  3  2  0
  5  6  2  0
  6  7  1  0
  8  9  2  0
 10  1  1  0
 11  1  1  0
 12  1  1  0
 12 13  1  0
 14 13  1  0
 14 15  1  0
  3 16  1  0
  6 17  1  0
  8 18  1  0
 10 19  1  0
 10 20  1  0
 10 21  1  0
 11 22  1  0
 11 23  1  0
 11 24  1  0
 12 25  1  0
 12 26  1  0
 14 27  1  0
 14 28  1  0
 15 29  1  0
 15 30  1  0
 15 31  1  0
M  ISO  8  16  14  17  14  18   6  19   8  20   8  21   8  22   8  23   8
M  ISO  8  24   8  25   8  26   8  27   8  28   8  29   8  30   8  31   8
M  END
>  <minimizedAffinity>  (1) 
-4.24850941

>  <minimizedRMSD>  (1) 
2.98011971

$$$$
