
     RDKit          3D

 45 48  0  0  1  0  0  0  0  0999 V2000
   47.8410   34.4130   42.9060 C   0  0  0  0  0  0  0  0  0  0  0  0
   48.8830   34.6240   41.8480 C   0  0  0  0  0  0  0  0  0  0  0  0
   48.0380   33.2300   38.4180 C   0  0  0  0  0  0  0  0  0  0  0  0
   48.0850   34.1540   39.4720 C   0  0  0  0  0  0  0  0  0  0  0  0
   48.7410   33.7820   40.6580 C   0  0  0  0  0  0  0  0  0  0  0  0
   49.2980   32.5330   40.7130 N   0  0  0  0  0  0  0  0  0  0  0  0
   49.2220   31.6790   39.6580 C   0  0  0  0  0  0  0  0  0  0  0  0
   48.6090   32.0130   38.5360 N   0  0  0  0  0  0  0  0  0  0  0  0
   47.3330   33.7030   37.2140 C   0  0  0  0  0  0  0  0  0  0  0  0
   46.1800   33.4530   36.9010 O   0  0  0  0  0  0  0  0  0  0  0  0
   49.0350   36.0520   41.4340 C   0  0  0  0  0  0  0  0  0  0  0  0
   50.2010   34.2620   42.5360 C   0  0  0  0  0  0  0  0  0  0  0  0
   46.6630   34.9940   42.3670 O   0  0  0  0  0  0  0  0  0  0  0  0
   45.8260   35.0490   43.4670 C   0  0  1  0  0  0  0  0  0  0  0  0
   44.7690   36.0380   43.5990 C   0  0  0  0  0  0  0  0  0  0  0  0
   44.3680   34.7090   43.1120 C   0  0  1  0  0  0  0  0  0  0  0  0
   44.0310   34.4660   41.7290 N   0  0  0  0  0  0  0  0  0  0  0  0
   44.6860   33.8220   40.7450 C   0  0  0  0  0  0  0  0  0  0  0  0
   43.9420   33.8700   39.6100 N   0  0  0  0  0  0  0  0  0  0  0  0
   42.8190   34.5450   39.8740 C   0  0  0  0  0  0  0  0  0  0  0  0
   41.6860   34.9290   39.1640 C   0  0  0  0  0  0  0  0  0  0  0  0
   40.6680   35.6330   39.7110 N   0  0  0  0  0  0  0  0  0  0  0  0
   40.7480   35.9870   41.0160 C   0  0  0  0  0  0  0  0  0  0  0  0
   41.8210   35.6370   41.7300 N   0  0  0  0  0  0  0  0  0  0  0  0
   42.8590   34.9270   41.2030 C   0  0  0  0  0  0  0  0  0  0  0  0
   41.5830   34.5670   37.7960 N   0  0  0  0  0  0  0  0  0  0  0  0
   47.6928   33.3399   43.0969 H   0  0  0  0  0  0  0  0  0  0  0  0
   48.1259   34.8626   43.8687 H   0  0  0  0  0  0  0  0  0  0  0  0
   47.6197   35.1458   39.3729 H   0  0  0  0  0  0  0  0  0  0  0  0
   49.6830   30.6837   39.7405 H   0  0  0  0  0  0  0  0  0  0  0  0
   47.9032   34.3464   36.5278 H   0  0  0  0  0  0  0  0  0  0  0  0
   49.1027   36.6880   42.3289 H   0  0  0  0  0  0  0  0  0  0  0  0
   49.9502   36.1644   40.8342 H   0  0  0  0  0  0  0  0  0  0  0  0
   48.1640   36.3546   40.8342 H   0  0  0  0  0  0  0  0  0  0  0  0
   50.0672   34.2988   43.6272 H   0  0  0  0  0  0  0  0  0  0  0  0
   50.5038   33.2474   42.2377 H   0  0  0  0  0  0  0  0  0  0  0  0
   50.9795   34.9796   42.2377 H   0  0  0  0  0  0  0  0  0  0  0  0
   46.6203   34.7374   44.1613 H   0  0  0  0  0  0  0  0  0  0  0  0
   44.4555   36.3629   44.6021 H   0  0  0  0  0  0  0  0  0  0  0  0
   44.6347   37.0585   43.2109 H   0  0  0  0  0  0  0  0  0  0  0  0
   43.6089   33.9735   43.4166 H   0  0  0  0  0  0  0  0  0  0  0  0
   45.6672   33.3347   40.8444 H   0  0  0  0  0  0  0  0  0  0  0  0
   39.9340   36.5594   41.4849 H   0  0  0  0  0  0  0  0  0  0  0  0
   42.3392   34.0310   37.3468 H   0  0  0  0  0  0  0  0  0  0  0  0
   40.7521   34.8402   37.2521 H   0  0  0  0  0  0  0  0  0  0  0  0
  2 12  1  0
  2  1  1  0
  3  8  2  0
  3  4  1  0
  4  5  2  0
  5  6  1  0
  5  2  1  0
  7  6  2  0
  8  7  1  0
  9  3  1  0
 10  9  2  0
 11  2  1  0
 13  1  1  0
 13 14  1  0
 14 15  1  0
 16 14  1  0
 16 15  1  0
 17 16  1  0
 18 17  1  0
 19 20  1  0
 19 18  2  0
 20 25  2  0
 21 22  2  0
 21 20  1  0
 22 23  1  0
 23 24  2  0
 25 17  1  0
 25 24  1  0
 26 21  1  0
  1 27  1  0
  1 28  1  0
  4 29  1  0
  7 30  1  0
  9 31  1  0
 11 32  1  0
 11 33  1  0
 11 34  1  0
 12 35  1  0
 12 36  1  0
 12 37  1  0
 14 38  1  1
 15 39  1  0
 15 40  1  0
 16 41  1  1
 18 42  1  0
 23 43  1  0
 26 44  1  0
 26 45  1  0
M  ISO  8  27   8  28   8  29  14  30  14  31   6  32   8  33   8  34   8
M  ISO  8  35   8  36   8  37   8  38  13  39  13  40  13  41  13  42  14
M  ISO  1  43  14
M  END
>  <minimizedAffinity>  (1) 
-6.21240234

>  <minimizedRMSD>  (1) 
8.74599457

$$$$
