
     RDKit          3D

 46 49  0  0  1  0  0  0  0  0999 V2000
   48.4410   33.0250   41.4690 C   0  0  0  0  0  0  0  0  0  0  0  0
   47.9790   34.3450   41.1600 C   0  0  0  0  0  0  0  0  0  0  0  0
   44.2260   34.7900   41.3560 C   0  0  0  0  0  0  0  0  0  0  0  0
   45.4620   34.3800   40.8340 C   0  0  0  0  0  0  0  0  0  0  0  0
   46.6240   34.7130   41.5670 C   0  0  0  0  0  0  0  0  0  0  0  0
   46.4790   35.4120   42.7340 N   0  0  0  0  0  0  0  0  0  0  0  0
   45.2460   35.7760   43.1800 C   0  0  0  0  0  0  0  0  0  0  0  0
   44.1460   35.4750   42.5120 N   0  0  0  0  0  0  0  0  0  0  0  0
   43.0660   34.3970   40.5380 C   0  0  0  0  0  0  0  0  0  0  0  0
   42.4650   35.0960   39.7430 O   0  0  0  0  0  0  0  0  0  0  0  0
   48.9370   35.4170   41.6830 C   0  0  0  0  0  0  0  0  0  0  0  0
   48.0920   34.4980   39.6360 C   0  0  0  0  0  0  0  0  0  0  0  0
   49.8080   32.9590   41.2530 O   0  0  0  0  0  0  0  0  0  0  0  0
   50.0210   31.7480   40.6300 C   0  0  1  0  0  0  0  0  0  0  0  0
   50.1640   31.5990   39.1890 C   0  0  0  0  0  0  0  0  0  0  0  0
   51.3470   31.5980   39.9790 C   0  0  2  0  0  0  0  0  0  0  0  0
   52.4330   30.7590   40.3520 C   0  0  0  0  0  0  0  0  0  0  0  0
   52.5550   30.1280   41.5550 N   0  0  0  0  0  0  0  0  0  0  0  0
   53.5510   29.3740   41.9660 C   0  0  0  0  0  0  0  0  0  0  0  0
   54.6140   29.1380   41.1890 N   0  0  0  0  0  0  0  0  0  0  0  0
   54.6410   29.6900   39.9700 C   0  0  0  0  0  0  0  0  0  0  0  0
   55.7250   29.4360   39.1650 C   0  0  0  0  0  0  0  0  0  0  0  0
   55.7720   29.9790   37.9010 C   0  0  0  0  0  0  0  0  0  0  0  0
   54.7270   30.7740   37.4500 C   0  0  0  0  0  0  0  0  0  0  0  0
   53.6860   30.9710   38.3270 C   0  0  0  0  0  0  0  0  0  0  0  0
   53.5610   30.4680   39.6070 C   0  0  0  0  0  0  0  0  0  0  0  0
   48.2235   32.7963   42.5227 H   0  0  0  0  0  0  0  0  0  0  0  0
   47.9293   32.2941   40.8256 H   0  0  0  0  0  0  0  0  0  0  0  0
   45.5246   33.8201   39.8892 H   0  0  0  0  0  0  0  0  0  0  0  0
   45.1625   36.3364   44.1228 H   0  0  0  0  0  0  0  0  0  0  0  0
   42.7053   33.3648   40.6579 H   0  0  0  0  0  0  0  0  0  0  0  0
   48.9304   35.4096   42.7830 H   0  0  0  0  0  0  0  0  0  0  0  0
   49.9544   35.2076   41.3210 H   0  0  0  0  0  0  0  0  0  0  0  0
   48.6150   36.4046   41.3210 H   0  0  0  0  0  0  0  0  0  0  0  0
   48.7304   35.3623   39.4006 H   0  0  0  0  0  0  0  0  0  0  0  0
   48.5357   33.5870   39.2079 H   0  0  0  0  0  0  0  0  0  0  0  0
   47.0908   34.6542   39.2079 H   0  0  0  0  0  0  0  0  0  0  0  0
   49.3872   31.2366   41.3695 H   0  0  0  0  0  0  0  0  0  0  0  0
   49.9506   32.4534   38.5298 H   0  0  0  0  0  0  0  0  0  0  0  0
   49.7399   30.9084   38.4452 H   0  0  0  0  0  0  0  0  0  0  0  0
   52.3189   32.0918   39.8320 H   0  0  0  0  0  0  0  0  0  0  0  0
   53.5091   28.9277   42.9705 H   0  0  0  0  0  0  0  0  0  0  0  0
   56.5488   28.8037   39.5277 H   0  0  0  0  0  0  0  0  0  0  0  0
   56.6362   29.7833   37.2492 H   0  0  0  0  0  0  0  0  0  0  0  0
   54.7314   31.2222   36.4454 H   0  0  0  0  0  0  0  0  0  0  0  0
   52.8588   31.6009   37.9680 H   0  0  0  0  0  0  0  0  0  0  0  0
  2  1  1  0
  2  5  1  0
  2 11  1  0
  3  8  2  0
  4  3  1  0
  4  5  2  0
  5  6  1  0
  6  7  2  0
  8  7  1  0
  9  3  1  0
 10  9  2  0
 12  2  1  0
 13  1  1  0
 14 13  1  0
 15 16  1  0
 15 14  1  0
 16 17  1  0
 16 14  1  0
 17 18  2  0
 18 19  1  0
 20 19  2  0
 21 20  1  0
 22 21  2  0
 23 22  1  0
 24 23  2  0
 24 25  1  0
 25 26  2  0
 26 21  1  0
 26 17  1  0
  1 27  1  0
  1 28  1  0
  4 29  1  0
  7 30  1  0
  9 31  1  0
 11 32  1  0
 11 33  1  0
 11 34  1  0
 12 35  1  0
 12 36  1  0
 12 37  1  0
 14 38  1  1
 15 39  1  0
 15 40  1  0
 16 41  1  6
 19 42  1  0
 22 43  1  0
 23 44  1  0
 24 45  1  0
 25 46  1  0
M  ISO  8  27   8  28   8  29  14  30  14  31   6  32   8  33   8  34   8
M  ISO  8  35   8  36   8  37   8  38  13  39  13  40  13  41  13  42  14
M  ISO  4  43  14  44  14  45  14  46  14
M  END
>  <minimizedAffinity>  (1) 
-5.15449286

>  <minimizedRMSD>  (1) 
3.66273928

$$$$
