
     RDKit          3D

 46 49  0  0  1  0  0  0  0  0999 V2000
   48.5760   33.2130   41.8070 C   0  0  0  0  0  0  0  0  0  0  0  0
   48.0240   34.4920   41.2650 C   0  0  0  0  0  0  0  0  0  0  0  0
   44.2430   34.7920   41.3630 C   0  0  0  0  0  0  0  0  0  0  0  0
   45.5080   34.4260   40.8870 C   0  0  0  0  0  0  0  0  0  0  0  0
   46.6350   34.7840   41.6290 C   0  0  0  0  0  0  0  0  0  0  0  0
   46.4480   35.4780   42.7940 N   0  0  0  0  0  0  0  0  0  0  0  0
   45.1850   35.8140   43.2200 C   0  0  0  0  0  0  0  0  0  0  0  0
   44.1140   35.4720   42.5070 N   0  0  0  0  0  0  0  0  0  0  0  0
   43.1140   34.3660   40.5340 C   0  0  0  0  0  0  0  0  0  0  0  0
   42.4930   35.0350   39.7310 O   0  0  0  0  0  0  0  0  0  0  0  0
   48.8720   35.6890   41.5570 C   0  0  0  0  0  0  0  0  0  0  0  0
   48.0900   34.3190   39.7410 C   0  0  0  0  0  0  0  0  0  0  0  0
   49.9840   33.3610   41.7080 O   0  0  0  0  0  0  0  0  0  0  0  0
   50.4190   32.0570   41.5740 C   0  0  1  0  0  0  0  0  0  0  0  0
   49.9040   31.1750   40.5390 C   0  0  0  0  0  0  0  0  0  0  0  0
   51.2030   31.8270   40.2720 C   0  0  2  0  0  0  0  0  0  0  0  0
   52.3760   30.9280   40.3790 C   0  0  0  0  0  0  0  0  0  0  0  0
   52.7390   30.0670   41.4170 C   0  0  0  0  0  0  0  0  0  0  0  0
   53.8660   29.4170   41.1550 N   0  0  0  0  0  0  0  0  0  0  0  0
   54.3140   29.7970   39.9460 C   0  0  0  0  0  0  0  0  0  0  0  0
   55.4210   29.4380   39.2030 C   0  0  0  0  0  0  0  0  0  0  0  0
   55.6520   30.0030   37.9440 C   0  0  0  0  0  0  0  0  0  0  0  0
   54.7450   30.9360   37.4470 C   0  0  0  0  0  0  0  0  0  0  0  0
   53.6280   31.2930   38.2070 C   0  0  0  0  0  0  0  0  0  0  0  0
   53.4050   30.7250   39.4630 C   0  0  0  0  0  0  0  0  0  0  0  0
   48.2729   33.0724   42.8550 H   0  0  0  0  0  0  0  0  0  0  0  0
   48.2090   32.3338   41.2571 H   0  0  0  0  0  0  0  0  0  0  0  0
   45.6118   33.8666   39.9456 H   0  0  0  0  0  0  0  0  0  0  0  0
   45.0579   36.3713   44.1598 H   0  0  0  0  0  0  0  0  0  0  0  0
   42.7906   33.3211   40.6511 H   0  0  0  0  0  0  0  0  0  0  0  0
   48.9628   35.8172   42.6457 H   0  0  0  0  0  0  0  0  0  0  0  0
   49.8713   35.5458   41.1200 H   0  0  0  0  0  0  0  0  0  0  0  0
   48.4055   36.5842   41.1200 H   0  0  0  0  0  0  0  0  0  0  0  0
   48.4727   33.3158   39.5021 H   0  0  0  0  0  0  0  0  0  0  0  0
   47.0831   34.4385   39.3145 H   0  0  0  0  0  0  0  0  0  0  0  0
   48.7614   35.0788   39.3145 H   0  0  0  0  0  0  0  0  0  0  0  0
   50.5370   31.9175   42.6587 H   0  0  0  0  0  0  0  0  0  0  0  0
   49.8703   30.0905   40.7201 H   0  0  0  0  0  0  0  0  0  0  0  0
   48.9528   31.1260   39.9887 H   0  0  0  0  0  0  0  0  0  0  0  0
   51.6296   32.4684   39.4867 H   0  0  0  0  0  0  0  0  0  0  0  0
   52.1588   29.9422   42.3432 H   0  0  0  0  0  0  0  0  0  0  0  0
   54.3224   28.7337   41.7760 H   0  0  0  0  0  0  0  0  0  0  0  0
   56.1296   28.6992   39.6056 H   0  0  0  0  0  0  0  0  0  0  0  0
   56.5359   29.7149   37.3560 H   0  0  0  0  0  0  0  0  0  0  0  0
   54.9076   31.3907   36.4587 H   0  0  0  0  0  0  0  0  0  0  0  0
   52.9151   32.0311   37.8107 H   0  0  0  0  0  0  0  0  0  0  0  0
  2 11  1  0
  2  5  1  0
  2  1  1  0
  3  8  2  0
  4  3  1  0
  4  5  2  0
  5  6  1  0
  6  7  2  0
  8  7  1  0
  9  3  1  0
 10  9  2  0
 12  2  1  0
 13  1  1  0
 14 13  1  0
 15 14  1  0
 16 17  1  0
 16 15  1  0
 16 14  1  0
 17 18  2  0
 19 18  1  0
 20 19  1  0
 21 20  2  0
 22 21  1  0
 23 22  2  0
 23 24  1  0
 24 25  2  0
 25 20  1  0
 25 17  1  0
  1 26  1  0
  1 27  1  0
  4 28  1  0
  7 29  1  0
  9 30  1  0
 11 31  1  0
 11 32  1  0
 11 33  1  0
 12 34  1  0
 12 35  1  0
 12 36  1  0
 14 37  1  1
 15 38  1  0
 15 39  1  0
 16 40  1  6
 18 41  1  0
 19 42  1  0
 21 43  1  0
 22 44  1  0
 23 45  1  0
 24 46  1  0
M  ISO  8  26   8  27   8  28  14  29  14  30   6  31   8  32   8  33   8
M  ISO  8  34   8  35   8  36   8  37  13  38  13  39  13  40  13  41  14
M  ISO  5  42   9  43  14  44  14  45  14  46  14
M  END
>  <minimizedAffinity>  (1) 
-5.22952318

>  <minimizedRMSD>  (1) 
2.72032833

$$$$
