
     RDKit          3D

 44 45  0  0  1  0  0  0  0  0999 V2000
   48.0440   34.3590   41.5920 C   0  0  0  0  0  0  0  0  0  0  0  0
   44.3100   34.7250   41.0840 C   0  0  0  0  0  0  0  0  0  0  0  0
   45.6210   34.3070   40.8240 C   0  0  0  0  0  0  0  0  0  0  0  0
   46.6330   34.7180   41.7210 C   0  0  0  0  0  0  0  0  0  0  0  0
   46.2810   35.4980   42.7900 N   0  0  0  0  0  0  0  0  0  0  0  0
   44.9860   35.8720   42.9870 C   0  0  0  0  0  0  0  0  0  0  0  0
   44.0210   35.4960   42.1560 N   0  0  0  0  0  0  0  0  0  0  0  0
   43.3080   34.2590   40.1240 C   0  0  0  0  0  0  0  0  0  0  0  0
   42.5330   34.9310   39.4710 O   0  0  0  0  0  0  0  0  0  0  0  0
   48.5420   33.8730   42.9440 C   0  0  0  0  0  0  0  0  0  0  0  0
   48.8530   35.6490   41.3660 C   0  0  0  0  0  0  0  0  0  0  0  0
   48.4210   33.4720   40.5280 C   0  0  0  0  0  0  0  0  0  0  0  0
   48.8480   32.2560   41.0550 O   0  0  0  0  0  0  0  0  0  0  0  0
   49.9780   31.9340   40.3490 C   0  0  1  0  0  0  0  0  0  0  0  0
   51.3050   31.8180   40.9390 C   0  0  0  0  0  0  0  0  0  0  0  0
   50.5390   30.5710   40.6860 C   0  0  1  0  0  0  0  0  0  0  0  0
   49.9880   29.7520   41.7990 C   0  0  0  0  0  0  0  0  0  0  0  0
   50.8740   28.5300   41.9460 C   0  0  0  0  0  0  0  0  0  0  0  0
   49.8870   30.4160   43.1260 C   0  0  0  0  0  0  0  0  0  0  0  0
   48.6270   29.2410   41.3790 C   0  0  0  0  0  0  0  0  0  0  0  0
   45.8553   33.6800   39.9511 H   0  0  0  0  0  0  0  0  0  0  0  0
   44.7339   36.4999   43.8543 H   0  0  0  0  0  0  0  0  0  0  0  0
   43.2491   33.1707   39.9755 H   0  0  0  0  0  0  0  0  0  0  0  0
   48.0021   34.3998   43.7446 H   0  0  0  0  0  0  0  0  0  0  0  0
   48.3648   32.7910   43.0327 H   0  0  0  0  0  0  0  0  0  0  0  0
   49.6194   34.0766   43.0327 H   0  0  0  0  0  0  0  0  0  0  0  0
   49.1266   36.0853   42.3380 H   0  0  0  0  0  0  0  0  0  0  0  0
   49.7661   35.4146   40.7992 H   0  0  0  0  0  0  0  0  0  0  0  0
   48.2444   36.3690   40.7992 H   0  0  0  0  0  0  0  0  0  0  0  0
   49.2380   33.9251   39.9473 H   0  0  0  0  0  0  0  0  0  0  0  0
   47.5528   33.2994   39.8750 H   0  0  0  0  0  0  0  0  0  0  0  0
   49.6284   32.5042   39.4757 H   0  0  0  0  0  0  0  0  0  0  0  0
   52.1933   32.0446   40.3310 H   0  0  0  0  0  0  0  0  0  0  0  0
   51.7911   32.2530   41.8247 H   0  0  0  0  0  0  0  0  0  0  0  0
   50.7167   29.6337   40.1384 H   0  0  0  0  0  0  0  0  0  0  0  0
   51.0292   28.3159   43.0137 H   0  0  0  0  0  0  0  0  0  0  0  0
   50.3906   27.6667   41.4654 H   0  0  0  0  0  0  0  0  0  0  0  0
   51.8449   28.7211   41.4654 H   0  0  0  0  0  0  0  0  0  0  0  0
   50.0012   29.6649   43.9215 H   0  0  0  0  0  0  0  0  0  0  0  0
   50.6805   31.1722   43.2190 H   0  0  0  0  0  0  0  0  0  0  0  0
   48.9046   30.9020   43.2190 H   0  0  0  0  0  0  0  0  0  0  0  0
   48.0277   29.0160   42.2736 H   0  0  0  0  0  0  0  0  0  0  0  0
   48.1163   30.0086   40.7791 H   0  0  0  0  0  0  0  0  0  0  0  0
   48.7477   28.3269   40.7791 H   0  0  0  0  0  0  0  0  0  0  0  0
  1  4  1  0
  1 10  1  0
  2  7  2  0
  3  2  1  0
  3  4  2  0
  4  5  1  0
  5  6  2  0
  7  6  1  0
  8  2  1  0
  9  8  2  0
 11  1  1  0
 12 13  1  0
 12  1  1  0
 14 16  1  0
 14 15  1  0
 14 13  1  0
 16 15  1  0
 16 17  1  0
 17 18  1  0
 17 19  1  0
 20 17  1  0
  3 21  1  0
  6 22  1  0
  8 23  1  0
 10 24  1  0
 10 25  1  0
 10 26  1  0
 11 27  1  0
 11 28  1  0
 11 29  1  0
 12 30  1  0
 12 31  1  0
 14 32  1  6
 15 33  1  0
 15 34  1  0
 16 35  1  6
 18 36  1  0
 18 37  1  0
 18 38  1  0
 19 39  1  0
 19 40  1  0
 19 41  1  0
 20 42  1  0
 20 43  1  0
 20 44  1  0
M  ISO  8  21  14  22  14  23   6  24   8  25   8  26   8  27   8  28   8
M  ISO  8  29   8  30   8  31   8  32  13  33  13  34  13  35  13  36   8
M  ISO  8  37   8  38   8  39   8  40   8  41   8  42   8  43   8  44   8
M  END
>  <minimizedAffinity>  (1) 
-4.04876375

>  <minimizedRMSD>  (1) 
2.00070953

$$$$
