
     RDKit          3D

 35 36  0  0  1  0  0  0  0  0999 V2000
   47.9800   34.2710   41.1350 C   0  0  0  0  0  0  0  0  0  0  0  0
   44.2310   34.7920   41.3320 C   0  0  0  0  0  0  0  0  0  0  0  0
   45.4570   34.3500   40.8150 C   0  0  0  0  0  0  0  0  0  0  0  0
   46.6290   34.6660   41.5330 C   0  0  0  0  0  0  0  0  0  0  0  0
   46.5050   35.3860   42.6910 N   0  0  0  0  0  0  0  0  0  0  0  0
   45.2840   35.7880   43.1430 C   0  0  0  0  0  0  0  0  0  0  0  0
   44.1710   35.4950   42.4740 N   0  0  0  0  0  0  0  0  0  0  0  0
   43.0580   34.4180   40.5300 C   0  0  0  0  0  0  0  0  0  0  0  0
   42.4570   35.1150   39.7380 O   0  0  0  0  0  0  0  0  0  0  0  0
   48.9740   35.1820   41.8320 C   0  0  0  0  0  0  0  0  0  0  0  0
   48.1630   34.6220   39.6460 C   0  0  0  0  0  0  0  0  0  0  0  0
   48.3380   32.8860   41.2450 C   0  0  0  0  0  0  0  0  0  0  0  0
   49.6940   32.7760   41.5360 O   0  0  0  0  0  0  0  0  0  0  0  0
   50.1610   31.8050   40.6800 C   0  0  1  0  0  0  0  0  0  0  0  0
   51.5720   31.6100   40.3830 C   0  0  0  0  0  0  0  0  0  0  0  0
   50.9690   30.7310   41.4190 C   0  0  1  0  0  0  0  0  0  0  0  0
   51.2840   30.9220   42.8750 C   0  0  0  0  0  0  0  0  0  0  0  0
   45.5033   33.7747   39.8786 H   0  0  0  0  0  0  0  0  0  0  0  0
   45.2168   36.3648   44.0772 H   0  0  0  0  0  0  0  0  0  0  0  0
   42.6826   33.3925   40.6618 H   0  0  0  0  0  0  0  0  0  0  0  0
   48.8630   35.0803   42.9217 H   0  0  0  0  0  0  0  0  0  0  0  0
   49.9965   34.9008   41.5397 H   0  0  0  0  0  0  0  0  0  0  0  0
   48.7828   36.2251   41.5397 H   0  0  0  0  0  0  0  0  0  0  0  0
   48.6699   35.5943   39.5581 H   0  0  0  0  0  0  0  0  0  0  0  0
   48.7713   33.8459   39.1584 H   0  0  0  0  0  0  0  0  0  0  0  0
   47.1785   34.6764   39.1584 H   0  0  0  0  0  0  0  0  0  0  0  0
   47.7518   32.4192   42.0503 H   0  0  0  0  0  0  0  0  0  0  0  0
   48.1263   32.3773   40.2929 H   0  0  0  0  0  0  0  0  0  0  0  0
   49.2959   31.9012   40.0074 H   0  0  0  0  0  0  0  0  0  0  0  0
   51.8677   31.1815   39.4140 H   0  0  0  0  0  0  0  0  0  0  0  0
   52.4455   32.2784   40.3671 H   0  0  0  0  0  0  0  0  0  0  0  0
   50.9012   29.6449   41.5793 H   0  0  0  0  0  0  0  0  0  0  0  0
   50.5012   30.4473   43.4848 H   0  0  0  0  0  0  0  0  0  0  0  0
   52.2564   30.4613   43.1033 H   0  0  0  0  0  0  0  0  0  0  0  0
   51.3251   31.9973   43.1033 H   0  0  0  0  0  0  0  0  0  0  0  0
  1 12  1  0
  1  4  1  0
  1 10  1  0
  2  7  2  0
  3  2  1  0
  3  4  2  0
  4  5  1  0
  5  6  2  0
  7  6  1  0
  8  2  1  0
  9  8  2  0
 11  1  1  0
 12 13  1  0
 14 16  1  0
 14 13  1  0
 15 14  1  0
 15 16  1  0
 16 17  1  0
  3 18  1  0
  6 19  1  0
  8 20  1  0
 10 21  1  0
 10 22  1  0
 10 23  1  0
 11 24  1  0
 11 25  1  0
 11 26  1  0
 12 27  1  0
 12 28  1  0
 14 29  1  6
 15 30  1  0
 15 31  1  0
 16 32  1  6
 17 33  1  0
 17 34  1  0
 17 35  1  0
M  ISO  8  18  14  19  14  20   6  21   8  22   8  23   8  24   8  25   8
M  ISO  8  26   8  27   8  28   8  29  13  30  13  31  13  32  13  33   8
M  ISO  2  34   8  35   8
M  END
>  <minimizedAffinity>  (1) 
-4.03642845

>  <minimizedRMSD>  (1) 
0.512116671

$$$$
