
     RDKit          3D

 55 58  0  0  1  0  0  0  0  0999 V2000
   50.2350   31.8970   41.1340 C   0  0  1  0  0  0  0  0  0  0  0  0
   50.7170   31.5130   39.8230 C   0  0  0  0  0  0  0  0  0  0  0  0
   51.7430   31.7210   40.8790 C   0  0  2  0  0  0  0  0  0  0  0  0
   52.3750   30.5350   41.5380 C   0  0  1  0  0  0  0  0  0  0  0  0
   51.6150   30.0030   42.7350 C   0  0  0  0  0  0  0  0  0  0  0  0
   52.4530   29.3760   40.5610 C   0  0  0  0  0  0  0  0  0  0  0  0
   53.8730   29.0730   40.2170 C   0  0  0  0  0  0  0  0  0  0  0  0
   54.7860   28.2600   40.8720 C   0  0  0  0  0  0  0  0  0  0  0  0
   55.9720   28.2870   40.2160 N   0  0  0  0  0  0  0  0  0  0  0  0
   55.8290   29.1020   39.1520 C   0  0  0  0  0  0  0  0  0  0  0  0
   56.7140   29.4960   38.1410 C   0  0  0  0  0  0  0  0  0  0  0  0
   56.3360   30.3640   37.1250 C   0  0  0  0  0  0  0  0  0  0  0  0
   55.0290   30.8380   37.1470 C   0  0  0  0  0  0  0  0  0  0  0  0
   54.1370   30.4760   38.1180 C   0  0  0  0  0  0  0  0  0  0  0  0
   54.5350   29.6070   39.1250 C   0  0  0  0  0  0  0  0  0  0  0  0
   49.8670   33.1870   41.4440 O   0  0  0  0  0  0  0  0  0  0  0  0
   48.4520   33.0620   41.5880 C   0  0  0  0  0  0  0  0  0  0  0  0
   47.9520   34.4260   41.1590 C   0  0  0  0  0  0  0  0  0  0  0  0
   44.1700   34.7450   41.3650 C   0  0  0  0  0  0  0  0  0  0  0  0
   45.4220   34.3690   40.8520 C   0  0  0  0  0  0  0  0  0  0  0  0
   46.5840   34.7300   41.5440 C   0  0  0  0  0  0  0  0  0  0  0  0
   46.4360   35.4350   42.6930 N   0  0  0  0  0  0  0  0  0  0  0  0
   45.1850   35.7810   43.1560 C   0  0  0  0  0  0  0  0  0  0  0  0
   44.0900   35.4480   42.5140 N   0  0  0  0  0  0  0  0  0  0  0  0
   43.0080   34.3180   40.5660 C   0  0  0  0  0  0  0  0  0  0  0  0
   42.4450   34.9460   39.7000 O   0  0  0  0  0  0  0  0  0  0  0  0
   48.8460   35.5520   41.4760 C   0  0  0  0  0  0  0  0  0  0  0  0
   47.9840   34.3110   39.6140 C   0  0  0  0  0  0  0  0  0  0  0  0
   49.4451   31.4756   41.7731 H   0  0  0  0  0  0  0  0  0  0  0  0
   50.6458   32.2278   38.9899 H   0  0  0  0  0  0  0  0  0  0  0  0
   50.4856   30.6787   39.1445 H   0  0  0  0  0  0  0  0  0  0  0  0
   52.6606   32.3227   40.9557 H   0  0  0  0  0  0  0  0  0  0  0  0
   53.3590   30.8986   41.8690 H   0  0  0  0  0  0  0  0  0  0  0  0
   52.1025   30.3443   43.6601 H   0  0  0  0  0  0  0  0  0  0  0  0
   50.5802   30.3749   42.7072 H   0  0  0  0  0  0  0  0  0  0  0  0
   51.6103   28.9034   42.7072 H   0  0  0  0  0  0  0  0  0  0  0  0
   51.9941   28.4867   41.0178 H   0  0  0  0  0  0  0  0  0  0  0  0
   51.9165   29.6513   39.6410 H   0  0  0  0  0  0  0  0  0  0  0  0
   54.5793   27.6816   41.7845 H   0  0  0  0  0  0  0  0  0  0  0  0
   56.8267   27.7775   40.4821 H   0  0  0  0  0  0  0  0  0  0  0  0
   57.7422   29.1052   38.1519 H   0  0  0  0  0  0  0  0  0  0  0  0
   57.0411   30.6640   36.3358 H   0  0  0  0  0  0  0  0  0  0  0  0
   54.7012   31.5282   36.3557 H   0  0  0  0  0  0  0  0  0  0  0  0
   53.1104   30.8708   38.1014 H   0  0  0  0  0  0  0  0  0  0  0  0
   48.0552   32.2707   40.9351 H   0  0  0  0  0  0  0  0  0  0  0  0
   48.1397   32.7826   42.6050 H   0  0  0  0  0  0  0  0  0  0  0  0
   45.4889   33.7962   39.9153 H   0  0  0  0  0  0  0  0  0  0  0  0
   45.1018   36.3534   44.0916 H   0  0  0  0  0  0  0  0  0  0  0  0
   42.6083   33.3161   40.7815 H   0  0  0  0  0  0  0  0  0  0  0  0
   48.9298   35.6575   42.5677 H   0  0  0  0  0  0  0  0  0  0  0  0
   49.8415   35.3614   41.0486 H   0  0  0  0  0  0  0  0  0  0  0  0
   48.4347   36.4783   41.0486 H   0  0  0  0  0  0  0  0  0  0  0  0
   48.2688   33.2876   39.3283 H   0  0  0  0  0  0  0  0  0  0  0  0
   46.9877   34.5411   39.2085 H   0  0  0  0  0  0  0  0  0  0  0  0
   48.7182   35.0226   39.2085 H   0  0  0  0  0  0  0  0  0  0  0  0
  1 16  1  0
  2  3  1  0
  2  1  1  0
  3  1  1  0
  3  4  1  0
  4  5  1  0
  6  4  1  0
  7  6  1  0
  7  8  2  0
  9  8  1  0
 10  9  1  0
 11 10  2  0
 12 13  2  0
 12 11  1  0
 13 14  1  0
 14 15  2  0
 15 10  1  0
 15  7  1  0
 16 17  1  0
 18 27  1  0
 18 21  1  0
 18 17  1  0
 19 24  2  0
 20 19  1  0
 20 21  2  0
 21 22  1  0
 22 23  2  0
 24 23  1  0
 25 19  1  0
 26 25  2  0
 28 18  1  0
  1 29  1  1
  2 30  1  0
  2 31  1  0
  3 32  1  6
  4 33  1  1
  5 34  1  0
  5 35  1  0
  5 36  1  0
  6 37  1  0
  6 38  1  0
  8 39  1  0
  9 40  1  0
 11 41  1  0
 12 42  1  0
 13 43  1  0
 14 44  1  0
 17 45  1  0
 17 46  1  0
 20 47  1  0
 23 48  1  0
 25 49  1  0
 27 50  1  0
 27 51  1  0
 27 52  1  0
 28 53  1  0
 28 54  1  0
 28 55  1  0
M  ISO  8  29  13  30  13  31  13  32  13  33   8  34   8  35   8  36   8
M  ISO  8  37   8  38   8  39  14  40   9  41  14  42  14  43  14  44  14
M  ISO  8  45   8  46   8  47  14  48  14  49   6  50   8  51   8  52   8
M  ISO  3  53   8  54   8  55   8
M  END
>  <minimizedAffinity>  (1) 
-4.93210506

>  <minimizedRMSD>  (1) 
3.79364514

$$$$
