
     RDKit          3D

 55 58  0  0  1  0  0  0  0  0999 V2000
   50.2120   31.8710   41.0380 C   0  0  1  0  0  0  0  0  0  0  0  0
   50.7110   31.5300   39.7220 C   0  0  0  0  0  0  0  0  0  0  0  0
   51.7250   31.6760   40.7940 C   0  0  2  0  0  0  0  0  0  0  0  0
   52.3370   30.4510   41.4110 C   0  0  1  0  0  0  0  0  0  0  0  0
   51.4640   29.7760   42.4380 C   0  0  0  0  0  0  0  0  0  0  0  0
   52.6050   29.4110   40.3400 C   0  0  0  0  0  0  0  0  0  0  0  0
   54.0270   29.1450   40.3120 N   0  0  0  0  0  0  0  0  0  0  0  0
   54.6800   28.5010   41.3220 C   0  0  0  0  0  0  0  0  0  0  0  0
   55.9990   28.3830   41.0340 N   0  0  0  0  0  0  0  0  0  0  0  0
   56.2210   28.9450   39.8380 C   0  0  0  0  0  0  0  0  0  0  0  0
   57.3330   29.1270   39.0420 C   0  0  0  0  0  0  0  0  0  0  0  0
   58.4130   28.6810   39.4940 O   0  0  0  0  0  0  0  0  0  0  0  0
   57.2100   29.7570   37.8530 N   0  0  0  0  0  0  0  0  0  0  0  0
   55.9980   30.1970   37.4650 C   0  0  0  0  0  0  0  0  0  0  0  0
   55.9110   30.8640   36.1880 N   0  0  0  0  0  0  0  0  0  0  0  0
   54.8960   30.0300   38.2270 N   0  0  0  0  0  0  0  0  0  0  0  0
   54.9910   29.4060   39.4140 C   0  0  0  0  0  0  0  0  0  0  0  0
   49.8900   33.1520   41.4030 O   0  0  0  0  0  0  0  0  0  0  0  0
   48.4770   33.0770   41.5760 C   0  0  0  0  0  0  0  0  0  0  0  0
   47.9570   34.3830   41.1590 C   0  0  0  0  0  0  0  0  0  0  0  0
   44.1920   34.7500   41.3590 C   0  0  0  0  0  0  0  0  0  0  0  0
   45.4330   34.3540   40.8420 C   0  0  0  0  0  0  0  0  0  0  0  0
   46.5930   34.7150   41.5460 C   0  0  0  0  0  0  0  0  0  0  0  0
   46.4560   35.4300   42.6910 N   0  0  0  0  0  0  0  0  0  0  0  0
   45.2220   35.7950   43.1590 C   0  0  0  0  0  0  0  0  0  0  0  0
   44.1160   35.4640   42.5080 N   0  0  0  0  0  0  0  0  0  0  0  0
   43.0300   34.3380   40.5820 C   0  0  0  0  0  0  0  0  0  0  0  0
   42.4460   34.9570   39.7160 O   0  0  0  0  0  0  0  0  0  0  0  0
   48.8660   35.5400   41.4770 C   0  0  0  0  0  0  0  0  0  0  0  0
   48.0070   34.3190   39.6080 C   0  0  0  0  0  0  0  0  0  0  0  0
   49.3960   31.4415   41.6377 H   0  0  0  0  0  0  0  0  0  0  0  0
   50.6652   32.2781   38.9169 H   0  0  0  0  0  0  0  0  0  0  0  0
   50.4751   30.7263   39.0089 H   0  0  0  0  0  0  0  0  0  0  0  0
   52.6518   32.2575   40.9078 H   0  0  0  0  0  0  0  0  0  0  0  0
   53.2526   30.8103   41.9035 H   0  0  0  0  0  0  0  0  0  0  0  0
   51.8106   30.0440   43.4470 H   0  0  0  0  0  0  0  0  0  0  0  0
   50.4228   30.1063   42.3082 H   0  0  0  0  0  0  0  0  0  0  0  0
   51.5216   28.6852   42.3082 H   0  0  0  0  0  0  0  0  0  0  0  0
   52.0579   28.4859   40.5744 H   0  0  0  0  0  0  0  0  0  0  0  0
   52.2688   29.7803   39.3599 H   0  0  0  0  0  0  0  0  0  0  0  0
   54.2029   28.1297   42.2410 H   0  0  0  0  0  0  0  0  0  0  0  0
   58.0334   29.8990   37.2507 H   0  0  0  0  0  0  0  0  0  0  0  0
   55.0035   31.2166   35.8519 H   0  0  0  0  0  0  0  0  0  0  0  0
   56.7564   30.9874   35.6128 H   0  0  0  0  0  0  0  0  0  0  0  0
   48.0555   32.2780   40.9483 H   0  0  0  0  0  0  0  0  0  0  0  0
   48.2069   32.8457   42.6169 H   0  0  0  0  0  0  0  0  0  0  0  0
   45.4966   33.7753   39.9087 H   0  0  0  0  0  0  0  0  0  0  0  0
   45.1473   36.3732   44.0918 H   0  0  0  0  0  0  0  0  0  0  0  0
   42.6310   33.3384   40.8091 H   0  0  0  0  0  0  0  0  0  0  0  0
   48.9521   35.6495   42.5681 H   0  0  0  0  0  0  0  0  0  0  0  0
   49.8613   35.3531   41.0476 H   0  0  0  0  0  0  0  0  0  0  0  0
   48.4488   36.4628   41.0476 H   0  0  0  0  0  0  0  0  0  0  0  0
   48.6564   33.4878   39.2961 H   0  0  0  0  0  0  0  0  0  0  0  0
   46.9922   34.1590   39.2147 H   0  0  0  0  0  0  0  0  0  0  0  0
   48.4078   35.2649   39.2147 H   0  0  0  0  0  0  0  0  0  0  0  0
  1 18  1  0
  2  3  1  0
  2  1  1  0
  3  1  1  0
  3  4  1  0
  4  5  1  0
  6  4  1  0
  7  6  1  0
  7  8  1  0
  9  8  2  0
 10  9  1  0
 11 12  2  0
 11 10  1  0
 13 11  1  0
 14 13  1  0
 14 16  2  0
 15 14  1  0
 16 17  1  0
 17 10  2  0
 17  7  1  0
 18 19  1  0
 20 29  1  0
 20 23  1  0
 20 19  1  0
 21 26  2  0
 22 21  1  0
 22 23  2  0
 23 24  1  0
 24 25  2  0
 26 25  1  0
 27 21  1  0
 28 27  2  0
 30 20  1  0
  1 31  1  1
  2 32  1  0
  2 33  1  0
  3 34  1  6
  4 35  1  1
  5 36  1  0
  5 37  1  0
  5 38  1  0
  6 39  1  0
  6 40  1  0
  8 41  1  0
 13 42  1  0
 15 43  1  0
 15 44  1  0
 19 45  1  0
 19 46  1  0
 22 47  1  0
 25 48  1  0
 27 49  1  0
 29 50  1  0
 29 51  1  0
 29 52  1  0
 30 53  1  0
 30 54  1  0
 30 55  1  0
M  ISO  8  31  13  32  13  33  13  34  13  35   8  36   8  37   8  38   8
M  ISO  8  39   8  40   8  41  14  42   9  45   8  46   8  47  14  48  14
M  ISO  7  49   6  50   8  51   8  52   8  53   8  54   8  55   8
M  END
>  <minimizedAffinity>  (1) 
-4.79997206

>  <minimizedRMSD>  (1) 
4.39884424

$$$$
