
     RDKit          3D

 48 50  0  0  1  0  0  0  0  0999 V2000
   49.8780   33.2270   41.5350 O   0  0  0  0  0  0  0  0  0  0  0  0
   50.2670   31.9230   41.3820 C   0  0  1  0  0  0  0  0  0  0  0  0
   51.6080   31.5500   40.9810 C   0  0  0  0  0  0  0  0  0  0  0  0
   51.3100   31.4780   42.4320 C   0  0  2  0  0  0  0  0  0  0  0  0
   51.0570   30.1440   43.0720 C   0  0  1  0  0  0  0  0  0  0  0  0
   49.7920   29.4610   42.6030 C   0  0  0  0  0  0  0  0  0  0  0  0
   52.1860   29.1820   42.7340 C   0  0  0  0  0  0  0  0  0  0  0  0
   53.3920   29.5190   43.5700 C   0  0  0  0  0  0  0  0  0  0  0  0
   54.7410   29.3160   43.2600 C   0  0  0  0  0  0  0  0  0  0  0  0
   55.4830   29.7800   44.3270 C   0  0  0  0  0  0  0  0  0  0  0  0
   54.6170   30.2460   45.2450 N   0  0  0  0  0  0  0  0  0  0  0  0
   53.3980   30.0850   44.7850 N   0  0  0  0  0  0  0  0  0  0  0  0
   48.4640   33.1300   41.6110 C   0  0  0  0  0  0  0  0  0  0  0  0
   47.9460   34.4350   41.1960 C   0  0  0  0  0  0  0  0  0  0  0  0
   44.1780   34.8130   41.3460 C   0  0  0  0  0  0  0  0  0  0  0  0
   45.4270   34.4250   40.8410 C   0  0  0  0  0  0  0  0  0  0  0  0
   46.5770   34.7630   41.5670 C   0  0  0  0  0  0  0  0  0  0  0  0
   46.4190   35.4510   42.7270 N   0  0  0  0  0  0  0  0  0  0  0  0
   45.1860   35.8080   43.1820 C   0  0  0  0  0  0  0  0  0  0  0  0
   44.0860   35.4970   42.5090 N   0  0  0  0  0  0  0  0  0  0  0  0
   43.0290   34.4180   40.5330 C   0  0  0  0  0  0  0  0  0  0  0  0
   42.4490   35.0700   39.6920 O   0  0  0  0  0  0  0  0  0  0  0  0
   48.8510   35.5930   41.5200 C   0  0  0  0  0  0  0  0  0  0  0  0
   48.0080   34.3670   39.6450 C   0  0  0  0  0  0  0  0  0  0  0  0
   49.2824   31.6188   40.9974 H   0  0  0  0  0  0  0  0  0  0  0  0
   51.7629   30.6196   40.4150 H   0  0  0  0  0  0  0  0  0  0  0  0
   52.3894   32.0548   40.3939 H   0  0  0  0  0  0  0  0  0  0  0  0
   51.7828   31.8844   43.3382 H   0  0  0  0  0  0  0  0  0  0  0  0
   50.9739   30.3630   44.1468 H   0  0  0  0  0  0  0  0  0  0  0  0
   49.2022   29.1426   43.4752 H   0  0  0  0  0  0  0  0  0  0  0  0
   49.2001   30.1621   41.9963 H   0  0  0  0  0  0  0  0  0  0  0  0
   50.0535   28.5815   41.9963 H   0  0  0  0  0  0  0  0  0  0  0  0
   51.8670   28.1511   42.9475 H   0  0  0  0  0  0  0  0  0  0  0  0
   52.4398   29.2709   41.6674 H   0  0  0  0  0  0  0  0  0  0  0  0
   55.1371   28.8690   42.3363 H   0  0  0  0  0  0  0  0  0  0  0  0
   56.5797   29.7706   44.4113 H   0  0  0  0  0  0  0  0  0  0  0  0
   54.8678   30.6591   46.1546 H   0  0  0  0  0  0  0  0  0  0  0  0
   48.0984   32.3418   40.9365 H   0  0  0  0  0  0  0  0  0  0  0  0
   48.1325   32.8700   42.6271 H   0  0  0  0  0  0  0  0  0  0  0  0
   45.5026   33.8675   39.8957 H   0  0  0  0  0  0  0  0  0  0  0  0
   45.1006   36.3654   44.1265 H   0  0  0  0  0  0  0  0  0  0  0  0
   42.6428   33.4027   40.7061 H   0  0  0  0  0  0  0  0  0  0  0  0
   48.9340   35.6992   42.6117 H   0  0  0  0  0  0  0  0  0  0  0  0
   49.8479   35.4100   41.0926 H   0  0  0  0  0  0  0  0  0  0  0  0
   48.4326   36.5161   41.0926 H   0  0  0  0  0  0  0  0  0  0  0  0
   48.7201   33.5859   39.3404 H   0  0  0  0  0  0  0  0  0  0  0  0
   47.0102   34.1283   39.2483 H   0  0  0  0  0  0  0  0  0  0  0  0
   48.3376   35.3386   39.2483 H   0  0  0  0  0  0  0  0  0  0  0  0
  1 13  1  0
  2  1  1  0
  2  4  1  0
  3  2  1  0
  3  4  1  0
  4  5  1  0
  6  5  1  0
  7  5  1  0
  7  8  1  0
  8 12  2  0
  9  8  1  0
  9 10  2  0
 10 11  1  0
 12 11  1  0
 14 23  1  0
 14 17  1  0
 14 13  1  0
 15 20  2  0
 16 15  1  0
 16 17  2  0
 17 18  1  0
 18 19  2  0
 20 19  1  0
 21 15  1  0
 22 21  2  0
 24 14  1  0
  2 25  1  6
  3 26  1  0
  3 27  1  0
  4 28  1  1
  5 29  1  1
  6 30  1  0
  6 31  1  0
  6 32  1  0
  7 33  1  0
  7 34  1  0
  9 35  1  0
 10 36  1  0
 11 37  1  0
 13 38  1  0
 13 39  1  0
 16 40  1  0
 19 41  1  0
 21 42  1  0
 23 43  1  0
 23 44  1  0
 23 45  1  0
 24 46  1  0
 24 47  1  0
 24 48  1  0
M  ISO  8  25  13  26  13  27  13  28  13  29   8  30   8  31   8  32   8
M  ISO  8  33   8  34   8  35  14  36  14  37   9  38   8  39   8  40  14
M  ISO  8  41  14  42   6  43   8  44   8  45   8  46   8  47   8  48   8
M  END
>  <minimizedAffinity>  (1) 
-4.47079182

>  <minimizedRMSD>  (1) 
2.4293046

$$$$
