
     RDKit          3D

 48 50  0  0  1  0  0  0  0  0999 V2000
   48.4690   33.1530   41.5970 C   0  0  0  0  0  0  0  0  0  0  0  0
   47.9350   34.4610   41.2010 C   0  0  0  0  0  0  0  0  0  0  0  0
   44.1630   34.7650   41.3840 C   0  0  0  0  0  0  0  0  0  0  0  0
   45.4120   34.3930   40.8770 C   0  0  0  0  0  0  0  0  0  0  0  0
   46.5640   34.7670   41.5790 C   0  0  0  0  0  0  0  0  0  0  0  0
   46.4070   35.4790   42.7290 N   0  0  0  0  0  0  0  0  0  0  0  0
   45.1680   35.8210   43.1910 C   0  0  0  0  0  0  0  0  0  0  0  0
   44.0670   35.4690   42.5290 N   0  0  0  0  0  0  0  0  0  0  0  0
   43.0090   34.3350   40.6040 C   0  0  0  0  0  0  0  0  0  0  0  0
   42.4230   34.9360   39.7270 O   0  0  0  0  0  0  0  0  0  0  0  0
   48.8260   35.6260   41.5340 C   0  0  0  0  0  0  0  0  0  0  0  0
   47.9940   34.4080   39.6490 C   0  0  0  0  0  0  0  0  0  0  0  0
   49.8800   33.2750   41.5390 O   0  0  0  0  0  0  0  0  0  0  0  0
   50.2960   31.9820   41.3750 C   0  0  1  0  0  0  0  0  0  0  0  0
   51.6420   31.6490   40.9600 C   0  0  0  0  0  0  0  0  0  0  0  0
   51.3520   31.5480   42.4140 C   0  0  2  0  0  0  0  0  0  0  0  0
   51.1290   30.1880   43.0200 C   0  0  1  0  0  0  0  0  0  0  0  0
   49.9040   29.4750   42.4850 C   0  0  0  0  0  0  0  0  0  0  0  0
   52.2990   29.3010   42.7590 C   0  0  0  0  0  0  0  0  0  0  0  0
   53.4910   29.5280   43.5620 C   0  0  0  0  0  0  0  0  0  0  0  0
   53.2710   29.6530   44.9330 C   0  0  0  0  0  0  0  0  0  0  0  0
   54.4630   29.8600   45.5220 N   0  0  0  0  0  0  0  0  0  0  0  0
   55.4380   29.8750   44.5960 C   0  0  0  0  0  0  0  0  0  0  0  0
   54.8130   29.6730   43.4370 N   0  0  0  0  0  0  0  0  0  0  0  0
   48.1484   32.9025   42.6190 H   0  0  0  0  0  0  0  0  0  0  0  0
   48.1057   32.3520   40.9364 H   0  0  0  0  0  0  0  0  0  0  0  0
   45.4880   33.8167   39.9431 H   0  0  0  0  0  0  0  0  0  0  0  0
   45.0779   36.3961   44.1243 H   0  0  0  0  0  0  0  0  0  0  0  0
   42.6178   33.3346   40.8412 H   0  0  0  0  0  0  0  0  0  0  0  0
   48.9037   35.7276   42.6265 H   0  0  0  0  0  0  0  0  0  0  0  0
   49.8264   35.4556   41.1095 H   0  0  0  0  0  0  0  0  0  0  0  0
   48.3996   36.5468   41.1095 H   0  0  0  0  0  0  0  0  0  0  0  0
   48.7784   33.7033   39.3357 H   0  0  0  0  0  0  0  0  0  0  0  0
   47.0225   34.0734   39.2563 H   0  0  0  0  0  0  0  0  0  0  0  0
   48.2229   35.4097   39.2563 H   0  0  0  0  0  0  0  0  0  0  0  0
   49.3157   31.6573   40.9962 H   0  0  0  0  0  0  0  0  0  0  0  0
   51.8166   30.7314   40.3791 H   0  0  0  0  0  0  0  0  0  0  0  0
   52.4074   32.1813   40.3762 H   0  0  0  0  0  0  0  0  0  0  0  0
   51.8168   31.9524   43.3253 H   0  0  0  0  0  0  0  0  0  0  0  0
   50.9857   30.3751   44.0945 H   0  0  0  0  0  0  0  0  0  0  0  0
   49.2910   29.1182   43.3258 H   0  0  0  0  0  0  0  0  0  0  0  0
   49.3140   30.1708   41.8704 H   0  0  0  0  0  0  0  0  0  0  0  0
   50.2176   28.6183   41.8704 H   0  0  0  0  0  0  0  0  0  0  0  0
   51.9747   28.2642   42.9318 H   0  0  0  0  0  0  0  0  0  0  0  0
   52.6031   29.5251   41.7259 H   0  0  0  0  0  0  0  0  0  0  0  0
   52.2976   29.5931   45.4419 H   0  0  0  0  0  0  0  0  0  0  0  0
   56.5158   30.0219   44.7597 H   0  0  0  0  0  0  0  0  0  0  0  0
   55.3022   29.6325   42.5315 H   0  0  0  0  0  0  0  0  0  0  0  0
  2 11  1  0
  2  5  1  0
  2  1  1  0
  3  8  2  0
  4  3  1  0
  4  5  2  0
  5  6  1  0
  6  7  2  0
  8  7  1  0
  9  3  1  0
 10  9  2  0
 12  2  1  0
 13  1  1  0
 14 13  1  0
 14 16  1  0
 15 14  1  0
 15 16  1  0
 16 17  1  0
 18 17  1  0
 19 17  1  0
 19 20  1  0
 20 21  2  0
 21 22  1  0
 23 22  2  0
 24 20  1  0
 24 23  1  0
  1 25  1  0
  1 26  1  0
  4 27  1  0
  7 28  1  0
  9 29  1  0
 11 30  1  0
 11 31  1  0
 11 32  1  0
 12 33  1  0
 12 34  1  0
 12 35  1  0
 14 36  1  6
 15 37  1  0
 15 38  1  0
 16 39  1  1
 17 40  1  1
 18 41  1  0
 18 42  1  0
 18 43  1  0
 19 44  1  0
 19 45  1  0
 21 46  1  0
 23 47  1  0
 24 48  1  0
M  ISO  8  25   8  26   8  27  14  28  14  29   6  30   8  31   8  32   8
M  ISO  8  33   8  34   8  35   8  36  13  37  13  38  13  39  13  40   8
M  ISO  8  41   8  42   8  43   8  44   8  45   8  46  14  47  14  48   9
M  END
>  <minimizedAffinity>  (1) 
-4.39660025

>  <minimizedRMSD>  (1) 
2.42745042

$$$$
