
     RDKit          3D

 49 51  0  0  1  0  0  0  0  0999 V2000
   49.8640   33.2520   41.5010 O   0  0  0  0  0  0  0  0  0  0  0  0
   50.2700   31.9450   41.3530 C   0  0  1  0  0  0  0  0  0  0  0  0
   51.5710   31.5850   40.8260 C   0  0  0  0  0  0  0  0  0  0  0  0
   51.4170   31.5440   42.3050 C   0  0  2  0  0  0  0  0  0  0  0  0
   51.2470   30.2180   42.9950 C   0  0  1  0  0  0  0  0  0  0  0  0
   50.0470   29.4250   42.5390 C   0  0  0  0  0  0  0  0  0  0  0  0
   52.4520   29.3440   42.7300 C   0  0  0  0  0  0  0  0  0  0  0  0
   53.5520   29.5570   43.7040 C   0  0  0  0  0  0  0  0  0  0  0  0
   53.0480   29.8880   44.9500 C   0  0  0  0  0  0  0  0  0  0  0  0
   53.8620   30.1400   46.0390 C   0  0  0  0  0  0  0  0  0  0  0  0
   55.2110   30.0520   45.8550 N   0  0  0  0  0  0  0  0  0  0  0  0
   55.6670   29.7280   44.6320 C   0  0  0  0  0  0  0  0  0  0  0  0
   54.8880   29.4810   43.5630 N   0  0  0  0  0  0  0  0  0  0  0  0
   48.4480   33.1100   41.6090 C   0  0  0  0  0  0  0  0  0  0  0  0
   47.9430   34.4730   41.1870 C   0  0  0  0  0  0  0  0  0  0  0  0
   44.1560   34.7530   41.3830 C   0  0  0  0  0  0  0  0  0  0  0  0
   45.4110   34.3930   40.8820 C   0  0  0  0  0  0  0  0  0  0  0  0
   46.5640   34.7620   41.5610 C   0  0  0  0  0  0  0  0  0  0  0  0
   46.4090   35.4740   42.7100 N   0  0  0  0  0  0  0  0  0  0  0  0
   45.1620   35.8110   43.1750 C   0  0  0  0  0  0  0  0  0  0  0  0
   44.0660   35.4590   42.5280 N   0  0  0  0  0  0  0  0  0  0  0  0
   42.9980   34.3220   40.6100 C   0  0  0  0  0  0  0  0  0  0  0  0
   42.4360   34.9200   39.7160 O   0  0  0  0  0  0  0  0  0  0  0  0
   48.8260   35.6010   41.5240 C   0  0  0  0  0  0  0  0  0  0  0  0
   47.9810   34.3750   39.6390 C   0  0  0  0  0  0  0  0  0  0  0  0
   49.2570   31.6129   41.0816 H   0  0  0  0  0  0  0  0  0  0  0  0
   51.6866   30.6438   40.2685 H   0  0  0  0  0  0  0  0  0  0  0  0
   52.2806   32.0875   40.1522 H   0  0  0  0  0  0  0  0  0  0  0  0
   51.9692   31.9799   43.1506 H   0  0  0  0  0  0  0  0  0  0  0  0
   51.1168   30.4702   44.0577 H   0  0  0  0  0  0  0  0  0  0  0  0
   49.4939   29.0595   43.4168 H   0  0  0  0  0  0  0  0  0  0  0  0
   49.3910   30.0680   41.9339 H   0  0  0  0  0  0  0  0  0  0  0  0
   50.3813   28.5694   41.9339 H   0  0  0  0  0  0  0  0  0  0  0  0
   52.1385   28.2909   42.7809 H   0  0  0  0  0  0  0  0  0  0  0  0
   52.8385   29.6113   41.7354 H   0  0  0  0  0  0  0  0  0  0  0  0
   51.9575   29.9531   45.0789 H   0  0  0  0  0  0  0  0  0  0  0  0
   53.4369   30.4022   47.0191 H   0  0  0  0  0  0  0  0  0  0  0  0
   56.7564   29.6599   44.4956 H   0  0  0  0  0  0  0  0  0  0  0  0
   48.0759   32.3234   40.9360 H   0  0  0  0  0  0  0  0  0  0  0  0
   48.1148   32.8135   42.6145 H   0  0  0  0  0  0  0  0  0  0  0  0
   45.4846   33.8164   39.9481 H   0  0  0  0  0  0  0  0  0  0  0  0
   45.0738   36.3874   44.1078 H   0  0  0  0  0  0  0  0  0  0  0  0
   42.5837   33.3362   40.8679 H   0  0  0  0  0  0  0  0  0  0  0  0
   48.8996   35.6950   42.6175 H   0  0  0  0  0  0  0  0  0  0  0  0
   49.8264   35.4219   41.1032 H   0  0  0  0  0  0  0  0  0  0  0  0
   48.4120   36.5292   41.1032 H   0  0  0  0  0  0  0  0  0  0  0  0
   48.3641   33.3871   39.3434 H   0  0  0  0  0  0  0  0  0  0  0  0
   46.9655   34.5095   39.2380 H   0  0  0  0  0  0  0  0  0  0  0  0
   48.6403   35.1589   39.2380 H   0  0  0  0  0  0  0  0  0  0  0  0
  1 14  1  0
  2  1  1  0
  2  4  1  0
  3  2  1  0
  3  4  1  0
  4  5  1  0
  6  5  1  0
  7  5  1  0
  7  8  1  0
  8  9  2  0
  9 10  1  0
 11 10  2  0
 12 11  1  0
 13  8  1  0
 13 12  2  0
 15 24  1  0
 15 18  1  0
 15 14  1  0
 16 21  2  0
 17 16  1  0
 17 18  2  0
 18 19  1  0
 19 20  2  0
 21 20  1  0
 22 16  1  0
 23 22  2  0
 25 15  1  0
  2 26  1  6
  3 27  1  0
  3 28  1  0
  4 29  1  1
  5 30  1  1
  6 31  1  0
  6 32  1  0
  6 33  1  0
  7 34  1  0
  7 35  1  0
  9 36  1  0
 10 37  1  0
 12 38  1  0
 14 39  1  0
 14 40  1  0
 17 41  1  0
 20 42  1  0
 22 43  1  0
 24 44  1  0
 24 45  1  0
 24 46  1  0
 25 47  1  0
 25 48  1  0
 25 49  1  0
M  ISO  8  26  13  27  13  28  13  29  13  30   8  31   8  32   8  33   8
M  ISO  8  34   8  35   8  36  14  37  14  38  14  39   8  40   8  41  14
M  ISO  8  42  14  43   6  44   8  45   8  46   8  47   8  48   8  49   8
M  END
>  <minimizedAffinity>  (1) 
-4.37961388

>  <minimizedRMSD>  (1) 
2.95222616

$$$$
