
     RDKit          3D

 43 44  0  0  1  0  0  0  0  0999 V2000
   48.4600   33.1190   41.5940 C   0  0  0  0  0  0  0  0  0  0  0  0
   47.9430   34.4290   41.1810 C   0  0  0  0  0  0  0  0  0  0  0  0
   44.1760   34.8040   41.3450 C   0  0  0  0  0  0  0  0  0  0  0  0
   45.4230   34.4190   40.8360 C   0  0  0  0  0  0  0  0  0  0  0  0
   46.5790   34.7560   41.5590 C   0  0  0  0  0  0  0  0  0  0  0  0
   46.4230   35.4430   42.7200 N   0  0  0  0  0  0  0  0  0  0  0  0
   45.1880   35.7990   43.1810 C   0  0  0  0  0  0  0  0  0  0  0  0
   44.0920   35.4900   42.5140 N   0  0  0  0  0  0  0  0  0  0  0  0
   43.0210   34.4160   40.5430 C   0  0  0  0  0  0  0  0  0  0  0  0
   42.4500   35.0530   39.6880 O   0  0  0  0  0  0  0  0  0  0  0  0
   48.8480   35.5840   41.5150 C   0  0  0  0  0  0  0  0  0  0  0  0
   48.0040   34.3700   39.6320 C   0  0  0  0  0  0  0  0  0  0  0  0
   49.8760   33.2530   41.6300 O   0  0  0  0  0  0  0  0  0  0  0  0
   50.3010   31.9900   41.3200 C   0  0  1  0  0  0  0  0  0  0  0  0
   51.6600   31.7180   40.8800 C   0  0  0  0  0  0  0  0  0  0  0  0
   51.3650   31.4390   42.2840 C   0  0  2  0  0  0  0  0  0  0  0  0
   51.1340   30.0270   42.7630 C   0  0  1  0  0  0  0  0  0  0  0  0
   49.7110   29.7000   43.1060 C   0  0  0  0  0  0  0  0  0  0  0  0
   51.5610   29.0550   41.7060 C   0  0  0  0  0  0  0  0  0  0  0  0
   52.7980   28.4240   42.0290 N   0  0  0  0  0  0  0  0  0  0  0  0
   48.1670   32.3459   40.8684 H   0  0  0  0  0  0  0  0  0  0  0  0
   48.0578   32.8158   42.5719 H   0  0  0  0  0  0  0  0  0  0  0  0
   45.4954   33.8639   39.8891 H   0  0  0  0  0  0  0  0  0  0  0  0
   45.1050   36.3543   44.1269 H   0  0  0  0  0  0  0  0  0  0  0  0
   42.6163   33.4127   40.7419 H   0  0  0  0  0  0  0  0  0  0  0  0
   48.9265   35.6842   42.6076 H   0  0  0  0  0  0  0  0  0  0  0  0
   49.8465   35.4021   41.0908 H   0  0  0  0  0  0  0  0  0  0  0  0
   48.4325   36.5100   41.0908 H   0  0  0  0  0  0  0  0  0  0  0  0
   48.7628   33.6361   39.3226 H   0  0  0  0  0  0  0  0  0  0  0  0
   47.0218   34.0704   39.2375 H   0  0  0  0  0  0  0  0  0  0  0  0
   48.2707   35.3616   39.2375 H   0  0  0  0  0  0  0  0  0  0  0  0
   49.3201   31.7084   40.9094 H   0  0  0  0  0  0  0  0  0  0  0  0
   51.8468   30.8809   40.1912 H   0  0  0  0  0  0  0  0  0  0  0  0
   52.4263   32.3243   40.3749 H   0  0  0  0  0  0  0  0  0  0  0  0
   51.8446   31.7273   43.2310 H   0  0  0  0  0  0  0  0  0  0  0  0
   51.7273   29.9468   43.6858 H   0  0  0  0  0  0  0  0  0  0  0  0
   49.5943   29.6732   44.1995 H   0  0  0  0  0  0  0  0  0  0  0  0
   49.0464   30.4688   42.6851 H   0  0  0  0  0  0  0  0  0  0  0  0
   49.4487   28.7182   42.6851 H   0  0  0  0  0  0  0  0  0  0  0  0
   51.6750   29.5934   40.7536 H   0  0  0  0  0  0  0  0  0  0  0  0
   50.7903   28.2737   41.6316 H   0  0  0  0  0  0  0  0  0  0  0  0
   52.8999   28.3720   43.0526 H   0  0  0  0  0  0  0  0  0  0  0  0
   52.8117   27.4729   41.6339 H   0  0  0  0  0  0  0  0  0  0  0  0
  1 13  1  0
  2 11  1  0
  2  5  1  0
  2  1  1  0
  3  8  2  0
  4  3  1  0
  4  5  2  0
  5  6  1  0
  6  7  2  0
  8  7  1  0
  9  3  1  0
 10  9  2  0
 12  2  1  0
 14 13  1  0
 14 16  1  0
 15 14  1  0
 15 16  1  0
 16 17  1  0
 17 18  1  0
 19 20  1  0
 19 17  1  0
  1 21  1  0
  1 22  1  0
  4 23  1  0
  7 24  1  0
  9 25  1  0
 11 26  1  0
 11 27  1  0
 11 28  1  0
 12 29  1  0
 12 30  1  0
 12 31  1  0
 14 32  1  6
 15 33  1  0
 15 34  1  0
 16 35  1  1
 17 36  1  1
 18 37  1  0
 18 38  1  0
 18 39  1  0
 19 40  1  0
 19 41  1  0
 20 42  1  0
 20 43  1  0
M  ISO  8  21   8  22   8  23  14  24  14  25   6  26   8  27   8  28   8
M  ISO  8  29   8  30   8  31   8  32  13  33  13  34  13  35  13  36   8
M  ISO  7  37   8  38   8  39   8  40   8  41   8  42   5  43   5
M  END
>  <minimizedAffinity>  (1) 
-4.06546926

>  <minimizedRMSD>  (1) 
0.277302474

$$$$
