
     RDKit          3D

 42 43  0  0  1  0  0  0  0  0999 V2000
   48.4700   33.1230   41.5780 C   0  0  0  0  0  0  0  0  0  0  0  0
   47.9460   34.4270   41.1820 C   0  0  0  0  0  0  0  0  0  0  0  0
   44.1730   34.7540   41.3670 C   0  0  0  0  0  0  0  0  0  0  0  0
   45.4200   34.3730   40.8590 C   0  0  0  0  0  0  0  0  0  0  0  0
   46.5760   34.7440   41.5600 C   0  0  0  0  0  0  0  0  0  0  0  0
   46.4260   35.4590   42.7030 N   0  0  0  0  0  0  0  0  0  0  0  0
   45.1880   35.8110   43.1670 C   0  0  0  0  0  0  0  0  0  0  0  0
   44.0900   35.4680   42.5160 N   0  0  0  0  0  0  0  0  0  0  0  0
   43.0150   34.3290   40.5890 C   0  0  0  0  0  0  0  0  0  0  0  0
   42.4430   34.9340   39.7010 O   0  0  0  0  0  0  0  0  0  0  0  0
   48.8480   35.5820   41.5180 C   0  0  0  0  0  0  0  0  0  0  0  0
   48.0010   34.3760   39.6290 C   0  0  0  0  0  0  0  0  0  0  0  0
   49.8880   33.2770   41.6350 O   0  0  0  0  0  0  0  0  0  0  0  0
   50.3260   32.0090   41.3130 C   0  0  1  0  0  0  0  0  0  0  0  0
   51.6870   31.7460   40.8990 C   0  0  0  0  0  0  0  0  0  0  0  0
   51.3490   31.4410   42.3010 C   0  0  2  0  0  0  0  0  0  0  0  0
   51.1180   30.0270   42.7210 C   0  0  1  0  0  0  0  0  0  0  0  0
   49.6890   29.7050   43.1200 C   0  0  0  0  0  0  0  0  0  0  0  0
   51.4950   29.0690   41.6640 C   0  0  0  0  0  0  0  0  0  0  0  0
   50.2620   28.1340   40.8160 S   0  0  0  0  0  0  0  0  0  0  0  0
   48.1969   32.3585   40.8357 H   0  0  0  0  0  0  0  0  0  0  0  0
   48.0581   32.7966   42.5444 H   0  0  0  0  0  0  0  0  0  0  0  0
   45.4918   33.7932   39.9270 H   0  0  0  0  0  0  0  0  0  0  0  0
   45.1049   36.3899   44.0986 H   0  0  0  0  0  0  0  0  0  0  0  0
   42.6074   33.3375   40.8355 H   0  0  0  0  0  0  0  0  0  0  0  0
   48.9253   35.6810   42.6108 H   0  0  0  0  0  0  0  0  0  0  0  0
   49.8472   35.4022   41.0945 H   0  0  0  0  0  0  0  0  0  0  0  0
   48.4314   36.5078   41.0945 H   0  0  0  0  0  0  0  0  0  0  0  0
   48.7736   33.6596   39.3128 H   0  0  0  0  0  0  0  0  0  0  0  0
   47.0235   34.0576   39.2377 H   0  0  0  0  0  0  0  0  0  0  0  0
   48.2449   35.3747   39.2377 H   0  0  0  0  0  0  0  0  0  0  0  0
   49.3579   31.7343   40.8689 H   0  0  0  0  0  0  0  0  0  0  0  0
   51.8898   30.9213   40.1999 H   0  0  0  0  0  0  0  0  0  0  0  0
   52.4667   32.3589   40.4230 H   0  0  0  0  0  0  0  0  0  0  0  0
   51.7873   31.7138   43.2723 H   0  0  0  0  0  0  0  0  0  0  0  0
   51.7594   29.9235   43.6086 H   0  0  0  0  0  0  0  0  0  0  0  0
   49.6098   29.6871   44.2170 H   0  0  0  0  0  0  0  0  0  0  0  0
   49.0135   30.4735   42.7160 H   0  0  0  0  0  0  0  0  0  0  0  0
   49.4084   28.7211   42.7160 H   0  0  0  0  0  0  0  0  0  0  0  0
   52.0365   29.6432   40.8978 H   0  0  0  0  0  0  0  0  0  0  0  0
   52.0504   28.2979   42.2180 H   0  0  0  0  0  0  0  0  0  0  0  0
   49.4483   27.5170   41.7293 H   0  0  0  0  0  0  0  0  0  0  0  0
  1 13  1  0
  2 11  1  0
  2  5  1  0
  2  1  1  0
  3  8  2  0
  4  3  1  0
  4  5  2  0
  5  6  1  0
  6  7  2  0
  8  7  1  0
  9  3  1  0
 10  9  2  0
 12  2  1  0
 14 13  1  0
 14 16  1  0
 15 14  1  0
 15 16  1  0
 16 17  1  0
 17 18  1  0
 19 17  1  0
 20 19  1  0
  1 21  1  0
  1 22  1  0
  4 23  1  0
  7 24  1  0
  9 25  1  0
 11 26  1  0
 11 27  1  0
 11 28  1  0
 12 29  1  0
 12 30  1  0
 12 31  1  0
 14 32  1  6
 15 33  1  0
 15 34  1  0
 16 35  1  1
 17 36  1  1
 18 37  1  0
 18 38  1  0
 18 39  1  0
 19 40  1  0
 19 41  1  0
 20 42  1  0
M  ISO  8  21   8  22   8  23  14  24  14  25   6  26   8  27   8  28   8
M  ISO  8  29   8  30   8  31   8  32  13  33  13  34  13  35  13  36   8
M  ISO  6  37   8  38   8  39   8  40   8  41   8  42  11
M  END
>  <minimizedAffinity>  (1) 
-4.04426575

>  <minimizedRMSD>  (1) 
0.268320322

$$$$
