
     RDKit          3D

 22 23  0  0  0  0  0  0  0  0999 V2000
   47.1540   34.6000   41.9540 C   0  0  0  0  0  0  0  0  0  0  0  0
   45.9190   34.6120   41.2670 C   0  0  0  0  0  0  0  0  0  0  0  0
   44.7570   34.3670   41.9900 C   0  0  0  0  0  0  0  0  0  0  0  0
   44.8600   34.1250   43.3260 N   0  0  0  0  0  0  0  0  0  0  0  0
   46.0650   34.1210   43.9500 C   0  0  0  0  0  0  0  0  0  0  0  0
   47.1970   34.3590   43.2560 N   0  0  0  0  0  0  0  0  0  0  0  0
   43.4890   34.3610   41.3890 N   0  0  0  0  0  0  0  0  0  0  0  0
   42.8010   35.2580   40.6260 C   0  0  0  0  0  0  0  0  0  0  0  0
   41.6090   34.7720   40.2940 N   0  0  0  0  0  0  0  0  0  0  0  0
   41.5400   33.5430   40.8580 C   0  0  0  0  0  0  0  0  0  0  0  0
   42.6810   33.2990   41.5190 N   0  0  0  0  0  0  0  0  0  0  0  0
   48.2990   34.8740   41.0710 C   0  0  0  0  0  0  0  0  0  0  0  0
   49.1440   36.0200   41.5690 C   0  0  0  0  0  0  0  0  0  0  0  0
   45.8781   34.8105   40.1858 H   0  0  0  0  0  0  0  0  0  0  0  0
   46.1192   33.9221   45.0305 H   0  0  0  0  0  0  0  0  0  0  0  0
   43.1798   36.2464   40.3268 H   0  0  0  0  0  0  0  0  0  0  0  0
   40.6849   32.8548   40.7856 H   0  0  0  0  0  0  0  0  0  0  0  0
   47.9210   35.1227   40.0683 H   0  0  0  0  0  0  0  0  0  0  0  0
   48.9310   33.9739   41.0500 H   0  0  0  0  0  0  0  0  0  0  0  0
   49.1462   36.0230   42.6690 H   0  0  0  0  0  0  0  0  0  0  0  0
   50.1739   35.9033   41.2006 H   0  0  0  0  0  0  0  0  0  0  0  0
   48.7281   36.9694   41.2006 H   0  0  0  0  0  0  0  0  0  0  0  0
  1  6  2  0
  2  1  1  0
  2  3  2  0
  3  4  1  0
  4  5  2  0
  6  5  1  0
  7 11  1  0
  7  3  1  0
  8  7  1  0
  9  8  2  0
  9 10  1  0
 10 11  2  0
 12 13  1  0
 12  1  1  0
  2 14  1  0
  5 15  1  0
  8 16  1  0
 10 17  1  0
 12 18  1  0
 12 19  1  0
 13 20  1  0
 13 21  1  0
 13 22  1  0
M  ISO  8  14  14  15  14  16  14  17  14  18   8  19   8  20   8  21   8
M  ISO  1  22   8
M  END
>  <minimizedAffinity>  (1) 
-4.21469069

>  <minimizedRMSD>  (1) 
2.84727049

$$$$
