
     RDKit          3D

 19 19  0  0  0  0  0  0  0  0999 V2000
   47.4250   34.4150   42.4260 C   0  0  0  0  0  0  0  0  0  0  0  0
   46.3210   35.2320   42.7440 C   0  0  0  0  0  0  0  0  0  0  0  0
   45.5680   34.9700   43.9100 C   0  0  0  0  0  0  0  0  0  0  0  0
   45.9700   33.9180   44.6710 N   0  0  0  0  0  0  0  0  0  0  0  0
   47.0510   33.1470   44.3250 C   0  0  0  0  0  0  0  0  0  0  0  0
   47.7520   33.4020   43.2250 N   0  0  0  0  0  0  0  0  0  0  0  0
   48.0680   34.8540   41.1840 C   0  0  0  0  0  0  0  0  0  0  0  0
   49.0880   35.9510   41.4600 C   0  0  0  0  0  0  0  0  0  0  0  0
   44.4040   35.7720   44.3130 C   0  0  0  0  0  0  0  0  0  0  0  0
   46.0470   36.0703   42.0866 H   0  0  0  0  0  0  0  0  0  0  0  0
   47.3423   32.3039   44.9687 H   0  0  0  0  0  0  0  0  0  0  0  0
   47.3001   35.2403   40.4976 H   0  0  0  0  0  0  0  0  0  0  0  0
   48.5876   33.9952   40.7340 H   0  0  0  0  0  0  0  0  0  0  0  0
   49.2056   36.0775   42.5464 H   0  0  0  0  0  0  0  0  0  0  0  0
   50.0553   35.6723   41.0165 H   0  0  0  0  0  0  0  0  0  0  0  0
   48.7398   36.8955   41.0165 H   0  0  0  0  0  0  0  0  0  0  0  0
   44.3478   35.8107   45.4109 H   0  0  0  0  0  0  0  0  0  0  0  0
   44.5061   36.7923   43.9149 H   0  0  0  0  0  0  0  0  0  0  0  0
   43.4870   35.3131   43.9149 H   0  0  0  0  0  0  0  0  0  0  0  0
  1  2  2  0
  1  6  1  0
  2  3  1  0
  3  9  1  0
  3  4  2  0
  5  4  1  0
  6  5  2  0
  7  8  1  0
  7  1  1  0
  2 10  1  0
  5 11  1  0
  7 12  1  0
  7 13  1  0
  8 14  1  0
  8 15  1  0
  8 16  1  0
  9 17  1  0
  9 18  1  0
  9 19  1  0
M  ISO  8  10  14  11  14  12   8  13   8  14   8  15   8  16   8  17   8
M  ISO  2  18   8  19   8
M  END
>  <minimizedAffinity>  (1) 
-3.58338714

>  <minimizedRMSD>  (1) 
0.54400152

$$$$
