
     RDKit          3D

 26 27  0  0  0  0  0  0  0  0999 V2000
   47.9020   33.8910   42.2350 C   0  0  0  0  0  0  0  0  0  0  0  0
   47.0250   34.2870   43.2880 C   0  0  0  0  0  0  0  0  0  0  0  0
   46.7740   33.3760   44.2960 C   0  0  0  0  0  0  0  0  0  0  0  0
   47.3860   32.1510   44.2180 N   0  0  0  0  0  0  0  0  0  0  0  0
   48.2040   31.8170   43.2120 C   0  0  0  0  0  0  0  0  0  0  0  0
   48.4610   32.6670   42.2360 N   0  0  0  0  0  0  0  0  0  0  0  0
   48.0890   34.9630   41.2150 C   0  0  0  0  0  0  0  0  0  0  0  0
   49.1570   35.9230   41.6560 C   0  0  0  0  0  0  0  0  0  0  0  0
   45.6990   33.7670   45.6420 S   0  0  0  0  0  0  0  0  0  0  0  0
   46.1650   32.7590   47.0380 C   0  0  0  0  0  0  0  0  0  0  0  0
   45.0600   32.2650   47.7420 C   0  0  0  0  0  0  0  0  0  0  0  0
   45.2000   31.4640   48.8550 C   0  0  0  0  0  0  0  0  0  0  0  0
   46.4740   31.1270   49.3060 C   0  0  0  0  0  0  0  0  0  0  0  0
   47.5190   31.6550   48.5570 C   0  0  0  0  0  0  0  0  0  0  0  0
   47.4130   32.4380   47.4680 N   0  0  0  0  0  0  0  0  0  0  0  0
   46.5634   35.2854   43.2972 H   0  0  0  0  0  0  0  0  0  0  0  0
   48.6684   30.8199   43.1990 H   0  0  0  0  0  0  0  0  0  0  0  0
   47.1427   35.5083   41.0842 H   0  0  0  0  0  0  0  0  0  0  0  0
   48.3934   34.5021   40.2637 H   0  0  0  0  0  0  0  0  0  0  0  0
   49.1913   35.9538   42.7550 H   0  0  0  0  0  0  0  0  0  0  0  0
   50.1313   35.5911   41.2679 H   0  0  0  0  0  0  0  0  0  0  0  0
   48.9305   36.9270   41.2679 H   0  0  0  0  0  0  0  0  0  0  0  0
   44.0485   32.5243   47.3960 H   0  0  0  0  0  0  0  0  0  0  0  0
   44.3101   31.0928   49.3844 H   0  0  0  0  0  0  0  0  0  0  0  0
   46.6405   30.4912   50.1881 H   0  0  0  0  0  0  0  0  0  0  0  0
   48.5380   31.4071   48.8889 H   0  0  0  0  0  0  0  0  0  0  0  0
  1  6  2  0
  1  2  1  0
  2  3  2  0
  3  9  1  0
  4  3  1  0
  5  4  2  0
  6  5  1  0
  7  8  1  0
  7  1  1  0
  9 10  1  0
 10 15  1  0
 10 11  2  0
 11 12  1  0
 12 13  2  0
 14 13  1  0
 15 14  2  0
  2 16  1  0
  5 17  1  0
  7 18  1  0
  7 19  1  0
  8 20  1  0
  8 21  1  0
  8 22  1  0
 11 23  1  0
 12 24  1  0
 13 25  1  0
 14 26  1  0
M  ISO  8  16  14  17  14  18   8  19   8  20   8  21   8  22   8  23  14
M  ISO  3  24  14  25  14  26  14
M  END
>  <minimizedAffinity>  (1) 
-4.64797974

>  <minimizedRMSD>  (1) 
2.86835933

$$$$
