
     RDKit          3D

 39 41  0  0  1  0  0  0  0  0999 V2000
   47.4410   32.0870   44.6020 C   0  0  0  0  0  0  0  0  0  0  0  0
   46.8030   33.2920   44.2100 C   0  0  0  0  0  0  0  0  0  0  0  0
   45.9600   33.8490   45.1600 C   0  0  0  0  0  0  0  0  0  0  0  0
   45.7880   33.2530   46.3640 N   0  0  0  0  0  0  0  0  0  0  0  0
   46.4180   32.1120   46.6810 C   0  0  0  0  0  0  0  0  0  0  0  0
   47.2330   31.5230   45.8340 N   0  0  0  0  0  0  0  0  0  0  0  0
   47.1390   33.7340   42.8990 C   0  0  0  0  0  0  0  0  0  0  0  0
   48.2060   34.5790   42.8760 N   0  0  0  0  0  0  0  0  0  0  0  0
   48.6680   35.1000   41.7150 C   0  0  0  0  0  0  0  0  0  0  0  0
   48.1000   34.8140   40.5150 N   0  0  0  0  0  0  0  0  0  0  0  0
   47.0400   33.9800   40.5020 C   0  0  0  0  0  0  0  0  0  0  0  0
   46.3550   33.5940   39.3540 C   0  0  0  0  0  0  0  0  0  0  0  0
   45.2860   32.7480   39.3710 C   0  0  0  0  0  0  0  0  0  0  0  0
   44.8550   32.2450   40.5790 C   0  0  0  0  0  0  0  0  0  0  0  0
   45.4880   32.5880   41.7430 C   0  0  0  0  0  0  0  0  0  0  0  0
   46.5610   33.4440   41.6720 C   0  0  0  0  0  0  0  0  0  0  0  0
   46.1890   31.5400   47.9990 C   0  0  1  0  0  0  0  0  0  0  0  0
   44.7090   31.7440   48.4660 C   0  0  0  0  0  0  0  0  0  0  0  0
   46.5100   30.0820   48.1120 C   0  0  0  0  0  0  0  0  0  0  0  0
   45.3540   29.3810   48.0840 O   0  0  0  0  0  0  0  0  0  0  0  0
   45.0640   28.0870   47.6900 C   0  0  0  0  0  0  0  0  0  0  0  0
   45.2240   27.6830   46.5060 O   0  0  0  0  0  0  0  0  0  0  0  0
   44.5820   27.2270   48.6610 O   0  0  0  0  0  0  0  0  0  0  0  0
   44.1160   25.8950   48.2910 C   0  0  0  0  0  0  0  0  0  0  0  0
   42.9150   25.7040   48.0450 O   0  0  0  0  0  0  0  0  0  0  0  0
   48.1230   31.5904   43.8962 H   0  0  0  0  0  0  0  0  0  0  0  0
   45.4260   34.7837   44.9335 H   0  0  0  0  0  0  0  0  0  0  0  0
   49.5334   35.7784   41.7446 H   0  0  0  0  0  0  0  0  0  0  0  0
   46.6925   33.9909   38.3852 H   0  0  0  0  0  0  0  0  0  0  0  0
   44.7763   32.4718   38.4362 H   0  0  0  0  0  0  0  0  0  0  0  0
   43.9939   31.5612   40.6083 H   0  0  0  0  0  0  0  0  0  0  0  0
   45.1470   32.1891   42.7098 H   0  0  0  0  0  0  0  0  0  0  0  0
   46.8880   32.0887   48.6473 H   0  0  0  0  0  0  0  0  0  0  0  0
   44.6688   31.7495   49.5653 H   0  0  0  0  0  0  0  0  0  0  0  0
   44.3317   32.7026   48.0805 H   0  0  0  0  0  0  0  0  0  0  0  0
   44.0864   30.9232   48.0805 H   0  0  0  0  0  0  0  0  0  0  0  0
   47.1485   29.7770   47.2698 H   0  0  0  0  0  0  0  0  0  0  0  0
   47.0441   29.8873   49.0537 H   0  0  0  0  0  0  0  0  0  0  0  0
   44.8294   25.0600   48.2301 H   0  0  0  0  0  0  0  0  0  0  0  0
  1  6  2  0
  2  1  1  0
  2  3  2  0
  3  4  1  0
  4  5  2  0
  5 17  1  0
  6  5  1  0
  7  2  1  0
  8  7  2  0
  9  8  1  0
 10  9  2  0
 11 10  1  0
 11 16  2  0
 12 13  2  0
 12 11  1  0
 13 14  1  0
 14 15  2  0
 16 15  1  0
 16  7  1  0
 17 19  1  0
 17 18  1  0
 20 19  1  0
 21 20  1  0
 21 23  1  0
 22 21  2  0
 24 23  1  0
 25 24  2  0
  1 26  1  0
  3 27  1  0
  9 28  1  0
 12 29  1  0
 13 30  1  0
 14 31  1  0
 15 32  1  0
 17 33  1  1
 18 34  1  0
 18 35  1  0
 18 36  1  0
 19 37  1  0
 19 38  1  0
 24 39  1  0
M  ISO  8  26  14  27  14  28  14  29  14  30  14  31  14  32  14  33   8
M  ISO  6  34   8  35   8  36   8  37   8  38   8  39   6
M  END
>  <minimizedAffinity>  (1) 
-4.59316874

>  <minimizedRMSD>  (1) 
0.254797369

$$$$
