
     RDKit          3D

 25 26  0  0  0  0  0  0  0  0999 V2000
   48.0590   34.1570   42.9380 C   0  0  0  0  0  0  0  0  0  0  0  0
   46.9600   35.0140   42.7170 C   0  0  0  0  0  0  0  0  0  0  0  0
   45.7340   34.6890   43.3080 C   0  0  0  0  0  0  0  0  0  0  0  0
   45.6670   33.5540   44.0710 N   0  0  0  0  0  0  0  0  0  0  0  0
   46.7600   32.7630   44.2500 C   0  0  0  0  0  0  0  0  0  0  0  0
   47.9250   33.0530   43.7000 N   0  0  0  0  0  0  0  0  0  0  0  0
   49.2800   34.6200   42.2580 C   0  0  0  0  0  0  0  0  0  0  0  0
   49.0200   35.8800   41.4700 C   0  0  0  0  0  0  0  0  0  0  0  0
   44.2990   35.6760   43.1070 S   0  0  0  0  0  0  0  0  0  0  0  0
   43.3650   35.1570   41.6740 C   0  0  0  0  0  0  0  0  0  0  0  0
   43.8600   34.5380   40.5440 C   0  0  0  0  0  0  0  0  0  0  0  0
   42.9750   34.2110   39.5360 C   0  0  0  0  0  0  0  0  0  0  0  0
   41.6580   34.4720   39.6130 N   0  0  0  0  0  0  0  0  0  0  0  0
   41.2090   35.0760   40.7300 C   0  0  0  0  0  0  0  0  0  0  0  0
   42.0360   35.4210   41.7540 N   0  0  0  0  0  0  0  0  0  0  0  0
   47.0645   35.9155   42.0954 H   0  0  0  0  0  0  0  0  0  0  0  0
   46.6706   31.8582   44.8692 H   0  0  0  0  0  0  0  0  0  0  0  0
   50.0560   34.8213   43.0112 H   0  0  0  0  0  0  0  0  0  0  0  0
   49.6104   33.8351   41.5617 H   0  0  0  0  0  0  0  0  0  0  0  0
   48.8473   36.7167   42.1629 H   0  0  0  0  0  0  0  0  0  0  0  0
   49.8912   36.1025   40.8363 H   0  0  0  0  0  0  0  0  0  0  0  0
   48.1319   35.7395   40.8363 H   0  0  0  0  0  0  0  0  0  0  0  0
   44.9321   34.3110   40.4490 H   0  0  0  0  0  0  0  0  0  0  0  0
   43.3630   33.7168   38.6331 H   0  0  0  0  0  0  0  0  0  0  0  0
   40.1353   35.2984   40.8176 H   0  0  0  0  0  0  0  0  0  0  0  0
  1  6  2  0
  2  1  1  0
  2  3  2  0
  3  4  1  0
  4  5  2  0
  6  5  1  0
  7  1  1  0
  8  7  1  0
  9  3  1  0
 10 15  1  0
 10  9  1  0
 11 10  2  0
 12 13  2  0
 12 11  1  0
 13 14  1  0
 14 15  2  0
  2 16  1  0
  5 17  1  0
  7 18  1  0
  7 19  1  0
  8 20  1  0
  8 21  1  0
  8 22  1  0
 11 23  1  0
 12 24  1  0
 14 25  1  0
M  ISO  8  16  14  17  14  18   8  19   8  20   8  21   8  22   8  23  14
M  ISO  2  24  14  25  14
M  END
>  <minimizedAffinity>  (1) 
-4.30936909

>  <minimizedRMSD>  (1) 
1.8772732

$$$$
