
     RDKit          3D

 20 20  0  0  0  0  0  0  0  0999 V2000
   48.0400   34.1690   42.6570 C   0  0  0  0  0  0  0  0  0  0  0  0
   46.9180   35.0190   42.5740 C   0  0  0  0  0  0  0  0  0  0  0  0
   45.8680   34.7670   43.4660 C   0  0  0  0  0  0  0  0  0  0  0  0
   45.9630   33.7440   44.3530 N   0  0  0  0  0  0  0  0  0  0  0  0
   47.0730   32.9600   44.3830 C   0  0  0  0  0  0  0  0  0  0  0  0
   48.0900   33.1760   43.5450 N   0  0  0  0  0  0  0  0  0  0  0  0
   49.0800   34.5300   41.6650 C   0  0  0  0  0  0  0  0  0  0  0  0
   49.1120   36.0140   41.4290 C   0  0  0  0  0  0  0  0  0  0  0  0
   44.4070   35.7460   43.4570 S   0  0  0  0  0  0  0  0  0  0  0  0
   43.5360   35.4110   41.8810 C   0  0  0  0  0  0  0  0  0  0  0  0
   46.8697   35.8404   41.8439 H   0  0  0  0  0  0  0  0  0  0  0  0
   47.1344   32.1353   45.1084 H   0  0  0  0  0  0  0  0  0  0  0  0
   50.0618   34.2047   42.0395 H   0  0  0  0  0  0  0  0  0  0  0  0
   48.8436   34.0304   40.7140 H   0  0  0  0  0  0  0  0  0  0  0  0
   49.1233   36.5388   42.3957 H   0  0  0  0  0  0  0  0  0  0  0  0
   50.0160   36.2753   40.8593 H   0  0  0  0  0  0  0  0  0  0  0  0
   48.2201   36.3140   40.8593 H   0  0  0  0  0  0  0  0  0  0  0  0
   42.5287   35.0236   42.0939 H   0  0  0  0  0  0  0  0  0  0  0  0
   43.4557   36.3424   41.3013 H   0  0  0  0  0  0  0  0  0  0  0  0
   44.1005   34.6658   41.3013 H   0  0  0  0  0  0  0  0  0  0  0  0
  1  6  2  0
  2  1  1  0
  2  3  2  0
  3  4  1  0
  4  5  2  0
  6  5  1  0
  7  1  1  0
  8  7  1  0
  9  3  1  0
 10  9  1  0
  2 11  1  0
  5 12  1  0
  7 13  1  0
  7 14  1  0
  8 15  1  0
  8 16  1  0
  8 17  1  0
 10 18  1  0
 10 19  1  0
 10 20  1  0
M  ISO  8  11  14  12  14  13   8  14   8  15   8  16   8  17   8  18   8
M  ISO  2  19   8  20   8
M  END
>  <minimizedAffinity>  (1) 
-3.31062102

>  <minimizedRMSD>  (1) 
0.804125547

$$$$
