
     RDKit          3D

 24 26  0  0  0  0  0  0  0  0999 V2000
   46.8410   32.6690   45.1510 C   0  0  0  0  0  0  0  0  0  0  0  0
   47.7000   32.1580   44.2540 N   0  0  0  0  0  0  0  0  0  0  0  0
   47.9060   32.6670   43.0400 C   0  0  0  0  0  0  0  0  0  0  0  0
   47.2430   33.7590   42.6220 N   0  0  0  0  0  0  0  0  0  0  0  0
   46.3560   34.3530   43.4420 C   0  0  0  0  0  0  0  0  0  0  0  0
   45.6780   35.4710   43.0170 C   0  0  0  0  0  0  0  0  0  0  0  0
   44.7640   36.0980   43.8370 C   0  0  0  0  0  0  0  0  0  0  0  0
   44.5620   35.5620   45.0910 C   0  0  0  0  0  0  0  0  0  0  0  0
   45.2680   34.4390   45.4690 C   0  0  0  0  0  0  0  0  0  0  0  0
   46.1860   33.7840   44.6830 C   0  0  0  0  0  0  0  0  0  0  0  0
   45.4510   30.2350   47.5780 C   0  0  0  0  0  0  0  0  0  0  0  0
   45.8200   30.9760   46.4560 C   0  0  0  0  0  0  0  0  0  0  0  0
   46.6260   32.1070   46.4700 C   0  0  0  0  0  0  0  0  0  0  0  0
   47.0050   32.3950   47.7180 N   0  0  0  0  0  0  0  0  0  0  0  0
   46.6960   31.7420   48.8300 C   0  0  0  0  0  0  0  0  0  0  0  0
   45.9160   30.6600   48.7600 N   0  0  0  0  0  0  0  0  0  0  0  0
   48.6314   32.1851   42.3680 H   0  0  0  0  0  0  0  0  0  0  0  0
   45.8672   35.8704   42.0097 H   0  0  0  0  0  0  0  0  0  0  0  0
   44.2167   36.9920   43.5033 H   0  0  0  0  0  0  0  0  0  0  0  0
   43.8443   36.0257   45.7838 H   0  0  0  0  0  0  0  0  0  0  0  0
   45.0823   34.0370   46.4759 H   0  0  0  0  0  0  0  0  0  0  0  0
   44.8095   29.3451   47.4964 H   0  0  0  0  0  0  0  0  0  0  0  0
   45.4419   30.6372   45.4802 H   0  0  0  0  0  0  0  0  0  0  0  0
   47.0786   32.0883   49.8014 H   0  0  0  0  0  0  0  0  0  0  0  0
  1 13  1  0
  2  1  2  0
  3  2  1  0
  4  3  2  0
  4  5  1  0
  5 10  2  0
  6  5  1  0
  6  7  2  0
  7  8  1  0
  8  9  2  0
 10  1  1  0
 10  9  1  0
 11 16  2  0
 12 13  2  0
 12 11  1  0
 13 14  1  0
 14 15  2  0
 16 15  1  0
  3 17  1  0
  6 18  1  0
  7 19  1  0
  8 20  1  0
  9 21  1  0
 11 22  1  0
 12 23  1  0
 15 24  1  0
M  ISO  8  17  14  18  14  19  14  20  14  21  14  22  14  23  14  24  14
M  END
>  <minimizedAffinity>  (1) 
-5.13762903

>  <minimizedRMSD>  (1) 
4.53153944

$$$$
