
     RDKit          3D

 37 39  0  0  0  0  0  0  0  0999 V2000
   46.0630   34.8980   43.0430 C   0  0  0  0  0  0  0  0  0  0  0  0
   46.4450   33.9430   44.0110 C   0  0  0  0  0  0  0  0  0  0  0  0
   45.8300   33.9760   45.2520 C   0  0  0  0  0  0  0  0  0  0  0  0
   44.8830   34.9320   45.4770 N   0  0  0  0  0  0  0  0  0  0  0  0
   44.5460   35.8250   44.5280 C   0  0  0  0  0  0  0  0  0  0  0  0
   45.1310   35.8070   43.3250 N   0  0  0  0  0  0  0  0  0  0  0  0
   46.8060   34.7420   41.7630 C   0  0  0  0  0  0  0  0  0  0  0  0
   48.1860   35.3100   41.8600 C   0  0  0  0  0  0  0  0  0  0  0  0
   46.2290   32.8370   46.5300 S   0  0  0  0  0  0  0  0  0  0  0  0
   46.5570   31.1960   45.9150 C   0  0  0  0  0  0  0  0  0  0  0  0
   47.5900   30.5050   45.2540 C   0  0  0  0  0  0  0  0  0  0  0  0
   47.1200   29.2200   45.0980 C   0  0  0  0  0  0  0  0  0  0  0  0
   45.8850   29.1270   45.6270 N   0  0  0  0  0  0  0  0  0  0  0  0
   45.5450   30.3130   46.1190 N   0  0  0  0  0  0  0  0  0  0  0  0
   45.1520   27.8760   45.6010 C   0  0  0  0  0  0  0  0  0  0  0  0
   43.8070   28.1210   46.2660 C   0  0  0  0  0  0  0  0  0  0  0  0
   42.7710   28.1200   45.1700 C   0  0  0  0  0  0  0  0  0  0  0  0
   43.5840   28.3710   43.9200 C   0  0  0  0  0  0  0  0  0  0  0  0
   44.7920   27.5010   44.1780 C   0  0  0  0  0  0  0  0  0  0  0  0
   47.2139   33.1896   43.7845 H   0  0  0  0  0  0  0  0  0  0  0  0
   43.7775   36.5815   44.7450 H   0  0  0  0  0  0  0  0  0  0  0  0
   46.2587   35.2658   40.9654 H   0  0  0  0  0  0  0  0  0  0  0  0
   46.8887   33.6681   41.5396 H   0  0  0  0  0  0  0  0  0  0  0  0
   48.4621   35.4237   42.9187 H   0  0  0  0  0  0  0  0  0  0  0  0
   48.8973   34.6315   41.3663 H   0  0  0  0  0  0  0  0  0  0  0  0
   48.2136   36.2926   41.3663 H   0  0  0  0  0  0  0  0  0  0  0  0
   48.5627   30.9051   44.9317 H   0  0  0  0  0  0  0  0  0  0  0  0
   47.6683   28.3971   44.6160 H   0  0  0  0  0  0  0  0  0  0  0  0
   45.7670   27.1021   46.0835 H   0  0  0  0  0  0  0  0  0  0  0  0
   43.5920   27.3219   46.9908 H   0  0  0  0  0  0  0  0  0  0  0  0
   43.8045   29.0771   46.8099 H   0  0  0  0  0  0  0  0  0  0  0  0
   42.2556   27.1497   45.1163 H   0  0  0  0  0  0  0  0  0  0  0  0
   41.9801   28.8684   45.3257 H   0  0  0  0  0  0  0  0  0  0  0  0
   43.8629   29.4309   43.8262 H   0  0  0  0  0  0  0  0  0  0  0  0
   43.0546   28.1432   42.9831 H   0  0  0  0  0  0  0  0  0  0  0  0
   44.5401   26.4333   44.0976 H   0  0  0  0  0  0  0  0  0  0  0  0
   45.6101   27.6534   43.4587 H   0  0  0  0  0  0  0  0  0  0  0  0
  1  6  2  0
  1  2  1  0
  2  3  2  0
  3  4  1  0
  3  9  1  0
  5  4  2  0
  6  5  1  0
  7  8  1  0
  7  1  1  0
 10 14  2  0
 10  9  1  0
 11 10  1  0
 12 11  2  0
 12 13  1  0
 13 14  1  0
 15 13  1  0
 15 16  1  0
 17 16  1  0
 18 19  1  0
 18 17  1  0
 19 15  1  0
  2 20  1  0
  5 21  1  0
  7 22  1  0
  7 23  1  0
  8 24  1  0
  8 25  1  0
  8 26  1  0
 11 27  1  0
 12 28  1  0
 15 29  1  0
 16 30  1  0
 16 31  1  0
 17 32  1  0
 17 33  1  0
 18 34  1  0
 18 35  1  0
 19 36  1  0
 19 37  1  0
M  ISO  8  20  14  21  14  22   8  23   8  24   8  25   8  26   8  27  14
M  ISO  8  28  14  29  13  30  13  31  13  32  13  33  13  34  13  35  13
M  ISO  2  36  13  37  13
M  END
>  <minimizedAffinity>  (1) 
-4.39738417

>  <minimizedRMSD>  (1) 
3.12344623

$$$$
