
     RDKit          3D

 36 38  0  0  1  0  0  0  0  0999 V2000
   47.2150   34.6940   42.7400 C   0  0  0  0  0  0  0  0  0  0  0  0
   47.7260   33.4930   43.2770 C   0  0  0  0  0  0  0  0  0  0  0  0
   46.9360   32.7860   44.1700 C   0  0  0  0  0  0  0  0  0  0  0  0
   45.7020   33.2900   44.4840 N   0  0  0  0  0  0  0  0  0  0  0  0
   45.2560   34.4430   43.9450 C   0  0  0  0  0  0  0  0  0  0  0  0
   46.0020   35.1330   43.0880 N   0  0  0  0  0  0  0  0  0  0  0  0
   48.1670   35.3450   41.8000 C   0  0  0  0  0  0  0  0  0  0  0  0
   49.5870   35.1890   42.2910 C   0  0  0  0  0  0  0  0  0  0  0  0
   47.4560   31.2830   44.9040 S   0  0  0  0  0  0  0  0  0  0  0  0
   46.3160   30.6600   46.1180 C   0  0  0  0  0  0  0  0  0  0  0  0
   45.7130   31.1030   47.3090 C   0  0  0  0  0  0  0  0  0  0  0  0
   44.9250   30.0680   47.7200 C   0  0  0  0  0  0  0  0  0  0  0  0
   45.0210   29.0390   46.8520 N   0  0  0  0  0  0  0  0  0  0  0  0
   45.8580   29.4100   45.8990 N   0  0  0  0  0  0  0  0  0  0  0  0
   44.6710   26.8230   45.9850 N   0  0  0  0  0  0  0  0  0  0  0  0
   44.0880   25.5920   46.4640 C   0  0  0  0  0  0  0  0  0  0  0  0
   43.9760   25.6960   47.9670 C   0  0  0  0  0  0  0  0  0  0  0  0
   44.6520   27.0400   48.2580 C   0  0  0  0  0  0  0  0  0  0  0  0
   44.3030   27.7840   47.0050 C   0  0  1  0  0  0  0  0  0  0  0  0
   48.7244   33.1278   42.9945 H   0  0  0  0  0  0  0  0  0  0  0  0
   44.2590   34.8184   44.2189 H   0  0  0  0  0  0  0  0  0  0  0  0
   47.9258   36.4156   41.7245 H   0  0  0  0  0  0  0  0  0  0  0  0
   48.0772   34.8651   40.8143 H   0  0  0  0  0  0  0  0  0  0  0  0
   49.5966   35.1879   43.3910 H   0  0  0  0  0  0  0  0  0  0  0  0
   50.0011   34.2400   41.9198 H   0  0  0  0  0  0  0  0  0  0  0  0
   50.1973   36.0255   41.9198 H   0  0  0  0  0  0  0  0  0  0  0  0
   45.8480   32.0763   47.8035 H   0  0  0  0  0  0  0  0  0  0  0  0
   44.3022   30.0716   48.6267 H   0  0  0  0  0  0  0  0  0  0  0  0
   45.6948   26.7409   45.9074 H   0  0  0  0  0  0  0  0  0  0  0  0
   43.0904   25.4522   46.0220 H   0  0  0  0  0  0  0  0  0  0  0  0
   44.7129   24.7321   46.1811 H   0  0  0  0  0  0  0  0  0  0  0  0
   42.9238   25.7026   48.2877 H   0  0  0  0  0  0  0  0  0  0  0  0
   44.4343   24.8502   48.5003 H   0  0  0  0  0  0  0  0  0  0  0  0
   44.2301   27.5242   49.1511 H   0  0  0  0  0  0  0  0  0  0  0  0
   45.7285   26.9794   48.4760 H   0  0  0  0  0  0  0  0  0  0  0  0
   43.2505   28.1023   46.9760 H   0  0  0  0  0  0  0  0  0  0  0  0
  1  6  2  0
  1  2  1  0
  2  3  2  0
  3  4  1  0
  3  9  1  0
  5  4  2  0
  6  5  1  0
  7  8  1  0
  7  1  1  0
  9 10  1  0
 10 11  1  0
 11 12  2  0
 13 12  1  0
 14 10  2  0
 14 13  1  0
 15 16  1  0
 15 19  1  0
 16 17  1  0
 17 18  1  0
 19 13  1  0
 19 18  1  0
  2 20  1  0
  5 21  1  0
  7 22  1  0
  7 23  1  0
  8 24  1  0
  8 25  1  0
  8 26  1  0
 11 27  1  0
 12 28  1  0
 15 29  1  0
 16 30  1  0
 16 31  1  0
 17 32  1  0
 17 33  1  0
 18 34  1  0
 18 35  1  0
 19 36  1  1
M  ISO  8  20  14  21  14  22   8  23   8  24   8  25   8  26   8  27  14
M  ISO  8  28  14  29   5  30  13  31  13  32  13  33  13  34  13  35  13
M  ISO  1  36  13
M  END
>  <minimizedAffinity>  (1) 
-4.39528608

>  <minimizedRMSD>  (1) 
1.50497508

$$$$
