
     RDKit          3D

 33 34  0  0  0  0  0  0  0  0999 V2000
   47.2000   34.7190   42.7320 C   0  0  0  0  0  0  0  0  0  0  0  0
   47.7140   33.5280   43.2700 C   0  0  0  0  0  0  0  0  0  0  0  0
   46.9230   32.8240   44.1700 C   0  0  0  0  0  0  0  0  0  0  0  0
   45.6880   33.3260   44.4830 N   0  0  0  0  0  0  0  0  0  0  0  0
   45.2420   34.4740   43.9370 C   0  0  0  0  0  0  0  0  0  0  0  0
   45.9840   35.1540   43.0810 N   0  0  0  0  0  0  0  0  0  0  0  0
   48.1630   35.3560   41.7870 C   0  0  0  0  0  0  0  0  0  0  0  0
   49.5800   35.1960   42.2800 C   0  0  0  0  0  0  0  0  0  0  0  0
   47.4640   31.3220   44.9080 S   0  0  0  0  0  0  0  0  0  0  0  0
   46.3700   30.7530   46.1990 C   0  0  0  0  0  0  0  0  0  0  0  0
   45.7010   31.2920   47.3150 C   0  0  0  0  0  0  0  0  0  0  0  0
   45.0160   30.2360   47.8670 C   0  0  0  0  0  0  0  0  0  0  0  0
   45.2410   29.1180   47.1490 N   0  0  0  0  0  0  0  0  0  0  0  0
   46.0580   29.4440   46.1480 N   0  0  0  0  0  0  0  0  0  0  0  0
   44.6580   27.8310   47.4770 C   0  0  0  0  0  0  0  0  0  0  0  0
   43.7860   27.3620   46.3400 C   0  0  0  0  0  0  0  0  0  0  0  0
   45.7320   26.7900   47.7420 C   0  0  0  0  0  0  0  0  0  0  0  0
   48.7126   33.1633   42.9875 H   0  0  0  0  0  0  0  0  0  0  0  0
   44.2448   34.8510   44.2080 H   0  0  0  0  0  0  0  0  0  0  0  0
   47.9294   36.4275   41.7014 H   0  0  0  0  0  0  0  0  0  0  0  0
   48.0725   34.8657   40.8065 H   0  0  0  0  0  0  0  0  0  0  0  0
   49.5876   35.1951   43.3800 H   0  0  0  0  0  0  0  0  0  0  0  0
   49.9919   34.2456   41.9097 H   0  0  0  0  0  0  0  0  0  0  0  0
   50.1935   36.0306   41.9097 H   0  0  0  0  0  0  0  0  0  0  0  0
   45.7221   32.3334   47.6686 H   0  0  0  0  0  0  0  0  0  0  0  0
   44.3789   30.2947   48.7618 H   0  0  0  0  0  0  0  0  0  0  0  0
   44.0569   27.9546   48.3899 H   0  0  0  0  0  0  0  0  0  0  0  0
   42.8851   26.8775   46.7446 H   0  0  0  0  0  0  0  0  0  0  0  0
   43.4929   28.2242   45.7229 H   0  0  0  0  0  0  0  0  0  0  0  0
   44.3438   26.6422   45.7229 H   0  0  0  0  0  0  0  0  0  0  0  0
   45.8613   26.6646   48.8272 H   0  0  0  0  0  0  0  0  0  0  0  0
   45.4311   25.8308   47.2954 H   0  0  0  0  0  0  0  0  0  0  0  0
   46.6813   27.1207   47.2954 H   0  0  0  0  0  0  0  0  0  0  0  0
  1  6  2  0
  1  2  1  0
  2  3  2  0
  3  4  1  0
  3  9  1  0
  5  4  2  0
  6  5  1  0
  7  8  1  0
  7  1  1  0
  9 10  1  0
 10 11  1  0
 11 12  2  0
 13 15  1  0
 13 12  1  0
 14 10  2  0
 14 13  1  0
 15 17  1  0
 16 15  1  0
  2 18  1  0
  5 19  1  0
  7 20  1  0
  7 21  1  0
  8 22  1  0
  8 23  1  0
  8 24  1  0
 11 25  1  0
 12 26  1  0
 15 27  1  0
 16 28  1  0
 16 29  1  0
 16 30  1  0
 17 31  1  0
 17 32  1  0
 17 33  1  0
M  ISO  8  18  14  19  14  20   8  21   8  22   8  23   8  24   8  25  14
M  ISO  8  26  14  27   8  28   8  29   8  30   8  31   8  32   8  33   8
M  END
>  <minimizedAffinity>  (1) 
-4.09897375

>  <minimizedRMSD>  (1) 
1.11848676

$$$$
