
     RDKit          3D

 40 43  0  0  0  0  0  0  0  0999 V2000
   46.1040   32.0270   46.7500 C   0  0  0  0  0  0  0  0  0  0  0  0
   45.2590   32.2120   47.8540 C   0  0  0  0  0  0  0  0  0  0  0  0
   44.6590   30.9820   48.0660 C   0  0  0  0  0  0  0  0  0  0  0  0
   45.1190   30.1190   47.1460 N   0  0  0  0  0  0  0  0  0  0  0  0
   45.9890   30.7280   46.3430 N   0  0  0  0  0  0  0  0  0  0  0  0
   44.6790   28.7580   47.1090 C   0  0  0  0  0  0  0  0  0  0  0  0
   43.7900   28.2190   46.0390 C   0  0  0  0  0  0  0  0  0  0  0  0
   43.6510   26.4360   46.6300 S   0  0  0  0  0  0  0  0  0  0  0  0
   44.7670   26.7870   48.1190 C   0  0  0  0  0  0  0  0  0  0  0  0
   45.0470   27.8830   48.0410 N   0  0  0  0  0  0  0  0  0  0  0  0
   45.1000   25.7340   49.0790 N   0  0  0  0  0  0  0  0  0  0  0  0
   46.0240   24.7980   48.7740 C   0  0  0  0  0  0  0  0  0  0  0  0
   46.3450   23.7970   49.6780 C   0  0  0  0  0  0  0  0  0  0  0  0
   45.7080   23.7630   50.9020 C   0  0  0  0  0  0  0  0  0  0  0  0
   46.0100   22.8480   51.7130 O   0  0  0  0  0  0  0  0  0  0  0  0
   44.7870   24.7200   51.1700 N   0  0  0  0  0  0  0  0  0  0  0  0
   44.4900   25.6830   50.2770 C   0  0  0  0  0  0  0  0  0  0  0  0
   43.6310   26.5480   50.5680 O   0  0  0  0  0  0  0  0  0  0  0  0
   47.2270   33.0200   45.8090 S   0  0  0  0  0  0  0  0  0  0  0  0
   46.5210   34.5540   42.1490 C   0  0  0  0  0  0  0  0  0  0  0  0
   47.1780   33.9270   43.2080 C   0  0  0  0  0  0  0  0  0  0  0  0
   46.5060   33.7870   44.4120 C   0  0  0  0  0  0  0  0  0  0  0  0
   45.2330   34.2680   44.5030 N   0  0  0  0  0  0  0  0  0  0  0  0
   44.6290   34.8700   43.4550 C   0  0  0  0  0  0  0  0  0  0  0  0
   45.2670   35.0050   42.3050 N   0  0  0  0  0  0  0  0  0  0  0  0
   47.3660   34.6320   40.9220 C   0  0  0  0  0  0  0  0  0  0  0  0
   48.6330   35.3900   41.2050 C   0  0  0  0  0  0  0  0  0  0  0  0
   45.1055   33.1371   48.4290 H   0  0  0  0  0  0  0  0  0  0  0  0
   43.9285   30.7509   48.8553 H   0  0  0  0  0  0  0  0  0  0  0  0
   43.3467   28.7160   45.1635 H   0  0  0  0  0  0  0  0  0  0  0  0
   46.5280   24.8300   47.7968 H   0  0  0  0  0  0  0  0  0  0  0  0
   47.0992   23.0381   49.4225 H   0  0  0  0  0  0  0  0  0  0  0  0
   44.3024   24.7106   52.0788 H   0  0  0  0  0  0  0  0  0  0  0  0
   48.2055   33.5524   43.0901 H   0  0  0  0  0  0  0  0  0  0  0  0
   43.6018   35.2495   43.5591 H   0  0  0  0  0  0  0  0  0  0  0  0
   46.8053   35.1470   40.1280 H   0  0  0  0  0  0  0  0  0  0  0  0
   47.6247   33.6120   40.6017 H   0  0  0  0  0  0  0  0  0  0  0  0
   48.7745   35.4746   42.2926 H   0  0  0  0  0  0  0  0  0  0  0  0
   49.4869   34.8543   40.7648 H   0  0  0  0  0  0  0  0  0  0  0  0
   48.5647   36.3957   40.7648 H   0  0  0  0  0  0  0  0  0  0  0  0
  1  2  1  0
  2  3  2  0
  4  3  1  0
  5  1  2  0
  5  4  1  0
  6  4  1  0
  6 10  1  0
  7  8  1  0
  7  6  2  0
  8  9  1  0
  9 11  1  0
 10  9  2  0
 11 17  1  0
 12 11  1  0
 12 13  2  0
 13 14  1  0
 14 16  1  0
 14 15  2  0
 17 18  2  0
 17 16  1  0
 19  1  1  0
 20 25  2  0
 20 21  1  0
 21 22  2  0
 22 23  1  0
 22 19  1  0
 24 23  2  0
 25 24  1  0
 26 27  1  0
 26 20  1  0
  2 28  1  0
  3 29  1  0
  7 30  1  0
 12 31  1  0
 13 32  1  0
 16 33  1  0
 21 34  1  0
 24 35  1  0
 26 36  1  0
 26 37  1  0
 27 38  1  0
 27 39  1  0
 27 40  1  0
M  ISO  8  28  14  29  14  30  14  31  14  32  14  33   9  34  14  35  14
M  ISO  5  36   8  37   8  38   8  39   8  40   8
M  END
>  <minimizedAffinity>  (1) 
-6.25801277

>  <minimizedRMSD>  (1) 
1.30208242

$$$$
