
     RDKit          3D

 37 40  0  0  0  0  0  0  0  0999 V2000
   46.1720   31.0160   47.0920 C   0  0  0  0  0  0  0  0  0  0  0  0
   45.4680   31.1750   48.2910 C   0  0  0  0  0  0  0  0  0  0  0  0
   44.9200   29.9360   48.5700 C   0  0  0  0  0  0  0  0  0  0  0  0
   45.2770   29.0920   47.5960 N   0  0  0  0  0  0  0  0  0  0  0  0
   46.0300   29.7200   46.6960 N   0  0  0  0  0  0  0  0  0  0  0  0
   44.8650   27.7210   47.5970 C   0  0  0  0  0  0  0  0  0  0  0  0
   43.8370   27.1710   46.6620 C   0  0  0  0  0  0  0  0  0  0  0  0
   43.8160   25.3870   47.2200 S   0  0  0  0  0  0  0  0  0  0  0  0
   45.1310   25.7300   48.5350 C   0  0  0  0  0  0  0  0  0  0  0  0
   45.3710   26.8250   48.4380 N   0  0  0  0  0  0  0  0  0  0  0  0
   45.6520   24.6470   49.4520 C   0  0  0  0  0  0  0  0  0  0  0  0
   46.4970   23.6340   49.1070 C   0  0  0  0  0  0  0  0  0  0  0  0
   46.6820   22.9090   50.2670 C   0  0  0  0  0  0  0  0  0  0  0  0
   45.9270   23.5510   51.2260 C   0  0  0  0  0  0  0  0  0  0  0  0
   45.3150   24.5930   50.7160 O   0  0  0  0  0  0  0  0  0  0  0  0
   47.1510   32.0430   46.0330 S   0  0  0  0  0  0  0  0  0  0  0  0
   45.7360   34.8950   43.5610 C   0  0  0  0  0  0  0  0  0  0  0  0
   46.4920   33.8030   44.0270 C   0  0  0  0  0  0  0  0  0  0  0  0
   46.2770   33.3870   45.3320 C   0  0  0  0  0  0  0  0  0  0  0  0
   45.3610   34.0420   46.0880 N   0  0  0  0  0  0  0  0  0  0  0  0
   44.6530   35.0910   45.6030 C   0  0  0  0  0  0  0  0  0  0  0  0
   44.8430   35.5010   44.3640 N   0  0  0  0  0  0  0  0  0  0  0  0
   46.0450   35.2530   42.1560 C   0  0  0  0  0  0  0  0  0  0  0  0
   47.5240   35.0840   41.8840 C   0  0  0  0  0  0  0  0  0  0  0  0
   45.3707   32.0941   48.8875 H   0  0  0  0  0  0  0  0  0  0  0  0
   44.2979   29.6877   49.4425 H   0  0  0  0  0  0  0  0  0  0  0  0
   43.2586   27.6722   45.8720 H   0  0  0  0  0  0  0  0  0  0  0  0
   46.9363   23.4371   48.1180 H   0  0  0  0  0  0  0  0  0  0  0  0
   47.3009   22.0092   50.3986 H   0  0  0  0  0  0  0  0  0  0  0  0
   45.8487   23.2325   52.2760 H   0  0  0  0  0  0  0  0  0  0  0  0
   47.2254   33.2989   43.3805 H   0  0  0  0  0  0  0  0  0  0  0  0
   43.9188   35.6012   46.2438 H   0  0  0  0  0  0  0  0  0  0  0  0
   45.4747   34.5981   41.4808 H   0  0  0  0  0  0  0  0  0  0  0  0
   45.7676   36.3036   41.9852 H   0  0  0  0  0  0  0  0  0  0  0  0
   48.0676   35.0219   42.8383 H   0  0  0  0  0  0  0  0  0  0  0  0
   47.6878   34.1613   41.3080 H   0  0  0  0  0  0  0  0  0  0  0  0
   47.8917   35.9460   41.3080 H   0  0  0  0  0  0  0  0  0  0  0  0
  1  2  1  0
  2  3  2  0
  4  6  1  0
  4  3  1  0
  5  1  2  0
  5  4  1  0
  6 10  1  0
  7  8  1  0
  7  6  2  0
  8  9  1  0
  9 11  1  0
 10  9  2  0
 11 15  1  0
 12 11  2  0
 12 13  1  0
 13 14  2  0
 15 14  1  0
 16  1  1  0
 17 18  2  0
 17 22  1  0
 18 19  1  0
 19 16  1  0
 19 20  2  0
 21 20  1  0
 22 21  2  0
 23 17  1  0
 24 23  1  0
  2 25  1  0
  3 26  1  0
  7 27  1  0
 12 28  1  0
 13 29  1  0
 14 30  1  0
 18 31  1  0
 21 32  1  0
 23 33  1  0
 23 34  1  0
 24 35  1  0
 24 36  1  0
 24 37  1  0
M  ISO  8  25  14  26  14  27  14  28  14  29  14  30  14  31  14  32  14
M  ISO  5  33   8  34   8  35   8  36   8  37   8
M  END
>  <minimizedAffinity>  (1) 
-5.44882631

>  <minimizedRMSD>  (1) 
1.57681799

$$$$
