
     RDKit          3D

 40 43  0  0  0  0  0  0  0  0999 V2000
   46.4720   30.5440   45.7800 C   0  0  0  0  0  0  0  0  0  0  0  0
   45.7100   31.0780   46.8520 C   0  0  0  0  0  0  0  0  0  0  0  0
   45.1560   29.9790   47.4620 C   0  0  0  0  0  0  0  0  0  0  0  0
   45.5510   28.8540   46.8120 N   0  0  0  0  0  0  0  0  0  0  0  0
   46.3340   29.1860   45.8100 N   0  0  0  0  0  0  0  0  0  0  0  0
   45.1140   27.5630   47.2450 C   0  0  0  0  0  0  0  0  0  0  0  0
   43.8620   26.9390   46.7700 C   0  0  0  0  0  0  0  0  0  0  0  0
   43.9340   25.3330   47.7290 S   0  0  0  0  0  0  0  0  0  0  0  0
   45.5720   25.8190   48.5370 C   0  0  0  0  0  0  0  0  0  0  0  0
   45.8050   26.8370   48.1140 N   0  0  0  0  0  0  0  0  0  0  0  0
   46.1400   24.8370   49.4700 C   0  0  0  0  0  0  0  0  0  0  0  0
   45.4610   24.3190   50.5500 C   0  0  0  0  0  0  0  0  0  0  0  0
   46.0600   23.3890   51.3950 C   0  0  0  0  0  0  0  0  0  0  0  0
   47.3730   23.0320   51.0710 C   0  0  0  0  0  0  0  0  0  0  0  0
   48.0550   23.5500   49.9890 C   0  0  0  0  0  0  0  0  0  0  0  0
   47.4140   24.4680   49.1840 C   0  0  0  0  0  0  0  0  0  0  0  0
   47.5040   31.1830   44.4840 S   0  0  0  0  0  0  0  0  0  0  0  0
   47.2640   34.7470   42.6200 C   0  0  0  0  0  0  0  0  0  0  0  0
   47.7760   33.5160   43.0540 C   0  0  0  0  0  0  0  0  0  0  0  0
   46.9750   32.7330   43.8710 C   0  0  0  0  0  0  0  0  0  0  0  0
   45.7420   33.2040   44.2050 N   0  0  0  0  0  0  0  0  0  0  0  0
   45.2840   34.4020   43.7630 C   0  0  0  0  0  0  0  0  0  0  0  0
   46.0470   35.1570   42.9790 N   0  0  0  0  0  0  0  0  0  0  0  0
   48.2240   35.4830   41.7500 C   0  0  0  0  0  0  0  0  0  0  0  0
   49.6420   35.2880   42.2360 C   0  0  0  0  0  0  0  0  0  0  0  0
   45.5900   32.1351   47.1316 H   0  0  0  0  0  0  0  0  0  0  0  0
   44.4949   30.0060   48.3408 H   0  0  0  0  0  0  0  0  0  0  0  0
   43.1079   27.3098   46.0602 H   0  0  0  0  0  0  0  0  0  0  0  0
   44.4293   24.6451   50.7481 H   0  0  0  0  0  0  0  0  0  0  0  0
   45.5344   22.9622   52.2620 H   0  0  0  0  0  0  0  0  0  0  0  0
   47.8883   22.3010   51.7114 H   0  0  0  0  0  0  0  0  0  0  0  0
   49.0874   23.2375   49.7733 H   0  0  0  0  0  0  0  0  0  0  0  0
   47.9326   24.8987   48.3148 H   0  0  0  0  0  0  0  0  0  0  0  0
   48.7808   33.1822   42.7559 H   0  0  0  0  0  0  0  0  0  0  0  0
   44.2812   34.7486   44.0534 H   0  0  0  0  0  0  0  0  0  0  0  0
   47.9798   36.5554   41.7691 H   0  0  0  0  0  0  0  0  0  0  0  0
   48.1442   35.0920   40.7249 H   0  0  0  0  0  0  0  0  0  0  0  0
   49.6556   35.2861   43.3359 H   0  0  0  0  0  0  0  0  0  0  0  0
   50.0288   34.3282   41.8629 H   0  0  0  0  0  0  0  0  0  0  0  0
   50.2735   36.1078   41.8629 H   0  0  0  0  0  0  0  0  0  0  0  0
  1  5  2  0
  1  2  1  0
  2  3  2  0
  4  6  1  0
  4  3  1  0
  5  4  1  0
  6 10  1  0
  7  6  2  0
  7  8  1  0
  8  9  1  0
  9 11  1  0
 10  9  2  0
 11 12  2  0
 12 13  1  0
 14 13  2  0
 15 14  1  0
 16 11  1  0
 16 15  2  0
 17  1  1  0
 18 23  2  0
 18 19  1  0
 19 20  2  0
 20 21  1  0
 20 17  1  0
 22 21  2  0
 23 22  1  0
 24 25  1  0
 24 18  1  0
  2 26  1  0
  3 27  1  0
  7 28  1  0
 12 29  1  0
 13 30  1  0
 14 31  1  0
 15 32  1  0
 16 33  1  0
 19 34  1  0
 22 35  1  0
 24 36  1  0
 24 37  1  0
 25 38  1  0
 25 39  1  0
 25 40  1  0
M  ISO  8  26  14  27  14  28  14  29  14  30  14  31  14  32  14  33  14
M  ISO  7  34  14  35  14  36   8  37   8  38   8  39   8  40   8
M  END
>  <minimizedAffinity>  (1) 
-5.23645735

>  <minimizedRMSD>  (1) 
1.43745971

$$$$
