
     RDKit          3D

 44 47  0  0  0  0  0  0  0  0999 V2000
   46.4330   30.5670   45.6700 C   0  0  0  0  0  0  0  0  0  0  0  0
   45.6980   31.1030   46.7320 C   0  0  0  0  0  0  0  0  0  0  0  0
   45.1370   30.0140   47.3720 C   0  0  0  0  0  0  0  0  0  0  0  0
   45.5130   28.9000   46.7350 N   0  0  0  0  0  0  0  0  0  0  0  0
   46.2950   29.2090   45.7050 N   0  0  0  0  0  0  0  0  0  0  0  0
   45.0890   27.6020   47.1650 C   0  0  0  0  0  0  0  0  0  0  0  0
   43.8870   26.9150   46.6360 C   0  0  0  0  0  0  0  0  0  0  0  0
   43.9510   25.3280   47.6120 S   0  0  0  0  0  0  0  0  0  0  0  0
   45.5380   25.8930   48.5100 C   0  0  0  0  0  0  0  0  0  0  0  0
   45.7600   26.9170   48.0850 N   0  0  0  0  0  0  0  0  0  0  0  0
   46.1290   25.0150   49.4810 N   0  0  0  0  0  0  0  0  0  0  0  0
   47.4780   24.5770   49.2370 C   0  0  0  0  0  0  0  0  0  0  0  0
   47.6920   23.1190   49.5330 C   0  0  0  0  0  0  0  0  0  0  0  0
   46.3980   22.5310   49.8760 N   0  0  0  0  0  0  0  0  0  0  0  0
   45.8380   23.2000   51.0330 C   0  0  0  0  0  0  0  0  0  0  0  0
   45.4180   24.5800   50.6520 C   0  0  0  0  0  0  0  0  0  0  0  0
   47.4540   31.1930   44.3580 S   0  0  0  0  0  0  0  0  0  0  0  0
   47.3060   34.7980   42.5610 C   0  0  0  0  0  0  0  0  0  0  0  0
   47.7870   33.5480   42.9780 C   0  0  0  0  0  0  0  0  0  0  0  0
   46.9660   32.7690   43.7750 C   0  0  0  0  0  0  0  0  0  0  0  0
   45.7440   33.2530   44.1090 N   0  0  0  0  0  0  0  0  0  0  0  0
   45.3180   34.4660   43.6850 C   0  0  0  0  0  0  0  0  0  0  0  0
   46.0940   35.2140   42.9250 N   0  0  0  0  0  0  0  0  0  0  0  0
   48.2810   35.5360   41.7120 C   0  0  0  0  0  0  0  0  0  0  0  0
   49.6820   35.3210   42.2220 C   0  0  0  0  0  0  0  0  0  0  0  0
   45.5895   32.1642   47.0006 H   0  0  0  0  0  0  0  0  0  0  0  0
   44.4881   30.0566   48.2592 H   0  0  0  0  0  0  0  0  0  0  0  0
   43.1609   27.2481   45.8798 H   0  0  0  0  0  0  0  0  0  0  0  0
   47.7177   24.7573   48.1787 H   0  0  0  0  0  0  0  0  0  0  0  0
   48.1329   25.1464   49.9129 H   0  0  0  0  0  0  0  0  0  0  0  0
   48.1074   22.6157   48.6475 H   0  0  0  0  0  0  0  0  0  0  0  0
   48.3986   22.9990   50.3675 H   0  0  0  0  0  0  0  0  0  0  0  0
   45.7547   22.6343   49.0783 H   0  0  0  0  0  0  0  0  0  0  0  0
   44.9649   22.6375   51.3954 H   0  0  0  0  0  0  0  0  0  0  0  0
   46.5951   23.2529   51.8292 H   0  0  0  0  0  0  0  0  0  0  0  0
   45.6342   25.2671   51.4833 H   0  0  0  0  0  0  0  0  0  0  0  0
   44.3398   24.5774   50.4342 H   0  0  0  0  0  0  0  0  0  0  0  0
   48.7863   33.1975   42.6807 H   0  0  0  0  0  0  0  0  0  0  0  0
   44.3211   34.8290   43.9754 H   0  0  0  0  0  0  0  0  0  0  0  0
   48.0456   36.6102   41.7383 H   0  0  0  0  0  0  0  0  0  0  0  0
   48.2134   35.1619   40.6798 H   0  0  0  0  0  0  0  0  0  0  0  0
   49.6760   35.3219   43.3220 H   0  0  0  0  0  0  0  0  0  0  0  0
   50.0603   34.3543   41.8582 H   0  0  0  0  0  0  0  0  0  0  0  0
   50.3328   36.1298   41.8582 H   0  0  0  0  0  0  0  0  0  0  0  0
  1  5  2  0
  1  2  1  0
  2  3  2  0
  4  6  1  0
  4  3  1  0
  5  4  1  0
  6 10  1  0
  7  6  2  0
  7  8  1  0
  8  9  1  0
  9 11  1  0
 10  9  2  0
 11 16  1  0
 12 11  1  0
 12 13  1  0
 13 14  1  0
 14 15  1  0
 16 15  1  0
 17  1  1  0
 18 23  2  0
 18 19  1  0
 19 20  2  0
 20 21  1  0
 20 17  1  0
 22 21  2  0
 23 22  1  0
 24 25  1  0
 24 18  1  0
  2 26  1  0
  3 27  1  0
  7 28  1  0
 12 29  1  0
 12 30  1  0
 13 31  1  0
 13 32  1  0
 14 33  1  0
 15 34  1  0
 15 35  1  0
 16 36  1  0
 16 37  1  0
 19 38  1  0
 22 39  1  0
 24 40  1  0
 24 41  1  0
 25 42  1  0
 25 43  1  0
 25 44  1  0
M  ISO  8  26  14  27  14  28  14  29  13  30  13  31  13  32  13  33   5
M  ISO  8  34  13  35  13  36  13  37  13  38  14  39  14  40   8  41   8
M  ISO  3  42   8  43   8  44   8
M  END
>  <minimizedAffinity>  (1) 
-5.3788681

>  <minimizedRMSD>  (1) 
1.25402665

$$$$
