
     RDKit          3D

 31 33  0  0  0  0  0  0  0  0999 V2000
   45.1290   29.8570   47.1180 C   0  0  0  0  0  0  0  0  0  0  0  0
   45.5810   30.6840   46.0930 C   0  0  0  0  0  0  0  0  0  0  0  0
   46.6770   31.5440   46.2110 C   0  0  0  0  0  0  0  0  0  0  0  0
   47.2100   31.4580   47.4200 N   0  0  0  0  0  0  0  0  0  0  0  0
   46.8330   30.7010   48.4280 C   0  0  0  0  0  0  0  0  0  0  0  0
   45.7920   29.8960   48.2890 N   0  0  0  0  0  0  0  0  0  0  0  0
   47.5740   30.7880   49.6370 N   0  0  0  0  0  0  0  0  0  0  0  0
   48.9970   30.7880   49.5600 C   0  0  0  0  0  0  0  0  0  0  0  0
   49.5670   30.5420   48.4250 N   0  0  0  0  0  0  0  0  0  0  0  0
   49.7870   31.0560   50.7140 N   0  0  0  0  0  0  0  0  0  0  0  0
   50.6110   30.5300   48.3150 H   0  0  0  0  0  0  0  0  0  0  0  0
   46.9270   32.2890   44.9900 C   0  0  0  0  0  0  0  0  0  0  0  0
   47.7910   31.8950   44.0400 N   0  0  0  0  0  0  0  0  0  0  0  0
   48.0270   32.5670   42.9110 C   0  0  0  0  0  0  0  0  0  0  0  0
   47.3850   33.7230   42.6460 N   0  0  0  0  0  0  0  0  0  0  0  0
   46.5010   34.2060   43.5260 C   0  0  0  0  0  0  0  0  0  0  0  0
   45.8520   35.3760   43.2590 C   0  0  0  0  0  0  0  0  0  0  0  0
   44.9270   35.9070   44.1500 C   0  0  0  0  0  0  0  0  0  0  0  0
   44.6940   35.2040   45.3150 C   0  0  0  0  0  0  0  0  0  0  0  0
   45.3770   34.0240   45.5370 C   0  0  0  0  0  0  0  0  0  0  0  0
   46.2950   33.4720   44.6780 C   0  0  0  0  0  0  0  0  0  0  0  0
   44.2615   29.1957   46.9760 H   0  0  0  0  0  0  0  0  0  0  0  0
   45.0438   30.6592   45.1334 H   0  0  0  0  0  0  0  0  0  0  0  0
   47.0946   30.8495   50.5466 H   0  0  0  0  0  0  0  0  0  0  0  0
   50.8148   31.0533   50.6465 H   0  0  0  0  0  0  0  0  0  0  0  0
   49.3307   31.2525   51.6162 H   0  0  0  0  0  0  0  0  0  0  0  0
   48.7551   32.1725   42.1869 H   0  0  0  0  0  0  0  0  0  0  0  0
   46.0649   35.9092   42.3207 H   0  0  0  0  0  0  0  0  0  0  0  0
   44.4017   36.8494   43.9356 H   0  0  0  0  0  0  0  0  0  0  0  0
   43.9736   35.5787   46.0571 H   0  0  0  0  0  0  0  0  0  0  0  0
   45.1696   33.4854   46.4735 H   0  0  0  0  0  0  0  0  0  0  0  0
  1  6  2  0
  2  3  2  0
  2  1  1  0
  3  4  1  0
  4  5  2  0
  5  7  1  0
  6  5  1  0
  8  7  1  0
  8 10  1  0
  9  8  2  0
 11  9  1  0
 12  3  1  0
 13 12  2  0
 14 13  1  0
 15 14  2  0
 15 16  1  0
 16 21  2  0
 17 16  1  0
 17 18  2  0
 18 19  1  0
 19 20  2  0
 21 12  1  0
 21 20  1  0
  1 22  1  0
  2 23  1  0
  7 24  1  0
 10 25  1  0
 10 26  1  0
 14 27  1  0
 17 28  1  0
 18 29  1  0
 19 30  1  0
 20 31  1  0
M  ISO  7  22  14  23  14  27  14  28  14  29  14  30  14  31  14
M  END
>  <minimizedAffinity>  (1) 
-6.27687502

>  <minimizedRMSD>  (1) 
1.0231421

$$$$
