
     RDKit          3D

 31 33  0  0  0  0  0  0  0  0999 V2000
   47.4710   31.2990   44.7370 S   0  0  0  0  0  0  0  0  0  0  0  0
   47.2480   34.7480   42.6700 C   0  0  0  0  0  0  0  0  0  0  0  0
   47.7450   33.5450   43.1780 C   0  0  0  0  0  0  0  0  0  0  0  0
   46.9410   32.8150   44.0460 C   0  0  0  0  0  0  0  0  0  0  0  0
   45.7090   33.3030   44.3640 N   0  0  0  0  0  0  0  0  0  0  0  0
   45.2710   34.4720   43.8470 C   0  0  0  0  0  0  0  0  0  0  0  0
   46.0200   35.1740   43.0240 N   0  0  0  0  0  0  0  0  0  0  0  0
   48.1960   35.4310   41.7580 C   0  0  0  0  0  0  0  0  0  0  0  0
   49.6150   35.2410   42.2570 C   0  0  0  0  0  0  0  0  0  0  0  0
   46.3870   30.6640   45.9900 C   0  0  0  0  0  0  0  0  0  0  0  0
   45.6900   31.1940   47.1060 C   0  0  0  0  0  0  0  0  0  0  0  0
   45.0280   30.1120   47.6450 C   0  0  0  0  0  0  0  0  0  0  0  0
   45.3100   29.0110   46.9030 N   0  0  0  0  0  0  0  0  0  0  0  0
   46.1150   29.3280   45.9200 N   0  0  0  0  0  0  0  0  0  0  0  0
   44.7470   27.7400   47.2490 C   0  0  0  0  0  0  0  0  0  0  0  0
   43.6080   27.1370   46.5020 C   0  0  0  0  0  0  0  0  0  0  0  0
   43.4090   25.5430   47.4690 S   0  0  0  0  0  0  0  0  0  0  0  0
   44.8380   26.0020   48.6240 C   0  0  0  0  0  0  0  0  0  0  0  0
   45.1960   27.0050   48.2610 N   0  0  0  0  0  0  0  0  0  0  0  0
   45.3320   24.8810   49.9660 S   0  0  0  0  0  0  0  0  0  0  0  0
   48.7461   33.1850   42.8985 H   0  0  0  0  0  0  0  0  0  0  0  0
   44.2717   34.8429   44.1187 H   0  0  0  0  0  0  0  0  0  0  0  0
   47.9612   36.5051   41.7247 H   0  0  0  0  0  0  0  0  0  0  0  0
   48.1046   35.0005   40.7499 H   0  0  0  0  0  0  0  0  0  0  0  0
   49.6199   35.2403   43.3570 H   0  0  0  0  0  0  0  0  0  0  0  0
   50.0081   34.2822   41.8880 H   0  0  0  0  0  0  0  0  0  0  0  0
   50.2465   36.0626   41.8880 H   0  0  0  0  0  0  0  0  0  0  0  0
   45.6801   32.2349   47.4614 H   0  0  0  0  0  0  0  0  0  0  0  0
   44.3774   30.1367   48.5316 H   0  0  0  0  0  0  0  0  0  0  0  0
   43.0469   27.5165   45.6353 H   0  0  0  0  0  0  0  0  0  0  0  0
   45.0715   25.4722   51.1741 H   0  0  0  0  0  0  0  0  0  0  0  0
  1 10  1  0
  2  7  2  0
  2  3  1  0
  3  4  2  0
  4  5  1  0
  4  1  1  0
  6  5  2  0
  7  6  1  0
  8  9  1  0
  8  2  1  0
 10 11  1  0
 11 12  2  0
 13 15  1  0
 13 12  1  0
 14 10  2  0
 14 13  1  0
 15 19  1  0
 16 15  2  0
 16 17  1  0
 17 18  1  0
 18 20  1  0
 19 18  2  0
  3 21  1  0
  6 22  1  0
  8 23  1  0
  8 24  1  0
  9 25  1  0
  9 26  1  0
  9 27  1  0
 11 28  1  0
 12 29  1  0
 16 30  1  0
 20 31  1  0
M  ISO  8  21  14  22  14  23   8  24   8  25   8  26   8  27   8  28  14
M  ISO  3  29  14  30  14  31  11
M  END
>  <minimizedAffinity>  (1) 
-4.55139399

>  <minimizedRMSD>  (1) 
0.344043881

$$$$
