
     RDKit          3D

 33 35  0  0  1  0  0  0  0  0999 V2000
   44.1510   34.7190   41.3850 C   0  0  2  0  0  0  0  0  0  0  0  0
   42.6380   34.5490   41.1150 C   0  0  0  0  0  0  0  0  0  0  0  0
   42.7140   34.7330   39.5840 C   0  0  1  0  0  0  0  0  0  0  0  0
   43.8230   33.7810   39.2470 C   0  0  0  0  0  0  0  0  0  0  0  0
   44.7280   33.7280   40.4770 C   0  0  0  0  0  0  0  0  0  0  0  0
   44.2700   35.7740   43.5810 C   0  0  0  0  0  0  0  0  0  0  0  0
   44.4940   34.6300   42.7940 C   0  0  0  0  0  0  0  0  0  0  0  0
   45.0640   33.4750   43.3970 C   0  0  0  0  0  0  0  0  0  0  0  0
   45.3650   33.5420   44.7160 N   0  0  0  0  0  0  0  0  0  0  0  0
   45.1410   34.6600   45.4630 C   0  0  0  0  0  0  0  0  0  0  0  0
   44.5970   35.7750   44.9020 N   0  0  0  0  0  0  0  0  0  0  0  0
   41.4620   34.4600   38.9530 N   0  0  0  0  0  0  0  0  0  0  0  0
   40.8250   33.3400   39.3990 C   0  0  0  0  0  0  0  0  0  0  0  0
   39.5960   32.9890   38.8460 C   0  0  0  0  0  0  0  0  0  0  0  0
   38.9980   33.7470   37.8530 C   0  0  0  0  0  0  0  0  0  0  0  0
   37.8920   33.4230   37.3610 O   0  0  0  0  0  0  0  0  0  0  0  0
   39.6750   34.8420   37.4520 N   0  0  0  0  0  0  0  0  0  0  0  0
   40.8580   35.1850   37.9800 C   0  0  0  0  0  0  0  0  0  0  0  0
   41.4970   36.2200   37.6030 O   0  0  0  0  0  0  0  0  0  0  0  0
   44.5609   35.7189   41.1795 H   0  0  0  0  0  0  0  0  0  0  0  0
   42.2656   33.5551   41.4038 H   0  0  0  0  0  0  0  0  0  0  0  0
   41.9565   35.2160   41.6633 H   0  0  0  0  0  0  0  0  0  0  0  0
   42.9157   35.7555   39.2321 H   0  0  0  0  0  0  0  0  0  0  0  0
   43.4156   32.7825   39.0300 H   0  0  0  0  0  0  0  0  0  0  0  0
   44.3770   34.1105   38.3557 H   0  0  0  0  0  0  0  0  0  0  0  0
   44.7123   32.7261   40.9309 H   0  0  0  0  0  0  0  0  0  0  0  0
   45.7809   33.9369   40.2367 H   0  0  0  0  0  0  0  0  0  0  0  0
   43.8281   36.6728   43.1262 H   0  0  0  0  0  0  0  0  0  0  0  0
   45.2533   32.5615   42.8142 H   0  0  0  0  0  0  0  0  0  0  0  0
   45.4028   34.6614   46.5314 H   0  0  0  0  0  0  0  0  0  0  0  0
   41.2771   32.7202   40.1873 H   0  0  0  0  0  0  0  0  0  0  0  0
   39.0858   32.0842   39.2081 H   0  0  0  0  0  0  0  0  0  0  0  0
   39.2689   35.4353   36.7144 H   0  0  0  0  0  0  0  0  0  0  0  0
  1  7  1  0
  2  1  1  0
  3  2  1  0
  4  3  1  0
  4  5  1  0
  5  1  1  0
  6 11  2  0
  7  8  2  0
  7  6  1  0
  8  9  1  0
  9 10  2  0
 11 10  1  0
 12 13  1  0
 12  3  1  0
 14 13  2  0
 15 14  1  0
 16 15  2  0
 17 15  1  0
 17 18  1  0
 18 12  1  0
 19 18  2  0
  1 20  1  6
  2 21  1  0
  2 22  1  0
  3 23  1  1
  4 24  1  0
  4 25  1  0
  5 26  1  0
  5 27  1  0
  6 28  1  0
  8 29  1  0
 10 30  1  0
 13 31  1  0
 14 32  1  0
 17 33  1  0
M  ISO  8  20  13  21  13  22  13  23  13  24  13  25  13  26  13  27  13
M  ISO  6  28  14  29  14  30  14  31  14  32  14  33   9
M  END
>  <minimizedAffinity>  (1) 
-5.49618053

>  <minimizedRMSD>  (1) 
1.04448104

$$$$
