
     RDKit          3D

 32 34  0  0  1  0  0  0  0  0999 V2000
   43.8160   34.9610   41.6130 C   0  0  2  0  0  0  0  0  0  0  0  0
   42.3030   34.6580   41.4790 C   0  0  0  0  0  0  0  0  0  0  0  0
   42.1660   35.0880   40.0040 C   0  0  1  0  0  0  0  0  0  0  0  0
   43.3220   34.3010   39.4040 C   0  0  0  0  0  0  0  0  0  0  0  0
   44.3550   34.1510   40.5160 C   0  0  0  0  0  0  0  0  0  0  0  0
   44.1690   35.7330   43.8990 C   0  0  0  0  0  0  0  0  0  0  0  0
   44.3300   34.7090   42.9520 C   0  0  0  0  0  0  0  0  0  0  0  0
   45.0020   33.5110   43.3280 C   0  0  0  0  0  0  0  0  0  0  0  0
   45.4530   33.4330   44.6020 N   0  0  0  0  0  0  0  0  0  0  0  0
   45.2910   34.4300   45.5070 C   0  0  0  0  0  0  0  0  0  0  0  0
   44.6510   35.5790   45.1610 N   0  0  0  0  0  0  0  0  0  0  0  0
   40.8740   34.7050   39.4370 C   0  0  0  0  0  0  0  0  0  0  0  0
   40.5570   34.7880   38.1020 C   0  0  0  0  0  0  0  0  0  0  0  0
   39.2910   34.3880   37.7150 C   0  0  0  0  0  0  0  0  0  0  0  0
   38.3480   33.9140   38.6150 C   0  0  0  0  0  0  0  0  0  0  0  0
   38.7380   33.8610   39.9290 C   0  0  0  0  0  0  0  0  0  0  0  0
   39.9620   34.2430   40.3310 N   0  0  0  0  0  0  0  0  0  0  0  0
   44.1097   36.0166   41.5158 H   0  0  0  0  0  0  0  0  0  0  0  0
   42.0700   33.5939   41.6322 H   0  0  0  0  0  0  0  0  0  0  0  0
   41.6333   35.1462   42.2023 H   0  0  0  0  0  0  0  0  0  0  0  0
   42.2021   36.1728   39.8254 H   0  0  0  0  0  0  0  0  0  0  0  0
   42.9767   33.3121   39.0680 H   0  0  0  0  0  0  0  0  0  0  0  0
   43.7461   34.8148   38.5287 H   0  0  0  0  0  0  0  0  0  0  0  0
   44.4531   33.0981   40.8191 H   0  0  0  0  0  0  0  0  0  0  0  0
   45.3601   34.4732   40.2062 H   0  0  0  0  0  0  0  0  0  0  0  0
   43.6515   36.6624   43.6192 H   0  0  0  0  0  0  0  0  0  0  0  0
   45.1480   32.6860   42.6152 H   0  0  0  0  0  0  0  0  0  0  0  0
   45.6802   34.3084   46.5286 H   0  0  0  0  0  0  0  0  0  0  0  0
   41.2855   35.1599   37.3665 H   0  0  0  0  0  0  0  0  0  0  0  0
   39.0209   34.4482   36.6504 H   0  0  0  0  0  0  0  0  0  0  0  0
   37.3445   33.5985   38.2933 H   0  0  0  0  0  0  0  0  0  0  0  0
   38.0237   33.4928   40.6801 H   0  0  0  0  0  0  0  0  0  0  0  0
  1  7  1  0
  2  1  1  0
  3  2  1  0
  4  3  1  0
  4  5  1  0
  5  1  1  0
  6 11  2  0
  7  8  2  0
  7  6  1  0
  8  9  1  0
  9 10  2  0
 11 10  1  0
 12  3  1  0
 12 17  1  0
 13 12  2  0
 14 13  1  0
 14 15  2  0
 15 16  1  0
 16 17  2  0
  1 18  1  6
  2 19  1  0
  2 20  1  0
  3 21  1  1
  4 22  1  0
  4 23  1  0
  5 24  1  0
  5 25  1  0
  6 26  1  0
  8 27  1  0
 10 28  1  0
 13 29  1  0
 14 30  1  0
 15 31  1  0
 16 32  1  0
M  ISO  8  18  13  19  13  20  13  21  13  22  13  23  13  24  13  25  13
M  ISO  7  26  14  27  14  28  14  29  14  30  14  31  14  32  14
M  END
>  <minimizedAffinity>  (1) 
-5.47567558

>  <minimizedRMSD>  (1) 
0.616715789

$$$$
