
     RDKit          3D

 25 26  0  0  1  0  0  0  0  0999 V2000
   43.7120   35.0900   41.3540 C   0  0  2  0  0  0  0  0  0  0  0  0
   42.1650   35.1900   41.3430 C   0  0  0  0  0  0  0  0  0  0  0  0
   42.0100   35.4740   39.8350 C   0  0  1  0  0  0  0  0  0  0  0  0
   42.8760   34.3650   39.2680 C   0  0  0  0  0  0  0  0  0  0  0  0
   43.9240   34.0620   40.3360 C   0  0  0  0  0  0  0  0  0  0  0  0
   44.1700   35.8700   43.6320 C   0  0  0  0  0  0  0  0  0  0  0  0
   44.2520   34.8200   42.6890 C   0  0  0  0  0  0  0  0  0  0  0  0
   44.8600   33.5820   43.0570 C   0  0  0  0  0  0  0  0  0  0  0  0
   45.3420   33.4740   44.3230 N   0  0  0  0  0  0  0  0  0  0  0  0
   45.2500   34.5030   45.2110 C   0  0  0  0  0  0  0  0  0  0  0  0
   44.6720   35.6900   44.8770 N   0  0  0  0  0  0  0  0  0  0  0  0
   40.5950   35.3770   39.4160 C   0  0  0  0  0  0  0  0  0  0  0  0
   39.7300   35.6370   40.2340 O   0  0  0  0  0  0  0  0  0  0  0  0
   44.2572   36.0163   41.1200 H   0  0  0  0  0  0  0  0  0  0  0  0
   41.6798   34.2508   41.6471 H   0  0  0  0  0  0  0  0  0  0  0  0
   41.7123   35.9184   42.0318 H   0  0  0  0  0  0  0  0  0  0  0  0
   42.3033   36.4817   39.5055 H   0  0  0  0  0  0  0  0  0  0  0  0
   42.2679   33.4712   39.0647 H   0  0  0  0  0  0  0  0  0  0  0  0
   43.3433   34.6643   38.3183 H   0  0  0  0  0  0  0  0  0  0  0  0
   43.7705   33.0580   40.7585 H   0  0  0  0  0  0  0  0  0  0  0  0
   44.9480   34.0738   39.9345 H   0  0  0  0  0  0  0  0  0  0  0  0
   43.7018   36.8265   43.3566 H   0  0  0  0  0  0  0  0  0  0  0  0
   44.9354   32.7480   42.3437 H   0  0  0  0  0  0  0  0  0  0  0  0
   45.6537   34.3715   46.2258 H   0  0  0  0  0  0  0  0  0  0  0  0
   40.3299   35.0776   38.3913 H   0  0  0  0  0  0  0  0  0  0  0  0
  1  7  1  0
  2  1  1  0
  3  2  1  0
  4  3  1  0
  4  5  1  0
  5  1  1  0
  6 11  2  0
  7  8  2  0
  7  6  1  0
  8  9  1  0
  9 10  2  0
 11 10  1  0
 12  3  1  0
 12 13  2  0
  1 14  1  6
  2 15  1  0
  2 16  1  0
  3 17  1  1
  4 18  1  0
  4 19  1  0
  5 20  1  0
  5 21  1  0
  6 22  1  0
  8 23  1  0
 10 24  1  0
 12 25  1  0
M  ISO  8  14  13  15  13  16  13  17  13  18  13  19  13  20  13  21  13
M  ISO  4  22  14  23  14  24  14  25   6
M  END
>  <minimizedAffinity>  (1) 
-4.01643944

>  <minimizedRMSD>  (1) 
0.479887098

$$$$
