
     RDKit          3D

 26 27  0  0  1  0  0  0  0  0999 V2000
   43.1930   35.3860   41.4530 C   0  0  2  0  0  0  0  0  0  0  0  0
   41.6740   35.2030   41.6730 C   0  0  0  0  0  0  0  0  0  0  0  0
   41.2100   35.7390   40.3130 C   0  0  1  0  0  0  0  0  0  0  0  0
   42.1430   35.0130   39.3800 C   0  0  0  0  0  0  0  0  0  0  0  0
   43.3840   34.6650   40.1920 C   0  0  0  0  0  0  0  0  0  0  0  0
   44.1760   35.7880   43.6630 C   0  0  0  0  0  0  0  0  0  0  0  0
   43.9720   34.8960   42.5980 C   0  0  0  0  0  0  0  0  0  0  0  0
   44.5450   33.5940   42.6690 C   0  0  0  0  0  0  0  0  0  0  0  0
   45.2640   33.2840   43.7750 N   0  0  0  0  0  0  0  0  0  0  0  0
   45.4510   34.1650   44.8000 C   0  0  0  0  0  0  0  0  0  0  0  0
   44.9080   35.4130   44.7400 N   0  0  0  0  0  0  0  0  0  0  0  0
   39.7700   35.4280   40.0840 C   0  0  0  0  0  0  0  0  0  0  0  0
   43.5475   36.4251   41.3858 H   0  0  0  0  0  0  0  0  0  0  0  0
   41.3966   34.1494   41.8248 H   0  0  0  0  0  0  0  0  0  0  0  0
   41.2473   35.6915   42.5614 H   0  0  0  0  0  0  0  0  0  0  0  0
   41.2560   36.8315   40.1936 H   0  0  0  0  0  0  0  0  0  0  0  0
   42.4127   35.6606   38.5327 H   0  0  0  0  0  0  0  0  0  0  0  0
   41.6702   34.1086   38.9695 H   0  0  0  0  0  0  0  0  0  0  0  0
   43.4462   33.5807   40.3666 H   0  0  0  0  0  0  0  0  0  0  0  0
   44.3174   34.9436   39.6810 H   0  0  0  0  0  0  0  0  0  0  0  0
   43.7392   36.7968   43.6229 H   0  0  0  0  0  0  0  0  0  0  0  0
   44.4088   32.8663   41.8554 H   0  0  0  0  0  0  0  0  0  0  0  0
   46.0424   33.8664   45.6781 H   0  0  0  0  0  0  0  0  0  0  0  0
   39.2601   35.3179   41.0525 H   0  0  0  0  0  0  0  0  0  0  0  0
   39.3041   36.2462   39.5153 H   0  0  0  0  0  0  0  0  0  0  0  0
   39.6833   34.4904   39.5153 H   0  0  0  0  0  0  0  0  0  0  0  0
  1  2  1  0
  1  7  1  0
  3  2  1  0
  4  5  1  0
  4  3  1  0
  5  1  1  0
  6 11  2  0
  7  8  2  0
  7  6  1  0
  8  9  1  0
  9 10  2  0
 11 10  1  0
 12  3  1  0
  1 13  1  6
  2 14  1  0
  2 15  1  0
  3 16  1  1
  4 17  1  0
  4 18  1  0
  5 19  1  0
  5 20  1  0
  6 21  1  0
  8 22  1  0
 10 23  1  0
 12 24  1  0
 12 25  1  0
 12 26  1  0
M  ISO  8  13  13  14  13  15  13  16  13  17  13  18  13  19  13  20  13
M  ISO  6  21  14  22  14  23  14  24   8  25   8  26   8
M  END
>  <minimizedAffinity>  (1) 
-4.09137535

>  <minimizedRMSD>  (1) 
1.05733156

$$$$
