
     RDKit          3D

 50 53  0  0  1  0  0  0  0  0999 V2000
   41.8430   34.5540   39.1220 C   0  0  0  0  0  0  0  0  0  0  0  0
   44.4660   34.6730   41.7260 C   0  0  2  0  0  0  0  0  0  0  0  0
   42.9460   34.4590   41.3670 C   0  0  0  0  0  0  0  0  0  0  0  0
   43.1090   34.7540   39.8700 C   0  0  1  0  0  0  0  0  0  0  0  0
   44.2480   33.8760   39.5310 C   0  0  0  0  0  0  0  0  0  0  0  0
   45.1060   33.7900   40.8000 C   0  0  0  0  0  0  0  0  0  0  0  0
   44.3580   35.6480   43.9520 C   0  0  0  0  0  0  0  0  0  0  0  0
   44.7080   34.5760   43.1500 C   0  0  0  0  0  0  0  0  0  0  0  0
   45.3180   33.4050   43.7180 C   0  0  0  0  0  0  0  0  0  0  0  0
   45.5350   33.3870   45.0600 N   0  0  0  0  0  0  0  0  0  0  0  0
   45.1780   34.4690   45.8460 C   0  0  0  0  0  0  0  0  0  0  0  0
   44.6000   35.5790   45.3010 N   0  0  0  0  0  0  0  0  0  0  0  0
   41.6190   35.6430   38.1280 C   0  0  0  0  0  0  0  0  0  0  0  0
   42.0240   33.2690   38.3460 C   0  0  0  0  0  0  0  0  0  0  0  0
   40.6950   34.3440   40.0410 C   0  0  0  0  0  0  0  0  0  0  0  0
   39.4480   34.0720   39.2420 C   0  0  2  0  0  0  0  0  0  0  0  0
   38.1110   33.9500   39.8460 C   0  0  0  0  0  0  0  0  0  0  0  0
   38.7640   32.6890   39.4590 C   0  0  2  0  0  0  0  0  0  0  0  0
   39.2290   31.8460   40.5870 C   0  0  0  0  0  0  0  0  0  0  0  0
   39.9860   32.1650   41.6940 C   0  0  0  0  0  0  0  0  0  0  0  0
   40.3430   31.2490   42.6400 C   0  0  0  0  0  0  0  0  0  0  0  0
   39.9570   29.9470   42.5300 N   0  0  0  0  0  0  0  0  0  0  0  0
   39.2190   29.6270   41.4520 C   0  0  0  0  0  0  0  0  0  0  0  0
   38.8670   30.5290   40.5190 N   0  0  0  0  0  0  0  0  0  0  0  0
   44.8944   35.6774   41.5929 H   0  0  0  0  0  0  0  0  0  0  0  0
   42.6000   33.4339   41.5655 H   0  0  0  0  0  0  0  0  0  0  0  0
   42.2046   35.0513   41.9234 H   0  0  0  0  0  0  0  0  0  0  0  0
   43.3225   35.7976   39.5957 H   0  0  0  0  0  0  0  0  0  0  0  0
   43.8885   32.8768   39.2439 H   0  0  0  0  0  0  0  0  0  0  0  0
   44.8233   34.2715   38.6810 H   0  0  0  0  0  0  0  0  0  0  0  0
   45.1209   32.7617   41.1903 H   0  0  0  0  0  0  0  0  0  0  0  0
   46.1546   34.0662   40.6153 H   0  0  0  0  0  0  0  0  0  0  0  0
   43.8922   36.5432   43.5142 H   0  0  0  0  0  0  0  0  0  0  0  0
   45.6005   32.5498   43.0864 H   0  0  0  0  0  0  0  0  0  0  0  0
   45.3635   34.4337   46.9297 H   0  0  0  0  0  0  0  0  0  0  0  0
   41.4247   36.5878   38.6568 H   0  0  0  0  0  0  0  0  0  0  0  0
   42.5133   35.7532   37.4970 H   0  0  0  0  0  0  0  0  0  0  0  0
   40.7538   35.3913   37.4970 H   0  0  0  0  0  0  0  0  0  0  0  0
   42.1421   32.4303   39.0479 H   0  0  0  0  0  0  0  0  0  0  0  0
   41.1414   33.0956   37.7128 H   0  0  0  0  0  0  0  0  0  0  0  0
   42.9201   33.3462   37.7128 H   0  0  0  0  0  0  0  0  0  0  0  0
   40.9037   33.4856   40.6965 H   0  0  0  0  0  0  0  0  0  0  0  0
   40.5469   35.2473   40.6509 H   0  0  0  0  0  0  0  0  0  0  0  0
   39.8458   34.6773   38.4142 H   0  0  0  0  0  0  0  0  0  0  0  0
   37.9784   34.1829   40.9129 H   0  0  0  0  0  0  0  0  0  0  0  0
   37.1336   34.3963   39.6105 H   0  0  0  0  0  0  0  0  0  0  0  0
   38.5380   31.8286   38.8120 H   0  0  0  0  0  0  0  0  0  0  0  0
   40.3176   33.2062   41.8205 H   0  0  0  0  0  0  0  0  0  0  0  0
   40.9495   31.5653   43.5015 H   0  0  0  0  0  0  0  0  0  0  0  0
   38.8899   28.5847   41.3286 H   0  0  0  0  0  0  0  0  0  0  0  0
  1  4  1  0
  1 15  1  0
  2  8  1  0
  3  2  1  0
  4  3  1  0
  5  4  1  0
  5  6  1  0
  6  2  1  0
  7 12  2  0
  8  9  2  0
  8  7  1  0
  9 10  1  0
 10 11  2  0
 12 11  1  0
 13  1  1  0
 14  1  1  0
 16 18  1  0
 16 17  1  0
 16 15  1  0
 18 17  1  0
 18 19  1  0
 19 20  2  0
 20 21  1  0
 22 21  2  0
 23 22  1  0
 24 19  1  0
 24 23  2  0
  2 25  1  6
  3 26  1  0
  3 27  1  0
  4 28  1  1
  5 29  1  0
  5 30  1  0
  6 31  1  0
  6 32  1  0
  7 33  1  0
  9 34  1  0
 11 35  1  0
 13 36  1  0
 13 37  1  0
 13 38  1  0
 14 39  1  0
 14 40  1  0
 14 41  1  0
 15 42  1  0
 15 43  1  0
 16 44  1  6
 17 45  1  0
 17 46  1  0
 18 47  1  6
 20 48  1  0
 21 49  1  0
 23 50  1  0
M  ISO  8  25  13  26  13  27  13  28  13  29  13  30  13  31  13  32  13
M  ISO  8  33  14  34  14  35  14  36   8  37   8  38   8  39   8  40   8
M  ISO  8  41   8  42   8  43   8  44  13  45  13  46  13  47  13  48  14
M  ISO  2  49  14  50  14
M  END
>  <minimizedAffinity>  (1) 
-5.84081936

>  <minimizedRMSD>  (1) 
1.19948161

$$$$
