
     RDKit          3D

 52 55  0  0  1  0  0  0  0  0999 V2000
   42.5230   34.2710   39.1130 C   0  0  0  0  0  0  0  0  0  0  0  0
   44.8640   34.4490   41.9690 C   0  0  2  0  0  0  0  0  0  0  0  0
   43.3890   34.2080   41.4590 C   0  0  0  0  0  0  0  0  0  0  0  0
   43.7070   34.4940   39.9830 C   0  0  1  0  0  0  0  0  0  0  0  0
   44.8720   33.5960   39.7810 C   0  0  0  0  0  0  0  0  0  0  0  0
   45.6070   33.5660   41.1270 C   0  0  0  0  0  0  0  0  0  0  0  0
   44.4920   35.4530   44.1540 C   0  0  0  0  0  0  0  0  0  0  0  0
   44.9560   34.3790   43.4120 C   0  0  0  0  0  0  0  0  0  0  0  0
   45.5360   33.2370   44.0640 C   0  0  0  0  0  0  0  0  0  0  0  0
   45.6130   33.2430   45.4220 N   0  0  0  0  0  0  0  0  0  0  0  0
   45.1430   34.3280   46.1420 C   0  0  0  0  0  0  0  0  0  0  0  0
   44.5950   35.4080   45.5250 N   0  0  0  0  0  0  0  0  0  0  0  0
   42.3460   35.3990   38.1490 C   0  0  0  0  0  0  0  0  0  0  0  0
   42.8400   33.0400   38.2940 C   0  0  0  0  0  0  0  0  0  0  0  0
   41.3100   33.9690   39.9040 C   0  0  0  0  0  0  0  0  0  0  0  0
   40.2460   35.0010   39.6140 C   0  0  2  0  0  0  0  0  0  0  0  0
   39.0280   35.1530   40.4210 C   0  0  0  0  0  0  0  0  0  0  0  0
   38.8570   34.4310   39.1500 C   0  0  2  0  0  0  0  0  0  0  0  0
   38.6600   32.9660   39.2700 C   0  0  0  0  0  0  0  0  0  0  0  0
   38.7620   31.9630   38.3300 C   0  0  0  0  0  0  0  0  0  0  0  0
   38.5200   30.6480   38.6500 C   0  0  0  0  0  0  0  0  0  0  0  0
   38.1630   30.2440   39.9170 C   0  0  0  0  0  0  0  0  0  0  0  0
   38.0490   31.2110   40.8930 C   0  0  0  0  0  0  0  0  0  0  0  0
   38.2960   32.5210   40.5450 C   0  0  0  0  0  0  0  0  0  0  0  0
   45.2947   35.4558   41.8652 H   0  0  0  0  0  0  0  0  0  0  0  0
   43.0387   33.1795   41.6306 H   0  0  0  0  0  0  0  0  0  0  0  0
   42.5842   34.7914   41.9301 H   0  0  0  0  0  0  0  0  0  0  0  0
   43.9490   35.5340   39.7188 H   0  0  0  0  0  0  0  0  0  0  0  0
   44.5351   32.5860   39.5048 H   0  0  0  0  0  0  0  0  0  0  0  0
   45.5237   33.9507   38.9689 H   0  0  0  0  0  0  0  0  0  0  0  0
   45.6126   32.5476   41.5427 H   0  0  0  0  0  0  0  0  0  0  0  0
   46.6596   33.8711   41.0319 H   0  0  0  0  0  0  0  0  0  0  0  0
   44.0485   36.3273   43.6551 H   0  0  0  0  0  0  0  0  0  0  0  0
   45.9075   32.3815   43.4807 H   0  0  0  0  0  0  0  0  0  0  0  0
   45.2148   34.3158   47.2396 H   0  0  0  0  0  0  0  0  0  0  0  0
   42.1989   36.3367   38.7049 H   0  0  0  0  0  0  0  0  0  0  0  0
   43.2417   35.4845   37.5162 H   0  0  0  0  0  0  0  0  0  0  0  0
   41.4671   35.2061   37.5162 H   0  0  0  0  0  0  0  0  0  0  0  0
   43.0569   32.1976   38.9672 H   0  0  0  0  0  0  0  0  0  0  0  0
   41.9771   32.7895   37.6595 H   0  0  0  0  0  0  0  0  0  0  0  0
   43.7166   33.2375   37.6595 H   0  0  0  0  0  0  0  0  0  0  0  0
   40.9354   32.9709   39.6331 H   0  0  0  0  0  0  0  0  0  0  0  0
   41.5578   33.9910   40.9755 H   0  0  0  0  0  0  0  0  0  0  0  0
   41.0107   35.7157   39.2757 H   0  0  0  0  0  0  0  0  0  0  0  0
   38.9393   34.6008   41.3682 H   0  0  0  0  0  0  0  0  0  0  0  0
   38.5242   36.0264   40.8608 H   0  0  0  0  0  0  0  0  0  0  0  0
   38.2290   34.5284   38.2522 H   0  0  0  0  0  0  0  0  0  0  0  0
   39.0439   32.2210   37.2985 H   0  0  0  0  0  0  0  0  0  0  0  0
   38.6155   29.8872   37.8613 H   0  0  0  0  0  0  0  0  0  0  0  0
   37.9749   29.1841   40.1431 H   0  0  0  0  0  0  0  0  0  0  0  0
   37.7682   30.9437   41.9224 H   0  0  0  0  0  0  0  0  0  0  0  0
   38.1989   33.2798   41.3354 H   0  0  0  0  0  0  0  0  0  0  0  0
  1 15  1  0
  1  4  1  0
  2  8  1  0
  3  2  1  0
  4  3  1  0
  5  4  1  0
  5  6  1  0
  6  2  1  0
  7 12  2  0
  8  9  2  0
  8  7  1  0
  9 10  1  0
 10 11  2  0
 12 11  1  0
 13  1  1  0
 14  1  1  0
 16 15  1  0
 16 17  1  0
 18 19  1  0
 18 16  1  0
 18 17  1  0
 19 24  2  0
 20 21  2  0
 20 19  1  0
 21 22  1  0
 22 23  2  0
 24 23  1  0
  2 25  1  6
  3 26  1  0
  3 27  1  0
  4 28  1  1
  5 29  1  0
  5 30  1  0
  6 31  1  0
  6 32  1  0
  7 33  1  0
  9 34  1  0
 11 35  1  0
 13 36  1  0
 13 37  1  0
 13 38  1  0
 14 39  1  0
 14 40  1  0
 14 41  1  0
 15 42  1  0
 15 43  1  0
 16 44  1  6
 17 45  1  0
 17 46  1  0
 18 47  1  6
 20 48  1  0
 21 49  1  0
 22 50  1  0
 23 51  1  0
 24 52  1  0
M  ISO  8  25  13  26  13  27  13  28  13  29  13  30  13  31  13  32  13
M  ISO  8  33  14  34  14  35  14  36   8  37   8  38   8  39   8  40   8
M  ISO  8  41   8  42   8  43   8  44  13  45  13  46  13  47  13  48  14
M  ISO  4  49  14  50  14  51  14  52  14
M  END
>  <minimizedAffinity>  (1) 
-5.99817753

>  <minimizedRMSD>  (1) 
1.6516273

$$$$
