
     RDKit          3D

 55 58  0  0  1  0  0  0  0  0999 V2000
   41.8510   34.5050   39.1100 C   0  0  0  0  0  0  0  0  0  0  0  0
   44.4660   34.6830   41.7130 C   0  0  2  0  0  0  0  0  0  0  0  0
   42.9490   34.4310   41.3580 C   0  0  0  0  0  0  0  0  0  0  0  0
   43.0980   34.7310   39.8660 C   0  0  1  0  0  0  0  0  0  0  0  0
   44.2730   33.8880   39.5180 C   0  0  0  0  0  0  0  0  0  0  0  0
   45.1320   33.8190   40.7880 C   0  0  0  0  0  0  0  0  0  0  0  0
   44.3570   35.6550   43.9450 C   0  0  0  0  0  0  0  0  0  0  0  0
   44.7050   34.5810   43.1440 C   0  0  0  0  0  0  0  0  0  0  0  0
   45.3070   33.4130   43.7170 C   0  0  0  0  0  0  0  0  0  0  0  0
   45.5260   33.3900   45.0590 N   0  0  0  0  0  0  0  0  0  0  0  0
   45.1700   34.4760   45.8410 C   0  0  0  0  0  0  0  0  0  0  0  0
   44.5960   35.5890   45.2970 N   0  0  0  0  0  0  0  0  0  0  0  0
   41.5560   35.6250   38.1780 C   0  0  0  0  0  0  0  0  0  0  0  0
   42.0790   33.2740   38.2620 C   0  0  0  0  0  0  0  0  0  0  0  0
   40.7180   34.1920   40.0260 C   0  0  0  0  0  0  0  0  0  0  0  0
   39.4350   34.0290   39.2560 C   0  0  2  0  0  0  0  0  0  0  0  0
   38.1250   33.7760   39.8710 C   0  0  0  0  0  0  0  0  0  0  0  0
   38.8130   32.6250   39.2100 C   0  0  2  0  0  0  0  0  0  0  0  0
   39.3110   31.4960   40.0350 C   0  0  0  0  0  0  0  0  0  0  0  0
   38.9390   30.1950   39.2870 C   0  0  0  0  0  0  0  0  0  0  0  0
   37.6420   29.7200   39.8390 C   0  0  0  0  0  0  0  0  0  0  0  0
   37.2820   30.5840   40.9990 C   0  0  0  0  0  0  0  0  0  0  0  0
   38.5930   31.2540   41.3310 C   0  0  0  0  0  0  0  0  0  0  0  0
   44.8689   35.6974   41.5765 H   0  0  0  0  0  0  0  0  0  0  0  0
   42.6298   33.3972   41.5562 H   0  0  0  0  0  0  0  0  0  0  0  0
   42.1951   35.0039   41.9178 H   0  0  0  0  0  0  0  0  0  0  0  0
   43.2734   35.7844   39.6022 H   0  0  0  0  0  0  0  0  0  0  0  0
   43.9466   32.8802   39.2216 H   0  0  0  0  0  0  0  0  0  0  0  0
   44.8359   34.3092   38.6720 H   0  0  0  0  0  0  0  0  0  0  0  0
   45.1725   32.7903   41.1756 H   0  0  0  0  0  0  0  0  0  0  0  0
   46.1742   34.1207   40.6071 H   0  0  0  0  0  0  0  0  0  0  0  0
   43.8946   36.5508   43.5047 H   0  0  0  0  0  0  0  0  0  0  0  0
   45.5852   32.5558   43.0863 H   0  0  0  0  0  0  0  0  0  0  0  0
   45.3538   34.4412   46.9250 H   0  0  0  0  0  0  0  0  0  0  0  0
   41.3176   36.5300   38.7561 H   0  0  0  0  0  0  0  0  0  0  0  0
   42.4346   35.8156   37.5441 H   0  0  0  0  0  0  0  0  0  0  0  0
   40.6975   35.3581   37.5441 H   0  0  0  0  0  0  0  0  0  0  0  0
   42.2402   32.4036   38.9150 H   0  0  0  0  0  0  0  0  0  0  0  0
   41.1982   33.0979   37.6270 H   0  0  0  0  0  0  0  0  0  0  0  0
   42.9645   33.4250   37.6270 H   0  0  0  0  0  0  0  0  0  0  0  0
   40.9368   33.2575   40.5635 H   0  0  0  0  0  0  0  0  0  0  0  0
   40.5991   35.0241   40.7355 H   0  0  0  0  0  0  0  0  0  0  0  0
   39.7836   34.7965   38.5494 H   0  0  0  0  0  0  0  0  0  0  0  0
   38.0267   33.7937   40.9665 H   0  0  0  0  0  0  0  0  0  0  0  0
   37.1306   34.2341   39.7646 H   0  0  0  0  0  0  0  0  0  0  0  0
   38.5944   31.9046   38.4079 H   0  0  0  0  0  0  0  0  0  0  0  0
   40.3692   31.7389   40.2119 H   0  0  0  0  0  0  0  0  0  0  0  0
   39.7169   29.4339   39.4467 H   0  0  0  0  0  0  0  0  0  0  0  0
   38.8570   30.3786   38.2055 H   0  0  0  0  0  0  0  0  0  0  0  0
   36.8615   29.7897   39.0670 H   0  0  0  0  0  0  0  0  0  0  0  0
   37.7282   28.6714   40.1600 H   0  0  0  0  0  0  0  0  0  0  0  0
   36.5173   31.3241   40.7205 H   0  0  0  0  0  0  0  0  0  0  0  0
   36.8505   30.0255   41.8427 H   0  0  0  0  0  0  0  0  0  0  0  0
   39.1959   30.6011   41.9792 H   0  0  0  0  0  0  0  0  0  0  0  0
   38.4226   32.2007   41.8646 H   0  0  0  0  0  0  0  0  0  0  0  0
  1  4  1  0
  1 15  1  0
  2  8  1  0
  3  2  1  0
  4  3  1  0
  5  4  1  0
  5  6  1  0
  6  2  1  0
  7 12  2  0
  8  9  2  0
  8  7  1  0
  9 10  1  0
 10 11  2  0
 12 11  1  0
 13  1  1  0
 14  1  1  0
 16 17  1  0
 16 15  1  0
 18 16  1  0
 18 17  1  0
 18 19  1  0
 19 23  1  0
 20 21  1  0
 20 19  1  0
 21 22  1  0
 22 23  1  0
  2 24  1  6
  3 25  1  0
  3 26  1  0
  4 27  1  1
  5 28  1  0
  5 29  1  0
  6 30  1  0
  6 31  1  0
  7 32  1  0
  9 33  1  0
 11 34  1  0
 13 35  1  0
 13 36  1  0
 13 37  1  0
 14 38  1  0
 14 39  1  0
 14 40  1  0
 15 41  1  0
 15 42  1  0
 16 43  1  6
 17 44  1  0
 17 45  1  0
 18 46  1  6
 19 47  1  0
 20 48  1  0
 20 49  1  0
 21 50  1  0
 21 51  1  0
 22 52  1  0
 22 53  1  0
 23 54  1  0
 23 55  1  0
M  ISO  8  24  13  25  13  26  13  27  13  28  13  29  13  30  13  31  13
M  ISO  8  32  14  33  14  34  14  35   8  36   8  37   8  38   8  39   8
M  ISO  8  40   8  41   8  42   8  43  13  44  13  45  13  46  13  47  13
M  ISO  8  48  13  49  13  50  13  51  13  52  13  53  13  54  13  55  13
M  END
>  <minimizedAffinity>  (1) 
-5.78968716

>  <minimizedRMSD>  (1) 
1.20916033

$$$$
