
     RDKit          3D

 55 58  0  0  1  0  0  0  0  0999 V2000
   44.4490   33.9990   41.1480 C   0  0  0  0  0  0  0  0  0  0  0  0
   46.0980   33.8350   44.4440 C   0  0  2  0  0  0  0  0  0  0  0  0
   45.0970   33.1890   43.4140 C   0  0  0  0  0  0  0  0  0  0  0  0
   45.2120   34.3100   42.3720 C   0  0  1  0  0  0  0  0  0  0  0  0
   46.7030   34.4130   42.2490 C   0  0  0  0  0  0  0  0  0  0  0  0
   47.2550   34.0780   43.6390 C   0  0  0  0  0  0  0  0  0  0  0  0
   45.3760   33.4400   46.7350 C   0  0  0  0  0  0  0  0  0  0  0  0
   46.1760   33.0680   45.6690 C   0  0  0  0  0  0  0  0  0  0  0  0
   47.0880   31.9540   45.7890 C   0  0  0  0  0  0  0  0  0  0  0  0
   47.1400   31.2840   46.9700 N   0  0  0  0  0  0  0  0  0  0  0  0
   46.3260   31.6800   48.0190 C   0  0  0  0  0  0  0  0  0  0  0  0
   45.4570   32.7380   47.9140 N   0  0  0  0  0  0  0  0  0  0  0  0
   45.3520   33.6650   40.0140 C   0  0  0  0  0  0  0  0  0  0  0  0
   43.6630   32.7240   41.4670 C   0  0  0  0  0  0  0  0  0  0  0  0
   43.4560   35.0430   40.8340 C   0  0  0  0  0  0  0  0  0  0  0  0
   42.6310   34.6190   39.6250 C   0  0  2  0  0  0  0  0  0  0  0  0
   41.6530   35.5390   39.0070 C   0  0  0  0  0  0  0  0  0  0  0  0
   41.1160   34.4740   39.8790 C   0  0  1  0  0  0  0  0  0  0  0  0
   40.3460   33.5030   39.1490 N   0  0  0  0  0  0  0  0  0  0  0  0
   41.1110   32.5690   38.5090 C   0  0  0  0  0  0  0  0  0  0  0  0
   40.4620   31.5850   37.7750 C   0  0  0  0  0  0  0  0  0  0  0  0
   41.3070   30.5580   37.0720 C   0  0  0  0  0  0  0  0  0  0  0  0
   39.0730   31.5180   37.6690 C   0  0  0  0  0  0  0  0  0  0  0  0
   38.5290   30.6180   36.9990 O   0  0  0  0  0  0  0  0  0  0  0  0
   38.4020   32.4740   38.3280 N   0  0  0  0  0  0  0  0  0  0  0  0
   39.0070   33.4460   39.0520 C   0  0  0  0  0  0  0  0  0  0  0  0
   38.3690   34.3400   39.6670 O   0  0  0  0  0  0  0  0  0  0  0  0
   45.8154   34.7930   44.9048 H   0  0  0  0  0  0  0  0  0  0  0  0
   45.4436   32.2164   43.0346 H   0  0  0  0  0  0  0  0  0  0  0  0
   44.0897   32.9372   43.7772 H   0  0  0  0  0  0  0  0  0  0  0  0
   44.7644   35.2809   42.6309 H   0  0  0  0  0  0  0  0  0  0  0  0
   47.0774   33.6955   41.5040 H   0  0  0  0  0  0  0  0  0  0  0  0
   47.0160   35.4139   41.9170 H   0  0  0  0  0  0  0  0  0  0  0  0
   47.8926   33.1826   43.5970 H   0  0  0  0  0  0  0  0  0  0  0  0
   47.8791   34.8883   44.0438 H   0  0  0  0  0  0  0  0  0  0  0  0
   44.6825   34.2886   46.6399 H   0  0  0  0  0  0  0  0  0  0  0  0
   47.7255   31.6551   44.9439 H   0  0  0  0  0  0  0  0  0  0  0  0
   46.3777   31.1277   48.9689 H   0  0  0  0  0  0  0  0  0  0  0  0
   46.3161   33.3084   40.4057 H   0  0  0  0  0  0  0  0  0  0  0  0
   44.8923   32.8774   39.3989 H   0  0  0  0  0  0  0  0  0  0  0  0
   45.5154   34.5622   39.3989 H   0  0  0  0  0  0  0  0  0  0  0  0
   43.5882   32.6026   42.5577 H   0  0  0  0  0  0  0  0  0  0  0  0
   42.6536   32.7981   41.0362 H   0  0  0  0  0  0  0  0  0  0  0  0
   44.1827   31.8555   41.0362 H   0  0  0  0  0  0  0  0  0  0  0  0
   42.7910   35.1871   41.6983 H   0  0  0  0  0  0  0  0  0  0  0  0
   43.9766   35.9852   40.6079 H   0  0  0  0  0  0  0  0  0  0  0  0
   43.4565   34.0148   39.2206 H   0  0  0  0  0  0  0  0  0  0  0  0
   41.6085   36.5862   39.3408 H   0  0  0  0  0  0  0  0  0  0  0  0
   41.4494   35.8480   37.9711 H   0  0  0  0  0  0  0  0  0  0  0  0
   40.5245   34.3720   40.8008 H   0  0  0  0  0  0  0  0  0  0  0  0
   42.2088   32.5958   38.5734 H   0  0  0  0  0  0  0  0  0  0  0  0
   41.8209   29.9334   37.8175 H   0  0  0  0  0  0  0  0  0  0  0  0
   40.6654   29.9242   36.4422 H   0  0  0  0  0  0  0  0  0  0  0  0
   42.0526   31.0655   36.4422 H   0  0  0  0  0  0  0  0  0  0  0  0
   37.3731   32.4689   38.2812 H   0  0  0  0  0  0  0  0  0  0  0  0
  1 14  1  0
  1  4  1  0
  2  8  1  0
  3  2  1  0
  4  3  1  0
  5  4  1  0
  5  6  1  0
  6  2  1  0
  7 12  2  0
  8  9  2  0
  8  7  1  0
  9 10  1  0
 10 11  2  0
 12 11  1  0
 13  1  1  0
 15  1  1  0
 16 18  1  0
 16 15  1  0
 17 16  1  0
 17 18  1  0
 19 18  1  0
 20 19  1  0
 21 20  2  0
 22 21  1  0
 23 21  1  0
 23 25  1  0
 24 23  2  0
 25 26  1  0
 26 19  1  0
 26 27  2  0
  2 28  1  1
  3 29  1  0
  3 30  1  0
  4 31  1  1
  5 32  1  0
  5 33  1  0
  6 34  1  0
  6 35  1  0
  7 36  1  0
  9 37  1  0
 11 38  1  0
 13 39  1  0
 13 40  1  0
 13 41  1  0
 14 42  1  0
 14 43  1  0
 14 44  1  0
 15 45  1  0
 15 46  1  0
 16 47  1  6
 17 48  1  0
 17 49  1  0
 18 50  1  1
 20 51  1  0
 22 52  1  0
 22 53  1  0
 22 54  1  0
 25 55  1  0
M  ISO  8  28  13  29  13  30  13  31  13  32  13  33  13  34  13  35  13
M  ISO  8  36  14  37  14  38  14  39   8  40   8  41   8  42   8  43   8
M  ISO  8  44   8  45   8  46   8  47  13  48  13  49  13  50  13  51  14
M  ISO  4  52   8  53   8  54   8  55   9
M  END
>  <minimizedAffinity>  (1) 
-5.72230482

>  <minimizedRMSD>  (1) 
3.33261442

$$$$
