
     RDKit          3D

 49 52  0  0  1  0  0  0  0  0999 V2000
   41.9890   34.4960   39.1390 C   0  0  0  0  0  0  0  0  0  0  0  0
   44.5360   34.7180   41.7880 C   0  0  2  0  0  0  0  0  0  0  0  0
   43.0450   34.3980   41.3900 C   0  0  0  0  0  0  0  0  0  0  0  0
   43.2160   34.7570   39.9110 C   0  0  1  0  0  0  0  0  0  0  0  0
   44.4130   33.9100   39.5920 C   0  0  0  0  0  0  0  0  0  0  0  0
   45.2840   33.9430   40.8520 C   0  0  0  0  0  0  0  0  0  0  0  0
   44.3720   35.6320   44.0430 C   0  0  0  0  0  0  0  0  0  0  0  0
   44.7480   34.5790   43.2250 C   0  0  0  0  0  0  0  0  0  0  0  0
   45.3500   33.3880   43.7740 C   0  0  0  0  0  0  0  0  0  0  0  0
   45.5320   33.3480   45.1250 N   0  0  0  0  0  0  0  0  0  0  0  0
   45.1500   34.4120   45.9260 C   0  0  0  0  0  0  0  0  0  0  0  0
   44.5840   35.5280   45.4000 N   0  0  0  0  0  0  0  0  0  0  0  0
   41.7190   35.5900   38.1520 C   0  0  0  0  0  0  0  0  0  0  0  0
   42.2850   33.2480   38.3120 C   0  0  0  0  0  0  0  0  0  0  0  0
   40.8410   34.1770   40.0070 C   0  0  0  0  0  0  0  0  0  0  0  0
   39.5520   34.2970   39.2110 C   0  0  2  0  0  0  0  0  0  0  0  0
   38.2260   34.1710   39.8350 C   0  0  0  0  0  0  0  0  0  0  0  0
   38.7150   33.0050   39.0730 C   0  0  2  0  0  0  0  0  0  0  0  0
   39.0400   31.8580   39.8600 N   0  0  0  0  0  0  0  0  0  0  0  0
   39.8900   30.8870   39.6960 N   0  0  0  0  0  0  0  0  0  0  0  0
   39.8630   30.0000   40.7080 C   0  0  0  0  0  0  0  0  0  0  0  0
   38.9010   30.4800   41.5730 C   0  0  0  0  0  0  0  0  0  0  0  0
   38.3970   31.6430   41.0260 C   0  0  0  0  0  0  0  0  0  0  0  0
   44.8782   35.7591   41.6936 H   0  0  0  0  0  0  0  0  0  0  0  0
   42.7771   33.3426   41.5463 H   0  0  0  0  0  0  0  0  0  0  0  0
   42.2476   34.9092   41.9493 H   0  0  0  0  0  0  0  0  0  0  0  0
   43.3756   35.8166   39.6624 H   0  0  0  0  0  0  0  0  0  0  0  0
   44.1049   32.8789   39.3643 H   0  0  0  0  0  0  0  0  0  0  0  0
   44.9549   34.2840   38.7109 H   0  0  0  0  0  0  0  0  0  0  0  0
   45.4503   32.9256   41.2356 H   0  0  0  0  0  0  0  0  0  0  0  0
   46.2795   34.3695   40.6593 H   0  0  0  0  0  0  0  0  0  0  0  0
   43.9121   36.5355   43.6162 H   0  0  0  0  0  0  0  0  0  0  0  0
   45.6494   32.5479   43.1301 H   0  0  0  0  0  0  0  0  0  0  0  0
   45.3090   34.3510   47.0127 H   0  0  0  0  0  0  0  0  0  0  0  0
   41.4892   36.5212   38.6905 H   0  0  0  0  0  0  0  0  0  0  0  0
   42.6068   35.7413   37.5203 H   0  0  0  0  0  0  0  0  0  0  0  0
   40.8628   35.3109   37.5203 H   0  0  0  0  0  0  0  0  0  0  0  0
   42.4858   32.4013   38.9849 H   0  0  0  0  0  0  0  0  0  0  0  0
   41.4174   33.0143   37.6775 H   0  0  0  0  0  0  0  0  0  0  0  0
   43.1652   33.4288   37.6775 H   0  0  0  0  0  0  0  0  0  0  0  0
   40.9430   33.1494   40.3861 H   0  0  0  0  0  0  0  0  0  0  0  0
   40.8154   34.8803   40.8524 H   0  0  0  0  0  0  0  0  0  0  0  0
   40.0044   35.0579   38.5580 H   0  0  0  0  0  0  0  0  0  0  0  0
   38.1477   34.1070   40.9303 H   0  0  0  0  0  0  0  0  0  0  0  0
   37.3071   34.7741   39.7912 H   0  0  0  0  0  0  0  0  0  0  0  0
   38.3908   32.3956   38.2166 H   0  0  0  0  0  0  0  0  0  0  0  0
   40.4736   29.0920   40.8207 H   0  0  0  0  0  0  0  0  0  0  0  0
   38.5925   30.0205   42.5236 H   0  0  0  0  0  0  0  0  0  0  0  0
   37.6128   32.2793   41.4622 H   0  0  0  0  0  0  0  0  0  0  0  0
  1  4  1  0
  1 15  1  0
  2  8  1  0
  3  2  1  0
  4  3  1  0
  5  4  1  0
  5  6  1  0
  6  2  1  0
  7 12  2  0
  8  9  2  0
  8  7  1  0
  9 10  1  0
 10 11  2  0
 12 11  1  0
 13  1  1  0
 14  1  1  0
 16 17  1  0
 16 15  1  0
 18 16  1  0
 18 17  1  0
 18 19  1  0
 19 23  1  0
 20 19  1  0
 20 21  2  0
 21 22  1  0
 23 22  2  0
  2 24  1  6
  3 25  1  0
  3 26  1  0
  4 27  1  1
  5 28  1  0
  5 29  1  0
  6 30  1  0
  6 31  1  0
  7 32  1  0
  9 33  1  0
 11 34  1  0
 13 35  1  0
 13 36  1  0
 13 37  1  0
 14 38  1  0
 14 39  1  0
 14 40  1  0
 15 41  1  0
 15 42  1  0
 16 43  1  6
 17 44  1  0
 17 45  1  0
 18 46  1  6
 21 47  1  0
 22 48  1  0
 23 49  1  0
M  ISO  8  24  13  25  13  26  13  27  13  28  13  29  13  30  13  31  13
M  ISO  8  32  14  33  14  34  14  35   8  36   8  37   8  38   8  39   8
M  ISO  8  40   8  41   8  42   8  43  13  44  13  45  13  46  13  47  14
M  ISO  2  48  14  49  14
M  END
>  <minimizedAffinity>  (1) 
-5.47336626

>  <minimizedRMSD>  (1) 
1.21947598

$$$$
