
     RDKit          3D

 56 59  0  0  1  0  0  0  0  0999 V2000
   42.0180   34.5470   39.0770 C   0  0  0  0  0  0  0  0  0  0  0  0
   44.5590   34.6520   41.7610 C   0  0  2  0  0  0  0  0  0  0  0  0
   43.0470   34.4580   41.3570 C   0  0  0  0  0  0  0  0  0  0  0  0
   43.2490   34.7350   39.8680 C   0  0  1  0  0  0  0  0  0  0  0  0
   44.3980   33.8370   39.5700 C   0  0  0  0  0  0  0  0  0  0  0  0
   45.2180   33.7570   40.8630 C   0  0  0  0  0  0  0  0  0  0  0  0
   44.3790   35.6390   43.9800 C   0  0  0  0  0  0  0  0  0  0  0  0
   44.7490   34.5640   43.1910 C   0  0  0  0  0  0  0  0  0  0  0  0
   45.3370   33.3880   43.7880 C   0  0  0  0  0  0  0  0  0  0  0  0
   45.5110   33.3770   45.1380 N   0  0  0  0  0  0  0  0  0  0  0  0
   45.1320   34.4670   45.9050 C   0  0  0  0  0  0  0  0  0  0  0  0
   44.5730   35.5840   45.3370 N   0  0  0  0  0  0  0  0  0  0  0  0
   41.8230   35.6320   38.0820 C   0  0  0  0  0  0  0  0  0  0  0  0
   42.2050   33.2560   38.3040 C   0  0  0  0  0  0  0  0  0  0  0  0
   40.8380   34.3520   39.9610 C   0  0  0  0  0  0  0  0  0  0  0  0
   39.5710   34.2880   39.1510 C   0  0  2  0  0  0  0  0  0  0  0  0
   38.2280   34.2640   39.7740 C   0  0  0  0  0  0  0  0  0  0  0  0
   38.7410   32.9860   39.2440 C   0  0  2  0  0  0  0  0  0  0  0  0
   39.1660   31.8990   40.0190 N   0  0  0  0  0  0  0  0  0  0  0  0
   38.5470   31.5940   41.2420 C   0  0  0  0  0  0  0  0  0  0  0  0
   38.2380   30.0900   41.3870 C   0  0  0  0  0  0  0  0  0  0  0  0
   37.3060   29.7770   40.3170 N   0  0  0  0  0  0  0  0  0  0  0  0
   37.9930   30.0130   39.0720 C   0  0  0  0  0  0  0  0  0  0  0  0
   39.3300   30.6950   39.2330 C   0  0  0  0  0  0  0  0  0  0  0  0
   45.0088   35.6475   41.6322 H   0  0  0  0  0  0  0  0  0  0  0  0
   42.6805   33.4399   41.5549 H   0  0  0  0  0  0  0  0  0  0  0  0
   42.3014   35.0692   41.8867 H   0  0  0  0  0  0  0  0  0  0  0  0
   43.4715   35.7773   39.5959 H   0  0  0  0  0  0  0  0  0  0  0  0
   44.0380   32.8379   39.2833 H   0  0  0  0  0  0  0  0  0  0  0  0
   45.0013   34.2187   38.7332 H   0  0  0  0  0  0  0  0  0  0  0  0
   45.2142   32.7323   41.2630 H   0  0  0  0  0  0  0  0  0  0  0  0
   46.2734   34.0242   40.7060 H   0  0  0  0  0  0  0  0  0  0  0  0
   43.9316   36.5331   43.5214 H   0  0  0  0  0  0  0  0  0  0  0  0
   45.6351   32.5276   43.1709 H   0  0  0  0  0  0  0  0  0  0  0  0
   45.2827   34.4361   46.9942 H   0  0  0  0  0  0  0  0  0  0  0  0
   41.6519   36.5838   38.6062 H   0  0  0  0  0  0  0  0  0  0  0  0
   42.7203   35.7168   37.4514 H   0  0  0  0  0  0  0  0  0  0  0  0
   40.9523   35.3991   37.4514 H   0  0  0  0  0  0  0  0  0  0  0  0
   42.3260   32.4206   39.0093 H   0  0  0  0  0  0  0  0  0  0  0  0
   41.3235   33.0767   37.6710 H   0  0  0  0  0  0  0  0  0  0  0  0
   43.1012   33.3342   37.6710 H   0  0  0  0  0  0  0  0  0  0  0  0
   40.9570   33.4121   40.5200 H   0  0  0  0  0  0  0  0  0  0  0  0
   40.7715   35.2030   40.6548 H   0  0  0  0  0  0  0  0  0  0  0  0
   40.0316   34.9121   38.3710 H   0  0  0  0  0  0  0  0  0  0  0  0
   38.1333   34.3999   40.8615 H   0  0  0  0  0  0  0  0  0  0  0  0
   37.3043   34.8381   39.6091 H   0  0  0  0  0  0  0  0  0  0  0  0
   38.3415   32.2297   38.5524 H   0  0  0  0  0  0  0  0  0  0  0  0
   39.2152   31.8977   42.0613 H   0  0  0  0  0  0  0  0  0  0  0  0
   37.5912   32.1372   41.2782 H   0  0  0  0  0  0  0  0  0  0  0  0
   39.1583   29.4970   41.2802 H   0  0  0  0  0  0  0  0  0  0  0  0
   37.8164   29.8548   42.3754 H   0  0  0  0  0  0  0  0  0  0  0  0
   37.0159   28.7906   40.3787 H   0  0  0  0  0  0  0  0  0  0  0  0
   37.3547   30.6465   38.4385 H   0  0  0  0  0  0  0  0  0  0  0  0
   38.1881   29.0282   38.6224 H   0  0  0  0  0  0  0  0  0  0  0  0
   40.0288   30.0161   39.7437 H   0  0  0  0  0  0  0  0  0  0  0  0
   39.7302   30.9557   38.2421 H   0  0  0  0  0  0  0  0  0  0  0  0
  1  4  1  0
  1 15  1  0
  2  8  1  0
  3  2  1  0
  4  3  1  0
  5  4  1  0
  5  6  1  0
  6  2  1  0
  7 12  2  0
  8  9  2  0
  8  7  1  0
  9 10  1  0
 10 11  2  0
 12 11  1  0
 13  1  1  0
 14  1  1  0
 16 18  1  0
 16 17  1  0
 16 15  1  0
 18 17  1  0
 18 19  1  0
 19 20  1  0
 20 21  1  0
 22 21  1  0
 23 24  1  0
 23 22  1  0
 24 19  1  0
  2 25  1  6
  3 26  1  0
  3 27  1  0
  4 28  1  1
  5 29  1  0
  5 30  1  0
  6 31  1  0
  6 32  1  0
  7 33  1  0
  9 34  1  0
 11 35  1  0
 13 36  1  0
 13 37  1  0
 13 38  1  0
 14 39  1  0
 14 40  1  0
 14 41  1  0
 15 42  1  0
 15 43  1  0
 16 44  1  6
 17 45  1  0
 17 46  1  0
 18 47  1  6
 20 48  1  0
 20 49  1  0
 21 50  1  0
 21 51  1  0
 22 52  1  0
 23 53  1  0
 23 54  1  0
 24 55  1  0
 24 56  1  0
M  ISO  8  25  13  26  13  27  13  28  13  29  13  30  13  31  13  32  13
M  ISO  8  33  14  34  14  35  14  36   8  37   8  38   8  39   8  40   8
M  ISO  8  41   8  42   8  43   8  44  13  45  13  46  13  47  13  48  13
M  ISO  8  49  13  50  13  51  13  52   5  53  13  54  13  55  13  56  13
M  END
>  <minimizedAffinity>  (1) 
-5.58596659

>  <minimizedRMSD>  (1) 
0.993602931

$$$$
