
     RDKit          3D

 45 47  0  0  1  0  0  0  0  0999 V2000
   42.0350   34.4960   39.1860 C   0  0  0  0  0  0  0  0  0  0  0  0
   44.5730   34.6860   41.8620 C   0  0  2  0  0  0  0  0  0  0  0  0
   43.0780   34.3950   41.4500 C   0  0  0  0  0  0  0  0  0  0  0  0
   43.2610   34.7460   39.9680 C   0  0  1  0  0  0  0  0  0  0  0  0
   44.4680   33.9270   39.6400 C   0  0  0  0  0  0  0  0  0  0  0  0
   45.3040   33.8870   40.9300 C   0  0  0  0  0  0  0  0  0  0  0  0
   44.3870   35.6010   44.1090 C   0  0  0  0  0  0  0  0  0  0  0  0
   44.7720   34.5510   43.2930 C   0  0  0  0  0  0  0  0  0  0  0  0
   45.3800   33.3600   43.8450 C   0  0  0  0  0  0  0  0  0  0  0  0
   45.5580   33.3090   45.1940 N   0  0  0  0  0  0  0  0  0  0  0  0
   45.1650   34.3730   45.9890 C   0  0  0  0  0  0  0  0  0  0  0  0
   44.5920   35.4980   45.4660 N   0  0  0  0  0  0  0  0  0  0  0  0
   41.7880   35.5820   38.1970 C   0  0  0  0  0  0  0  0  0  0  0  0
   42.3090   33.2240   38.3820 C   0  0  0  0  0  0  0  0  0  0  0  0
   40.8790   34.2030   40.0540 C   0  0  0  0  0  0  0  0  0  0  0  0
   39.6000   34.2990   39.2340 C   0  0  2  0  0  0  0  0  0  0  0  0
   38.2750   34.0770   39.8490 C   0  0  0  0  0  0  0  0  0  0  0  0
   38.8240   32.9500   39.0740 C   0  0  1  0  0  0  0  0  0  0  0  0
   38.2930   32.6510   37.7270 C   0  0  0  0  0  0  0  0  0  0  0  0
   37.5290   33.3950   37.0630 O   0  0  0  0  0  0  0  0  0  0  0  0
   38.6380   31.4540   37.0860 O   0  0  0  0  0  0  0  0  0  0  0  0
   44.9417   35.7185   41.7722 H   0  0  0  0  0  0  0  0  0  0  0  0
   42.7885   33.3455   41.6074 H   0  0  0  0  0  0  0  0  0  0  0  0
   42.2886   34.9262   42.0019 H   0  0  0  0  0  0  0  0  0  0  0  0
   43.4212   35.8068   39.7250 H   0  0  0  0  0  0  0  0  0  0  0  0
   44.1726   32.9101   39.3422 H   0  0  0  0  0  0  0  0  0  0  0  0
   45.0351   34.3561   38.8008 H   0  0  0  0  0  0  0  0  0  0  0  0
   45.4014   32.8546   41.2970 H   0  0  0  0  0  0  0  0  0  0  0  0
   46.3268   34.2608   40.7744 H   0  0  0  0  0  0  0  0  0  0  0  0
   43.9250   36.5024   43.6800 H   0  0  0  0  0  0  0  0  0  0  0  0
   45.6876   32.5253   43.1980 H   0  0  0  0  0  0  0  0  0  0  0  0
   45.3191   34.3104   47.0764 H   0  0  0  0  0  0  0  0  0  0  0  0
   41.5745   36.5208   38.7290 H   0  0  0  0  0  0  0  0  0  0  0  0
   42.6793   35.7128   37.5658 H   0  0  0  0  0  0  0  0  0  0  0  0
   40.9278   35.3144   37.5658 H   0  0  0  0  0  0  0  0  0  0  0  0
   42.4895   32.3862   39.0715 H   0  0  0  0  0  0  0  0  0  0  0  0
   41.4393   32.9964   37.7481 H   0  0  0  0  0  0  0  0  0  0  0  0
   43.1953   33.3747   37.7481 H   0  0  0  0  0  0  0  0  0  0  0  0
   40.9764   33.1878   40.4662 H   0  0  0  0  0  0  0  0  0  0  0  0
   40.8437   34.9287   40.8799 H   0  0  0  0  0  0  0  0  0  0  0  0
   40.0108   35.0986   38.6001 H   0  0  0  0  0  0  0  0  0  0  0  0
   38.1966   33.9909   40.9428 H   0  0  0  0  0  0  0  0  0  0  0  0
   37.3234   34.6272   39.8075 H   0  0  0  0  0  0  0  0  0  0  0  0
   39.0002   31.8850   39.2855 H   0  0  0  0  0  0  0  0  0  0  0  0
   38.2817   31.2550   36.1840 H   0  0  0  0  0  0  0  0  0  0  0  0
  1  4  1  0
  1 15  1  0
  2  8  1  0
  3  2  1  0
  4  3  1  0
  5  4  1  0
  5  6  1  0
  6  2  1  0
  7 12  2  0
  8  9  2  0
  8  7  1  0
  9 10  1  0
 10 11  2  0
 12 11  1  0
 13  1  1  0
 14  1  1  0
 16 17  1  0
 16 15  1  0
 18 16  1  0
 18 17  1  0
 19 18  1  0
 20 19  2  0
 21 19  1  0
  2 22  1  6
  3 23  1  0
  3 24  1  0
  4 25  1  1
  5 26  1  0
  5 27  1  0
  6 28  1  0
  6 29  1  0
  7 30  1  0
  9 31  1  0
 11 32  1  0
 13 33  1  0
 13 34  1  0
 13 35  1  0
 14 36  1  0
 14 37  1  0
 14 38  1  0
 15 39  1  0
 15 40  1  0
 16 41  1  6
 17 42  1  0
 17 43  1  0
 18 44  1  1
 21 45  1  0
M  ISO  8  22  13  23  13  24  13  25  13  26  13  27  13  28  13  29  13
M  ISO  8  30  14  31  14  32  14  33   8  34   8  35   8  36   8  37   8
M  ISO  8  38   8  39   8  40   8  41  13  42  13  43  13  44  13  45   3
M  END
>  <minimizedAffinity>  (1) 
-5.4030962

>  <minimizedRMSD>  (1) 
0.916962326

$$$$
