
     RDKit          3D

 48 50  0  0  1  0  0  0  0  0999 V2000
   44.2660   34.6740   41.3950 C   0  0  2  0  0  0  0  0  0  0  0  0
   42.7200   34.7940   41.0940 C   0  0  0  0  0  0  0  0  0  0  0  0
   42.8810   34.9030   39.5690 C   0  0  1  0  0  0  0  0  0  0  0  0
   43.7550   33.7160   39.3120 C   0  0  0  0  0  0  0  0  0  0  0  0
   44.6520   33.5850   40.5550 C   0  0  0  0  0  0  0  0  0  0  0  0
   44.2680   35.8160   43.5440 C   0  0  0  0  0  0  0  0  0  0  0  0
   44.5390   34.6680   42.8190 C   0  0  0  0  0  0  0  0  0  0  0  0
   45.1010   33.4990   43.4550 C   0  0  0  0  0  0  0  0  0  0  0  0
   45.3530   33.5710   44.7920 N   0  0  0  0  0  0  0  0  0  0  0  0
   45.0730   34.7290   45.4980 C   0  0  0  0  0  0  0  0  0  0  0  0
   44.5390   35.8370   44.8890 N   0  0  0  0  0  0  0  0  0  0  0  0
   41.5750   34.9370   38.8870 C   0  0  0  0  0  0  0  0  0  0  0  0
   41.5260   36.0510   37.8800 C   0  0  0  0  0  0  0  0  0  0  0  0
   41.4960   33.6520   38.0790 C   0  0  0  0  0  0  0  0  0  0  0  0
   40.4470   34.9440   39.8350 C   0  0  0  0  0  0  0  0  0  0  0  0
   39.4200   33.9090   39.4090 C   0  0  2  0  0  0  0  0  0  0  0  0
   38.1200   33.7630   40.0890 C   0  0  0  0  0  0  0  0  0  0  0  0
   39.1520   32.7660   40.4190 C   0  0  2  0  0  0  0  0  0  0  0  0
   39.7600   32.8720   41.7820 C   0  0  0  0  0  0  0  0  0  0  0  0
   40.7650   31.7340   41.9260 C   0  0  0  0  0  0  0  0  0  0  0  0
   44.9103   35.5292   41.1430 H   0  0  0  0  0  0  0  0  0  0  0  0
   42.1536   33.9027   41.4019 H   0  0  0  0  0  0  0  0  0  0  0  0
   42.1628   35.5930   41.6050 H   0  0  0  0  0  0  0  0  0  0  0  0
   43.3283   35.8279   39.1760 H   0  0  0  0  0  0  0  0  0  0  0  0
   43.1442   32.8104   39.1823 H   0  0  0  0  0  0  0  0  0  0  0  0
   44.3479   33.8387   38.3936 H   0  0  0  0  0  0  0  0  0  0  0  0
   44.4770   32.6238   41.0605 H   0  0  0  0  0  0  0  0  0  0  0  0
   45.7221   33.6128   40.3017 H   0  0  0  0  0  0  0  0  0  0  0  0
   43.8408   36.7001   43.0481 H   0  0  0  0  0  0  0  0  0  0  0  0
   45.3172   32.5855   42.8816 H   0  0  0  0  0  0  0  0  0  0  0  0
   45.2845   34.7617   46.5770 H   0  0  0  0  0  0  0  0  0  0  0  0
   41.4835   37.0173   38.4039 H   0  0  0  0  0  0  0  0  0  0  0  0
   42.4266   36.0151   37.2494 H   0  0  0  0  0  0  0  0  0  0  0  0
   40.6320   35.9362   37.2494 H   0  0  0  0  0  0  0  0  0  0  0  0
   41.4431   32.7918   38.7625 H   0  0  0  0  0  0  0  0  0  0  0  0
   40.5974   33.6723   37.4449 H   0  0  0  0  0  0  0  0  0  0  0  0
   42.3903   33.5620   37.4449 H   0  0  0  0  0  0  0  0  0  0  0  0
   40.8142   34.7025   40.8434 H   0  0  0  0  0  0  0  0  0  0  0  0
   39.9813   35.9405   39.8428 H   0  0  0  0  0  0  0  0  0  0  0  0
   39.7068   34.0269   38.3536 H   0  0  0  0  0  0  0  0  0  0  0  0
   37.8207   34.5019   40.8469 H   0  0  0  0  0  0  0  0  0  0  0  0
   37.0824   33.6888   39.7312 H   0  0  0  0  0  0  0  0  0  0  0  0
   39.2416   31.6700   40.3934 H   0  0  0  0  0  0  0  0  0  0  0  0
   40.2708   33.8401   41.8910 H   0  0  0  0  0  0  0  0  0  0  0  0
   38.9839   32.8038   42.5585 H   0  0  0  0  0  0  0  0  0  0  0  0
   40.9418   31.5338   42.9931 H   0  0  0  0  0  0  0  0  0  0  0  0
   40.3658   30.8292   41.4444 H   0  0  0  0  0  0  0  0  0  0  0  0
   41.7122   32.0182   41.4444 H   0  0  0  0  0  0  0  0  0  0  0  0
  1  7  1  0
  2  1  1  0
  3  2  1  0
  4  3  1  0
  4  5  1  0
  5  1  1  0
  6 11  2  0
  7  8  2  0
  7  6  1  0
  8  9  1  0
  9 10  2  0
 11 10  1  0
 12  3  1  0
 12 15  1  0
 13 12  1  0
 14 12  1  0
 16 15  1  0
 16 17  1  0
 16 18  1  0
 17 18  1  0
 18 19  1  0
 19 20  1  0
  1 21  1  6
  2 22  1  0
  2 23  1  0
  3 24  1  1
  4 25  1  0
  4 26  1  0
  5 27  1  0
  5 28  1  0
  6 29  1  0
  8 30  1  0
 10 31  1  0
 13 32  1  0
 13 33  1  0
 13 34  1  0
 14 35  1  0
 14 36  1  0
 14 37  1  0
 15 38  1  0
 15 39  1  0
 16 40  1  6
 17 41  1  0
 17 42  1  0
 18 43  1  6
 19 44  1  0
 19 45  1  0
 20 46  1  0
 20 47  1  0
 20 48  1  0
M  ISO  8  21  13  22  13  23  13  24  13  25  13  26  13  27  13  28  13
M  ISO  8  29  14  30  14  31  14  32   8  33   8  34   8  35   8  36   8
M  ISO  8  37   8  38   8  39   8  40  13  41  13  42  13  43  13  44   8
M  ISO  4  45   8  46   8  47   8  48   8
M  END
>  <minimizedAffinity>  (1) 
-5.37988615

>  <minimizedRMSD>  (1) 
1.28953528

$$$$
