
     RDKit          3D

 26 27  0  0  0  0  0  0  0  0999 V2000
   44.5550   35.5820   44.9800 C   0  0  0  0  0  0  0  0  0  0  0  0
   44.8520   36.1140   43.7240 C   0  0  0  0  0  0  0  0  0  0  0  0
   45.8090   35.4350   42.9240 C   0  0  0  0  0  0  0  0  0  0  0  0
   46.3770   34.2940   43.4470 N   0  0  0  0  0  0  0  0  0  0  0  0
   46.0440   33.8410   44.6590 C   0  0  0  0  0  0  0  0  0  0  0  0
   45.1430   34.4680   45.4310 N   0  0  0  0  0  0  0  0  0  0  0  0
   46.8290   32.3480   45.2720 S   0  0  0  0  0  0  0  0  0  0  0  0
   45.9630   31.3510   49.6380 N   0  0  0  0  0  0  0  0  0  0  0  0
   47.2990   31.2610   49.1520 C   0  0  0  0  0  0  0  0  0  0  0  0
   47.6160   31.9910   47.8970 C   0  0  0  0  0  0  0  0  0  0  0  0
   46.4250   32.2220   47.0130 C   0  0  0  0  0  0  0  0  0  0  0  0
   45.4670   31.0600   47.2980 C   0  0  0  0  0  0  0  0  0  0  0  0
   44.9180   31.3460   48.6780 C   0  0  0  0  0  0  0  0  0  0  0  0
   43.8173   36.0927   45.6164 H   0  0  0  0  0  0  0  0  0  0  0  0
   44.3603   37.0302   43.3653 H   0  0  0  0  0  0  0  0  0  0  0  0
   46.0859   35.8055   41.9260 H   0  0  0  0  0  0  0  0  0  0  0  0
   45.8084   30.5504   50.2673 H   0  0  0  0  0  0  0  0  0  0  0  0
   47.9637   31.6494   49.9376 H   0  0  0  0  0  0  0  0  0  0  0  0
   47.4398   30.1984   48.9051 H   0  0  0  0  0  0  0  0  0  0  0  0
   48.0450   32.9683   48.1632 H   0  0  0  0  0  0  0  0  0  0  0  0
   48.3188   31.3629   47.3299 H   0  0  0  0  0  0  0  0  0  0  0  0
   45.9689   33.1967   47.2410 H   0  0  0  0  0  0  0  0  0  0  0  0
   44.6560   31.0346   46.5553 H   0  0  0  0  0  0  0  0  0  0  0  0
   45.9695   30.0830   47.2438 H   0  0  0  0  0  0  0  0  0  0  0  0
   44.4249   32.3293   48.6747 H   0  0  0  0  0  0  0  0  0  0  0  0
   44.1955   30.5600   48.9431 H   0  0  0  0  0  0  0  0  0  0  0  0
  1  6  2  0
  2  1  1  0
  3  4  1  0
  3  2  2  0
  4  5  2  0
  5  7  1  0
  5  6  1  0
  7 11  1  0
  9  8  1  0
 10  9  1  0
 11 12  1  0
 11 10  1  0
 12 13  1  0
 13  8  1  0
  1 14  1  0
  2 15  1  0
  3 16  1  0
  8 17  1  0
  9 18  1  0
  9 19  1  0
 10 20  1  0
 10 21  1  0
 11 22  1  0
 12 23  1  0
 12 24  1  0
 13 25  1  0
 13 26  1  0
M  ISO  8  14  14  15  14  16  14  17   5  18  13  19  13  20  13  21  13
M  ISO  5  22  13  23  13  24  13  25  13  26  13
M  END
>  <minimizedAffinity>  (1) 
-4.58284187

>  <minimizedRMSD>  (1) 
2.26659465

$$$$
