
     RDKit          3D

 18 19  0  0  0  0  0  0  0  0999 V2000
   44.5460   35.4790   45.3260 C   0  0  0  0  0  0  0  0  0  0  0  0
   44.8460   35.8840   44.0250 C   0  0  0  0  0  0  0  0  0  0  0  0
   45.7720   35.1030   43.3110 C   0  0  0  0  0  0  0  0  0  0  0  0
   46.3350   33.9920   43.9120 N   0  0  0  0  0  0  0  0  0  0  0  0
   45.9850   33.6730   45.1810 C   0  0  0  0  0  0  0  0  0  0  0  0
   45.1130   34.3860   45.8890 N   0  0  0  0  0  0  0  0  0  0  0  0
   46.7340   32.2250   45.9320 S   0  0  0  0  0  0  0  0  0  0  0  0
   46.1090   31.9750   47.5860 C   0  0  0  0  0  0  0  0  0  0  0  0
   45.4340   30.7650   47.7550 C   0  0  0  0  0  0  0  0  0  0  0  0
   44.9990   30.6930   49.0830 C   0  0  0  0  0  0  0  0  0  0  0  0
   45.4250   31.8450   49.6460 N   0  0  0  0  0  0  0  0  0  0  0  0
   46.0660   32.5890   48.7900 N   0  0  0  0  0  0  0  0  0  0  0  0
   43.8253   36.0669   45.9134 H   0  0  0  0  0  0  0  0  0  0  0  0
   44.3792   36.7741   43.5780 H   0  0  0  0  0  0  0  0  0  0  0  0
   46.0468   35.3740   42.2809 H   0  0  0  0  0  0  0  0  0  0  0  0
   45.2723   30.0015   46.9798 H   0  0  0  0  0  0  0  0  0  0  0  0
   44.4353   29.8791   49.5623 H   0  0  0  0  0  0  0  0  0  0  0  0
   45.2630   32.1030   50.6299 H   0  0  0  0  0  0  0  0  0  0  0  0
  1  6  2  0
  2  1  1  0
  3  4  1  0
  3  2  2  0
  4  5  2  0
  5  6  1  0
  5  7  1  0
  7  8  1  0
  8  9  1  0
  8 12  2  0
  9 10  2  0
 10 11  1  0
 12 11  1  0
  1 13  1  0
  2 14  1  0
  3 15  1  0
  9 16  1  0
 10 17  1  0
 11 18  1  0
M  ISO  6  13  14  14  14  15  14  16  14  17  14  18   9
M  END
>  <minimizedAffinity>  (1) 
-4.46006155

>  <minimizedRMSD>  (1) 
2.36508489

$$$$
