
     RDKit          3D

 18 19  0  0  0  0  0  0  0  0999 V2000
   44.5310   35.5780   44.7990 C   0  0  0  0  0  0  0  0  0  0  0  0
   45.0780   35.6120   43.5120 C   0  0  0  0  0  0  0  0  0  0  0  0
   46.1300   34.7240   43.2290 C   0  0  0  0  0  0  0  0  0  0  0  0
   46.5410   33.8920   44.2300 N   0  0  0  0  0  0  0  0  0  0  0  0
   45.9910   33.8900   45.4480 C   0  0  0  0  0  0  0  0  0  0  0  0
   44.9810   34.7360   45.7400 N   0  0  0  0  0  0  0  0  0  0  0  0
   46.5770   32.7730   46.7180 S   0  0  0  0  0  0  0  0  0  0  0  0
   45.8430   31.1720   46.4470 C   0  0  0  0  0  0  0  0  0  0  0  0
   45.3900   30.5460   47.6110 C   0  0  0  0  0  0  0  0  0  0  0  0
   44.8420   29.3110   47.2480 C   0  0  0  0  0  0  0  0  0  0  0  0
   45.0070   29.2780   45.8640 C   0  0  0  0  0  0  0  0  0  0  0  0
   45.5900   30.3740   45.4400 O   0  0  0  0  0  0  0  0  0  0  0  0
   43.7066   36.2630   45.0464 H   0  0  0  0  0  0  0  0  0  0  0  0
   44.6987   36.3082   42.7494 H   0  0  0  0  0  0  0  0  0  0  0  0
   46.6048   34.7004   42.2370 H   0  0  0  0  0  0  0  0  0  0  0  0
   45.4530   30.9520   48.6314 H   0  0  0  0  0  0  0  0  0  0  0  0
   44.3893   28.5485   47.8988 H   0  0  0  0  0  0  0  0  0  0  0  0
   44.6915   28.4468   45.2163 H   0  0  0  0  0  0  0  0  0  0  0  0
  1  6  2  0
  2  1  1  0
  3  2  2  0
  3  4  1  0
  4  5  2  0
  5  6  1  0
  5  7  1  0
  8  7  1  0
  8  9  2  0
 10  9  1  0
 11 10  2  0
 12 11  1  0
 12  8  1  0
  1 13  1  0
  2 14  1  0
  3 15  1  0
  9 16  1  0
 10 17  1  0
 11 18  1  0
M  ISO  6  13  14  14  14  15  14  16  14  17  14  18  14
M  END
>  <minimizedAffinity>  (1) 
-3.71426654

>  <minimizedRMSD>  (1) 
0.816181123

$$$$
