
     RDKit          3D

 20 21  0  0  0  0  0  0  0  0999 V2000
   44.5590   35.4040   44.9410 C   0  0  0  0  0  0  0  0  0  0  0  0
   45.0800   35.4870   43.6470 C   0  0  0  0  0  0  0  0  0  0  0  0
   46.1780   34.6530   43.3160 C   0  0  0  0  0  0  0  0  0  0  0  0
   46.6720   33.8030   44.2870 N   0  0  0  0  0  0  0  0  0  0  0  0
   46.1120   33.7820   45.5160 C   0  0  0  0  0  0  0  0  0  0  0  0
   45.0780   34.5620   45.8430 N   0  0  0  0  0  0  0  0  0  0  0  0
   46.7990   32.6580   46.7370 S   0  0  0  0  0  0  0  0  0  0  0  0
   45.8900   31.1050   46.6610 C   0  0  0  0  0  0  0  0  0  0  0  0
   45.4150   30.4580   47.7830 C   0  0  0  0  0  0  0  0  0  0  0  0
   44.7400   29.2860   47.6030 C   0  0  0  0  0  0  0  0  0  0  0  0
   44.5910   28.8490   46.3050 C   0  0  0  0  0  0  0  0  0  0  0  0
   45.0560   29.4760   45.1680 C   0  0  0  0  0  0  0  0  0  0  0  0
   45.7260   30.6440   45.3860 N   0  0  0  0  0  0  0  0  0  0  0  0
   43.7080   36.0413   45.2232 H   0  0  0  0  0  0  0  0  0  0  0  0
   44.6511   36.1788   42.9071 H   0  0  0  0  0  0  0  0  0  0  0  0
   46.6253   34.6820   42.3115 H   0  0  0  0  0  0  0  0  0  0  0  0
   45.5751   30.8731   48.7890 H   0  0  0  0  0  0  0  0  0  0  0  0
   44.3345   28.7176   48.4530 H   0  0  0  0  0  0  0  0  0  0  0  0
   44.0460   27.9044   46.1609 H   0  0  0  0  0  0  0  0  0  0  0  0
   44.8983   29.0647   44.1601 H   0  0  0  0  0  0  0  0  0  0  0  0
  1  6  2  0
  2  1  1  0
  3  2  2  0
  3  4  1  0
  4  5  2  0
  5  6  1  0
  5  7  1  0
  8  7  1  0
  8  9  2  0
 10  9  1  0
 11 10  2  0
 12 13  2  0
 12 11  1  0
 13  8  1  0
  1 14  1  0
  2 15  1  0
  3 16  1  0
  9 17  1  0
 10 18  1  0
 11 19  1  0
 12 20  1  0
M  ISO  7  14  14  15  14  16  14  17  14  18  14  19  14  20  14
M  END
>  <minimizedAffinity>  (1) 
-3.81514311

>  <minimizedRMSD>  (1) 
2.64513898

$$$$
