
     RDKit          3D

 23 23  0  0  0  0  0  0  0  0999 V2000
   44.5440   35.6330   44.5660 C   0  0  0  0  0  0  0  0  0  0  0  0
   45.1880   35.7980   43.3300 C   0  0  0  0  0  0  0  0  0  0  0  0
   46.2850   34.9750   43.0330 C   0  0  0  0  0  0  0  0  0  0  0  0
   46.6690   34.0450   43.9770 N   0  0  0  0  0  0  0  0  0  0  0  0
   46.0190   33.9310   45.1390 C   0  0  0  0  0  0  0  0  0  0  0  0
   44.9710   34.7060   45.4420 N   0  0  0  0  0  0  0  0  0  0  0  0
   46.5550   32.7080   46.3360 S   0  0  0  0  0  0  0  0  0  0  0  0
   46.2740   31.1000   45.5140 C   0  0  0  0  0  0  0  0  0  0  0  0
   47.6610   30.6100   45.1190 C   0  0  0  0  0  0  0  0  0  0  0  0
   45.5910   30.2010   46.4990 C   0  0  0  0  0  0  0  0  0  0  0  0
   45.4260   31.2550   44.2690 C   0  0  0  0  0  0  0  0  0  0  0  0
   43.6823   36.2675   44.8206 H   0  0  0  0  0  0  0  0  0  0  0  0
   44.8410   36.5547   42.6110 H   0  0  0  0  0  0  0  0  0  0  0  0
   46.8220   35.0684   42.0775 H   0  0  0  0  0  0  0  0  0  0  0  0
   48.2485   30.4025   46.0255 H   0  0  0  0  0  0  0  0  0  0  0  0
   47.5689   29.6900   44.5231 H   0  0  0  0  0  0  0  0  0  0  0  0
   48.1673   31.3837   44.5231 H   0  0  0  0  0  0  0  0  0  0  0  0
   45.8363   30.5239   47.5215 H   0  0  0  0  0  0  0  0  0  0  0  0
   44.5025   30.2529   46.3493 H   0  0  0  0  0  0  0  0  0  0  0  0
   45.9328   29.1662   46.3493 H   0  0  0  0  0  0  0  0  0  0  0  0
   44.3819   31.4458   44.5579 H   0  0  0  0  0  0  0  0  0  0  0  0
   45.8015   32.0994   43.6724 H   0  0  0  0  0  0  0  0  0  0  0  0
   45.4786   30.3324   43.6724 H   0  0  0  0  0  0  0  0  0  0  0  0
  1  6  2  0
  2  1  1  0
  3  2  2  0
  3  4  1  0
  4  5  2  0
  5  6  1  0
  5  7  1  0
  8  7  1  0
  8 10  1  0
  9  8  1  0
 11  8  1  0
  1 12  1  0
  2 13  1  0
  3 14  1  0
  9 15  1  0
  9 16  1  0
  9 17  1  0
 10 18  1  0
 10 19  1  0
 10 20  1  0
 11 21  1  0
 11 22  1  0
 11 23  1  0
M  ISO  8  12  14  13  14  14  14  15   8  16   8  17   8  18   8  19   8
M  ISO  4  20   8  21   8  22   8  23   8
M  END
>  <minimizedAffinity>  (1) 
-3.21135187

>  <minimizedRMSD>  (1) 
1.16849351

$$$$
