
     RDKit          3D

 35 39  0  0  0  0  0  0  0  0999 V2000
   44.5700   35.6800   44.6630 C   0  0  0  0  0  0  0  0  0  0  0  0
   45.4720   35.4550   43.6360 C   0  0  0  0  0  0  0  0  0  0  0  0
   46.4150   34.4070   43.7960 C   0  0  0  0  0  0  0  0  0  0  0  0
   46.3710   33.6800   44.9640 N   0  0  0  0  0  0  0  0  0  0  0  0
   45.4700   33.9540   45.9190 C   0  0  0  0  0  0  0  0  0  0  0  0
   44.5730   34.9450   45.7720 N   0  0  0  0  0  0  0  0  0  0  0  0
   47.3540   34.1420   42.7690 N   0  0  0  0  0  0  0  0  0  0  0  0
   47.7180   34.9460   41.7540 C   0  0  0  0  0  0  0  0  0  0  0  0
   48.6500   34.3570   40.9580 N   0  0  0  0  0  0  0  0  0  0  0  0
   48.8920   33.1560   41.4680 C   0  0  0  0  0  0  0  0  0  0  0  0
   49.7030   32.0500   41.1840 C   0  0  0  0  0  0  0  0  0  0  0  0
   49.6960   30.9420   41.9500 N   0  0  0  0  0  0  0  0  0  0  0  0
   48.8830   30.8750   43.0420 C   0  0  0  0  0  0  0  0  0  0  0  0
   48.0740   31.8960   43.3820 N   0  0  0  0  0  0  0  0  0  0  0  0
   48.0880   33.0070   42.6050 C   0  0  0  0  0  0  0  0  0  0  0  0
   50.5450   32.1480   40.0360 N   0  0  0  0  0  0  0  0  0  0  0  0
   45.4670   32.9730   47.4110 S   0  0  0  0  0  0  0  0  0  0  0  0
   48.7220   29.5480   48.5980 N   0  0  0  0  0  0  0  0  0  0  0  0
   48.6790   30.5990   49.4260 C   0  0  0  0  0  0  0  0  0  0  0  0
   47.7490   31.4620   48.9890 N   0  0  0  0  0  0  0  0  0  0  0  0
   47.1740   30.9760   47.8640 C   0  0  0  0  0  0  0  0  0  0  0  0
   46.1830   31.3940   46.9790 C   0  0  0  0  0  0  0  0  0  0  0  0
   45.8610   30.6220   45.9310 N   0  0  0  0  0  0  0  0  0  0  0  0
   46.5290   29.4410   45.7740 C   0  0  0  0  0  0  0  0  0  0  0  0
   47.5020   28.9890   46.6080 N   0  0  0  0  0  0  0  0  0  0  0  0
   47.8120   29.7650   47.6450 C   0  0  0  0  0  0  0  0  0  0  0  0
   43.8312   36.4883   44.5588 H   0  0  0  0  0  0  0  0  0  0  0  0
   45.4576   36.0701   42.7242 H   0  0  0  0  0  0  0  0  0  0  0  0
   47.3121   35.9549   41.5884 H   0  0  0  0  0  0  0  0  0  0  0  0
   48.8880   29.9651   43.6601 H   0  0  0  0  0  0  0  0  0  0  0  0
   51.1618   31.3634   39.7812 H   0  0  0  0  0  0  0  0  0  0  0  0
   50.5359   33.0033   39.4622 H   0  0  0  0  0  0  0  0  0  0  0  0
   49.3396   28.7278   48.6803 H   0  0  0  0  0  0  0  0  0  0  0  0
   49.3051   30.7335   50.3204 H   0  0  0  0  0  0  0  0  0  0  0  0
   46.2606   28.8120   44.9124 H   0  0  0  0  0  0  0  0  0  0  0  0
  1  6  2  0
  2  3  2  0
  2  1  1  0
  3  4  1  0
  4  5  2  0
  5 17  1  0
  6  5  1  0
  7  3  1  0
  8  7  1  0
  9 10  1  0
  9  8  2  0
 10 15  2  0
 11 10  1  0
 11 12  2  0
 12 13  1  0
 13 14  2  0
 15  7  1  0
 15 14  1  0
 16 11  1  0
 18 19  1  0
 20 19  2  0
 21 20  1  0
 22 17  1  0
 22 21  2  0
 23 22  1  0
 24 23  2  0
 24 25  1  0
 25 26  2  0
 26 21  1  0
 26 18  1  0
  1 27  1  0
  2 28  1  0
  8 29  1  0
 13 30  1  0
 16 31  1  0
 16 32  1  0
 18 33  1  0
 19 34  1  0
 24 35  1  0
M  ISO  7  27  14  28  14  29  14  30  14  33   9  34  14  35  14
M  END
>  <minimizedAffinity>  (1) 
-6.13101435

>  <minimizedRMSD>  (1) 
0.680925727

$$$$
