
     RDKit          3D

 33 37  0  0  0  0  0  0  0  0999 V2000
   44.6470   35.7310   44.4880 C   0  0  0  0  0  0  0  0  0  0  0  0
   45.5620   35.4710   43.4700 C   0  0  0  0  0  0  0  0  0  0  0  0
   46.4730   34.4070   43.6650 C   0  0  0  0  0  0  0  0  0  0  0  0
   46.4060   33.6960   44.8410 N   0  0  0  0  0  0  0  0  0  0  0  0
   45.4940   34.0060   45.7840 C   0  0  0  0  0  0  0  0  0  0  0  0
   44.6110   35.0200   45.6170 N   0  0  0  0  0  0  0  0  0  0  0  0
   47.4290   34.0940   42.6590 N   0  0  0  0  0  0  0  0  0  0  0  0
   48.7610   34.0820   42.7940 C   0  0  0  0  0  0  0  0  0  0  0  0
   49.3000   33.7330   41.5970 N   0  0  0  0  0  0  0  0  0  0  0  0
   48.2700   33.5350   40.7380 C   0  0  0  0  0  0  0  0  0  0  0  0
   48.2950   33.1640   39.3900 C   0  0  0  0  0  0  0  0  0  0  0  0
   47.1190   33.0300   38.7420 N   0  0  0  0  0  0  0  0  0  0  0  0
   45.9470   33.2500   39.3840 C   0  0  0  0  0  0  0  0  0  0  0  0
   45.9640   33.6060   40.6820 N   0  0  0  0  0  0  0  0  0  0  0  0
   47.0860   33.7620   41.4030 C   0  0  0  0  0  0  0  0  0  0  0  0
   45.4440   33.0550   47.2910 S   0  0  0  0  0  0  0  0  0  0  0  0
   48.5910   29.5530   48.5710 N   0  0  0  0  0  0  0  0  0  0  0  0
   48.5580   30.6360   49.3800 C   0  0  0  0  0  0  0  0  0  0  0  0
   47.6560   31.5110   48.9120 N   0  0  0  0  0  0  0  0  0  0  0  0
   47.0830   31.0230   47.7940 C   0  0  0  0  0  0  0  0  0  0  0  0
   46.1160   31.4390   46.8810 C   0  0  0  0  0  0  0  0  0  0  0  0
   45.7950   30.6570   45.8560 N   0  0  0  0  0  0  0  0  0  0  0  0
   46.4250   29.4570   45.7210 C   0  0  0  0  0  0  0  0  0  0  0  0
   47.3760   28.9980   46.5770 N   0  0  0  0  0  0  0  0  0  0  0  0
   47.6860   29.7990   47.6050 C   0  0  0  0  0  0  0  0  0  0  0  0
   43.9276   36.5527   44.3564 H   0  0  0  0  0  0  0  0  0  0  0  0
   45.5753   36.0713   42.5484 H   0  0  0  0  0  0  0  0  0  0  0  0
   49.3203   34.3139   43.7124 H   0  0  0  0  0  0  0  0  0  0  0  0
   49.2486   32.9860   38.8713 H   0  0  0  0  0  0  0  0  0  0  0  0
   44.9915   33.1390   38.8505 H   0  0  0  0  0  0  0  0  0  0  0  0
   49.1834   28.7165   48.6724 H   0  0  0  0  0  0  0  0  0  0  0  0
   49.1741   30.7771   50.2803 H   0  0  0  0  0  0  0  0  0  0  0  0
   46.1474   28.8208   44.8677 H   0  0  0  0  0  0  0  0  0  0  0  0
  1  6  2  0
  2  3  2  0
  2  1  1  0
  3  4  1  0
  4  5  2  0
  5 16  1  0
  6  5  1  0
  7  8  1  0
  7  3  1  0
  9  8  2  0
 10 15  2  0
 10  9  1  0
 11 10  1  0
 12 13  1  0
 12 11  2  0
 13 14  2  0
 14 15  1  0
 15  7  1  0
 17 18  1  0
 19 18  2  0
 20 19  1  0
 21 16  1  0
 21 20  2  0
 22 21  1  0
 23 22  2  0
 23 24  1  0
 24 25  2  0
 25 20  1  0
 25 17  1  0
  1 26  1  0
  2 27  1  0
  8 28  1  0
 11 29  1  0
 13 30  1  0
 17 31  1  0
 18 32  1  0
 23 33  1  0
M  ISO  8  26  14  27  14  28  14  29  14  30  14  31   9  32  14  33  14
M  END
>  <minimizedAffinity>  (1) 
-5.85038424

>  <minimizedRMSD>  (1) 
0.549140871

$$$$
