
     RDKit          3D

 37 40  0  0  0  0  0  0  0  0999 V2000
   44.5530   35.7800   44.6590 C   0  0  0  0  0  0  0  0  0  0  0  0
   45.4100   35.5190   43.6040 C   0  0  0  0  0  0  0  0  0  0  0  0
   46.3150   34.4390   43.7310 C   0  0  0  0  0  0  0  0  0  0  0  0
   46.2730   33.7260   44.9040 N   0  0  0  0  0  0  0  0  0  0  0  0
   45.4230   34.0290   45.8850 C   0  0  0  0  0  0  0  0  0  0  0  0
   44.5550   35.0500   45.7850 N   0  0  0  0  0  0  0  0  0  0  0  0
   47.2690   34.0090   42.7700 N   0  0  0  0  0  0  0  0  0  0  0  0
   47.7280   32.6360   42.6870 C   0  0  0  0  0  0  0  0  0  0  0  0
   49.0880   32.5780   42.0030 C   0  0  0  0  0  0  0  0  0  0  0  0
   48.9930   33.0770   40.5750 C   0  0  0  0  0  0  0  0  0  0  0  0
   47.8910   34.1290   40.4680 C   0  0  0  0  0  0  0  0  0  0  0  0
   47.8650   34.8980   41.7930 C   0  0  0  0  0  0  0  0  0  0  0  0
   45.4380   33.0470   47.3790 S   0  0  0  0  0  0  0  0  0  0  0  0
   48.6400   29.5490   48.5420 N   0  0  0  0  0  0  0  0  0  0  0  0
   48.6090   30.6020   49.3830 C   0  0  0  0  0  0  0  0  0  0  0  0
   47.6960   31.4810   48.9520 N   0  0  0  0  0  0  0  0  0  0  0  0
   47.1210   31.0230   47.8350 C   0  0  0  0  0  0  0  0  0  0  0  0
   46.1350   31.4540   46.9360 C   0  0  0  0  0  0  0  0  0  0  0  0
   45.8020   30.7010   45.8810 N   0  0  0  0  0  0  0  0  0  0  0  0
   46.4470   29.5150   45.7110 C   0  0  0  0  0  0  0  0  0  0  0  0
   47.4120   29.0340   46.5420 N   0  0  0  0  0  0  0  0  0  0  0  0
   47.7290   29.8010   47.5890 C   0  0  0  0  0  0  0  0  0  0  0  0
   43.8442   36.6166   44.5713 H   0  0  0  0  0  0  0  0  0  0  0  0
   45.3881   36.1341   42.6923 H   0  0  0  0  0  0  0  0  0  0  0  0
   47.8131   32.2191   43.7014 H   0  0  0  0  0  0  0  0  0  0  0  0
   47.0052   32.0501   42.1003 H   0  0  0  0  0  0  0  0  0  0  0  0
   49.7985   33.2076   42.5587 H   0  0  0  0  0  0  0  0  0  0  0  0
   49.4321   31.5333   41.9897 H   0  0  0  0  0  0  0  0  0  0  0  0
   49.9540   33.5231   40.2791 H   0  0  0  0  0  0  0  0  0  0  0  0
   48.7562   32.2334   39.9100 H   0  0  0  0  0  0  0  0  0  0  0  0
   48.1069   34.8172   39.6375 H   0  0  0  0  0  0  0  0  0  0  0  0
   46.9176   33.6549   40.2737 H   0  0  0  0  0  0  0  0  0  0  0  0
   48.8874   35.1669   42.0970 H   0  0  0  0  0  0  0  0  0  0  0  0
   47.2911   35.8319   41.7010 H   0  0  0  0  0  0  0  0  0  0  0  0
   49.2426   28.7169   48.6159 H   0  0  0  0  0  0  0  0  0  0  0  0
   49.2342   30.7201   50.2803 H   0  0  0  0  0  0  0  0  0  0  0  0
   46.1692   28.9019   44.8410 H   0  0  0  0  0  0  0  0  0  0  0  0
  1  6  2  0
  2  3  2  0
  2  1  1  0
  3  4  1  0
  4  5  2  0
  5 13  1  0
  6  5  1  0
  7  3  1  0
  8  7  1  0
  9  8  1  0
 10  9  1  0
 11 10  1  0
 11 12  1  0
 12  7  1  0
 14 15  1  0
 16 15  2  0
 17 16  1  0
 18 13  1  0
 18 17  2  0
 19 18  1  0
 20 19  2  0
 20 21  1  0
 21 22  2  0
 22 17  1  0
 22 14  1  0
  1 23  1  0
  2 24  1  0
  8 25  1  0
  8 26  1  0
  9 27  1  0
  9 28  1  0
 10 29  1  0
 10 30  1  0
 11 31  1  0
 11 32  1  0
 12 33  1  0
 12 34  1  0
 14 35  1  0
 15 36  1  0
 20 37  1  0
M  ISO  8  23  14  24  14  25  13  26  13  27  13  28  13  29  13  30  13
M  ISO  7  31  13  32  13  33  13  34  13  35   9  36  14  37  14
M  END
>  <minimizedAffinity>  (1) 
-5.47415638

>  <minimizedRMSD>  (1) 
0.726299524

$$$$
