
     RDKit          3D

 31 34  0  0  0  0  0  0  0  0999 V2000
   45.1450   35.1950   44.0660 C   0  0  0  0  0  0  0  0  0  0  0  0
   46.2460   34.8460   43.2830 C   0  0  0  0  0  0  0  0  0  0  0  0
   47.1340   33.8580   43.7690 C   0  0  0  0  0  0  0  0  0  0  0  0
   46.8410   33.3070   44.9930 N   0  0  0  0  0  0  0  0  0  0  0  0
   45.7720   33.6780   45.7000 C   0  0  0  0  0  0  0  0  0  0  0  0
   44.9180   34.6180   45.2500 N   0  0  0  0  0  0  0  0  0  0  0  0
   48.3180   33.3770   43.0970 C   0  0  0  0  0  0  0  0  0  0  0  0
   49.4060   34.1920   42.8720 C   0  0  0  0  0  0  0  0  0  0  0  0
   50.5570   33.7980   42.2420 C   0  0  0  0  0  0  0  0  0  0  0  0
   50.6630   32.4870   41.7860 C   0  0  0  0  0  0  0  0  0  0  0  0
   49.5370   31.7020   42.0370 C   0  0  0  0  0  0  0  0  0  0  0  0
   48.4380   32.1170   42.6500 N   0  0  0  0  0  0  0  0  0  0  0  0
   45.4640   32.9090   47.2860 S   0  0  0  0  0  0  0  0  0  0  0  0
   48.6900   29.5870   48.8300 N   0  0  0  0  0  0  0  0  0  0  0  0
   48.8050   30.8040   49.3920 C   0  0  0  0  0  0  0  0  0  0  0  0
   47.8570   31.6180   48.8760 N   0  0  0  0  0  0  0  0  0  0  0  0
   47.1190   30.9390   47.9780 C   0  0  0  0  0  0  0  0  0  0  0  0
   46.0380   31.2150   47.1430 C   0  0  0  0  0  0  0  0  0  0  0  0
   45.5490   30.2560   46.3550 N   0  0  0  0  0  0  0  0  0  0  0  0
   46.1250   29.0240   46.3880 C   0  0  0  0  0  0  0  0  0  0  0  0
   47.1840   28.6950   47.1850 N   0  0  0  0  0  0  0  0  0  0  0  0
   47.6640   29.6730   47.9710 C   0  0  0  0  0  0  0  0  0  0  0  0
   44.4476   35.9630   43.7002 H   0  0  0  0  0  0  0  0  0  0  0  0
   46.4195   35.3283   42.3097 H   0  0  0  0  0  0  0  0  0  0  0  0
   49.3462   35.2327   43.2231 H   0  0  0  0  0  0  0  0  0  0  0  0
   51.3854   34.5073   42.0986 H   0  0  0  0  0  0  0  0  0  0  0  0
   51.5568   32.1032   41.2724 H   0  0  0  0  0  0  0  0  0  0  0  0
   49.5638   30.6555   41.6991 H   0  0  0  0  0  0  0  0  0  0  0  0
   49.2714   28.7584   49.0207 H   0  0  0  0  0  0  0  0  0  0  0  0
   49.5500   31.0904   50.1490 H   0  0  0  0  0  0  0  0  0  0  0  0
   45.7119   28.2440   45.7316 H   0  0  0  0  0  0  0  0  0  0  0  0
  1  6  2  0
  2  3  2  0
  2  1  1  0
  3  4  1  0
  4  5  2  0
  5 13  1  0
  6  5  1  0
  7  3  1  0
  8  7  2  0
  9  8  1  0
 10 11  1  0
 10  9  2  0
 11 12  2  0
 12  7  1  0
 14 15  1  0
 16 15  2  0
 17 16  1  0
 18 13  1  0
 18 17  2  0
 19 20  2  0
 19 18  1  0
 20 21  1  0
 21 22  2  0
 22 17  1  0
 22 14  1  0
  1 23  1  0
  2 24  1  0
  8 25  1  0
  9 26  1  0
 10 27  1  0
 11 28  1  0
 14 29  1  0
 15 30  1  0
 20 31  1  0
M  ISO  8  23  14  24  14  25  14  26  14  27  14  28  14  29   9  30  14
M  ISO  1  31  14
M  END
>  <minimizedAffinity>  (1) 
-5.64616489

>  <minimizedRMSD>  (1) 
0.554078877

$$$$
