
     RDKit          3D

 32 35  0  0  0  0  0  0  0  0999 V2000
   45.1460   35.1850   44.1070 C   0  0  0  0  0  0  0  0  0  0  0  0
   46.2480   34.8220   43.3190 C   0  0  0  0  0  0  0  0  0  0  0  0
   47.1140   33.8310   43.8320 C   0  0  0  0  0  0  0  0  0  0  0  0
   46.8260   33.2850   45.0590 N   0  0  0  0  0  0  0  0  0  0  0  0
   45.7430   33.6850   45.7640 C   0  0  0  0  0  0  0  0  0  0  0  0
   44.9010   34.6230   45.3070 N   0  0  0  0  0  0  0  0  0  0  0  0
   48.2960   33.3490   43.1350 C   0  0  0  0  0  0  0  0  0  0  0  0
   49.3040   34.2430   42.9040 C   0  0  0  0  0  0  0  0  0  0  0  0
   50.4540   33.8460   42.2470 C   0  0  0  0  0  0  0  0  0  0  0  0
   50.6180   32.5420   41.8060 C   0  0  0  0  0  0  0  0  0  0  0  0
   49.5830   31.6810   42.0600 C   0  0  0  0  0  0  0  0  0  0  0  0
   48.4340   32.0590   42.7110 C   0  0  0  0  0  0  0  0  0  0  0  0
   45.4280   32.9340   47.3510 S   0  0  0  0  0  0  0  0  0  0  0  0
   48.6880   29.6320   48.8440 N   0  0  0  0  0  0  0  0  0  0  0  0
   48.8430   30.8550   49.3760 C   0  0  0  0  0  0  0  0  0  0  0  0
   47.8880   31.6660   48.8870 N   0  0  0  0  0  0  0  0  0  0  0  0
   47.1120   30.9700   48.0360 C   0  0  0  0  0  0  0  0  0  0  0  0
   45.9880   31.2340   47.2290 C   0  0  0  0  0  0  0  0  0  0  0  0
   45.4570   30.2610   46.4810 N   0  0  0  0  0  0  0  0  0  0  0  0
   46.0360   29.0210   46.5270 C   0  0  0  0  0  0  0  0  0  0  0  0
   47.1140   28.7060   47.2800 N   0  0  0  0  0  0  0  0  0  0  0  0
   47.6340   29.6860   48.0220 C   0  0  0  0  0  0  0  0  0  0  0  0
   44.4570   35.9561   43.7320 H   0  0  0  0  0  0  0  0  0  0  0  0
   46.4306   35.2903   42.3406 H   0  0  0  0  0  0  0  0  0  0  0  0
   49.1996   35.2843   43.2428 H   0  0  0  0  0  0  0  0  0  0  0  0
   51.2546   34.5794   42.0707 H   0  0  0  0  0  0  0  0  0  0  0  0
   51.5284   32.2167   41.2813 H   0  0  0  0  0  0  0  0  0  0  0  0
   49.6766   30.6369   41.7266 H   0  0  0  0  0  0  0  0  0  0  0  0
   47.6316   31.3280   42.8892 H   0  0  0  0  0  0  0  0  0  0  0  0
   49.2724   28.8053   49.0337 H   0  0  0  0  0  0  0  0  0  0  0  0
   49.6235   31.1461   50.0944 H   0  0  0  0  0  0  0  0  0  0  0  0
   45.5936   28.2261   45.9086 H   0  0  0  0  0  0  0  0  0  0  0  0
  1  6  2  0
  2  3  2  0
  2  1  1  0
  3  4  1  0
  4  5  2  0
  5 13  1  0
  6  5  1  0
  7  3  1  0
  8  7  2  0
  9  8  1  0
 10 11  1  0
 10  9  2  0
 11 12  2  0
 12  7  1  0
 14 15  1  0
 16 15  2  0
 17 16  1  0
 18 13  1  0
 18 17  2  0
 19 20  2  0
 19 18  1  0
 20 21  1  0
 21 22  2  0
 22 17  1  0
 22 14  1  0
  1 23  1  0
  2 24  1  0
  8 25  1  0
  9 26  1  0
 10 27  1  0
 11 28  1  0
 12 29  1  0
 14 30  1  0
 15 31  1  0
 20 32  1  0
M  ISO  8  23  14  24  14  25  14  26  14  27  14  28  14  29  14  30   9
M  ISO  2  31  14  32  14
M  END
>  <minimizedAffinity>  (1) 
-5.74905014

>  <minimizedRMSD>  (1) 
0.561537027

$$$$
