
     RDKit          3D

 36 39  0  0  0  0  0  0  0  0999 V2000
   44.7670   35.5550   44.2020 C   0  0  0  0  0  0  0  0  0  0  0  0
   45.7560   35.3160   43.2660 C   0  0  0  0  0  0  0  0  0  0  0  0
   46.7270   34.3280   43.5610 C   0  0  0  0  0  0  0  0  0  0  0  0
   46.6180   33.6710   44.7670 N   0  0  0  0  0  0  0  0  0  0  0  0
   45.6310   33.9510   45.6310 C   0  0  0  0  0  0  0  0  0  0  0  0
   44.6970   34.8930   45.3620 N   0  0  0  0  0  0  0  0  0  0  0  0
   47.8190   33.9090   42.7780 N   0  0  0  0  0  0  0  0  0  0  0  0
   48.5270   32.6420   42.9090 C   0  0  0  0  0  0  0  0  0  0  0  0
   49.9190   32.8240   42.3470 C   0  0  0  0  0  0  0  0  0  0  0  0
   50.5230   34.0810   42.6650 N   0  0  0  0  0  0  0  0  0  0  0  0
   49.7270   35.2170   42.2970 C   0  0  0  0  0  0  0  0  0  0  0  0
   48.4130   34.6890   41.7070 C   0  0  0  0  0  0  0  0  0  0  0  0
   45.5400   33.0650   47.1790 S   0  0  0  0  0  0  0  0  0  0  0  0
   48.5950   29.5460   48.6290 N   0  0  0  0  0  0  0  0  0  0  0  0
   48.5850   30.6520   49.3840 C   0  0  0  0  0  0  0  0  0  0  0  0
   47.7080   31.5330   48.8780 N   0  0  0  0  0  0  0  0  0  0  0  0
   47.1300   31.0110   47.7790 C   0  0  0  0  0  0  0  0  0  0  0  0
   46.1720   31.4210   46.8440 C   0  0  0  0  0  0  0  0  0  0  0  0
   45.8280   30.6020   45.8390 N   0  0  0  0  0  0  0  0  0  0  0  0
   46.4350   29.3900   45.7700 C   0  0  0  0  0  0  0  0  0  0  0  0
   47.3740   28.9300   46.6480 N   0  0  0  0  0  0  0  0  0  0  0  0
   47.7030   29.7590   47.6410 C   0  0  0  0  0  0  0  0  0  0  0  0
   44.0074   36.3201   43.9840 H   0  0  0  0  0  0  0  0  0  0  0  0
   45.7878   35.8766   42.3201 H   0  0  0  0  0  0  0  0  0  0  0  0
   48.5871   32.3559   43.9694 H   0  0  0  0  0  0  0  0  0  0  0  0
   47.9952   31.8490   42.3629 H   0  0  0  0  0  0  0  0  0  0  0  0
   49.8625   32.7363   41.2520 H   0  0  0  0  0  0  0  0  0  0  0  0
   50.5480   32.0473   42.8065 H   0  0  0  0  0  0  0  0  0  0  0  0
   50.6863   34.1147   43.6814 H   0  0  0  0  0  0  0  0  0  0  0  0
   49.5193   35.8331   43.1843 H   0  0  0  0  0  0  0  0  0  0  0  0
   50.2582   35.8402   41.5625 H   0  0  0  0  0  0  0  0  0  0  0  0
   47.7534   35.5215   41.4208 H   0  0  0  0  0  0  0  0  0  0  0  0
   48.5738   34.0934   40.7963 H   0  0  0  0  0  0  0  0  0  0  0  0
   49.1685   28.7028   48.7740 H   0  0  0  0  0  0  0  0  0  0  0  0
   49.2009   30.8136   50.2810 H   0  0  0  0  0  0  0  0  0  0  0  0
   46.1478   28.7260   44.9414 H   0  0  0  0  0  0  0  0  0  0  0  0
  1  6  2  0
  2  3  2  0
  2  1  1  0
  3  4  1  0
  4  5  2  0
  5 13  1  0
  6  5  1  0
  7  8  1  0
  7  3  1  0
  9 10  1  0
  9  8  1  0
 11 10  1  0
 12 11  1  0
 12  7  1  0
 14 15  1  0
 16 15  2  0
 17 16  1  0
 18 13  1  0
 18 17  2  0
 19 18  1  0
 20 19  2  0
 20 21  1  0
 21 22  2  0
 22 17  1  0
 22 14  1  0
  1 23  1  0
  2 24  1  0
  8 25  1  0
  8 26  1  0
  9 27  1  0
  9 28  1  0
 10 29  1  0
 11 30  1  0
 11 31  1  0
 12 32  1  0
 12 33  1  0
 14 34  1  0
 15 35  1  0
 20 36  1  0
M  ISO  8  23  14  24  14  25  13  26  13  27  13  28  13  29   5  30  13
M  ISO  6  31  13  32  13  33  13  34   9  35  14  36  14
M  END
>  <minimizedAffinity>  (1) 
-5.8424387

>  <minimizedRMSD>  (1) 
0.545060456

$$$$
