
     RDKit          3D

 29 32  0  0  0  0  0  0  0  0999 V2000
   45.4360   32.9620   47.5190 S   0  0  0  0  0  0  0  0  0  0  0  0
   48.6720   29.5010   48.6660 N   0  0  0  0  0  0  0  0  0  0  0  0
   48.7330   30.6240   49.4260 C   0  0  0  0  0  0  0  0  0  0  0  0
   47.7960   31.4700   48.9980 N   0  0  0  0  0  0  0  0  0  0  0  0
   47.1090   30.9450   47.9710 C   0  0  0  0  0  0  0  0  0  0  0  0
   46.0620   31.3300   47.1450 C   0  0  0  0  0  0  0  0  0  0  0  0
   45.6280   30.4980   46.1850 N   0  0  0  0  0  0  0  0  0  0  0  0
   46.2400   29.2830   46.0540 C   0  0  0  0  0  0  0  0  0  0  0  0
   47.2730   28.8480   46.8360 N   0  0  0  0  0  0  0  0  0  0  0  0
   47.6850   29.6990   47.7840 C   0  0  0  0  0  0  0  0  0  0  0  0
   44.6550   35.5740   44.6430 C   0  0  0  0  0  0  0  0  0  0  0  0
   45.5750   35.2890   43.6410 C   0  0  0  0  0  0  0  0  0  0  0  0
   46.4900   34.2320   43.8600 C   0  0  0  0  0  0  0  0  0  0  0  0
   46.4140   33.5430   45.0620 N   0  0  0  0  0  0  0  0  0  0  0  0
   45.4990   33.8790   45.9760 C   0  0  0  0  0  0  0  0  0  0  0  0
   44.6160   34.8820   45.7930 N   0  0  0  0  0  0  0  0  0  0  0  0
   47.4410   33.9030   42.8770 N   0  0  0  0  0  0  0  0  0  0  0  0
   48.3810   32.9380   42.7100 C   0  0  0  0  0  0  0  0  0  0  0  0
   49.0000   33.1750   41.5020 C   0  0  0  0  0  0  0  0  0  0  0  0
   48.4370   34.2660   40.9570 N   0  0  0  0  0  0  0  0  0  0  0  0
   47.4790   34.7250   41.7880 C   0  0  0  0  0  0  0  0  0  0  0  0
   49.2663   28.6640   48.7510 H   0  0  0  0  0  0  0  0  0  0  0  0
   49.4352   30.8049   50.2532 H   0  0  0  0  0  0  0  0  0  0  0  0
   45.8760   28.6087   45.2647 H   0  0  0  0  0  0  0  0  0  0  0  0
   43.9361   36.3923   44.4891 H   0  0  0  0  0  0  0  0  0  0  0  0
   45.5914   35.8678   42.7057 H   0  0  0  0  0  0  0  0  0  0  0  0
   48.6066   32.1192   43.4090 H   0  0  0  0  0  0  0  0  0  0  0  0
   49.8114   32.5768   41.0619 H   0  0  0  0  0  0  0  0  0  0  0  0
   46.8416   35.6053   41.6183 H   0  0  0  0  0  0  0  0  0  0  0  0
  2  3  1  0
  4  3  2  0
  5  4  1  0
  6  1  1  0
  6  5  2  0
  7  6  1  0
  8  7  2  0
  8  9  1  0
  9 10  2  0
 10  5  1  0
 10  2  1  0
 11 16  2  0
 12 13  2  0
 12 11  1  0
 13 14  1  0
 14 15  2  0
 15  1  1  0
 16 15  1  0
 17 13  1  0
 18 17  1  0
 19 18  2  0
 20 19  1  0
 20 21  2  0
 21 17  1  0
  2 22  1  0
  3 23  1  0
  8 24  1  0
 11 25  1  0
 12 26  1  0
 18 27  1  0
 19 28  1  0
 21 29  1  0
M  ISO  8  22   9  23  14  24  14  25  14  26  14  27  14  28  14  29  14
M  END
>  <minimizedAffinity>  (1) 
-5.24436808

>  <minimizedRMSD>  (1) 
0.361501247

$$$$
