
     RDKit          3D

 29 32  0  0  0  0  0  0  0  0999 V2000
   44.8810   35.2990   44.3660 C   0  0  0  0  0  0  0  0  0  0  0  0
   45.9500   35.0340   43.5000 C   0  0  0  0  0  0  0  0  0  0  0  0
   46.8800   34.0520   43.9110 C   0  0  0  0  0  0  0  0  0  0  0  0
   46.6620   33.4340   45.1340 N   0  0  0  0  0  0  0  0  0  0  0  0
   45.6170   33.7430   45.9020 C   0  0  0  0  0  0  0  0  0  0  0  0
   44.7170   34.6680   45.5410 N   0  0  0  0  0  0  0  0  0  0  0  0
   48.0180   33.7170   43.0730 C   0  0  0  0  0  0  0  0  0  0  0  0
   47.9870   32.7130   42.1280 C   0  0  0  0  0  0  0  0  0  0  0  0
   49.2180   32.7130   41.5680 N   0  0  0  0  0  0  0  0  0  0  0  0
   49.9250   33.6770   42.1660 C   0  0  0  0  0  0  0  0  0  0  0  0
   49.2110   34.3350   43.1200 N   0  0  0  0  0  0  0  0  0  0  0  0
   45.4380   32.8830   47.4530 S   0  0  0  0  0  0  0  0  0  0  0  0
   48.6870   29.4930   48.7600 N   0  0  0  0  0  0  0  0  0  0  0  0
   48.7950   30.6720   49.4010 C   0  0  0  0  0  0  0  0  0  0  0  0
   47.8490   31.5060   48.9510 N   0  0  0  0  0  0  0  0  0  0  0  0
   47.1080   30.8860   48.0080 C   0  0  0  0  0  0  0  0  0  0  0  0
   46.0240   31.2070   47.1970 C   0  0  0  0  0  0  0  0  0  0  0  0
   45.5300   30.3040   46.3430 N   0  0  0  0  0  0  0  0  0  0  0  0
   46.1090   29.0800   46.2870 C   0  0  0  0  0  0  0  0  0  0  0  0
   47.1760   28.7010   47.0560 N   0  0  0  0  0  0  0  0  0  0  0  0
   47.6540   29.6260   47.9070 C   0  0  0  0  0  0  0  0  0  0  0  0
   44.1421   36.0584   44.0705 H   0  0  0  0  0  0  0  0  0  0  0  0
   46.0606   35.5660   42.5436 H   0  0  0  0  0  0  0  0  0  0  0  0
   47.1418   32.0533   41.8823 H   0  0  0  0  0  0  0  0  0  0  0  0
   50.9696   33.9128   41.9146 H   0  0  0  0  0  0  0  0  0  0  0  0
   49.5100   35.1121   43.7263 H   0  0  0  0  0  0  0  0  0  0  0  0
   49.2754   28.6584   48.8949 H   0  0  0  0  0  0  0  0  0  0  0  0
   49.5419   30.9121   50.1721 H   0  0  0  0  0  0  0  0  0  0  0  0
   45.6959   28.3457   45.5798 H   0  0  0  0  0  0  0  0  0  0  0  0
  1  6  2  0
  2  3  2  0
  2  1  1  0
  3  4  1  0
  4  5  2  0
  5 12  1  0
  6  5  1  0
  7 11  1  0
  7  3  1  0
  8  7  2  0
  9  8  1  0
  9 10  2  0
 10 11  1  0
 13 14  1  0
 15 14  2  0
 16 15  1  0
 17 12  1  0
 17 16  2  0
 18 17  1  0
 19 18  2  0
 19 20  1  0
 20 21  2  0
 21 16  1  0
 21 13  1  0
  1 22  1  0
  2 23  1  0
  8 24  1  0
 10 25  1  0
 11 26  1  0
 13 27  1  0
 14 28  1  0
 19 29  1  0
M  ISO  8  22  14  23  14  24  14  25  14  26   9  27   9  28  14  29  14
M  END
>  <minimizedAffinity>  (1) 
-5.35926676

>  <minimizedRMSD>  (1) 
0.417248696

$$$$
