
     RDKit          3D

 24 26  0  0  0  0  0  0  0  0999 V2000
   45.4140   32.9240   47.5180 S   0  0  0  0  0  0  0  0  0  0  0  0
   48.6690   29.4960   48.7540 N   0  0  0  0  0  0  0  0  0  0  0  0
   48.7940   30.6850   49.3940 C   0  0  0  0  0  0  0  0  0  0  0  0
   47.8500   31.5260   48.9660 N   0  0  0  0  0  0  0  0  0  0  0  0
   47.0850   30.9120   48.0400 C   0  0  0  0  0  0  0  0  0  0  0  0
   45.9820   31.2410   47.2480 C   0  0  0  0  0  0  0  0  0  0  0  0
   45.4690   30.3320   46.4040 N   0  0  0  0  0  0  0  0  0  0  0  0
   46.0500   29.1030   46.3500 C   0  0  0  0  0  0  0  0  0  0  0  0
   47.1210   28.7240   47.0910 N   0  0  0  0  0  0  0  0  0  0  0  0
   47.6260   29.6400   47.9310 C   0  0  0  0  0  0  0  0  0  0  0  0
   44.8820   35.4230   44.4900 C   0  0  0  0  0  0  0  0  0  0  0  0
   45.8220   35.0340   43.5330 C   0  0  0  0  0  0  0  0  0  0  0  0
   46.6600   33.9390   43.8530 C   0  0  0  0  0  0  0  0  0  0  0  0
   46.5030   33.3280   45.0710 N   0  0  0  0  0  0  0  0  0  0  0  0
   45.5690   33.7620   45.9470 C   0  0  0  0  0  0  0  0  0  0  0  0
   44.7560   34.7970   45.6790 N   0  0  0  0  0  0  0  0  0  0  0  0
   47.6290   33.4950   42.9360 N   0  0  0  0  0  0  0  0  0  0  0  0
   49.2550   28.6578   48.8765 H   0  0  0  0  0  0  0  0  0  0  0  0
   49.5570   30.9205   50.1505 H   0  0  0  0  0  0  0  0  0  0  0  0
   45.6210   28.3647   45.6566 H   0  0  0  0  0  0  0  0  0  0  0  0
   44.2192   36.2718   44.2661 H   0  0  0  0  0  0  0  0  0  0  0  0
   45.9077   35.5575   42.5694 H   0  0  0  0  0  0  0  0  0  0  0  0
   48.2362   32.6977   43.1740 H   0  0  0  0  0  0  0  0  0  0  0  0
   47.7317   33.9670   42.0263 H   0  0  0  0  0  0  0  0  0  0  0  0
  2  3  1  0
  4  3  2  0
  5  4  1  0
  6  1  1  0
  6  5  2  0
  7  6  1  0
  8  7  2  0
  8  9  1  0
  9 10  2  0
 10  5  1  0
 10  2  1  0
 11 16  2  0
 12 13  2  0
 12 11  1  0
 13 14  1  0
 14 15  2  0
 15  1  1  0
 16 15  1  0
 17 13  1  0
  2 18  1  0
  3 19  1  0
  8 20  1  0
 11 21  1  0
 12 22  1  0
 17 23  1  0
 17 24  1  0
M  ISO  5  18   9  19  14  20  14  21  14  22  14
M  END
>  <minimizedAffinity>  (1) 
-4.59355354

>  <minimizedRMSD>  (1) 
0.0194863658

$$$$
