
     RDKit          3D

 25 27  0  0  0  0  0  0  0  0999 V2000
   45.3820   32.8760   47.5800 S   0  0  0  0  0  0  0  0  0  0  0  0
   48.6850   29.4750   48.7420 N   0  0  0  0  0  0  0  0  0  0  0  0
   48.7980   30.6470   49.4090 C   0  0  0  0  0  0  0  0  0  0  0  0
   47.8390   31.4860   48.9990 N   0  0  0  0  0  0  0  0  0  0  0  0
   47.0900   30.8750   48.0620 C   0  0  0  0  0  0  0  0  0  0  0  0
   45.9780   31.2080   47.2750 C   0  0  0  0  0  0  0  0  0  0  0  0
   45.4790   30.3240   46.4190 N   0  0  0  0  0  0  0  0  0  0  0  0
   46.0650   29.1050   46.3240 C   0  0  0  0  0  0  0  0  0  0  0  0
   47.1440   28.7140   47.0540 N   0  0  0  0  0  0  0  0  0  0  0  0
   47.6370   29.6250   47.9190 C   0  0  0  0  0  0  0  0  0  0  0  0
   44.7970   35.4100   44.5970 C   0  0  0  0  0  0  0  0  0  0  0  0
   45.7990   35.1100   43.6610 C   0  0  0  0  0  0  0  0  0  0  0  0
   46.6940   34.0640   43.9900 C   0  0  0  0  0  0  0  0  0  0  0  0
   46.5420   33.4080   45.1830 N   0  0  0  0  0  0  0  0  0  0  0  0
   45.5500   33.7550   46.0340 C   0  0  0  0  0  0  0  0  0  0  0  0
   44.6700   34.7510   45.7580 N   0  0  0  0  0  0  0  0  0  0  0  0
   47.7340   33.7320   43.0500 C   0  0  0  0  0  0  0  0  0  0  0  0
   47.4020   32.9970   42.0850 O   0  0  0  0  0  0  0  0  0  0  0  0
   49.0130   34.1950   43.2070 O   0  0  0  0  0  0  0  0  0  0  0  0
   49.2804   28.6409   48.8451 H   0  0  0  0  0  0  0  0  0  0  0  0
   49.5593   30.8747   50.1696 H   0  0  0  0  0  0  0  0  0  0  0  0
   45.6398   28.3848   45.6095 H   0  0  0  0  0  0  0  0  0  0  0  0
   44.0870   36.2186   44.3689 H   0  0  0  0  0  0  0  0  0  0  0  0
   45.8849   35.6631   42.7141 H   0  0  0  0  0  0  0  0  0  0  0  0
   49.7112   33.9536   42.5480 H   0  0  0  0  0  0  0  0  0  0  0  0
  2  3  1  0
  4  3  2  0
  5  4  1  0
  6  1  1  0
  6  5  2  0
  7  6  1  0
  8  7  2  0
  8  9  1  0
  9 10  2  0
 10  5  1  0
 10  2  1  0
 11 16  2  0
 12 13  2  0
 12 11  1  0
 13 14  1  0
 14 15  2  0
 15  1  1  0
 16 15  1  0
 17 19  1  0
 17 13  1  0
 18 17  2  0
  2 20  1  0
  3 21  1  0
  8 22  1  0
 11 23  1  0
 12 24  1  0
 19 25  1  0
M  ISO  6  20   9  21  14  22  14  23  14  24  14  25   3
M  END
>  <minimizedAffinity>  (1) 
-4.9391284

>  <minimizedRMSD>  (1) 
0.190440685

$$$$
