
     RDKit          3D

 34 38  0  0  1  0  0  0  0  0999 V2000
   44.6980   35.7520   44.4030 C   0  0  0  0  0  0  0  0  0  0  0  0
   45.5570   35.4160   43.3550 C   0  0  0  0  0  0  0  0  0  0  0  0
   46.4250   34.3070   43.5350 C   0  0  0  0  0  0  0  0  0  0  0  0
   46.3750   33.6290   44.7170 N   0  0  0  0  0  0  0  0  0  0  0  0
   45.5090   34.0170   45.6950 C   0  0  0  0  0  0  0  0  0  0  0  0
   44.6740   35.0710   45.5400 N   0  0  0  0  0  0  0  0  0  0  0  0
   47.3890   33.8860   42.4640 C   0  0  2  0  0  0  0  0  0  0  0  0
   48.6290   34.8390   42.3410 C   0  0  0  0  0  0  0  0  0  0  0  0
   47.5920   34.6880   41.2600 C   0  0  1  0  0  0  0  0  0  0  0  0
   48.1170   33.9620   40.0510 C   0  0  0  0  0  0  0  0  0  0  0  0
   48.1370   34.3490   38.7500 N   0  0  0  0  0  0  0  0  0  0  0  0
   48.6870   33.4050   38.0350 O   0  0  0  0  0  0  0  0  0  0  0  0
   49.0390   32.3890   38.8100 C   0  0  0  0  0  0  0  0  0  0  0  0
   48.6850   32.7300   40.0760 N   0  0  0  0  0  0  0  0  0  0  0  0
   45.4810   33.1090   47.2390 S   0  0  0  0  0  0  0  0  0  0  0  0
   48.5540   29.5800   48.5920 N   0  0  0  0  0  0  0  0  0  0  0  0
   48.5650   30.6670   49.3880 C   0  0  0  0  0  0  0  0  0  0  0  0
   47.6880   31.5490   48.9110 N   0  0  0  0  0  0  0  0  0  0  0  0
   47.0980   31.0600   47.8090 C   0  0  0  0  0  0  0  0  0  0  0  0
   46.1330   31.4840   46.8850 C   0  0  0  0  0  0  0  0  0  0  0  0
   45.7670   30.7090   45.8620 N   0  0  0  0  0  0  0  0  0  0  0  0
   46.3790   29.4830   45.7570 C   0  0  0  0  0  0  0  0  0  0  0  0
   47.3280   29.0040   46.6210 N   0  0  0  0  0  0  0  0  0  0  0  0
   47.6640   29.8150   47.6320 C   0  0  0  0  0  0  0  0  0  0  0  0
   44.0195   36.6092   44.2813 H   0  0  0  0  0  0  0  0  0  0  0  0
   45.5612   35.9929   42.4184 H   0  0  0  0  0  0  0  0  0  0  0  0
   47.1751   32.8162   42.6048 H   0  0  0  0  0  0  0  0  0  0  0  0
   48.6855   35.7623   42.9362 H   0  0  0  0  0  0  0  0  0  0  0  0
   49.7218   34.7383   42.4164 H   0  0  0  0  0  0  0  0  0  0  0  0
   46.9286   35.3754   40.7147 H   0  0  0  0  0  0  0  0  0  0  0  0
   49.5225   31.4540   38.4907 H   0  0  0  0  0  0  0  0  0  0  0  0
   49.1251   28.7303   48.7052 H   0  0  0  0  0  0  0  0  0  0  0  0
   49.1924   30.8032   50.2812 H   0  0  0  0  0  0  0  0  0  0  0  0
   46.0847   28.8379   44.9160 H   0  0  0  0  0  0  0  0  0  0  0  0
  1  6  2  0
  2  3  2  0
  2  1  1  0
  3  4  1  0
  4  5  2  0
  5 15  1  0
  6  5  1  0
  7  3  1  0
  8  7  1  0
  9  8  1  0
  9  7  1  0
 10 14  1  0
 10  9  1  0
 11 10  2  0
 12 11  1  0
 12 13  1  0
 13 14  2  0
 16 17  1  0
 18 17  2  0
 19 18  1  0
 20 15  1  0
 20 19  2  0
 21 20  1  0
 22 21  2  0
 22 23  1  0
 23 24  2  0
 24 19  1  0
 24 16  1  0
  1 25  1  0
  2 26  1  0
  7 27  1  6
  8 28  1  0
  8 29  1  0
  9 30  1  6
 13 31  1  0
 16 32  1  0
 17 33  1  0
 22 34  1  0
M  ISO  8  25  14  26  14  27  13  28  13  29  13  30  13  31  14  32   9
M  ISO  2  33  14  34  14
M  END
>  <minimizedAffinity>  (1) 
-5.95878124

>  <minimizedRMSD>  (1) 
0.375781178

$$$$
