
     RDKit          3D

 37 41  0  0  1  0  0  0  0  0999 V2000
   44.7660   35.6810   44.2300 C   0  0  0  0  0  0  0  0  0  0  0  0
   45.6560   35.3550   43.2200 C   0  0  0  0  0  0  0  0  0  0  0  0
   46.5700   34.2700   43.4390 C   0  0  0  0  0  0  0  0  0  0  0  0
   46.5050   33.6230   44.6360 N   0  0  0  0  0  0  0  0  0  0  0  0
   45.5990   34.0060   45.5800 C   0  0  0  0  0  0  0  0  0  0  0  0
   44.7320   35.0260   45.3860 N   0  0  0  0  0  0  0  0  0  0  0  0
   47.5720   33.8660   42.4090 C   0  0  2  0  0  0  0  0  0  0  0  0
   48.6610   34.9660   42.1460 C   0  0  0  0  0  0  0  0  0  0  0  0
   47.6400   34.5590   41.1200 C   0  0  1  0  0  0  0  0  0  0  0  0
   48.1860   33.9220   39.9100 C   0  0  0  0  0  0  0  0  0  0  0  0
   48.7800   32.6770   40.0420 C   0  0  0  0  0  0  0  0  0  0  0  0
   49.2910   32.0880   38.8870 C   0  0  0  0  0  0  0  0  0  0  0  0
   49.2000   32.7220   37.6870 N   0  0  0  0  0  0  0  0  0  0  0  0
   48.6160   33.9300   37.5890 C   0  0  0  0  0  0  0  0  0  0  0  0
   48.1290   34.4950   38.6890 N   0  0  0  0  0  0  0  0  0  0  0  0
   45.5590   33.1330   47.1540 S   0  0  0  0  0  0  0  0  0  0  0  0
   48.5350   29.5590   48.5890 N   0  0  0  0  0  0  0  0  0  0  0  0
   48.5690   30.6650   49.3720 C   0  0  0  0  0  0  0  0  0  0  0  0
   47.7150   31.5600   48.8750 N   0  0  0  0  0  0  0  0  0  0  0  0
   47.1150   31.0550   47.7650 C   0  0  0  0  0  0  0  0  0  0  0  0
   46.1670   31.4840   46.8330 C   0  0  0  0  0  0  0  0  0  0  0  0
   45.7940   30.7060   45.8320 N   0  0  0  0  0  0  0  0  0  0  0  0
   46.3740   29.4560   45.7430 C   0  0  0  0  0  0  0  0  0  0  0  0
   47.3080   28.9710   46.6200 N   0  0  0  0  0  0  0  0  0  0  0  0
   47.6620   29.7850   47.6190 C   0  0  0  0  0  0  0  0  0  0  0  0
   44.0625   36.5113   44.0697 H   0  0  0  0  0  0  0  0  0  0  0  0
   45.6623   35.9142   42.2727 H   0  0  0  0  0  0  0  0  0  0  0  0
   47.5212   32.7993   42.6729 H   0  0  0  0  0  0  0  0  0  0  0  0
   48.5954   35.9463   42.6408 H   0  0  0  0  0  0  0  0  0  0  0  0
   49.7582   35.0274   42.1959 H   0  0  0  0  0  0  0  0  0  0  0  0
   46.8512   35.0581   40.5380 H   0  0  0  0  0  0  0  0  0  0  0  0
   48.8455   32.1743   41.0182 H   0  0  0  0  0  0  0  0  0  0  0  0
   49.7726   31.1008   38.9463 H   0  0  0  0  0  0  0  0  0  0  0  0
   48.5430   34.4402   36.6172 H   0  0  0  0  0  0  0  0  0  0  0  0
   49.0871   28.7000   48.7238 H   0  0  0  0  0  0  0  0  0  0  0  0
   49.1952   30.8010   50.2661 H   0  0  0  0  0  0  0  0  0  0  0  0
   46.0651   28.8055   44.9115 H   0  0  0  0  0  0  0  0  0  0  0  0
  1  6  2  0
  2  3  2  0
  2  1  1  0
  3  4  1  0
  4  5  2  0
  5 16  1  0
  6  5  1  0
  7  3  1  0
  8  7  1  0
  9  8  1  0
  9  7  1  0
 10 11  2  0
 10  9  1  0
 12 11  1  0
 13 12  2  0
 14 13  1  0
 14 15  2  0
 15 10  1  0
 17 18  1  0
 19 18  2  0
 20 19  1  0
 21 16  1  0
 21 20  2  0
 22 21  1  0
 23 22  2  0
 23 24  1  0
 24 25  2  0
 25 20  1  0
 25 17  1  0
  1 26  1  0
  2 27  1  0
  7 28  1  6
  8 29  1  0
  8 30  1  0
  9 31  1  6
 11 32  1  0
 12 33  1  0
 14 34  1  0
 17 35  1  0
 18 36  1  0
 23 37  1  0
M  ISO  8  26  14  27  14  28  13  29  13  30  13  31  13  32  14  33  14
M  ISO  4  34  14  35   9  36  14  37  14
M  END
>  <minimizedAffinity>  (1) 
-6.15906954

>  <minimizedRMSD>  (1) 
0.524934888

$$$$
