
     RDKit          3D

 32 35  0  0  1  0  0  0  0  0999 V2000
   44.5970   35.7690   44.6390 C   0  0  0  0  0  0  0  0  0  0  0  0
   45.4150   35.4780   43.5530 C   0  0  0  0  0  0  0  0  0  0  0  0
   46.2970   34.3540   43.6710 C   0  0  0  0  0  0  0  0  0  0  0  0
   46.2790   33.6440   44.8330 N   0  0  0  0  0  0  0  0  0  0  0  0
   45.4490   33.9950   45.8460 C   0  0  0  0  0  0  0  0  0  0  0  0
   44.6140   35.0480   45.7560 N   0  0  0  0  0  0  0  0  0  0  0  0
   47.2250   33.9730   42.5520 C   0  0  2  0  0  0  0  0  0  0  0  0
   48.6750   34.5280   42.7430 C   0  0  0  0  0  0  0  0  0  0  0  0
   47.7620   34.9730   41.6320 C   0  0  1  0  0  0  0  0  0  0  0  0
   48.1490   34.4400   40.2780 C   0  0  0  0  0  0  0  0  0  0  0  0
   47.9570   33.2740   39.8490 O   0  0  0  0  0  0  0  0  0  0  0  0
   48.7870   35.1590   39.2770 O   0  0  0  0  0  0  0  0  0  0  0  0
   45.4700   33.0360   47.3600 S   0  0  0  0  0  0  0  0  0  0  0  0
   48.6530   29.5330   48.5640 N   0  0  0  0  0  0  0  0  0  0  0  0
   48.6320   30.5950   49.3880 C   0  0  0  0  0  0  0  0  0  0  0  0
   47.7290   31.4730   48.9530 N   0  0  0  0  0  0  0  0  0  0  0  0
   47.1390   31.0040   47.8340 C   0  0  0  0  0  0  0  0  0  0  0  0
   46.1500   31.4340   46.9320 C   0  0  0  0  0  0  0  0  0  0  0  0
   45.8030   30.6900   45.8980 N   0  0  0  0  0  0  0  0  0  0  0  0
   46.4420   29.4850   45.7380 C   0  0  0  0  0  0  0  0  0  0  0  0
   47.4090   29.0060   46.5730 N   0  0  0  0  0  0  0  0  0  0  0  0
   47.7460   29.7860   47.6220 C   0  0  0  0  0  0  0  0  0  0  0  0
   43.9112   36.6264   44.5717 H   0  0  0  0  0  0  0  0  0  0  0  0
   45.3865   36.0873   42.6376 H   0  0  0  0  0  0  0  0  0  0  0  0
   46.7213   33.0111   42.3756 H   0  0  0  0  0  0  0  0  0  0  0  0
   48.9088   35.2041   43.5786 H   0  0  0  0  0  0  0  0  0  0  0  0
   49.6865   34.1026   42.8200 H   0  0  0  0  0  0  0  0  0  0  0  0
   47.3979   35.9523   41.2881 H   0  0  0  0  0  0  0  0  0  0  0  0
   49.0028   34.7227   38.4149 H   0  0  0  0  0  0  0  0  0  0  0  0
   49.2479   28.6961   48.6445 H   0  0  0  0  0  0  0  0  0  0  0  0
   49.2616   30.7196   50.2813 H   0  0  0  0  0  0  0  0  0  0  0  0
   46.1545   28.8631   44.8774 H   0  0  0  0  0  0  0  0  0  0  0  0
  1  6  2  0
  2  3  2  0
  2  1  1  0
  3  4  1  0
  4  5  2  0
  5 13  1  0
  6  5  1  0
  7  8  1  0
  7  3  1  0
  9  7  1  0
  9  8  1  0
 10  9  1  0
 11 10  2  0
 12 10  1  0
 14 15  1  0
 16 15  2  0
 17 16  1  0
 18 13  1  0
 18 17  2  0
 19 18  1  0
 20 19  2  0
 20 21  1  0
 21 22  2  0
 22 17  1  0
 22 14  1  0
  1 23  1  0
  2 24  1  0
  7 25  1  6
  8 26  1  0
  8 27  1  0
  9 28  1  6
 12 29  1  0
 14 30  1  0
 15 31  1  0
 20 32  1  0
M  ISO  8  23  14  24  14  25  13  26  13  27  13  28  13  29   3  30   9
M  ISO  2  31  14  32  14
M  END
>  <minimizedAffinity>  (1) 
-5.93906307

>  <minimizedRMSD>  (1) 
0.216915816

$$$$
