
     RDKit          3D

 32 35  0  0  1  0  0  0  0  0999 V2000
   44.6270   35.7790   44.5180 C   0  0  0  0  0  0  0  0  0  0  0  0
   45.4700   35.4760   43.4550 C   0  0  0  0  0  0  0  0  0  0  0  0
   46.3590   34.3600   43.5950 C   0  0  0  0  0  0  0  0  0  0  0  0
   46.3180   33.6670   44.7680 N   0  0  0  0  0  0  0  0  0  0  0  0
   45.4730   34.0240   45.7540 C   0  0  0  0  0  0  0  0  0  0  0  0
   44.6250   35.0720   45.6420 N   0  0  0  0  0  0  0  0  0  0  0  0
   47.3060   33.9790   42.5010 C   0  0  2  0  0  0  0  0  0  0  0  0
   48.7480   34.5690   42.7010 C   0  0  0  0  0  0  0  0  0  0  0  0
   47.8380   34.9730   41.5710 C   0  0  1  0  0  0  0  0  0  0  0  0
   48.2310   34.6470   40.1680 C   0  0  0  0  0  0  0  0  0  0  0  0
   45.4690   33.0850   47.2880 S   0  0  0  0  0  0  0  0  0  0  0  0
   48.5850   29.5590   48.5590 N   0  0  0  0  0  0  0  0  0  0  0  0
   48.5790   30.6300   49.3770 C   0  0  0  0  0  0  0  0  0  0  0  0
   47.6910   31.5130   48.9200 N   0  0  0  0  0  0  0  0  0  0  0  0
   47.1040   31.0350   47.7980 C   0  0  0  0  0  0  0  0  0  0  0  0
   46.1350   31.4730   46.8930 C   0  0  0  0  0  0  0  0  0  0  0  0
   45.7840   30.7200   45.8630 N   0  0  0  0  0  0  0  0  0  0  0  0
   46.4100   29.4990   45.7240 C   0  0  0  0  0  0  0  0  0  0  0  0
   47.3610   29.0160   46.5710 N   0  0  0  0  0  0  0  0  0  0  0  0
   47.6980   29.7940   47.6040 C   0  0  0  0  0  0  0  0  0  0  0  0
   43.9391   36.6323   44.4250 H   0  0  0  0  0  0  0  0  0  0  0  0
   45.4554   36.0754   42.5328 H   0  0  0  0  0  0  0  0  0  0  0  0
   46.8233   33.0045   42.3358 H   0  0  0  0  0  0  0  0  0  0  0  0
   48.9575   35.2654   43.5263 H   0  0  0  0  0  0  0  0  0  0  0  0
   49.7671   34.1667   42.7985 H   0  0  0  0  0  0  0  0  0  0  0  0
   47.4269   35.9258   41.2060 H   0  0  0  0  0  0  0  0  0  0  0  0
   49.0776   33.9447   40.1781 H   0  0  0  0  0  0  0  0  0  0  0  0
   47.3791   34.1868   39.6461 H   0  0  0  0  0  0  0  0  0  0  0  0
   48.5259   35.5693   39.6461 H   0  0  0  0  0  0  0  0  0  0  0  0
   49.1693   28.7165   48.6579 H   0  0  0  0  0  0  0  0  0  0  0  0
   49.2037   30.7549   50.2737 H   0  0  0  0  0  0  0  0  0  0  0  0
   46.1208   28.8708   44.8686 H   0  0  0  0  0  0  0  0  0  0  0  0
  1  6  2  0
  2  3  2  0
  2  1  1  0
  3  4  1  0
  4  5  2  0
  5 11  1  0
  6  5  1  0
  7  8  1  0
  7  3  1  0
  9  7  1  0
  9  8  1  0
 10  9  1  0
 12 13  1  0
 14 13  2  0
 15 14  1  0
 16 11  1  0
 16 15  2  0
 17 16  1  0
 18 17  2  0
 18 19  1  0
 19 20  2  0
 20 15  1  0
 20 12  1  0
  1 21  1  0
  2 22  1  0
  7 23  1  6
  8 24  1  0
  8 25  1  0
  9 26  1  6
 10 27  1  0
 10 28  1  0
 10 29  1  0
 12 30  1  0
 13 31  1  0
 18 32  1  0
M  ISO  8  21  14  22  14  23  13  24  13  25  13  26  13  27   8  28   8
M  ISO  4  29   8  30   9  31  14  32  14
M  END
>  <minimizedAffinity>  (1) 
-5.72779846

>  <minimizedRMSD>  (1) 
0.110779241

$$$$
