
     RDKit          3D

 38 41  0  0  1  0  0  0  0  0999 V2000
   44.6290   35.7030   44.6230 C   0  0  0  0  0  0  0  0  0  0  0  0
   45.4490   35.3600   43.5530 C   0  0  0  0  0  0  0  0  0  0  0  0
   46.3220   34.2330   43.7080 C   0  0  0  0  0  0  0  0  0  0  0  0
   46.2920   33.5690   44.8970 N   0  0  0  0  0  0  0  0  0  0  0  0
   45.4690   33.9640   45.8870 C   0  0  0  0  0  0  0  0  0  0  0  0
   44.6360   35.0230   45.7640 N   0  0  0  0  0  0  0  0  0  0  0  0
   47.2390   33.8120   42.6040 C   0  0  2  0  0  0  0  0  0  0  0  0
   48.3390   34.8730   42.2680 C   0  0  0  0  0  0  0  0  0  0  0  0
   47.2380   34.5030   41.3140 C   0  0  1  0  0  0  0  0  0  0  0  0
   47.5610   33.7750   40.0260 C   0  0  0  0  0  0  0  0  0  0  0  0
   46.2730   33.2790   39.4150 C   0  0  0  0  0  0  0  0  0  0  0  0
   48.3290   34.6150   39.0630 C   0  0  0  0  0  0  0  0  0  0  0  0
   45.4680   33.0670   47.4450 S   0  0  0  0  0  0  0  0  0  0  0  0
   48.6160   29.5230   48.6340 N   0  0  0  0  0  0  0  0  0  0  0  0
   48.6860   30.6310   49.3910 C   0  0  0  0  0  0  0  0  0  0  0  0
   47.7850   31.5150   48.9680 N   0  0  0  0  0  0  0  0  0  0  0  0
   47.1030   31.0010   47.9210 C   0  0  0  0  0  0  0  0  0  0  0  0
   46.0700   31.4190   47.0690 C   0  0  0  0  0  0  0  0  0  0  0  0
   45.6300   30.6280   46.1080 N   0  0  0  0  0  0  0  0  0  0  0  0
   46.2130   29.3970   45.9760 C   0  0  0  0  0  0  0  0  0  0  0  0
   47.2220   28.9200   46.7680 N   0  0  0  0  0  0  0  0  0  0  0  0
   47.6460   29.7440   47.7310 C   0  0  0  0  0  0  0  0  0  0  0  0
   43.9532   36.5649   44.5210 H   0  0  0  0  0  0  0  0  0  0  0  0
   45.4284   35.9360   42.6161 H   0  0  0  0  0  0  0  0  0  0  0  0
   47.1727   32.7468   42.8704 H   0  0  0  0  0  0  0  0  0  0  0  0
   48.3397   35.8535   42.7665 H   0  0  0  0  0  0  0  0  0  0  0  0
   49.4384   34.8981   42.2425 H   0  0  0  0  0  0  0  0  0  0  0  0
   46.4701   35.0764   40.7740 H   0  0  0  0  0  0  0  0  0  0  0  0
   48.2166   32.9244   40.2640 H   0  0  0  0  0  0  0  0  0  0  0  0
   45.5684   33.0076   40.2149 H   0  0  0  0  0  0  0  0  0  0  0  0
   45.8332   34.0721   38.7924 H   0  0  0  0  0  0  0  0  0  0  0  0
   46.4788   32.3958   38.7924 H   0  0  0  0  0  0  0  0  0  0  0  0
   48.9699   35.3160   39.6179 H   0  0  0  0  0  0  0  0  0  0  0  0
   48.9547   33.9684   38.4303 H   0  0  0  0  0  0  0  0  0  0  0  0
   47.6290   35.1804   38.4303 H   0  0  0  0  0  0  0  0  0  0  0  0
   49.1912   28.6737   48.7274 H   0  0  0  0  0  0  0  0  0  0  0  0
   49.3804   30.7839   50.2303 H   0  0  0  0  0  0  0  0  0  0  0  0
   45.8430   28.7420   45.1734 H   0  0  0  0  0  0  0  0  0  0  0  0
  1  6  2  0
  2  3  2  0
  2  1  1  0
  3  4  1  0
  4  5  2  0
  5 13  1  0
  6  5  1  0
  7  3  1  0
  8  7  1  0
  9  8  1  0
  9  7  1  0
 10  9  1  0
 11 10  1  0
 12 10  1  0
 14 15  1  0
 16 15  2  0
 17 16  1  0
 18 13  1  0
 18 17  2  0
 19 18  1  0
 20 19  2  0
 20 21  1  0
 21 22  2  0
 22 17  1  0
 22 14  1  0
  1 23  1  0
  2 24  1  0
  7 25  1  6
  8 26  1  0
  8 27  1  0
  9 28  1  6
 10 29  1  0
 11 30  1  0
 11 31  1  0
 11 32  1  0
 12 33  1  0
 12 34  1  0
 12 35  1  0
 14 36  1  0
 15 37  1  0
 20 38  1  0
M  ISO  8  23  14  24  14  25  13  26  13  27  13  28  13  29   8  30   8
M  ISO  8  31   8  32   8  33   8  34   8  35   8  36   9  37  14  38  14
M  END
>  <minimizedAffinity>  (1) 
-5.67234373

>  <minimizedRMSD>  (1) 
0.622160137

$$$$
