
     RDKit          3D

 35 38  0  0  1  0  0  0  0  0999 V2000
   44.5900   35.7760   44.6380 C   0  0  0  0  0  0  0  0  0  0  0  0
   45.4090   35.4860   43.5590 C   0  0  0  0  0  0  0  0  0  0  0  0
   46.2980   34.3660   43.6660 C   0  0  0  0  0  0  0  0  0  0  0  0
   46.2800   33.6560   44.8280 N   0  0  0  0  0  0  0  0  0  0  0  0
   45.4500   34.0000   45.8420 C   0  0  0  0  0  0  0  0  0  0  0  0
   44.6060   35.0550   45.7540 N   0  0  0  0  0  0  0  0  0  0  0  0
   47.2280   33.9960   42.5490 C   0  0  2  0  0  0  0  0  0  0  0  0
   48.6940   34.5130   42.7760 C   0  0  0  0  0  0  0  0  0  0  0  0
   47.8140   35.0160   41.6810 C   0  0  1  0  0  0  0  0  0  0  0  0
   48.2200   34.6240   40.2870 C   0  0  0  0  0  0  0  0  0  0  0  0
   47.1690   33.7430   39.6900 C   0  0  0  0  0  0  0  0  0  0  0  0
   45.4730   33.0380   47.3550 S   0  0  0  0  0  0  0  0  0  0  0  0
   48.6440   29.5300   48.5560 N   0  0  0  0  0  0  0  0  0  0  0  0
   48.6230   30.5900   49.3820 C   0  0  0  0  0  0  0  0  0  0  0  0
   47.7270   31.4690   48.9520 N   0  0  0  0  0  0  0  0  0  0  0  0
   47.1400   30.9900   47.8190 C   0  0  0  0  0  0  0  0  0  0  0  0
   46.1530   31.4400   46.9250 C   0  0  0  0  0  0  0  0  0  0  0  0
   45.8030   30.6990   45.8810 N   0  0  0  0  0  0  0  0  0  0  0  0
   46.4460   29.4920   45.7260 C   0  0  0  0  0  0  0  0  0  0  0  0
   47.4080   29.0060   46.5600 N   0  0  0  0  0  0  0  0  0  0  0  0
   47.7470   29.7750   47.6110 C   0  0  0  0  0  0  0  0  0  0  0  0
   43.9030   36.6323   44.5685 H   0  0  0  0  0  0  0  0  0  0  0  0
   45.3782   36.0980   42.6455 H   0  0  0  0  0  0  0  0  0  0  0  0
   46.7008   33.0556   42.3308 H   0  0  0  0  0  0  0  0  0  0  0  0
   48.9331   35.1526   43.6384 H   0  0  0  0  0  0  0  0  0  0  0  0
   49.6944   34.0613   42.8483 H   0  0  0  0  0  0  0  0  0  0  0  0
   47.4614   36.0114   41.3731 H   0  0  0  0  0  0  0  0  0  0  0  0
   48.3341   35.5279   39.6706 H   0  0  0  0  0  0  0  0  0  0  0  0
   49.1761   34.0812   40.3228 H   0  0  0  0  0  0  0  0  0  0  0  0
   46.5941   33.2611   40.4945 H   0  0  0  0  0  0  0  0  0  0  0  0
   46.4930   34.3483   39.0682 H   0  0  0  0  0  0  0  0  0  0  0  0
   47.6469   32.9717   39.0682 H   0  0  0  0  0  0  0  0  0  0  0  0
   49.2389   28.6934   48.6404 H   0  0  0  0  0  0  0  0  0  0  0  0
   49.2517   30.7103   50.2766 H   0  0  0  0  0  0  0  0  0  0  0  0
   46.1616   28.8722   44.8629 H   0  0  0  0  0  0  0  0  0  0  0  0
  1  6  2  0
  2  3  2  0
  2  1  1  0
  3  4  1  0
  4  5  2  0
  5 12  1  0
  6  5  1  0
  7  8  1  0
  7  3  1  0
  9  7  1  0
  9  8  1  0
 10  9  1  0
 11 10  1  0
 13 14  1  0
 15 14  2  0
 16 15  1  0
 17 12  1  0
 17 16  2  0
 18 17  1  0
 19 18  2  0
 19 20  1  0
 20 21  2  0
 21 16  1  0
 21 13  1  0
  1 22  1  0
  2 23  1  0
  7 24  1  6
  8 25  1  0
  8 26  1  0
  9 27  1  6
 10 28  1  0
 10 29  1  0
 11 30  1  0
 11 31  1  0
 11 32  1  0
 13 33  1  0
 14 34  1  0
 19 35  1  0
M  ISO  8  22  14  23  14  24  13  25  13  26  13  27  13  28   8  29   8
M  ISO  6  30   8  31   8  32   8  33   9  34  14  35  14
M  END
>  <minimizedAffinity>  (1) 
-5.6936965

>  <minimizedRMSD>  (1) 
0.245359495

$$$$
