
     RDKit          3D

 29 30  0  0  0  0  0  0  0  0999 V2000
   48.1240   33.1050   42.4510 C   0  0  0  0  0  0  0  0  0  0  0  0
   49.0530   34.2570   42.0880 C   0  0  0  0  0  0  0  0  0  0  0  0
   50.4720   34.0380   42.4830 C   0  0  0  0  0  0  0  0  0  0  0  0
   51.0350   32.7340   41.9690 C   0  0  0  0  0  0  0  0  0  0  0  0
   49.9540   31.7080   41.7210 C   0  0  0  0  0  0  0  0  0  0  0  0
   48.9260   31.8910   42.8150 C   0  0  0  0  0  0  0  0  0  0  0  0
   45.4100   34.8970   44.3550 C   0  0  0  0  0  0  0  0  0  0  0  0
   46.2870   34.6110   43.3070 C   0  0  0  0  0  0  0  0  0  0  0  0
   47.1500   33.5130   43.5070 C   0  0  0  0  0  0  0  0  0  0  0  0
   47.0890   32.8040   44.6730 N   0  0  0  0  0  0  0  0  0  0  0  0
   46.2070   33.1300   45.6680 C   0  0  0  0  0  0  0  0  0  0  0  0
   45.3740   34.1780   45.4940 N   0  0  0  0  0  0  0  0  0  0  0  0
   44.4980   36.0260   44.1940 C   0  0  0  0  0  0  0  0  0  0  0  0
   44.9260   37.2030   44.3040 O   0  0  0  0  0  0  0  0  0  0  0  0
   43.1570   35.8170   43.9200 O   0  0  0  0  0  0  0  0  0  0  0  0
   47.5175   32.8342   41.5742 H   0  0  0  0  0  0  0  0  0  0  0  0
   49.0156   34.4013   40.9981 H   0  0  0  0  0  0  0  0  0  0  0  0
   48.7001   35.1380   42.6442 H   0  0  0  0  0  0  0  0  0  0  0  0
   51.0785   34.8635   42.0821 H   0  0  0  0  0  0  0  0  0  0  0  0
   50.5046   33.9992   43.5818 H   0  0  0  0  0  0  0  0  0  0  0  0
   51.5667   32.9245   41.0251 H   0  0  0  0  0  0  0  0  0  0  0  0
   51.7145   32.3324   42.7352 H   0  0  0  0  0  0  0  0  0  0  0  0
   49.4933   31.8726   40.7358 H   0  0  0  0  0  0  0  0  0  0  0  0
   50.3655   30.6879   41.7297 H   0  0  0  0  0  0  0  0  0  0  0  0
   49.4253   32.0423   43.7834 H   0  0  0  0  0  0  0  0  0  0  0  0
   48.2826   31.0036   42.9071 H   0  0  0  0  0  0  0  0  0  0  0  0
   46.3041   35.2056   42.3817 H   0  0  0  0  0  0  0  0  0  0  0  0
   46.1774   32.5446   46.5988 H   0  0  0  0  0  0  0  0  0  0  0  0
   42.8078   34.8949   43.8310 H   0  0  0  0  0  0  0  0  0  0  0  0
  1  6  1  0
  1  9  1  0
  2  1  1  0
  2  3  1  0
  4  3  1  0
  5  4  1  0
  5  6  1  0
  7 12  2  0
  8  9  2  0
  8  7  1  0
  9 10  1  0
 10 11  2  0
 12 11  1  0
 13 14  2  0
 13  7  1  0
 15 13  1  0
  1 16  1  0
  2 17  1  0
  2 18  1  0
  3 19  1  0
  3 20  1  0
  4 21  1  0
  4 22  1  0
  5 23  1  0
  5 24  1  0
  6 25  1  0
  6 26  1  0
  8 27  1  0
 11 28  1  0
 15 29  1  0
M  ISO  8  16  13  17  13  18  13  19  13  20  13  21  13  22  13  23  13
M  ISO  6  24  13  25  13  26  13  27  14  28  14  29   3
M  END
>  <minimizedAffinity>  (1) 
-5.14812994

>  <minimizedRMSD>  (1) 
1.481354

$$$$
