
     RDKit          3D

 52 55  0  0  1  0  0  0  0  0999 V2000
   43.6340   34.4970   41.0250 C   0  0  0  0  0  0  0  0  0  0  0  0
   44.9220   34.0180   40.8680 C   0  0  0  0  0  0  0  0  0  0  0  0
   45.9150   34.5440   41.7110 C   0  0  0  0  0  0  0  0  0  0  0  0
   45.5540   35.4960   42.6360 N   0  0  0  0  0  0  0  0  0  0  0  0
   44.2580   35.9350   42.7480 C   0  0  0  0  0  0  0  0  0  0  0  0
   43.3220   35.4170   41.9290 N   0  0  0  0  0  0  0  0  0  0  0  0
   47.3390   34.0910   41.6510 C   0  0  0  0  0  0  0  0  0  0  0  0
   48.1680   35.1080   40.8490 C   0  0  0  0  0  0  0  0  0  0  0  0
   49.1800   35.8190   41.6740 C   0  0  0  0  0  0  0  0  0  0  0  0
   50.0710   34.9110   42.4680 C   0  0  0  0  0  0  0  0  0  0  0  0
   49.4160   33.5790   42.7490 C   0  0  0  0  0  0  0  0  0  0  0  0
   47.9450   33.8500   42.9840 C   0  0  0  0  0  0  0  0  0  0  0  0
   42.5490   33.9720   40.1450 C   0  0  1  0  0  0  0  0  0  0  0  0
   42.7580   34.2040   38.6900 C   0  0  0  0  0  0  0  0  0  0  0  0
   42.7160   32.8280   38.0280 C   0  0  0  0  0  0  0  0  0  0  0  0
   43.1050   31.9240   39.1720 C   0  0  0  0  0  0  0  0  0  0  0  0
   42.4420   32.4560   40.3380 C   0  0  2  0  0  0  0  0  0  0  0  0
   41.0970   32.1720   40.6270 N   0  0  0  0  0  0  0  0  0  0  0  0
   40.6780   30.9360   40.2120 C   0  0  0  0  0  0  0  0  0  0  0  0
   39.3650   30.5470   40.4450 C   0  0  0  0  0  0  0  0  0  0  0  0
   38.7860   29.2400   40.0470 C   0  0  0  0  0  0  0  0  0  0  0  0
   38.4720   31.3850   41.0870 C   0  0  0  0  0  0  0  0  0  0  0  0
   37.2690   31.1090   41.3350 O   0  0  0  0  0  0  0  0  0  0  0  0
   38.9110   32.6090   41.4900 N   0  0  0  0  0  0  0  0  0  0  0  0
   40.1850   32.9250   41.2370 C   0  0  0  0  0  0  0  0  0  0  0  0
   40.5690   34.0490   41.6130 O   0  0  0  0  0  0  0  0  0  0  0  0
   45.1596   33.2548   40.1123 H   0  0  0  0  0  0  0  0  0  0  0  0
   43.9883   36.6970   43.4940 H   0  0  0  0  0  0  0  0  0  0  0  0
   47.3447   33.1150   41.1436 H   0  0  0  0  0  0  0  0  0  0  0  0
   48.6886   34.5744   40.0401 H   0  0  0  0  0  0  0  0  0  0  0  0
   47.4707   35.8657   40.4622 H   0  0  0  0  0  0  0  0  0  0  0  0
   49.8104   36.4217   41.0036 H   0  0  0  0  0  0  0  0  0  0  0  0
   48.6241   36.4312   42.3994 H   0  0  0  0  0  0  0  0  0  0  0  0
   50.9978   34.7384   41.9012 H   0  0  0  0  0  0  0  0  0  0  0  0
   50.2790   35.3974   43.4324 H   0  0  0  0  0  0  0  0  0  0  0  0
   49.5434   32.9063   41.8881 H   0  0  0  0  0  0  0  0  0  0  0  0
   49.8710   33.0949   43.6257 H   0  0  0  0  0  0  0  0  0  0  0  0
   47.8200   34.7363   43.6234 H   0  0  0  0  0  0  0  0  0  0  0  0
   47.4620   33.0020   43.4914 H   0  0  0  0  0  0  0  0  0  0  0  0
   41.6427   34.5196   40.4428 H   0  0  0  0  0  0  0  0  0  0  0  0
   41.9598   34.8451   38.2877 H   0  0  0  0  0  0  0  0  0  0  0  0
   43.7150   34.7115   38.4987 H   0  0  0  0  0  0  0  0  0  0  0  0
   41.7077   32.5928   37.6564 H   0  0  0  0  0  0  0  0  0  0  0  0
   43.3678   32.7373   37.1466 H   0  0  0  0  0  0  0  0  0  0  0  0
   42.7699   30.8945   38.9774 H   0  0  0  0  0  0  0  0  0  0  0  0
   44.1961   31.8900   39.3075 H   0  0  0  0  0  0  0  0  0  0  0  0
   42.9415   31.9675   41.1876 H   0  0  0  0  0  0  0  0  0  0  0  0
   41.3750   30.2573   39.6987 H   0  0  0  0  0  0  0  0  0  0  0  0
   38.5303   28.6627   40.9477 H   0  0  0  0  0  0  0  0  0  0  0  0
   37.8781   29.4080   39.4491 H   0  0  0  0  0  0  0  0  0  0  0  0
   39.5204   28.6804   39.4491 H   0  0  0  0  0  0  0  0  0  0  0  0
   38.2838   33.2682   41.9727 H   0  0  0  0  0  0  0  0  0  0  0  0
  1  6  1  0
  2  1  2  0
  2  3  1  0
  3  4  2  0
  4  5  1  0
  6  5  2  0
  7  3  1  0
  7 12  1  0
  8  7  1  0
  8  9  1  0
  9 10  1  0
 10 11  1  0
 11 12  1  0
 13 17  1  0
 13  1  1  0
 14 13  1  0
 15 14  1  0
 15 16  1  0
 16 17  1  0
 17 18  1  0
 18 25  1  0
 19 20  2  0
 19 18  1  0
 20 22  1  0
 21 20  1  0
 22 23  2  0
 22 24  1  0
 25 24  1  0
 25 26  2  0
  2 27  1  0
  5 28  1  0
  7 29  1  0
  8 30  1  0
  8 31  1  0
  9 32  1  0
  9 33  1  0
 10 34  1  0
 10 35  1  0
 11 36  1  0
 11 37  1  0
 12 38  1  0
 12 39  1  0
 13 40  1  1
 14 41  1  0
 14 42  1  0
 15 43  1  0
 15 44  1  0
 16 45  1  0
 16 46  1  0
 17 47  1  1
 19 48  1  0
 21 49  1  0
 21 50  1  0
 21 51  1  0
 24 52  1  0
M  ISO  8  27  14  28  14  29  13  30  13  31  13  32  13  33  13  34  13
M  ISO  8  35  13  36  13  37  13  38  13  39  13  40  13  41  13  42  13
M  ISO  8  43  13  44  13  45  13  46  13  47  13  48  14  49   8  50   8
M  ISO  2  51   8  52   9
M  END
>  <minimizedAffinity>  (1) 
-6.81898785

>  <minimizedRMSD>  (1) 
3.96351528

$$$$
