
     RDKit          3D

 49 52  0  0  1  0  0  0  0  0999 V2000
   43.8520   34.0070   39.8630 C   0  0  0  0  0  0  0  0  0  0  0  0
   45.1830   33.6550   40.0140 C   0  0  0  0  0  0  0  0  0  0  0  0
   45.8690   34.2450   41.0900 C   0  0  0  0  0  0  0  0  0  0  0  0
   45.1980   35.1160   41.9150 N   0  0  0  0  0  0  0  0  0  0  0  0
   43.8750   35.4260   41.7130 C   0  0  0  0  0  0  0  0  0  0  0  0
   43.2240   34.8590   40.6830 N   0  0  0  0  0  0  0  0  0  0  0  0
   47.3020   33.9340   41.3720 C   0  0  0  0  0  0  0  0  0  0  0  0
   48.2050   34.8680   40.5450 C   0  0  0  0  0  0  0  0  0  0  0  0
   48.9870   35.8210   41.3790 C   0  0  0  0  0  0  0  0  0  0  0  0
   49.7810   35.1570   42.4700 C   0  0  0  0  0  0  0  0  0  0  0  0
   49.1600   33.8500   42.9020 C   0  0  0  0  0  0  0  0  0  0  0  0
   47.6710   34.0240   42.8080 C   0  0  0  0  0  0  0  0  0  0  0  0
   43.0550   33.4310   38.7440 C   0  0  1  0  0  0  0  0  0  0  0  0
   43.8180   32.4920   37.8740 C   0  0  0  0  0  0  0  0  0  0  0  0
   43.0550   31.1600   37.8780 C   0  0  0  0  0  0  0  0  0  0  0  0
   42.3400   31.2370   39.1840 C   0  0  0  0  0  0  0  0  0  0  0  0
   41.8780   32.6440   39.3070 C   0  0  2  0  0  0  0  0  0  0  0  0
   40.5930   32.9680   38.6960 C   0  0  0  0  0  0  0  0  0  0  0  0
   40.1500   34.1600   38.1650 C   0  0  0  0  0  0  0  0  0  0  0  0
   38.9060   34.3410   37.6010 C   0  0  0  0  0  0  0  0  0  0  0  0
   38.0180   33.2920   37.5440 C   0  0  0  0  0  0  0  0  0  0  0  0
   38.3720   32.0650   38.0500 C   0  0  0  0  0  0  0  0  0  0  0  0
   39.6330   31.9510   38.6000 C   0  0  0  0  0  0  0  0  0  0  0  0
   45.6772   32.9510   39.3283 H   0  0  0  0  0  0  0  0  0  0  0  0
   43.3567   36.1272   42.3836 H   0  0  0  0  0  0  0  0  0  0  0  0
   47.4519   32.8833   41.0828 H   0  0  0  0  0  0  0  0  0  0  0  0
   48.9087   34.2513   39.9667 H   0  0  0  0  0  0  0  0  0  0  0  0
   47.5481   35.4659   39.8962 H   0  0  0  0  0  0  0  0  0  0  0  0
   49.6836   36.3652   40.7242 H   0  0  0  0  0  0  0  0  0  0  0  0
   48.2633   36.4893   41.8686 H   0  0  0  0  0  0  0  0  0  0  0  0
   50.7989   34.9625   42.1011 H   0  0  0  0  0  0  0  0  0  0  0  0
   49.7965   35.8310   43.3392 H   0  0  0  0  0  0  0  0  0  0  0  0
   49.4888   33.0370   42.2380 H   0  0  0  0  0  0  0  0  0  0  0  0
   49.4626   33.5893   43.9269 H   0  0  0  0  0  0  0  0  0  0  0  0
   47.3813   35.0063   43.2096 H   0  0  0  0  0  0  0  0  0  0  0  0
   47.1522   33.2489   43.3912 H   0  0  0  0  0  0  0  0  0  0  0  0
   42.7437   34.2927   38.1353 H   0  0  0  0  0  0  0  0  0  0  0  0
   44.8331   32.3476   38.2723 H   0  0  0  0  0  0  0  0  0  0  0  0
   43.9108   32.8893   36.8525 H   0  0  0  0  0  0  0  0  0  0  0  0
   42.3500   31.0972   37.0360 H   0  0  0  0  0  0  0  0  0  0  0  0
   43.6962   30.2731   37.7670 H   0  0  0  0  0  0  0  0  0  0  0  0
   41.4815   30.5493   39.1924 H   0  0  0  0  0  0  0  0  0  0  0  0
   42.9923   30.9491   40.0216 H   0  0  0  0  0  0  0  0  0  0  0  0
   41.6351   32.8935   40.3504 H   0  0  0  0  0  0  0  0  0  0  0  0
   40.8330   35.0218   38.1932 H   0  0  0  0  0  0  0  0  0  0  0  0
   38.6230   35.3240   37.1965 H   0  0  0  0  0  0  0  0  0  0  0  0
   37.0249   33.4357   37.0934 H   0  0  0  0  0  0  0  0  0  0  0  0
   37.6805   31.2101   38.0183 H   0  0  0  0  0  0  0  0  0  0  0  0
   39.9118   30.9659   39.0022 H   0  0  0  0  0  0  0  0  0  0  0  0
  1  2  2  0
  1  6  1  0
  2  3  1  0
  3  7  1  0
  3  4  2  0
  5  4  1  0
  6  5  2  0
  7 12  1  0
  8  7  1  0
  8  9  1  0
  9 10  1  0
 10 11  1  0
 12 11  1  0
 13 17  1  0
 13  1  1  0
 14 15  1  0
 14 13  1  0
 15 16  1  0
 16 17  1  0
 18 17  1  0
 19 18  2  0
 20 19  1  0
 21 20  2  0
 21 22  1  0
 22 23  2  0
 23 18  1  0
  2 24  1  0
  5 25  1  0
  7 26  1  0
  8 27  1  0
  8 28  1  0
  9 29  1  0
  9 30  1  0
 10 31  1  0
 10 32  1  0
 11 33  1  0
 11 34  1  0
 12 35  1  0
 12 36  1  0
 13 37  1  6
 14 38  1  0
 14 39  1  0
 15 40  1  0
 15 41  1  0
 16 42  1  0
 16 43  1  0
 17 44  1  1
 19 45  1  0
 20 46  1  0
 21 47  1  0
 22 48  1  0
 23 49  1  0
M  ISO  8  24  14  25  14  26  13  27  13  28  13  29  13  30  13  31  13
M  ISO  8  32  13  33  13  34  13  35  13  36  13  37  13  38  13  39  13
M  ISO  8  40  13  41  13  42  13  43  13  44  13  45  14  46  14  47  14
M  ISO  2  48  14  49  14
M  END
>  <minimizedAffinity>  (1) 
-6.81229258

>  <minimizedRMSD>  (1) 
3.29815507

$$$$
