
     RDKit          3D

 52 55  0  0  1  0  0  0  0  0999 V2000
   43.7040   34.2330   40.0910 C   0  0  0  0  0  0  0  0  0  0  0  0
   45.0260   33.8310   40.1920 C   0  0  0  0  0  0  0  0  0  0  0  0
   45.7610   34.3700   41.2620 C   0  0  0  0  0  0  0  0  0  0  0  0
   45.1610   35.2450   42.1380 N   0  0  0  0  0  0  0  0  0  0  0  0
   43.8450   35.6070   41.9880 C   0  0  0  0  0  0  0  0  0  0  0  0
   43.1420   35.0900   40.9620 N   0  0  0  0  0  0  0  0  0  0  0  0
   47.1960   33.9970   41.4910 C   0  0  0  0  0  0  0  0  0  0  0  0
   48.1060   34.8640   40.6040 C   0  0  0  0  0  0  0  0  0  0  0  0
   48.9680   35.7830   41.3910 C   0  0  0  0  0  0  0  0  0  0  0  0
   49.7800   35.0970   42.4410 C   0  0  0  0  0  0  0  0  0  0  0  0
   49.1180   33.8210   42.9250 C   0  0  0  0  0  0  0  0  0  0  0  0
   47.6230   34.0690   42.9100 C   0  0  0  0  0  0  0  0  0  0  0  0
   42.8530   33.7270   38.9830 C   0  0  1  0  0  0  0  0  0  0  0  0
   43.5780   32.7600   38.0770 C   0  0  0  0  0  0  0  0  0  0  0  0
   42.7190   31.5140   38.0380 C   0  0  0  0  0  0  0  0  0  0  0  0
   42.0640   31.5570   39.4050 C   0  0  0  0  0  0  0  0  0  0  0  0
   41.6500   32.9900   39.5470 C   0  0  2  0  0  0  0  0  0  0  0  0
   40.3940   33.2870   38.7780 C   0  0  0  0  0  0  0  0  0  0  0  0
   39.8950   34.6880   39.0140 C   0  0  0  0  0  0  0  0  0  0  0  0
   38.6000   34.5940   39.7890 C   0  0  0  0  0  0  0  0  0  0  0  0
   38.7570   33.2650   40.4740 C   0  0  0  0  0  0  0  0  0  0  0  0
   39.2970   32.4080   39.3360 C   0  0  0  0  0  0  0  0  0  0  0  0
   45.4756   33.1288   39.4745 H   0  0  0  0  0  0  0  0  0  0  0  0
   43.3732   36.3069   42.6933 H   0  0  0  0  0  0  0  0  0  0  0  0
   47.2910   32.9374   41.2113 H   0  0  0  0  0  0  0  0  0  0  0  0
   47.4744   35.4634   39.9318 H   0  0  0  0  0  0  0  0  0  0  0  0
   48.7674   34.1862   40.0444 H   0  0  0  0  0  0  0  0  0  0  0  0
   49.6549   36.2920   40.6989 H   0  0  0  0  0  0  0  0  0  0  0  0
   48.2983   36.4838   41.9109 H   0  0  0  0  0  0  0  0  0  0  0  0
   50.7664   34.8489   42.0220 H   0  0  0  0  0  0  0  0  0  0  0  0
   49.8734   35.7789   43.2990 H   0  0  0  0  0  0  0  0  0  0  0  0
   49.3699   32.9861   42.2545 H   0  0  0  0  0  0  0  0  0  0  0  0
   49.4636   33.5563   43.9352 H   0  0  0  0  0  0  0  0  0  0  0  0
   47.3990   35.0632   43.3239 H   0  0  0  0  0  0  0  0  0  0  0  0
   47.0913   33.3260   43.5226 H   0  0  0  0  0  0  0  0  0  0  0  0
   42.5587   34.6120   38.3998 H   0  0  0  0  0  0  0  0  0  0  0  0
   43.6834   33.1851   37.0680 H   0  0  0  0  0  0  0  0  0  0  0  0
   44.5924   32.5429   38.4429 H   0  0  0  0  0  0  0  0  0  0  0  0
   41.9718   31.5658   37.2324 H   0  0  0  0  0  0  0  0  0  0  0  0
   43.2790   30.5887   37.8374 H   0  0  0  0  0  0  0  0  0  0  0  0
   41.1907   30.8893   39.4442 H   0  0  0  0  0  0  0  0  0  0  0  0
   42.7319   31.2211   40.2119 H   0  0  0  0  0  0  0  0  0  0  0  0
   41.4049   33.2790   40.5797 H   0  0  0  0  0  0  0  0  0  0  0  0
   40.6206   33.1315   37.7129 H   0  0  0  0  0  0  0  0  0  0  0  0
   40.6372   35.2568   39.5934 H   0  0  0  0  0  0  0  0  0  0  0  0
   39.7326   35.2040   38.0562 H   0  0  0  0  0  0  0  0  0  0  0  0
   38.5071   35.4131   40.5174 H   0  0  0  0  0  0  0  0  0  0  0  0
   37.6972   34.6736   39.1656 H   0  0  0  0  0  0  0  0  0  0  0  0
   39.4711   33.3235   41.3086 H   0  0  0  0  0  0  0  0  0  0  0  0
   37.8330   32.8800   40.9301 H   0  0  0  0  0  0  0  0  0  0  0  0
   38.5212   32.2089   38.5820 H   0  0  0  0  0  0  0  0  0  0  0  0
   39.6425   31.4132   39.6537 H   0  0  0  0  0  0  0  0  0  0  0  0
  1  2  2  0
  1  6  1  0
  2  3  1  0
  3  7  1  0
  3  4  2  0
  5  4  1  0
  6  5  2  0
  7 12  1  0
  8  9  1  0
  8  7  1  0
  9 10  1  0
 10 11  1  0
 12 11  1  0
 13 17  1  0
 13  1  1  0
 14 13  1  0
 15 14  1  0
 15 16  1  0
 16 17  1  0
 18 19  1  0
 18 22  1  0
 18 17  1  0
 19 20  1  0
 20 21  1  0
 22 21  1  0
  2 23  1  0
  5 24  1  0
  7 25  1  0
  8 26  1  0
  8 27  1  0
  9 28  1  0
  9 29  1  0
 10 30  1  0
 10 31  1  0
 11 32  1  0
 11 33  1  0
 12 34  1  0
 12 35  1  0
 13 36  1  6
 14 37  1  0
 14 38  1  0
 15 39  1  0
 15 40  1  0
 16 41  1  0
 16 42  1  0
 17 43  1  1
 18 44  1  0
 19 45  1  0
 19 46  1  0
 20 47  1  0
 20 48  1  0
 21 49  1  0
 21 50  1  0
 22 51  1  0
 22 52  1  0
M  ISO  8  23  14  24  14  25  13  26  13  27  13  28  13  29  13  30  13
M  ISO  8  31  13  32  13  33  13  34  13  35  13  36  13  37  13  38  13
M  ISO  8  39  13  40  13  41  13  42  13  43  13  44  13  45  13  46  13
M  ISO  6  47  13  48  13  49  13  50  13  51  13  52  13
M  END
>  <minimizedAffinity>  (1) 
-6.42568302

>  <minimizedRMSD>  (1) 
2.22971439

$$$$
