
     RDKit          3D

 40 42  0  0  1  0  0  0  0  0999 V2000
   43.8420   35.3090   41.6500 C   0  0  0  0  0  0  0  0  0  0  0  0
   45.0460   34.7490   41.2200 C   0  0  0  0  0  0  0  0  0  0  0  0
   46.0900   34.7080   42.1620 C   0  0  0  0  0  0  0  0  0  0  0  0
   45.8710   35.2120   43.4240 N   0  0  0  0  0  0  0  0  0  0  0  0
   44.6580   35.7510   43.7800 C   0  0  0  0  0  0  0  0  0  0  0  0
   43.6760   35.7810   42.8740 N   0  0  0  0  0  0  0  0  0  0  0  0
   47.4250   34.1200   41.8400 C   0  0  0  0  0  0  0  0  0  0  0  0
   48.3300   35.1980   41.2160 C   0  0  0  0  0  0  0  0  0  0  0  0
   49.4950   35.5370   42.0710 C   0  0  0  0  0  0  0  0  0  0  0  0
   50.3120   34.3500   42.4810 C   0  0  0  0  0  0  0  0  0  0  0  0
   49.4810   33.0880   42.5430 C   0  0  0  0  0  0  0  0  0  0  0  0
   48.0940   33.4720   42.9950 C   0  0  0  0  0  0  0  0  0  0  0  0
   42.7010   35.3790   40.6940 C   0  0  1  0  0  0  0  0  0  0  0  0
   42.7200   34.3460   39.6210 C   0  0  0  0  0  0  0  0  0  0  0  0
   41.3770   33.6090   39.7330 C   0  0  0  0  0  0  0  0  0  0  0  0
   41.0550   33.7700   41.1920 C   0  0  0  0  0  0  0  0  0  0  0  0
   41.3830   35.1940   41.4600 C   0  0  1  0  0  0  0  0  0  0  0  0
   41.4540   35.5370   42.7780 O   0  0  0  0  0  0  0  0  0  0  0  0
   45.1719   34.3603   40.1987 H   0  0  0  0  0  0  0  0  0  0  0  0
   44.4982   36.1505   44.7924 H   0  0  0  0  0  0  0  0  0  0  0  0
   47.2466   33.3116   41.1157 H   0  0  0  0  0  0  0  0  0  0  0  0
   48.7001   34.8289   40.2481 H   0  0  0  0  0  0  0  0  0  0  0  0
   47.7268   36.1107   41.1013 H   0  0  0  0  0  0  0  0  0  0  0  0
   50.1441   36.2286   41.5139 H   0  0  0  0  0  0  0  0  0  0  0  0
   49.0953   35.9839   42.9933 H   0  0  0  0  0  0  0  0  0  0  0  0
   51.1224   34.2067   41.7511 H   0  0  0  0  0  0  0  0  0  0  0  0
   50.7138   34.5435   43.4865 H   0  0  0  0  0  0  0  0  0  0  0  0
   49.4346   32.6210   41.5481 H   0  0  0  0  0  0  0  0  0  0  0  0
   49.9280   32.3672   43.2435 H   0  0  0  0  0  0  0  0  0  0  0  0
   48.1529   34.1739   43.8399 H   0  0  0  0  0  0  0  0  0  0  0  0
   47.5313   32.5879   43.3291 H   0  0  0  0  0  0  0  0  0  0  0  0
   42.7924   36.3642   40.2134 H   0  0  0  0  0  0  0  0  0  0  0  0
   43.5554   33.6473   39.7755 H   0  0  0  0  0  0  0  0  0  0  0  0
   42.8560   34.7951   38.6261 H   0  0  0  0  0  0  0  0  0  0  0  0
   40.6094   34.0780   39.0999 H   0  0  0  0  0  0  0  0  0  0  0  0
   41.4160   32.5614   39.3997 H   0  0  0  0  0  0  0  0  0  0  0  0
   39.9912   33.5677   41.3853 H   0  0  0  0  0  0  0  0  0  0  0  0
   41.6114   33.0721   41.8349 H   0  0  0  0  0  0  0  0  0  0  0  0
   40.5843   35.8733   41.1273 H   0  0  0  0  0  0  0  0  0  0  0  0
   41.2883   34.7367   43.3367 H   0  0  0  0  0  0  0  0  0  0  0  0
  1  6  1  0
  2  1  2  0
  2  3  1  0
  3  4  2  0
  4  5  1  0
  6  5  2  0
  7  3  1  0
  7 12  1  0
  8  7  1  0
  8  9  1  0
  9 10  1  0
 10 11  1  0
 11 12  1  0
 13 17  1  0
 13  1  1  0
 14 15  1  0
 14 13  1  0
 15 16  1  0
 16 17  1  0
 17 18  1  0
  2 19  1  0
  5 20  1  0
  7 21  1  0
  8 22  1  0
  8 23  1  0
  9 24  1  0
  9 25  1  0
 10 26  1  0
 10 27  1  0
 11 28  1  0
 11 29  1  0
 12 30  1  0
 12 31  1  0
 13 32  1  6
 14 33  1  0
 14 34  1  0
 15 35  1  0
 15 36  1  0
 16 37  1  0
 16 38  1  0
 17 39  1  6
 18 40  1  0
M  ISO  8  19  14  20  14  21  13  22  13  23  13  24  13  25  13  26  13
M  ISO  8  27  13  28  13  29  13  30  13  31  13  32  13  33  13  34  13
M  ISO  6  35  13  36  13  37  13  38  13  39  13  40   3
M  END
>  <minimizedAffinity>  (1) 
-6.12191582

>  <minimizedRMSD>  (1) 
0.122035839

$$$$
