
     RDKit          3D

 46 49  0  0  1  0  0  0  0  0999 V2000
   43.8750   34.6810   40.8520 C   0  0  0  0  0  0  0  0  0  0  0  0
   45.1580   34.2010   40.6480 C   0  0  0  0  0  0  0  0  0  0  0  0
   46.1210   34.5510   41.6100 C   0  0  0  0  0  0  0  0  0  0  0  0
   45.7520   35.3320   42.6790 N   0  0  0  0  0  0  0  0  0  0  0  0
   44.4590   35.7740   42.8190 C   0  0  0  0  0  0  0  0  0  0  0  0
   43.5460   35.4370   41.8980 N   0  0  0  0  0  0  0  0  0  0  0  0
   47.5450   34.0840   41.5170 C   0  0  0  0  0  0  0  0  0  0  0  0
   48.4250   35.2190   40.9660 C   0  0  0  0  0  0  0  0  0  0  0  0
   49.4110   35.7300   41.9530 C   0  0  0  0  0  0  0  0  0  0  0  0
   50.2710   34.6490   42.5380 C   0  0  0  0  0  0  0  0  0  0  0  0
   49.5670   33.3160   42.5650 C   0  0  0  0  0  0  0  0  0  0  0  0
   48.0930   33.5740   42.7990 C   0  0  0  0  0  0  0  0  0  0  0  0
   42.8140   34.3540   39.8660 C   0  0  1  0  0  0  0  0  0  0  0  0
   43.3130   33.8200   38.5690 C   0  0  0  0  0  0  0  0  0  0  0  0
   42.6180   32.4730   38.3670 C   0  0  0  0  0  0  0  0  0  0  0  0
   42.3490   32.0530   39.7980 C   0  0  0  0  0  0  0  0  0  0  0  0
   41.8780   33.2890   40.4590 C   0  0  2  0  0  0  0  0  0  0  0  0
   40.4980   33.6330   40.2200 N   0  0  0  0  0  0  0  0  0  0  0  0
   39.4410   32.7960   40.2680 C   0  0  0  0  0  0  0  0  0  0  0  0
   38.3340   33.5800   39.9700 C   0  0  0  0  0  0  0  0  0  0  0  0
   38.7560   34.8200   39.7600 N   0  0  0  0  0  0  0  0  0  0  0  0
   40.0900   34.8940   39.9060 C   0  0  0  0  0  0  0  0  0  0  0  0
   45.4104   33.5777   39.7775 H   0  0  0  0  0  0  0  0  0  0  0  0
   44.1758   36.3987   43.6790 H   0  0  0  0  0  0  0  0  0  0  0  0
   47.5537   33.2269   40.8276 H   0  0  0  0  0  0  0  0  0  0  0  0
   48.9719   34.8424   40.0890 H   0  0  0  0  0  0  0  0  0  0  0  0
   47.7568   36.0546   40.7104 H   0  0  0  0  0  0  0  0  0  0  0  0
   50.0612   36.4621   41.4517 H   0  0  0  0  0  0  0  0  0  0  0  0
   48.8438   36.1820   42.7800 H   0  0  0  0  0  0  0  0  0  0  0  0
   51.1843   34.5555   41.9320 H   0  0  0  0  0  0  0  0  0  0  0  0
   50.5070   34.9283   43.5754 H   0  0  0  0  0  0  0  0  0  0  0  0
   49.7083   32.7990   41.6044 H   0  0  0  0  0  0  0  0  0  0  0  0
   49.9771   32.6816   43.3646 H   0  0  0  0  0  0  0  0  0  0  0  0
   47.9599   34.3228   43.5937 H   0  0  0  0  0  0  0  0  0  0  0  0
   47.5744   32.6573   43.1163 H   0  0  0  0  0  0  0  0  0  0  0  0
   42.3079   35.3089   39.6608 H   0  0  0  0  0  0  0  0  0  0  0  0
   43.0572   34.5078   37.7496 H   0  0  0  0  0  0  0  0  0  0  0  0
   44.4074   33.7096   38.5752 H   0  0  0  0  0  0  0  0  0  0  0  0
   41.6828   32.5848   37.7987 H   0  0  0  0  0  0  0  0  0  0  0  0
   43.2087   31.7461   37.7902 H   0  0  0  0  0  0  0  0  0  0  0  0
   41.5756   31.2718   39.8360 H   0  0  0  0  0  0  0  0  0  0  0  0
   43.2388   31.6284   40.2858 H   0  0  0  0  0  0  0  0  0  0  0  0
   41.9101   33.1842   41.5535 H   0  0  0  0  0  0  0  0  0  0  0  0
   39.4533   31.7198   40.4952 H   0  0  0  0  0  0  0  0  0  0  0  0
   37.2912   33.2338   39.9174 H   0  0  0  0  0  0  0  0  0  0  0  0
   40.7215   35.7878   39.7949 H   0  0  0  0  0  0  0  0  0  0  0  0
  1  6  1  0
  2  1  2  0
  2  3  1  0
  3  4  2  0
  4  5  1  0
  6  5  2  0
  7  3  1  0
  7 12  1  0
  8  7  1  0
  8  9  1  0
  9 10  1  0
 10 11  1  0
 11 12  1  0
 13 17  1  0
 13  1  1  0
 14 13  1  0
 15 14  1  0
 15 16  1  0
 16 17  1  0
 18 19  1  0
 18 17  1  0
 20 19  2  0
 21 22  2  0
 21 20  1  0
 22 18  1  0
  2 23  1  0
  5 24  1  0
  7 25  1  0
  8 26  1  0
  8 27  1  0
  9 28  1  0
  9 29  1  0
 10 30  1  0
 10 31  1  0
 11 32  1  0
 11 33  1  0
 12 34  1  0
 12 35  1  0
 13 36  1  6
 14 37  1  0
 14 38  1  0
 15 39  1  0
 15 40  1  0
 16 41  1  0
 16 42  1  0
 17 43  1  1
 19 44  1  0
 20 45  1  0
 22 46  1  0
M  ISO  8  23  14  24  14  25  13  26  13  27  13  28  13  29  13  30  13
M  ISO  8  31  13  32  13  33  13  34  13  35  13  36  13  37  13  38  13
M  ISO  8  39  13  40  13  41  13  42  13  43  13  44  14  45  14  46  14
M  END
>  <minimizedAffinity>  (1) 
-6.26856136

>  <minimizedRMSD>  (1) 
2.03174424

$$$$
