
     RDKit          3D

 42 44  0  0  1  0  0  0  0  0999 V2000
   43.6720   35.0970   41.3140 C   0  0  0  0  0  0  0  0  0  0  0  0
   44.9260   34.6010   40.9940 C   0  0  0  0  0  0  0  0  0  0  0  0
   45.9060   34.6240   42.0010 C   0  0  0  0  0  0  0  0  0  0  0  0
   45.5660   35.1310   43.2350 N   0  0  0  0  0  0  0  0  0  0  0  0
   44.3020   35.6080   43.4920 C   0  0  0  0  0  0  0  0  0  0  0  0
   43.3790   35.5780   42.5130 N   0  0  0  0  0  0  0  0  0  0  0  0
   47.2890   34.1000   41.7870 C   0  0  0  0  0  0  0  0  0  0  0  0
   48.1070   35.1240   40.9840 C   0  0  0  0  0  0  0  0  0  0  0  0
   49.2230   35.7250   41.7600 C   0  0  0  0  0  0  0  0  0  0  0  0
   50.1240   34.7190   42.4190 C   0  0  0  0  0  0  0  0  0  0  0  0
   49.4180   33.4080   42.6650 C   0  0  0  0  0  0  0  0  0  0  0  0
   47.9910   33.7370   43.0420 C   0  0  0  0  0  0  0  0  0  0  0  0
   42.6000   35.1030   40.2800 C   0  0  1  0  0  0  0  0  0  0  0  0
   42.8950   34.2850   39.0710 C   0  0  0  0  0  0  0  0  0  0  0  0
   41.7280   33.3080   38.9290 C   0  0  0  0  0  0  0  0  0  0  0  0
   41.2790   33.1540   40.3670 C   0  0  0  0  0  0  0  0  0  0  0  0
   41.3090   34.5290   40.9000 C   0  0  2  0  0  0  0  0  0  0  0  0
   40.1560   35.3680   40.4960 C   0  0  0  0  0  0  0  0  0  0  0  0
   40.1240   36.6410   40.5760 O   0  0  0  0  0  0  0  0  0  0  0  0
   39.0290   34.7300   39.9960 O   0  0  0  0  0  0  0  0  0  0  0  0
   45.1455   34.2050   39.9915 H   0  0  0  0  0  0  0  0  0  0  0  0
   44.0487   36.0088   44.4846 H   0  0  0  0  0  0  0  0  0  0  0  0
   47.1918   33.1624   41.2200 H   0  0  0  0  0  0  0  0  0  0  0  0
   47.4337   35.9309   40.6591 H   0  0  0  0  0  0  0  0  0  0  0  0
   48.5537   34.5884   40.1333 H   0  0  0  0  0  0  0  0  0  0  0  0
   49.8298   36.3360   41.0756 H   0  0  0  0  0  0  0  0  0  0  0  0
   48.7657   36.3172   42.5663 H   0  0  0  0  0  0  0  0  0  0  0  0
   50.9922   34.5388   41.7680 H   0  0  0  0  0  0  0  0  0  0  0  0
   50.4360   35.1263   43.3920 H   0  0  0  0  0  0  0  0  0  0  0  0
   49.4354   32.7929   41.7532 H   0  0  0  0  0  0  0  0  0  0  0  0
   49.9140   32.8397   43.4657 H   0  0  0  0  0  0  0  0  0  0  0  0
   47.9705   34.5824   43.7455 H   0  0  0  0  0  0  0  0  0  0  0  0
   47.5050   32.8808   43.5326 H   0  0  0  0  0  0  0  0  0  0  0  0
   42.5082   36.1508   39.9581 H   0  0  0  0  0  0  0  0  0  0  0  0
   42.9651   34.9286   38.1817 H   0  0  0  0  0  0  0  0  0  0  0  0
   43.8545   33.7557   39.1667 H   0  0  0  0  0  0  0  0  0  0  0  0
   40.9277   33.7279   38.3019 H   0  0  0  0  0  0  0  0  0  0  0  0
   41.9970   32.3594   38.4414 H   0  0  0  0  0  0  0  0  0  0  0  0
   40.2620   32.7377   40.4165 H   0  0  0  0  0  0  0  0  0  0  0  0
   41.9181   32.4647   40.9383 H   0  0  0  0  0  0  0  0  0  0  0  0
   41.2682   34.5227   41.9992 H   0  0  0  0  0  0  0  0  0  0  0  0
   39.0127   33.7433   39.9175 H   0  0  0  0  0  0  0  0  0  0  0  0
  1  6  1  0
  2  1  2  0
  2  3  1  0
  3  4  2  0
  4  5  1  0
  6  5  2  0
  7  3  1  0
  7 12  1  0
  8  9  1  0
  8  7  1  0
  9 10  1  0
 10 11  1  0
 11 12  1  0
 13 17  1  0
 13  1  1  0
 14 13  1  0
 15 14  1  0
 15 16  1  0
 16 17  1  0
 18 19  2  0
 18 17  1  0
 20 18  1  0
  2 21  1  0
  5 22  1  0
  7 23  1  0
  8 24  1  0
  8 25  1  0
  9 26  1  0
  9 27  1  0
 10 28  1  0
 10 29  1  0
 11 30  1  0
 11 31  1  0
 12 32  1  0
 12 33  1  0
 13 34  1  6
 14 35  1  0
 14 36  1  0
 15 37  1  0
 15 38  1  0
 16 39  1  0
 16 40  1  0
 17 41  1  1
 20 42  1  0
M  ISO  8  21  14  22  14  23  13  24  13  25  13  26  13  27  13  28  13
M  ISO  8  29  13  30  13  31  13  32  13  33  13  34  13  35  13  36  13
M  ISO  6  37  13  38  13  39  13  40  13  41  13  42   3
M  END
>  <minimizedAffinity>  (1) 
-6.22480917

>  <minimizedRMSD>  (1) 
0.821442783

$$$$
