
     RDKit          3D

 45 47  0  0  1  0  0  0  0  0999 V2000
   43.5950   34.8140   40.7410 C   0  0  0  0  0  0  0  0  0  0  0  0
   44.8830   34.3240   40.6220 C   0  0  0  0  0  0  0  0  0  0  0  0
   45.7450   34.5740   41.7030 C   0  0  0  0  0  0  0  0  0  0  0  0
   45.2830   35.2730   42.7950 N   0  0  0  0  0  0  0  0  0  0  0  0
   43.9900   35.7330   42.8500 C   0  0  0  0  0  0  0  0  0  0  0  0
   43.1780   35.4910   41.8180 N   0  0  0  0  0  0  0  0  0  0  0  0
   47.1610   34.0760   41.7040 C   0  0  0  0  0  0  0  0  0  0  0  0
   48.0200   34.9590   40.7840 C   0  0  0  0  0  0  0  0  0  0  0  0
   49.0530   35.7370   41.5140 C   0  0  0  0  0  0  0  0  0  0  0  0
   49.9230   34.9090   42.4180 C   0  0  0  0  0  0  0  0  0  0  0  0
   49.2260   33.6450   42.8630 C   0  0  0  0  0  0  0  0  0  0  0  0
   47.7620   33.9870   43.0590 C   0  0  0  0  0  0  0  0  0  0  0  0
   42.6060   34.6210   39.6680 C   0  0  1  0  0  0  0  0  0  0  0  0
   43.1560   33.8550   38.4790 C   0  0  0  0  0  0  0  0  0  0  0  0
   42.2180   32.6790   38.2800 C   0  0  0  0  0  0  0  0  0  0  0  0
   41.6630   32.4930   39.6590 C   0  0  0  0  0  0  0  0  0  0  0  0
   41.3880   33.9230   40.0620 C   0  0  1  0  0  0  0  0  0  0  0  0
   40.7740   33.9910   41.3780 C   0  0  0  0  0  0  0  0  0  0  0  0
   39.7930   32.9020   41.6830 C   0  0  0  0  0  0  0  0  0  0  0  0
   45.2138   33.7698   39.7312 H   0  0  0  0  0  0  0  0  0  0  0  0
   43.6302   36.2902   43.7276 H   0  0  0  0  0  0  0  0  0  0  0  0
   47.1366   33.0448   41.3220 H   0  0  0  0  0  0  0  0  0  0  0  0
   47.3583   35.6637   40.2590 H   0  0  0  0  0  0  0  0  0  0  0  0
   48.5472   34.2892   40.0887 H   0  0  0  0  0  0  0  0  0  0  0  0
   49.6981   36.2334   40.7741 H   0  0  0  0  0  0  0  0  0  0  0  0
   48.5162   36.4497   42.1574 H   0  0  0  0  0  0  0  0  0  0  0  0
   50.8418   34.6376   41.8775 H   0  0  0  0  0  0  0  0  0  0  0  0
   50.1527   35.5062   43.3128 H   0  0  0  0  0  0  0  0  0  0  0  0
   49.3315   32.8655   42.0941 H   0  0  0  0  0  0  0  0  0  0  0  0
   49.6666   33.2632   43.7958 H   0  0  0  0  0  0  0  0  0  0  0  0
   47.6640   34.9500   43.5815 H   0  0  0  0  0  0  0  0  0  0  0  0
   47.2549   33.2242   43.6681 H   0  0  0  0  0  0  0  0  0  0  0  0
   42.3632   35.6611   39.4048 H   0  0  0  0  0  0  0  0  0  0  0  0
   43.1667   34.4932   37.5831 H   0  0  0  0  0  0  0  0  0  0  0  0
   44.1909   33.5247   38.6518 H   0  0  0  0  0  0  0  0  0  0  0  0
   41.4238   32.9180   37.5575 H   0  0  0  0  0  0  0  0  0  0  0  0
   42.7079   31.7825   37.8723 H   0  0  0  0  0  0  0  0  0  0  0  0
   40.7405   31.8941   39.6445 H   0  0  0  0  0  0  0  0  0  0  0  0
   42.3316   31.9520   40.3448 H   0  0  0  0  0  0  0  0  0  0  0  0
   40.5865   34.4900   39.5659 H   0  0  0  0  0  0  0  0  0  0  0  0
   41.5757   33.9466   42.1298 H   0  0  0  0  0  0  0  0  0  0  0  0
   40.2021   34.9304   41.3988 H   0  0  0  0  0  0  0  0  0  0  0  0
   39.6942   32.7923   42.7730 H   0  0  0  0  0  0  0  0  0  0  0  0
   38.8147   33.1579   41.2500 H   0  0  0  0  0  0  0  0  0  0  0  0
   40.1493   31.9557   41.2500 H   0  0  0  0  0  0  0  0  0  0  0  0
  1  6  1  0
  2  1  2  0
  2  3  1  0
  3  7  1  0
  3  4  2  0
  4  5  1  0
  6  5  2  0
  7 12  1  0
  8  9  1  0
  8  7  1  0
  9 10  1  0
 10 11  1  0
 11 12  1  0
 13 17  1  0
 13  1  1  0
 14 13  1  0
 15 14  1  0
 15 16  1  0
 16 17  1  0
 17 18  1  0
 18 19  1  0
  2 20  1  0
  5 21  1  0
  7 22  1  0
  8 23  1  0
  8 24  1  0
  9 25  1  0
  9 26  1  0
 10 27  1  0
 10 28  1  0
 11 29  1  0
 11 30  1  0
 12 31  1  0
 12 32  1  0
 13 33  1  6
 14 34  1  0
 14 35  1  0
 15 36  1  0
 15 37  1  0
 16 38  1  0
 16 39  1  0
 17 40  1  6
 18 41  1  0
 18 42  1  0
 19 43  1  0
 19 44  1  0
 19 45  1  0
M  ISO  8  20  14  21  14  22  13  23  13  24  13  25  13  26  13  27  13
M  ISO  8  28  13  29  13  30  13  31  13  32  13  33  13  34  13  35  13
M  ISO  8  36  13  37  13  38  13  39  13  40  13  41   8  42   8  43   8
M  ISO  2  44   8  45   8
M  END
>  <minimizedAffinity>  (1) 
-5.68821144

>  <minimizedRMSD>  (1) 
1.45189881

$$$$
