
     RDKit          3D

 23 23  0  0  0  0  0  0  0  0999 V2000
   44.9740   35.2090   44.6800 C   0  0  0  0  0  0  0  0  0  0  0  0
   45.9160   34.6770   43.8010 C   0  0  0  0  0  0  0  0  0  0  0  0
   46.6420   33.5710   44.2380 C   0  0  0  0  0  0  0  0  0  0  0  0
   46.3880   33.0850   45.4850 N   0  0  0  0  0  0  0  0  0  0  0  0
   45.4660   33.6270   46.3120 C   0  0  0  0  0  0  0  0  0  0  0  0
   44.7600   34.6870   45.9090 N   0  0  0  0  0  0  0  0  0  0  0  0
   46.1700   35.2310   42.4470 C   0  0  0  0  0  0  0  0  0  0  0  0
   47.5900   35.0690   41.9860 C   0  0  0  0  0  0  0  0  0  0  0  0
   45.1730   34.6270   41.4530 C   0  0  0  0  0  0  0  0  0  0  0  0
   45.2030   33.1440   47.5700 O   0  0  0  0  0  0  0  0  0  0  0  0
   46.0120   32.2390   48.2760 C   0  0  0  0  0  0  0  0  0  0  0  0
   47.3360   32.6740   48.3170 F   0  0  0  0  0  0  0  0  0  0  0  0
   45.8940   30.9580   47.7670 F   0  0  0  0  0  0  0  0  0  0  0  0
   45.5890   32.2280   49.6110 F   0  0  0  0  0  0  0  0  0  0  0  0
   44.3851   36.0825   44.3634 H   0  0  0  0  0  0  0  0  0  0  0  0
   47.4002   33.1027   43.5932 H   0  0  0  0  0  0  0  0  0  0  0  0
   46.0162   36.3188   42.5016 H   0  0  0  0  0  0  0  0  0  0  0  0
   48.2530   34.9934   42.8605 H   0  0  0  0  0  0  0  0  0  0  0  0
   47.6768   34.1551   41.3799 H   0  0  0  0  0  0  0  0  0  0  0  0
   47.8804   35.9398   41.3799 H   0  0  0  0  0  0  0  0  0  0  0  0
   44.3588   34.1338   42.0042 H   0  0  0  0  0  0  0  0  0  0  0  0
   44.7568   35.4249   40.8205 H   0  0  0  0  0  0  0  0  0  0  0  0
   45.6875   33.8886   40.8205 H   0  0  0  0  0  0  0  0  0  0  0  0
  1  6  2  0
  2  3  2  0
  2  1  1  0
  3  4  1  0
  4  5  2  0
  5 10  1  0
  6  5  1  0
  7  2  1  0
  8  7  1  0
  9  7  1  0
 10 11  1  0
 11 12  1  0
 11 14  1  0
 13 11  1  0
  1 15  1  0
  3 16  1  0
  7 17  1  0
  8 18  1  0
  8 19  1  0
  8 20  1  0
  9 21  1  0
  9 22  1  0
  9 23  1  0
M  ISO  8  15  14  16  14  17   8  18   8  19   8  20   8  21   8  22   8
M  ISO  1  23   8
M  END
>  <minimizedAffinity>  (1) 
-4.53829336

>  <minimizedRMSD>  (1) 
1.0848285

$$$$
