
     RDKit          3D

 17 17  0  0  0  0  0  0  0  0999 V2000
   45.3550   34.9740   44.2430 C   0  0  0  0  0  0  0  0  0  0  0  0
   46.3880   34.4230   43.4790 C   0  0  0  0  0  0  0  0  0  0  0  0
   47.0950   33.3740   44.0370 C   0  0  0  0  0  0  0  0  0  0  0  0
   46.7560   32.9440   45.2750 N   0  0  0  0  0  0  0  0  0  0  0  0
   45.7570   33.4900   45.9960 C   0  0  0  0  0  0  0  0  0  0  0  0
   45.0620   34.5090   45.4660 N   0  0  0  0  0  0  0  0  0  0  0  0
   46.8070   34.8230   42.1620 C   0  0  0  0  0  0  0  0  0  0  0  0
   46.1790   34.6020   41.0920 O   0  0  0  0  0  0  0  0  0  0  0  0
   47.9460   35.5080   41.8120 O   0  0  0  0  0  0  0  0  0  0  0  0
   45.3920   33.0710   47.2570 O   0  0  0  0  0  0  0  0  0  0  0  0
   46.2170   32.3020   48.1070 C   0  0  0  0  0  0  0  0  0  0  0  0
   47.5200   32.7810   48.1550 F   0  0  0  0  0  0  0  0  0  0  0  0
   46.1650   30.9620   47.7560 F   0  0  0  0  0  0  0  0  0  0  0  0
   45.7200   32.4390   49.4070 F   0  0  0  0  0  0  0  0  0  0  0  0
   44.7688   35.8087   43.8311 H   0  0  0  0  0  0  0  0  0  0  0  0
   47.9183   32.8973   43.4848 H   0  0  0  0  0  0  0  0  0  0  0  0
   48.1210   35.7249   40.8620 H   0  0  0  0  0  0  0  0  0  0  0  0
  1  6  2  0
  2  3  2  0
  2  1  1  0
  3  4  1  0
  4  5  2  0
  5 10  1  0
  6  5  1  0
  7  2  1  0
  8  7  2  0
  9  7  1  0
 10 11  1  0
 11 12  1  0
 11 14  1  0
 13 11  1  0
  1 15  1  0
  3 16  1  0
  9 17  1  0
M  ISO  3  15  14  16  14  17   3
M  END
>  <minimizedAffinity>  (1) 
-4.2950716

>  <minimizedRMSD>  (1) 
1.28012359

$$$$
