
     RDKit          3D

 15 15  0  0  0  0  0  0  0  0999 V2000
   44.6420   35.3650   44.7850 C   0  0  0  0  0  0  0  0  0  0  0  0
   45.2230   34.6230   43.7500 C   0  0  0  0  0  0  0  0  0  0  0  0
   45.7910   33.4180   44.1020 C   0  0  0  0  0  0  0  0  0  0  0  0
   45.7570   33.0270   45.4020 N   0  0  0  0  0  0  0  0  0  0  0  0
   45.1920   33.7580   46.3830 C   0  0  0  0  0  0  0  0  0  0  0  0
   44.6310   34.9390   46.0570 N   0  0  0  0  0  0  0  0  0  0  0  0
   45.1580   35.3230   42.1060 S   0  0  0  0  0  0  0  0  0  0  0  0
   45.1490   33.3780   47.6990 O   0  0  0  0  0  0  0  0  0  0  0  0
   45.7730   32.2420   48.2230 C   0  0  0  0  0  0  0  0  0  0  0  0
   47.1500   32.2460   48.0200 F   0  0  0  0  0  0  0  0  0  0  0  0
   45.1940   31.0970   47.7130 F   0  0  0  0  0  0  0  0  0  0  0  0
   45.5920   32.2420   49.6020 F   0  0  0  0  0  0  0  0  0  0  0  0
   44.1773   36.3331   44.5465 H   0  0  0  0  0  0  0  0  0  0  0  0
   46.2654   32.7816   43.3405 H   0  0  0  0  0  0  0  0  0  0  0  0
   45.0316   36.6843   42.1940 H   0  0  0  0  0  0  0  0  0  0  0  0
  1  6  2  0
  2  3  2  0
  2  1  1  0
  3  4  1  0
  4  5  2  0
  5  8  1  0
  6  5  1  0
  7  2  1  0
  8  9  1  0
  9 12  1  0
 10  9  1  0
 11  9  1  0
  1 13  1  0
  3 14  1  0
  7 15  1  0
M  ISO  3  13  14  14  14  15  11
M  END
>  <minimizedAffinity>  (1) 
-3.5725441

>  <minimizedRMSD>  (1) 
0.950243711

$$$$
