
     RDKit          3D

 17 17  0  0  0  0  0  0  0  0999 V2000
   44.7750   35.4490   44.7930 C   0  0  0  0  0  0  0  0  0  0  0  0
   45.6330   34.9020   43.8330 C   0  0  0  0  0  0  0  0  0  0  0  0
   46.3230   33.7600   44.1690 C   0  0  0  0  0  0  0  0  0  0  0  0
   46.1350   33.2240   45.4140 N   0  0  0  0  0  0  0  0  0  0  0  0
   45.3100   33.7640   46.3160 C   0  0  0  0  0  0  0  0  0  0  0  0
   44.6210   34.8840   46.0140 N   0  0  0  0  0  0  0  0  0  0  0  0
   45.7920   35.5390   42.4900 C   0  0  0  0  0  0  0  0  0  0  0  0
   45.0950   33.2530   47.5800 O   0  0  0  0  0  0  0  0  0  0  0  0
   45.9410   32.3070   48.2040 C   0  0  0  0  0  0  0  0  0  0  0  0
   47.2710   32.6600   48.1480 F   0  0  0  0  0  0  0  0  0  0  0  0
   45.7200   31.0480   47.6640 F   0  0  0  0  0  0  0  0  0  0  0  0
   45.6130   32.2630   49.5540 F   0  0  0  0  0  0  0  0  0  0  0  0
   44.2109   36.3615   44.5498 H   0  0  0  0  0  0  0  0  0  0  0  0
   47.0110   33.2880   43.4522 H   0  0  0  0  0  0  0  0  0  0  0  0
   46.0566   36.5992   42.6161 H   0  0  0  0  0  0  0  0  0  0  0  0
   46.5896   35.0257   41.9328 H   0  0  0  0  0  0  0  0  0  0  0  0
   44.8468   35.4608   41.9328 H   0  0  0  0  0  0  0  0  0  0  0  0
  1  6  2  0
  2  3  2  0
  2  1  1  0
  3  4  1  0
  4  5  2  0
  5  8  1  0
  6  5  1  0
  7  2  1  0
  8  9  1  0
  9 12  1  0
 10  9  1  0
 11  9  1  0
  1 13  1  0
  3 14  1  0
  7 15  1  0
  7 16  1  0
  7 17  1  0
M  ISO  5  13  14  14  14  15   8  16   8  17   8
M  END
>  <minimizedAffinity>  (1) 
-4.00093317

>  <minimizedRMSD>  (1) 
0.816012025

$$$$
