
     RDKit          3D

 27 28  0  0  0  0  0  0  0  0999 V2000
   45.0170   34.9330   44.8040 C   0  0  0  0  0  0  0  0  0  0  0  0
   45.9520   34.6980   43.7890 C   0  0  0  0  0  0  0  0  0  0  0  0
   46.8760   33.7110   44.0010 C   0  0  0  0  0  0  0  0  0  0  0  0
   46.8190   33.0230   45.1930 N   0  0  0  0  0  0  0  0  0  0  0  0
   45.9230   33.2590   46.1480 C   0  0  0  0  0  0  0  0  0  0  0  0
   45.0230   34.2200   45.9430 N   0  0  0  0  0  0  0  0  0  0  0  0
   47.9310   33.3240   43.1110 C   0  0  0  0  0  0  0  0  0  0  0  0
   49.1970   33.8180   42.8970 C   0  0  0  0  0  0  0  0  0  0  0  0
   50.0750   33.2790   41.9850 C   0  0  0  0  0  0  0  0  0  0  0  0
   49.7330   32.1890   41.2140 C   0  0  0  0  0  0  0  0  0  0  0  0
   48.4750   31.6540   41.3880 C   0  0  0  0  0  0  0  0  0  0  0  0
   47.6180   32.2140   42.3080 C   0  0  0  0  0  0  0  0  0  0  0  0
   45.9330   35.4960   42.5560 C   0  0  0  0  0  0  0  0  0  0  0  0
   44.9770   36.5140   42.7270 F   0  0  0  0  0  0  0  0  0  0  0  0
   45.4660   34.7810   41.4840 F   0  0  0  0  0  0  0  0  0  0  0  0
   47.1480   36.0510   42.2770 F   0  0  0  0  0  0  0  0  0  0  0  0
   45.8560   32.5750   47.3460 O   0  0  0  0  0  0  0  0  0  0  0  0
   46.9700   32.0180   47.9850 C   0  0  0  0  0  0  0  0  0  0  0  0
   47.9730   32.9460   48.1620 F   0  0  0  0  0  0  0  0  0  0  0  0
   47.3880   30.8630   47.3570 F   0  0  0  0  0  0  0  0  0  0  0  0
   46.5600   31.6930   49.2890 F   0  0  0  0  0  0  0  0  0  0  0  0
   44.2601   35.7192   44.6660 H   0  0  0  0  0  0  0  0  0  0  0  0
   49.5240   34.6883   43.4850 H   0  0  0  0  0  0  0  0  0  0  0  0
   51.0724   33.7282   41.8686 H   0  0  0  0  0  0  0  0  0  0  0  0
   50.4385   31.7616   40.4862 H   0  0  0  0  0  0  0  0  0  0  0  0
   48.1574   30.7839   40.7947 H   0  0  0  0  0  0  0  0  0  0  0  0
   46.6215   31.7625   42.4224 H   0  0  0  0  0  0  0  0  0  0  0  0
  1  6  2  0
  2  3  2  0
  2  1  1  0
  3  4  1  0
  4  5  2  0
  5 17  1  0
  6  5  1  0
  7  3  1  0
  8  7  2  0
  9  8  1  0
 10 11  1  0
 10  9  2  0
 11 12  2  0
 12  7  1  0
 13 14  1  0
 13  2  1  0
 15 13  1  0
 16 13  1  0
 17 18  1  0
 18 19  1  0
 18 21  1  0
 20 18  1  0
  1 22  1  0
  8 23  1  0
  9 24  1  0
 10 25  1  0
 11 26  1  0
 12 27  1  0
M  ISO  6  22  14  23  14  24  14  25  14  26  14  27  14
M  END
>  <minimizedAffinity>  (1) 
-5.56668186

>  <minimizedRMSD>  (1) 
1.14394879

$$$$
