
     RDKit          3D

 46 49  0  0  0  0  0  0  0  0999 V2000
   47.3150   34.1700   40.1470 C   0  0  0  0  0  0  0  0  0  0  0  0
   46.6470   34.4530   41.3420 C   0  0  0  0  0  0  0  0  0  0  0  0
   47.0620   34.0200   42.6030 C   0  0  0  0  0  0  0  0  0  0  0  0
   48.1740   33.3090   42.4700 N   0  0  0  0  0  0  0  0  0  0  0  0
   48.8580   32.9980   41.4060 C   0  0  0  0  0  0  0  0  0  0  0  0
   48.4260   33.4340   40.2190 N   0  0  0  0  0  0  0  0  0  0  0  0
   46.1800   34.4630   43.6660 C   0  0  0  0  0  0  0  0  0  0  0  0
   45.3990   35.5510   43.5780 N   0  0  0  0  0  0  0  0  0  0  0  0
   44.5900   35.9630   44.5660 C   0  0  0  0  0  0  0  0  0  0  0  0
   44.5190   35.2830   45.7350 N   0  0  0  0  0  0  0  0  0  0  0  0
   45.2630   34.1870   45.9120 C   0  0  0  0  0  0  0  0  0  0  0  0
   45.1880   33.5070   47.0950 C   0  0  0  0  0  0  0  0  0  0  0  0
   45.9550   32.3580   47.3010 C   0  0  0  0  0  0  0  0  0  0  0  0
   46.7780   31.9430   46.2840 C   0  0  0  0  0  0  0  0  0  0  0  0
   46.8040   32.6800   45.1150 C   0  0  0  0  0  0  0  0  0  0  0  0
   46.0800   33.8040   44.8630 C   0  0  0  0  0  0  0  0  0  0  0  0
   50.0670   32.1690   41.6330 C   0  0  0  0  0  0  0  0  0  0  0  0
   50.6250   31.7320   40.2930 C   0  0  0  0  0  0  0  0  0  0  0  0
   51.1490   33.0770   42.2510 C   0  0  0  0  0  0  0  0  0  0  0  0
   49.8200   30.9860   42.5350 C   0  0  0  0  0  0  0  0  0  0  0  0
   50.9690   30.0440   42.5590 C   0  0  0  0  0  0  0  0  0  0  0  0
   51.1170   29.0020   41.6430 C   0  0  0  0  0  0  0  0  0  0  0  0
   52.2200   28.1450   41.7140 C   0  0  0  0  0  0  0  0  0  0  0  0
   53.1910   28.3170   42.6980 C   0  0  0  0  0  0  0  0  0  0  0  0
   52.9990   29.3760   43.5920 C   0  0  0  0  0  0  0  0  0  0  0  0
   51.9200   30.2400   43.5500 C   0  0  0  0  0  0  0  0  0  0  0  0
   46.9385   34.5406   39.1822 H   0  0  0  0  0  0  0  0  0  0  0  0
   45.7307   35.0589   41.2850 H   0  0  0  0  0  0  0  0  0  0  0  0
   43.9764   36.8649   44.4246 H   0  0  0  0  0  0  0  0  0  0  0  0
   44.5190   33.8670   47.8905 H   0  0  0  0  0  0  0  0  0  0  0  0
   45.9011   31.8028   48.2491 H   0  0  0  0  0  0  0  0  0  0  0  0
   47.4025   31.0445   46.3967 H   0  0  0  0  0  0  0  0  0  0  0  0
   47.4710   32.3254   44.3154 H   0  0  0  0  0  0  0  0  0  0  0  0
   51.4817   31.0611   40.4538 H   0  0  0  0  0  0  0  0  0  0  0  0
   49.8453   31.2018   39.7264 H   0  0  0  0  0  0  0  0  0  0  0  0
   50.9529   32.6160   39.7264 H   0  0  0  0  0  0  0  0  0  0  0  0
   51.0879   33.0257   43.3481 H   0  0  0  0  0  0  0  0  0  0  0  0
   52.1429   32.7386   41.9229 H   0  0  0  0  0  0  0  0  0  0  0  0
   50.9882   34.1145   41.9229 H   0  0  0  0  0  0  0  0  0  0  0  0
   49.6414   31.3518   43.5569 H   0  0  0  0  0  0  0  0  0  0  0  0
   48.9475   30.4419   42.1442 H   0  0  0  0  0  0  0  0  0  0  0  0
   50.3601   28.8533   40.8587 H   0  0  0  0  0  0  0  0  0  0  0  0
   52.3218   27.3270   40.9856 H   0  0  0  0  0  0  0  0  0  0  0  0
   54.0653   27.6532   42.7686 H   0  0  0  0  0  0  0  0  0  0  0  0
   53.7534   29.5310   44.3773 H   0  0  0  0  0  0  0  0  0  0  0  0
   51.8189   31.0571   44.2795 H   0  0  0  0  0  0  0  0  0  0  0  0
  1  6  2  0
  1  2  1  0
  2  3  2  0
  3  7  1  0
  4  3  1  0
  5 17  1  0
  5  4  2  0
  6  5  1  0
  7 16  1  0
  8  7  2  0
  8  9  1  0
  9 10  2  0
 10 11  1  0
 11 12  2  0
 12 13  1  0
 14 13  2  0
 15 14  1  0
 16 15  2  0
 16 11  1  0
 17 19  1  0
 17 20  1  0
 18 17  1  0
 20 21  1  0
 21 26  2  0
 22 23  2  0
 22 21  1  0
 23 24  1  0
 24 25  2  0
 26 25  1  0
  1 27  1  0
  2 28  1  0
  9 29  1  0
 12 30  1  0
 13 31  1  0
 14 32  1  0
 15 33  1  0
 18 34  1  0
 18 35  1  0
 18 36  1  0
 19 37  1  0
 19 38  1  0
 19 39  1  0
 20 40  1  0
 20 41  1  0
 22 42  1  0
 23 43  1  0
 24 44  1  0
 25 45  1  0
 26 46  1  0
M  ISO  8  27  14  28  14  29  14  30  14  31  14  32  14  33  14  34   8
M  ISO  8  35   8  36   8  37   8  38   8  39   8  40   8  41   8  42  14
M  ISO  4  43  14  44  14  45  14  46  14
M  END
>  <minimizedAffinity>  (1) 
-5.6038518

>  <minimizedRMSD>  (1) 
0.502529204

$$$$
