
     RDKit          3D

 25 26  0  0  0  0  0  0  0  0999 V2000
   45.0020   35.0100   44.8420 C   0  0  0  0  0  0  0  0  0  0  0  0
   45.8710   34.7130   43.7850 C   0  0  0  0  0  0  0  0  0  0  0  0
   46.7420   33.6720   43.9570 C   0  0  0  0  0  0  0  0  0  0  0  0
   46.7020   32.9920   45.1540 N   0  0  0  0  0  0  0  0  0  0  0  0
   45.8720   33.2860   46.1470 C   0  0  0  0  0  0  0  0  0  0  0  0
   45.0240   34.3000   45.9770 N   0  0  0  0  0  0  0  0  0  0  0  0
   47.7410   33.2100   43.0090 C   0  0  0  0  0  0  0  0  0  0  0  0
   47.7110   32.2760   42.0010 C   0  0  0  0  0  0  0  0  0  0  0  0
   48.7880   32.0040   41.1980 C   0  0  0  0  0  0  0  0  0  0  0  0
   49.9380   32.6700   41.3870 N   0  0  0  0  0  0  0  0  0  0  0  0
   49.9990   33.5900   42.3670 C   0  0  0  0  0  0  0  0  0  0  0  0
   48.9420   33.8520   43.1490 N   0  0  0  0  0  0  0  0  0  0  0  0
   45.8510   35.5010   42.5440 C   0  0  0  0  0  0  0  0  0  0  0  0
   44.9550   36.5680   42.7360 F   0  0  0  0  0  0  0  0  0  0  0  0
   45.3220   34.8020   41.4950 F   0  0  0  0  0  0  0  0  0  0  0  0
   47.0850   36.0030   42.2170 F   0  0  0  0  0  0  0  0  0  0  0  0
   45.8250   32.6110   47.3460 O   0  0  0  0  0  0  0  0  0  0  0  0
   46.9340   32.0490   47.9730 C   0  0  0  0  0  0  0  0  0  0  0  0
   47.9660   32.9620   48.1330 F   0  0  0  0  0  0  0  0  0  0  0  0
   47.3530   30.8940   47.3370 F   0  0  0  0  0  0  0  0  0  0  0  0
   46.5480   31.7200   49.2810 F   0  0  0  0  0  0  0  0  0  0  0  0
   44.2889   35.8410   44.7381 H   0  0  0  0  0  0  0  0  0  0  0  0
   46.7774   31.7199   41.8305 H   0  0  0  0  0  0  0  0  0  0  0  0
   48.7105   31.2458   40.4048 H   0  0  0  0  0  0  0  0  0  0  0  0
   50.9377   34.1398   42.5303 H   0  0  0  0  0  0  0  0  0  0  0  0
  1  6  2  0
  2  3  2  0
  2  1  1  0
  3  4  1  0
  4  5  2  0
  5 17  1  0
  6  5  1  0
  7 12  1  0
  7  3  1  0
  8  7  2  0
  9 10  2  0
  9  8  1  0
 10 11  1  0
 11 12  2  0
 13 14  1  0
 13  2  1  0
 15 13  1  0
 16 13  1  0
 17 18  1  0
 18 19  1  0
 18 21  1  0
 20 18  1  0
  1 22  1  0
  8 23  1  0
  9 24  1  0
 11 25  1  0
M  ISO  4  22  14  23  14  24  14  25  14
M  END
>  <minimizedAffinity>  (1) 
-5.40568161

>  <minimizedRMSD>  (1) 
1.08679497

$$$$
