
     RDKit          3D

 45 48  0  0  0  0  0  0  0  0999 V2000
   47.3230   34.1970   40.1540 C   0  0  0  0  0  0  0  0  0  0  0  0
   46.6620   34.4440   41.3630 C   0  0  0  0  0  0  0  0  0  0  0  0
   47.0790   33.9770   42.6070 C   0  0  0  0  0  0  0  0  0  0  0  0
   48.1920   33.2700   42.4490 N   0  0  0  0  0  0  0  0  0  0  0  0
   48.8710   32.9890   41.3720 C   0  0  0  0  0  0  0  0  0  0  0  0
   48.4320   33.4590   40.1990 N   0  0  0  0  0  0  0  0  0  0  0  0
   46.2050   34.3920   43.6870 C   0  0  0  0  0  0  0  0  0  0  0  0
   45.3990   35.4690   43.6270 N   0  0  0  0  0  0  0  0  0  0  0  0
   44.6050   35.8590   44.6250 C   0  0  0  0  0  0  0  0  0  0  0  0
   44.5680   35.1700   45.7830 N   0  0  0  0  0  0  0  0  0  0  0  0
   45.3280   34.0860   45.9460 C   0  0  0  0  0  0  0  0  0  0  0  0
   45.2900   33.3820   47.1220 C   0  0  0  0  0  0  0  0  0  0  0  0
   46.0640   32.2580   47.3120 C   0  0  0  0  0  0  0  0  0  0  0  0
   46.8840   31.8610   46.2720 C   0  0  0  0  0  0  0  0  0  0  0  0
   46.8820   32.6080   45.1090 C   0  0  0  0  0  0  0  0  0  0  0  0
   46.1340   33.7220   44.8820 C   0  0  0  0  0  0  0  0  0  0  0  0
   50.0790   32.1540   41.5680 C   0  0  0  0  0  0  0  0  0  0  0  0
   50.6570   31.7930   40.2190 C   0  0  0  0  0  0  0  0  0  0  0  0
   51.1510   33.0490   42.2270 C   0  0  0  0  0  0  0  0  0  0  0  0
   49.8400   30.9370   42.4280 C   0  0  0  0  0  0  0  0  0  0  0  0
   51.0750   30.1220   42.5840 C   0  0  0  0  0  0  0  0  0  0  0  0
   51.9100   30.2520   43.6800 C   0  0  0  0  0  0  0  0  0  0  0  0
   53.0370   29.4780   43.7810 C   0  0  0  0  0  0  0  0  0  0  0  0
   53.3010   28.5810   42.7660 C   0  0  0  0  0  0  0  0  0  0  0  0
   52.4680   28.4500   41.6690 C   0  0  0  0  0  0  0  0  0  0  0  0
   51.3800   29.2210   41.6090 N   0  0  0  0  0  0  0  0  0  0  0  0
   46.9416   34.5968   39.2029 H   0  0  0  0  0  0  0  0  0  0  0  0
   45.7458   35.0517   41.3279 H   0  0  0  0  0  0  0  0  0  0  0  0
   43.9741   36.7517   44.5020 H   0  0  0  0  0  0  0  0  0  0  0  0
   44.6272   33.7219   47.9314 H   0  0  0  0  0  0  0  0  0  0  0  0
   46.0307   31.6966   48.2574 H   0  0  0  0  0  0  0  0  0  0  0  0
   47.5234   30.9710   46.3679 H   0  0  0  0  0  0  0  0  0  0  0  0
   47.5427   32.2728   44.2959 H   0  0  0  0  0  0  0  0  0  0  0  0
   51.5824   31.2151   40.3594 H   0  0  0  0  0  0  0  0  0  0  0  0
   49.9289   31.1888   39.6579 H   0  0  0  0  0  0  0  0  0  0  0  0
   50.8804   32.7124   39.6579 H   0  0  0  0  0  0  0  0  0  0  0  0
   51.0658   32.9779   43.3214 H   0  0  0  0  0  0  0  0  0  0  0  0
   52.1510   32.7139   41.9145 H   0  0  0  0  0  0  0  0  0  0  0  0
   50.9998   34.0928   41.9145 H   0  0  0  0  0  0  0  0  0  0  0  0
   49.5008   31.2640   43.4220 H   0  0  0  0  0  0  0  0  0  0  0  0
   49.0781   30.3142   41.9365 H   0  0  0  0  0  0  0  0  0  0  0  0
   51.6691   30.9773   44.4711 H   0  0  0  0  0  0  0  0  0  0  0  0
   53.7110   29.5692   44.6456 H   0  0  0  0  0  0  0  0  0  0  0  0
   54.2006   27.9513   42.8310 H   0  0  0  0  0  0  0  0  0  0  0  0
   52.6960   27.7306   40.8687 H   0  0  0  0  0  0  0  0  0  0  0  0
  1  6  2  0
  1  2  1  0
  2  3  2  0
  3  7  1  0
  4  3  1  0
  5 17  1  0
  5  4  2  0
  6  5  1  0
  7 16  1  0
  8  7  2  0
  8  9  1  0
  9 10  2  0
 10 11  1  0
 11 12  2  0
 12 13  1  0
 14 13  2  0
 15 14  1  0
 16 15  2  0
 16 11  1  0
 17 19  1  0
 17 20  1  0
 18 17  1  0
 20 21  1  0
 21 22  2  0
 22 23  1  0
 24 23  2  0
 25 24  1  0
 26 25  2  0
 26 21  1  0
  1 27  1  0
  2 28  1  0
  9 29  1  0
 12 30  1  0
 13 31  1  0
 14 32  1  0
 15 33  1  0
 18 34  1  0
 18 35  1  0
 18 36  1  0
 19 37  1  0
 19 38  1  0
 19 39  1  0
 20 40  1  0
 20 41  1  0
 22 42  1  0
 23 43  1  0
 24 44  1  0
 25 45  1  0
M  ISO  8  27  14  28  14  29  14  30  14  31  14  32  14  33  14  34   8
M  ISO  8  35   8  36   8  37   8  38   8  39   8  40   8  41   8  42  14
M  ISO  3  43  14  44  14  45  14
M  END
>  <minimizedAffinity>  (1) 
-5.59395838

>  <minimizedRMSD>  (1) 
0.0927979723

$$$$
