
     RDKit          3D

 35 36  0  0  0  0  0  0  0  0999 V2000
   44.8650   34.8750   45.8060 C   0  0  0  0  0  0  0  0  0  0  0  0
   45.1500   34.6560   44.4710 C   0  0  0  0  0  0  0  0  0  0  0  0
   45.7000   33.4430   44.1190 C   0  0  0  0  0  0  0  0  0  0  0  0
   45.9350   32.5250   45.1090 N   0  0  0  0  0  0  0  0  0  0  0  0
   45.6550   32.7550   46.3850 C   0  0  0  0  0  0  0  0  0  0  0  0
   45.1230   33.9320   46.7050 N   0  0  0  0  0  0  0  0  0  0  0  0
   44.8770   35.6790   43.4450 C   0  0  0  0  0  0  0  0  0  0  0  0
   44.6560   36.8860   44.1090 F   0  0  0  0  0  0  0  0  0  0  0  0
   43.6780   35.4440   42.7920 F   0  0  0  0  0  0  0  0  0  0  0  0
   45.8760   35.8190   42.5290 F   0  0  0  0  0  0  0  0  0  0  0  0
   46.0680   33.0100   42.8040 C   0  0  0  0  0  0  0  0  0  0  0  0
   45.2390   32.5230   41.9790 O   0  0  0  0  0  0  0  0  0  0  0  0
   47.1620   32.9180   41.9920 O   0  0  0  0  0  0  0  0  0  0  0  0
   51.0260   33.5560   42.7410 N   0  0  0  0  0  0  0  0  0  0  0  0
   50.2540   34.7290   42.4330 C   0  0  0  0  0  0  0  0  0  0  0  0
   48.7940   34.4070   42.7710 C   0  0  0  0  0  0  0  0  0  0  0  0
   48.4930   32.9750   42.2980 C   0  0  0  0  0  0  0  0  0  0  0  0
   49.4280   32.7490   41.1310 C   0  0  0  0  0  0  0  0  0  0  0  0
   50.8160   32.5620   41.7070 C   0  0  0  0  0  0  0  0  0  0  0  0
   45.8750   31.8590   47.4140 O   0  0  0  0  0  0  0  0  0  0  0  0
   47.1340   31.6340   47.9860 C   0  0  0  0  0  0  0  0  0  0  0  0
   47.8440   32.8110   48.0970 F   0  0  0  0  0  0  0  0  0  0  0  0
   47.8360   30.6520   47.3590 F   0  0  0  0  0  0  0  0  0  0  0  0
   46.8990   31.2670   49.3250 F   0  0  0  0  0  0  0  0  0  0  0  0
   44.4241   35.8313   46.1240 H   0  0  0  0  0  0  0  0  0  0  0  0
   52.0251   33.8026   42.7839 H   0  0  0  0  0  0  0  0  0  0  0  0
   50.6026   35.5798   43.0368 H   0  0  0  0  0  0  0  0  0  0  0  0
   50.3603   35.0012   41.3725 H   0  0  0  0  0  0  0  0  0  0  0  0
   48.6390   34.4800   43.8576 H   0  0  0  0  0  0  0  0  0  0  0  0
   48.1230   35.1203   42.2701 H   0  0  0  0  0  0  0  0  0  0  0  0
   48.6648   32.1792   43.0377 H   0  0  0  0  0  0  0  0  0  0  0  0
   49.4117   33.6200   40.4594 H   0  0  0  0  0  0  0  0  0  0  0  0
   49.1226   31.8679   40.5476 H   0  0  0  0  0  0  0  0  0  0  0  0
   50.9054   31.5541   42.1384 H   0  0  0  0  0  0  0  0  0  0  0  0
   51.5702   32.6790   40.9149 H   0  0  0  0  0  0  0  0  0  0  0  0
  1  6  2  0
  2  1  1  0
  3  2  2  0
  3  4  1  0
  4  5  2  0
  5  6  1  0
  5 20  1  0
  7  8  1  0
  7  2  1  0
  9  7  1  0
 10  7  1  0
 11  3  1  0
 12 11  2  0
 13 17  1  0
 13 11  1  0
 15 14  1  0
 15 16  1  0
 17 16  1  0
 18 19  1  0
 18 17  1  0
 19 14  1  0
 20 21  1  0
 21 22  1  0
 21 24  1  0
 23 21  1  0
  1 25  1  0
 14 26  1  0
 15 27  1  0
 15 28  1  0
 16 29  1  0
 16 30  1  0
 17 31  1  0
 18 32  1  0
 18 33  1  0
 19 34  1  0
 19 35  1  0
M  ISO  8  25  14  26   5  27  13  28  13  29  13  30  13  31  13  32  13
M  ISO  3  33  13  34  13  35  13
M  END
>  <minimizedAffinity>  (1) 
-5.71283722

>  <minimizedRMSD>  (1) 
1.77302527

$$$$
