
     RDKit          3D

 23 23  0  0  0  0  0  0  0  0999 V2000
   44.9000   35.1480   44.9000 C   0  0  0  0  0  0  0  0  0  0  0  0
   45.7860   34.7870   43.9070 C   0  0  0  0  0  0  0  0  0  0  0  0
   46.6200   33.7150   44.1330 C   0  0  0  0  0  0  0  0  0  0  0  0
   46.5270   33.0600   45.3390 N   0  0  0  0  0  0  0  0  0  0  0  0
   45.6640   33.4280   46.2810 C   0  0  0  0  0  0  0  0  0  0  0  0
   44.8720   34.4590   46.0430 N   0  0  0  0  0  0  0  0  0  0  0  0
   45.8540   35.5180   42.6230 C   0  0  0  0  0  0  0  0  0  0  0  0
   44.9290   36.5630   42.6930 F   0  0  0  0  0  0  0  0  0  0  0  0
   45.3660   34.7410   41.5720 F   0  0  0  0  0  0  0  0  0  0  0  0
   47.0920   35.9830   42.3220 F   0  0  0  0  0  0  0  0  0  0  0  0
   47.6000   33.1730   43.2480 C   0  0  0  0  0  0  0  0  0  0  0  0
   47.3700   32.3710   42.3220 O   0  0  0  0  0  0  0  0  0  0  0  0
   48.9260   33.2050   42.9850 O   0  0  0  0  0  0  0  0  0  0  0  0
   49.6700   34.2110   42.3910 C   0  0  0  0  0  0  0  0  0  0  0  0
   49.8450   35.3540   43.0990 F   0  0  0  0  0  0  0  0  0  0  0  0
   49.2090   34.4450   41.1090 F   0  0  0  0  0  0  0  0  0  0  0  0
   50.9530   33.6720   42.2080 F   0  0  0  0  0  0  0  0  0  0  0  0
   45.5410   32.7930   47.5090 O   0  0  0  0  0  0  0  0  0  0  0  0
   46.5700   32.0870   48.1290 C   0  0  0  0  0  0  0  0  0  0  0  0
   47.7390   32.8330   48.1790 F   0  0  0  0  0  0  0  0  0  0  0  0
   46.7640   30.8520   47.5820 F   0  0  0  0  0  0  0  0  0  0  0  0
   46.2060   31.9470   49.4800 F   0  0  0  0  0  0  0  0  0  0  0  0
   44.2197   35.9995   44.7510 H   0  0  0  0  0  0  0  0  0  0  0  0
  1  6  2  0
  2  3  2  0
  2  1  1  0
  3  4  1  0
  4  5  2  0
  5 18  1  0
  6  5  1  0
  7  8  1  0
  7  2  1  0
  9  7  1  0
 10  7  1  0
 11  3  1  0
 12 11  2  0
 13 11  1  0
 14 13  1  0
 14 15  1  0
 16 14  1  0
 17 14  1  0
 18 19  1  0
 19 20  1  0
 19 22  1  0
 21 19  1  0
  1 23  1  0
M  ISO  1  23  14
M  END
>  <minimizedAffinity>  (1) 
-5.69536304

>  <minimizedRMSD>  (1) 
1.31126809

$$$$
