
     RDKit          3D

 33 34  0  0  0  0  0  0  0  0999 V2000
   44.6590   35.4360   45.0660 C   0  0  0  0  0  0  0  0  0  0  0  0
   45.4410   34.8890   44.0680 C   0  0  0  0  0  0  0  0  0  0  0  0
   46.1080   33.7160   44.3410 C   0  0  0  0  0  0  0  0  0  0  0  0
   45.9590   33.1550   45.5880 N   0  0  0  0  0  0  0  0  0  0  0  0
   45.2000   33.7020   46.5300 C   0  0  0  0  0  0  0  0  0  0  0  0
   44.5670   34.8280   46.2500 N   0  0  0  0  0  0  0  0  0  0  0  0
   45.5760   35.5200   42.7440 C   0  0  0  0  0  0  0  0  0  0  0  0
   44.6350   36.5600   42.6850 F   0  0  0  0  0  0  0  0  0  0  0  0
   45.1920   34.6790   41.7260 F   0  0  0  0  0  0  0  0  0  0  0  0
   46.8180   36.0190   42.5050 F   0  0  0  0  0  0  0  0  0  0  0  0
   46.9650   32.9760   43.4690 C   0  0  0  0  0  0  0  0  0  0  0  0
   46.5980   31.9490   42.8250 O   0  0  0  0  0  0  0  0  0  0  0  0
   48.2490   32.9750   42.9990 O   0  0  0  0  0  0  0  0  0  0  0  0
   48.7020   32.8960   41.7100 C   0  0  0  0  0  0  0  0  0  0  0  0
   48.9960   34.3490   41.2980 C   0  0  0  0  0  0  0  0  0  0  0  0
   49.9200   34.6970   42.4740 C   0  0  0  0  0  0  0  0  0  0  0  0
   50.9100   33.5530   42.3710 C   0  0  0  0  0  0  0  0  0  0  0  0
   50.1530   32.4000   41.7600 C   0  0  0  0  0  0  0  0  0  0  0  0
   45.0230   33.1710   47.7940 O   0  0  0  0  0  0  0  0  0  0  0  0
   45.8530   32.1950   48.3490 C   0  0  0  0  0  0  0  0  0  0  0  0
   47.1630   32.5970   48.3690 F   0  0  0  0  0  0  0  0  0  0  0  0
   45.6820   30.9720   47.7560 F   0  0  0  0  0  0  0  0  0  0  0  0
   45.4900   32.0900   49.7040 F   0  0  0  0  0  0  0  0  0  0  0  0
   44.1119   36.3730   44.8848 H   0  0  0  0  0  0  0  0  0  0  0  0
   48.0033   32.3075   41.0973 H   0  0  0  0  0  0  0  0  0  0  0  0
   49.5085   34.4151   40.3269 H   0  0  0  0  0  0  0  0  0  0  0  0
   48.1243   35.0030   41.1480 H   0  0  0  0  0  0  0  0  0  0  0  0
   50.4074   35.6735   42.3364 H   0  0  0  0  0  0  0  0  0  0  0  0
   49.4180   34.7918   43.4482 H   0  0  0  0  0  0  0  0  0  0  0  0
   51.7567   33.8372   41.7288 H   0  0  0  0  0  0  0  0  0  0  0  0
   51.3217   33.2873   43.3558 H   0  0  0  0  0  0  0  0  0  0  0  0
   50.2376   31.5002   42.3870 H   0  0  0  0  0  0  0  0  0  0  0  0
   50.5387   32.1167   40.7696 H   0  0  0  0  0  0  0  0  0  0  0  0
  1  6  2  0
  2  3  2  0
  2  1  1  0
  3  4  1  0
  4  5  2  0
  5 19  1  0
  6  5  1  0
  7  2  1  0
  8  7  1  0
  9  7  1  0
 10  7  1  0
 11  3  1  0
 12 11  2  0
 13 11  1  0
 14 18  1  0
 14 13  1  0
 15 14  1  0
 15 16  1  0
 17 16  1  0
 18 17  1  0
 19 20  1  0
 20 21  1  0
 20 23  1  0
 22 20  1  0
  1 24  1  0
 14 25  1  0
 15 26  1  0
 15 27  1  0
 16 28  1  0
 16 29  1  0
 17 30  1  0
 17 31  1  0
 18 32  1  0
 18 33  1  0
M  ISO  8  24  14  25  13  26  13  27  13  28  13  29  13  30  13  31  13
M  ISO  2  32  13  33  13
M  END
>  <minimizedAffinity>  (1) 
-5.83734751

>  <minimizedRMSD>  (1) 
1.11656773

$$$$
