
     RDKit          3D

 27 28  0  0  0  0  0  0  0  0999 V2000
   44.6610   35.4560   45.0620 C   0  0  0  0  0  0  0  0  0  0  0  0
   45.5090   34.9610   44.0950 C   0  0  0  0  0  0  0  0  0  0  0  0
   46.2240   33.8160   44.3790 C   0  0  0  0  0  0  0  0  0  0  0  0
   46.0450   33.2370   45.6110 N   0  0  0  0  0  0  0  0  0  0  0  0
   45.2220   33.7300   46.5260 C   0  0  0  0  0  0  0  0  0  0  0  0
   44.5450   34.8320   46.2300 N   0  0  0  0  0  0  0  0  0  0  0  0
   45.6660   35.6250   42.7840 C   0  0  0  0  0  0  0  0  0  0  0  0
   44.9830   36.8430   42.8550 F   0  0  0  0  0  0  0  0  0  0  0  0
   44.9720   34.9410   41.7860 F   0  0  0  0  0  0  0  0  0  0  0  0
   46.9530   35.8150   42.4100 F   0  0  0  0  0  0  0  0  0  0  0  0
   47.1490   33.1340   43.5270 C   0  0  0  0  0  0  0  0  0  0  0  0
   46.7960   32.3160   42.6240 O   0  0  0  0  0  0  0  0  0  0  0  0
   48.4800   33.0260   43.2940 O   0  0  0  0  0  0  0  0  0  0  0  0
   49.2630   33.4140   42.2310 C   0  0  0  0  0  0  0  0  0  0  0  0
   50.7530   33.4020   42.3140 C   0  0  0  0  0  0  0  0  0  0  0  0
   50.0660   34.6980   42.5190 C   0  0  0  0  0  0  0  0  0  0  0  0
   45.0160   33.1740   47.7770 O   0  0  0  0  0  0  0  0  0  0  0  0
   45.8340   32.1690   48.3190 C   0  0  0  0  0  0  0  0  0  0  0  0
   47.1510   32.5660   48.3720 F   0  0  0  0  0  0  0  0  0  0  0  0
   45.6660   30.9690   47.7060 F   0  0  0  0  0  0  0  0  0  0  0  0
   45.4640   32.0540   49.6750 F   0  0  0  0  0  0  0  0  0  0  0  0
   44.0792   36.3689   44.8670 H   0  0  0  0  0  0  0  0  0  0  0  0
   48.5627   33.0139   41.4830 H   0  0  0  0  0  0  0  0  0  0  0  0
   51.2456   32.9080   43.1645 H   0  0  0  0  0  0  0  0  0  0  0  0
   51.5521   33.0602   41.6398 H   0  0  0  0  0  0  0  0  0  0  0  0
   50.1373   35.4877   41.7565 H   0  0  0  0  0  0  0  0  0  0  0  0
   50.0600   35.4648   43.3077 H   0  0  0  0  0  0  0  0  0  0  0  0
  1  6  2  0
  2  3  2  0
  2  1  1  0
  3  4  1  0
  4  5  2  0
  5 17  1  0
  6  5  1  0
  7  8  1  0
  7  2  1  0
  9  7  1  0
 10  7  1  0
 11  3  1  0
 12 11  2  0
 13 11  1  0
 14 15  1  0
 14 16  1  0
 14 13  1  0
 15 16  1  0
 17 18  1  0
 18 19  1  0
 18 21  1  0
 20 18  1  0
  1 22  1  0
 14 23  1  0
 15 24  1  0
 15 25  1  0
 16 26  1  0
 16 27  1  0
M  ISO  6  22  14  23  13  24  13  25  13  26  13  27  13
M  END
>  <minimizedAffinity>  (1) 
-5.65030861

>  <minimizedRMSD>  (1) 
0.683836818

$$$$
