
     RDKit          3D

 26 26  0  0  0  0  0  0  0  0999 V2000
   44.6810   35.4260   45.0170 C   0  0  0  0  0  0  0  0  0  0  0  0
   45.5310   34.9270   44.0610 C   0  0  0  0  0  0  0  0  0  0  0  0
   46.2530   33.7900   44.3570 C   0  0  0  0  0  0  0  0  0  0  0  0
   46.0750   33.2280   45.5970 N   0  0  0  0  0  0  0  0  0  0  0  0
   45.2520   33.7220   46.5060 C   0  0  0  0  0  0  0  0  0  0  0  0
   44.5690   34.8120   46.2020 N   0  0  0  0  0  0  0  0  0  0  0  0
   45.6830   35.5750   42.7390 C   0  0  0  0  0  0  0  0  0  0  0  0
   44.9280   36.7510   42.7680 F   0  0  0  0  0  0  0  0  0  0  0  0
   45.0560   34.8260   41.7420 F   0  0  0  0  0  0  0  0  0  0  0  0
   46.9640   35.8280   42.3920 F   0  0  0  0  0  0  0  0  0  0  0  0
   47.1800   33.1020   43.5180 C   0  0  0  0  0  0  0  0  0  0  0  0
   46.8790   32.2890   42.6230 O   0  0  0  0  0  0  0  0  0  0  0  0
   48.5090   32.9820   43.2890 O   0  0  0  0  0  0  0  0  0  0  0  0
   49.2370   33.4350   42.2030 C   0  0  0  0  0  0  0  0  0  0  0  0
   50.0200   34.6930   42.5060 C   0  0  0  0  0  0  0  0  0  0  0  0
   45.0530   33.1740   47.7630 O   0  0  0  0  0  0  0  0  0  0  0  0
   45.8570   32.1700   48.3100 C   0  0  0  0  0  0  0  0  0  0  0  0
   47.1790   32.5470   48.3640 F   0  0  0  0  0  0  0  0  0  0  0  0
   45.6810   30.9660   47.6880 F   0  0  0  0  0  0  0  0  0  0  0  0
   45.4880   32.0470   49.6610 F   0  0  0  0  0  0  0  0  0  0  0  0
   44.0914   36.3311   44.8093 H   0  0  0  0  0  0  0  0  0  0  0  0
   48.5419   33.6441   41.3765 H   0  0  0  0  0  0  0  0  0  0  0  0
   49.9608   32.6500   41.9387 H   0  0  0  0  0  0  0  0  0  0  0  0
   50.1000   34.8216   43.5955 H   0  0  0  0  0  0  0  0  0  0  0  0
   51.0272   34.6116   42.0714 H   0  0  0  0  0  0  0  0  0  0  0  0
   49.5022   35.5608   42.0714 H   0  0  0  0  0  0  0  0  0  0  0  0
  1  6  2  0
  2  3  2  0
  2  1  1  0
  3  4  1  0
  4  5  2  0
  5 16  1  0
  6  5  1  0
  7  8  1  0
  7  2  1  0
  9  7  1  0
 10  7  1  0
 11  3  1  0
 12 11  2  0
 13 11  1  0
 14 15  1  0
 14 13  1  0
 16 17  1  0
 17 18  1  0
 17 20  1  0
 19 17  1  0
  1 21  1  0
 14 22  1  0
 14 23  1  0
 15 24  1  0
 15 25  1  0
 15 26  1  0
M  ISO  6  21  14  22   8  23   8  24   8  25   8  26   8
M  END
>  <minimizedAffinity>  (1) 
-5.23030519

>  <minimizedRMSD>  (1) 
0.68733567

$$$$
