
     RDKit          3D

 23 23  0  0  0  0  0  0  0  0999 V2000
   44.8130   35.2530   44.9230 C   0  0  0  0  0  0  0  0  0  0  0  0
   45.6940   34.8590   43.9370 C   0  0  0  0  0  0  0  0  0  0  0  0
   46.4990   33.7600   44.1800 C   0  0  0  0  0  0  0  0  0  0  0  0
   46.3750   33.1270   45.3870 N   0  0  0  0  0  0  0  0  0  0  0  0
   45.5200   33.5210   46.3260 C   0  0  0  0  0  0  0  0  0  0  0  0
   44.7570   34.5770   46.0730 N   0  0  0  0  0  0  0  0  0  0  0  0
   45.7820   35.5820   42.6570 C   0  0  0  0  0  0  0  0  0  0  0  0
   44.9720   36.7130   42.7580 F   0  0  0  0  0  0  0  0  0  0  0  0
   45.2230   34.8660   41.6150 F   0  0  0  0  0  0  0  0  0  0  0  0
   47.0550   35.9430   42.3230 F   0  0  0  0  0  0  0  0  0  0  0  0
   47.4670   33.1870   43.2960 C   0  0  0  0  0  0  0  0  0  0  0  0
   47.1390   32.3660   42.3690 O   0  0  0  0  0  0  0  0  0  0  0  0
   48.8300   33.2340   43.0800 O   0  0  0  0  0  0  0  0  0  0  0  0
   49.5670   33.8900   42.1650 C   0  0  0  0  0  0  0  0  0  0  0  0
   50.1060   34.9630   42.5240 O   0  0  0  0  0  0  0  0  0  0  0  0
   49.6680   33.3150   40.8910 O   0  0  0  0  0  0  0  0  0  0  0  0
   45.3650   32.9100   47.5550 O   0  0  0  0  0  0  0  0  0  0  0  0
   46.3670   32.1400   48.1640 C   0  0  0  0  0  0  0  0  0  0  0  0
   47.5630   32.8100   48.1870 F   0  0  0  0  0  0  0  0  0  0  0  0
   46.4730   30.8900   47.6400 F   0  0  0  0  0  0  0  0  0  0  0  0
   46.0080   32.0430   49.5230 F   0  0  0  0  0  0  0  0  0  0  0  0
   44.1582   36.1221   44.7620 H   0  0  0  0  0  0  0  0  0  0  0  0
   49.2067   32.4612   40.6953 H   0  0  0  0  0  0  0  0  0  0  0  0
  1  6  2  0
  2  3  2  0
  2  1  1  0
  3  4  1  0
  4  5  2  0
  5 17  1  0
  6  5  1  0
  7  8  1  0
  7  2  1  0
  9  7  1  0
 10  7  1  0
 11  3  1  0
 12 11  2  0
 13 11  1  0
 14 15  2  0
 14 13  1  0
 16 14  1  0
 17 18  1  0
 18 19  1  0
 18 21  1  0
 20 18  1  0
  1 22  1  0
 16 23  1  0
M  ISO  2  22  14  23   3
M  END
>  <minimizedAffinity>  (1) 
-5.42000961

>  <minimizedRMSD>  (1) 
1.04099512

$$$$
