
     RDKit          3D

 46 49  0  0  0  0  0  0  0  0999 V2000
   47.4410   34.1880   39.9970 C   0  0  0  0  0  0  0  0  0  0  0  0
   46.7590   34.4830   41.1860 C   0  0  0  0  0  0  0  0  0  0  0  0
   47.1310   34.0140   42.4480 C   0  0  0  0  0  0  0  0  0  0  0  0
   48.2180   33.2590   42.3150 N   0  0  0  0  0  0  0  0  0  0  0  0
   48.9070   32.9350   41.2630 C   0  0  0  0  0  0  0  0  0  0  0  0
   48.5180   33.4050   40.0740 N   0  0  0  0  0  0  0  0  0  0  0  0
   46.2480   34.4800   43.4950 C   0  0  0  0  0  0  0  0  0  0  0  0
   45.4620   35.5600   43.3910 N   0  0  0  0  0  0  0  0  0  0  0  0
   44.6480   36.0010   44.3420 C   0  0  0  0  0  0  0  0  0  0  0  0
   44.5740   35.3360   45.5320 N   0  0  0  0  0  0  0  0  0  0  0  0
   45.3140   34.2520   45.7390 C   0  0  0  0  0  0  0  0  0  0  0  0
   45.2240   33.5990   46.9350 C   0  0  0  0  0  0  0  0  0  0  0  0
   45.9830   32.4640   47.1740 C   0  0  0  0  0  0  0  0  0  0  0  0
   46.8240   32.0190   46.1690 C   0  0  0  0  0  0  0  0  0  0  0  0
   46.8680   32.7240   44.9860 C   0  0  0  0  0  0  0  0  0  0  0  0
   46.1460   33.8400   44.7020 C   0  0  0  0  0  0  0  0  0  0  0  0
   50.0750   32.0530   41.5110 C   0  0  0  0  0  0  0  0  0  0  0  0
   50.6940   31.6700   40.1800 C   0  0  0  0  0  0  0  0  0  0  0  0
   51.1430   32.8960   42.2230 C   0  0  0  0  0  0  0  0  0  0  0  0
   49.7430   30.8310   42.3100 C   0  0  0  0  0  0  0  0  0  0  0  0
   50.8810   29.9300   42.4630 N   0  0  0  0  0  0  0  0  0  0  0  0
   51.7870   30.3320   43.4020 C   0  0  0  0  0  0  0  0  0  0  0  0
   52.9220   29.5820   43.6670 C   0  0  0  0  0  0  0  0  0  0  0  0
   53.0500   28.4330   42.9220 C   0  0  0  0  0  0  0  0  0  0  0  0
   54.0440   27.6570   43.0670 O   0  0  0  0  0  0  0  0  0  0  0  0
   52.1640   28.0280   41.9950 N   0  0  0  0  0  0  0  0  0  0  0  0
   51.0790   28.7910   41.7750 C   0  0  0  0  0  0  0  0  0  0  0  0
   50.2290   28.4740   40.9360 O   0  0  0  0  0  0  0  0  0  0  0  0
   47.0988   34.5894   39.0317 H   0  0  0  0  0  0  0  0  0  0  0  0
   45.8703   35.1279   41.1205 H   0  0  0  0  0  0  0  0  0  0  0  0
   44.0354   36.8987   44.1721 H   0  0  0  0  0  0  0  0  0  0  0  0
   44.5448   33.9761   47.7137 H   0  0  0  0  0  0  0  0  0  0  0  0
   45.9187   31.9323   48.1348 H   0  0  0  0  0  0  0  0  0  0  0  0
   47.4441   31.1217   46.3116 H   0  0  0  0  0  0  0  0  0  0  0  0
   47.5459   32.3515   44.2039 H   0  0  0  0  0  0  0  0  0  0  0  0
   51.6174   31.0987   40.3559 H   0  0  0  0  0  0  0  0  0  0  0  0
   49.9842   31.0530   39.6095 H   0  0  0  0  0  0  0  0  0  0  0  0
   50.9293   32.5806   39.6095 H   0  0  0  0  0  0  0  0  0  0  0  0
   51.0206   32.7994   43.3119 H   0  0  0  0  0  0  0  0  0  0  0  0
   52.1432   32.5413   41.9336 H   0  0  0  0  0  0  0  0  0  0  0  0
   51.0303   33.9512   41.9336 H   0  0  0  0  0  0  0  0  0  0  0  0
   49.4062   31.1449   43.3090 H   0  0  0  0  0  0  0  0  0  0  0  0
   48.9574   30.2839   41.7683 H   0  0  0  0  0  0  0  0  0  0  0  0
   51.6134   31.2658   43.9569 H   0  0  0  0  0  0  0  0  0  0  0  0
   53.6664   29.8838   44.4186 H   0  0  0  0  0  0  0  0  0  0  0  0
   52.3127   27.1560   41.4673 H   0  0  0  0  0  0  0  0  0  0  0  0
  1  6  2  0
  1  2  1  0
  2  3  2  0
  3  7  1  0
  4  3  1  0
  5 17  1  0
  5  4  2  0
  6  5  1  0
  7 16  1  0
  8  7  2  0
  8  9  1  0
  9 10  2  0
 10 11  1  0
 11 12  2  0
 12 13  1  0
 14 13  2  0
 15 14  1  0
 16 15  2  0
 16 11  1  0
 17 19  1  0
 17 20  1  0
 18 17  1  0
 20 21  1  0
 21 22  1  0
 22 23  2  0
 24 25  2  0
 24 23  1  0
 26 24  1  0
 27 26  1  0
 27 21  1  0
 28 27  2  0
  1 29  1  0
  2 30  1  0
  9 31  1  0
 12 32  1  0
 13 33  1  0
 14 34  1  0
 15 35  1  0
 18 36  1  0
 18 37  1  0
 18 38  1  0
 19 39  1  0
 19 40  1  0
 19 41  1  0
 20 42  1  0
 20 43  1  0
 22 44  1  0
 23 45  1  0
 26 46  1  0
M  ISO  8  29  14  30  14  31  14  32  14  33  14  34  14  35  14  36   8
M  ISO  8  37   8  38   8  39   8  40   8  41   8  42   8  43   8  44  14
M  ISO  2  45  14  46   9
M  END
>  <minimizedAffinity>  (1) 
-5.57052755

>  <minimizedRMSD>  (1) 
0.414999038

$$$$
