
     RDKit          3D

 33 35  0  0  0  0  0  0  0  0999 V2000
   44.7940   35.2540   44.8690 C   0  0  0  0  0  0  0  0  0  0  0  0
   45.7410   34.7590   43.9840 C   0  0  0  0  0  0  0  0  0  0  0  0
   46.5040   33.6920   44.4160 C   0  0  0  0  0  0  0  0  0  0  0  0
   46.3000   33.1850   45.6630 N   0  0  0  0  0  0  0  0  0  0  0  0
   45.3970   33.6590   46.4990 C   0  0  0  0  0  0  0  0  0  0  0  0
   44.6640   34.6820   46.0890 N   0  0  0  0  0  0  0  0  0  0  0  0
   45.9320   35.3330   42.6500 C   0  0  0  0  0  0  0  0  0  0  0  0
   45.0490   36.4140   42.5390 F   0  0  0  0  0  0  0  0  0  0  0  0
   45.4970   34.4640   41.6660 F   0  0  0  0  0  0  0  0  0  0  0  0
   47.2100   35.7380   42.4050 F   0  0  0  0  0  0  0  0  0  0  0  0
   47.5210   33.0360   43.6740 C   0  0  0  0  0  0  0  0  0  0  0  0
   47.5940   31.7990   43.4370 O   0  0  0  0  0  0  0  0  0  0  0  0
   48.6890   33.3070   42.9790 O   0  0  0  0  0  0  0  0  0  0  0  0
   48.9910   32.8710   41.7280 C   0  0  0  0  0  0  0  0  0  0  0  0
   48.0770   32.9140   40.5430 C   0  0  0  0  0  0  0  0  0  0  0  0
   49.1110   32.1850   39.2590 S   0  0  0  0  0  0  0  0  0  0  0  0
   50.5670   31.9380   40.4390 C   0  0  0  0  0  0  0  0  0  0  0  0
   50.1800   32.3580   41.4930 N   0  0  0  0  0  0  0  0  0  0  0  0
   51.8790   31.3450   40.0690 N   0  0  0  0  0  0  0  0  0  0  0  0
   52.4450   31.4850   38.8660 C   0  0  0  0  0  0  0  0  0  0  0  0
   53.6360   30.7770   38.9740 C   0  0  0  0  0  0  0  0  0  0  0  0
   53.7000   30.2670   40.2260 N   0  0  0  0  0  0  0  0  0  0  0  0
   52.6130   30.6200   40.9000 C   0  0  0  0  0  0  0  0  0  0  0  0
   45.1440   33.1940   47.7620 O   0  0  0  0  0  0  0  0  0  0  0  0
   45.8730   32.1350   48.3500 C   0  0  0  0  0  0  0  0  0  0  0  0
   47.2230   32.4750   48.4530 F   0  0  0  0  0  0  0  0  0  0  0  0
   45.6730   30.9350   47.7400 F   0  0  0  0  0  0  0  0  0  0  0  0
   45.4430   32.0600   49.6880 F   0  0  0  0  0  0  0  0  0  0  0  0
   44.1554   36.1025   44.5822 H   0  0  0  0  0  0  0  0  0  0  0  0
   47.0460   33.2911   40.4741 H   0  0  0  0  0  0  0  0  0  0  0  0
   52.0582   32.0328   37.9940 H   0  0  0  0  0  0  0  0  0  0  0  0
   54.3911   30.6533   38.1838 H   0  0  0  0  0  0  0  0  0  0  0  0
   52.3698   30.3621   41.9413 H   0  0  0  0  0  0  0  0  0  0  0  0
  1  6  2  0
  2  3  2  0
  2  1  1  0
  3  4  1  0
  4  5  2  0
  5 24  1  0
  6  5  1  0
  7  2  1  0
  8  7  1  0
  9  7  1  0
 10  7  1  0
 11  3  1  0
 12 11  2  0
 13 11  1  0
 14 13  1  0
 15 14  2  0
 16 17  1  0
 16 15  1  0
 17 18  2  0
 18 14  1  0
 19 17  1  0
 19 23  1  0
 20 21  2  0
 20 19  1  0
 21 22  1  0
 22 23  2  0
 24 25  1  0
 25 26  1  0
 25 28  1  0
 27 25  1  0
  1 29  1  0
 15 30  1  0
 20 31  1  0
 21 32  1  0
 23 33  1  0
M  ISO  5  29  14  30  14  31  14  32  14  33  14
M  END
>  <minimizedAffinity>  (1) 
-6.06151962

>  <minimizedRMSD>  (1) 
0.349881351

$$$$
