
     RDKit          3D

 41 44  0  0  0  0  0  0  0  0999 V2000
   47.3180   34.1850   40.1620 C   0  0  0  0  0  0  0  0  0  0  0  0
   46.6510   34.4380   41.3750 C   0  0  0  0  0  0  0  0  0  0  0  0
   47.0810   33.9860   42.6220 C   0  0  0  0  0  0  0  0  0  0  0  0
   48.2030   33.2900   42.4670 N   0  0  0  0  0  0  0  0  0  0  0  0
   48.8790   33.0110   41.3870 C   0  0  0  0  0  0  0  0  0  0  0  0
   48.4370   33.4620   40.2150 N   0  0  0  0  0  0  0  0  0  0  0  0
   46.2090   34.3950   43.7040 C   0  0  0  0  0  0  0  0  0  0  0  0
   45.4050   35.4700   43.6400 N   0  0  0  0  0  0  0  0  0  0  0  0
   44.6060   35.8560   44.6340 C   0  0  0  0  0  0  0  0  0  0  0  0
   44.5620   35.1620   45.8010 N   0  0  0  0  0  0  0  0  0  0  0  0
   45.3270   34.0770   45.9610 C   0  0  0  0  0  0  0  0  0  0  0  0
   45.2850   33.3790   47.1330 C   0  0  0  0  0  0  0  0  0  0  0  0
   46.0740   32.2470   47.3150 C   0  0  0  0  0  0  0  0  0  0  0  0
   46.8910   31.8580   46.2840 C   0  0  0  0  0  0  0  0  0  0  0  0
   46.8880   32.6090   45.1210 C   0  0  0  0  0  0  0  0  0  0  0  0
   46.1380   33.7210   44.8940 C   0  0  0  0  0  0  0  0  0  0  0  0
   50.1030   32.1920   41.5950 C   0  0  0  0  0  0  0  0  0  0  0  0
   50.6670   31.7880   40.2490 C   0  0  0  0  0  0  0  0  0  0  0  0
   51.1660   33.0840   42.2200 C   0  0  0  0  0  0  0  0  0  0  0  0
   49.8600   30.9750   42.4570 C   0  0  0  0  0  0  0  0  0  0  0  0
   51.1510   30.2650   42.6790 C   0  0  0  0  0  0  0  0  0  0  0  0
   51.9470   30.3370   43.7600 N   0  0  0  0  0  0  0  0  0  0  0  0
   52.9690   29.5860   43.5860 O   0  0  0  0  0  0  0  0  0  0  0  0
   52.9030   28.9970   42.4170 C   0  0  0  0  0  0  0  0  0  0  0  0
   51.7620   29.4230   41.8480 N   0  0  0  0  0  0  0  0  0  0  0  0
   46.9310   34.5690   39.2066 H   0  0  0  0  0  0  0  0  0  0  0  0
   45.7268   35.0333   41.3368 H   0  0  0  0  0  0  0  0  0  0  0  0
   43.9742   36.7476   44.5081 H   0  0  0  0  0  0  0  0  0  0  0  0
   44.6203   33.7147   47.9426 H   0  0  0  0  0  0  0  0  0  0  0  0
   46.0434   31.6810   48.2577 H   0  0  0  0  0  0  0  0  0  0  0  0
   47.5334   30.9702   46.3791 H   0  0  0  0  0  0  0  0  0  0  0  0
   47.5509   32.2771   44.3084 H   0  0  0  0  0  0  0  0  0  0  0  0
   51.5530   31.1534   40.3982 H   0  0  0  0  0  0  0  0  0  0  0  0
   49.9058   31.2284   39.6855 H   0  0  0  0  0  0  0  0  0  0  0  0
   50.9519   32.6887   39.6855 H   0  0  0  0  0  0  0  0  0  0  0  0
   51.0958   33.0251   43.3162 H   0  0  0  0  0  0  0  0  0  0  0  0
   52.1626   32.7478   41.8978 H   0  0  0  0  0  0  0  0  0  0  0  0
   51.0079   34.1238   41.8978 H   0  0  0  0  0  0  0  0  0  0  0  0
   49.4411   31.2876   43.4249 H   0  0  0  0  0  0  0  0  0  0  0  0
   49.1503   30.3019   41.9537 H   0  0  0  0  0  0  0  0  0  0  0  0
   53.6338   28.2956   41.9880 H   0  0  0  0  0  0  0  0  0  0  0  0
  1  6  2  0
  1  2  1  0
  2  3  2  0
  3  7  1  0
  4  3  1  0
  5 17  1  0
  5  4  2  0
  6  5  1  0
  7 16  1  0
  8  7  2  0
  8  9  1  0
  9 10  2  0
 10 11  1  0
 11 12  2  0
 12 13  1  0
 14 13  2  0
 15 14  1  0
 16 15  2  0
 16 11  1  0
 17 19  1  0
 17 20  1  0
 18 17  1  0
 20 21  1  0
 21 22  2  0
 23 22  1  0
 24 23  1  0
 25 24  2  0
 25 21  1  0
  1 26  1  0
  2 27  1  0
  9 28  1  0
 12 29  1  0
 13 30  1  0
 14 31  1  0
 15 32  1  0
 18 33  1  0
 18 34  1  0
 18 35  1  0
 19 36  1  0
 19 37  1  0
 19 38  1  0
 20 39  1  0
 20 40  1  0
 24 41  1  0
M  ISO  8  26  14  27  14  28  14  29  14  30  14  31  14  32  14  33   8
M  ISO  8  34   8  35   8  36   8  37   8  38   8  39   8  40   8  41  14
M  END
>  <minimizedAffinity>  (1) 
-5.52856398

>  <minimizedRMSD>  (1) 
0.0829558671

$$$$
