
     RDKit          3D

 42 44  0  0  0  0  0  0  0  0999 V2000
   44.7210   35.4200   45.0290 C   0  0  0  0  0  0  0  0  0  0  0  0
   45.5420   34.9010   44.0360 C   0  0  0  0  0  0  0  0  0  0  0  0
   46.2150   33.7340   44.3330 C   0  0  0  0  0  0  0  0  0  0  0  0
   46.0470   33.1560   45.5580 N   0  0  0  0  0  0  0  0  0  0  0  0
   45.2620   33.6650   46.4910 C   0  0  0  0  0  0  0  0  0  0  0  0
   44.6170   34.7820   46.2070 N   0  0  0  0  0  0  0  0  0  0  0  0
   45.6980   35.5490   42.7280 C   0  0  0  0  0  0  0  0  0  0  0  0
   44.9000   36.7010   42.7450 F   0  0  0  0  0  0  0  0  0  0  0  0
   45.1370   34.7850   41.7240 F   0  0  0  0  0  0  0  0  0  0  0  0
   46.9860   35.8720   42.4240 F   0  0  0  0  0  0  0  0  0  0  0  0
   47.0990   33.0320   43.4720 C   0  0  0  0  0  0  0  0  0  0  0  0
   46.9490   31.8570   43.0380 O   0  0  0  0  0  0  0  0  0  0  0  0
   48.3000   33.1920   42.8040 O   0  0  0  0  0  0  0  0  0  0  0  0
   48.5150   32.9670   41.4810 C   0  0  0  0  0  0  0  0  0  0  0  0
   47.6990   33.5220   40.3560 C   0  0  0  0  0  0  0  0  0  0  0  0
   48.5430   32.8130   38.9230 S   0  0  0  0  0  0  0  0  0  0  0  0
   49.8170   31.9160   39.9910 C   0  0  0  0  0  0  0  0  0  0  0  0
   49.5180   32.1990   41.1130 N   0  0  0  0  0  0  0  0  0  0  0  0
   50.8640   31.1000   39.3160 C   0  0  0  0  0  0  0  0  0  0  0  0
   52.1830   31.1680   40.0470 C   0  0  0  0  0  0  0  0  0  0  0  0
   53.3440   31.3750   39.1070 C   0  0  0  0  0  0  0  0  0  0  0  0
   53.1710   30.4660   37.9080 C   0  0  0  0  0  0  0  0  0  0  0  0
   51.9080   30.7560   37.1400 C   0  0  0  0  0  0  0  0  0  0  0  0
   51.0670   31.7070   37.9700 C   0  0  0  0  0  0  0  0  0  0  0  0
   45.0550   33.1290   47.7390 O   0  0  0  0  0  0  0  0  0  0  0  0
   45.8840   32.1420   48.3010 C   0  0  0  0  0  0  0  0  0  0  0  0
   47.2020   32.5900   48.3420 F   0  0  0  0  0  0  0  0  0  0  0  0
   45.7600   30.9190   47.7110 F   0  0  0  0  0  0  0  0  0  0  0  0
   45.5190   32.0510   49.6580 F   0  0  0  0  0  0  0  0  0  0  0  0
   44.1587   36.3487   44.8519 H   0  0  0  0  0  0  0  0  0  0  0  0
   46.8211   34.1838   40.3915 H   0  0  0  0  0  0  0  0  0  0  0  0
   50.5415   30.0490   39.2798 H   0  0  0  0  0  0  0  0  0  0  0  0
   52.1504   32.0052   40.7598 H   0  0  0  0  0  0  0  0  0  0  0  0
   52.3331   30.2086   40.5637 H   0  0  0  0  0  0  0  0  0  0  0  0
   53.3684   32.4235   38.7753 H   0  0  0  0  0  0  0  0  0  0  0  0
   54.2873   31.1389   39.6213 H   0  0  0  0  0  0  0  0  0  0  0  0
   54.0312   30.6015   37.2359 H   0  0  0  0  0  0  0  0  0  0  0  0
   53.1058   29.4326   38.2794 H   0  0  0  0  0  0  0  0  0  0  0  0
   52.1559   31.2214   36.1746 H   0  0  0  0  0  0  0  0  0  0  0  0
   51.3551   29.8252   36.9452 H   0  0  0  0  0  0  0  0  0  0  0  0
   51.5867   32.6712   38.0714 H   0  0  0  0  0  0  0  0  0  0  0  0
   50.0964   31.8789   37.4817 H   0  0  0  0  0  0  0  0  0  0  0  0
  1  6  2  0
  2  3  2  0
  2  1  1  0
  3  4  1  0
  4  5  2  0
  5 25  1  0
  6  5  1  0
  7  8  1  0
  7  2  1  0
  9  7  1  0
 10  7  1  0
 11  3  1  0
 12 11  2  0
 13 11  1  0
 14 13  1  0
 15 14  2  0
 16 17  1  0
 16 15  1  0
 17 18  2  0
 18 14  1  0
 19 17  1  0
 19 20  1  0
 21 20  1  0
 22 21  1  0
 23 22  1  0
 23 24  1  0
 24 19  1  0
 25 26  1  0
 26 27  1  0
 26 29  1  0
 28 26  1  0
  1 30  1  0
 15 31  1  0
 19 32  1  0
 20 33  1  0
 20 34  1  0
 21 35  1  0
 21 36  1  0
 22 37  1  0
 22 38  1  0
 23 39  1  0
 23 40  1  0
 24 41  1  0
 24 42  1  0
M  ISO  8  30  14  31  14  32  13  33  13  34  13  35  13  36  13  37  13
M  ISO  5  38  13  39  13  40  13  41  13  42  13
M  END
>  <minimizedAffinity>  (1) 
-5.92654514

>  <minimizedRMSD>  (1) 
0.647544086

$$$$
