
     RDKit          3D

 43 46  0  0  0  0  0  0  0  0999 V2000
   47.2610   34.1400   40.1540 C   0  0  0  0  0  0  0  0  0  0  0  0
   46.6210   34.3880   41.3700 C   0  0  0  0  0  0  0  0  0  0  0  0
   47.0940   33.9630   42.6140 C   0  0  0  0  0  0  0  0  0  0  0  0
   48.2320   33.2980   42.4370 N   0  0  0  0  0  0  0  0  0  0  0  0
   48.8890   33.0250   41.3490 C   0  0  0  0  0  0  0  0  0  0  0  0
   48.4060   33.4480   40.1780 N   0  0  0  0  0  0  0  0  0  0  0  0
   46.2270   34.3630   43.7040 C   0  0  0  0  0  0  0  0  0  0  0  0
   45.4170   35.4290   43.6560 N   0  0  0  0  0  0  0  0  0  0  0  0
   44.6210   35.8080   44.6540 C   0  0  0  0  0  0  0  0  0  0  0  0
   44.5860   35.1120   45.8140 N   0  0  0  0  0  0  0  0  0  0  0  0
   45.3570   34.0360   45.9570 C   0  0  0  0  0  0  0  0  0  0  0  0
   45.3200   33.3340   47.1320 C   0  0  0  0  0  0  0  0  0  0  0  0
   46.1200   32.2000   47.3080 C   0  0  0  0  0  0  0  0  0  0  0  0
   46.9390   31.8190   46.2670 C   0  0  0  0  0  0  0  0  0  0  0  0
   46.9300   32.5700   45.1050 C   0  0  0  0  0  0  0  0  0  0  0  0
   46.1710   33.6780   44.8900 C   0  0  0  0  0  0  0  0  0  0  0  0
   50.1330   32.2400   41.5450 C   0  0  0  0  0  0  0  0  0  0  0  0
   50.7090   31.8770   40.1850 C   0  0  0  0  0  0  0  0  0  0  0  0
   51.1840   33.1660   42.1840 C   0  0  0  0  0  0  0  0  0  0  0  0
   49.9340   31.0120   42.3900 C   0  0  0  0  0  0  0  0  0  0  0  0
   51.2170   30.3200   42.6960 C   0  0  0  0  0  0  0  0  0  0  0  0
   51.9260   29.3840   41.9700 C   0  0  0  0  0  0  0  0  0  0  0  0
   53.0310   29.0790   42.7030 C   0  0  0  0  0  0  0  0  0  0  0  0
   53.0190   29.7970   43.8510 N   0  0  0  0  0  0  0  0  0  0  0  0
   51.9230   30.5350   43.8270 N   0  0  0  0  0  0  0  0  0  0  0  0
   46.8371   34.5022   39.2058 H   0  0  0  0  0  0  0  0  0  0  0  0
   45.6799   34.9570   41.3469 H   0  0  0  0  0  0  0  0  0  0  0  0
   43.9845   36.6971   44.5341 H   0  0  0  0  0  0  0  0  0  0  0  0
   44.6558   33.6644   47.9442 H   0  0  0  0  0  0  0  0  0  0  0  0
   46.0961   31.6299   48.2484 H   0  0  0  0  0  0  0  0  0  0  0  0
   47.5872   30.9350   46.3582 H   0  0  0  0  0  0  0  0  0  0  0  0
   47.5908   32.2443   44.2881 H   0  0  0  0  0  0  0  0  0  0  0  0
   51.6324   31.2950   40.3214 H   0  0  0  0  0  0  0  0  0  0  0  0
   49.9767   31.2769   39.6250 H   0  0  0  0  0  0  0  0  0  0  0  0
   50.9344   32.7965   39.6250 H   0  0  0  0  0  0  0  0  0  0  0  0
   51.1113   33.1020   43.2797 H   0  0  0  0  0  0  0  0  0  0  0  0
   52.1895   32.8549   41.8644 H   0  0  0  0  0  0  0  0  0  0  0  0
   51.0020   34.2027   41.8644 H   0  0  0  0  0  0  0  0  0  0  0  0
   49.4575   31.3076   43.3363 H   0  0  0  0  0  0  0  0  0  0  0  0
   49.3025   30.3127   41.8224 H   0  0  0  0  0  0  0  0  0  0  0  0
   51.6512   28.9663   40.9902 H   0  0  0  0  0  0  0  0  0  0  0  0
   53.8115   28.3618   42.4091 H   0  0  0  0  0  0  0  0  0  0  0  0
   53.7272   29.7727   44.5985 H   0  0  0  0  0  0  0  0  0  0  0  0
  1  6  2  0
  1  2  1  0
  2  3  2  0
  3  7  1  0
  4  3  1  0
  5 17  1  0
  5  4  2  0
  6  5  1  0
  7 16  1  0
  8  7  2  0
  8  9  1  0
  9 10  2  0
 10 11  1  0
 11 12  2  0
 12 13  1  0
 14 13  2  0
 15 14  1  0
 16 15  2  0
 16 11  1  0
 17 19  1  0
 17 20  1  0
 18 17  1  0
 20 21  1  0
 21 25  2  0
 22 21  1  0
 22 23  2  0
 23 24  1  0
 25 24  1  0
  1 26  1  0
  2 27  1  0
  9 28  1  0
 12 29  1  0
 13 30  1  0
 14 31  1  0
 15 32  1  0
 18 33  1  0
 18 34  1  0
 18 35  1  0
 19 36  1  0
 19 37  1  0
 19 38  1  0
 20 39  1  0
 20 40  1  0
 22 41  1  0
 23 42  1  0
 24 43  1  0
M  ISO  8  26  14  27  14  28  14  29  14  30  14  31  14  32  14  33   8
M  ISO  8  34   8  35   8  36   8  37   8  38   8  39   8  40   8  41  14
M  ISO  2  42  14  43   9
M  END
>  <minimizedAffinity>  (1) 
-5.51810169

>  <minimizedRMSD>  (1) 
0.380964786

$$$$
