
     RDKit          3D

 29 30  0  0  0  0  0  0  0  0999 V2000
   44.7400   35.2760   44.9250 C   0  0  0  0  0  0  0  0  0  0  0  0
   45.6770   34.7940   44.0190 C   0  0  0  0  0  0  0  0  0  0  0  0
   46.4480   33.7280   44.4380 C   0  0  0  0  0  0  0  0  0  0  0  0
   46.2570   33.2180   45.6850 N   0  0  0  0  0  0  0  0  0  0  0  0
   45.3630   33.6870   46.5320 C   0  0  0  0  0  0  0  0  0  0  0  0
   44.6230   34.7030   46.1420 N   0  0  0  0  0  0  0  0  0  0  0  0
   45.8460   35.3750   42.6890 C   0  0  0  0  0  0  0  0  0  0  0  0
   44.9510   36.4490   42.5930 F   0  0  0  0  0  0  0  0  0  0  0  0
   45.4090   34.5080   41.7040 F   0  0  0  0  0  0  0  0  0  0  0  0
   47.1160   35.7940   42.4330 F   0  0  0  0  0  0  0  0  0  0  0  0
   47.4600   33.0780   43.6800 C   0  0  0  0  0  0  0  0  0  0  0  0
   47.5190   31.8530   43.4090 O   0  0  0  0  0  0  0  0  0  0  0  0
   48.6310   33.3540   42.9970 O   0  0  0  0  0  0  0  0  0  0  0  0
   48.9470   32.9270   41.7470 C   0  0  0  0  0  0  0  0  0  0  0  0
   48.0620   33.0220   40.5430 C   0  0  0  0  0  0  0  0  0  0  0  0
   49.1080   32.2740   39.2750 S   0  0  0  0  0  0  0  0  0  0  0  0
   50.5170   31.9610   40.4870 C   0  0  0  0  0  0  0  0  0  0  0  0
   50.1210   32.3760   41.5320 N   0  0  0  0  0  0  0  0  0  0  0  0
   51.8120   31.2840   39.9640 C   0  0  0  0  0  0  0  0  0  0  0  0
   51.7130   30.3650   39.1560 O   0  0  0  0  0  0  0  0  0  0  0  0
   52.9050   31.8620   40.5270 O   0  0  0  0  0  0  0  0  0  0  0  0
   45.1280   33.2110   47.8000 O   0  0  0  0  0  0  0  0  0  0  0  0
   45.8530   32.1460   48.3640 C   0  0  0  0  0  0  0  0  0  0  0  0
   47.2070   32.4700   48.4700 F   0  0  0  0  0  0  0  0  0  0  0  0
   45.6510   30.9510   47.7330 F   0  0  0  0  0  0  0  0  0  0  0  0
   45.4280   32.0500   49.7040 F   0  0  0  0  0  0  0  0  0  0  0  0
   44.0944   36.1234   44.6510 H   0  0  0  0  0  0  0  0  0  0  0  0
   47.0469   33.4363   40.4545 H   0  0  0  0  0  0  0  0  0  0  0  0
   53.8113   31.5394   40.2931 H   0  0  0  0  0  0  0  0  0  0  0  0
  1  6  2  0
  2  3  2  0
  2  1  1  0
  3  4  1  0
  4  5  2  0
  5 22  1  0
  6  5  1  0
  7  2  1  0
  8  7  1  0
  9  7  1  0
 10  7  1  0
 11  3  1  0
 12 11  2  0
 13 11  1  0
 14 13  1  0
 15 14  2  0
 16 17  1  0
 16 15  1  0
 17 18  2  0
 18 14  1  0
 19 17  1  0
 19 21  1  0
 20 19  2  0
 22 23  1  0
 23 24  1  0
 23 26  1  0
 25 23  1  0
  1 27  1  0
 15 28  1  0
 21 29  1  0
M  ISO  3  27  14  28  14  29   3
M  END
>  <minimizedAffinity>  (1) 
-5.82243967

>  <minimizedRMSD>  (1) 
0.285305917

$$$$
