
     RDKit          3D

 28 29  0  0  0  0  0  0  0  0999 V2000
   44.7360   35.3490   44.9580 C   0  0  0  0  0  0  0  0  0  0  0  0
   45.6180   34.8340   44.0180 C   0  0  0  0  0  0  0  0  0  0  0  0
   46.3400   33.7180   44.3930 C   0  0  0  0  0  0  0  0  0  0  0  0
   46.1580   33.1870   45.6380 N   0  0  0  0  0  0  0  0  0  0  0  0
   45.3230   33.6810   46.5190 C   0  0  0  0  0  0  0  0  0  0  0  0
   44.6260   34.7530   46.1660 N   0  0  0  0  0  0  0  0  0  0  0  0
   45.7860   35.4310   42.6890 C   0  0  0  0  0  0  0  0  0  0  0  0
   44.9340   36.5400   42.6310 F   0  0  0  0  0  0  0  0  0  0  0  0
   45.2770   34.5920   41.7060 F   0  0  0  0  0  0  0  0  0  0  0  0
   47.0630   35.7890   42.4150 F   0  0  0  0  0  0  0  0  0  0  0  0
   47.3000   33.0210   43.5910 C   0  0  0  0  0  0  0  0  0  0  0  0
   47.2420   31.8380   43.2250 O   0  0  0  0  0  0  0  0  0  0  0  0
   48.5060   33.2430   42.9550 O   0  0  0  0  0  0  0  0  0  0  0  0
   48.8080   32.8990   41.6730 C   0  0  0  0  0  0  0  0  0  0  0  0
   47.9700   33.2270   40.4740 C   0  0  0  0  0  0  0  0  0  0  0  0
   48.9520   32.4810   39.1350 S   0  0  0  0  0  0  0  0  0  0  0  0
   50.2920   31.8660   40.3470 C   0  0  0  0  0  0  0  0  0  0  0  0
   49.9180   32.2240   41.4260 N   0  0  0  0  0  0  0  0  0  0  0  0
   51.4330   31.1410   39.8620 N   0  0  0  0  0  0  0  0  0  0  0  0
   45.0990   33.1920   47.7810 O   0  0  0  0  0  0  0  0  0  0  0  0
   45.8560   32.1470   48.3420 C   0  0  0  0  0  0  0  0  0  0  0  0
   47.1940   32.5010   48.4240 F   0  0  0  0  0  0  0  0  0  0  0  0
   45.6640   30.9450   47.7220 F   0  0  0  0  0  0  0  0  0  0  0  0
   45.4390   32.0450   49.6840 F   0  0  0  0  0  0  0  0  0  0  0  0
   44.1306   36.2364   44.7213 H   0  0  0  0  0  0  0  0  0  0  0  0
   47.0165   33.7727   40.4182 H   0  0  0  0  0  0  0  0  0  0  0  0
   52.1525   30.8119   40.5215 H   0  0  0  0  0  0  0  0  0  0  0  0
   51.5318   30.9501   38.8547 H   0  0  0  0  0  0  0  0  0  0  0  0
  1  6  2  0
  2  3  2  0
  2  1  1  0
  3  4  1  0
  4  5  2  0
  5 20  1  0
  6  5  1  0
  7  2  1  0
  8  7  1  0
  9  7  1  0
 10  7  1  0
 11  3  1  0
 12 11  2  0
 13 11  1  0
 14 13  1  0
 15 14  2  0
 16 17  1  0
 16 15  1  0
 17 18  2  0
 18 14  1  0
 19 17  1  0
 20 21  1  0
 21 22  1  0
 21 24  1  0
 23 21  1  0
  1 25  1  0
 15 26  1  0
 19 27  1  0
 19 28  1  0
M  ISO  2  25  14  26  14
M  END
>  <minimizedAffinity>  (1) 
-5.4466815

>  <minimizedRMSD>  (1) 
0.0630906522

$$$$
