
     RDKit          3D

 27 28  0  0  0  0  0  0  0  0999 V2000
   44.7540   35.2660   44.9040 C   0  0  0  0  0  0  0  0  0  0  0  0
   45.6960   34.7840   44.0040 C   0  0  0  0  0  0  0  0  0  0  0  0
   46.4710   33.7220   44.4290 C   0  0  0  0  0  0  0  0  0  0  0  0
   46.2810   33.2060   45.6810 N   0  0  0  0  0  0  0  0  0  0  0  0
   45.3760   33.6840   46.5200 C   0  0  0  0  0  0  0  0  0  0  0  0
   44.6340   34.7000   46.1190 N   0  0  0  0  0  0  0  0  0  0  0  0
   45.8720   35.3590   42.6710 C   0  0  0  0  0  0  0  0  0  0  0  0
   44.9760   36.4320   42.5670 F   0  0  0  0  0  0  0  0  0  0  0  0
   45.4380   34.4890   41.6890 F   0  0  0  0  0  0  0  0  0  0  0  0
   47.1440   35.7770   42.4160 F   0  0  0  0  0  0  0  0  0  0  0  0
   47.4840   33.0740   43.6810 C   0  0  0  0  0  0  0  0  0  0  0  0
   47.5530   31.8430   43.4190 O   0  0  0  0  0  0  0  0  0  0  0  0
   48.6580   33.3480   42.9990 O   0  0  0  0  0  0  0  0  0  0  0  0
   48.9800   32.9110   41.7550 C   0  0  0  0  0  0  0  0  0  0  0  0
   48.1070   33.0150   40.5460 C   0  0  0  0  0  0  0  0  0  0  0  0
   49.1360   32.2490   39.2780 S   0  0  0  0  0  0  0  0  0  0  0  0
   50.5430   31.9120   40.4950 C   0  0  0  0  0  0  0  0  0  0  0  0
   50.1440   32.3390   41.5370 N   0  0  0  0  0  0  0  0  0  0  0  0
   52.1980   31.0880   40.1400 S   0  0  0  0  0  0  0  0  0  0  0  0
   45.1380   33.2090   47.7890 O   0  0  0  0  0  0  0  0  0  0  0  0
   45.8640   32.1370   48.3600 C   0  0  0  0  0  0  0  0  0  0  0  0
   47.2140   32.4770   48.4610 F   0  0  0  0  0  0  0  0  0  0  0  0
   45.6610   30.9470   47.7400 F   0  0  0  0  0  0  0  0  0  0  0  0
   45.4350   32.0440   49.6990 F   0  0  0  0  0  0  0  0  0  0  0  0
   44.1065   36.1099   44.6237 H   0  0  0  0  0  0  0  0  0  0  0  0
   47.0993   33.4464   40.4537 H   0  0  0  0  0  0  0  0  0  0  0  0
   52.8175   30.7796   41.3224 H   0  0  0  0  0  0  0  0  0  0  0  0
  1  6  2  0
  2  3  2  0
  2  1  1  0
  3  4  1  0
  4  5  2  0
  5 20  1  0
  6  5  1  0
  7  2  1  0
  8  7  1  0
  9  7  1  0
 10  7  1  0
 11  3  1  0
 12 11  2  0
 13 11  1  0
 14 13  1  0
 15 14  2  0
 16 17  1  0
 16 15  1  0
 17 18  2  0
 18 14  1  0
 19 17  1  0
 20 21  1  0
 21 22  1  0
 21 24  1  0
 23 21  1  0
  1 25  1  0
 15 26  1  0
 19 27  1  0
M  ISO  3  25  14  26  14  27  11
M  END
>  <minimizedAffinity>  (1) 
-5.52583361

>  <minimizedRMSD>  (1) 
0.186816573

$$$$
