
     RDKit          3D

 27 28  0  0  1  0  0  0  0  0999 V2000
   47.6950   34.9170   41.4240 C   0  0  2  0  0  0  0  0  0  0  0  0
   48.2400   32.5290   38.6160 C   0  0  0  0  0  0  0  0  0  0  0  0
   46.8990   32.2280   38.2360 C   0  0  0  0  0  0  0  0  0  0  0  0
   45.8540   32.8680   38.9540 C   0  0  0  0  0  0  0  0  0  0  0  0
   46.1850   33.7290   39.9600 N   0  0  0  0  0  0  0  0  0  0  0  0
   47.4790   33.9770   40.2780 C   0  0  0  0  0  0  0  0  0  0  0  0
   48.4860   33.3810   39.6090 N   0  0  0  0  0  0  0  0  0  0  0  0
   48.9370   35.7570   41.1610 C   0  0  0  0  0  0  0  0  0  0  0  0
   47.8260   34.1810   42.7160 C   0  0  0  0  0  0  0  0  0  0  0  0
   46.6890   34.4490   43.6040 C   0  0  0  0  0  0  0  0  0  0  0  0
   46.2000   33.9000   44.7680 C   0  0  0  0  0  0  0  0  0  0  0  0
   45.0890   34.3880   45.3920 C   0  0  0  0  0  0  0  0  0  0  0  0
   44.4310   35.4580   44.8530 N   0  0  0  0  0  0  0  0  0  0  0  0
   44.8960   35.9890   43.7330 C   0  0  0  0  0  0  0  0  0  0  0  0
   46.0000   35.5110   43.1060 N   0  0  0  0  0  0  0  0  0  0  0  0
   46.8171   35.5745   41.5076 H   0  0  0  0  0  0  0  0  0  0  0  0
   49.0776   32.0536   38.0846 H   0  0  0  0  0  0  0  0  0  0  0  0
   46.6819   31.5262   37.4172 H   0  0  0  0  0  0  0  0  0  0  0  0
   44.8004   32.6739   38.7047 H   0  0  0  0  0  0  0  0  0  0  0  0
   49.3846   36.0597   42.1191 H   0  0  0  0  0  0  0  0  0  0  0  0
   49.6651   35.1652   40.5869 H   0  0  0  0  0  0  0  0  0  0  0  0
   48.6588   36.6531   40.5869 H   0  0  0  0  0  0  0  0  0  0  0  0
   47.8719   33.1015   42.5096 H   0  0  0  0  0  0  0  0  0  0  0  0
   48.7438   34.5227   43.2169 H   0  0  0  0  0  0  0  0  0  0  0  0
   46.7226   33.0388   45.2099 H   0  0  0  0  0  0  0  0  0  0  0  0
   44.7259   33.9242   46.3210 H   0  0  0  0  0  0  0  0  0  0  0  0
   44.3681   36.8489   43.2949 H   0  0  0  0  0  0  0  0  0  0  0  0
  1  9  1  0
  2  7  2  0
  3  2  1  0
  3  4  2  0
  4  5  1  0
  5  6  2  0
  6  1  1  0
  7  6  1  0
  8  1  1  0
  9 10  1  0
 10 11  2  0
 11 12  1  0
 13 12  2  0
 14 13  1  0
 15 10  1  0
 15 14  2  0
  1 16  1  1
  2 17  1  0
  3 18  1  0
  4 19  1  0
  8 20  1  0
  8 21  1  0
  8 22  1  0
  9 23  1  0
  9 24  1  0
 11 25  1  0
 12 26  1  0
 14 27  1  0
M  ISO  8  16   8  17  14  18  14  19  14  20   8  21   8  22   8  23   8
M  ISO  4  24   8  25  14  26  14  27  14
M  END
>  <minimizedAffinity>  (1) 
-4.27513552

>  <minimizedRMSD>  (1) 
6.50522137

$$$$
