
     RDKit          3D

 32 33  0  0  0  0  0  0  0  0999 V2000
   43.7800   34.2080   41.5590 C   0  0  0  0  0  0  0  0  0  0  0  0
   44.6820   33.6450   40.7220 C   0  0  0  0  0  0  0  0  0  0  0  0
   45.9140   32.9600   41.8720 S   0  0  0  0  0  0  0  0  0  0  0  0
   44.9240   33.5990   43.3590 C   0  0  0  0  0  0  0  0  0  0  0  0
   44.0180   34.1150   42.8260 N   0  0  0  0  0  0  0  0  0  0  0  0
   45.4640   33.3290   44.6660 N   0  0  0  0  0  0  0  0  0  0  0  0
   46.8350   33.1980   44.9180 C   0  0  0  0  0  0  0  0  0  0  0  0
   47.6430   33.7460   44.0640 N   0  0  0  0  0  0  0  0  0  0  0  0
   47.1640   32.4600   46.1110 N   0  0  0  0  0  0  0  0  0  0  0  0
   48.6590   33.6540   44.2840 H   0  0  0  0  0  0  0  0  0  0  0  0
   40.5390   36.1840   41.2350 C   0  0  0  0  0  0  0  0  0  0  0  0
   41.6650   35.5730   41.8160 C   0  0  0  0  0  0  0  0  0  0  0  0
   42.5830   34.8860   41.0150 C   0  0  0  0  0  0  0  0  0  0  0  0
   42.2750   34.8850   39.6930 N   0  0  0  0  0  0  0  0  0  0  0  0
   41.2100   35.4630   39.1300 C   0  0  0  0  0  0  0  0  0  0  0  0
   40.3530   36.1070   39.9120 N   0  0  0  0  0  0  0  0  0  0  0  0
   41.0840   35.3270   37.6650 C   0  0  0  0  0  0  0  0  0  0  0  0
   41.1880   36.6420   36.9630 C   0  0  0  0  0  0  0  0  0  0  0  0
   39.6870   34.7420   37.4290 C   0  0  0  0  0  0  0  0  0  0  0  0
   44.6726   33.6103   39.6226 H   0  0  0  0  0  0  0  0  0  0  0  0
   44.8094   33.2272   45.4547 H   0  0  0  0  0  0  0  0  0  0  0  0
   48.1499   32.3160   46.3720 H   0  0  0  0  0  0  0  0  0  0  0  0
   46.4133   32.0764   46.7028 H   0  0  0  0  0  0  0  0  0  0  0  0
   39.8153   36.7222   41.8648 H   0  0  0  0  0  0  0  0  0  0  0  0
   41.8239   35.6356   42.9027 H   0  0  0  0  0  0  0  0  0  0  0  0
   41.8935   34.6951   37.2708 H   0  0  0  0  0  0  0  0  0  0  0  0
   41.2519   37.4504   37.7063 H   0  0  0  0  0  0  0  0  0  0  0  0
   42.0897   36.6510   36.3330 H   0  0  0  0  0  0  0  0  0  0  0  0
   40.2990   36.7926   36.3330 H   0  0  0  0  0  0  0  0  0  0  0  0
   39.2055   34.5404   38.3973 H   0  0  0  0  0  0  0  0  0  0  0  0
   39.0795   35.4613   36.8602 H   0  0  0  0  0  0  0  0  0  0  0  0
   39.7734   33.8045   36.8602 H   0  0  0  0  0  0  0  0  0  0  0  0
  1  5  1  0
  2  1  2  0
  2  3  1  0
  3  4  1  0
  4  6  1  0
  5  4  2  0
  6  7  1  0
  7  9  1  0
  8 10  1  0
  8  7  2  0
 11 12  2  0
 13  1  1  0
 13 12  1  0
 14 13  2  0
 15 14  1  0
 15 16  2  0
 16 11  1  0
 17 15  1  0
 18 17  1  0
 19 17  1  0
  2 20  1  0
  6 21  1  0
  9 22  1  0
  9 23  1  0
 11 24  1  0
 12 25  1  0
 17 26  1  0
 18 27  1  0
 18 28  1  0
 18 29  1  0
 19 30  1  0
 19 31  1  0
 19 32  1  0
M  ISO  8  20  14  24  14  25  14  26   8  27   8  28   8  29   8  30   8
M  ISO  2  31   8  32   8
M  END
>  <minimizedAffinity>  (1) 
-5.30671453

>  <minimizedRMSD>  (1) 
0.395126313

$$$$
