
     RDKit          3D

 39 41  0  0  1  0  0  0  0  0999 V2000
   47.0250   32.6760   44.8210 C   0  0  2  0  0  0  0  0  0  0  0  0
   44.5950   35.4230   45.1740 C   0  0  0  0  0  0  0  0  0  0  0  0
   44.7470   36.0990   43.9140 C   0  0  0  0  0  0  0  0  0  0  0  0
   45.6860   35.5760   42.9750 C   0  0  0  0  0  0  0  0  0  0  0  0
   46.3940   34.4490   43.3300 N   0  0  0  0  0  0  0  0  0  0  0  0
   46.2110   33.8590   44.5170 C   0  0  0  0  0  0  0  0  0  0  0  0
   45.3240   34.3410   45.4240 N   0  0  0  0  0  0  0  0  0  0  0  0
   47.6160   32.1030   43.5280 C   0  0  0  0  0  0  0  0  0  0  0  0
   46.3540   31.6370   45.6330 C   0  0  0  0  0  0  0  0  0  0  0  0
   47.2140   31.3520   46.8260 C   0  0  0  0  0  0  0  0  0  0  0  0
   47.3040   32.2930   47.8180 C   0  0  0  0  0  0  0  0  0  0  0  0
   48.1390   31.8080   48.7890 C   0  0  0  0  0  0  0  0  0  0  0  0
   48.5220   30.5780   48.3320 N   0  0  0  0  0  0  0  0  0  0  0  0
   47.9760   30.3020   47.1690 N   0  0  0  0  0  0  0  0  0  0  0  0
   49.4300   29.6600   49.0370 C   0  0  0  0  0  0  0  0  0  0  0  0
   50.7530   29.6750   48.2850 C   0  0  0  0  0  0  0  0  0  0  0  0
   51.6760   30.5050   49.1720 C   0  0  0  0  0  0  0  0  0  0  0  0
   51.2020   30.0300   50.5480 C   0  0  0  0  0  0  0  0  0  0  0  0
   49.7010   30.1620   50.4180 C   0  0  0  0  0  0  0  0  0  0  0  0
   47.8363   33.0280   45.4751 H   0  0  0  0  0  0  0  0  0  0  0  0
   43.8823   35.7980   45.9233 H   0  0  0  0  0  0  0  0  0  0  0  0
   44.1549   36.9960   43.6799 H   0  0  0  0  0  0  0  0  0  0  0  0
   45.8396   36.0579   41.9982 H   0  0  0  0  0  0  0  0  0  0  0  0
   48.3855   31.3570   43.7757 H   0  0  0  0  0  0  0  0  0  0  0  0
   46.8181   31.6256   42.9402 H   0  0  0  0  0  0  0  0  0  0  0  0
   48.0685   32.9152   42.9402 H   0  0  0  0  0  0  0  0  0  0  0  0
   45.3686   31.9990   45.9615 H   0  0  0  0  0  0  0  0  0  0  0  0
   46.2107   30.7223   45.0390 H   0  0  0  0  0  0  0  0  0  0  0  0
   46.7945   33.2678   47.8319 H   0  0  0  0  0  0  0  0  0  0  0  0
   48.4355   32.2989   49.7277 H   0  0  0  0  0  0  0  0  0  0  0  0
   48.9816   28.6568   49.0878 H   0  0  0  0  0  0  0  0  0  0  0  0
   51.1438   28.6541   48.1620 H   0  0  0  0  0  0  0  0  0  0  0  0
   50.6573   30.0896   47.2706 H   0  0  0  0  0  0  0  0  0  0  0  0
   52.7356   30.2659   48.9983 H   0  0  0  0  0  0  0  0  0  0  0  0
   51.6267   31.5919   49.0102 H   0  0  0  0  0  0  0  0  0  0  0  0
   51.4980   28.9874   50.7361 H   0  0  0  0  0  0  0  0  0  0  0  0
   51.6290   30.5979   51.3878 H   0  0  0  0  0  0  0  0  0  0  0  0
   49.3870   31.2108   50.5247 H   0  0  0  0  0  0  0  0  0  0  0  0
   49.1514   29.6076   51.1930 H   0  0  0  0  0  0  0  0  0  0  0  0
  1  9  1  0
  2  7  2  0
  3  2  1  0
  4  5  1  0
  4  3  2  0
  5  6  2  0
  6  1  1  0
  6  7  1  0
  8  1  1  0
  9 10  1  0
 10 14  2  0
 10 11  1  0
 11 12  2  0
 13 12  1  0
 13 15  1  0
 14 13  1  0
 15 19  1  0
 16 15  1  0
 16 17  1  0
 17 18  1  0
 19 18  1  0
  1 20  1  1
  2 21  1  0
  3 22  1  0
  4 23  1  0
  8 24  1  0
  8 25  1  0
  8 26  1  0
  9 27  1  0
  9 28  1  0
 11 29  1  0
 12 30  1  0
 15 31  1  0
 16 32  1  0
 16 33  1  0
 17 34  1  0
 17 35  1  0
 18 36  1  0
 18 37  1  0
 19 38  1  0
 19 39  1  0
M  ISO  8  20   8  21  14  22  14  23  14  24   8  25   8  26   8  27   8
M  ISO  8  28   8  29  14  30  14  31  13  32  13  33  13  34  13  35  13
M  ISO  4  36  13  37  13  38  13  39  13
M  END
>  <minimizedAffinity>  (1) 
-4.83732748

>  <minimizedRMSD>  (1) 
1.88624001

$$$$
