
     RDKit          3D

 35 36  0  0  1  0  0  0  0  0999 V2000
   46.9770   32.6610   44.8420 C   0  0  2  0  0  0  0  0  0  0  0  0
   44.5860   35.4420   45.2030 C   0  0  0  0  0  0  0  0  0  0  0  0
   44.7460   36.1130   43.9400 C   0  0  0  0  0  0  0  0  0  0  0  0
   45.6760   35.5730   42.9970 C   0  0  0  0  0  0  0  0  0  0  0  0
   46.3640   34.4440   43.3550 N   0  0  0  0  0  0  0  0  0  0  0  0
   46.1780   33.8550   44.5440 C   0  0  0  0  0  0  0  0  0  0  0  0
   45.3000   34.3540   45.4500 N   0  0  0  0  0  0  0  0  0  0  0  0
   47.4980   32.0430   43.5400 C   0  0  0  0  0  0  0  0  0  0  0  0
   46.3070   31.6520   45.6930 C   0  0  0  0  0  0  0  0  0  0  0  0
   47.1920   31.3600   46.8630 C   0  0  0  0  0  0  0  0  0  0  0  0
   47.3220   32.3020   47.8480 C   0  0  0  0  0  0  0  0  0  0  0  0
   48.1730   31.8110   48.8010 C   0  0  0  0  0  0  0  0  0  0  0  0
   48.5260   30.5710   48.3400 N   0  0  0  0  0  0  0  0  0  0  0  0
   47.9420   30.3050   47.1880 N   0  0  0  0  0  0  0  0  0  0  0  0
   49.4330   29.6350   49.0140 C   0  0  0  0  0  0  0  0  0  0  0  0
   49.7550   30.1450   50.4080 C   0  0  0  0  0  0  0  0  0  0  0  0
   50.6840   29.5520   48.1660 C   0  0  0  0  0  0  0  0  0  0  0  0
   47.8210   33.0092   45.4556 H   0  0  0  0  0  0  0  0  0  0  0  0
   43.8801   35.8275   45.9534 H   0  0  0  0  0  0  0  0  0  0  0  0
   44.1674   37.0187   43.7057 H   0  0  0  0  0  0  0  0  0  0  0  0
   45.8334   36.0482   42.0175 H   0  0  0  0  0  0  0  0  0  0  0  0
   48.1906   31.2215   43.7755 H   0  0  0  0  0  0  0  0  0  0  0  0
   46.6520   31.6531   42.9550 H   0  0  0  0  0  0  0  0  0  0  0  0
   48.0254   32.8109   42.9550 H   0  0  0  0  0  0  0  0  0  0  0  0
   45.3421   32.0450   46.0458 H   0  0  0  0  0  0  0  0  0  0  0  0
   46.1249   30.7324   45.1175 H   0  0  0  0  0  0  0  0  0  0  0  0
   46.8276   33.2844   47.8698 H   0  0  0  0  0  0  0  0  0  0  0  0
   48.5000   32.3024   49.7292 H   0  0  0  0  0  0  0  0  0  0  0  0
   48.9777   28.6398   49.1243 H   0  0  0  0  0  0  0  0  0  0  0  0
   49.3246   29.4633   51.1563 H   0  0  0  0  0  0  0  0  0  0  0  0
   50.8462   30.1910   50.5386 H   0  0  0  0  0  0  0  0  0  0  0  0
   49.3274   31.1500   50.5386 H   0  0  0  0  0  0  0  0  0  0  0  0
   51.5668   29.4934   48.8196 H   0  0  0  0  0  0  0  0  0  0  0  0
   50.6377   28.6550   47.5311 H   0  0  0  0  0  0  0  0  0  0  0  0
   50.7566   30.4473   47.5311 H   0  0  0  0  0  0  0  0  0  0  0  0
  1  9  1  0
  2  7  2  0
  3  2  1  0
  4  5  1  0
  4  3  2  0
  5  6  2  0
  6  1  1  0
  6  7  1  0
  8  1  1  0
  9 10  1  0
 10 14  2  0
 10 11  1  0
 11 12  2  0
 13 12  1  0
 13 15  1  0
 14 13  1  0
 15 16  1  0
 17 15  1  0
  1 18  1  1
  2 19  1  0
  3 20  1  0
  4 21  1  0
  8 22  1  0
  8 23  1  0
  8 24  1  0
  9 25  1  0
  9 26  1  0
 11 27  1  0
 12 28  1  0
 15 29  1  0
 16 30  1  0
 16 31  1  0
 16 32  1  0
 17 33  1  0
 17 34  1  0
 17 35  1  0
M  ISO  8  18   8  19  14  20  14  21  14  22   8  23   8  24   8  25   8
M  ISO  8  26   8  27  14  28  14  29   8  30   8  31   8  32   8  33   8
M  ISO  2  34   8  35   8
M  END
>  <minimizedAffinity>  (1) 
-4.52362776

>  <minimizedRMSD>  (1) 
1.70770812

$$$$
