
     RDKit          3D

 50 53  0  0  0  0  0  0  0  0999 V2000
   47.3150   34.1510   40.1610 C   0  0  0  0  0  0  0  0  0  0  0  0
   46.6560   34.4260   41.3670 C   0  0  0  0  0  0  0  0  0  0  0  0
   47.0930   34.0120   42.6250 C   0  0  0  0  0  0  0  0  0  0  0  0
   48.2200   33.3260   42.4880 N   0  0  0  0  0  0  0  0  0  0  0  0
   48.8930   33.0280   41.4020 C   0  0  0  0  0  0  0  0  0  0  0  0
   48.4380   33.4450   40.2230 N   0  0  0  0  0  0  0  0  0  0  0  0
   46.2100   34.4460   43.6900 C   0  0  0  0  0  0  0  0  0  0  0  0
   45.4070   35.5150   43.6190 N   0  0  0  0  0  0  0  0  0  0  0  0
   44.5940   35.9020   44.6020 C   0  0  0  0  0  0  0  0  0  0  0  0
   44.5340   35.2180   45.7570 N   0  0  0  0  0  0  0  0  0  0  0  0
   45.2940   34.1340   45.9360 C   0  0  0  0  0  0  0  0  0  0  0  0
   45.2170   33.4490   47.1170 C   0  0  0  0  0  0  0  0  0  0  0  0
   45.9920   32.3260   47.3200 C   0  0  0  0  0  0  0  0  0  0  0  0
   46.8450   31.9160   46.2950 C   0  0  0  0  0  0  0  0  0  0  0  0
   46.8660   32.6540   45.1410 C   0  0  0  0  0  0  0  0  0  0  0  0
   46.1230   33.7660   44.8910 C   0  0  0  0  0  0  0  0  0  0  0  0
   50.1300   32.2300   41.6650 C   0  0  0  0  0  0  0  0  0  0  0  0
   50.6880   31.8050   40.2990 C   0  0  0  0  0  0  0  0  0  0  0  0
   51.1890   33.1520   42.2370 C   0  0  0  0  0  0  0  0  0  0  0  0
   49.9160   31.0420   42.5350 C   0  0  0  0  0  0  0  0  0  0  0  0
   50.8020   29.9660   42.4590 N   0  0  0  0  0  0  0  0  0  0  0  0
   51.5890   29.8570   43.7010 C   0  0  0  0  0  0  0  0  0  0  0  0
   52.7780   28.9880   43.4360 C   0  0  0  0  0  0  0  0  0  0  0  0
   52.2770   27.6520   43.2350 N   0  0  0  0  0  0  0  0  0  0  0  0
   51.2990   27.5830   42.2070 C   0  0  0  0  0  0  0  0  0  0  0  0
   50.2510   28.6940   42.2360 C   0  0  0  0  0  0  0  0  0  0  0  0
   46.9169   34.5066   39.1992 H   0  0  0  0  0  0  0  0  0  0  0  0
   45.7259   35.0113   41.3177 H   0  0  0  0  0  0  0  0  0  0  0  0
   43.9638   36.7932   44.4658 H   0  0  0  0  0  0  0  0  0  0  0  0
   44.5348   33.7946   47.9077 H   0  0  0  0  0  0  0  0  0  0  0  0
   45.9388   31.7678   48.2663 H   0  0  0  0  0  0  0  0  0  0  0  0
   47.4818   31.0265   46.4100 H   0  0  0  0  0  0  0  0  0  0  0  0
   47.5453   32.3169   44.3442 H   0  0  0  0  0  0  0  0  0  0  0  0
   51.5552   31.1445   40.4466 H   0  0  0  0  0  0  0  0  0  0  0  0
   49.9101   31.2685   39.7360 H   0  0  0  0  0  0  0  0  0  0  0  0
   50.9985   32.6975   39.7360 H   0  0  0  0  0  0  0  0  0  0  0  0
   51.1500   33.1181   43.3358 H   0  0  0  0  0  0  0  0  0  0  0  0
   52.1824   32.8260   41.8951 H   0  0  0  0  0  0  0  0  0  0  0  0
   51.0029   34.1808   41.8951 H   0  0  0  0  0  0  0  0  0  0  0  0
   49.9352   31.3995   43.5751 H   0  0  0  0  0  0  0  0  0  0  0  0
   48.9673   30.6218   42.1698 H   0  0  0  0  0  0  0  0  0  0  0  0
   51.9230   30.8562   44.0173 H   0  0  0  0  0  0  0  0  0  0  0  0
   50.9729   29.4187   44.4999 H   0  0  0  0  0  0  0  0  0  0  0  0
   53.3075   29.3339   42.5360 H   0  0  0  0  0  0  0  0  0  0  0  0
   53.4885   29.0224   44.2751 H   0  0  0  0  0  0  0  0  0  0  0  0
   53.0651   27.0390   42.9820 H   0  0  0  0  0  0  0  0  0  0  0  0
   50.7768   26.6191   42.2973 H   0  0  0  0  0  0  0  0  0  0  0  0
   51.8427   27.6986   41.2578 H   0  0  0  0  0  0  0  0  0  0  0  0
   49.7255   28.7047   41.2697 H   0  0  0  0  0  0  0  0  0  0  0  0
   49.5701   28.4805   43.0731 H   0  0  0  0  0  0  0  0  0  0  0  0
  1  6  2  0
  1  2  1  0
  2  3  2  0
  3  7  1  0
  4  3  1  0
  5 17  1  0
  5  4  2  0
  6  5  1  0
  7 16  1  0
  8  7  2  0
  8  9  1  0
  9 10  2  0
 10 11  1  0
 11 12  2  0
 12 13  1  0
 14 13  2  0
 15 14  1  0
 16 15  2  0
 16 11  1  0
 17 19  1  0
 17 20  1  0
 18 17  1  0
 21 20  1  0
 21 22  1  0
 23 22  1  0
 24 23  1  0
 25 26  1  0
 25 24  1  0
 26 21  1  0
  1 27  1  0
  2 28  1  0
  9 29  1  0
 12 30  1  0
 13 31  1  0
 14 32  1  0
 15 33  1  0
 18 34  1  0
 18 35  1  0
 18 36  1  0
 19 37  1  0
 19 38  1  0
 19 39  1  0
 20 40  1  0
 20 41  1  0
 22 42  1  0
 22 43  1  0
 23 44  1  0
 23 45  1  0
 24 46  1  0
 25 47  1  0
 25 48  1  0
 26 49  1  0
 26 50  1  0
M  ISO  8  27  14  28  14  29  14  30  14  31  14  32  14  33  14  34   8
M  ISO  8  35   8  36   8  37   8  38   8  39   8  40   8  41   8  42  13
M  ISO  8  43  13  44  13  45  13  46   5  47  13  48  13  49  13  50  13
M  END
>  <minimizedAffinity>  (1) 
-5.39804649

>  <minimizedRMSD>  (1) 
2.03529024

$$$$
