
     RDKit          3D

 52 56  0  0  1  0  0  0  0  0999 V2000
   46.0920   32.0840   45.3550 C   0  0  1  0  0  0  0  0  0  0  0  0
   45.7930   32.1490   49.0540 C   0  0  0  0  0  0  0  0  0  0  0  0
   45.3690   30.8190   49.3340 C   0  0  0  0  0  0  0  0  0  0  0  0
   45.2000   29.9290   48.2440 C   0  0  0  0  0  0  0  0  0  0  0  0
   45.4510   30.3920   46.9940 N   0  0  0  0  0  0  0  0  0  0  0  0
   45.8520   31.6570   46.7620 C   0  0  0  0  0  0  0  0  0  0  0  0
   46.0170   32.5190   47.7980 N   0  0  0  0  0  0  0  0  0  0  0  0
   46.6370   33.4340   45.2410 C   0  0  0  0  0  0  0  0  0  0  0  0
   45.6850   34.2480   44.4020 C   0  0  0  0  0  0  0  0  0  0  0  0
   44.9020   35.1740   45.0160 C   0  0  0  0  0  0  0  0  0  0  0  0
   44.1280   35.7860   44.0520 C   0  0  0  0  0  0  0  0  0  0  0  0
   44.5060   35.1720   42.8940 N   0  0  0  0  0  0  0  0  0  0  0  0
   45.4380   34.2450   43.0680 N   0  0  0  0  0  0  0  0  0  0  0  0
   44.5180   34.5850   40.5620 N   0  0  0  0  0  0  0  0  0  0  0  0
   43.3990   34.1290   39.7560 C   0  0  0  0  0  0  0  0  0  0  0  0
   42.3070   33.9670   40.8070 C   0  0  0  0  0  0  0  0  0  0  0  0
   42.4670   35.2910   41.5470 C   0  0  0  0  0  0  0  0  0  0  0  0
   43.9730   35.4590   41.5520 C   0  0  1  0  0  0  0  0  0  0  0  0
   46.9210   31.0080   44.6760 C   0  0  0  0  0  0  0  0  0  0  0  0
   46.8450   30.9320   43.2300 C   0  0  0  0  0  0  0  0  0  0  0  0
   45.9280   30.4120   42.3570 C   0  0  0  0  0  0  0  0  0  0  0  0
   46.2020   30.6230   41.0380 N   0  0  0  0  0  0  0  0  0  0  0  0
   47.3540   31.3140   41.0580 C   0  0  0  0  0  0  0  0  0  0  0  0
   48.1370   31.7720   39.9890 C   0  0  0  0  0  0  0  0  0  0  0  0
   49.3210   32.4250   40.2390 C   0  0  0  0  0  0  0  0  0  0  0  0
   49.7250   32.6210   41.5300 C   0  0  0  0  0  0  0  0  0  0  0  0
   48.9840   32.1850   42.6320 C   0  0  0  0  0  0  0  0  0  0  0  0
   47.7770   31.5220   42.3510 C   0  0  0  0  0  0  0  0  0  0  0  0
   45.1326   32.1735   44.8244 H   0  0  0  0  0  0  0  0  0  0  0  0
   45.9346   32.8676   49.8747 H   0  0  0  0  0  0  0  0  0  0  0  0
   45.1781   30.4916   50.3666 H   0  0  0  0  0  0  0  0  0  0  0  0
   44.8742   28.8911   48.4073 H   0  0  0  0  0  0  0  0  0  0  0  0
   46.7332   33.8839   46.2401 H   0  0  0  0  0  0  0  0  0  0  0  0
   47.6327   33.4074   44.7743 H   0  0  0  0  0  0  0  0  0  0  0  0
   44.8880   35.3965   46.0932 H   0  0  0  0  0  0  0  0  0  0  0  0
   43.3811   36.5824   44.1857 H   0  0  0  0  0  0  0  0  0  0  0  0
   45.1968   35.0908   39.9752 H   0  0  0  0  0  0  0  0  0  0  0  0
   43.1192   34.8764   38.9990 H   0  0  0  0  0  0  0  0  0  0  0  0
   43.6057   33.2136   39.1821 H   0  0  0  0  0  0  0  0  0  0  0  0
   41.3106   33.8701   40.3512 H   0  0  0  0  0  0  0  0  0  0  0  0
   42.3927   33.0678   41.4348 H   0  0  0  0  0  0  0  0  0  0  0  0
   41.9734   36.1136   41.0087 H   0  0  0  0  0  0  0  0  0  0  0  0
   42.0129   35.3007   42.5489 H   0  0  0  0  0  0  0  0  0  0  0  0
   44.2553   36.4940   41.3092 H   0  0  0  0  0  0  0  0  0  0  0  0
   47.9736   31.1816   44.9442 H   0  0  0  0  0  0  0  0  0  0  0  0
   46.5017   30.0562   45.0342 H   0  0  0  0  0  0  0  0  0  0  0  0
   45.0358   29.8643   42.6945 H   0  0  0  0  0  0  0  0  0  0  0  0
   45.6544   30.3231   40.2188 H   0  0  0  0  0  0  0  0  0  0  0  0
   47.8050   31.6094   38.9530 H   0  0  0  0  0  0  0  0  0  0  0  0
   49.9395   32.7876   39.4048 H   0  0  0  0  0  0  0  0  0  0  0  0
   50.6753   33.1450   41.7096 H   0  0  0  0  0  0  0  0  0  0  0  0
   49.3270   32.3518   43.6637 H   0  0  0  0  0  0  0  0  0  0  0  0
  1  6  1  0
  2  3  2  0
  4  3  1  0
  5  4  2  0
  6  5  1  0
  6  7  2  0
  7  2  1  0
  8  1  1  0
  9 10  1  0
  9  8  1  0
 11 10  2  0
 12 13  1  0
 12 11  1  0
 13  9  2  0
 14 18  1  0
 15 14  1  0
 15 16  1  0
 16 17  1  0
 17 18  1  0
 18 12  1  0
 19  1  1  0
 20 19  1  0
 21 20  2  0
 22 23  1  0
 22 21  1  0
 23 28  2  0
 24 25  2  0
 24 23  1  0
 25 26  1  0
 26 27  2  0
 28 27  1  0
 28 20  1  0
  1 29  1  6
  2 30  1  0
  3 31  1  0
  4 32  1  0
  8 33  1  0
  8 34  1  0
 10 35  1  0
 11 36  1  0
 14 37  1  0
 15 38  1  0
 15 39  1  0
 16 40  1  0
 16 41  1  0
 17 42  1  0
 17 43  1  0
 18 44  1  6
 19 45  1  0
 19 46  1  0
 21 47  1  0
 22 48  1  0
 24 49  1  0
 25 50  1  0
 26 51  1  0
 27 52  1  0
M  ISO  8  29   8  30  14  31  14  32  14  33   8  34   8  35  14  36  14
M  ISO  8  37   5  38  13  39  13  40  13  41  13  42  13  43  13  44  13
M  ISO  8  45   8  46   8  47  14  48   9  49  14  50  14  51  14  52  14
M  END
>  <minimizedAffinity>  (1) 
-5.65492201

>  <minimizedRMSD>  (1) 
0.466667682

$$$$
