
     RDKit          3D

 49 52  0  0  1  0  0  0  0  0999 V2000
   46.1290   32.0760   45.1630 C   0  0  1  0  0  0  0  0  0  0  0  0
   45.8140   32.1090   48.8470 C   0  0  0  0  0  0  0  0  0  0  0  0
   45.4000   30.7540   49.1100 C   0  0  0  0  0  0  0  0  0  0  0  0
   45.2440   29.8610   47.9970 C   0  0  0  0  0  0  0  0  0  0  0  0
   45.5000   30.3550   46.7440 N   0  0  0  0  0  0  0  0  0  0  0  0
   45.8850   31.6320   46.5580 C   0  0  0  0  0  0  0  0  0  0  0  0
   46.0390   32.4930   47.5960 N   0  0  0  0  0  0  0  0  0  0  0  0
   46.6510   33.4370   45.0410 C   0  0  0  0  0  0  0  0  0  0  0  0
   45.6680   34.2660   44.2920 C   0  0  0  0  0  0  0  0  0  0  0  0
   44.9240   35.1950   44.9640 C   0  0  0  0  0  0  0  0  0  0  0  0
   44.1030   35.8240   44.0670 C   0  0  0  0  0  0  0  0  0  0  0  0
   44.4090   35.2210   42.8740 N   0  0  0  0  0  0  0  0  0  0  0  0
   45.3330   34.2990   42.9930 N   0  0  0  0  0  0  0  0  0  0  0  0
   44.3240   34.7250   40.5180 N   0  0  0  0  0  0  0  0  0  0  0  0
   43.1930   34.2430   39.7580 C   0  0  0  0  0  0  0  0  0  0  0  0
   42.1520   34.0130   40.8600 C   0  0  0  0  0  0  0  0  0  0  0  0
   42.2940   35.3040   41.6410 C   0  0  0  0  0  0  0  0  0  0  0  0
   43.7890   35.5450   41.5840 C   0  0  1  0  0  0  0  0  0  0  0  0
   46.9670   31.0110   44.4560 C   0  0  0  0  0  0  0  0  0  0  0  0
   47.6900   31.4490   43.3180 N   0  0  0  0  0  0  0  0  0  0  0  0
   48.9330   31.9360   43.2060 C   0  0  0  0  0  0  0  0  0  0  0  0
   49.4910   32.3040   41.9990 C   0  0  0  0  0  0  0  0  0  0  0  0
   48.7720   32.1830   40.8270 C   0  0  0  0  0  0  0  0  0  0  0  0
   49.3780   32.5730   39.6010 N   0  0  0  0  0  0  0  0  0  0  0  0
   47.5050   31.6880   40.9270 N   0  0  0  0  0  0  0  0  0  0  0  0
   47.0020   31.3390   42.1420 C   0  0  0  0  0  0  0  0  0  0  0  0
   45.8190   30.9080   41.9930 O   0  0  0  0  0  0  0  0  0  0  0  0
   45.1608   32.1616   44.6480 H   0  0  0  0  0  0  0  0  0  0  0  0
   45.9427   32.8199   49.6765 H   0  0  0  0  0  0  0  0  0  0  0  0
   45.2083   30.4125   50.1379 H   0  0  0  0  0  0  0  0  0  0  0  0
   44.9301   28.8171   48.1443 H   0  0  0  0  0  0  0  0  0  0  0  0
   46.8064   33.8639   46.0428 H   0  0  0  0  0  0  0  0  0  0  0  0
   47.6106   33.4209   44.5034 H   0  0  0  0  0  0  0  0  0  0  0  0
   44.9761   35.4022   46.0430 H   0  0  0  0  0  0  0  0  0  0  0  0
   43.3717   36.6232   44.2579 H   0  0  0  0  0  0  0  0  0  0  0  0
   44.9436   35.2855   39.9157 H   0  0  0  0  0  0  0  0  0  0  0  0
   42.8487   34.9941   39.0318 H   0  0  0  0  0  0  0  0  0  0  0  0
   43.4092   33.3489   39.1548 H   0  0  0  0  0  0  0  0  0  0  0  0
   41.1396   33.8973   40.4457 H   0  0  0  0  0  0  0  0  0  0  0  0
   42.3027   33.0981   41.4518 H   0  0  0  0  0  0  0  0  0  0  0  0
   41.7386   36.1238   41.1620 H   0  0  0  0  0  0  0  0  0  0  0  0
   41.8926   35.2497   42.6637 H   0  0  0  0  0  0  0  0  0  0  0  0
   44.0066   36.6042   41.3823 H   0  0  0  0  0  0  0  0  0  0  0  0
   47.6906   30.6136   45.1830 H   0  0  0  0  0  0  0  0  0  0  0  0
   46.2494   30.2646   44.0846 H   0  0  0  0  0  0  0  0  0  0  0  0
   49.5368   32.0477   44.1187 H   0  0  0  0  0  0  0  0  0  0  0  0
   50.5179   32.6973   41.9705 H   0  0  0  0  0  0  0  0  0  0  0  0
   50.3405   32.9398   39.5960 H   0  0  0  0  0  0  0  0  0  0  0  0
   48.8544   32.4887   38.7180 H   0  0  0  0  0  0  0  0  0  0  0  0
  1  6  1  0
  2  3  2  0
  4  3  1  0
  5  4  2  0
  6  5  1  0
  6  7  2  0
  7  2  1  0
  8  1  1  0
  9 10  1  0
  9  8  1  0
 11 10  2  0
 12 13  1  0
 12 11  1  0
 13  9  2  0
 14 18  1  0
 15 14  1  0
 15 16  1  0
 16 17  1  0
 18 17  1  0
 18 12  1  0
 19  1  1  0
 20 19  1  0
 21 20  1  0
 22 21  2  0
 23 25  2  0
 23 22  1  0
 24 23  1  0
 25 26  1  0
 26 20  1  0
 27 26  2  0
  1 28  1  6
  2 29  1  0
  3 30  1  0
  4 31  1  0
  8 32  1  0
  8 33  1  0
 10 34  1  0
 11 35  1  0
 14 36  1  0
 15 37  1  0
 15 38  1  0
 16 39  1  0
 16 40  1  0
 17 41  1  0
 17 42  1  0
 18 43  1  6
 19 44  1  0
 19 45  1  0
 21 46  1  0
 22 47  1  0
 24 48  1  0
 24 49  1  0
M  ISO  8  28   8  29  14  30  14  31  14  32   8  33   8  34  14  35  14
M  ISO  8  36   5  37  13  38  13  39  13  40  13  41  13  42  13  43  13
M  ISO  4  44   8  45   8  46  14  47  14
M  END
>  <minimizedAffinity>  (1) 
-5.50990772

>  <minimizedRMSD>  (1) 
1.15379071

$$$$
