
     RDKit          3D

 51 54  0  0  1  0  0  0  0  0999 V2000
   46.6730   33.2950   45.1320 C   0  0  0  0  0  0  0  0  0  0  0  0
   45.7280   34.1430   44.3720 C   0  0  0  0  0  0  0  0  0  0  0  0
   44.9810   35.0810   45.0550 C   0  0  0  0  0  0  0  0  0  0  0  0
   44.1850   35.7360   44.1550 C   0  0  0  0  0  0  0  0  0  0  0  0
   44.4990   35.1460   42.9560 N   0  0  0  0  0  0  0  0  0  0  0  0
   45.4020   34.2120   43.0770 N   0  0  0  0  0  0  0  0  0  0  0  0
   44.4270   34.6870   40.6010 N   0  0  0  0  0  0  0  0  0  0  0  0
   43.2980   34.2270   39.8160 C   0  0  0  0  0  0  0  0  0  0  0  0
   42.2350   34.0170   40.9050 C   0  0  0  0  0  0  0  0  0  0  0  0
   42.4010   35.2980   41.7000 C   0  0  0  0  0  0  0  0  0  0  0  0
   43.9040   35.5020   41.6620 C   0  0  1  0  0  0  0  0  0  0  0  0
   46.0850   31.9600   45.3180 C   0  0  2  0  0  0  0  0  0  0  0  0
   45.8110   32.2020   49.0090 C   0  0  0  0  0  0  0  0  0  0  0  0
   45.3800   30.8720   49.3430 C   0  0  0  0  0  0  0  0  0  0  0  0
   45.2040   29.9320   48.2890 C   0  0  0  0  0  0  0  0  0  0  0  0
   45.4530   30.3510   47.0160 N   0  0  0  0  0  0  0  0  0  0  0  0
   45.8540   31.5990   46.7450 C   0  0  0  0  0  0  0  0  0  0  0  0
   46.0320   32.5210   47.7350 N   0  0  0  0  0  0  0  0  0  0  0  0
   46.8570   30.8510   44.6570 C   0  0  0  0  0  0  0  0  0  0  0  0
   47.8870   31.0870   43.6970 C   0  0  0  0  0  0  0  0  0  0  0  0
   49.0970   30.2150   43.6080 C   0  0  0  0  0  0  0  0  0  0  0  0
   49.9320   31.0460   42.6180 C   0  0  0  0  0  0  0  0  0  0  0  0
   48.9200   31.8790   41.8210 C   0  0  0  0  0  0  0  0  0  0  0  0
   47.5610   31.2580   42.2400 C   0  0  0  0  0  0  0  0  0  0  0  0
   46.8680   33.7509   46.1139 H   0  0  0  0  0  0  0  0  0  0  0  0
   47.6186   33.2075   44.5769 H   0  0  0  0  0  0  0  0  0  0  0  0
   45.0189   35.2699   46.1380 H   0  0  0  0  0  0  0  0  0  0  0  0
   43.4640   36.5442   44.3470 H   0  0  0  0  0  0  0  0  0  0  0  0
   45.0640   35.2416   40.0114 H   0  0  0  0  0  0  0  0  0  0  0  0
   42.9806   34.9855   39.0853 H   0  0  0  0  0  0  0  0  0  0  0  0
   43.5058   33.3310   39.2126 H   0  0  0  0  0  0  0  0  0  0  0  0
   41.2254   33.9323   40.4767 H   0  0  0  0  0  0  0  0  0  0  0  0
   42.3539   33.0938   41.4912 H   0  0  0  0  0  0  0  0  0  0  0  0
   41.8720   36.1359   41.2224 H   0  0  0  0  0  0  0  0  0  0  0  0
   41.9868   35.2446   42.7176 H   0  0  0  0  0  0  0  0  0  0  0  0
   44.1512   36.5573   41.4744 H   0  0  0  0  0  0  0  0  0  0  0  0
   45.1113   32.0521   44.8147 H   0  0  0  0  0  0  0  0  0  0  0  0
   45.9574   32.9516   49.8007 H   0  0  0  0  0  0  0  0  0  0  0  0
   45.1907   30.5875   50.3886 H   0  0  0  0  0  0  0  0  0  0  0  0
   44.8779   28.9018   48.4948 H   0  0  0  0  0  0  0  0  0  0  0  0
   47.3269   30.2809   45.4720 H   0  0  0  0  0  0  0  0  0  0  0  0
   46.0801   30.3811   44.0360 H   0  0  0  0  0  0  0  0  0  0  0  0
   48.0782   32.0315   44.2274 H   0  0  0  0  0  0  0  0  0  0  0  0
   49.5992   30.1084   44.5809 H   0  0  0  0  0  0  0  0  0  0  0  0
   48.9053   29.1755   43.3036 H   0  0  0  0  0  0  0  0  0  0  0  0
   50.6279   31.7032   43.1600 H   0  0  0  0  0  0  0  0  0  0  0  0
   50.5392   30.4061   41.9609 H   0  0  0  0  0  0  0  0  0  0  0  0
   49.0863   31.7757   40.7386 H   0  0  0  0  0  0  0  0  0  0  0  0
   48.9875   32.9581   42.0234 H   0  0  0  0  0  0  0  0  0  0  0  0
   46.7156   31.9420   42.0743 H   0  0  0  0  0  0  0  0  0  0  0  0
   47.2397   30.3576   41.6959 H   0  0  0  0  0  0  0  0  0  0  0  0
  1 12  1  0
  2  3  1  0
  2  1  1  0
  4  3  2  0
  5  6  1  0
  5  4  1  0
  6  2  2  0
  7 11  1  0
  8  7  1  0
  8  9  1  0
  9 10  1  0
 11 10  1  0
 11  5  1  0
 12 17  1  0
 13 14  2  0
 15 14  1  0
 16 15  2  0
 17 16  1  0
 17 18  2  0
 18 13  1  0
 19 12  1  0
 20 19  1  0
 21 20  1  0
 22 21  1  0
 23 24  1  0
 23 22  1  0
 24 20  1  0
  1 25  1  0
  1 26  1  0
  3 27  1  0
  4 28  1  0
  7 29  1  0
  8 30  1  0
  8 31  1  0
  9 32  1  0
  9 33  1  0
 10 34  1  0
 10 35  1  0
 11 36  1  6
 12 37  1  6
 13 38  1  0
 14 39  1  0
 15 40  1  0
 19 41  1  0
 19 42  1  0
 20 43  1  0
 21 44  1  0
 21 45  1  0
 22 46  1  0
 22 47  1  0
 23 48  1  0
 23 49  1  0
 24 50  1  0
 24 51  1  0
M  ISO  8  25   8  26   8  27  14  28  14  29   5  30  13  31  13  32  13
M  ISO  8  33  13  34  13  35  13  36  13  37   8  38  14  39  14  40  14
M  ISO  8  41   8  42   8  43  13  44  13  45  13  46  13  47  13  48  13
M  ISO  3  49  13  50  13  51  13
M  END
>  <minimizedAffinity>  (1) 
-5.3246851

>  <minimizedRMSD>  (1) 
0.951168954

$$$$
