
     RDKit          3D

 49 52  0  0  0  0  0  0  0  0999 V2000
   47.3240   34.1800   40.1530 C   0  0  0  0  0  0  0  0  0  0  0  0
   46.6550   34.4700   41.3510 C   0  0  0  0  0  0  0  0  0  0  0  0
   47.0590   34.0270   42.6120 C   0  0  0  0  0  0  0  0  0  0  0  0
   48.1620   33.3020   42.4790 N   0  0  0  0  0  0  0  0  0  0  0  0
   48.8410   32.9900   41.4030 C   0  0  0  0  0  0  0  0  0  0  0  0
   48.4210   33.4330   40.2190 N   0  0  0  0  0  0  0  0  0  0  0  0
   46.1770   34.4780   43.6760 C   0  0  0  0  0  0  0  0  0  0  0  0
   45.3920   35.5580   43.5840 N   0  0  0  0  0  0  0  0  0  0  0  0
   44.5840   35.9700   44.5530 C   0  0  0  0  0  0  0  0  0  0  0  0
   44.5080   35.2950   45.7270 N   0  0  0  0  0  0  0  0  0  0  0  0
   45.2550   34.1990   45.9180 C   0  0  0  0  0  0  0  0  0  0  0  0
   45.1680   33.5320   47.1010 C   0  0  0  0  0  0  0  0  0  0  0  0
   45.9370   32.3940   47.3160 C   0  0  0  0  0  0  0  0  0  0  0  0
   46.7770   31.9730   46.3020 C   0  0  0  0  0  0  0  0  0  0  0  0
   46.8110   32.6980   45.1320 C   0  0  0  0  0  0  0  0  0  0  0  0
   46.0780   33.8180   44.8750 C   0  0  0  0  0  0  0  0  0  0  0  0
   50.0470   32.1530   41.6610 C   0  0  0  0  0  0  0  0  0  0  0  0
   50.6000   31.6990   40.3120 C   0  0  0  0  0  0  0  0  0  0  0  0
   51.1370   33.0330   42.2500 C   0  0  0  0  0  0  0  0  0  0  0  0
   49.7880   30.9770   42.5520 C   0  0  0  0  0  0  0  0  0  0  0  0
   52.9690   28.1270   42.8870 C   0  0  0  0  0  0  0  0  0  0  0  0
   53.0380   29.2710   43.6540 C   0  0  0  0  0  0  0  0  0  0  0  0
   52.0360   30.2130   43.5780 C   0  0  0  0  0  0  0  0  0  0  0  0
   50.9300   30.1020   42.7670 C   0  0  0  0  0  0  0  0  0  0  0  0
   50.9060   28.9250   42.0090 C   0  0  0  0  0  0  0  0  0  0  0  0
   51.8830   27.9560   42.0530 C   0  0  0  0  0  0  0  0  0  0  0  0
   54.2880   26.9910   43.0540 S   0  0  0  0  0  0  0  0  0  0  0  0
   54.4290   26.1280   41.8270 O   0  0  0  0  0  0  0  0  0  0  0  0
   53.9890   26.0730   44.2000 O   0  0  0  0  0  0  0  0  0  0  0  0
   46.9525   34.5588   39.1894 H   0  0  0  0  0  0  0  0  0  0  0  0
   45.7483   35.0901   41.2931 H   0  0  0  0  0  0  0  0  0  0  0  0
   43.9688   36.8693   44.4022 H   0  0  0  0  0  0  0  0  0  0  0  0
   44.4890   33.8934   47.8873 H   0  0  0  0  0  0  0  0  0  0  0  0
   45.8787   31.8438   48.2667 H   0  0  0  0  0  0  0  0  0  0  0  0
   47.4046   31.0783   46.4272 H   0  0  0  0  0  0  0  0  0  0  0  0
   47.4858   32.3439   44.3387 H   0  0  0  0  0  0  0  0  0  0  0  0
   51.4409   31.0086   40.4740 H   0  0  0  0  0  0  0  0  0  0  0  0
   49.8088   31.1865   39.7451 H   0  0  0  0  0  0  0  0  0  0  0  0
   50.9486   32.5748   39.7451 H   0  0  0  0  0  0  0  0  0  0  0  0
   51.0872   32.9928   43.3481 H   0  0  0  0  0  0  0  0  0  0  0  0
   52.1206   32.6728   41.9141 H   0  0  0  0  0  0  0  0  0  0  0  0
   50.9922   34.0704   41.9141 H   0  0  0  0  0  0  0  0  0  0  0  0
   49.4608   31.3569   43.5311 H   0  0  0  0  0  0  0  0  0  0  0  0
   49.0273   30.3679   42.0417 H   0  0  0  0  0  0  0  0  0  0  0  0
   53.8935   29.4312   44.3267 H   0  0  0  0  0  0  0  0  0  0  0  0
   52.1257   31.1117   44.2059 H   0  0  0  0  0  0  0  0  0  0  0  0
   50.0516   28.7642   41.3350 H   0  0  0  0  0  0  0  0  0  0  0  0
   51.7987   27.0539   41.4292 H   0  0  0  0  0  0  0  0  0  0  0  0
   55.4391   27.7080   43.2481 H   0  0  0  0  0  0  0  0  0  0  0  0
  1  6  2  0
  1  2  1  0
  2  3  2  0
  3  7  1  0
  4  3  1  0
  5 17  1  0
  5  4  2  0
  6  5  1  0
  7 16  1  0
  8  7  2  0
  8  9  1  0
  9 10  2  0
 10 11  1  0
 11 12  2  0
 12 13  1  0
 14 13  2  0
 15 14  1  0
 16 15  2  0
 16 11  1  0
 17 19  1  0
 17 20  1  0
 18 17  1  0
 20 24  1  0
 21 27  1  0
 21 22  2  0
 23 22  1  0
 24 23  2  0
 25 26  2  0
 25 24  1  0
 26 21  1  0
 27 29  2  0
 28 27  2  0
  1 30  1  0
  2 31  1  0
  9 32  1  0
 12 33  1  0
 13 34  1  0
 14 35  1  0
 15 36  1  0
 18 37  1  0
 18 38  1  0
 18 39  1  0
 19 40  1  0
 19 41  1  0
 19 42  1  0
 20 43  1  0
 20 44  1  0
 22 45  1  0
 23 46  1  0
 25 47  1  0
 26 48  1  0
 27 49  1  0
M  ISO  8  30  14  31  14  32  14  33  14  34  14  35  14  36  14  37   8
M  ISO  8  38   8  39   8  40   8  41   8  42   8  43   8  44   8  45  14
M  ISO  4  46  14  47  14  48  14  49  11
M  END
>  <minimizedAffinity>  (1) 
-5.38732243

>  <minimizedRMSD>  (1) 
3.81389832

$$$$
