
     RDKit          3D

 45 48  0  0  1  0  0  0  0  0999 V2000
   46.7300   33.3350   45.1350 C   0  0  0  0  0  0  0  0  0  0  0  0
   45.7540   34.1680   44.3860 C   0  0  0  0  0  0  0  0  0  0  0  0
   44.9810   35.0660   45.0670 C   0  0  0  0  0  0  0  0  0  0  0  0
   44.1720   35.7050   44.1640 C   0  0  0  0  0  0  0  0  0  0  0  0
   44.5150   35.1360   42.9590 N   0  0  0  0  0  0  0  0  0  0  0  0
   45.4480   34.2290   43.0840 N   0  0  0  0  0  0  0  0  0  0  0  0
   44.4420   34.6670   40.6060 N   0  0  0  0  0  0  0  0  0  0  0  0
   43.3160   34.2090   39.8260 C   0  0  0  0  0  0  0  0  0  0  0  0
   42.2560   34.0010   40.9110 C   0  0  0  0  0  0  0  0  0  0  0  0
   42.4170   35.2850   41.7050 C   0  0  0  0  0  0  0  0  0  0  0  0
   43.9210   35.4850   41.6640 C   0  0  1  0  0  0  0  0  0  0  0  0
   46.1630   31.9970   45.3230 C   0  0  2  0  0  0  0  0  0  0  0  0
   45.8020   32.2060   48.9850 C   0  0  0  0  0  0  0  0  0  0  0  0
   45.3380   30.8760   49.3060 C   0  0  0  0  0  0  0  0  0  0  0  0
   45.1740   29.9490   48.2390 C   0  0  0  0  0  0  0  0  0  0  0  0
   45.4630   30.3660   46.9670 N   0  0  0  0  0  0  0  0  0  0  0  0
   45.8890   31.6050   46.7200 C   0  0  0  0  0  0  0  0  0  0  0  0
   46.0580   32.5210   47.7210 N   0  0  0  0  0  0  0  0  0  0  0  0
   47.0360   30.8960   44.6750 C   0  0  0  0  0  0  0  0  0  0  0  0
   47.3980   31.1790   43.2950 C   0  0  0  0  0  0  0  0  0  0  0  0
   48.7520   31.2230   42.9400 C   0  0  0  0  0  0  0  0  0  0  0  0
   48.8300   31.4970   41.6070 N   0  0  0  0  0  0  0  0  0  0  0  0
   47.5780   31.6250   41.1200 C   0  0  0  0  0  0  0  0  0  0  0  0
   46.7550   31.4260   42.1670 N   0  0  0  0  0  0  0  0  0  0  0  0
   46.9310   33.7924   46.1150 H   0  0  0  0  0  0  0  0  0  0  0  0
   47.6721   33.2657   44.5715 H   0  0  0  0  0  0  0  0  0  0  0  0
   45.0041   35.2449   46.1521 H   0  0  0  0  0  0  0  0  0  0  0  0
   43.4244   36.4884   44.3571 H   0  0  0  0  0  0  0  0  0  0  0  0
   45.0797   35.2189   40.0147 H   0  0  0  0  0  0  0  0  0  0  0  0
   42.9989   34.9672   39.0948 H   0  0  0  0  0  0  0  0  0  0  0  0
   43.5231   33.3119   39.2241 H   0  0  0  0  0  0  0  0  0  0  0  0
   41.2471   33.9129   40.4815 H   0  0  0  0  0  0  0  0  0  0  0  0
   42.3774   33.0798   41.4997 H   0  0  0  0  0  0  0  0  0  0  0  0
   41.8879   36.1219   41.2258 H   0  0  0  0  0  0  0  0  0  0  0  0
   42.0003   35.2366   42.7219 H   0  0  0  0  0  0  0  0  0  0  0  0
   44.1710   36.5386   41.4704 H   0  0  0  0  0  0  0  0  0  0  0  0
   45.1902   32.0782   44.8160 H   0  0  0  0  0  0  0  0  0  0  0  0
   45.9420   32.9516   49.7815 H   0  0  0  0  0  0  0  0  0  0  0  0
   45.1180   30.5884   50.3447 H   0  0  0  0  0  0  0  0  0  0  0  0
   44.8241   28.9239   48.4309 H   0  0  0  0  0  0  0  0  0  0  0  0
   47.9599   30.7933   45.2631 H   0  0  0  0  0  0  0  0  0  0  0  0
   46.4395   29.9718   44.6697 H   0  0  0  0  0  0  0  0  0  0  0  0
   49.6034   31.0642   43.6181 H   0  0  0  0  0  0  0  0  0  0  0  0
   47.2893   31.8463   40.0819 H   0  0  0  0  0  0  0  0  0  0  0  0
   45.7281   31.4626   42.0960 H   0  0  0  0  0  0  0  0  0  0  0  0
  1 12  1  0
  2  3  1  0
  2  1  1  0
  4  3  2  0
  5  6  1  0
  5  4  1  0
  6  2  2  0
  7 11  1  0
  8  7  1  0
  8  9  1  0
  9 10  1  0
 11 10  1  0
 11  5  1  0
 12 17  1  0
 13 14  2  0
 15 14  1  0
 16 15  2  0
 17 16  1  0
 17 18  2  0
 18 13  1  0
 19 12  1  0
 20 19  1  0
 21 20  2  0
 22 21  1  0
 23 22  2  0
 23 24  1  0
 24 20  1  0
  1 25  1  0
  1 26  1  0
  3 27  1  0
  4 28  1  0
  7 29  1  0
  8 30  1  0
  8 31  1  0
  9 32  1  0
  9 33  1  0
 10 34  1  0
 10 35  1  0
 11 36  1  6
 12 37  1  6
 13 38  1  0
 14 39  1  0
 15 40  1  0
 19 41  1  0
 19 42  1  0
 21 43  1  0
 23 44  1  0
 24 45  1  0
M  ISO  8  25   8  26   8  27  14  28  14  29   5  30  13  31  13  32  13
M  ISO  8  33  13  34  13  35  13  36  13  37   8  38  14  39  14  40  14
M  ISO  5  41   8  42   8  43  14  44  14  45   9
M  END
>  <minimizedAffinity>  (1) 
-5.17697525

>  <minimizedRMSD>  (1) 
0.543667078

$$$$
