
     RDKit          3D

 51 54  0  0  1  0  0  0  0  0999 V2000
   46.7400   33.2630   45.0720 C   0  0  0  0  0  0  0  0  0  0  0  0
   45.7630   34.1230   44.3570 C   0  0  0  0  0  0  0  0  0  0  0  0
   45.0080   35.0110   45.0630 C   0  0  0  0  0  0  0  0  0  0  0  0
   44.1880   35.6720   44.1890 C   0  0  0  0  0  0  0  0  0  0  0  0
   44.5080   35.1280   42.9710 N   0  0  0  0  0  0  0  0  0  0  0  0
   45.4380   34.2080   43.0480 N   0  0  0  0  0  0  0  0  0  0  0  0
   44.4320   34.7100   40.5930 N   0  0  0  0  0  0  0  0  0  0  0  0
   43.2920   34.2540   39.8140 C   0  0  0  0  0  0  0  0  0  0  0  0
   42.2520   34.0250   40.8990 C   0  0  0  0  0  0  0  0  0  0  0  0
   42.4010   35.2740   41.7280 C   0  0  0  0  0  0  0  0  0  0  0  0
   43.9040   35.4950   41.6850 C   0  0  1  0  0  0  0  0  0  0  0  0
   46.1300   31.9420   45.3200 C   0  0  2  0  0  0  0  0  0  0  0  0
   45.8320   32.2470   48.9730 C   0  0  0  0  0  0  0  0  0  0  0  0
   45.3600   30.9490   49.3270 C   0  0  0  0  0  0  0  0  0  0  0  0
   45.1670   29.9960   48.2900 C   0  0  0  0  0  0  0  0  0  0  0  0
   45.4430   30.3690   47.0020 N   0  0  0  0  0  0  0  0  0  0  0  0
   45.8860   31.6090   46.7330 C   0  0  0  0  0  0  0  0  0  0  0  0
   46.0790   32.5360   47.6940 N   0  0  0  0  0  0  0  0  0  0  0  0
   46.9400   30.8180   44.6510 C   0  0  0  0  0  0  0  0  0  0  0  0
   47.5540   31.2460   43.4180 N   0  0  0  0  0  0  0  0  0  0  0  0
   46.8230   30.8710   42.2470 C   0  0  0  0  0  0  0  0  0  0  0  0
   47.1580   29.4260   41.8370 C   0  0  0  0  0  0  0  0  0  0  0  0
   48.4470   29.3960   41.3790 O   0  0  0  0  0  0  0  0  0  0  0  0
   49.2420   30.4300   41.9060 C   0  0  0  0  0  0  0  0  0  0  0  0
   48.8790   30.7140   43.3430 C   0  0  0  0  0  0  0  0  0  0  0  0
   47.0094   33.7301   46.0308 H   0  0  0  0  0  0  0  0  0  0  0  0
   47.6461   33.1437   44.4599 H   0  0  0  0  0  0  0  0  0  0  0  0
   45.0504   35.1696   46.1507 H   0  0  0  0  0  0  0  0  0  0  0  0
   43.4474   36.4545   44.4108 H   0  0  0  0  0  0  0  0  0  0  0  0
   45.0526   35.2879   40.0084 H   0  0  0  0  0  0  0  0  0  0  0  0
   42.9626   35.0212   39.0978 H   0  0  0  0  0  0  0  0  0  0  0  0
   43.4978   33.3668   39.1971 H   0  0  0  0  0  0  0  0  0  0  0  0
   41.2404   33.9428   40.4748 H   0  0  0  0  0  0  0  0  0  0  0  0
   42.3928   33.0923   41.4648 H   0  0  0  0  0  0  0  0  0  0  0  0
   41.8584   36.1196   41.2801 H   0  0  0  0  0  0  0  0  0  0  0  0
   41.9915   35.1862   42.7452 H   0  0  0  0  0  0  0  0  0  0  0  0
   44.1433   36.5554   41.5169 H   0  0  0  0  0  0  0  0  0  0  0  0
   45.1338   32.0216   44.8605 H   0  0  0  0  0  0  0  0  0  0  0  0
   45.9920   33.0075   49.7515 H   0  0  0  0  0  0  0  0  0  0  0  0
   45.1505   30.6916   50.3757 H   0  0  0  0  0  0  0  0  0  0  0  0
   44.8044   28.9826   48.5171 H   0  0  0  0  0  0  0  0  0  0  0  0
   47.7288   30.4897   45.3438 H   0  0  0  0  0  0  0  0  0  0  0  0
   46.2463   29.9976   44.4148 H   0  0  0  0  0  0  0  0  0  0  0  0
   45.7454   30.9471   42.4541 H   0  0  0  0  0  0  0  0  0  0  0  0
   47.1018   31.5460   41.4244 H   0  0  0  0  0  0  0  0  0  0  0  0
   47.0569   28.7599   42.7066 H   0  0  0  0  0  0  0  0  0  0  0  0
   46.4687   29.0865   41.0499 H   0  0  0  0  0  0  0  0  0  0  0  0
   50.2997   30.1322   41.8545 H   0  0  0  0  0  0  0  0  0  0  0  0
   49.0684   31.3411   41.3146 H   0  0  0  0  0  0  0  0  0  0  0  0
   48.9298   29.7805   43.9226 H   0  0  0  0  0  0  0  0  0  0  0  0
   49.5864   31.4487   43.7551 H   0  0  0  0  0  0  0  0  0  0  0  0
  1 12  1  0
  2  3  1  0
  2  1  1  0
  4  3  2  0
  5  6  1  0
  5  4  1  0
  6  2  2  0
  7 11  1  0
  8  7  1  0
  8  9  1  0
  9 10  1  0
 11 10  1  0
 11  5  1  0
 12 17  1  0
 13 14  2  0
 15 14  1  0
 16 15  2  0
 17 16  1  0
 17 18  2  0
 18 13  1  0
 19 12  1  0
 20 19  1  0
 21 20  1  0
 22 21  1  0
 23 22  1  0
 23 24  1  0
 24 25  1  0
 25 20  1  0
  1 26  1  0
  1 27  1  0
  3 28  1  0
  4 29  1  0
  7 30  1  0
  8 31  1  0
  8 32  1  0
  9 33  1  0
  9 34  1  0
 10 35  1  0
 10 36  1  0
 11 37  1  6
 12 38  1  6
 13 39  1  0
 14 40  1  0
 15 41  1  0
 19 42  1  0
 19 43  1  0
 21 44  1  0
 21 45  1  0
 22 46  1  0
 22 47  1  0
 24 48  1  0
 24 49  1  0
 25 50  1  0
 25 51  1  0
M  ISO  8  26   8  27   8  28  14  29  14  30   5  31  13  32  13  33  13
M  ISO  8  34  13  35  13  36  13  37  13  38   8  39  14  40  14  41  14
M  ISO  8  42   8  43   8  44  13  45  13  46  13  47  13  48  13  49  13
M  ISO  2  50  13  51  13
M  END
>  <minimizedAffinity>  (1) 
-5.07786512

>  <minimizedRMSD>  (1) 
0.982961714

$$$$
