
     RDKit          3D

 53 56  0  0  1  0  0  0  0  0999 V2000
   46.6930   33.2610   45.1040 C   0  0  0  0  0  0  0  0  0  0  0  0
   45.7280   34.1370   44.3640 C   0  0  0  0  0  0  0  0  0  0  0  0
   45.0050   35.0600   45.0540 C   0  0  0  0  0  0  0  0  0  0  0  0
   44.1980   35.7290   44.1660 C   0  0  0  0  0  0  0  0  0  0  0  0
   44.4940   35.1500   42.9610 N   0  0  0  0  0  0  0  0  0  0  0  0
   45.3950   34.2080   43.0540 N   0  0  0  0  0  0  0  0  0  0  0  0
   44.4060   34.7040   40.5900 N   0  0  0  0  0  0  0  0  0  0  0  0
   43.2780   34.2590   39.8100 C   0  0  0  0  0  0  0  0  0  0  0  0
   42.2330   34.0240   40.8900 C   0  0  0  0  0  0  0  0  0  0  0  0
   42.3920   35.2990   41.7040 C   0  0  0  0  0  0  0  0  0  0  0  0
   43.8880   35.5100   41.6700 C   0  0  1  0  0  0  0  0  0  0  0  0
   46.0380   31.9490   45.3100 C   0  0  2  0  0  0  0  0  0  0  0  0
   45.8310   32.2280   48.9960 C   0  0  0  0  0  0  0  0  0  0  0  0
   45.4050   30.8980   49.3500 C   0  0  0  0  0  0  0  0  0  0  0  0
   45.2120   29.9380   48.3000 C   0  0  0  0  0  0  0  0  0  0  0  0
   45.4470   30.3560   47.0180 N   0  0  0  0  0  0  0  0  0  0  0  0
   45.8370   31.5940   46.7390 C   0  0  0  0  0  0  0  0  0  0  0  0
   46.0280   32.5220   47.7250 N   0  0  0  0  0  0  0  0  0  0  0  0
   46.8470   30.8300   44.6350 C   0  0  0  0  0  0  0  0  0  0  0  0
   46.3100   30.6310   43.2700 N   0  0  0  0  0  0  0  0  0  0  0  0
   45.8490   29.2610   43.2560 C   0  0  0  0  0  0  0  0  0  0  0  0
   46.7110   28.3040   42.5070 C   0  0  0  0  0  0  0  0  0  0  0  0
   46.7580   28.8000   41.0720 C   0  0  0  0  0  0  0  0  0  0  0  0
   47.3960   30.1470   41.0790 C   0  0  0  0  0  0  0  0  0  0  0  0
   47.4120   30.8780   42.3660 C   0  0  0  0  0  0  0  0  0  0  0  0
   46.9412   33.7132   46.0756 H   0  0  0  0  0  0  0  0  0  0  0  0
   47.6248   33.1424   44.5316 H   0  0  0  0  0  0  0  0  0  0  0  0
   45.0576   35.2399   46.1379 H   0  0  0  0  0  0  0  0  0  0  0  0
   43.4829   36.5386   44.3739 H   0  0  0  0  0  0  0  0  0  0  0  0
   45.0407   35.2651   40.0041 H   0  0  0  0  0  0  0  0  0  0  0  0
   42.9525   35.0316   39.0979 H   0  0  0  0  0  0  0  0  0  0  0  0
   43.4848   33.3759   39.1876 H   0  0  0  0  0  0  0  0  0  0  0  0
   41.2220   33.9355   40.4657 H   0  0  0  0  0  0  0  0  0  0  0  0
   42.3631   33.0934   41.4619 H   0  0  0  0  0  0  0  0  0  0  0  0
   41.8591   36.1403   41.2368 H   0  0  0  0  0  0  0  0  0  0  0  0
   41.9771   35.2305   42.7204 H   0  0  0  0  0  0  0  0  0  0  0  0
   44.1341   36.5684   41.4992 H   0  0  0  0  0  0  0  0  0  0  0  0
   45.0425   32.0457   44.8522 H   0  0  0  0  0  0  0  0  0  0  0  0
   45.9899   32.9882   49.7750 H   0  0  0  0  0  0  0  0  0  0  0  0
   45.2315   30.6242   50.4012 H   0  0  0  0  0  0  0  0  0  0  0  0
   44.8887   28.9092   48.5168 H   0  0  0  0  0  0  0  0  0  0  0  0
   47.9072   31.1181   44.5799 H   0  0  0  0  0  0  0  0  0  0  0  0
   46.7657   29.8990   45.2151 H   0  0  0  0  0  0  0  0  0  0  0  0
   45.7832   28.9145   44.2979 H   0  0  0  0  0  0  0  0  0  0  0  0
   44.8821   29.2721   42.7317 H   0  0  0  0  0  0  0  0  0  0  0  0
   47.7234   28.2874   42.9369 H   0  0  0  0  0  0  0  0  0  0  0  0
   46.3111   27.2807   42.5619 H   0  0  0  0  0  0  0  0  0  0  0  0
   45.7380   28.8707   40.6664 H   0  0  0  0  0  0  0  0  0  0  0  0
   47.3327   28.1047   40.4426 H   0  0  0  0  0  0  0  0  0  0  0  0
   48.4400   30.0210   40.7563 H   0  0  0  0  0  0  0  0  0  0  0  0
   46.7739   30.7604   40.4106 H   0  0  0  0  0  0  0  0  0  0  0  0
   48.3401   30.6075   42.8909 H   0  0  0  0  0  0  0  0  0  0  0  0
   47.3290   31.9407   42.0945 H   0  0  0  0  0  0  0  0  0  0  0  0
  1 12  1  0
  2  3  1  0
  2  1  1  0
  4  3  2  0
  5  6  1  0
  5  4  1  0
  6  2  2  0
  7 11  1  0
  8  7  1  0
  8  9  1  0
  9 10  1  0
 11 10  1  0
 11  5  1  0
 12 17  1  0
 13 14  2  0
 15 14  1  0
 16 15  2  0
 17 16  1  0
 17 18  2  0
 18 13  1  0
 19 12  1  0
 20 19  1  0
 21 20  1  0
 22 21  1  0
 23 24  1  0
 23 22  1  0
 24 25  1  0
 25 20  1  0
  1 26  1  0
  1 27  1  0
  3 28  1  0
  4 29  1  0
  7 30  1  0
  8 31  1  0
  8 32  1  0
  9 33  1  0
  9 34  1  0
 10 35  1  0
 10 36  1  0
 11 37  1  6
 12 38  1  6
 13 39  1  0
 14 40  1  0
 15 41  1  0
 19 42  1  0
 19 43  1  0
 21 44  1  0
 21 45  1  0
 22 46  1  0
 22 47  1  0
 23 48  1  0
 23 49  1  0
 24 50  1  0
 24 51  1  0
 25 52  1  0
 25 53  1  0
M  ISO  8  26   8  27   8  28  14  29  14  30   5  31  13  32  13  33  13
M  ISO  8  34  13  35  13  36  13  37  13  38   8  39  14  40  14  41  14
M  ISO  8  42   8  43   8  44  13  45  13  46  13  47  13  48  13  49  13
M  ISO  4  50  13  51  13  52  13  53  13
M  END
>  <minimizedAffinity>  (1) 
-4.91369343

>  <minimizedRMSD>  (1) 
1.5115962

$$$$
