
     RDKit          3D

 23 24  0  0  0  0  0  0  0  0999 V2000
   44.5410   35.6830   44.8410 C   0  0  0  0  0  0  0  0  0  0  0  0
   45.1760   35.5780   43.5720 C   0  0  0  0  0  0  0  0  0  0  0  0
   46.1010   34.5490   43.3890 C   0  0  0  0  0  0  0  0  0  0  0  0
   46.3480   33.6990   44.4350 N   0  0  0  0  0  0  0  0  0  0  0  0
   45.7290   33.8280   45.6210 C   0  0  0  0  0  0  0  0  0  0  0  0
   44.8360   34.8060   45.8270 N   0  0  0  0  0  0  0  0  0  0  0  0
   46.0360   32.9060   46.6630 N   0  0  0  0  0  0  0  0  0  0  0  0
   45.1180   32.8740   47.7850 C   0  0  0  0  0  0  0  0  0  0  0  0
   45.5800   32.0250   48.9240 C   0  0  0  0  0  0  0  0  0  0  0  0
   46.9180   31.6840   48.8400 O   0  0  0  0  0  0  0  0  0  0  0  0
   47.1060   30.9940   47.6480 C   0  0  0  0  0  0  0  0  0  0  0  0
   47.2180   32.0600   46.5670 C   0  0  0  0  0  0  0  0  0  0  0  0
   43.8063   36.4817   45.0208 H   0  0  0  0  0  0  0  0  0  0  0  0
   44.9453   36.2849   42.7614 H   0  0  0  0  0  0  0  0  0  0  0  0
   46.6198   34.4232   42.4272 H   0  0  0  0  0  0  0  0  0  0  0  0
   44.9844   33.9023   48.1520 H   0  0  0  0  0  0  0  0  0  0  0  0
   44.1810   32.4305   47.4171 H   0  0  0  0  0  0  0  0  0  0  0  0
   45.4181   32.5782   49.8609 H   0  0  0  0  0  0  0  0  0  0  0  0
   45.0011   31.0902   48.8916 H   0  0  0  0  0  0  0  0  0  0  0  0
   48.0277   30.3952   47.6929 H   0  0  0  0  0  0  0  0  0  0  0  0
   46.2780   30.2982   47.4472 H   0  0  0  0  0  0  0  0  0  0  0  0
   47.2613   31.5862   45.5752 H   0  0  0  0  0  0  0  0  0  0  0  0
   48.1329   32.6553   46.7029 H   0  0  0  0  0  0  0  0  0  0  0  0
  1  6  2  0
  2  1  1  0
  3  2  2  0
  3  4  1  0
  4  5  2  0
  5  6  1  0
  5  7  1  0
  7  8  1  0
  8  9  1  0
 10  9  1  0
 11 10  1  0
 12  7  1  0
 12 11  1  0
  1 13  1  0
  2 14  1  0
  3 15  1  0
  8 16  1  0
  8 17  1  0
  9 18  1  0
  9 19  1  0
 11 20  1  0
 11 21  1  0
 12 22  1  0
 12 23  1  0
M  ISO  8  13  14  14  14  15  14  16  13  17  13  18  13  19  13  20  13
M  ISO  3  21  13  22  13  23  13
M  END
>  <minimizedAffinity>  (1) 
-4.37848854

>  <minimizedRMSD>  (1) 
0.663753092

$$$$
