
     RDKit          3D

 30 31  0  0  1  0  0  0  0  0999 V2000
   44.5380   35.7210   44.8580 C   0  0  0  0  0  0  0  0  0  0  0  0
   45.1220   35.6080   43.5750 C   0  0  0  0  0  0  0  0  0  0  0  0
   45.9980   34.5540   43.3740 C   0  0  0  0  0  0  0  0  0  0  0  0
   46.2350   33.7080   44.4190 N   0  0  0  0  0  0  0  0  0  0  0  0
   45.6700   33.8410   45.6200 C   0  0  0  0  0  0  0  0  0  0  0  0
   44.8220   34.8410   45.8490 N   0  0  0  0  0  0  0  0  0  0  0  0
   45.9930   32.8940   46.6360 N   0  0  0  0  0  0  0  0  0  0  0  0
   45.1510   32.9690   47.8280 C   0  0  0  0  0  0  0  0  0  0  0  0
   45.5400   32.0020   48.8950 C   0  0  0  0  0  0  0  0  0  0  0  0
   46.8420   31.5520   48.7460 O   0  0  0  0  0  0  0  0  0  0  0  0
   46.9090   30.8910   47.5360 C   0  0  0  0  0  0  0  0  0  0  0  0
   47.0770   31.9500   46.4680 C   0  0  1  0  0  0  0  0  0  0  0  0
   47.1160   31.3630   45.1420 N   0  0  0  0  0  0  0  0  0  0  0  0
   45.9010   30.6550   44.8270 C   0  0  0  0  0  0  0  0  0  0  0  0
   45.0660   30.0930   45.6410 N   0  0  0  0  0  0  0  0  0  0  0  0
   45.3950   30.4460   43.5110 N   0  0  0  0  0  0  0  0  0  0  0  0
   45.2290   30.1160   46.6660 H   0  0  0  0  0  0  0  0  0  0  0  0
   43.8355   36.5438   45.0567 H   0  0  0  0  0  0  0  0  0  0  0  0
   44.8911   36.3246   42.7730 H   0  0  0  0  0  0  0  0  0  0  0  0
   46.4883   34.4031   42.4010 H   0  0  0  0  0  0  0  0  0  0  0  0
   45.2200   33.9870   48.2391 H   0  0  0  0  0  0  0  0  0  0  0  0
   44.1276   32.7122   47.5170 H   0  0  0  0  0  0  0  0  0  0  0  0
   45.4463   32.4972   49.8728 H   0  0  0  0  0  0  0  0  0  0  0  0
   44.8719   31.1313   48.8207 H   0  0  0  0  0  0  0  0  0  0  0  0
   47.7682   30.2042   47.5267 H   0  0  0  0  0  0  0  0  0  0  0  0
   46.0014   30.2947   47.3612 H   0  0  0  0  0  0  0  0  0  0  0  0
   48.0393   32.4722   46.5746 H   0  0  0  0  0  0  0  0  0  0  0  0
   47.9181   31.4429   44.5008 H   0  0  0  0  0  0  0  0  0  0  0  0
   44.5159   29.9272   43.3736 H   0  0  0  0  0  0  0  0  0  0  0  0
   45.9085   30.8138   42.6974 H   0  0  0  0  0  0  0  0  0  0  0  0
  1  6  2  0
  2  1  1  0
  3  2  2  0
  3  4  1  0
  4  5  2  0
  5  6  1  0
  5  7  1  0
  7  8  1  0
  8  9  1  0
 10  9  1  0
 11 10  1  0
 12  7  1  0
 12 11  1  0
 13 12  1  0
 14 13  1  0
 14 15  2  0
 15 17  1  0
 16 14  1  0
  1 18  1  0
  2 19  1  0
  3 20  1  0
  8 21  1  0
  8 22  1  0
  9 23  1  0
  9 24  1  0
 11 25  1  0
 11 26  1  0
 12 27  1  1
 13 28  1  0
 16 29  1  0
 16 30  1  0
M  ISO  8  18  14  19  14  20  14  21  13  22  13  23  13  24  13  25  13
M  ISO  2  26  13  27  13
M  END
>  <minimizedAffinity>  (1) 
-4.87886381

>  <minimizedRMSD>  (1) 
0.773955345

$$$$
