
     RDKit          3D

 34 36  0  0  1  0  0  0  0  0999 V2000
   44.5010   35.7650   44.8660 C   0  0  0  0  0  0  0  0  0  0  0  0
   44.9580   35.6220   43.5300 C   0  0  0  0  0  0  0  0  0  0  0  0
   45.7610   34.5260   43.2430 C   0  0  0  0  0  0  0  0  0  0  0  0
   46.0820   33.6370   44.2280 N   0  0  0  0  0  0  0  0  0  0  0  0
   45.6270   33.8080   45.4910 C   0  0  0  0  0  0  0  0  0  0  0  0
   44.8480   34.8600   45.7970 N   0  0  0  0  0  0  0  0  0  0  0  0
   45.9960   32.8500   46.4690 N   0  0  0  0  0  0  0  0  0  0  0  0
   45.1980   32.8650   47.6910 C   0  0  0  0  0  0  0  0  0  0  0  0
   45.7540   32.0130   48.7850 C   0  0  0  0  0  0  0  0  0  0  0  0
   47.0380   31.5500   48.5310 O   0  0  0  0  0  0  0  0  0  0  0  0
   47.0100   30.8720   47.3300 C   0  0  0  0  0  0  0  0  0  0  0  0
   47.0930   31.9300   46.2480 C   0  0  1  0  0  0  0  0  0  0  0  0
   47.1240   31.3580   44.9270 N   0  0  0  0  0  0  0  0  0  0  0  0
   48.1010   31.6460   44.0480 C   0  0  0  0  0  0  0  0  0  0  0  0
   48.1740   31.1230   42.7700 C   0  0  0  0  0  0  0  0  0  0  0  0
   47.1620   30.2440   42.3980 C   0  0  0  0  0  0  0  0  0  0  0  0
   47.2130   29.6890   41.0840 N   0  0  0  0  0  0  0  0  0  0  0  0
   46.1780   29.9520   43.2790 N   0  0  0  0  0  0  0  0  0  0  0  0
   46.1670   30.5050   44.5230 C   0  0  0  0  0  0  0  0  0  0  0  0
   45.2060   30.1650   45.2660 O   0  0  0  0  0  0  0  0  0  0  0  0
   43.8621   36.6175   45.1398 H   0  0  0  0  0  0  0  0  0  0  0  0
   44.6867   36.3509   42.7522 H   0  0  0  0  0  0  0  0  0  0  0  0
   46.1387   34.3740   42.2211 H   0  0  0  0  0  0  0  0  0  0  0  0
   45.1397   33.9016   48.0544 H   0  0  0  0  0  0  0  0  0  0  0  0
   44.2111   32.4527   47.4341 H   0  0  0  0  0  0  0  0  0  0  0  0
   45.7751   32.6062   49.7111 H   0  0  0  0  0  0  0  0  0  0  0  0
   45.1034   31.1300   48.8684 H   0  0  0  0  0  0  0  0  0  0  0  0
   47.8665   30.1855   47.2591 H   0  0  0  0  0  0  0  0  0  0  0  0
   46.0966   30.2670   47.2313 H   0  0  0  0  0  0  0  0  0  0  0  0
   48.0421   32.4827   46.3092 H   0  0  0  0  0  0  0  0  0  0  0  0
   48.8917   32.3415   44.3661 H   0  0  0  0  0  0  0  0  0  0  0  0
   48.9907   31.3885   42.0826 H   0  0  0  0  0  0  0  0  0  0  0  0
   46.4813   29.0344   40.7727 H   0  0  0  0  0  0  0  0  0  0  0  0
   47.9816   29.9431   40.4471 H   0  0  0  0  0  0  0  0  0  0  0  0
  1  6  2  0
  2  1  1  0
  3  2  2  0
  3  4  1  0
  4  5  2  0
  5  6  1  0
  5  7  1  0
  7  8  1  0
  8  9  1  0
 10  9  1  0
 11 10  1  0
 12  7  1  0
 12 11  1  0
 13 12  1  0
 14 13  1  0
 15 14  2  0
 16 15  1  0
 16 18  2  0
 17 16  1  0
 18 19  1  0
 19 13  1  0
 19 20  2  0
  1 21  1  0
  2 22  1  0
  3 23  1  0
  8 24  1  0
  8 25  1  0
  9 26  1  0
  9 27  1  0
 11 28  1  0
 11 29  1  0
 12 30  1  1
 14 31  1  0
 15 32  1  0
 17 33  1  0
 17 34  1  0
M  ISO  8  21  14  22  14  23  14  24  13  25  13  26  13  27  13  28  13
M  ISO  4  29  13  30  13  31  14  32  14
M  END
>  <minimizedAffinity>  (1) 
-4.74101114

>  <minimizedRMSD>  (1) 
0.806953073

$$$$
