
     RDKit          3D

 34 37  0  0  1  0  0  0  0  0999 V2000
   44.4620   36.0180   44.7890 C   0  0  0  0  0  0  0  0  0  0  0  0
   44.7590   36.0930   43.4080 C   0  0  0  0  0  0  0  0  0  0  0  0
   45.5320   35.0740   42.8730 C   0  0  0  0  0  0  0  0  0  0  0  0
   45.9560   34.0740   43.6930 N   0  0  0  0  0  0  0  0  0  0  0  0
   45.6600   34.0280   44.9960 C   0  0  0  0  0  0  0  0  0  0  0  0
   44.9210   34.9910   45.5370 N   0  0  0  0  0  0  0  0  0  0  0  0
   46.1450   32.9460   45.7760 N   0  0  0  0  0  0  0  0  0  0  0  0
   45.5390   32.8080   47.0970 C   0  0  0  0  0  0  0  0  0  0  0  0
   46.1610   31.7370   47.9370 C   0  0  0  0  0  0  0  0  0  0  0  0
   47.3820   31.3220   47.4590 O   0  0  0  0  0  0  0  0  0  0  0  0
   47.2010   30.8420   46.1740 C   0  0  0  0  0  0  0  0  0  0  0  0
   47.1710   32.0580   45.2720 C   0  0  1  0  0  0  0  0  0  0  0  0
   47.0140   31.7050   43.8840 N   0  0  0  0  0  0  0  0  0  0  0  0
   46.0660   31.0170   43.2440 C   0  0  0  0  0  0  0  0  0  0  0  0
   46.3300   30.9290   41.9170 N   0  0  0  0  0  0  0  0  0  0  0  0
   47.4770   31.5710   41.6680 C   0  0  0  0  0  0  0  0  0  0  0  0
   48.2710   31.8450   40.5740 C   0  0  0  0  0  0  0  0  0  0  0  0
   49.4190   32.5460   40.6280 N   0  0  0  0  0  0  0  0  0  0  0  0
   49.7890   32.9960   41.8520 C   0  0  0  0  0  0  0  0  0  0  0  0
   49.0420   32.7510   42.9540 N   0  0  0  0  0  0  0  0  0  0  0  0
   47.8820   32.0410   42.8850 C   0  0  0  0  0  0  0  0  0  0  0  0
   43.8514   36.8035   45.2583 H   0  0  0  0  0  0  0  0  0  0  0  0
   44.3928   36.9231   42.7861 H   0  0  0  0  0  0  0  0  0  0  0  0
   45.7977   35.0738   41.8056 H   0  0  0  0  0  0  0  0  0  0  0  0
   45.6396   33.7668   47.6268 H   0  0  0  0  0  0  0  0  0  0  0  0
   44.4884   32.5227   46.9397 H   0  0  0  0  0  0  0  0  0  0  0  0
   46.2973   32.1259   48.9569 H   0  0  0  0  0  0  0  0  0  0  0  0
   45.4864   30.8684   47.9163 H   0  0  0  0  0  0  0  0  0  0  0  0
   48.0327   30.1790   45.8934 H   0  0  0  0  0  0  0  0  0  0  0  0
   46.2734   30.2567   46.0905 H   0  0  0  0  0  0  0  0  0  0  0  0
   48.1368   32.5839   45.2957 H   0  0  0  0  0  0  0  0  0  0  0  0
   45.1831   30.5774   43.7311 H   0  0  0  0  0  0  0  0  0  0  0  0
   47.9451   31.4662   39.5940 H   0  0  0  0  0  0  0  0  0  0  0  0
   50.7192   33.5745   41.9522 H   0  0  0  0  0  0  0  0  0  0  0  0
  1  6  2  0
  2  1  1  0
  3  2  2  0
  3  4  1  0
  4  5  2  0
  5  6  1  0
  5  7  1  0
  7  8  1  0
  8  9  1  0
 10  9  1  0
 11 10  1  0
 12  7  1  0
 12 11  1  0
 13 12  1  0
 14 13  1  0
 15 14  2  0
 16 15  1  0
 16 21  2  0
 17 18  2  0
 17 16  1  0
 18 19  1  0
 19 20  2  0
 21 20  1  0
 21 13  1  0
  1 22  1  0
  2 23  1  0
  3 24  1  0
  8 25  1  0
  8 26  1  0
  9 27  1  0
  9 28  1  0
 11 29  1  0
 11 30  1  0
 12 31  1  6
 14 32  1  0
 17 33  1  0
 19 34  1  0
M  ISO  8  22  14  23  14  24  14  25  13  26  13  27  13  28  13  29  13
M  ISO  5  30  13  31  13  32  14  33  14  34  14
M  END
>  <minimizedAffinity>  (1) 
-5.03926516

>  <minimizedRMSD>  (1) 
1.86591864

$$$$
