
     RDKit          3D

 30 32  0  0  1  0  0  0  0  0999 V2000
   44.4570   35.9600   44.7880 C   0  0  0  0  0  0  0  0  0  0  0  0
   44.9320   35.8400   43.4610 C   0  0  0  0  0  0  0  0  0  0  0  0
   45.7380   34.7540   43.1600 C   0  0  0  0  0  0  0  0  0  0  0  0
   46.0190   33.8730   44.1680 N   0  0  0  0  0  0  0  0  0  0  0  0
   45.5570   34.0070   45.4130 C   0  0  0  0  0  0  0  0  0  0  0  0
   44.7810   35.0440   45.7220 N   0  0  0  0  0  0  0  0  0  0  0  0
   45.8970   33.0440   46.4020 N   0  0  0  0  0  0  0  0  0  0  0  0
   45.1220   33.0520   47.6150 C   0  0  0  0  0  0  0  0  0  0  0  0
   45.6590   32.1490   48.6770 C   0  0  0  0  0  0  0  0  0  0  0  0
   46.9350   31.7070   48.4330 O   0  0  0  0  0  0  0  0  0  0  0  0
   46.9360   31.0440   47.2250 C   0  0  0  0  0  0  0  0  0  0  0  0
   47.0000   32.1080   46.1480 C   0  0  1  0  0  0  0  0  0  0  0  0
   47.0620   31.6280   44.8230 C   0  0  0  0  0  0  0  0  0  0  0  0
   48.0300   31.8020   43.6900 C   0  0  0  0  0  0  0  0  0  0  0  0
   47.6980   31.1430   42.5460 C   0  0  0  0  0  0  0  0  0  0  0  0
   46.5130   30.3480   42.4460 C   0  0  0  0  0  0  0  0  0  0  0  0
   45.7560   30.5150   44.1070 S   0  0  0  0  0  0  0  0  0  0  0  0
   43.8156   36.8110   45.0608 H   0  0  0  0  0  0  0  0  0  0  0  0
   44.6703   36.5838   42.6940 H   0  0  0  0  0  0  0  0  0  0  0  0
   46.1379   34.6055   42.1461 H   0  0  0  0  0  0  0  0  0  0  0  0
   45.1041   34.0789   48.0088 H   0  0  0  0  0  0  0  0  0  0  0  0
   44.1181   32.6836   47.3573 H   0  0  0  0  0  0  0  0  0  0  0  0
   45.6577   32.6962   49.6312 H   0  0  0  0  0  0  0  0  0  0  0  0
   45.0106   31.2607   48.7012 H   0  0  0  0  0  0  0  0  0  0  0  0
   47.8112   30.3812   47.1564 H   0  0  0  0  0  0  0  0  0  0  0  0
   46.0368   30.4202   47.1138 H   0  0  0  0  0  0  0  0  0  0  0  0
   47.9655   32.6301   46.2197 H   0  0  0  0  0  0  0  0  0  0  0  0
   48.9389   32.4154   43.7771 H   0  0  0  0  0  0  0  0  0  0  0  0
   48.3610   31.2243   41.6721 H   0  0  0  0  0  0  0  0  0  0  0  0
   46.1452   29.7753   41.5818 H   0  0  0  0  0  0  0  0  0  0  0  0
  1  6  2  0
  2  1  1  0
  3  2  2  0
  3  4  1  0
  4  5  2  0
  5  6  1  0
  5  7  1  0
  7  8  1  0
  8  9  1  0
 10  9  1  0
 11 10  1  0
 12  7  1  0
 12 11  1  0
 13 12  1  0
 14 13  2  0
 15 14  1  0
 16 15  2  0
 16 17  1  0
 17 13  1  0
  1 18  1  0
  2 19  1  0
  3 20  1  0
  8 21  1  0
  8 22  1  0
  9 23  1  0
  9 24  1  0
 11 25  1  0
 11 26  1  0
 12 27  1  1
 14 28  1  0
 15 29  1  0
 16 30  1  0
M  ISO  8  18  14  19  14  20  14  21  13  22  13  23  13  24  13  25  13
M  ISO  5  26  13  27  13  28  14  29  14  30  14
M  END
>  <minimizedAffinity>  (1) 
-4.71357107

>  <minimizedRMSD>  (1) 
0.586790204

$$$$
