
     RDKit          3D

 24 25  0  0  1  0  0  0  0  0999 V2000
   44.5640   35.9370   44.6820 C   0  0  0  0  0  0  0  0  0  0  0  0
   44.6700   35.6270   43.3080 C   0  0  0  0  0  0  0  0  0  0  0  0
   45.1030   34.3490   42.9660 C   0  0  0  0  0  0  0  0  0  0  0  0
   45.4000   33.4720   43.9750 N   0  0  0  0  0  0  0  0  0  0  0  0
   45.2860   33.8070   45.2810 C   0  0  0  0  0  0  0  0  0  0  0  0
   44.8740   35.0220   45.6360 N   0  0  0  0  0  0  0  0  0  0  0  0
   45.6190   32.8200   46.2590 N   0  0  0  0  0  0  0  0  0  0  0  0
   45.2230   33.1270   47.6120 C   0  0  0  0  0  0  0  0  0  0  0  0
   45.7130   32.1380   48.6180 C   0  0  0  0  0  0  0  0  0  0  0  0
   46.7720   31.3920   48.1450 O   0  0  0  0  0  0  0  0  0  0  0  0
   46.3150   30.6660   47.0660 C   0  0  0  0  0  0  0  0  0  0  0  0
   46.3150   31.5940   45.8740 C   0  0  2  0  0  0  0  0  0  0  0  0
   47.5590   31.8120   45.3380 O   0  0  0  0  0  0  0  0  0  0  0  0
   44.2240   36.9384   44.9847 H   0  0  0  0  0  0  0  0  0  0  0  0
   44.4193   36.3691   42.5357 H   0  0  0  0  0  0  0  0  0  0  0  0
   45.2040   34.0511   41.9119 H   0  0  0  0  0  0  0  0  0  0  0  0
   45.6227   34.1175   47.8750 H   0  0  0  0  0  0  0  0  0  0  0  0
   44.1238   33.0981   47.6405 H   0  0  0  0  0  0  0  0  0  0  0  0
   46.0365   32.6802   49.5188 H   0  0  0  0  0  0  0  0  0  0  0  0
   44.8869   31.4466   48.8406 H   0  0  0  0  0  0  0  0  0  0  0  0
   46.9802   29.8103   46.8780 H   0  0  0  0  0  0  0  0  0  0  0  0
   45.3050   30.2743   47.2572 H   0  0  0  0  0  0  0  0  0  0  0  0
   45.7755   31.1134   45.0446 H   0  0  0  0  0  0  0  0  0  0  0  0
   48.2174   31.9274   46.0683 H   0  0  0  0  0  0  0  0  0  0  0  0
  1  6  2  0
  2  1  1  0
  3  2  2  0
  3  4  1  0
  4  5  2  0
  5  6  1  0
  5  7  1  0
  7  8  1  0
  8  9  1  0
 10  9  1  0
 11 10  1  0
 12  7  1  0
 12 11  1  0
 13 12  1  0
  1 14  1  0
  2 15  1  0
  3 16  1  0
  8 17  1  0
  8 18  1  0
  9 19  1  0
  9 20  1  0
 11 21  1  0
 11 22  1  0
 12 23  1  6
 13 24  1  0
M  ISO  8  14  14  15  14  16  14  17  13  18  13  19  13  20  13  21  13
M  ISO  3  22  13  23  13  24   3
M  END
>  <minimizedAffinity>  (1) 
-3.96847129

>  <minimizedRMSD>  (1) 
0.861439824

$$$$
