
     RDKit          3D

 54 55  0  0  1  0  0  0  0  0999 V2000
   44.5750   35.2800   45.7850 C   0  0  0  0  0  0  0  0  0  0  0  0
   44.2180   35.6370   44.4800 C   0  0  0  0  0  0  0  0  0  0  0  0
   44.9210   34.9310   43.4940 C   0  0  0  0  0  0  0  0  0  0  0  0
   45.2260   33.6490   43.8150 N   0  0  0  0  0  0  0  0  0  0  0  0
   45.5940   33.3590   45.0560 C   0  0  0  0  0  0  0  0  0  0  0  0
   45.2630   34.1780   46.0790 N   0  0  0  0  0  0  0  0  0  0  0  0
   46.2830   32.1860   45.3000 N   0  0  0  0  0  0  0  0  0  0  0  0
   46.1060   31.6110   46.6610 C   0  0  0  0  0  0  0  0  0  0  0  0
   47.0920   30.5090   46.9580 C   0  0  0  0  0  0  0  0  0  0  0  0
   48.0650   30.3410   46.0060 O   0  0  0  0  0  0  0  0  0  0  0  0
   47.4600   30.1710   44.7800 C   0  0  0  0  0  0  0  0  0  0  0  0
   47.1470   31.5960   44.3360 C   0  0  1  0  0  0  0  0  0  0  0  0
   44.9730   33.9180   43.0240 H   0  0  0  0  0  0  0  0  0  0  0  0
   46.4720   31.8100   43.1550 N   0  0  0  0  0  0  0  0  0  0  0  0
   45.1840   31.4160   43.0890 C   0  0  0  0  0  0  0  0  0  0  0  0
   44.6980   31.7050   41.6960 C   0  0  0  0  0  0  0  0  0  0  0  0
   45.7570   32.6100   41.1320 C   0  0  0  0  0  0  0  0  0  0  0  0
   46.7180   32.8410   42.3220 C   0  0  2  0  0  0  0  0  0  0  0  0
   47.7950   33.7110   41.8600 C   0  0  0  0  0  0  0  0  0  0  0  0
   48.5840   34.5390   42.8870 C   0  0  0  0  0  0  0  0  0  0  0  0
   49.5070   35.3560   42.0060 C   0  0  0  0  0  0  0  0  0  0  0  0
   48.8960   35.3190   40.6080 C   0  0  0  0  0  0  0  0  0  0  0  0
   47.4640   34.8220   40.9160 C   0  0  0  0  0  0  0  0  0  0  0  0
   44.2724   35.9425   46.6093 H   0  0  0  0  0  0  0  0  0  0  0  0
   43.4405   36.4145   44.5122 H   0  0  0  0  0  0  0  0  0  0  0  0
   45.1015   36.0237   43.9509 H   0  0  0  0  0  0  0  0  0  0  0  0
   43.8313   34.7535   43.9509 H   0  0  0  0  0  0  0  0  0  0  0  0
   44.9210   34.9310   44.5940 H   0  0  0  0  0  0  0  0  0  0  0  0
   44.9210   35.9681   43.1273 H   0  0  0  0  0  0  0  0  0  0  0  0
   45.8191   34.4125   43.1273 H   0  0  0  0  0  0  0  0  0  0  0  0
   44.0229   34.4125   43.1273 H   0  0  0  0  0  0  0  0  0  0  0  0
   46.2398   32.4127   47.4022 H   0  0  0  0  0  0  0  0  0  0  0  0
   45.0965   31.1769   46.7105 H   0  0  0  0  0  0  0  0  0  0  0  0
   47.5841   30.7377   47.9148 H   0  0  0  0  0  0  0  0  0  0  0  0
   46.5149   29.5728   46.9823 H   0  0  0  0  0  0  0  0  0  0  0  0
   48.1413   29.6789   44.0703 H   0  0  0  0  0  0  0  0  0  0  0  0
   46.5662   29.5316   44.8286 H   0  0  0  0  0  0  0  0  0  0  0  0
   48.1587   32.0090   44.2100 H   0  0  0  0  0  0  0  0  0  0  0  0
   45.1089   30.3386   43.2978 H   0  0  0  0  0  0  0  0  0  0  0  0
   44.5749   31.9510   43.8324 H   0  0  0  0  0  0  0  0  0  0  0  0
   44.6190   30.7789   41.1077 H   0  0  0  0  0  0  0  0  0  0  0  0
   43.6957   32.1579   41.6787 H   0  0  0  0  0  0  0  0  0  0  0  0
   46.2803   32.1261   40.2941 H   0  0  0  0  0  0  0  0  0  0  0  0
   45.3451   33.5474   40.7300 H   0  0  0  0  0  0  0  0  0  0  0  0
   46.8451   33.4552   43.2256 H   0  0  0  0  0  0  0  0  0  0  0  0
   48.3456   32.8644   41.4239 H   0  0  0  0  0  0  0  0  0  0  0  0
   47.9161   35.1875   43.4730 H   0  0  0  0  0  0  0  0  0  0  0  0
   49.1146   33.9266   43.6310 H   0  0  0  0  0  0  0  0  0  0  0  0
   49.5650   36.3922   42.3704 H   0  0  0  0  0  0  0  0  0  0  0  0
   50.5298   34.9513   42.0095 H   0  0  0  0  0  0  0  0  0  0  0  0
   49.4332   34.6180   39.9522 H   0  0  0  0  0  0  0  0  0  0  0  0
   48.9342   36.2800   40.0742 H   0  0  0  0  0  0  0  0  0  0  0  0
   46.8521   35.6006   41.3949 H   0  0  0  0  0  0  0  0  0  0  0  0
   46.8666   34.5329   40.0388 H   0  0  0  0  0  0  0  0  0  0  0  0
  1  6  2  0
  2  1  1  0
  4  5  2  0
  5  7  1  0
  5  6  1  0
  7  8  1  0
  8  9  1  0
 10  9  1  0
 11 10  1  0
 12 11  1  0
 12  7  1  0
 13  4  1  0
 14 15  1  0
 14 12  1  0
 16 15  1  0
 17 16  1  0
 17 18  1  0
 18 14  1  0
 19 18  1  0
 19 20  1  0
 21 20  1  0
 22 23  1  0
 22 21  1  0
 23 19  1  0
  1 24  1  0
  2 25  1  0
  2 26  1  0
  2 27  1  0
  3 28  1  0
  3 29  1  0
  3 30  1  0
  3 31  1  0
  8 32  1  0
  8 33  1  0
  9 34  1  0
  9 35  1  0
 11 36  1  0
 11 37  1  0
 12 38  1  6
 15 39  1  0
 15 40  1  0
 16 41  1  0
 16 42  1  0
 17 43  1  0
 17 44  1  0
 18 45  1  6
 19 46  1  0
 20 47  1  0
 20 48  1  0
 21 49  1  0
 21 50  1  0
 22 51  1  0
 22 52  1  0
 23 53  1  0
 23 54  1  0
M  ISO  8  25   8  26   8  27   8  28   8  29   8  30   8  31   8  32  13
M  ISO  8  33  13  34  13  35  13  36  13  37  13  38  13  39  13  40  13
M  ISO  8  41  13  42  13  43  13  44  13  45  13  46  13  47  13  48  13
M  ISO  6  49  13  50  13  51  13  52  13  53  13  54  13
M  END
>  <minimizedAffinity>  (1) 
-5.28080654

>  <minimizedRMSD>  (1) 
2.04993677

$$$$
