
     RDKit          3D

 47 48  0  0  1  0  0  0  0  0999 V2000
   44.6370   35.4100   45.4630 C   0  0  0  0  0  0  0  0  0  0  0  0
   44.5760   36.1000   44.2460 C   0  0  0  0  0  0  0  0  0  0  0  0
   45.4850   35.6350   43.2780 C   0  0  0  0  0  0  0  0  0  0  0  0
   45.7140   34.2900   43.3350 N   0  0  0  0  0  0  0  0  0  0  0  0
   45.8080   33.6830   44.5070 C   0  0  0  0  0  0  0  0  0  0  0  0
   45.2530   34.2370   45.6080 N   0  0  0  0  0  0  0  0  0  0  0  0
   46.4530   32.4650   44.5950 N   0  0  0  0  0  0  0  0  0  0  0  0
   45.9650   31.5590   45.6660 C   0  0  0  0  0  0  0  0  0  0  0  0
   46.8850   30.3860   45.9040 C   0  0  0  0  0  0  0  0  0  0  0  0
   48.0670   30.4460   45.2170 O   0  0  0  0  0  0  0  0  0  0  0  0
   47.8370   30.6530   43.8790 C   0  0  0  0  0  0  0  0  0  0  0  0
   47.5540   32.1320   43.7580 C   0  0  1  0  0  0  0  0  0  0  0  0
   45.6410   34.7430   42.5850 H   0  0  0  0  0  0  0  0  0  0  0  0
   47.1880   32.6620   42.5230 N   0  0  0  0  0  0  0  0  0  0  0  0
   45.9150   32.4610   42.1180 C   0  0  0  0  0  0  0  0  0  0  0  0
   45.8090   33.1080   40.7540 C   0  0  0  0  0  0  0  0  0  0  0  0
   47.0580   33.9960   40.6900 C   0  0  0  0  0  0  0  0  0  0  0  0
   47.6900   33.8150   42.0690 C   0  0  2  0  0  0  0  0  0  0  0  0
   49.0270   33.1500   41.7100 C   0  0  0  0  0  0  0  0  0  0  0  0
   49.0040   32.3100   40.4350 C   0  0  0  0  0  0  0  0  0  0  0  0
   50.6860   31.6930   40.3160 S   0  0  0  0  0  0  0  0  0  0  0  0
   51.2180   32.5590   41.8810 C   0  0  0  0  0  0  0  0  0  0  0  0
   50.2400   33.0970   42.2190 N   0  0  0  0  0  0  0  0  0  0  0  0
   44.1525   35.8583   46.3429 H   0  0  0  0  0  0  0  0  0  0  0  0
   44.4807   37.1785   44.4404 H   0  0  0  0  0  0  0  0  0  0  0  0
   45.4944   35.9109   43.6708 H   0  0  0  0  0  0  0  0  0  0  0  0
   43.7051   35.7527   43.6708 H   0  0  0  0  0  0  0  0  0  0  0  0
   45.4850   35.6350   44.3780 H   0  0  0  0  0  0  0  0  0  0  0  0
   45.4850   36.6721   42.9113 H   0  0  0  0  0  0  0  0  0  0  0  0
   46.3831   35.1165   42.9113 H   0  0  0  0  0  0  0  0  0  0  0  0
   44.5869   35.1165   42.9113 H   0  0  0  0  0  0  0  0  0  0  0  0
   45.8790   32.1334   46.6002 H   0  0  0  0  0  0  0  0  0  0  0  0
   44.9932   31.1575   45.3429 H   0  0  0  0  0  0  0  0  0  0  0  0
   47.1138   30.3408   46.9790 H   0  0  0  0  0  0  0  0  0  0  0  0
   46.3556   29.4930   45.5403 H   0  0  0  0  0  0  0  0  0  0  0  0
   48.7226   30.3786   43.2870 H   0  0  0  0  0  0  0  0  0  0  0  0
   47.0052   30.0398   43.5019 H   0  0  0  0  0  0  0  0  0  0  0  0
   48.5378   32.5541   44.0107 H   0  0  0  0  0  0  0  0  0  0  0  0
   45.7005   31.3843   42.0489 H   0  0  0  0  0  0  0  0  0  0  0  0
   45.1920   32.8906   42.8271 H   0  0  0  0  0  0  0  0  0  0  0  0
   45.8219   32.3509   39.9561 H   0  0  0  0  0  0  0  0  0  0  0  0
   44.8731   33.6687   40.6138 H   0  0  0  0  0  0  0  0  0  0  0  0
   47.7409   33.6587   39.8964 H   0  0  0  0  0  0  0  0  0  0  0  0
   46.8277   35.0461   40.4569 H   0  0  0  0  0  0  0  0  0  0  0  0
   47.6271   34.7244   42.6847 H   0  0  0  0  0  0  0  0  0  0  0  0
   48.1602   32.1270   39.7535 H   0  0  0  0  0  0  0  0  0  0  0  0
   52.2064   32.5614   42.3638 H   0  0  0  0  0  0  0  0  0  0  0  0
  1  6  2  0
  2  1  1  0
  4  5  2  0
  5  7  1  0
  5  6  1  0
  7  8  1  0
  8  9  1  0
 10  9  1  0
 11 10  1  0
 12 11  1  0
 12  7  1  0
 13  4  1  0
 14 15  1  0
 14 12  1  0
 16 15  1  0
 17 16  1  0
 17 18  1  0
 18 14  1  0
 19 18  1  0
 19 23  1  0
 20 19  2  0
 21 20  1  0
 21 22  1  0
 22 23  2  0
  1 24  1  0
  2 25  1  0
  2 26  1  0
  2 27  1  0
  3 28  1  0
  3 29  1  0
  3 30  1  0
  3 31  1  0
  8 32  1  0
  8 33  1  0
  9 34  1  0
  9 35  1  0
 11 36  1  0
 11 37  1  0
 12 38  1  1
 15 39  1  0
 15 40  1  0
 16 41  1  0
 16 42  1  0
 17 43  1  0
 17 44  1  0
 18 45  1  1
 20 46  1  0
 22 47  1  0
M  ISO  8  25   8  26   8  27   8  28   8  29   8  30   8  31   8  32  13
M  ISO  8  33  13  34  13  35  13  36  13  37  13  38  13  39  13  40  13
M  ISO  7  41  13  42  13  43  13  44  13  45  13  46  14  47  14
M  END
>  <minimizedAffinity>  (1) 
-4.98503065

>  <minimizedRMSD>  (1) 
2.85543776

$$$$
