
     RDKit          3D

 48 49  0  0  1  0  0  0  0  0999 V2000
   44.4180   36.0260   44.8210 C   0  0  0  0  0  0  0  0  0  0  0  0
   44.3530   36.0400   43.4210 C   0  0  0  0  0  0  0  0  0  0  0  0
   45.2210   35.1290   42.7990 C   0  0  0  0  0  0  0  0  0  0  0  0
   45.4130   33.9690   43.5000 N   0  0  0  0  0  0  0  0  0  0  0  0
   45.5090   34.0080   44.8220 C   0  0  0  0  0  0  0  0  0  0  0  0
   44.9970   35.0470   45.5160 N   0  0  0  0  0  0  0  0  0  0  0  0
   46.1130   32.9610   45.4890 N   0  0  0  0  0  0  0  0  0  0  0  0
   45.6250   32.7120   46.8700 C   0  0  0  0  0  0  0  0  0  0  0  0
   46.5160   31.7750   47.6430 C   0  0  0  0  0  0  0  0  0  0  0  0
   47.6860   31.4430   47.0050 O   0  0  0  0  0  0  0  0  0  0  0  0
   47.4070   30.9650   45.7440 C   0  0  0  0  0  0  0  0  0  0  0  0
   47.1750   32.2090   44.9140 C   0  0  1  0  0  0  0  0  0  0  0  0
   45.3380   34.0160   42.6280 H   0  0  0  0  0  0  0  0  0  0  0  0
   46.7870   32.0840   43.5860 N   0  0  0  0  0  0  0  0  0  0  0  0
   45.5890   31.5300   43.3260 C   0  0  0  0  0  0  0  0  0  0  0  0
   45.4610   31.5050   41.8170 C   0  0  0  0  0  0  0  0  0  0  0  0
   46.5620   32.4690   41.3590 C   0  0  0  0  0  0  0  0  0  0  0  0
   47.1440   33.0030   42.6620 C   0  0  2  0  0  0  0  0  0  0  0  0
   48.5590   32.4250   42.5650 C   0  0  0  0  0  0  0  0  0  0  0  0
   49.8130   33.0020   42.4950 C   0  0  0  0  0  0  0  0  0  0  0  0
   50.7900   32.0700   42.4170 C   0  0  0  0  0  0  0  0  0  0  0  0
   50.1230   30.8970   42.4380 C   0  0  0  0  0  0  0  0  0  0  0  0
   48.8700   31.1260   42.5220 O   0  0  0  0  0  0  0  0  0  0  0  0
   43.9690   36.8645   45.3736 H   0  0  0  0  0  0  0  0  0  0  0  0
   43.3233   36.2618   43.1039 H   0  0  0  0  0  0  0  0  0  0  0  0
   45.0315   36.8126   43.0301 H   0  0  0  0  0  0  0  0  0  0  0  0
   44.6532   35.0566   43.0301 H   0  0  0  0  0  0  0  0  0  0  0  0
   45.2210   35.1290   43.8990 H   0  0  0  0  0  0  0  0  0  0  0  0
   45.2210   36.1661   42.4323 H   0  0  0  0  0  0  0  0  0  0  0  0
   46.1191   34.6105   42.4323 H   0  0  0  0  0  0  0  0  0  0  0  0
   44.3229   34.6105   42.4323 H   0  0  0  0  0  0  0  0  0  0  0  0
   45.5768   33.6723   47.4044 H   0  0  0  0  0  0  0  0  0  0  0  0
   44.6350   32.2390   46.7916 H   0  0  0  0  0  0  0  0  0  0  0  0
   46.7708   32.2546   48.5996 H   0  0  0  0  0  0  0  0  0  0  0  0
   45.9517   30.8390   47.7669 H   0  0  0  0  0  0  0  0  0  0  0  0
   48.2558   30.3867   45.3501 H   0  0  0  0  0  0  0  0  0  0  0  0
   46.5413   30.2865   45.7344 H   0  0  0  0  0  0  0  0  0  0  0  0
   48.1820   32.6515   44.9179 H   0  0  0  0  0  0  0  0  0  0  0  0
   45.5443   30.5081   43.7306 H   0  0  0  0  0  0  0  0  0  0  0  0
   44.7713   32.1002   43.7910 H   0  0  0  0  0  0  0  0  0  0  0  0
   45.6333   30.4926   41.4227 H   0  0  0  0  0  0  0  0  0  0  0  0
   44.4599   31.7922   41.4630 H   0  0  0  0  0  0  0  0  0  0  0  0
   47.3291   31.9387   40.7756 H   0  0  0  0  0  0  0  0  0  0  0  0
   46.1826   33.2674   40.7043 H   0  0  0  0  0  0  0  0  0  0  0  0
   46.9339   34.0681   42.8395 H   0  0  0  0  0  0  0  0  0  0  0  0
   49.9943   34.0869   42.5019 H   0  0  0  0  0  0  0  0  0  0  0  0
   51.8762   32.2308   42.3516 H   0  0  0  0  0  0  0  0  0  0  0  0
   50.5862   29.9004   42.3902 H   0  0  0  0  0  0  0  0  0  0  0  0
  1  6  2  0
  2  1  1  0
  4  5  2  0
  5  7  1  0
  5  6  1  0
  7  8  1  0
  8  9  1  0
 10  9  1  0
 11 10  1  0
 12  7  1  0
 12 11  1  0
 13  4  1  0
 14 15  1  0
 14 12  1  0
 16 15  1  0
 17 16  1  0
 17 18  1  0
 18 14  1  0
 19 18  1  0
 20 19  2  0
 21 22  2  0
 21 20  1  0
 22 23  1  0
 23 19  1  0
  1 24  1  0
  2 25  1  0
  2 26  1  0
  2 27  1  0
  3 28  1  0
  3 29  1  0
  3 30  1  0
  3 31  1  0
  8 32  1  0
  8 33  1  0
  9 34  1  0
  9 35  1  0
 11 36  1  0
 11 37  1  0
 12 38  1  6
 15 39  1  0
 15 40  1  0
 16 41  1  0
 16 42  1  0
 17 43  1  0
 17 44  1  0
 18 45  1  1
 20 46  1  0
 21 47  1  0
 22 48  1  0
M  ISO  8  25   8  26   8  27   8  28   8  29   8  30   8  31   8  32  13
M  ISO  8  33  13  34  13  35  13  36  13  37  13  38  13  39  13  40  13
M  ISO  8  41  13  42  13  43  13  44  13  45  13  46  14  47  14  48  14
M  END
>  <minimizedAffinity>  (1) 
-4.66224384

>  <minimizedRMSD>  (1) 
1.60256052

$$$$
