
     RDKit          3D

 39 41  0  0  0  0  0  0  0  0999 V2000
   45.6540   33.9630   41.9370 C   0  0  0  0  0  0  0  0  0  0  0  0
   45.4630   33.8840   45.6020 C   0  0  0  0  0  0  0  0  0  0  0  0
   44.7520   35.0280   45.8200 C   0  0  0  0  0  0  0  0  0  0  0  0
   44.4750   35.6620   44.1390 S   0  0  0  0  0  0  0  0  0  0  0  0
   45.4230   34.1850   43.4020 C   0  0  0  0  0  0  0  0  0  0  0  0
   45.7130   33.6070   44.3640 N   0  0  0  0  0  0  0  0  0  0  0  0
   45.5220   31.9960   48.9220 C   0  0  0  0  0  0  0  0  0  0  0  0
   45.0800   32.7740   47.8580 C   0  0  0  0  0  0  0  0  0  0  0  0
   45.8890   33.0570   46.7680 C   0  0  0  0  0  0  0  0  0  0  0  0
   47.1330   32.5210   46.8190 N   0  0  0  0  0  0  0  0  0  0  0  0
   47.5810   31.7650   47.8400 C   0  0  0  0  0  0  0  0  0  0  0  0
   46.7630   31.5200   48.8710 N   0  0  0  0  0  0  0  0  0  0  0  0
   44.4200   34.4260   41.2260 C   0  0  0  0  0  0  0  0  0  0  0  0
   45.8820   32.4860   41.7530 C   0  0  0  0  0  0  0  0  0  0  0  0
   46.8440   34.7490   41.4670 C   0  0  0  0  0  0  0  0  0  0  0  0
   48.0830   34.0250   41.4770 N   0  0  0  0  0  0  0  0  0  0  0  0
   48.8710   33.9970   42.5890 C   0  0  0  0  0  0  0  0  0  0  0  0
   50.0690   33.3180   42.6550 C   0  0  0  0  0  0  0  0  0  0  0  0
   50.5270   32.6220   41.5630 C   0  0  0  0  0  0  0  0  0  0  0  0
   51.7560   31.9240   41.6250 N   0  0  0  0  0  0  0  0  0  0  0  0
   49.7480   32.6520   40.4700 N   0  0  0  0  0  0  0  0  0  0  0  0
   48.5960   33.3220   40.4500 C   0  0  0  0  0  0  0  0  0  0  0  0
   47.9340   33.2930   39.3810 O   0  0  0  0  0  0  0  0  0  0  0  0
   44.4264   35.4604   46.7776 H   0  0  0  0  0  0  0  0  0  0  0  0
   44.8664   31.7809   49.7787 H   0  0  0  0  0  0  0  0  0  0  0  0
   44.0570   33.1775   47.8816 H   0  0  0  0  0  0  0  0  0  0  0  0
   48.6020   31.3558   47.8268 H   0  0  0  0  0  0  0  0  0  0  0  0
   43.6569   34.7123   41.9647 H   0  0  0  0  0  0  0  0  0  0  0  0
   44.6639   35.2938   40.5955 H   0  0  0  0  0  0  0  0  0  0  0  0
   44.0329   33.6120   40.5955 H   0  0  0  0  0  0  0  0  0  0  0  0
   45.9569   32.0011   42.7375 H   0  0  0  0  0  0  0  0  0  0  0  0
   45.0402   32.0519   41.1935 H   0  0  0  0  0  0  0  0  0  0  0  0
   46.8155   32.3260   41.1935 H   0  0  0  0  0  0  0  0  0  0  0  0
   46.9548   35.6267   42.1207 H   0  0  0  0  0  0  0  0  0  0  0  0
   46.6470   35.0131   40.4175 H   0  0  0  0  0  0  0  0  0  0  0  0
   48.5331   34.5452   43.4808 H   0  0  0  0  0  0  0  0  0  0  0  0
   50.6588   33.3336   43.5834 H   0  0  0  0  0  0  0  0  0  0  0  0
   52.0948   31.4037   40.8032 H   0  0  0  0  0  0  0  0  0  0  0  0
   52.3120   31.9361   42.4920 H   0  0  0  0  0  0  0  0  0  0  0  0
  1  5  1  0
  2  3  2  0
  2  9  1  0
  4  3  1  0
  5  4  1  0
  5  6  2  0
  6  2  1  0
  8  7  2  0
  9 10  2  0
  9  8  1  0
 10 11  1  0
 11 12  2  0
 12  7  1  0
 13  1  1  0
 14  1  1  0
 15 16  1  0
 15  1  1  0
 16 17  1  0
 17 18  2  0
 19 20  1  0
 19 18  1  0
 21 19  2  0
 22 21  1  0
 22 16  1  0
 23 22  2  0
  3 24  1  0
  7 25  1  0
  8 26  1  0
 11 27  1  0
 13 28  1  0
 13 29  1  0
 13 30  1  0
 14 31  1  0
 14 32  1  0
 14 33  1  0
 15 34  1  0
 15 35  1  0
 17 36  1  0
 18 37  1  0
 20 38  1  0
 20 39  1  0
M  ISO  8  24  14  25  14  26  14  27  14  28   8  29   8  30   8  31   8
M  ISO  6  32   8  33   8  34   8  35   8  36  14  37  14
M  END
>  <minimizedAffinity>  (1) 
-5.56143379

>  <minimizedRMSD>  (1) 
3.62460136

$$$$
