
     RDKit          3D

 34 35  0  0  0  0  0  0  0  0999 V2000
   45.4890   33.5770   41.9240 C   0  0  0  0  0  0  0  0  0  0  0  0
   45.4750   33.7610   45.6000 C   0  0  0  0  0  0  0  0  0  0  0  0
   44.8460   34.9410   45.7530 C   0  0  0  0  0  0  0  0  0  0  0  0
   44.5200   35.4720   44.0520 S   0  0  0  0  0  0  0  0  0  0  0  0
   45.3480   33.9020   43.3740 C   0  0  0  0  0  0  0  0  0  0  0  0
   45.6310   33.4190   44.3740 N   0  0  0  0  0  0  0  0  0  0  0  0
   45.5720   31.9750   48.9680 C   0  0  0  0  0  0  0  0  0  0  0  0
   45.1160   32.7090   47.8870 C   0  0  0  0  0  0  0  0  0  0  0  0
   45.9220   32.9790   46.7840 C   0  0  0  0  0  0  0  0  0  0  0  0
   47.1610   32.4650   46.8780 N   0  0  0  0  0  0  0  0  0  0  0  0
   47.6340   31.7540   47.9020 C   0  0  0  0  0  0  0  0  0  0  0  0
   46.8190   31.5220   48.9380 N   0  0  0  0  0  0  0  0  0  0  0  0
   44.1140   33.5060   41.3430 C   0  0  0  0  0  0  0  0  0  0  0  0
   46.2190   32.2560   41.8580 C   0  0  0  0  0  0  0  0  0  0  0  0
   46.2990   34.6460   41.2270 C   0  0  0  0  0  0  0  0  0  0  0  0
   47.5840   34.7510   41.9110 N   0  0  0  0  0  0  0  0  0  0  0  0
   48.5820   35.3690   41.0860 C   0  0  0  0  0  0  0  0  0  0  0  0
   48.7190   34.9770   39.7260 N   0  0  0  0  0  0  0  0  0  0  0  0
   49.2330   36.2250   41.7270 O   0  0  0  0  0  0  0  0  0  0  0  0
   44.5905   35.4598   46.6887 H   0  0  0  0  0  0  0  0  0  0  0  0
   44.9182   31.7725   49.8291 H   0  0  0  0  0  0  0  0  0  0  0  0
   44.0846   33.0911   47.8995 H   0  0  0  0  0  0  0  0  0  0  0  0
   48.6645   31.3692   47.8955 H   0  0  0  0  0  0  0  0  0  0  0  0
   43.3740   33.4678   42.1559 H   0  0  0  0  0  0  0  0  0  0  0  0
   43.9316   34.3959   40.7227 H   0  0  0  0  0  0  0  0  0  0  0  0
   44.0243   32.6020   40.7227 H   0  0  0  0  0  0  0  0  0  0  0  0
   46.4181   31.8957   42.8781 H   0  0  0  0  0  0  0  0  0  0  0  0
   45.5991   31.5208   41.3239 H   0  0  0  0  0  0  0  0  0  0  0  0
   47.1713   32.3896   41.3239 H   0  0  0  0  0  0  0  0  0  0  0  0
   45.7691   35.6087   41.2768 H   0  0  0  0  0  0  0  0  0  0  0  0
   46.4479   34.3856   40.1687 H   0  0  0  0  0  0  0  0  0  0  0  0
   47.7542   34.4207   42.8717 H   0  0  0  0  0  0  0  0  0  0  0  0
   48.1032   34.2497   39.3351 H   0  0  0  0  0  0  0  0  0  0  0  0
   49.4340   35.4203   39.1318 H   0  0  0  0  0  0  0  0  0  0  0  0
  1  5  1  0
  2  3  2  0
  2  9  1  0
  4  3  1  0
  5  4  1  0
  5  6  2  0
  6  2  1  0
  8  7  2  0
  9 10  2  0
  9  8  1  0
 10 11  1  0
 11 12  2  0
 12  7  1  0
 13  1  1  0
 14  1  1  0
 15 16  1  0
 15  1  1  0
 17 19  2  0
 17 16  1  0
 18 17  1  0
  3 20  1  0
  7 21  1  0
  8 22  1  0
 11 23  1  0
 13 24  1  0
 13 25  1  0
 13 26  1  0
 14 27  1  0
 14 28  1  0
 14 29  1  0
 15 30  1  0
 15 31  1  0
 16 32  1  0
 18 33  1  0
 18 34  1  0
M  ISO  8  20  14  21  14  22  14  23  14  24   8  25   8  26   8  27   8
M  ISO  4  28   8  29   8  30   8  31   8
M  END
>  <minimizedAffinity>  (1) 
-5.24793434

>  <minimizedRMSD>  (1) 
2.44973588

$$$$
