
     RDKit          3D

 39 40  0  0  0  0  0  0  0  0999 V2000
   45.4080   34.0050   41.8010 C   0  0  0  0  0  0  0  0  0  0  0  0
   45.4240   33.8890   45.4880 C   0  0  0  0  0  0  0  0  0  0  0  0
   44.7880   35.0610   45.7530 C   0  0  0  0  0  0  0  0  0  0  0  0
   44.4440   35.7350   44.1030 S   0  0  0  0  0  0  0  0  0  0  0  0
   45.2680   34.2290   43.2840 C   0  0  0  0  0  0  0  0  0  0  0  0
   45.5750   33.6390   44.2260 N   0  0  0  0  0  0  0  0  0  0  0  0
   45.6540   32.0180   48.7920 C   0  0  0  0  0  0  0  0  0  0  0  0
   45.1650   32.8530   47.7920 C   0  0  0  0  0  0  0  0  0  0  0  0
   45.8880   33.0140   46.5890 C   0  0  0  0  0  0  0  0  0  0  0  0
   47.0300   32.3090   46.5330 N   0  0  0  0  0  0  0  0  0  0  0  0
   47.4950   31.5110   47.4910 C   0  0  0  0  0  0  0  0  0  0  0  0
   46.8000   31.3750   48.6080 N   0  0  0  0  0  0  0  0  0  0  0  0
   44.2250   34.6570   41.1560 C   0  0  0  0  0  0  0  0  0  0  0  0
   45.4320   32.5310   41.5850 C   0  0  0  0  0  0  0  0  0  0  0  0
   46.6880   34.6740   41.3220 C   0  0  0  0  0  0  0  0  0  0  0  0
   47.7880   33.9970   41.9770 N   0  0  0  0  0  0  0  0  0  0  0  0
   49.0870   34.4010   41.5120 C   0  0  0  0  0  0  0  0  0  0  0  0
   50.0990   34.0580   42.5950 C   0  0  0  0  0  0  0  0  0  0  0  0
   49.0670   35.9390   41.4730 C   0  0  0  0  0  0  0  0  0  0  0  0
   44.5411   35.4965   46.7325 H   0  0  0  0  0  0  0  0  0  0  0  0
   45.0935   31.8917   49.7300 H   0  0  0  0  0  0  0  0  0  0  0  0
   44.2150   33.3880   47.9383 H   0  0  0  0  0  0  0  0  0  0  0  0
   48.4443   30.9719   47.3558 H   0  0  0  0  0  0  0  0  0  0  0  0
   43.5438   35.0324   41.9339 H   0  0  0  0  0  0  0  0  0  0  0  0
   44.5644   35.4954   40.5301 H   0  0  0  0  0  0  0  0  0  0  0  0
   43.6974   33.9223   40.5301 H   0  0  0  0  0  0  0  0  0  0  0  0
   45.4404   32.0179   42.5580 H   0  0  0  0  0  0  0  0  0  0  0  0
   44.5387   32.2288   41.0188 H   0  0  0  0  0  0  0  0  0  0  0  0
   46.3347   32.2580   41.0188 H   0  0  0  0  0  0  0  0  0  0  0  0
   46.7801   34.5762   40.2302 H   0  0  0  0  0  0  0  0  0  0  0  0
   46.6858   35.7469   41.5648 H   0  0  0  0  0  0  0  0  0  0  0  0
   47.7315   34.1906   42.9871 H   0  0  0  0  0  0  0  0  0  0  0  0
   49.3271   33.9300   40.5474 H   0  0  0  0  0  0  0  0  0  0  0  0
   49.6437   34.2123   43.5844 H   0  0  0  0  0  0  0  0  0  0  0  0
   50.4042   33.0062   42.4918 H   0  0  0  0  0  0  0  0  0  0  0  0
   50.9808   34.7075   42.4918 H   0  0  0  0  0  0  0  0  0  0  0  0
   49.0619   36.3318   42.5005 H   0  0  0  0  0  0  0  0  0  0  0  0
   49.9605   36.3041   40.9453 H   0  0  0  0  0  0  0  0  0  0  0  0
   48.1643   36.2807   40.9453 H   0  0  0  0  0  0  0  0  0  0  0  0
  1  5  1  0
  2  3  2  0
  2  9  1  0
  4  3  1  0
  5  4  1  0
  5  6  2  0
  6  2  1  0
  8  7  2  0
  9  8  1  0
 10  9  2  0
 10 11  1  0
 11 12  2  0
 12  7  1  0
 13  1  1  0
 14  1  1  0
 15  1  1  0
 15 16  1  0
 17 16  1  0
 17 18  1  0
 19 17  1  0
  3 20  1  0
  7 21  1  0
  8 22  1  0
 11 23  1  0
 13 24  1  0
 13 25  1  0
 13 26  1  0
 14 27  1  0
 14 28  1  0
 14 29  1  0
 15 30  1  0
 15 31  1  0
 16 32  1  0
 17 33  1  0
 18 34  1  0
 18 35  1  0
 18 36  1  0
 19 37  1  0
 19 38  1  0
 19 39  1  0
M  ISO  8  20  14  21  14  22  14  23  14  24   8  25   8  26   8  27   8
M  ISO  8  28   8  29   8  30   8  31   8  32   5  33   8  34   8  35   8
M  ISO  4  36   8  37   8  38   8  39   8
M  END
>  <minimizedAffinity>  (1) 
-5.09453392

>  <minimizedRMSD>  (1) 
2.29491353

$$$$
