
     RDKit          3D

 30 31  0  0  0  0  0  0  0  0999 V2000
   40.8110   31.6870   39.6960 C   0  0  0  0  0  0  0  0  0  0  0  0
   41.8430   31.4540   40.6060 C   0  0  0  0  0  0  0  0  0  0  0  0
   42.9840   32.2490   40.5880 C   0  0  0  0  0  0  0  0  0  0  0  0
   42.9970   33.2280   39.6430 N   0  0  0  0  0  0  0  0  0  0  0  0
   42.0210   33.4560   38.7750 C   0  0  0  0  0  0  0  0  0  0  0  0
   40.9390   32.6790   38.8170 N   0  0  0  0  0  0  0  0  0  0  0  0
   42.0920   34.4820   37.8250 N   0  0  0  0  0  0  0  0  0  0  0  0
   41.3580   35.7050   37.9330 C   0  0  0  0  0  0  0  0  0  0  0  0
   40.7540   35.9700   39.0550 N   0  0  0  0  0  0  0  0  0  0  0  0
   41.2890   36.6210   36.8300 N   0  0  0  0  0  0  0  0  0  0  0  0
   40.2270   36.8510   39.1310 H   0  0  0  0  0  0  0  0  0  0  0  0
   44.1390   32.0680   41.5260 C   0  0  0  0  0  0  0  0  0  0  0  0
   45.1880   31.2890   41.2110 C   0  0  0  0  0  0  0  0  0  0  0  0
   46.2500   31.4430   42.6810 S   0  0  0  0  0  0  0  0  0  0  0  0
   45.0180   32.5980   43.5070 C   0  0  0  0  0  0  0  0  0  0  0  0
   44.1820   32.6530   42.6840 N   0  0  0  0  0  0  0  0  0  0  0  0
   45.3580   33.0900   44.8190 N   0  0  0  0  0  0  0  0  0  0  0  0
   46.6690   33.2830   45.2480 C   0  0  0  0  0  0  0  0  0  0  0  0
   47.5640   33.4550   44.3330 N   0  0  0  0  0  0  0  0  0  0  0  0
   46.8570   33.2630   46.6760 N   0  0  0  0  0  0  0  0  0  0  0  0
   48.5420   33.6210   44.6610 H   0  0  0  0  0  0  0  0  0  0  0  0
   39.9064   31.0613   39.7047 H   0  0  0  0  0  0  0  0  0  0  0  0
   41.7538   30.6392   41.3396 H   0  0  0  0  0  0  0  0  0  0  0  0
   42.7037   34.3495   37.0070 H   0  0  0  0  0  0  0  0  0  0  0  0
   40.7569   37.4981   36.9215 H   0  0  0  0  0  0  0  0  0  0  0  0
   41.7716   36.4012   35.9470 H   0  0  0  0  0  0  0  0  0  0  0  0
   45.3611   30.7051   40.2950 H   0  0  0  0  0  0  0  0  0  0  0  0
   44.5925   33.3099   45.4721 H   0  0  0  0  0  0  0  0  0  0  0  0
   47.7975   33.3983   47.0736 H   0  0  0  0  0  0  0  0  0  0  0  0
   46.0509   33.1134   47.2995 H   0  0  0  0  0  0  0  0  0  0  0  0
  1  2  2  0
  3  2  1  0
  3 12  1  0
  4  3  2  0
  5  6  2  0
  5  4  1  0
  6  1  1  0
  7  8  1  0
  7  5  1  0
  8  9  2  0
  9 11  1  0
 10  8  1  0
 12 16  1  0
 13 12  2  0
 13 14  1  0
 14 15  1  0
 15 17  1  0
 16 15  2  0
 17 18  1  0
 18 20  1  0
 19 21  1  0
 19 18  2  0
  1 22  1  0
  2 23  1  0
  7 24  1  0
 10 25  1  0
 10 26  1  0
 13 27  1  0
 17 28  1  0
 20 29  1  0
 20 30  1  0
M  ISO  3  22  14  23  14  27  14
M  END
>  <minimizedAffinity>  (1) 
-5.30537987

>  <minimizedRMSD>  (1) 
2.23520565

$$$$
