
     RDKit          3D

 29 30  0  0  0  0  0  0  0  0999 V2000
   46.3650   34.4460   41.4470 C   0  0  0  0  0  0  0  0  0  0  0  0
   47.5470   34.5720   42.1840 C   0  0  0  0  0  0  0  0  0  0  0  0
   48.7560   34.2120   41.5560 C   0  0  0  0  0  0  0  0  0  0  0  0
   48.7070   33.7640   40.2700 N   0  0  0  0  0  0  0  0  0  0  0  0
   47.5280   33.6620   39.5980 C   0  0  0  0  0  0  0  0  0  0  0  0
   46.3950   34.0020   40.1960 N   0  0  0  0  0  0  0  0  0  0  0  0
   47.4600   33.1960   38.2550 N   0  0  0  0  0  0  0  0  0  0  0  0
   46.7630   32.0530   38.0450 C   0  0  0  0  0  0  0  0  0  0  0  0
   46.6930   31.5960   36.7400 C   0  0  0  0  0  0  0  0  0  0  0  0
   45.9460   30.3440   36.4140 C   0  0  0  0  0  0  0  0  0  0  0  0
   47.3320   32.3270   35.7540 C   0  0  0  0  0  0  0  0  0  0  0  0
   47.2330   31.8600   34.5760 O   0  0  0  0  0  0  0  0  0  0  0  0
   48.0230   33.4700   35.9980 N   0  0  0  0  0  0  0  0  0  0  0  0
   48.0730   33.8900   37.2780 C   0  0  0  0  0  0  0  0  0  0  0  0
   48.7030   34.9360   37.5130 O   0  0  0  0  0  0  0  0  0  0  0  0
   45.1200   34.8160   42.0930 C   0  0  0  0  0  0  0  0  0  0  0  0
   44.1600   35.2510   41.3800 O   0  0  0  0  0  0  0  0  0  0  0  0
   45.0240   34.6780   43.4920 O   0  0  0  0  0  0  0  0  0  0  0  0
   44.5430   35.7670   44.2360 C   0  0  0  0  0  0  0  0  0  0  0  0
   43.1720   35.9420   44.0890 F   0  0  0  0  0  0  0  0  0  0  0  0
   44.8130   35.5840   45.5790 F   0  0  0  0  0  0  0  0  0  0  0  0
   45.1860   36.8990   43.7550 F   0  0  0  0  0  0  0  0  0  0  0  0
   47.5333   34.9402   43.2204 H   0  0  0  0  0  0  0  0  0  0  0  0
   49.7145   34.2906   42.0900 H   0  0  0  0  0  0  0  0  0  0  0  0
   46.2764   31.5143   38.8714 H   0  0  0  0  0  0  0  0  0  0  0  0
   45.6467   29.8424   37.3461 H   0  0  0  0  0  0  0  0  0  0  0  0
   45.0493   30.5941   35.8279 H   0  0  0  0  0  0  0  0  0  0  0  0
   46.5919   29.6737   35.8279 H   0  0  0  0  0  0  0  0  0  0  0  0
   48.4871   33.9916   35.2408 H   0  0  0  0  0  0  0  0  0  0  0  0
  1 16  1  0
  1  2  2  0
  3  2  1  0
  4  3  2  0
  5  6  2  0
  5  4  1  0
  6  1  1  0
  7  5  1  0
  8  7  1  0
  9  8  2  0
 10  9  1  0
 11 13  1  0
 11  9  1  0
 12 11  2  0
 13 14  1  0
 14 15  2  0
 14  7  1  0
 16 18  1  0
 17 16  2  0
 18 19  1  0
 19 21  1  0
 20 19  1  0
 22 19  1  0
  2 23  1  0
  3 24  1  0
  8 25  1  0
 10 26  1  0
 10 27  1  0
 10 28  1  0
 13 29  1  0
M  ISO  7  23  14  24  14  25  14  26   8  27   8  28   8  29   9
M  END
>  <minimizedAffinity>  (1) 
-5.41705704

>  <minimizedRMSD>  (1) 
1.83218038

$$$$
