
     RDKit          3D

 49 51  0  0  0  0  0  0  0  0999 V2000
   48.3140   31.8080   41.6910 C   0  0  0  0  0  0  0  0  0  0  0  0
   46.9200   31.0880   45.0090 C   0  0  0  0  0  0  0  0  0  0  0  0
   45.6690   30.7070   44.6490 C   0  0  0  0  0  0  0  0  0  0  0  0
   45.6980   30.8510   42.8620 S   0  0  0  0  0  0  0  0  0  0  0  0
   47.4940   31.4400   42.8830 C   0  0  0  0  0  0  0  0  0  0  0  0
   47.6820   31.4130   44.0320 N   0  0  0  0  0  0  0  0  0  0  0  0
   47.4720   32.0580   48.6490 C   0  0  0  0  0  0  0  0  0  0  0  0
   47.0870   32.1310   47.3180 C   0  0  0  0  0  0  0  0  0  0  0  0
   47.3130   31.0800   46.4330 C   0  0  0  0  0  0  0  0  0  0  0  0
   47.9310   30.0220   47.0100 N   0  0  0  0  0  0  0  0  0  0  0  0
   48.3120   29.9230   48.2770 C   0  0  0  0  0  0  0  0  0  0  0  0
   48.0750   30.9390   49.0660 N   0  0  0  0  0  0  0  0  0  0  0  0
   48.0280   30.7710   40.6370 C   0  0  0  0  0  0  0  0  0  0  0  0
   49.7340   31.7950   42.1120 C   0  0  0  0  0  0  0  0  0  0  0  0
   47.9050   33.1710   41.1730 C   0  0  0  0  0  0  0  0  0  0  0  0
   48.0920   34.1880   42.2020 N   0  0  0  0  0  0  0  0  0  0  0  0
   46.7300   34.8030   42.2360 C   0  0  0  0  0  0  0  0  0  0  0  0
   46.0340   34.9160   43.4990 C   0  0  0  0  0  0  0  0  0  0  0  0
   44.4910   34.9290   43.3110 C   0  0  0  0  0  0  0  0  0  0  0  0
   44.2660   35.6370   41.9960 C   0  0  0  0  0  0  0  0  0  0  0  0
   44.5700   34.5410   40.9700 C   0  0  0  0  0  0  0  0  0  0  0  0
   46.0450   34.3340   40.9980 C   0  0  0  0  0  0  0  0  0  0  0  0
   48.8300   35.3560   41.6570 C   0  0  0  0  0  0  0  0  0  0  0  0
   48.7790   35.2770   40.2700 F   0  0  0  0  0  0  0  0  0  0  0  0
   50.1180   35.3680   42.0540 F   0  0  0  0  0  0  0  0  0  0  0  0
   48.2650   36.5480   42.0590 F   0  0  0  0  0  0  0  0  0  0  0  0
   44.8387   30.3874   45.2959 H   0  0  0  0  0  0  0  0  0  0  0  0
   47.2872   32.8940   49.3396 H   0  0  0  0  0  0  0  0  0  0  0  0
   46.5907   33.0422   46.9527 H   0  0  0  0  0  0  0  0  0  0  0  0
   48.8105   29.0168   48.6514 H   0  0  0  0  0  0  0  0  0  0  0  0
   47.7654   29.8188   41.1212 H   0  0  0  0  0  0  0  0  0  0  0  0
   47.1890   31.1072   40.0100 H   0  0  0  0  0  0  0  0  0  0  0  0
   48.9207   30.6296   40.0100 H   0  0  0  0  0  0  0  0  0  0  0  0
   49.7908   31.7945   43.2105 H   0  0  0  0  0  0  0  0  0  0  0  0
   50.2247   30.8923   41.7191 H   0  0  0  0  0  0  0  0  0  0  0  0
   50.2411   32.6885   41.7191 H   0  0  0  0  0  0  0  0  0  0  0  0
   48.5208   33.4248   40.2975 H   0  0  0  0  0  0  0  0  0  0  0  0
   46.8415   33.1400   40.8937 H   0  0  0  0  0  0  0  0  0  0  0  0
   46.7801   35.9013   42.2024 H   0  0  0  0  0  0  0  0  0  0  0  0
   46.3078   34.0604   44.1338 H   0  0  0  0  0  0  0  0  0  0  0  0
   46.3286   35.8670   43.9669 H   0  0  0  0  0  0  0  0  0  0  0  0
   44.0974   33.9026   43.2703 H   0  0  0  0  0  0  0  0  0  0  0  0
   43.9764   35.4297   44.1444 H   0  0  0  0  0  0  0  0  0  0  0  0
   43.2272   35.9876   41.9065 H   0  0  0  0  0  0  0  0  0  0  0  0
   44.8865   36.5368   41.8718 H   0  0  0  0  0  0  0  0  0  0  0  0
   44.2498   34.8597   39.9671 H   0  0  0  0  0  0  0  0  0  0  0  0
   44.0329   33.6114   41.2094 H   0  0  0  0  0  0  0  0  0  0  0  0
   46.2392   33.2568   40.8893 H   0  0  0  0  0  0  0  0  0  0  0  0
   46.4532   34.9402   40.1759 H   0  0  0  0  0  0  0  0  0  0  0  0
  1 14  1  0
  1  5  1  0
  2  9  1  0
  3  2  2  0
  4  5  1  0
  4  3  1  0
  5  6  2  0
  6  2  1  0
  7 12  2  0
  8  7  1  0
  9 10  1  0
  9  8  2  0
 10 11  2  0
 11 12  1  0
 13  1  1  0
 15  1  1  0
 15 16  1  0
 16 17  1  0
 17 18  1  0
 19 18  1  0
 20 19  1  0
 21 22  1  0
 21 20  1  0
 22 17  1  0
 23 25  1  0
 23 26  1  0
 23 16  1  0
 24 23  1  0
  3 27  1  0
  7 28  1  0
  8 29  1  0
 11 30  1  0
 13 31  1  0
 13 32  1  0
 13 33  1  0
 14 34  1  0
 14 35  1  0
 14 36  1  0
 15 37  1  0
 15 38  1  0
 17 39  1  0
 18 40  1  0
 18 41  1  0
 19 42  1  0
 19 43  1  0
 20 44  1  0
 20 45  1  0
 21 46  1  0
 21 47  1  0
 22 48  1  0
 22 49  1  0
M  ISO  8  27  14  28  14  29  14  30  14  31   8  32   8  33   8  34   8
M  ISO  8  35   8  36   8  37   8  38   8  39  13  40  13  41  13  42  13
M  ISO  7  43  13  44  13  45  13  46  13  47  13  48  13  49  13
M  END
>  <minimizedAffinity>  (1) 
-5.14491701

>  <minimizedRMSD>  (1) 
2.67471004

$$$$
