
     RDKit          3D

 36 37  0  0  0  0  0  0  0  0999 V2000
   50.2970   32.1810   41.4740 C   0  0  0  0  0  0  0  0  0  0  0  0
   48.8880   29.9460   44.0330 C   0  0  0  0  0  0  0  0  0  0  0  0
   49.3260   28.7530   43.5670 C   0  0  0  0  0  0  0  0  0  0  0  0
   50.2440   29.2020   42.0790 S   0  0  0  0  0  0  0  0  0  0  0  0
   49.8560   31.0470   42.3550 C   0  0  0  0  0  0  0  0  0  0  0  0
   49.2360   30.9600   43.3220 N   0  0  0  0  0  0  0  0  0  0  0  0
   46.0190   30.4790   46.4840 C   0  0  0  0  0  0  0  0  0  0  0  0
   46.7400   30.4300   45.3120 C   0  0  0  0  0  0  0  0  0  0  0  0
   48.0770   30.0170   45.2660 C   0  0  0  0  0  0  0  0  0  0  0  0
   48.5750   29.6790   46.4770 N   0  0  0  0  0  0  0  0  0  0  0  0
   47.9000   29.7150   47.6360 C   0  0  0  0  0  0  0  0  0  0  0  0
   46.6530   30.1100   47.6110 N   0  0  0  0  0  0  0  0  0  0  0  0
   51.2110   31.5800   40.4430 C   0  0  0  0  0  0  0  0  0  0  0  0
   50.9780   33.1800   42.3280 C   0  0  0  0  0  0  0  0  0  0  0  0
   49.0830   32.7710   40.7750 C   0  0  0  0  0  0  0  0  0  0  0  0
   48.3820   33.6520   41.6710 N   0  0  0  0  0  0  0  0  0  0  0  0
   47.6720   33.9940   42.8520 C   0  0  0  0  0  0  0  0  0  0  0  0
   46.7930   34.7510   43.3900 O   0  0  0  0  0  0  0  0  0  0  0  0
   47.8830   34.8840   41.0240 C   0  0  0  0  0  0  0  0  0  0  0  0
   48.4230   34.8720   39.7300 F   0  0  0  0  0  0  0  0  0  0  0  0
   48.3070   35.9710   41.6920 F   0  0  0  0  0  0  0  0  0  0  0  0
   46.5000   34.8510   40.9000 F   0  0  0  0  0  0  0  0  0  0  0  0
   47.5900   33.6050   44.1730 O   0  0  0  0  0  0  0  0  0  0  0  0
   49.1621   27.7519   43.9923 H   0  0  0  0  0  0  0  0  0  0  0  0
   44.9689   30.8061   46.4978 H   0  0  0  0  0  0  0  0  0  0  0  0
   46.2462   30.7270   44.3750 H   0  0  0  0  0  0  0  0  0  0  0  0
   48.3813   29.4208   48.5803 H   0  0  0  0  0  0  0  0  0  0  0  0
   52.0283   31.0426   40.9462 H   0  0  0  0  0  0  0  0  0  0  0  0
   50.6433   30.8784   39.8142 H   0  0  0  0  0  0  0  0  0  0  0  0
   51.6302   32.3792   39.8142 H   0  0  0  0  0  0  0  0  0  0  0  0
   50.8097   32.9331   43.3866 H   0  0  0  0  0  0  0  0  0  0  0  0
   52.0573   33.1688   42.1160 H   0  0  0  0  0  0  0  0  0  0  0  0
   50.5731   34.1805   42.1160 H   0  0  0  0  0  0  0  0  0  0  0  0
   49.4106   33.3361   39.8899 H   0  0  0  0  0  0  0  0  0  0  0  0
   48.4104   31.9565   40.4682 H   0  0  0  0  0  0  0  0  0  0  0  0
   46.9622   34.0635   44.7860 H   0  0  0  0  0  0  0  0  0  0  0  0
  1 14  1  0
  1  5  1  0
  2  9  1  0
  3  2  2  0
  4  5  1  0
  4  3  1  0
  5  6  2  0
  6  2  1  0
  7 12  2  0
  8  7  1  0
  9  8  2  0
  9 10  1  0
 10 11  2  0
 12 11  1  0
 13  1  1  0
 15  1  1  0
 15 16  1  0
 16 17  1  0
 17 18  2  0
 17 23  1  0
 19 16  1  0
 19 21  1  0
 20 19  1  0
 22 19  1  0
  3 24  1  0
  7 25  1  0
  8 26  1  0
 11 27  1  0
 13 28  1  0
 13 29  1  0
 13 30  1  0
 14 31  1  0
 14 32  1  0
 14 33  1  0
 15 34  1  0
 15 35  1  0
 23 36  1  0
M  ISO  8  24  14  25  14  26  14  27  14  28   8  29   8  30   8  31   8
M  ISO  5  32   8  33   8  34   8  35   8  36   3
M  END
>  <minimizedAffinity>  (1) 
-4.68635273

>  <minimizedRMSD>  (1) 
3.76620269

$$$$
