
     RDKit          3D

 36 37  0  0  0  0  0  0  0  0999 V2000
   45.2620   33.4170   41.9770 C   0  0  0  0  0  0  0  0  0  0  0  0
   45.6700   33.2200   45.6200 C   0  0  0  0  0  0  0  0  0  0  0  0
   45.1700   34.4280   45.9810 C   0  0  0  0  0  0  0  0  0  0  0  0
   44.7010   35.1750   44.4160 S   0  0  0  0  0  0  0  0  0  0  0  0
   45.3020   33.6210   43.4690 C   0  0  0  0  0  0  0  0  0  0  0  0
   45.6600   32.9900   44.3610 N   0  0  0  0  0  0  0  0  0  0  0  0
   47.6260   31.6860   48.5010 C   0  0  0  0  0  0  0  0  0  0  0  0
   47.1950   32.6070   47.5540 C   0  0  0  0  0  0  0  0  0  0  0  0
   46.1730   32.2840   46.6490 C   0  0  0  0  0  0  0  0  0  0  0  0
   45.6920   31.0500   46.8040 N   0  0  0  0  0  0  0  0  0  0  0  0
   46.0760   30.1450   47.6950 C   0  0  0  0  0  0  0  0  0  0  0  0
   47.0410   30.4750   48.5340 N   0  0  0  0  0  0  0  0  0  0  0  0
   43.8030   33.4830   41.5910 C   0  0  0  0  0  0  0  0  0  0  0  0
   45.8850   32.1220   41.6770 C   0  0  0  0  0  0  0  0  0  0  0  0
   45.9990   34.5560   41.3180 C   0  0  0  0  0  0  0  0  0  0  0  0
   47.3970   34.4820   41.5180 N   0  0  0  0  0  0  0  0  0  0  0  0
   48.6180   34.4390   42.2600 C   0  0  0  0  0  0  0  0  0  0  0  0
   49.8670   34.4860   42.3640 O   0  0  0  0  0  0  0  0  0  0  0  0
   48.2390   34.4920   40.3040 C   0  0  0  0  0  0  0  0  0  0  0  0
   47.2990   34.3620   39.2500 F   0  0  0  0  0  0  0  0  0  0  0  0
   49.1000   33.4970   40.2660 F   0  0  0  0  0  0  0  0  0  0  0  0
   48.8040   35.7600   40.1590 F   0  0  0  0  0  0  0  0  0  0  0  0
   48.4490   34.2410   43.6450 O   0  0  0  0  0  0  0  0  0  0  0  0
   45.0744   34.8502   46.9922 H   0  0  0  0  0  0  0  0  0  0  0  0
   48.4284   31.9417   49.2086 H   0  0  0  0  0  0  0  0  0  0  0  0
   47.6613   33.6024   47.5134 H   0  0  0  0  0  0  0  0  0  0  0  0
   45.6055   29.1514   47.7336 H   0  0  0  0  0  0  0  0  0  0  0  0
   43.1841   33.5110   42.5000 H   0  0  0  0  0  0  0  0  0  0  0  0
   43.6218   34.3903   40.9960 H   0  0  0  0  0  0  0  0  0  0  0  0
   43.5406   32.5958   40.9960 H   0  0  0  0  0  0  0  0  0  0  0  0
   46.1325   31.6076   42.6173 H   0  0  0  0  0  0  0  0  0  0  0  0
   45.1853   31.5047   41.0945 H   0  0  0  0  0  0  0  0  0  0  0  0
   46.8040   32.2834   41.0945 H   0  0  0  0  0  0  0  0  0  0  0  0
   45.6319   35.5041   41.7380 H   0  0  0  0  0  0  0  0  0  0  0  0
   45.8117   34.4947   40.2358 H   0  0  0  0  0  0  0  0  0  0  0  0
   49.2398   34.1976   44.2390 H   0  0  0  0  0  0  0  0  0  0  0  0
  1  5  1  0
  2  3  2  0
  2  9  1  0
  4  3  1  0
  5  6  2  0
  5  4  1  0
  6  2  1  0
  7 12  2  0
  8  7  1  0
  9 10  1  0
  9  8  2  0
 10 11  2  0
 11 12  1  0
 13  1  1  0
 14  1  1  0
 15 16  1  0
 15  1  1  0
 16 17  1  0
 17 18  2  0
 17 23  1  0
 19 16  1  0
 20 19  1  0
 21 19  1  0
 22 19  1  0
  3 24  1  0
  7 25  1  0
  8 26  1  0
 11 27  1  0
 13 28  1  0
 13 29  1  0
 13 30  1  0
 14 31  1  0
 14 32  1  0
 14 33  1  0
 15 34  1  0
 15 35  1  0
 23 36  1  0
M  ISO  8  24  14  25  14  26  14  27  14  28   8  29   8  30   8  31   8
M  ISO  5  32   8  33   8  34   8  35   8  36   3
M  END
>  <minimizedAffinity>  (1) 
-5.491467

>  <minimizedRMSD>  (1) 
0.259334981

$$$$
