
     RDKit          3D

 42 44  0  0  1  0  0  0  0  0999 V2000
   45.7930   32.2040   42.2000 C   0  0  0  0  0  0  0  0  0  0  0  0
   46.5570   32.3900   45.7840 C   0  0  0  0  0  0  0  0  0  0  0  0
   45.9210   33.5520   46.1000 C   0  0  0  0  0  0  0  0  0  0  0  0
   45.2270   34.0540   44.5320 S   0  0  0  0  0  0  0  0  0  0  0  0
   45.9450   32.5330   43.6520 C   0  0  0  0  0  0  0  0  0  0  0  0
   46.4590   32.0590   44.5560 N   0  0  0  0  0  0  0  0  0  0  0  0
   48.2770   31.3950   49.0270 C   0  0  0  0  0  0  0  0  0  0  0  0
   47.5950   32.1500   48.0770 C   0  0  0  0  0  0  0  0  0  0  0  0
   47.2790   31.6270   46.8230 C   0  0  0  0  0  0  0  0  0  0  0  0
   47.6940   30.3660   46.6550 N   0  0  0  0  0  0  0  0  0  0  0  0
   48.3460   29.6110   47.5340 C   0  0  0  0  0  0  0  0  0  0  0  0
   48.6240   30.1530   48.7130 N   0  0  0  0  0  0  0  0  0  0  0  0
   44.3570   31.8000   41.9890 C   0  0  0  0  0  0  0  0  0  0  0  0
   46.7300   31.0860   41.9000 C   0  0  0  0  0  0  0  0  0  0  0  0
   46.1160   33.3840   41.3660 C   0  0  2  0  0  0  0  0  0  0  0  0
   47.4500   33.8000   41.4710 N   0  0  0  0  0  0  0  0  0  0  0  0
   48.6480   34.2320   42.0860 C   0  0  0  0  0  0  0  0  0  0  0  0
   49.8320   34.6410   42.1350 O   0  0  0  0  0  0  0  0  0  0  0  0
   48.5060   34.2230   43.5200 N   0  0  0  0  0  0  0  0  0  0  0  0
   48.2000   33.9930   40.1880 C   0  0  0  0  0  0  0  0  0  0  0  0
   47.2080   33.7960   39.2060 F   0  0  0  0  0  0  0  0  0  0  0  0
   49.1900   33.1840   40.0200 F   0  0  0  0  0  0  0  0  0  0  0  0
   48.5110   35.3630   40.0910 F   0  0  0  0  0  0  0  0  0  0  0  0
   45.0930   34.4800   41.5230 C   0  0  0  0  0  0  0  0  0  0  0  0
   44.6460   35.5460   42.2070 N   0  0  0  0  0  0  0  0  0  0  0  0
   43.5710   36.0320   41.6870 O   0  0  0  0  0  0  0  0  0  0  0  0
   43.2360   35.3340   40.6350 C   0  0  0  0  0  0  0  0  0  0  0  0
   44.1640   34.3770   40.5250 N   0  0  0  0  0  0  0  0  0  0  0  0
   45.8519   34.0552   47.0757 H   0  0  0  0  0  0  0  0  0  0  0  0
   48.5221   31.8170   50.0128 H   0  0  0  0  0  0  0  0  0  0  0  0
   47.2989   33.1811   48.3203 H   0  0  0  0  0  0  0  0  0  0  0  0
   48.6428   28.5794   47.2938 H   0  0  0  0  0  0  0  0  0  0  0  0
   43.8677   31.6623   42.9645 H   0  0  0  0  0  0  0  0  0  0  0  0
   43.8342   32.5859   41.4242 H   0  0  0  0  0  0  0  0  0  0  0  0
   44.3207   30.8568   41.4242 H   0  0  0  0  0  0  0  0  0  0  0  0
   47.0949   30.6506   42.8420 H   0  0  0  0  0  0  0  0  0  0  0  0
   46.2052   30.3139   41.3182 H   0  0  0  0  0  0  0  0  0  0  0  0
   47.5820   31.4677   41.3182 H   0  0  0  0  0  0  0  0  0  0  0  0
   46.0380   33.0632   40.3167 H   0  0  0  0  0  0  0  0  0  0  0  0
   49.2936   34.5124   44.1173 H   0  0  0  0  0  0  0  0  0  0  0  0
   47.6169   33.9271   43.9476 H   0  0  0  0  0  0  0  0  0  0  0  0
   42.3705   35.4989   39.9764 H   0  0  0  0  0  0  0  0  0  0  0  0
  1  5  1  0
  2  3  2  0
  2  9  1  0
  4  3  1  0
  5  4  1  0
  5  6  2  0
  6  2  1  0
  8  7  2  0
  9  8  1  0
 10  9  2  0
 10 11  1  0
 11 12  2  0
 12  7  1  0
 13  1  1  0
 14  1  1  0
 15 16  1  0
 15 24  1  0
 15  1  1  0
 16 17  1  0
 17 18  2  0
 17 19  1  0
 20 16  1  0
 21 20  1  0
 22 20  1  0
 23 20  1  0
 24 25  2  0
 26 25  1  0
 27 26  1  0
 28 27  2  0
 28 24  1  0
  3 29  1  0
  7 30  1  0
  8 31  1  0
 11 32  1  0
 13 33  1  0
 13 34  1  0
 13 35  1  0
 14 36  1  0
 14 37  1  0
 14 38  1  0
 15 39  1  6
 19 40  1  0
 19 41  1  0
 27 42  1  0
M  ISO  8  29  14  30  14  31  14  32  14  33   8  34   8  35   8  36   8
M  ISO  4  37   8  38   8  39   8  42  14
M  END
>  <minimizedAffinity>  (1) 
-5.6457572

>  <minimizedRMSD>  (1) 
1.32443142

$$$$
