
     RDKit          3D

 49 51  0  0  1  0  0  0  0  0999 V2000
   45.8380   33.4310   42.0450 C   0  0  0  0  0  0  0  0  0  0  0  0
   43.6710   30.6070   42.9800 C   0  0  0  0  0  0  0  0  0  0  0  0
   42.5260   30.9860   42.3520 C   0  0  0  0  0  0  0  0  0  0  0  0
   42.9870   32.5430   41.5830 S   0  0  0  0  0  0  0  0  0  0  0  0
   44.7710   32.4080   42.2910 C   0  0  0  0  0  0  0  0  0  0  0  0
   44.6550   31.4190   42.8410 N   0  0  0  0  0  0  0  0  0  0  0  0
   42.9740   27.0970   44.2650 C   0  0  0  0  0  0  0  0  0  0  0  0
   42.8780   28.2650   43.5080 C   0  0  0  0  0  0  0  0  0  0  0  0
   43.7270   29.3480   43.7460 C   0  0  0  0  0  0  0  0  0  0  0  0
   44.6000   29.1290   44.7430 N   0  0  0  0  0  0  0  0  0  0  0  0
   44.7240   28.0340   45.4850 C   0  0  0  0  0  0  0  0  0  0  0  0
   43.8980   27.0330   45.2230 N   0  0  0  0  0  0  0  0  0  0  0  0
   45.1790   34.7240   41.7120 C   0  0  0  0  0  0  0  0  0  0  0  0
   46.6150   32.9220   40.8670 C   0  0  0  0  0  0  0  0  0  0  0  0
   46.7270   33.5130   43.2380 C   0  0  2  0  0  0  0  0  0  0  0  0
   46.0750   33.6950   44.4530 N   0  0  0  0  0  0  0  0  0  0  0  0
   45.2130   34.2860   45.3910 C   0  0  0  0  0  0  0  0  0  0  0  0
   44.6480   34.4450   46.5060 O   0  0  0  0  0  0  0  0  0  0  0  0
   44.5000   35.4000   44.7940 N   0  0  0  0  0  0  0  0  0  0  0  0
   46.4020   32.7400   45.5570 C   0  0  0  0  0  0  0  0  0  0  0  0
   47.4230   31.9240   44.9910 F   0  0  0  0  0  0  0  0  0  0  0  0
   45.4070   32.0100   45.9460 F   0  0  0  0  0  0  0  0  0  0  0  0
   47.0370   33.4510   46.5660 F   0  0  0  0  0  0  0  0  0  0  0  0
   47.7810   34.5050   43.0250 N   0  0  0  0  0  0  0  0  0  0  0  0
   49.0620   33.8550   42.7690 C   0  0  0  0  0  0  0  0  0  0  0  0
   49.9280   35.1040   42.5090 C   0  0  0  0  0  0  0  0  0  0  0  0
   49.0280   35.7490   41.4770 C   0  0  0  0  0  0  0  0  0  0  0  0
   47.6320   35.2430   41.7900 C   0  0  0  0  0  0  0  0  0  0  0  0
   41.5565   30.4672   42.3221 H   0  0  0  0  0  0  0  0  0  0  0  0
   42.3016   26.2474   44.0752 H   0  0  0  0  0  0  0  0  0  0  0  0
   42.1222   28.3339   42.7117 H   0  0  0  0  0  0  0  0  0  0  0  0
   45.4793   27.9622   46.2815 H   0  0  0  0  0  0  0  0  0  0  0  0
   44.9114   35.2491   42.6408 H   0  0  0  0  0  0  0  0  0  0  0  0
   45.8696   35.3469   41.1246 H   0  0  0  0  0  0  0  0  0  0  0  0
   44.2692   34.5312   41.1246 H   0  0  0  0  0  0  0  0  0  0  0  0
   47.4861   32.3513   41.2212 H   0  0  0  0  0  0  0  0  0  0  0  0
   45.9721   32.2694   40.2580 H   0  0  0  0  0  0  0  0  0  0  0  0
   46.9565   33.7720   40.2580 H   0  0  0  0  0  0  0  0  0  0  0  0
   47.1829   32.5166   43.3340 H   0  0  0  0  0  0  0  0  0  0  0  0
   43.8262   35.9403   45.3552 H   0  0  0  0  0  0  0  0  0  0  0  0
   44.6677   35.6504   43.8091 H   0  0  0  0  0  0  0  0  0  0  0  0
   49.4149   33.2842   43.6406 H   0  0  0  0  0  0  0  0  0  0  0  0
   49.0575   33.1095   41.9602 H   0  0  0  0  0  0  0  0  0  0  0  0
   50.0485   35.7259   43.4083 H   0  0  0  0  0  0  0  0  0  0  0  0
   50.9699   34.9234   42.2060 H   0  0  0  0  0  0  0  0  0  0  0  0
   49.3282   35.4484   40.4624 H   0  0  0  0  0  0  0  0  0  0  0  0
   49.0837   36.8470   41.5135 H   0  0  0  0  0  0  0  0  0  0  0  0
   46.9345   36.0834   41.9213 H   0  0  0  0  0  0  0  0  0  0  0  0
   47.2212   34.6227   40.9798 H   0  0  0  0  0  0  0  0  0  0  0  0
  1  5  1  0
  1 15  1  0
  2  9  1  0
  3  2  2  0
  4  5  1  0
  4  3  1  0
  5  6  2  0
  6  2  1  0
  7 12  2  0
  8  9  2  0
  8  7  1  0
  9 10  1  0
 10 11  2  0
 12 11  1  0
 13  1  1  0
 14  1  1  0
 15 16  1  0
 16 17  1  0
 16 20  1  0
 17 18  2  0
 19 17  1  0
 20 22  1  0
 20 23  1  0
 21 20  1  0
 24 15  1  0
 25 24  1  0
 26 25  1  0
 27 28  1  0
 27 26  1  0
 28 24  1  0
  3 29  1  0
  7 30  1  0
  8 31  1  0
 11 32  1  0
 13 33  1  0
 13 34  1  0
 13 35  1  0
 14 36  1  0
 14 37  1  0
 14 38  1  0
 15 39  1  1
 19 40  1  0
 19 41  1  0
 25 42  1  0
 25 43  1  0
 26 44  1  0
 26 45  1  0
 27 46  1  0
 27 47  1  0
 28 48  1  0
 28 49  1  0
M  ISO  8  29  14  30  14  31  14  32  14  33   8  34   8  35   8  36   8
M  ISO  8  37   8  38   8  39   8  42  13  43  13  44  13  45  13  46  13
M  ISO  3  47  13  48  13  49  13
M  END
>  <minimizedAffinity>  (1) 
-5.45173025

>  <minimizedRMSD>  (1) 
4.83468294

$$$$
