
     RDKit          3D

 32 34  0  0  0  0  0  0  0  0999 V2000
   45.6610   34.2920   40.8960 C   0  0  0  0  0  0  0  0  0  0  0  0
   46.9660   34.4350   41.3760 C   0  0  0  0  0  0  0  0  0  0  0  0
   47.9920   33.8930   40.5780 C   0  0  0  0  0  0  0  0  0  0  0  0
   47.6680   33.2690   39.4040 N   0  0  0  0  0  0  0  0  0  0  0  0
   46.4090   33.1630   38.9990 C   0  0  0  0  0  0  0  0  0  0  0  0
   45.4540   33.6640   39.7340 N   0  0  0  0  0  0  0  0  0  0  0  0
   45.8810   32.5310   37.7800 C   0  0  0  0  0  0  0  0  0  0  0  0
   44.6030   31.9620   37.6920 C   0  0  0  0  0  0  0  0  0  0  0  0
   44.0890   31.3700   36.5720 C   0  0  0  0  0  0  0  0  0  0  0  0
   44.8440   31.3050   35.4260 C   0  0  0  0  0  0  0  0  0  0  0  0
   46.1020   31.8420   35.4420 C   0  0  0  0  0  0  0  0  0  0  0  0
   46.8180   31.7540   34.2740 C   0  0  0  0  0  0  0  0  0  0  0  0
   48.0950   32.2660   34.1950 C   0  0  0  0  0  0  0  0  0  0  0  0
   48.6020   32.8660   35.3470 C   0  0  0  0  0  0  0  0  0  0  0  0
   47.8310   32.9220   36.4850 C   0  0  0  0  0  0  0  0  0  0  0  0
   46.5580   32.4200   36.5920 C   0  0  0  0  0  0  0  0  0  0  0  0
   44.5630   34.8330   41.6850 C   0  0  0  0  0  0  0  0  0  0  0  0
   43.7510   35.6300   41.1200 O   0  0  0  0  0  0  0  0  0  0  0  0
   44.4510   34.4550   43.0160 O   0  0  0  0  0  0  0  0  0  0  0  0
   44.9720   35.3120   44.0060 C   0  0  0  0  0  0  0  0  0  0  0  0
   44.0180   35.6580   44.9550 F   0  0  0  0  0  0  0  0  0  0  0  0
   46.0500   34.7510   44.6350 F   0  0  0  0  0  0  0  0  0  0  0  0
   45.3660   36.4780   43.3470 F   0  0  0  0  0  0  0  0  0  0  0  0
   47.1803   34.9442   42.3272 H   0  0  0  0  0  0  0  0  0  0  0  0
   49.0425   33.9704   40.8950 H   0  0  0  0  0  0  0  0  0  0  0  0
   43.9675   31.9941   38.5893 H   0  0  0  0  0  0  0  0  0  0  0  0
   43.0738   30.9469   36.5883 H   0  0  0  0  0  0  0  0  0  0  0  0
   44.4459   30.8319   34.5162 H   0  0  0  0  0  0  0  0  0  0  0  0
   46.3687   31.2708   33.3939 H   0  0  0  0  0  0  0  0  0  0  0  0
   48.6852   32.2044   33.2688 H   0  0  0  0  0  0  0  0  0  0  0  0
   49.6156   33.2934   35.3459 H   0  0  0  0  0  0  0  0  0  0  0  0
   48.2660   33.4037   37.3731 H   0  0  0  0  0  0  0  0  0  0  0  0
  1  2  2  0
  1 17  1  0
  3  2  1  0
  4  3  2  0
  5  4  1  0
  5  6  2  0
  6  1  1  0
  7  5  1  0
  8  7  2  0
  9  8  1  0
 10 11  1  0
 10  9  2  0
 11 16  2  0
 12 11  1  0
 13 12  2  0
 13 14  1  0
 14 15  2  0
 15 16  1  0
 16  7  1  0
 17 19  1  0
 18 17  2  0
 19 20  1  0
 20 22  1  0
 20 21  1  0
 23 20  1  0
  2 24  1  0
  3 25  1  0
  8 26  1  0
  9 27  1  0
 10 28  1  0
 12 29  1  0
 13 30  1  0
 14 31  1  0
 15 32  1  0
M  ISO  8  24  14  25  14  26  14  27  14  28  14  29  14  30  14  31  14
M  ISO  1  32  14
M  END
>  <minimizedAffinity>  (1) 
-4.88722563

>  <minimizedRMSD>  (1) 
1.1594913

$$$$
