
     RDKit          3D

 44 46  0  0  1  0  0  0  0  0999 V2000
   45.9220   32.0160   42.2180 C   0  0  0  0  0  0  0  0  0  0  0  0
   46.6680   32.2390   45.8120 C   0  0  0  0  0  0  0  0  0  0  0  0
   45.9760   33.3700   46.1190 C   0  0  0  0  0  0  0  0  0  0  0  0
   45.2650   33.8400   44.5420 S   0  0  0  0  0  0  0  0  0  0  0  0
   46.0670   32.3400   43.6750 C   0  0  0  0  0  0  0  0  0  0  0  0
   46.5940   31.8960   44.5810 N   0  0  0  0  0  0  0  0  0  0  0  0
   48.3640   31.3120   49.0800 C   0  0  0  0  0  0  0  0  0  0  0  0
   47.6490   32.0410   48.1310 C   0  0  0  0  0  0  0  0  0  0  0  0
   47.4150   31.5160   46.8530 C   0  0  0  0  0  0  0  0  0  0  0  0
   47.9360   30.2930   46.6670 N   0  0  0  0  0  0  0  0  0  0  0  0
   48.6220   29.5670   47.5420 C   0  0  0  0  0  0  0  0  0  0  0  0
   48.8220   30.0980   48.7400 N   0  0  0  0  0  0  0  0  0  0  0  0
   44.5120   31.5440   42.0040 C   0  0  0  0  0  0  0  0  0  0  0  0
   46.9120   30.9460   41.9150 C   0  0  0  0  0  0  0  0  0  0  0  0
   46.2020   33.2190   41.4040 C   0  0  2  0  0  0  0  0  0  0  0  0
   47.5280   33.6850   41.4870 N   0  0  0  0  0  0  0  0  0  0  0  0
   48.6990   34.1790   42.0960 C   0  0  0  0  0  0  0  0  0  0  0  0
   49.8550   34.6340   42.1430 O   0  0  0  0  0  0  0  0  0  0  0  0
   48.5400   34.2070   43.5370 N   0  0  0  0  0  0  0  0  0  0  0  0
   48.2800   33.8410   40.2100 C   0  0  0  0  0  0  0  0  0  0  0  0
   47.3290   33.4960   39.2270 F   0  0  0  0  0  0  0  0  0  0  0  0
   49.3350   33.1010   40.1230 F   0  0  0  0  0  0  0  0  0  0  0  0
   48.4810   35.2250   40.0230 F   0  0  0  0  0  0  0  0  0  0  0  0
   45.1940   34.3360   41.5520 C   0  0  0  0  0  0  0  0  0  0  0  0
   43.8910   34.4110   41.0640 C   0  0  0  0  0  0  0  0  0  0  0  0
   43.3100   35.6070   41.4230 C   0  0  0  0  0  0  0  0  0  0  0  0
   44.3000   36.2400   42.1340 C   0  0  0  0  0  0  0  0  0  0  0  0
   45.3400   35.4850   42.1790 O   0  0  0  0  0  0  0  0  0  0  0  0
   45.8774   33.8713   47.0931 H   0  0  0  0  0  0  0  0  0  0  0  0
   48.5482   31.7225   50.0838 H   0  0  0  0  0  0  0  0  0  0  0  0
   47.2644   33.0390   48.3881 H   0  0  0  0  0  0  0  0  0  0  0  0
   49.0071   28.5694   47.2842 H   0  0  0  0  0  0  0  0  0  0  0  0
   44.0277   31.3819   42.9783 H   0  0  0  0  0  0  0  0  0  0  0  0
   43.9528   32.3039   41.4385 H   0  0  0  0  0  0  0  0  0  0  0  0
   44.5230   30.6005   41.4385 H   0  0  0  0  0  0  0  0  0  0  0  0
   47.2991   30.5276   42.8558 H   0  0  0  0  0  0  0  0  0  0  0  0
   46.4249   30.1500   41.3327 H   0  0  0  0  0  0  0  0  0  0  0  0
   47.7434   31.3699   41.3327 H   0  0  0  0  0  0  0  0  0  0  0  0
   46.0774   32.8462   40.3766 H   0  0  0  0  0  0  0  0  0  0  0  0
   49.3092   34.5437   44.1335 H   0  0  0  0  0  0  0  0  0  0  0  0
   47.6579   33.8901   43.9640 H   0  0  0  0  0  0  0  0  0  0  0  0
   43.3958   33.6252   40.4747 H   0  0  0  0  0  0  0  0  0  0  0  0
   42.2964   35.9685   41.1950 H   0  0  0  0  0  0  0  0  0  0  0  0
   44.2164   37.2362   42.5928 H   0  0  0  0  0  0  0  0  0  0  0  0
  1  5  1  0
  2  3  2  0
  2  9  1  0
  4  3  1  0
  5  4  1  0
  5  6  2  0
  6  2  1  0
  8  7  2  0
  9  8  1  0
 10  9  2  0
 10 11  1  0
 11 12  2  0
 12  7  1  0
 13  1  1  0
 14  1  1  0
 15 16  1  0
 15 24  1  0
 15  1  1  0
 16 17  1  0
 17 18  2  0
 17 19  1  0
 20 16  1  0
 21 20  1  0
 22 20  1  0
 23 20  1  0
 24 28  1  0
 25 26  1  0
 25 24  2  0
 26 27  2  0
 27 28  1  0
  3 29  1  0
  7 30  1  0
  8 31  1  0
 11 32  1  0
 13 33  1  0
 13 34  1  0
 13 35  1  0
 14 36  1  0
 14 37  1  0
 14 38  1  0
 15 39  1  6
 19 40  1  0
 19 41  1  0
 25 42  1  0
 26 43  1  0
 27 44  1  0
M  ISO  8  29  14  30  14  31  14  32  14  33   8  34   8  35   8  36   8
M  ISO  6  37   8  38   8  39   8  42  14  43  14  44  14
M  END
>  <minimizedAffinity>  (1) 
-5.30531645

>  <minimizedRMSD>  (1) 
1.50146544

$$$$
