
     RDKit          3D

 30 32  0  0  0  0  0  0  0  0999 V2000
   45.5960   34.2750   41.1640 C   0  0  0  0  0  0  0  0  0  0  0  0
   46.9220   34.6210   41.4540 C   0  0  0  0  0  0  0  0  0  0  0  0
   47.8980   34.3940   40.4620 C   0  0  0  0  0  0  0  0  0  0  0  0
   47.4860   33.8460   39.2710 N   0  0  0  0  0  0  0  0  0  0  0  0
   46.1890   33.5320   39.0490 C   0  0  0  0  0  0  0  0  0  0  0  0
   45.2780   33.7520   39.9930 N   0  0  0  0  0  0  0  0  0  0  0  0
   45.8180   32.9540   37.7610 C   0  0  0  0  0  0  0  0  0  0  0  0
   44.5590   32.4960   37.4260 C   0  0  0  0  0  0  0  0  0  0  0  0
   44.6470   32.0460   36.1580 N   0  0  0  0  0  0  0  0  0  0  0  0
   45.9130   32.2020   35.6790 C   0  0  0  0  0  0  0  0  0  0  0  0
   46.4970   31.9030   34.4650 C   0  0  0  0  0  0  0  0  0  0  0  0
   47.8380   32.1950   34.2960 C   0  0  0  0  0  0  0  0  0  0  0  0
   48.5770   32.7610   35.2910 C   0  0  0  0  0  0  0  0  0  0  0  0
   47.9930   33.0660   36.5210 C   0  0  0  0  0  0  0  0  0  0  0  0
   46.6530   32.7690   36.6770 C   0  0  0  0  0  0  0  0  0  0  0  0
   44.5990   34.5130   42.1900 C   0  0  0  0  0  0  0  0  0  0  0  0
   43.6200   35.2820   41.9260 O   0  0  0  0  0  0  0  0  0  0  0  0
   44.7520   33.8840   43.4390 O   0  0  0  0  0  0  0  0  0  0  0  0
   45.3680   34.6000   44.4750 C   0  0  0  0  0  0  0  0  0  0  0  0
   44.6610   34.5110   45.6680 F   0  0  0  0  0  0  0  0  0  0  0  0
   46.6440   34.1370   44.6890 F   0  0  0  0  0  0  0  0  0  0  0  0
   45.3850   35.9340   44.0870 F   0  0  0  0  0  0  0  0  0  0  0  0
   47.1938   35.0568   42.4267 H   0  0  0  0  0  0  0  0  0  0  0  0
   48.9543   34.6472   40.6357 H   0  0  0  0  0  0  0  0  0  0  0  0
   43.6639   32.4979   38.0654 H   0  0  0  0  0  0  0  0  0  0  0  0
   43.8648   31.6401   35.6248 H   0  0  0  0  0  0  0  0  0  0  0  0
   45.9118   31.4449   33.6540 H   0  0  0  0  0  0  0  0  0  0  0  0
   48.3201   31.9646   33.3345 H   0  0  0  0  0  0  0  0  0  0  0  0
   49.6420   32.9791   35.1234 H   0  0  0  0  0  0  0  0  0  0  0  0
   48.5760   33.5243   37.3334 H   0  0  0  0  0  0  0  0  0  0  0  0
  1  2  2  0
  1 16  1  0
  3  2  1  0
  4  3  2  0
  5  4  1  0
  5  6  2  0
  6  1  1  0
  7  5  1  0
  8  7  2  0
  9  8  1  0
 10  9  1  0
 10 15  2  0
 11 10  1  0
 12 11  2  0
 12 13  1  0
 13 14  2  0
 14 15  1  0
 15  7  1  0
 16 18  1  0
 17 16  2  0
 18 19  1  0
 19 21  1  0
 19 20  1  0
 22 19  1  0
  2 23  1  0
  3 24  1  0
  8 25  1  0
  9 26  1  0
 11 27  1  0
 12 28  1  0
 13 29  1  0
 14 30  1  0
M  ISO  8  23  14  24  14  25  14  26   9  27  14  28  14  29  14  30  14
M  END
>  <minimizedAffinity>  (1) 
-4.8631897

>  <minimizedRMSD>  (1) 
1.49132788

$$$$
