
     RDKit          3D

 22 23  0  0  0  0  0  0  0  0999 V2000
   45.3930   34.7350   44.5470 C   0  0  0  0  0  0  0  0  0  0  0  0
   46.2310   34.4110   43.4520 C   0  0  0  0  0  0  0  0  0  0  0  0
   47.1520   33.3790   43.5810 C   0  0  0  0  0  0  0  0  0  0  0  0
   47.1920   32.7280   44.7770 N   0  0  0  0  0  0  0  0  0  0  0  0
   46.3880   33.0540   45.7980 C   0  0  0  0  0  0  0  0  0  0  0  0
   45.4800   34.0570   45.7010 N   0  0  0  0  0  0  0  0  0  0  0  0
   46.4480   32.3420   47.0800 C   0  0  0  0  0  0  0  0  0  0  0  0
   47.4610   31.3760   47.2490 C   0  0  0  0  0  0  0  0  0  0  0  0
   47.0710   30.8160   49.0050 S   0  0  0  0  0  0  0  0  0  0  0  0
   45.6150   32.0120   49.1350 C   0  0  0  0  0  0  0  0  0  0  0  0
   45.6620   32.4860   48.1290 N   0  0  0  0  0  0  0  0  0  0  0  0
   44.4590   35.8440   44.2940 C   0  0  0  0  0  0  0  0  0  0  0  0
   45.0020   36.8220   43.2580 C   0  0  0  0  0  0  0  0  0  0  0  0
   46.1533   34.9712   42.5085 H   0  0  0  0  0  0  0  0  0  0  0  0
   47.8202   33.0995   42.7531 H   0  0  0  0  0  0  0  0  0  0  0  0
   48.2496   31.0455   46.5569 H   0  0  0  0  0  0  0  0  0  0  0  0
   44.9187   32.1896   49.9679 H   0  0  0  0  0  0  0  0  0  0  0  0
   43.5076   35.4307   43.9280 H   0  0  0  0  0  0  0  0  0  0  0  0
   44.3178   36.3916   45.2375 H   0  0  0  0  0  0  0  0  0  0  0  0
   45.4747   37.6733   43.7698 H   0  0  0  0  0  0  0  0  0  0  0  0
   45.7468   36.3132   42.6284 H   0  0  0  0  0  0  0  0  0  0  0  0
   44.1763   37.1851   42.6284 H   0  0  0  0  0  0  0  0  0  0  0  0
  1  6  2  0
  2  3  2  0
  2  1  1  0
  3  4  1  0
  4  5  2  0
  5  7  1  0
  6  5  1  0
  7  8  2  0
  7 11  1  0
  8  9  1  0
  9 10  1  0
 11 10  2  0
 12  1  1  0
 13 12  1  0
  2 14  1  0
  3 15  1  0
  8 16  1  0
 10 17  1  0
 12 18  1  0
 12 19  1  0
 13 20  1  0
 13 21  1  0
 13 22  1  0
M  ISO  8  14  14  15  14  16  14  17  14  18   8  19   8  20   8  21   8
M  ISO  1  22   8
M  END
>  <minimizedAffinity>  (1) 
-4.08215284

>  <minimizedRMSD>  (1) 
1.49701667

$$$$
