
     RDKit          3D

 23 24  0  0  0  0  0  0  0  0999 V2000
   46.2310   34.7910   43.0970 C   0  0  0  0  0  0  0  0  0  0  0  0
   47.2560   34.3420   42.2670 C   0  0  0  0  0  0  0  0  0  0  0  0
   48.0530   33.2680   42.6770 C   0  0  0  0  0  0  0  0  0  0  0  0
   47.7780   32.6990   43.9030 N   0  0  0  0  0  0  0  0  0  0  0  0
   46.7830   33.1630   44.6660 C   0  0  0  0  0  0  0  0  0  0  0  0
   46.0230   34.1860   44.2760 N   0  0  0  0  0  0  0  0  0  0  0  0
   45.3730   35.8870   42.8050 N   0  0  0  0  0  0  0  0  0  0  0  0
   44.9930   36.8270   43.7980 C   0  0  0  0  0  0  0  0  0  0  0  0
   44.5210   36.4160   44.9110 N   0  0  0  0  0  0  0  0  0  0  0  0
   45.1250   38.2290   43.5370 N   0  0  0  0  0  0  0  0  0  0  0  0
   44.4030   35.4160   45.1190 H   0  0  0  0  0  0  0  0  0  0  0  0
   46.4970   32.5550   45.9660 C   0  0  0  0  0  0  0  0  0  0  0  0
   47.1870   31.3850   46.3370 C   0  0  0  0  0  0  0  0  0  0  0  0
   46.4580   31.0460   48.0420 S   0  0  0  0  0  0  0  0  0  0  0  0
   45.3600   32.5770   47.8960 C   0  0  0  0  0  0  0  0  0  0  0  0
   45.6450   32.9630   46.8900 N   0  0  0  0  0  0  0  0  0  0  0  0
   47.4371   34.8282   41.2970 H   0  0  0  0  0  0  0  0  0  0  0  0
   48.8699   32.8907   42.0443 H   0  0  0  0  0  0  0  0  0  0  0  0
   45.0172   36.0018   41.8453 H   0  0  0  0  0  0  0  0  0  0  0  0
   44.8504   38.9146   44.2549 H   0  0  0  0  0  0  0  0  0  0  0  0
   45.4946   38.5517   42.6314 H   0  0  0  0  0  0  0  0  0  0  0  0
   47.9486   30.8194   45.7802 H   0  0  0  0  0  0  0  0  0  0  0  0
   44.6315   32.9808   48.6145 H   0  0  0  0  0  0  0  0  0  0  0  0
  1  6  2  0
  2  3  2  0
  2  1  1  0
  3  4  1  0
  4  5  2  0
  5 12  1  0
  6  5  1  0
  7  1  1  0
  7  8  1  0
  8  9  2  0
  9 11  1  0
 10  8  1  0
 12 13  2  0
 12 16  1  0
 13 14  1  0
 15 14  1  0
 16 15  2  0
  2 17  1  0
  3 18  1  0
  7 19  1  0
 10 20  1  0
 10 21  1  0
 13 22  1  0
 15 23  1  0
M  ISO  4  17  14  18  14  22  14  23  14
M  END
>  <minimizedAffinity>  (1) 
-4.69632959

>  <minimizedRMSD>  (1) 
2.19544864

$$$$
