
     RDKit          3D

 29 31  0  0  0  0  0  0  0  0999 V2000
   45.7540   33.4090   44.0630 C   0  0  0  0  0  0  0  0  0  0  0  0
   46.6770   32.8520   43.1480 C   0  0  0  0  0  0  0  0  0  0  0  0
   47.5750   31.8770   43.5930 C   0  0  0  0  0  0  0  0  0  0  0  0
   47.5090   31.5120   44.9110 N   0  0  0  0  0  0  0  0  0  0  0  0
   46.6210   32.0630   45.7440 C   0  0  0  0  0  0  0  0  0  0  0  0
   45.7370   33.0110   45.3430 N   0  0  0  0  0  0  0  0  0  0  0  0
   46.5460   31.6740   47.1650 C   0  0  0  0  0  0  0  0  0  0  0  0
   45.2810   31.7580   47.7830 C   0  0  0  0  0  0  0  0  0  0  0  0
   45.7120   31.1730   49.5200 S   0  0  0  0  0  0  0  0  0  0  0  0
   47.5190   30.9410   49.0240 C   0  0  0  0  0  0  0  0  0  0  0  0
   47.5270   31.2460   47.9520 N   0  0  0  0  0  0  0  0  0  0  0  0
   44.7830   34.4500   43.6230 C   0  0  0  0  0  0  0  0  0  0  0  0
   44.5890   35.4600   44.7210 C   0  0  0  0  0  0  0  0  0  0  0  0
   44.7110   36.8160   44.1070 C   0  0  0  0  0  0  0  0  0  0  0  0
   45.6710   36.6020   42.9620 C   0  0  0  0  0  0  0  0  0  0  0  0
   45.3840   35.2240   42.4630 C   0  0  0  0  0  0  0  0  0  0  0  0
   46.6884   33.1818   42.0987 H   0  0  0  0  0  0  0  0  0  0  0  0
   48.3067   31.4205   42.9102 H   0  0  0  0  0  0  0  0  0  0  0  0
   44.3137   32.0761   47.3669 H   0  0  0  0  0  0  0  0  0  0  0  0
   48.3587   30.5905   49.6421 H   0  0  0  0  0  0  0  0  0  0  0  0
   43.8386   33.9540   43.3544 H   0  0  0  0  0  0  0  0  0  0  0  0
   43.5926   35.3393   45.1711 H   0  0  0  0  0  0  0  0  0  0  0  0
   45.3407   35.3228   45.5123 H   0  0  0  0  0  0  0  0  0  0  0  0
   43.7361   37.1706   43.7411 H   0  0  0  0  0  0  0  0  0  0  0  0
   45.0589   37.5782   44.8197 H   0  0  0  0  0  0  0  0  0  0  0  0
   45.4966   37.3437   42.1686 H   0  0  0  0  0  0  0  0  0  0  0  0
   46.7188   36.7153   43.2772 H   0  0  0  0  0  0  0  0  0  0  0  0
   44.6710   35.2657   41.6264 H   0  0  0  0  0  0  0  0  0  0  0  0
   46.3016   34.7383   42.0994 H   0  0  0  0  0  0  0  0  0  0  0  0
  1  6  2  0
  2  3  2  0
  2  1  1  0
  3  4  1  0
  4  5  2  0
  5  7  1  0
  6  5  1  0
  7  8  2  0
  7 11  1  0
  8  9  1  0
 10  9  1  0
 11 10  2  0
 12  1  1  0
 12 13  1  0
 14 13  1  0
 15 14  1  0
 16 15  1  0
 16 12  1  0
  2 17  1  0
  3 18  1  0
  8 19  1  0
 10 20  1  0
 12 21  1  0
 13 22  1  0
 13 23  1  0
 14 24  1  0
 14 25  1  0
 15 26  1  0
 15 27  1  0
 16 28  1  0
 16 29  1  0
M  ISO  8  17  14  18  14  19  14  20  14  21  13  22  13  23  13  24  13
M  ISO  5  25  13  26  13  27  13  28  13  29  13
M  END
>  <minimizedAffinity>  (1) 
-3.7687695

>  <minimizedRMSD>  (1) 
2.86011863

$$$$
