
     RDKit          3D

 32 34  0  0  1  0  0  0  0  0999 V2000
   45.5700   34.4690   43.8750 C   0  0  0  0  0  0  0  0  0  0  0  0
   46.6100   34.1510   42.9790 C   0  0  0  0  0  0  0  0  0  0  0  0
   47.5940   33.2170   43.3700 C   0  0  0  0  0  0  0  0  0  0  0  0
   47.4630   32.6800   44.6080 N   0  0  0  0  0  0  0  0  0  0  0  0
   46.4580   33.0040   45.4410 C   0  0  0  0  0  0  0  0  0  0  0  0
   45.5080   33.8910   45.0950 N   0  0  0  0  0  0  0  0  0  0  0  0
   46.3680   32.3860   46.7700 C   0  0  0  0  0  0  0  0  0  0  0  0
   47.3970   31.5140   47.1810 C   0  0  0  0  0  0  0  0  0  0  0  0
   46.7810   31.0360   48.8900 S   0  0  0  0  0  0  0  0  0  0  0  0
   45.2430   32.1330   48.6790 C   0  0  0  0  0  0  0  0  0  0  0  0
   45.3980   32.5560   47.6600 N   0  0  0  0  0  0  0  0  0  0  0  0
   44.5380   35.4490   43.4680 C   0  0  1  0  0  0  0  0  0  0  0  0
   44.8910   36.8200   44.0130 C   0  0  0  0  0  0  0  0  0  0  0  0
   44.3950   35.5290   41.9680 C   0  0  0  0  0  0  0  0  0  0  0  0
   42.9740   35.4220   41.5370 C   0  0  0  0  0  0  0  0  0  0  0  0
   42.5890   35.1390   40.2280 C   0  0  0  0  0  0  0  0  0  0  0  0
   41.2580   35.1090   40.1560 N   0  0  0  0  0  0  0  0  0  0  0  0
   40.7640   35.3690   41.3930 C   0  0  0  0  0  0  0  0  0  0  0  0
   41.8090   35.5550   42.2130 N   0  0  0  0  0  0  0  0  0  0  0  0
   46.6547   34.6246   41.9872 H   0  0  0  0  0  0  0  0  0  0  0  0
   48.4244   32.9392   42.7042 H   0  0  0  0  0  0  0  0  0  0  0  0
   48.3073   31.2007   46.6489 H   0  0  0  0  0  0  0  0  0  0  0  0
   44.4142   32.3056   49.3814 H   0  0  0  0  0  0  0  0  0  0  0  0
   43.5770   35.1099   43.8821 H   0  0  0  0  0  0  0  0  0  0  0  0
   44.8834   36.7906   45.1126 H   0  0  0  0  0  0  0  0  0  0  0  0
   45.8926   37.1078   43.6608 H   0  0  0  0  0  0  0  0  0  0  0  0
   44.1530   37.5557   43.6608 H   0  0  0  0  0  0  0  0  0  0  0  0
   44.7991   36.4924   41.6236 H   0  0  0  0  0  0  0  0  0  0  0  0
   44.9479   34.6858   41.5284 H   0  0  0  0  0  0  0  0  0  0  0  0
   43.2757   34.9673   39.3860 H   0  0  0  0  0  0  0  0  0  0  0  0
   39.7011   35.4182   41.6721 H   0  0  0  0  0  0  0  0  0  0  0  0
   41.7352   35.7693   43.2177 H   0  0  0  0  0  0  0  0  0  0  0  0
  1  6  2  0
  2  3  2  0
  2  1  1  0
  3  4  1  0
  4  5  2  0
  5  7  1  0
  6  5  1  0
  7  8  2  0
  7 11  1  0
  8  9  1  0
 10  9  1  0
 11 10  2  0
 12  1  1  0
 12 13  1  0
 14 12  1  0
 15 14  1  0
 15 19  1  0
 16 15  2  0
 17 16  1  0
 17 18  2  0
 18 19  1  0
  2 20  1  0
  3 21  1  0
  8 22  1  0
 10 23  1  0
 12 24  1  1
 13 25  1  0
 13 26  1  0
 13 27  1  0
 14 28  1  0
 14 29  1  0
 16 30  1  0
 18 31  1  0
 19 32  1  0
M  ISO  8  20  14  21  14  22  14  23  14  24   8  25   8  26   8  27   8
M  ISO  5  28   8  29   8  30  14  31  14  32   9
M  END
>  <minimizedAffinity>  (1) 
-5.30299425

>  <minimizedRMSD>  (1) 
1.11260998

$$$$
