
     RDKit          3D

 41 43  0  0  1  0  0  0  0  0999 V2000
   45.5460   34.2500   43.2600 C   0  0  0  0  0  0  0  0  0  0  0  0
   46.6400   33.9260   42.4280 C   0  0  0  0  0  0  0  0  0  0  0  0
   47.6650   33.0810   42.9220 C   0  0  0  0  0  0  0  0  0  0  0  0
   47.5210   32.6260   44.1990 N   0  0  0  0  0  0  0  0  0  0  0  0
   46.4690   32.9540   44.9600 C   0  0  0  0  0  0  0  0  0  0  0  0
   45.4930   33.7530   44.5030 N   0  0  0  0  0  0  0  0  0  0  0  0
   46.3400   32.4450   46.3300 C   0  0  0  0  0  0  0  0  0  0  0  0
   47.2160   31.4400   46.7620 C   0  0  0  0  0  0  0  0  0  0  0  0
   46.6290   31.1650   48.5240 S   0  0  0  0  0  0  0  0  0  0  0  0
   45.3030   32.4850   48.3070 C   0  0  0  0  0  0  0  0  0  0  0  0
   45.4790   32.8100   47.2550 N   0  0  0  0  0  0  0  0  0  0  0  0
   44.4850   35.1300   42.7350 C   0  0  1  0  0  0  0  0  0  0  0  0
   44.8440   36.5710   42.9500 C   0  0  0  0  0  0  0  0  0  0  0  0
   44.2360   34.8960   41.2540 C   0  0  0  0  0  0  0  0  0  0  0  0
   42.8920   35.4450   40.9070 C   0  0  0  0  0  0  0  0  0  0  0  0
   42.3890   34.9630   39.5610 C   0  0  0  0  0  0  0  0  0  0  0  0
   41.1420   35.8080   39.2890 C   0  0  0  0  0  0  0  0  0  0  0  0
   40.0720   35.3890   40.2450 C   0  0  0  0  0  0  0  0  0  0  0  0
   40.5570   34.6450   41.4490 C   0  0  0  0  0  0  0  0  0  0  0  0
   41.8850   35.0760   41.9730 C   0  0  0  0  0  0  0  0  0  0  0  0
   46.6962   34.3261   41.4049 H   0  0  0  0  0  0  0  0  0  0  0  0
   48.5336   32.8060   42.3056 H   0  0  0  0  0  0  0  0  0  0  0  0
   48.0309   30.9441   46.2143 H   0  0  0  0  0  0  0  0  0  0  0  0
   44.5527   32.8414   49.0281 H   0  0  0  0  0  0  0  0  0  0  0  0
   43.5642   34.8870   43.2856 H   0  0  0  0  0  0  0  0  0  0  0  0
   44.8958   36.7789   44.0289 H   0  0  0  0  0  0  0  0  0  0  0  0
   45.8212   36.7781   42.4893 H   0  0  0  0  0  0  0  0  0  0  0  0
   44.0782   37.2123   42.4893 H   0  0  0  0  0  0  0  0  0  0  0  0
   45.0097   35.4073   40.6624 H   0  0  0  0  0  0  0  0  0  0  0  0
   44.2723   33.8194   41.0313 H   0  0  0  0  0  0  0  0  0  0  0  0
   43.0065   36.5375   40.8490 H   0  0  0  0  0  0  0  0  0  0  0  0
   43.1473   35.1279   38.7814 H   0  0  0  0  0  0  0  0  0  0  0  0
   42.1706   33.8849   39.5592 H   0  0  0  0  0  0  0  0  0  0  0  0
   41.3753   36.8729   39.4356 H   0  0  0  0  0  0  0  0  0  0  0  0
   40.8031   35.6600   38.2530 H   0  0  0  0  0  0  0  0  0  0  0  0
   39.5493   36.2933   40.5901 H   0  0  0  0  0  0  0  0  0  0  0  0
   39.4223   34.6930   39.6941 H   0  0  0  0  0  0  0  0  0  0  0  0
   39.8161   34.7771   42.2512 H   0  0  0  0  0  0  0  0  0  0  0  0
   40.6807   33.5994   41.1307 H   0  0  0  0  0  0  0  0  0  0  0  0
   42.3028   34.2514   42.5691 H   0  0  0  0  0  0  0  0  0  0  0  0
   41.7069   35.9872   42.5629 H   0  0  0  0  0  0  0  0  0  0  0  0
  1  6  2  0
  2  3  2  0
  2  1  1  0
  3  4  1  0
  4  5  2  0
  5  7  1  0
  6  5  1  0
  7  8  2  0
  7 11  1  0
  8  9  1  0
 10  9  1  0
 11 10  2  0
 12 13  1  0
 12  1  1  0
 14 12  1  0
 15 14  1  0
 15 20  1  0
 16 15  1  0
 17 16  1  0
 17 18  1  0
 18 19  1  0
 19 20  1  0
  2 21  1  0
  3 22  1  0
  8 23  1  0
 10 24  1  0
 12 25  1  1
 13 26  1  0
 13 27  1  0
 13 28  1  0
 14 29  1  0
 14 30  1  0
 15 31  1  0
 16 32  1  0
 16 33  1  0
 17 34  1  0
 17 35  1  0
 18 36  1  0
 18 37  1  0
 19 38  1  0
 19 39  1  0
 20 40  1  0
 20 41  1  0
M  ISO  8  21  14  22  14  23  14  24  14  25   8  26   8  27   8  28   8
M  ISO  8  29   8  30   8  31  13  32  13  33  13  34  13  35  13  36  13
M  ISO  5  37  13  38  13  39  13  40  13  41  13
M  END
>  <minimizedAffinity>  (1) 
-5.18367863

>  <minimizedRMSD>  (1) 
1.20272088

$$$$
