
     RDKit          3D

 31 33  0  0  1  0  0  0  0  0999 V2000
   45.9410   34.4190   43.3000 C   0  0  0  0  0  0  0  0  0  0  0  0
   45.0620   35.5170   43.4250 C   0  0  0  0  0  0  0  0  0  0  0  0
   44.4830   35.8010   44.6810 C   0  0  0  0  0  0  0  0  0  0  0  0
   44.8160   34.9790   45.7180 N   0  0  0  0  0  0  0  0  0  0  0  0
   45.6510   33.9510   45.5690 C   0  0  0  0  0  0  0  0  0  0  0  0
   46.2220   33.6530   44.3730 N   0  0  0  0  0  0  0  0  0  0  0  0
   46.0000   33.0790   46.6960 C   0  0  0  0  0  0  0  0  0  0  0  0
   45.0560   32.9030   47.7160 C   0  0  0  0  0  0  0  0  0  0  0  0
   45.9730   31.7420   48.8730 S   0  0  0  0  0  0  0  0  0  0  0  0
   47.4630   31.7380   47.7180 C   0  0  0  0  0  0  0  0  0  0  0  0
   47.1180   32.4130   46.8960 N   0  0  0  0  0  0  0  0  0  0  0  0
   46.5440   34.1260   41.9850 C   0  0  1  0  0  0  0  0  0  0  0  0
   45.5000   34.2790   40.8970 C   0  0  0  0  0  0  0  0  0  0  0  0
   47.7040   35.0380   41.6770 C   0  0  0  0  0  0  0  0  0  0  0  0
   48.9450   34.3050   41.8730 N   0  0  0  0  0  0  0  0  0  0  0  0
   50.0840   34.6070   42.5380 C   0  0  0  0  0  0  0  0  0  0  0  0
   50.9260   33.5610   42.3980 N   0  0  0  0  0  0  0  0  0  0  0  0
   50.3210   32.5990   41.6450 C   0  0  0  0  0  0  0  0  0  0  0  0
   49.1160   33.0870   41.3430 N   0  0  0  0  0  0  0  0  0  0  0  0
   44.8305   36.1451   42.5521 H   0  0  0  0  0  0  0  0  0  0  0  0
   43.7939   36.6475   44.8175 H   0  0  0  0  0  0  0  0  0  0  0  0
   44.0472   33.3306   47.8133 H   0  0  0  0  0  0  0  0  0  0  0  0
   48.4218   31.2095   47.8249 H   0  0  0  0  0  0  0  0  0  0  0  0
   46.9186   33.0924   42.0208 H   0  0  0  0  0  0  0  0  0  0  0  0
   44.5108   34.4240   41.3558 H   0  0  0  0  0  0  0  0  0  0  0  0
   45.7460   35.1507   40.2728 H   0  0  0  0  0  0  0  0  0  0  0  0
   45.4855   33.3734   40.2728 H   0  0  0  0  0  0  0  0  0  0  0  0
   47.6787   35.9077   42.3500 H   0  0  0  0  0  0  0  0  0  0  0  0
   47.6376   35.3865   40.6358 H   0  0  0  0  0  0  0  0  0  0  0  0
   50.2869   35.5355   43.0918 H   0  0  0  0  0  0  0  0  0  0  0  0
   50.7382   31.6253   41.3486 H   0  0  0  0  0  0  0  0  0  0  0  0
  1  2  2  0
  1  6  1  0
  2  3  1  0
  3  4  2  0
  5  4  1  0
  5  7  1  0
  6  5  2  0
  7 11  1  0
  7  8  2  0
  8  9  1  0
 10  9  1  0
 11 10  2  0
 12  1  1  0
 13 12  1  0
 14 15  1  0
 14 12  1  0
 15 16  1  0
 17 16  2  0
 18 17  1  0
 19 18  2  0
 19 15  1  0
  2 20  1  0
  3 21  1  0
  8 22  1  0
 10 23  1  0
 12 24  1  1
 13 25  1  0
 13 26  1  0
 13 27  1  0
 14 28  1  0
 14 29  1  0
 16 30  1  0
 18 31  1  0
M  ISO  8  20  14  21  14  22  14  23  14  24   8  25   8  26   8  27   8
M  ISO  4  28   8  29   8  30  14  31  14
M  END
>  <minimizedAffinity>  (1) 
-5.47053528

>  <minimizedRMSD>  (1) 
5.0531168

$$$$
