
     RDKit          3D

 34 36  0  0  1  0  0  0  0  0999 V2000
   44.4310   35.6590   43.6530 C   0  0  1  0  0  0  0  0  0  0  0  0
   45.4540   34.6680   44.0060 C   0  0  0  0  0  0  0  0  0  0  0  0
   46.4790   34.3940   43.0720 C   0  0  0  0  0  0  0  0  0  0  0  0
   47.4690   33.4480   43.3950 C   0  0  0  0  0  0  0  0  0  0  0  0
   47.3730   32.8480   44.6070 N   0  0  0  0  0  0  0  0  0  0  0  0
   46.4020   33.1190   45.4690 C   0  0  0  0  0  0  0  0  0  0  0  0
   45.4480   34.0250   45.1680 N   0  0  0  0  0  0  0  0  0  0  0  0
   46.3160   32.4620   46.7740 C   0  0  0  0  0  0  0  0  0  0  0  0
   47.3590   31.5960   47.1460 C   0  0  0  0  0  0  0  0  0  0  0  0
   46.7600   31.0500   48.8370 S   0  0  0  0  0  0  0  0  0  0  0  0
   45.2060   32.1160   48.6910 C   0  0  0  0  0  0  0  0  0  0  0  0
   45.3770   32.5620   47.6790 N   0  0  0  0  0  0  0  0  0  0  0  0
   45.0670   37.0390   43.5040 C   0  0  0  0  0  0  0  0  0  0  0  0
   43.7060   35.3350   42.3950 C   0  0  0  0  0  0  0  0  0  0  0  0
   42.2980   35.5880   42.4510 N   0  0  0  0  0  0  0  0  0  0  0  0
   39.7720   34.0500   40.6310 N   0  0  0  0  0  0  0  0  0  0  0  0
   40.7960   34.1510   41.4810 N   0  0  0  0  0  0  0  0  0  0  0  0
   41.2110   35.4420   41.5610 C   0  0  0  0  0  0  0  0  0  0  0  0
   40.4040   36.1830   40.7170 C   0  0  0  0  0  0  0  0  0  0  0  0
   39.5140   35.2850   40.1500 C   0  0  0  0  0  0  0  0  0  0  0  0
   43.6991   35.6465   44.4740 H   0  0  0  0  0  0  0  0  0  0  0  0
   46.5023   34.9147   42.1033 H   0  0  0  0  0  0  0  0  0  0  0  0
   48.2835   33.2063   42.6963 H   0  0  0  0  0  0  0  0  0  0  0  0
   48.2712   31.3168   46.5984 H   0  0  0  0  0  0  0  0  0  0  0  0
   44.3741   32.2572   49.3967 H   0  0  0  0  0  0  0  0  0  0  0  0
   45.2621   37.4623   44.5004 H   0  0  0  0  0  0  0  0  0  0  0  0
   46.0142   36.9485   42.9521 H   0  0  0  0  0  0  0  0  0  0  0  0
   44.3829   37.7004   42.9521 H   0  0  0  0  0  0  0  0  0  0  0  0
   43.8569   34.2680   42.1741 H   0  0  0  0  0  0  0  0  0  0  0  0
   44.1159   35.9922   41.6139 H   0  0  0  0  0  0  0  0  0  0  0  0
   42.0067   35.9694   43.3624 H   0  0  0  0  0  0  0  0  0  0  0  0
   39.2689   33.1853   40.3860 H   0  0  0  0  0  0  0  0  0  0  0  0
   40.4578   37.2662   40.5330 H   0  0  0  0  0  0  0  0  0  0  0  0
   38.7254   35.5372   39.4257 H   0  0  0  0  0  0  0  0  0  0  0  0
  1  2  1  0
  2  7  2  0
  3  4  2  0
  3  2  1  0
  4  5  1  0
  5  6  2  0
  6  8  1  0
  7  6  1  0
  8  9  2  0
  8 12  1  0
  9 10  1  0
 11 10  1  0
 12 11  2  0
 13  1  1  0
 14 15  1  0
 14  1  1  0
 16 17  1  0
 17 18  2  0
 18 15  1  0
 19 18  1  0
 20 16  1  0
 20 19  2  0
  1 21  1  1
  3 22  1  0
  4 23  1  0
  9 24  1  0
 11 25  1  0
 13 26  1  0
 13 27  1  0
 13 28  1  0
 14 29  1  0
 14 30  1  0
 15 31  1  0
 16 32  1  0
 19 33  1  0
 20 34  1  0
M  ISO  8  21   8  22  14  23  14  24  14  25  14  26   8  27   8  28   8
M  ISO  5  29   8  30   8  32   9  33  14  34  14
M  END
>  <minimizedAffinity>  (1) 
-5.95608425

>  <minimizedRMSD>  (1) 
2.64432955

$$$$
