
     RDKit          3D

 33 35  0  0  1  0  0  0  0  0999 V2000
   44.4440   35.6370   43.7180 C   0  0  1  0  0  0  0  0  0  0  0  0
   45.4620   34.6520   44.0810 C   0  0  0  0  0  0  0  0  0  0  0  0
   46.5060   34.3890   43.1510 C   0  0  0  0  0  0  0  0  0  0  0  0
   47.5000   33.4510   43.4710 C   0  0  0  0  0  0  0  0  0  0  0  0
   47.3970   32.8390   44.6790 N   0  0  0  0  0  0  0  0  0  0  0  0
   46.4130   33.1000   45.5310 C   0  0  0  0  0  0  0  0  0  0  0  0
   45.4460   34.0000   45.2430 N   0  0  0  0  0  0  0  0  0  0  0  0
   46.3190   32.4320   46.8330 C   0  0  0  0  0  0  0  0  0  0  0  0
   47.3920   31.6280   47.2520 C   0  0  0  0  0  0  0  0  0  0  0  0
   46.7680   31.0450   48.9110 S   0  0  0  0  0  0  0  0  0  0  0  0
   45.1700   32.0100   48.7120 C   0  0  0  0  0  0  0  0  0  0  0  0
   45.3440   32.4730   47.7030 N   0  0  0  0  0  0  0  0  0  0  0  0
   45.0250   37.0470   43.7880 C   0  0  0  0  0  0  0  0  0  0  0  0
   43.8780   35.4270   42.3580 C   0  0  0  0  0  0  0  0  0  0  0  0
   42.4370   35.4360   42.3370 N   0  0  0  0  0  0  0  0  0  0  0  0
   41.6610   35.2940   41.1280 C   0  0  0  0  0  0  0  0  0  0  0  0
   42.2890   35.1460   39.8500 C   0  0  0  0  0  0  0  0  0  0  0  0
   40.8360   35.0140   38.7330 S   0  0  0  0  0  0  0  0  0  0  0  0
   39.6330   35.1810   40.1920 C   0  0  0  0  0  0  0  0  0  0  0  0
   40.3300   35.2900   41.1180 N   0  0  0  0  0  0  0  0  0  0  0  0
   43.6279   35.5094   44.4445 H   0  0  0  0  0  0  0  0  0  0  0  0
   46.5341   34.9177   42.1868 H   0  0  0  0  0  0  0  0  0  0  0  0
   48.3224   33.2227   42.7771 H   0  0  0  0  0  0  0  0  0  0  0  0
   48.3403   31.4036   46.7418 H   0  0  0  0  0  0  0  0  0  0  0  0
   44.3084   32.0974   49.3902 H   0  0  0  0  0  0  0  0  0  0  0  0
   45.1464   37.3417   44.8408 H   0  0  0  0  0  0  0  0  0  0  0  0
   46.0040   37.0655   43.2868 H   0  0  0  0  0  0  0  0  0  0  0  0
   44.3432   37.7498   43.2868 H   0  0  0  0  0  0  0  0  0  0  0  0
   44.2426   36.2292   41.6995 H   0  0  0  0  0  0  0  0  0  0  0  0
   44.2045   34.4334   42.0171 H   0  0  0  0  0  0  0  0  0  0  0  0
   41.9356   35.5495   43.2295 H   0  0  0  0  0  0  0  0  0  0  0  0
   43.3603   35.1185   39.6018 H   0  0  0  0  0  0  0  0  0  0  0  0
   38.5333   35.1759   40.1680 H   0  0  0  0  0  0  0  0  0  0  0  0
  1 13  1  0
  1  2  1  0
  2  7  2  0
  3  4  2  0
  3  2  1  0
  4  5  1  0
  5  6  2  0
  6  8  1  0
  7  6  1  0
  8  9  2  0
  8 12  1  0
  9 10  1  0
 11 10  1  0
 12 11  2  0
 14  1  1  0
 15 14  1  0
 16 15  1  0
 17 16  2  0
 18 17  1  0
 18 19  1  0
 19 20  2  0
 20 16  1  0
  1 21  1  1
  3 22  1  0
  4 23  1  0
  9 24  1  0
 11 25  1  0
 13 26  1  0
 13 27  1  0
 13 28  1  0
 14 29  1  0
 14 30  1  0
 15 31  1  0
 17 32  1  0
 19 33  1  0
M  ISO  8  21   8  22  14  23  14  24  14  25  14  26   8  27   8  28   8
M  ISO  4  29   8  30   8  32  14  33  14
M  END
>  <minimizedAffinity>  (1) 
-5.40275574

>  <minimizedRMSD>  (1) 
1.2388382

$$$$
