
     RDKit          3D

 28 29  0  0  0  0  0  0  0  0999 V2000
   45.8470   34.4460   41.1650 C   0  0  0  0  0  0  0  0  0  0  0  0
   47.1180   34.8640   41.5740 C   0  0  0  0  0  0  0  0  0  0  0  0
   48.2240   34.4820   40.7890 C   0  0  0  0  0  0  0  0  0  0  0  0
   47.9980   33.7280   39.6720 N   0  0  0  0  0  0  0  0  0  0  0  0
   46.7460   33.3550   39.3280 C   0  0  0  0  0  0  0  0  0  0  0  0
   45.7110   33.7170   40.0720 N   0  0  0  0  0  0  0  0  0  0  0  0
   46.4600   32.5700   38.1760 N   0  0  0  0  0  0  0  0  0  0  0  0
   45.1950   32.3280   37.5050 C   0  0  0  0  0  0  0  0  0  0  0  0
   45.5510   32.6230   36.0600 C   0  0  0  0  0  0  0  0  0  0  0  0
   47.0300   32.3160   35.9810 C   0  0  0  0  0  0  0  0  0  0  0  0
   47.4050   31.7890   37.3630 C   0  0  0  0  0  0  0  0  0  0  0  0
   44.7110   34.8420   41.9770 C   0  0  0  0  0  0  0  0  0  0  0  0
   43.8620   35.6570   41.4940 O   0  0  0  0  0  0  0  0  0  0  0  0
   44.5980   34.2990   43.2720 O   0  0  0  0  0  0  0  0  0  0  0  0
   45.1390   35.0290   44.3450 C   0  0  0  0  0  0  0  0  0  0  0  0
   44.2620   35.0910   45.4240 F   0  0  0  0  0  0  0  0  0  0  0  0
   46.3140   34.4580   44.7610 F   0  0  0  0  0  0  0  0  0  0  0  0
   45.3500   36.3200   43.8900 F   0  0  0  0  0  0  0  0  0  0  0  0
   47.2499   35.4724   42.4809 H   0  0  0  0  0  0  0  0  0  0  0  0
   49.2443   34.7834   41.0685 H   0  0  0  0  0  0  0  0  0  0  0  0
   44.8667   31.2859   37.6322 H   0  0  0  0  0  0  0  0  0  0  0  0
   44.3618   32.9331   37.8918 H   0  0  0  0  0  0  0  0  0  0  0  0
   44.9800   31.9775   35.3764 H   0  0  0  0  0  0  0  0  0  0  0  0
   45.3156   33.6569   35.7672 H   0  0  0  0  0  0  0  0  0  0  0  0
   47.2250   31.5541   35.2119 H   0  0  0  0  0  0  0  0  0  0  0  0
   47.6194   33.2032   35.7061 H   0  0  0  0  0  0  0  0  0  0  0  0
   47.2289   30.7069   37.4528 H   0  0  0  0  0  0  0  0  0  0  0  0
   48.4647   31.8976   37.6374 H   0  0  0  0  0  0  0  0  0  0  0  0
  1  2  2  0
  1 12  1  0
  3  2  1  0
  4  3  2  0
  5  4  1  0
  5  6  2  0
  6  1  1  0
  7  5  1  0
  8  7  1  0
  9  8  1  0
 10  9  1  0
 10 11  1  0
 11  7  1  0
 12 14  1  0
 13 12  2  0
 14 15  1  0
 15 17  1  0
 15 16  1  0
 18 15  1  0
  2 19  1  0
  3 20  1  0
  8 21  1  0
  8 22  1  0
  9 23  1  0
  9 24  1  0
 10 25  1  0
 10 26  1  0
 11 27  1  0
 11 28  1  0
M  ISO  8  19  14  20  14  21  13  22  13  23  13  24  13  25  13  26  13
M  ISO  2  27  13  28  13
M  END
>  <minimizedAffinity>  (1) 
-4.26031494

>  <minimizedRMSD>  (1) 
0.528440893

$$$$
