
     RDKit          3D

 34 36  0  0  1  0  0  0  0  0999 V2000
   44.5270   35.6500   43.5650 C   0  0  1  0  0  0  0  0  0  0  0  0
   45.5470   34.6470   43.9330 C   0  0  0  0  0  0  0  0  0  0  0  0
   46.5840   34.3480   43.0300 C   0  0  0  0  0  0  0  0  0  0  0  0
   47.5530   33.4020   43.3710 C   0  0  0  0  0  0  0  0  0  0  0  0
   47.4320   32.8160   44.5840 N   0  0  0  0  0  0  0  0  0  0  0  0
   46.4560   33.1060   45.4210 C   0  0  0  0  0  0  0  0  0  0  0  0
   45.5110   34.0130   45.1160 N   0  0  0  0  0  0  0  0  0  0  0  0
   46.3400   32.4590   46.7410 C   0  0  0  0  0  0  0  0  0  0  0  0
   47.3620   31.5810   47.1420 C   0  0  0  0  0  0  0  0  0  0  0  0
   46.7410   31.0600   48.8210 S   0  0  0  0  0  0  0  0  0  0  0  0
   45.2000   32.1500   48.6410 C   0  0  0  0  0  0  0  0  0  0  0  0
   45.3870   32.5820   47.6360 N   0  0  0  0  0  0  0  0  0  0  0  0
   45.1470   37.0450   43.5900 C   0  0  0  0  0  0  0  0  0  0  0  0
   43.9500   35.3970   42.2090 C   0  0  0  0  0  0  0  0  0  0  0  0
   42.7710   34.6170   42.2190 N   0  0  0  0  0  0  0  0  0  0  0  0
   41.6110   34.8000   41.4640 C   0  0  0  0  0  0  0  0  0  0  0  0
   40.9040   35.9760   41.0400 C   0  0  0  0  0  0  0  0  0  0  0  0
   39.7760   35.7440   40.2970 C   0  0  0  0  0  0  0  0  0  0  0  0
   39.3660   34.4770   39.9900 C   0  0  0  0  0  0  0  0  0  0  0  0
   40.6290   33.4550   40.7810 S   0  0  0  0  0  0  0  0  0  0  0  0
   43.7123   35.5750   44.3002 H   0  0  0  0  0  0  0  0  0  0  0  0
   46.6313   34.8587   42.0569 H   0  0  0  0  0  0  0  0  0  0  0  0
   48.3749   33.1458   42.6863 H   0  0  0  0  0  0  0  0  0  0  0  0
   48.2778   31.2829   46.6105 H   0  0  0  0  0  0  0  0  0  0  0  0
   44.3608   32.3087   49.3343 H   0  0  0  0  0  0  0  0  0  0  0  0
   45.2890   37.3645   44.6330 H   0  0  0  0  0  0  0  0  0  0  0  0
   46.1201   37.0230   43.0775 H   0  0  0  0  0  0  0  0  0  0  0  0
   44.4786   37.7526   43.0775 H   0  0  0  0  0  0  0  0  0  0  0  0
   44.7053   34.8734   41.6045 H   0  0  0  0  0  0  0  0  0  0  0  0
   43.6774   36.3780   41.7926 H   0  0  0  0  0  0  0  0  0  0  0  0
   42.7674   33.8136   42.8636 H   0  0  0  0  0  0  0  0  0  0  0  0
   41.2438   36.9910   41.2936 H   0  0  0  0  0  0  0  0  0  0  0  0
   39.1853   36.5999   39.9384 H   0  0  0  0  0  0  0  0  0  0  0  0
   38.4883   34.1593   39.4080 H   0  0  0  0  0  0  0  0  0  0  0  0
  1 13  1  0
  1  2  1  0
  2  7  2  0
  3  4  2  0
  3  2  1  0
  4  5  1  0
  5  6  2  0
  6  8  1  0
  7  6  1  0
  8  9  2  0
  8 12  1  0
  9 10  1  0
 11 10  1  0
 12 11  2  0
 14 15  1  0
 14  1  1  0
 16 15  1  0
 17 16  2  0
 18 17  1  0
 19 18  2  0
 19 20  1  0
 20 16  1  0
  1 21  1  1
  3 22  1  0
  4 23  1  0
  9 24  1  0
 11 25  1  0
 13 26  1  0
 13 27  1  0
 13 28  1  0
 14 29  1  0
 14 30  1  0
 15 31  1  0
 17 32  1  0
 18 33  1  0
 19 34  1  0
M  ISO  8  21   8  22  14  23  14  24  14  25  14  26   8  27   8  28   8
M  ISO  5  29   8  30   8  32  14  33  14  34  14
M  END
>  <minimizedAffinity>  (1) 
-5.42117596

>  <minimizedRMSD>  (1) 
1.67652082

$$$$
