
     RDKit          3D

 23 24  0  0  0  0  0  0  0  0999 V2000
   45.7220   34.3690   40.9940 C   0  0  0  0  0  0  0  0  0  0  0  0
   47.0160   34.7110   41.4070 C   0  0  0  0  0  0  0  0  0  0  0  0
   48.0990   34.2760   40.6160 C   0  0  0  0  0  0  0  0  0  0  0  0
   47.8240   33.5460   39.4950 N   0  0  0  0  0  0  0  0  0  0  0  0
   46.5540   33.2460   39.1430 C   0  0  0  0  0  0  0  0  0  0  0  0
   45.5290   33.6610   39.8970 N   0  0  0  0  0  0  0  0  0  0  0  0
   46.2320   32.4880   37.9810 N   0  0  0  0  0  0  0  0  0  0  0  0
   45.7340   33.1970   36.9250 C   0  0  0  0  0  0  0  0  0  0  0  0
   45.4850   32.2940   35.8960 C   0  0  0  0  0  0  0  0  0  0  0  0
   45.8330   31.0730   36.3460 N   0  0  0  0  0  0  0  0  0  0  0  0
   46.2860   31.1890   37.6110 C   0  0  0  0  0  0  0  0  0  0  0  0
   44.6170   34.8220   41.8170 C   0  0  0  0  0  0  0  0  0  0  0  0
   43.7680   35.6260   41.3110 O   0  0  0  0  0  0  0  0  0  0  0  0
   44.5230   34.3580   43.1430 O   0  0  0  0  0  0  0  0  0  0  0  0
   45.0500   35.1650   44.1640 C   0  0  0  0  0  0  0  0  0  0  0  0
   44.1530   35.3450   45.2050 F   0  0  0  0  0  0  0  0  0  0  0  0
   46.1940   34.5870   44.6830 F   0  0  0  0  0  0  0  0  0  0  0  0
   45.3420   36.3940   43.6060 F   0  0  0  0  0  0  0  0  0  0  0  0
   47.1822   35.3009   42.3205 H   0  0  0  0  0  0  0  0  0  0  0  0
   49.1356   34.5176   40.8938 H   0  0  0  0  0  0  0  0  0  0  0  0
   45.5614   34.2829   36.8938 H   0  0  0  0  0  0  0  0  0  0  0  0
   45.0799   32.5325   34.9015 H   0  0  0  0  0  0  0  0  0  0  0  0
   46.6421   30.3600   38.2403 H   0  0  0  0  0  0  0  0  0  0  0  0
  1  2  2  0
  1 12  1  0
  3  2  1  0
  4  3  2  0
  5  4  1  0
  5  6  2  0
  6  1  1  0
  7  5  1  0
  8  7  1  0
  9 10  1  0
  9  8  2  0
 10 11  2  0
 11  7  1  0
 12 14  1  0
 13 12  2  0
 14 15  1  0
 15 17  1  0
 15 16  1  0
 18 15  1  0
  2 19  1  0
  3 20  1  0
  8 21  1  0
  9 22  1  0
 11 23  1  0
M  ISO  5  19  14  20  14  21  14  22  14  23  14
M  END
>  <minimizedAffinity>  (1) 
-4.24788713

>  <minimizedRMSD>  (1) 
0.405190378

$$$$
