
     RDKit          3D

 34 36  0  0  1  0  0  0  0  0999 V2000
   44.5240   35.6880   43.4620 C   0  0  1  0  0  0  0  0  0  0  0  0
   45.5090   34.6810   43.8450 C   0  0  0  0  0  0  0  0  0  0  0  0
   46.5250   34.3810   42.9260 C   0  0  0  0  0  0  0  0  0  0  0  0
   47.4990   33.4120   43.2420 C   0  0  0  0  0  0  0  0  0  0  0  0
   47.3810   32.8140   44.4620 N   0  0  0  0  0  0  0  0  0  0  0  0
   46.4070   33.1180   45.3160 C   0  0  0  0  0  0  0  0  0  0  0  0
   45.4670   34.0430   45.0270 N   0  0  0  0  0  0  0  0  0  0  0  0
   46.2990   32.4910   46.6400 C   0  0  0  0  0  0  0  0  0  0  0  0
   47.3300   31.5790   47.0090 C   0  0  0  0  0  0  0  0  0  0  0  0
   46.7480   31.1000   48.7120 S   0  0  0  0  0  0  0  0  0  0  0  0
   45.2290   32.2260   48.5820 C   0  0  0  0  0  0  0  0  0  0  0  0
   45.3740   32.6580   47.5570 N   0  0  0  0  0  0  0  0  0  0  0  0
   45.1020   37.0880   43.5870 C   0  0  0  0  0  0  0  0  0  0  0  0
   43.9570   35.5040   42.1020 C   0  0  0  0  0  0  0  0  0  0  0  0
   42.8440   34.6330   42.0190 N   0  0  0  0  0  0  0  0  0  0  0  0
   42.6730   33.3130   41.5570 C   0  0  0  0  0  0  0  0  0  0  0  0
   43.3870   32.1950   41.9160 C   0  0  0  0  0  0  0  0  0  0  0  0
   42.9280   31.0870   41.2460 C   0  0  0  0  0  0  0  0  0  0  0  0
   41.9280   31.5620   40.4800 N   0  0  0  0  0  0  0  0  0  0  0  0
   41.7790   32.8710   40.6630 N   0  0  0  0  0  0  0  0  0  0  0  0
   43.6914   35.5551   44.1685 H   0  0  0  0  0  0  0  0  0  0  0  0
   46.5620   34.9021   41.9580 H   0  0  0  0  0  0  0  0  0  0  0  0
   48.3086   33.1528   42.5438 H   0  0  0  0  0  0  0  0  0  0  0  0
   48.2173   31.2512   46.4476 H   0  0  0  0  0  0  0  0  0  0  0  0
   44.4257   32.4064   49.3115 H   0  0  0  0  0  0  0  0  0  0  0  0
   45.2089   37.3469   44.6507 H   0  0  0  0  0  0  0  0  0  0  0  0
   46.0879   37.1225   43.1004 H   0  0  0  0  0  0  0  0  0  0  0  0
   44.4276   37.8079   43.1004 H   0  0  0  0  0  0  0  0  0  0  0  0
   43.6442   36.4903   41.7288 H   0  0  0  0  0  0  0  0  0  0  0  0
   44.7525   35.0358   41.5037 H   0  0  0  0  0  0  0  0  0  0  0  0
   41.9729   35.0545   42.3718 H   0  0  0  0  0  0  0  0  0  0  0  0
   44.2139   32.1882   42.6414 H   0  0  0  0  0  0  0  0  0  0  0  0
   43.2929   30.0518   41.3186 H   0  0  0  0  0  0  0  0  0  0  0  0
   41.3572   30.9907   39.8406 H   0  0  0  0  0  0  0  0  0  0  0  0
  1 13  1  0
  1  2  1  0
  2  7  2  0
  3  4  2  0
  3  2  1  0
  4  5  1  0
  5  6  2  0
  6  8  1  0
  7  6  1  0
  8  9  2  0
  8 12  1  0
  9 10  1  0
 11 10  1  0
 12 11  2  0
 14  1  1  0
 15 14  1  0
 16 17  1  0
 16 15  1  0
 18 17  2  0
 19 20  1  0
 19 18  1  0
 20 16  2  0
  1 21  1  1
  3 22  1  0
  4 23  1  0
  9 24  1  0
 11 25  1  0
 13 26  1  0
 13 27  1  0
 13 28  1  0
 14 29  1  0
 14 30  1  0
 15 31  1  0
 17 32  1  0
 18 33  1  0
 19 34  1  0
M  ISO  8  21   8  22  14  23  14  24  14  25  14  26   8  27   8  28   8
M  ISO  5  29   8  30   8  32  14  33  14  34   9
M  END
>  <minimizedAffinity>  (1) 
-4.72207117

>  <minimizedRMSD>  (1) 
0.657545269

$$$$
