
     RDKit          3D

 34 35  0  0  0  0  0  0  0  0999 V2000
   45.4445   34.6529   44.0511 C   0  0  0  0  0  0  0  0  0  0  0  0
   46.5965   34.4376   43.2226 C   0  0  0  0  0  0  0  0  0  0  0  0
   47.5480   33.4576   43.5711 C   0  0  0  0  0  0  0  0  0  0  0  0
   47.3010   32.7582   44.7083 N   0  0  0  0  0  0  0  0  0  0  0  0
   46.2267   32.9711   45.4646 C   0  0  0  0  0  0  0  0  0  0  0  0
   45.2799   33.9121   45.1617 N   0  0  0  0  0  0  0  0  0  0  0  0
   45.9727   32.2000   46.6981 C   0  0  0  0  0  0  0  0  0  0  0  0
   45.8150   30.8030   46.5727 C   0  0  0  0  0  0  0  0  0  0  0  0
   45.5358   30.3384   48.3655 S   0  0  0  0  0  0  0  0  0  0  0  0
   45.6919   32.1401   48.9068 C   0  0  0  0  0  0  0  0  0  0  0  0
   45.8743   32.6281   47.9215 N   0  0  0  0  0  0  0  0  0  0  0  0
   44.4847   35.6981   43.6305 C   0  0  1  0  0  0  0  0  0  0  0  0
   45.1928   36.9785   43.3536 C   0  0  0  0  0  0  0  0  0  0  0  0
   43.6590   35.2577   42.4623 C   0  0  0  0  0  0  0  0  0  0  0  0
   42.2863   35.5136   42.5138 N   0  0  0  0  0  0  0  0  0  0  0  0
   41.5414   35.5983   41.3716 C   0  0  0  0  0  0  0  0  0  0  0  0
   40.6961   36.6493   41.2706 F   0  0  0  0  0  0  0  0  0  0  0  0
   40.6849   34.4248   41.4674 F   0  0  0  0  0  0  0  0  0  0  0  0
   42.2839   35.4344   40.1981 F   0  0  0  0  0  0  0  0  0  0  0  0
   46.7362   35.0168   42.3429 H   0  0  0  0  0  0  0  0  0  0  0  0
   48.4009   33.2980   42.9583 H   0  0  0  0  0  0  0  0  0  0  0  0
   45.8144   30.0727   45.8451 H   0  0  0  0  0  0  0  0  0  0  0  0
   45.6604   32.8905   49.9122 H   0  0  0  0  0  0  0  0  0  0  0  0
   43.7788   35.8249   44.5003 H   0  0  0  0  0  0  0  0  0  0  0  0
   44.7219   37.8624   43.8269 H   0  0  0  0  0  0  0  0  0  0  0  0
   46.2159   36.9189   43.8016 H   0  0  0  0  0  0  0  0  0  0  0  0
   45.3625   37.1518   42.2559 H   0  0  0  0  0  0  0  0  0  0  0  0
   44.0676   35.7245   41.5515 H   0  0  0  0  0  0  0  0  0  0  0  0
   43.8199   34.1435   42.3634 H   0  0  0  0  0  0  0  0  0  0  0  0
   41.0283   35.3484   43.1091 C   0  0  0  0  0  0  0  0  0  0  0  0
   39.7711   35.7007   43.6171 N   0  0  0  0  0  0  0  0  0  0  0  0
   41.2059   36.6014   42.8185 O   0  0  0  0  0  0  0  0  0  0  0  0
   38.8740   35.7157   43.0425 H   0  0  0  0  0  0  0  0  0  0  0  0
   39.5736   35.9801   44.6109 H   0  0  0  0  0  0  0  0  0  0  0  0
  1  6  2  0
  2  3  2  0
  2  1  1  0
  3  4  1  0
  4  5  2  0
  5  7  1  0
  6  5  1  0
  7 11  1  0
  8  7  2  0
  8  9  1  0
  9 10  1  0
 11 10  2  0
 12  1  1  0
 13 12  1  0
 14 15  1  0
 14 12  1  0
 16 18  1  0
 16 15  1  0
 17 16  1  0
 19 16  1  0
  2 20  1  0
  3 21  1  0
  8 22  1  0
 10 23  1  0
 12 24  1  1
 13 25  1  0
 13 26  1  0
 13 27  1  0
 14 28  1  0
 14 29  1  0
 30 31  1  0
 30 32  2  0
 31 33  1  0
 31 34  1  0
 15 30  1  0
M  END
>  <DihAtoms>  (1) 
13,14,29,30

>  <DihDeg>  (1) 
0.4665347378265542

$$$$
