
     RDKit          3D

 37 39  0  0  1  0  0  0  0  0999 V2000
   44.4630   34.9090   42.4830 C   0  0  1  0  0  0  0  0  0  0  0  0
   45.5020   34.1430   43.2000 C   0  0  0  0  0  0  0  0  0  0  0  0
   46.8160   34.0920   42.6270 C   0  0  0  0  0  0  0  0  0  0  0  0
   47.8460   33.3780   43.2620 C   0  0  0  0  0  0  0  0  0  0  0  0
   47.5130   32.7600   44.4240 N   0  0  0  0  0  0  0  0  0  0  0  0
   46.2880   32.8180   44.9440 C   0  0  0  0  0  0  0  0  0  0  0  0
   45.2650   33.5040   44.3470 N   0  0  0  0  0  0  0  0  0  0  0  0
   45.9460   32.1370   46.2090 C   0  0  0  0  0  0  0  0  0  0  0  0
   45.9130   30.7340   46.2090 C   0  0  0  0  0  0  0  0  0  0  0  0
   45.4450   30.4210   48.0030 S   0  0  0  0  0  0  0  0  0  0  0  0
   45.3950   32.2730   48.3640 C   0  0  0  0  0  0  0  0  0  0  0  0
   45.6610   32.6590   47.3640 N   0  0  0  0  0  0  0  0  0  0  0  0
   44.6530   36.3850   42.7070 C   0  0  0  0  0  0  0  0  0  0  0  0
   44.4350   34.6030   41.0230 C   0  0  0  0  0  0  0  0  0  0  0  0
   43.1640   34.1910   40.5340 N   0  0  0  0  0  0  0  0  0  0  0  0
   40.5530   32.3500   42.0990 N   0  0  0  0  0  0  0  0  0  0  0  0
   41.8110   32.4670   41.6750 N   0  0  0  0  0  0  0  0  0  0  0  0
   41.9620   33.6830   41.1110 C   0  0  0  0  0  0  0  0  0  0  0  0
   40.7250   34.3250   41.2030 C   0  0  0  0  0  0  0  0  0  0  0  0
   39.8460   33.4610   41.8340 C   0  0  0  0  0  0  0  0  0  0  0  0
   42.9800   34.1320   39.1510 C   0  0  0  0  0  0  0  0  0  0  0  0
   42.1250   33.1080   38.8030 F   0  0  0  0  0  0  0  0  0  0  0  0
   44.2410   33.7720   38.6100 F   0  0  0  0  0  0  0  0  0  0  0  0
   42.5530   35.3120   38.5790 F   0  0  0  0  0  0  0  0  0  0  0  0
   43.4909   34.6011   42.8955 H   0  0  0  0  0  0  0  0  0  0  0  0
   47.0191   34.6167   41.6818 H   0  0  0  0  0  0  0  0  0  0  0  0
   48.8615   33.3230   42.8427 H   0  0  0  0  0  0  0  0  0  0  0  0
   46.1057   30.0216   45.3933 H   0  0  0  0  0  0  0  0  0  0  0  0
   45.1677   32.8102   49.2966 H   0  0  0  0  0  0  0  0  0  0  0  0
   44.6796   36.5915   43.7871 H   0  0  0  0  0  0  0  0  0  0  0  0
   45.5999   36.7065   42.2488 H   0  0  0  0  0  0  0  0  0  0  0  0
   43.8184   36.9358   42.2488 H   0  0  0  0  0  0  0  0  0  0  0  0
   44.7375   35.5080   40.4758 H   0  0  0  0  0  0  0  0  0  0  0  0
   45.1213   33.7579   40.8657 H   0  0  0  0  0  0  0  0  0  0  0  0
   40.1723   31.5162   42.5688 H   0  0  0  0  0  0  0  0  0  0  0  0
   40.4909   35.3363   40.8392 H   0  0  0  0  0  0  0  0  0  0  0  0
   38.7876   33.6461   42.0696 H   0  0  0  0  0  0  0  0  0  0  0  0
  1 13  1  0
  1  2  1  0
  2  7  1  0
  3  2  2  0
  3  4  1  0
  4  5  2  0
  5  6  1  0
  6  8  1  0
  7  6  2  0
  8 12  1  0
  9  8  2  0
  9 10  1  0
 10 11  1  0
 12 11  2  0
 14  1  1  0
 15 14  1  0
 15 18  1  0
 17 16  1  0
 18 19  1  0
 18 17  2  0
 19 20  2  0
 20 16  1  0
 21 15  1  0
 22 21  1  0
 23 21  1  0
 24 21  1  0
  1 25  1  1
  3 26  1  0
  4 27  1  0
  9 28  1  0
 11 29  1  0
 13 30  1  0
 13 31  1  0
 13 32  1  0
 14 33  1  0
 14 34  1  0
 16 35  1  0
 19 36  1  0
 20 37  1  0
M  ISO  8  25   8  26  14  27  14  28  14  29  14  30   8  31   8  32   8
M  ISO  5  33   8  34   8  35   9  36  14  37  14
M  END
>  <minimizedAffinity>  (1) 
-5.23143148

>  <minimizedRMSD>  (1) 
2.51285791

$$$$
