
     RDKit          3D

 33 34  0  0  1  0  0  0  0  0999 V2000
   43.1210   34.4010   41.7110 C   0  0  1  0  0  0  0  0  0  0  0  0
   44.1840   33.3920   41.9160 C   0  0  0  0  0  0  0  0  0  0  0  0
   44.6770   32.6770   40.8000 C   0  0  0  0  0  0  0  0  0  0  0  0
   45.6900   31.7130   40.9650 C   0  0  0  0  0  0  0  0  0  0  0  0
   46.1410   31.5270   42.2310 N   0  0  0  0  0  0  0  0  0  0  0  0
   45.6640   32.2140   43.2840 C   0  0  0  0  0  0  0  0  0  0  0  0
   44.6910   33.1430   43.1400 N   0  0  0  0  0  0  0  0  0  0  0  0
   46.1740   31.9890   44.6470 C   0  0  0  0  0  0  0  0  0  0  0  0
   46.5440   30.6650   44.9880 C   0  0  0  0  0  0  0  0  0  0  0  0
   47.0960   30.9350   46.7490 S   0  0  0  0  0  0  0  0  0  0  0  0
   46.7080   32.7920   46.6500 C   0  0  0  0  0  0  0  0  0  0  0  0
   46.3360   32.8530   45.6000 N   0  0  0  0  0  0  0  0  0  0  0  0
   43.7500   35.7460   41.4410 C   0  0  0  0  0  0  0  0  0  0  0  0
   42.1870   34.0270   40.6110 C   0  0  0  0  0  0  0  0  0  0  0  0
   41.4670   35.1040   40.0500 N   0  0  0  0  0  0  0  0  0  0  0  0
   41.4960   35.1620   38.6180 C   0  0  0  0  0  0  0  0  0  0  0  0
   40.2320   35.6080   38.2040 F   0  0  0  0  0  0  0  0  0  0  0  0
   41.4600   33.7990   38.1860 F   0  0  0  0  0  0  0  0  0  0  0  0
   42.5060   35.8350   38.0560 F   0  0  0  0  0  0  0  0  0  0  0  0
   40.1170   35.3230   40.5300 C   0  0  0  0  0  0  0  0  0  0  0  0
   39.8000   36.6570   40.6550 F   0  0  0  0  0  0  0  0  0  0  0  0
   40.0180   34.8290   41.8580 F   0  0  0  0  0  0  0  0  0  0  0  0
   39.2110   34.5840   39.8310 F   0  0  0  0  0  0  0  0  0  0  0  0
   42.5199   34.4500   42.6309 H   0  0  0  0  0  0  0  0  0  0  0  0
   44.2673   32.8748   39.7985 H   0  0  0  0  0  0  0  0  0  0  0  0
   46.0931   31.1427   40.1151 H   0  0  0  0  0  0  0  0  0  0  0  0
   46.5144   29.7437   44.3877 H   0  0  0  0  0  0  0  0  0  0  0  0
   46.8183   33.5802   47.4093 H   0  0  0  0  0  0  0  0  0  0  0  0
   43.9814   36.2409   42.3958 H   0  0  0  0  0  0  0  0  0  0  0  0
   44.6771   35.6083   40.8652 H   0  0  0  0  0  0  0  0  0  0  0  0
   43.0499   36.3692   40.8652 H   0  0  0  0  0  0  0  0  0  0  0  0
   42.7744   33.5546   39.8099 H   0  0  0  0  0  0  0  0  0  0  0  0
   41.4389   33.3551   41.0569 H   0  0  0  0  0  0  0  0  0  0  0  0
  1  2  1  0
  2  7  2  0
  3  4  2  0
  3  2  1  0
  4  5  1  0
  5  6  2  0
  6  8  1  0
  7  6  1  0
  8  9  2  0
  8 12  1  0
  9 10  1  0
 11 10  1  0
 12 11  2  0
 13  1  1  0
 14  1  1  0
 15 20  1  0
 15 14  1  0
 16 15  1  0
 17 16  1  0
 18 16  1  0
 19 16  1  0
 20 21  1  0
 20 22  1  0
 23 20  1  0
  1 24  1  1
  3 25  1  0
  4 26  1  0
  9 27  1  0
 11 28  1  0
 13 29  1  0
 13 30  1  0
 13 31  1  0
 14 32  1  0
 14 33  1  0
M  ISO  8  24   8  25  14  26  14  27  14  28  14  29   8  30   8  31   8
M  ISO  2  32   8  33   8
M  END
>  <minimizedAffinity>  (1) 
-4.94522047

>  <minimizedRMSD>  (1) 
2.94748783

$$$$
