
     RDKit          3D

 54 57  0  0  1  0  0  0  0  0999 V2000
   44.3490   34.4850   42.2630 C   0  0  0  0  0  0  0  0  0  0  0  0
   43.7310   33.5020   41.3420 C   0  0  1  0  0  0  0  0  0  0  0  0
   42.2660   33.6100   41.2990 C   0  0  0  0  0  0  0  0  0  0  0  0
   41.6830   34.9110   41.1070 C   0  0  0  0  0  0  0  0  0  0  0  0
   40.2870   35.0480   41.0600 C   0  0  0  0  0  0  0  0  0  0  0  0
   39.5590   33.9150   41.2020 N   0  0  0  0  0  0  0  0  0  0  0  0
   40.1140   32.7140   41.3800 C   0  0  0  0  0  0  0  0  0  0  0  0
   41.4630   32.5530   41.4300 N   0  0  0  0  0  0  0  0  0  0  0  0
   39.3000   31.4980   41.5310 C   0  0  0  0  0  0  0  0  0  0  0  0
   39.8960   30.3730   42.1100 C   0  0  0  0  0  0  0  0  0  0  0  0
   38.4520   29.1780   42.0480 S   0  0  0  0  0  0  0  0  0  0  0  0
   37.3390   30.4690   41.2420 C   0  0  0  0  0  0  0  0  0  0  0  0
   38.0470   31.3210   41.1820 N   0  0  0  0  0  0  0  0  0  0  0  0
   44.2960   33.6670   39.9480 C   0  0  0  0  0  0  0  0  0  0  0  0
   45.6390   34.1690   42.7420 N   0  0  0  0  0  0  0  0  0  0  0  0
   46.1870   33.1460   43.5720 C   0  0  0  0  0  0  0  0  0  0  0  0
   46.6460   31.9890   42.9960 C   0  0  0  0  0  0  0  0  0  0  0  0
   47.1860   30.9550   43.7360 C   0  0  0  0  0  0  0  0  0  0  0  0
   47.2390   31.1480   45.0580 N   0  0  0  0  0  0  0  0  0  0  0  0
   46.7860   32.2900   45.6260 C   0  0  0  0  0  0  0  0  0  0  0  0
   46.2560   33.3040   44.9140 N   0  0  0  0  0  0  0  0  0  0  0  0
   46.8800   32.4250   47.1170 C   0  0  0  0  0  0  0  0  0  0  0  0
   45.5010   32.7340   47.7040 C   0  0  0  0  0  0  0  0  0  0  0  0
   44.8130   31.4560   48.1540 C   0  0  0  0  0  0  0  0  0  0  0  0
   45.5040   30.8950   49.3710 C   0  0  0  0  0  0  0  0  0  0  0  0
   46.9910   31.2220   49.2380 C   0  0  0  0  0  0  0  0  0  0  0  0
   47.4260   31.2060   47.7860 C   0  0  0  0  0  0  0  0  0  0  0  0
   46.7290   34.9880   42.3950 C   0  0  0  0  0  0  0  0  0  0  0  0
   47.7980   34.7900   43.2190 F   0  0  0  0  0  0  0  0  0  0  0  0
   46.2660   36.3100   42.6770 F   0  0  0  0  0  0  0  0  0  0  0  0
   47.1040   34.9290   41.0800 F   0  0  0  0  0  0  0  0  0  0  0  0
   43.6852   34.5918   43.1336 H   0  0  0  0  0  0  0  0  0  0  0  0
   44.4732   35.4036   41.6708 H   0  0  0  0  0  0  0  0  0  0  0  0
   43.9750   32.5024   41.7309 H   0  0  0  0  0  0  0  0  0  0  0  0
   42.3287   35.7948   40.9975 H   0  0  0  0  0  0  0  0  0  0  0  0
   39.8078   36.0275   40.9150 H   0  0  0  0  0  0  0  0  0  0  0  0
   40.9177   30.2302   42.4918 H   0  0  0  0  0  0  0  0  0  0  0  0
   36.2887   30.3978   40.9228 H   0  0  0  0  0  0  0  0  0  0  0  0
   45.3500   33.9748   40.0136 H   0  0  0  0  0  0  0  0  0  0  0  0
   44.2261   32.7109   39.4085 H   0  0  0  0  0  0  0  0  0  0  0  0
   43.7226   34.4352   39.4085 H   0  0  0  0  0  0  0  0  0  0  0  0
   46.5817   31.8803   41.9033 H   0  0  0  0  0  0  0  0  0  0  0  0
   47.5502   30.0294   43.2663 H   0  0  0  0  0  0  0  0  0  0  0  0
   47.5815   33.2505   47.3076 H   0  0  0  0  0  0  0  0  0  0  0  0
   45.6178   33.4051   48.5677 H   0  0  0  0  0  0  0  0  0  0  0  0
   44.8853   33.2145   46.9294 H   0  0  0  0  0  0  0  0  0  0  0  0
   43.7637   31.6754   48.4005 H   0  0  0  0  0  0  0  0  0  0  0  0
   44.8604   30.7167   47.3409 H   0  0  0  0  0  0  0  0  0  0  0  0
   45.0966   31.3573   50.2822 H   0  0  0  0  0  0  0  0  0  0  0  0
   45.3482   29.8084   49.4421 H   0  0  0  0  0  0  0  0  0  0  0  0
   47.1780   32.2213   49.6580 H   0  0  0  0  0  0  0  0  0  0  0  0
   47.5664   30.4594   49.7833 H   0  0  0  0  0  0  0  0  0  0  0  0
   47.0359   30.3044   47.2912 H   0  0  0  0  0  0  0  0  0  0  0  0
   48.5240   31.1985   47.7204 H   0  0  0  0  0  0  0  0  0  0  0  0
  1 15  1  0
  2  1  1  0
  3  2  1  0
  3  8  1  0
  4  3  2  0
  5  4  1  0
  5  6  2  0
  6  7  1  0
  7  8  2  0
  7  9  1  0
  9 10  2  0
 11 10  1  0
 12 11  1  0
 13 12  2  0
 13  9  1  0
 14  2  1  0
 15 16  1  0
 16 21  1  0
 17 16  2  0
 17 18  1  0
 18 19  2  0
 19 20  1  0
 20 22  1  0
 21 20  2  0
 22 23  1  0
 22 27  1  0
 23 24  1  0
 24 25  1  0
 26 25  1  0
 27 26  1  0
 28 30  1  0
 28 15  1  0
 28 29  1  0
 31 28  1  0
  1 32  1  0
  1 33  1  0
  2 34  1  1
  4 35  1  0
  5 36  1  0
 10 37  1  0
 12 38  1  0
 14 39  1  0
 14 40  1  0
 14 41  1  0
 17 42  1  0
 18 43  1  0
 22 44  1  0
 23 45  1  0
 23 46  1  0
 24 47  1  0
 24 48  1  0
 25 49  1  0
 25 50  1  0
 26 51  1  0
 26 52  1  0
 27 53  1  0
 27 54  1  0
M  ISO  8  32   8  33   8  34   8  35  14  36  14  37  14  38  14  39   8
M  ISO  8  40   8  41   8  42  14  43  14  44  13  45  13  46  13  47  13
M  ISO  7  48  13  49  13  50  13  51  13  52  13  53  13  54  13
M  END
>  <minimizedAffinity>  (1) 
-6.67991066

>  <minimizedRMSD>  (1) 
1.19344831

$$$$
