
     RDKit          3D

 45 48  0  0  1  0  0  0  0  0999 V2000
   43.5280   33.4690   41.2690 C   0  0  1  0  0  0  0  0  0  0  0  0
   42.0620   33.5550   41.1870 C   0  0  0  0  0  0  0  0  0  0  0  0
   41.4650   34.8240   40.9020 C   0  0  0  0  0  0  0  0  0  0  0  0
   40.0690   34.9390   40.8140 C   0  0  0  0  0  0  0  0  0  0  0  0
   39.3570   33.8100   41.0130 N   0  0  0  0  0  0  0  0  0  0  0  0
   39.9200   32.6440   41.2760 C   0  0  0  0  0  0  0  0  0  0  0  0
   41.2680   32.4970   41.3660 N   0  0  0  0  0  0  0  0  0  0  0  0
   39.1310   31.4060   41.4910 C   0  0  0  0  0  0  0  0  0  0  0  0
   39.7530   30.2940   42.0700 C   0  0  0  0  0  0  0  0  0  0  0  0
   38.3160   29.0950   42.0850 S   0  0  0  0  0  0  0  0  0  0  0  0
   37.1630   30.3650   41.2960 C   0  0  0  0  0  0  0  0  0  0  0  0
   37.8540   31.2320   41.1850 N   0  0  0  0  0  0  0  0  0  0  0  0
   44.1320   33.7650   39.9160 C   0  0  0  0  0  0  0  0  0  0  0  0
   44.0950   34.3820   42.2900 C   0  0  0  0  0  0  0  0  0  0  0  0
   45.3680   34.0420   42.7950 N   0  0  0  0  0  0  0  0  0  0  0  0
   45.9000   32.9560   43.5480 C   0  0  0  0  0  0  0  0  0  0  0  0
   46.5940   31.9620   42.8840 C   0  0  0  0  0  0  0  0  0  0  0  0
   47.1340   30.8750   43.5430 C   0  0  0  0  0  0  0  0  0  0  0  0
   46.9460   30.8400   44.8740 N   0  0  0  0  0  0  0  0  0  0  0  0
   46.2680   31.8130   45.5140 C   0  0  0  0  0  0  0  0  0  0  0  0
   45.7280   32.8890   44.8900 N   0  0  0  0  0  0  0  0  0  0  0  0
   46.0420   31.8150   46.9360 N   0  0  0  0  0  0  0  0  0  0  0  0
   45.4380   32.6160   47.8350 C   0  0  0  0  0  0  0  0  0  0  0  0
   45.6040   31.9930   49.0620 C   0  0  0  0  0  0  0  0  0  0  0  0
   46.2910   30.8450   48.9150 N   0  0  0  0  0  0  0  0  0  0  0  0
   46.5540   30.7500   47.5980 C   0  0  0  0  0  0  0  0  0  0  0  0
   46.4560   34.9080   42.5780 C   0  0  0  0  0  0  0  0  0  0  0  0
   47.4550   34.7050   43.4910 F   0  0  0  0  0  0  0  0  0  0  0  0
   45.9250   36.2000   42.8850 F   0  0  0  0  0  0  0  0  0  0  0  0
   46.9390   34.9280   41.2990 F   0  0  0  0  0  0  0  0  0  0  0  0
   43.7806   32.4440   41.5781 H   0  0  0  0  0  0  0  0  0  0  0  0
   42.1003   35.7094   40.7519 H   0  0  0  0  0  0  0  0  0  0  0  0
   39.5805   35.8997   40.5942 H   0  0  0  0  0  0  0  0  0  0  0  0
   40.7887   30.1625   42.4166 H   0  0  0  0  0  0  0  0  0  0  0  0
   36.1017   30.2740   41.0216 H   0  0  0  0  0  0  0  0  0  0  0  0
   45.1125   34.2455   40.0493 H   0  0  0  0  0  0  0  0  0  0  0  0
   44.2569   32.8260   39.3568 H   0  0  0  0  0  0  0  0  0  0  0  0
   43.4664   34.4390   39.3568 H   0  0  0  0  0  0  0  0  0  0  0  0
   44.1694   35.3830   41.8401 H   0  0  0  0  0  0  0  0  0  0  0  0
   43.4122   34.3202   43.1502 H   0  0  0  0  0  0  0  0  0  0  0  0
   46.7205   32.0393   41.7940 H   0  0  0  0  0  0  0  0  0  0  0  0
   47.6848   30.0853   43.0110 H   0  0  0  0  0  0  0  0  0  0  0  0
   44.9208   33.5664   47.6367 H   0  0  0  0  0  0  0  0  0  0  0  0
   45.2277   32.3816   50.0198 H   0  0  0  0  0  0  0  0  0  0  0  0
   47.1066   29.9241   47.1262 H   0  0  0  0  0  0  0  0  0  0  0  0
  1 14  1  0
  2  1  1  0
  2  7  1  0
  3  2  2  0
  4  3  1  0
  4  5  2  0
  5  6  1  0
  6  7  2  0
  6  8  1  0
  8  9  2  0
  9 10  1  0
 11 10  1  0
 12 11  2  0
 12  8  1  0
 13  1  1  0
 14 15  1  0
 15 16  1  0
 16 21  2  0
 17 18  2  0
 17 16  1  0
 18 19  1  0
 19 20  2  0
 20 22  1  0
 21 20  1  0
 22 26  1  0
 22 23  1  0
 23 24  2  0
 25 24  1  0
 26 25  2  0
 27 15  1  0
 27 29  1  0
 27 28  1  0
 30 27  1  0
  1 31  1  1
  3 32  1  0
  4 33  1  0
  9 34  1  0
 11 35  1  0
 13 36  1  0
 13 37  1  0
 13 38  1  0
 14 39  1  0
 14 40  1  0
 17 41  1  0
 18 42  1  0
 23 43  1  0
 24 44  1  0
 26 45  1  0
M  ISO  8  31   8  32  14  33  14  34  14  35  14  36   8  37   8  38   8
M  ISO  7  39   8  40   8  41  14  42  14  43  14  44  14  45  14
M  END
>  <minimizedAffinity>  (1) 
-6.31110191

>  <minimizedRMSD>  (1) 
1.37759233

$$$$
