
     RDKit          3D

 49 52  0  0  1  0  0  0  0  0999 V2000
   44.2700   34.1840   42.2670 C   0  0  0  0  0  0  0  0  0  0  0  0
   43.6350   33.3710   41.2030 C   0  0  1  0  0  0  0  0  0  0  0  0
   42.1700   33.4870   41.1980 C   0  0  0  0  0  0  0  0  0  0  0  0
   41.5950   34.7890   41.0040 C   0  0  0  0  0  0  0  0  0  0  0  0
   40.2010   34.9430   40.9880 C   0  0  0  0  0  0  0  0  0  0  0  0
   39.4620   33.8250   41.1600 N   0  0  0  0  0  0  0  0  0  0  0  0
   40.0110   32.6340   41.3360 C   0  0  0  0  0  0  0  0  0  0  0  0
   41.3660   32.4340   41.3600 N   0  0  0  0  0  0  0  0  0  0  0  0
   39.1870   31.4190   41.5170 C   0  0  0  0  0  0  0  0  0  0  0  0
   39.7850   30.2890   42.0920 C   0  0  0  0  0  0  0  0  0  0  0  0
   38.3320   29.1030   42.0730 S   0  0  0  0  0  0  0  0  0  0  0  0
   37.2070   30.4130   41.2780 C   0  0  0  0  0  0  0  0  0  0  0  0
   37.9290   31.2360   41.2060 N   0  0  0  0  0  0  0  0  0  0  0  0
   44.1900   33.7510   39.8480 C   0  0  0  0  0  0  0  0  0  0  0  0
   45.5860   33.8280   42.6290 N   0  0  0  0  0  0  0  0  0  0  0  0
   46.2410   32.6150   42.9980 C   0  0  0  0  0  0  0  0  0  0  0  0
   47.2360   32.1140   42.1980 C   0  0  0  0  0  0  0  0  0  0  0  0
   47.9080   30.9480   42.4950 C   0  0  0  0  0  0  0  0  0  0  0  0
   47.5370   30.3260   43.6080 N   0  0  0  0  0  0  0  0  0  0  0  0
   46.5510   30.8150   44.4060 C   0  0  0  0  0  0  0  0  0  0  0  0
   45.8910   31.9520   44.1240 N   0  0  0  0  0  0  0  0  0  0  0  0
   46.2660   30.0320   45.5690 N   0  0  0  0  0  0  0  0  0  0  0  0
   44.9740   29.5890   45.5690 C   0  0  0  0  0  0  0  0  0  0  0  0
   44.5490   28.8070   46.6480 C   0  0  0  0  0  0  0  0  0  0  0  0
   45.4570   28.5220   47.6620 C   0  0  0  0  0  0  0  0  0  0  0  0
   44.9750   27.7240   48.7360 N   0  0  0  0  0  0  0  0  0  0  0  0
   46.7130   28.9870   47.6070 N   0  0  0  0  0  0  0  0  0  0  0  0
   47.1230   29.7410   46.5650 C   0  0  0  0  0  0  0  0  0  0  0  0
   48.2870   30.2090   46.4490 O   0  0  0  0  0  0  0  0  0  0  0  0
   46.5840   34.8180   42.6790 C   0  0  0  0  0  0  0  0  0  0  0  0
   47.4930   34.5730   43.6740 F   0  0  0  0  0  0  0  0  0  0  0  0
   45.8790   35.9910   43.0900 F   0  0  0  0  0  0  0  0  0  0  0  0
   47.2090   35.0800   41.4900 F   0  0  0  0  0  0  0  0  0  0  0  0
   43.6427   34.1054   43.1672 H   0  0  0  0  0  0  0  0  0  0  0  0
   44.3466   35.1996   41.8514 H   0  0  0  0  0  0  0  0  0  0  0  0
   43.8761   32.3198   41.4197 H   0  0  0  0  0  0  0  0  0  0  0  0
   42.2472   35.6643   40.8681 H   0  0  0  0  0  0  0  0  0  0  0  0
   39.7317   35.9271   40.8424 H   0  0  0  0  0  0  0  0  0  0  0  0
   40.8137   30.1402   42.4519 H   0  0  0  0  0  0  0  0  0  0  0  0
   36.1495   30.3614   40.9797 H   0  0  0  0  0  0  0  0  0  0  0  0
   45.0910   34.3679   39.9807 H   0  0  0  0  0  0  0  0  0  0  0  0
   44.4487   32.8396   39.2890 H   0  0  0  0  0  0  0  0  0  0  0  0
   43.4339   34.3218   39.2890 H   0  0  0  0  0  0  0  0  0  0  0  0
   47.5079   32.6636   41.2848 H   0  0  0  0  0  0  0  0  0  0  0  0
   48.7057   30.5552   41.8474 H   0  0  0  0  0  0  0  0  0  0  0  0
   44.2888   29.8395   44.7458 H   0  0  0  0  0  0  0  0  0  0  0  0
   43.5183   28.4255   46.6935 H   0  0  0  0  0  0  0  0  0  0  0  0
   45.6005   27.4792   49.5168 H   0  0  0  0  0  0  0  0  0  0  0  0
   44.0004   27.3908   48.7330 H   0  0  0  0  0  0  0  0  0  0  0  0
  1 15  1  0
  2  1  1  0
  3  2  1  0
  3  8  1  0
  4  3  2  0
  5  4  1  0
  5  6  2  0
  6  7  1  0
  7  8  2  0
  7  9  1  0
  9 10  2  0
 11 10  1  0
 12 11  1  0
 13 12  2  0
 13  9  1  0
 14  2  1  0
 15 30  1  0
 15 16  1  0
 16 21  2  0
 17 18  2  0
 17 16  1  0
 18 19  1  0
 19 20  2  0
 20 22  1  0
 21 20  1  0
 22 28  1  0
 23 22  1  0
 23 24  2  0
 24 25  1  0
 25 26  1  0
 27 25  2  0
 28 27  1  0
 29 28  2  0
 30 32  1  0
 30 31  1  0
 33 30  1  0
  1 34  1  0
  1 35  1  0
  2 36  1  1
  4 37  1  0
  5 38  1  0
 10 39  1  0
 12 40  1  0
 14 41  1  0
 14 42  1  0
 14 43  1  0
 17 44  1  0
 18 45  1  0
 23 46  1  0
 24 47  1  0
 26 48  1  0
 26 49  1  0
M  ISO  8  34   8  35   8  36   8  37  14  38  14  39  14  40  14  41   8
M  ISO  6  42   8  43   8  44  14  45  14  46  14  47  14
M  END
>  <minimizedAffinity>  (1) 
-6.22002792

>  <minimizedRMSD>  (1) 
3.08652639

$$$$
