
     RDKit          3D

 48 51  0  0  1  0  0  0  0  0999 V2000
   44.2010   34.1070   42.4170 C   0  0  0  0  0  0  0  0  0  0  0  0
   43.6150   33.3440   41.2890 C   0  0  1  0  0  0  0  0  0  0  0  0
   42.1480   33.4640   41.2270 C   0  0  0  0  0  0  0  0  0  0  0  0
   41.5810   34.7530   40.9780 C   0  0  0  0  0  0  0  0  0  0  0  0
   40.1860   34.9010   40.9100 C   0  0  0  0  0  0  0  0  0  0  0  0
   39.4480   33.7870   41.0900 N   0  0  0  0  0  0  0  0  0  0  0  0
   39.9940   32.6010   41.3200 C   0  0  0  0  0  0  0  0  0  0  0  0
   41.3390   32.4160   41.3930 N   0  0  0  0  0  0  0  0  0  0  0  0
   39.1650   31.3910   41.5090 C   0  0  0  0  0  0  0  0  0  0  0  0
   39.7610   30.2640   42.0820 C   0  0  0  0  0  0  0  0  0  0  0  0
   38.3050   29.0800   42.0740 S   0  0  0  0  0  0  0  0  0  0  0  0
   37.1850   30.3700   41.2890 C   0  0  0  0  0  0  0  0  0  0  0  0
   37.9060   31.2080   41.2030 N   0  0  0  0  0  0  0  0  0  0  0  0
   44.2210   33.8060   39.9830 C   0  0  0  0  0  0  0  0  0  0  0  0
   45.5150   33.7570   42.7940 N   0  0  0  0  0  0  0  0  0  0  0  0
   46.1930   32.5350   43.0690 C   0  0  0  0  0  0  0  0  0  0  0  0
   47.1790   32.0970   42.2030 C   0  0  0  0  0  0  0  0  0  0  0  0
   47.8730   30.9260   42.4040 C   0  0  0  0  0  0  0  0  0  0  0  0
   47.5380   30.2260   43.4990 N   0  0  0  0  0  0  0  0  0  0  0  0
   46.5770   30.6530   44.3450 C   0  0  0  0  0  0  0  0  0  0  0  0
   45.8820   31.8020   44.1630 N   0  0  0  0  0  0  0  0  0  0  0  0
   46.1820   29.9410   45.5270 N   0  0  0  0  0  0  0  0  0  0  0  0
   44.9420   29.3940   45.4010 C   0  0  0  0  0  0  0  0  0  0  0  0
   44.4090   28.6730   46.4500 C   0  0  0  0  0  0  0  0  0  0  0  0
   45.1550   28.5250   47.6130 C   0  0  0  0  0  0  0  0  0  0  0  0
   44.7010   27.8720   48.5940 O   0  0  0  0  0  0  0  0  0  0  0  0
   46.3750   29.0860   47.6810 N   0  0  0  0  0  0  0  0  0  0  0  0
   46.8960   29.7890   46.6580 C   0  0  0  0  0  0  0  0  0  0  0  0
   48.0160   30.3500   46.6200 O   0  0  0  0  0  0  0  0  0  0  0  0
   46.4790   34.7640   42.9810 C   0  0  0  0  0  0  0  0  0  0  0  0
   47.4110   34.4040   43.9100 F   0  0  0  0  0  0  0  0  0  0  0  0
   45.7360   35.8370   43.5660 F   0  0  0  0  0  0  0  0  0  0  0  0
   47.0720   35.2210   41.8360 F   0  0  0  0  0  0  0  0  0  0  0  0
   43.5514   33.9620   43.2928 H   0  0  0  0  0  0  0  0  0  0  0  0
   44.2645   35.1473   42.0652 H   0  0  0  0  0  0  0  0  0  0  0  0
   43.8500   32.2830   41.4596 H   0  0  0  0  0  0  0  0  0  0  0  0
   42.2356   35.6262   40.8401 H   0  0  0  0  0  0  0  0  0  0  0  0
   39.7183   35.8781   40.7192 H   0  0  0  0  0  0  0  0  0  0  0  0
   40.7913   30.1137   42.4370 H   0  0  0  0  0  0  0  0  0  0  0  0
   36.1253   30.3108   40.9999 H   0  0  0  0  0  0  0  0  0  0  0  0
   45.0803   34.4611   40.1890 H   0  0  0  0  0  0  0  0  0  0  0  0
   44.5563   32.9322   39.4050 H   0  0  0  0  0  0  0  0  0  0  0  0
   43.4672   34.3607   39.4050 H   0  0  0  0  0  0  0  0  0  0  0  0
   47.4173   32.7082   41.3200 H   0  0  0  0  0  0  0  0  0  0  0  0
   48.6547   30.5844   41.7096 H   0  0  0  0  0  0  0  0  0  0  0  0
   44.3696   29.5255   44.4709 H   0  0  0  0  0  0  0  0  0  0  0  0
   43.4090   28.2224   46.3668 H   0  0  0  0  0  0  0  0  0  0  0  0
   46.9282   28.9744   48.5426 H   0  0  0  0  0  0  0  0  0  0  0  0
  1 15  1  0
  2  1  1  0
  3  2  1  0
  3  8  1  0
  4  3  2  0
  5  4  1  0
  5  6  2  0
  6  7  1  0
  7  8  2  0
  7  9  1  0
  9 10  2  0
 11 10  1  0
 12 11  1  0
 13 12  2  0
 13  9  1  0
 14  2  1  0
 15 30  1  0
 15 16  1  0
 16 21  2  0
 17 18  2  0
 17 16  1  0
 18 19  1  0
 19 20  2  0
 20 22  1  0
 21 20  1  0
 22 28  1  0
 23 22  1  0
 23 24  2  0
 24 25  1  0
 25 27  1  0
 25 26  2  0
 28 27  1  0
 29 28  2  0
 30 32  1  0
 30 31  1  0
 33 30  1  0
  1 34  1  0
  1 35  1  0
  2 36  1  1
  4 37  1  0
  5 38  1  0
 10 39  1  0
 12 40  1  0
 14 41  1  0
 14 42  1  0
 14 43  1  0
 17 44  1  0
 18 45  1  0
 23 46  1  0
 24 47  1  0
 27 48  1  0
M  ISO  8  34   8  35   8  36   8  37  14  38  14  39  14  40  14  41   8
M  ISO  7  42   8  43   8  44  14  45  14  46  14  47  14  48   9
M  END
>  <minimizedAffinity>  (1) 
-6.04445934

>  <minimizedRMSD>  (1) 
3.25234389

$$$$
