
     RDKit          3D

 28 29  0  0  1  0  0  0  0  0999 V2000
   45.2400   30.9460   46.3280 N   0  0  0  0  0  0  0  0  0  0  0  0
   45.1500   29.5710   46.8140 C   0  0  0  0  0  0  0  0  0  0  0  0
   46.5620   29.3290   47.3050 C   0  0  0  0  0  0  0  0  0  0  0  0
   46.9480   30.5990   47.9910 C   0  0  0  0  0  0  0  0  0  0  0  0
   46.1280   31.6280   47.1690 C   0  0  2  0  0  0  0  0  0  0  0  0
   45.4900   32.3820   48.3220 C   0  0  0  0  0  0  0  0  0  0  0  0
   45.5190   32.0050   49.5290 O   0  0  0  0  0  0  0  0  0  0  0  0
   44.8450   33.5580   47.9700 O   0  0  0  0  0  0  0  0  0  0  0  0
   46.8530   32.5790   46.4900 O   0  0  0  0  0  0  0  0  0  0  0  0
   46.8000   32.7400   45.0640 C   0  0  0  0  0  0  0  0  0  0  0  0
   47.2960   31.8620   44.3320 O   0  0  0  0  0  0  0  0  0  0  0  0
   44.5710   35.6110   44.8000 C   0  0  0  0  0  0  0  0  0  0  0  0
   44.8800   36.1660   43.5470 C   0  0  0  0  0  0  0  0  0  0  0  0
   45.8800   35.5450   42.7990 C   0  0  0  0  0  0  0  0  0  0  0  0
   46.4960   34.4350   43.3340 N   0  0  0  0  0  0  0  0  0  0  0  0
   46.1410   33.9490   44.5630 C   0  0  0  0  0  0  0  0  0  0  0  0
   45.2000   34.5270   45.2770 N   0  0  0  0  0  0  0  0  0  0  0  0
   45.5933   30.9554   45.3605 H   0  0  0  0  0  0  0  0  0  0  0  0
   44.4197   29.4812   47.6317 H   0  0  0  0  0  0  0  0  0  0  0  0
   44.8097   28.8498   46.0563 H   0  0  0  0  0  0  0  0  0  0  0  0
   46.5884   28.4843   48.0091 H   0  0  0  0  0  0  0  0  0  0  0  0
   47.2495   29.0732   46.4853 H   0  0  0  0  0  0  0  0  0  0  0  0
   46.6494   30.5952   49.0497 H   0  0  0  0  0  0  0  0  0  0  0  0
   48.0303   30.7935   48.0181 H   0  0  0  0  0  0  0  0  0  0  0  0
   44.4036   34.1076   48.6651 H   0  0  0  0  0  0  0  0  0  0  0  0
   43.7864   36.0816   45.4106 H   0  0  0  0  0  0  0  0  0  0  0  0
   44.3538   37.0556   43.1705 H   0  0  0  0  0  0  0  0  0  0  0  0
   46.1686   35.9305   41.8100 H   0  0  0  0  0  0  0  0  0  0  0  0
  1  2  1  0
  1  5  1  0
  2  3  1  0
  3  4  1  0
  5  9  1  6
  5  4  1  0
  5  6  1  0
  6  7  2  0
  8  6  1  0
 10  9  1  0
 11 10  2  0
 12 17  2  0
 13 12  1  0
 14 15  1  0
 14 13  2  0
 15 16  2  0
 16 10  1  0
 16 17  1  0
  1 18  1  0
  2 19  1  0
  2 20  1  0
  3 21  1  0
  3 22  1  0
  4 23  1  0
  4 24  1  0
  8 25  1  0
 12 26  1  0
 13 27  1  0
 14 28  1  0
M  ISO  8  18   5  19  13  20  13  21  13  22  13  23  13  24  13  25   3
M  ISO  3  26  14  27  14  28  14
M  END
>  <minimizedAffinity>  (1) 
-5.25033236

>  <minimizedRMSD>  (1) 
1.63639128

$$$$
