
     RDKit          3D

 23 24  0  0  0  0  0  0  0  0999 V2000
   45.7990   34.4510   41.1710 C   0  0  0  0  0  0  0  0  0  0  0  0
   47.0830   34.8100   41.6020 C   0  0  0  0  0  0  0  0  0  0  0  0
   48.1770   34.4370   40.7970 C   0  0  0  0  0  0  0  0  0  0  0  0
   47.9230   33.7480   39.6440 N   0  0  0  0  0  0  0  0  0  0  0  0
   46.6540   33.4270   39.2760 C   0  0  0  0  0  0  0  0  0  0  0  0
   45.6320   33.7840   40.0440 N   0  0  0  0  0  0  0  0  0  0  0  0
   46.4560   32.6720   38.0030 C   0  0  0  0  0  0  0  0  0  0  0  0
   45.7330   33.1630   36.9010 C   0  0  0  0  0  0  0  0  0  0  0  0
   45.6540   32.3390   35.8180 C   0  0  0  0  0  0  0  0  0  0  0  0
   46.2750   31.1010   35.8740 C   0  0  0  0  0  0  0  0  0  0  0  0
   47.0140   31.0230   37.4640 S   0  0  0  0  0  0  0  0  0  0  0  0
   44.6780   34.8400   42.0080 C   0  0  0  0  0  0  0  0  0  0  0  0
   43.8200   35.6530   41.5360 O   0  0  0  0  0  0  0  0  0  0  0  0
   44.5830   34.3080   43.3000 O   0  0  0  0  0  0  0  0  0  0  0  0
   45.1060   35.0600   44.3630 C   0  0  0  0  0  0  0  0  0  0  0  0
   44.2210   35.1440   45.4350 F   0  0  0  0  0  0  0  0  0  0  0  0
   46.2750   34.4850   44.8130 F   0  0  0  0  0  0  0  0  0  0  0  0
   45.3470   36.3330   43.8930 F   0  0  0  0  0  0  0  0  0  0  0  0
   47.2320   35.3657   42.5396 H   0  0  0  0  0  0  0  0  0  0  0  0
   49.2065   34.6929   41.0879 H   0  0  0  0  0  0  0  0  0  0  0  0
   45.2584   34.1553   36.9124 H   0  0  0  0  0  0  0  0  0  0  0  0
   45.1073   32.6509   34.9159 H   0  0  0  0  0  0  0  0  0  0  0  0
   46.2994   30.3311   35.0888 H   0  0  0  0  0  0  0  0  0  0  0  0
  1  2  2  0
  1 12  1  0
  3  2  1  0
  4  3  2  0
  5  4  1  0
  5  6  2  0
  6  1  1  0
  7  5  1  0
  8  7  2  0
  9 10  2  0
  9  8  1  0
 10 11  1  0
 11  7  1  0
 12 14  1  0
 13 12  2  0
 14 15  1  0
 15 17  1  0
 15 16  1  0
 18 15  1  0
  2 19  1  0
  3 20  1  0
  8 21  1  0
  9 22  1  0
 10 23  1  0
M  ISO  5  19  14  20  14  21  14  22  14  23  14
M  END
>  <minimizedAffinity>  (1) 
-4.0695467

>  <minimizedRMSD>  (1) 
0.595254958

$$$$
