
     RDKit          3D

 38 40  0  0  1  0  0  0  0  0999 V2000
   46.5210   32.6980   47.6960 N   0  0  0  0  0  0  0  0  0  0  0  0
   46.0670   32.3150   49.0250 C   0  0  0  0  0  0  0  0  0  0  0  0
   44.8610   31.4600   48.6900 C   0  0  0  0  0  0  0  0  0  0  0  0
   45.2830   30.6530   47.5110 C   0  0  0  0  0  0  0  0  0  0  0  0
   46.2890   31.6300   46.8340 C   0  0  2  0  0  0  0  0  0  0  0  0
   47.4190   30.7420   46.5410 N   0  0  0  0  0  0  0  0  0  0  0  0
   47.2200   30.0130   45.3380 C   0  0  0  0  0  0  0  0  0  0  0  0
   47.9090   28.6800   45.3480 C   0  0  0  0  0  0  0  0  0  0  0  0
   49.1080   28.6400   45.9960 O   0  0  0  0  0  0  0  0  0  0  0  0
   49.2450   29.4030   47.1200 C   0  0  0  0  0  0  0  0  0  0  0  0
   47.9190   29.9970   47.6250 C   0  0  0  0  0  0  0  0  0  0  0  0
   45.9340   32.0410   45.5760 O   0  0  0  0  0  0  0  0  0  0  0  0
   45.8600   33.4190   45.1780 C   0  0  0  0  0  0  0  0  0  0  0  0
   45.1260   34.1970   45.8190 O   0  0  0  0  0  0  0  0  0  0  0  0
   48.6070   33.6200   42.7940 C   0  0  0  0  0  0  0  0  0  0  0  0
   48.2290   34.6640   41.9280 C   0  0  0  0  0  0  0  0  0  0  0  0
   47.0030   35.2850   42.1690 C   0  0  0  0  0  0  0  0  0  0  0  0
   46.2460   34.8400   43.2320 N   0  0  0  0  0  0  0  0  0  0  0  0
   46.6820   33.8180   44.0310 C   0  0  0  0  0  0  0  0  0  0  0  0
   47.8410   33.2200   43.8120 N   0  0  0  0  0  0  0  0  0  0  0  0
   45.9994   33.5258   47.3742 H   0  0  0  0  0  0  0  0  0  0  0  0
   46.8339   31.7374   49.5619 H   0  0  0  0  0  0  0  0  0  0  0  0
   45.8476   33.1642   49.6889 H   0  0  0  0  0  0  0  0  0  0  0  0
   44.6031   30.8054   49.5355 H   0  0  0  0  0  0  0  0  0  0  0  0
   43.9674   32.0662   48.4802 H   0  0  0  0  0  0  0  0  0  0  0  0
   45.7716   29.7158   47.8158 H   0  0  0  0  0  0  0  0  0  0  0  0
   44.4565   30.3282   46.8619 H   0  0  0  0  0  0  0  0  0  0  0  0
   47.6123   30.6056   44.4984 H   0  0  0  0  0  0  0  0  0  0  0  0
   46.1404   29.8283   45.2361 H   0  0  0  0  0  0  0  0  0  0  0  0
   47.2379   27.9561   45.8335 H   0  0  0  0  0  0  0  0  0  0  0  0
   48.1286   28.4476   44.2955 H   0  0  0  0  0  0  0  0  0  0  0  0
   49.6710   28.7755   47.9167 H   0  0  0  0  0  0  0  0  0  0  0  0
   49.8990   30.2481   46.8591 H   0  0  0  0  0  0  0  0  0  0  0  0
   48.0930   30.6481   48.4944 H   0  0  0  0  0  0  0  0  0  0  0  0
   47.2145   29.2180   47.9517 H   0  0  0  0  0  0  0  0  0  0  0  0
   49.5696   33.1149   42.6256 H   0  0  0  0  0  0  0  0  0  0  0  0
   48.8747   34.9776   41.0945 H   0  0  0  0  0  0  0  0  0  0  0  0
   46.6502   36.1069   41.5287 H   0  0  0  0  0  0  0  0  0  0  0  0
  1  2  1  0
  3  2  1  0
  4  3  1  0
  5 12  1  6
  5  4  1  0
  5  1  1  0
  6  5  1  0
  6 11  1  0
  7  8  1  0
  7  6  1  0
  8  9  1  0
  9 10  1  0
 10 11  1  0
 13 12  1  0
 13 14  2  0
 15 20  2  0
 16 17  2  0
 16 15  1  0
 17 18  1  0
 18 19  2  0
 19 13  1  0
 20 19  1  0
  1 21  1  0
  2 22  1  0
  2 23  1  0
  3 24  1  0
  3 25  1  0
  4 26  1  0
  4 27  1  0
  7 28  1  0
  7 29  1  0
  8 30  1  0
  8 31  1  0
 10 32  1  0
 10 33  1  0
 11 34  1  0
 11 35  1  0
 15 36  1  0
 16 37  1  0
 17 38  1  0
M  ISO  8  21   5  22  13  23  13  24  13  25  13  26  13  27  13  28  13
M  ISO  8  29  13  30  13  31  13  32  13  33  13  34  13  35  13  36  14
M  ISO  2  37  14  38  14
M  END
>  <minimizedAffinity>  (1) 
-4.64681816

>  <minimizedRMSD>  (1) 
4.72556162

$$$$
