
     RDKit          3D

 35 37  0  0  1  0  0  0  0  0999 V2000
   47.2450   31.1510   47.4530 N   0  0  0  0  0  0  0  0  0  0  0  0
   47.2250   31.5210   48.8720 C   0  0  0  0  0  0  0  0  0  0  0  0
   45.9060   32.2330   48.9800 C   0  0  0  0  0  0  0  0  0  0  0  0
   44.9720   31.3820   48.1760 C   0  0  0  0  0  0  0  0  0  0  0  0
   45.9400   30.8250   47.0970 C   0  0  2  0  0  0  0  0  0  0  0  0
   45.6510   29.3490   47.1000 C   0  0  0  0  0  0  0  0  0  0  0  0
   46.2700   28.1580   47.4340 C   0  0  0  0  0  0  0  0  0  0  0  0
   45.3890   27.1390   47.1730 C   0  0  0  0  0  0  0  0  0  0  0  0
   44.2540   27.6960   46.6890 N   0  0  0  0  0  0  0  0  0  0  0  0
   44.4180   29.0210   46.6480 N   0  0  0  0  0  0  0  0  0  0  0  0
   45.6450   31.2100   45.8160 O   0  0  0  0  0  0  0  0  0  0  0  0
   46.3850   32.1880   45.0630 C   0  0  0  0  0  0  0  0  0  0  0  0
   47.5230   31.9170   44.6770 O   0  0  0  0  0  0  0  0  0  0  0  0
   44.6360   35.3500   45.5840 C   0  0  0  0  0  0  0  0  0  0  0  0
   44.3380   35.7850   44.2720 C   0  0  0  0  0  0  0  0  0  0  0  0
   44.7520   34.9750   43.2280 C   0  0  0  0  0  0  0  0  0  0  0  0
   45.4180   33.8150   43.5240 N   0  0  0  0  0  0  0  0  0  0  0  0
   45.6700   33.4590   44.8240 C   0  0  0  0  0  0  0  0  0  0  0  0
   45.2840   34.2160   45.8360 N   0  0  0  0  0  0  0  0  0  0  0  0
   44.4650   35.3850   41.8310 C   0  0  0  0  0  0  0  0  0  0  0  0
   47.5785   31.9435   46.8859 H   0  0  0  0  0  0  0  0  0  0  0  0
   47.2554   30.6320   49.5191 H   0  0  0  0  0  0  0  0  0  0  0  0
   48.0873   32.1259   49.1890 H   0  0  0  0  0  0  0  0  0  0  0  0
   45.5776   32.2923   50.0282 H   0  0  0  0  0  0  0  0  0  0  0  0
   45.9527   33.2709   48.6185 H   0  0  0  0  0  0  0  0  0  0  0  0
   44.5355   30.5753   48.7832 H   0  0  0  0  0  0  0  0  0  0  0  0
   44.1009   31.9188   47.7723 H   0  0  0  0  0  0  0  0  0  0  0  0
   47.2875   28.0474   47.8371 H   0  0  0  0  0  0  0  0  0  0  0  0
   45.5716   26.0655   47.3286 H   0  0  0  0  0  0  0  0  0  0  0  0
   43.4075   27.1847   46.4012 H   0  0  0  0  0  0  0  0  0  0  0  0
   44.3188   35.9754   46.4315 H   0  0  0  0  0  0  0  0  0  0  0  0
   43.8002   36.7268   44.0885 H   0  0  0  0  0  0  0  0  0  0  0  0
   43.8342   36.2861   41.8356 H   0  0  0  0  0  0  0  0  0  0  0  0
   45.4098   35.6014   41.3109 H   0  0  0  0  0  0  0  0  0  0  0  0
   43.9382   34.5713   41.3109 H   0  0  0  0  0  0  0  0  0  0  0  0
  1  2  1  0
  2  3  1  0
  4  3  1  0
  5 11  1  6
  5  6  1  0
  5  1  1  0
  5  4  1  0
  6  7  1  0
  8  7  2  0
  9  8  1  0
 10  9  1  0
 10  6  2  0
 12 11  1  0
 13 12  2  0
 14 19  2  0
 15 14  1  0
 16 17  1  0
 16 15  2  0
 17 18  2  0
 18 12  1  0
 18 19  1  0
 20 16  1  0
  1 21  1  0
  2 22  1  0
  2 23  1  0
  3 24  1  0
  3 25  1  0
  4 26  1  0
  4 27  1  0
  7 28  1  0
  8 29  1  0
  9 30  1  0
 14 31  1  0
 15 32  1  0
 20 33  1  0
 20 34  1  0
 20 35  1  0
M  ISO  8  21   5  22  13  23  13  24  13  25  13  26  13  27  13  28  14
M  ISO  7  29  14  30   9  31  14  32  14  33   8  34   8  35   8
M  END
>  <minimizedAffinity>  (1) 
-4.90442133

>  <minimizedRMSD>  (1) 
0.442933291

$$$$
