
     RDKit          3D

 39 42  0  0  1  0  0  0  0  0999 V2000
   47.0120   30.6860   47.6610 N   0  0  0  0  0  0  0  0  0  0  0  0
   47.0020   31.0610   49.0770 C   0  0  0  0  0  0  0  0  0  0  0  0
   45.8500   32.0260   49.1250 C   0  0  0  0  0  0  0  0  0  0  0  0
   44.7990   31.3680   48.2760 C   0  0  0  0  0  0  0  0  0  0  0  0
   45.6940   30.6230   47.2460 C   0  0  2  0  0  0  0  0  0  0  0  0
   45.1160   29.2290   47.2260 C   0  0  0  0  0  0  0  0  0  0  0  0
   45.1580   28.0650   47.9680 C   0  0  0  0  0  0  0  0  0  0  0  0
   44.3540   27.1480   47.3440 C   0  0  0  0  0  0  0  0  0  0  0  0
   43.8320   27.7230   46.2520 N   0  0  0  0  0  0  0  0  0  0  0  0
   44.2920   28.9790   46.1820 N   0  0  0  0  0  0  0  0  0  0  0  0
   45.5330   31.0490   45.9510 O   0  0  0  0  0  0  0  0  0  0  0  0
   46.3770   32.0190   45.3030 C   0  0  0  0  0  0  0  0  0  0  0  0
   47.5610   31.7380   45.0820 O   0  0  0  0  0  0  0  0  0  0  0  0
   44.6910   35.2490   45.5600 C   0  0  0  0  0  0  0  0  0  0  0  0
   44.4570   35.6140   44.2170 C   0  0  0  0  0  0  0  0  0  0  0  0
   44.9000   34.7200   43.2290 C   0  0  0  0  0  0  0  0  0  0  0  0
   45.5220   33.5650   43.6250 N   0  0  0  0  0  0  0  0  0  0  0  0
   45.7070   33.2910   44.9590 C   0  0  0  0  0  0  0  0  0  0  0  0
   45.3020   34.1130   45.9040 N   0  0  0  0  0  0  0  0  0  0  0  0
   44.7030   35.0090   41.7950 C   0  0  0  0  0  0  0  0  0  0  0  0
   43.4650   35.6560   41.3020 C   0  0  0  0  0  0  0  0  0  0  0  0
   43.6120   34.1840   41.1250 C   0  0  0  0  0  0  0  0  0  0  0  0
   47.5215   31.3931   47.1121 H   0  0  0  0  0  0  0  0  0  0  0  0
   46.8221   30.1885   49.7222 H   0  0  0  0  0  0  0  0  0  0  0  0
   47.9533   31.4809   49.4359 H   0  0  0  0  0  0  0  0  0  0  0  0
   45.4934   32.1602   50.1569 H   0  0  0  0  0  0  0  0  0  0  0  0
   46.1200   33.0305   48.7671 H   0  0  0  0  0  0  0  0  0  0  0  0
   44.1838   30.6683   48.8607 H   0  0  0  0  0  0  0  0  0  0  0  0
   44.0678   32.0600   47.8327 H   0  0  0  0  0  0  0  0  0  0  0  0
   45.7326   27.9035   48.8920 H   0  0  0  0  0  0  0  0  0  0  0  0
   44.1689   26.1175   47.6812 H   0  0  0  0  0  0  0  0  0  0  0  0
   43.1888   27.2767   45.5827 H   0  0  0  0  0  0  0  0  0  0  0  0
   44.3558   35.9292   46.3569 H   0  0  0  0  0  0  0  0  0  0  0  0
   43.9510   36.5553   43.9563 H   0  0  0  0  0  0  0  0  0  0  0  0
   45.7691   35.2350   41.6456 H   0  0  0  0  0  0  0  0  0  0  0  0
   42.7310   36.0481   42.0214 H   0  0  0  0  0  0  0  0  0  0  0  0
   43.2554   36.4941   40.6211 H   0  0  0  0  0  0  0  0  0  0  0  0
   42.9983   33.4914   41.7198 H   0  0  0  0  0  0  0  0  0  0  0  0
   43.5658   33.4878   40.2746 H   0  0  0  0  0  0  0  0  0  0  0  0
  1  2  1  0
  2  3  1  0
  4  3  1  0
  5 11  1  6
  5  1  1  0
  5  4  1  0
  6  5  1  0
  6  7  1  0
  8  7  2  0
  9  8  1  0
 10  9  1  0
 10  6  2  0
 12 11  1  0
 13 12  2  0
 14 19  2  0
 15 14  1  0
 16 17  1  0
 16 15  2  0
 17 18  2  0
 18 12  1  0
 18 19  1  0
 20 16  1  0
 21 20  1  0
 22 21  1  0
 22 20  1  0
  1 23  1  0
  2 24  1  0
  2 25  1  0
  3 26  1  0
  3 27  1  0
  4 28  1  0
  4 29  1  0
  7 30  1  0
  8 31  1  0
  9 32  1  0
 14 33  1  0
 15 34  1  0
 20 35  1  0
 21 36  1  0
 21 37  1  0
 22 38  1  0
 22 39  1  0
M  ISO  8  23   5  24  13  25  13  26  13  27  13  28  13  29  13  30  14
M  ISO  8  31  14  32   9  33  14  34  14  35  13  36  13  37  13  38  13
M  ISO  1  39  13
M  END
>  <minimizedAffinity>  (1) 
-5.28868818

>  <minimizedRMSD>  (1) 
0.915691972

$$$$
