
     RDKit          3D

 33 35  0  0  1  0  0  0  0  0999 V2000
   47.2790   31.2050   47.3860 N   0  0  0  0  0  0  0  0  0  0  0  0
   47.2640   31.6070   48.7990 C   0  0  0  0  0  0  0  0  0  0  0  0
   45.9370   32.3020   48.9050 C   0  0  0  0  0  0  0  0  0  0  0  0
   45.0060   31.4160   48.1330 C   0  0  0  0  0  0  0  0  0  0  0  0
   45.9640   30.8470   47.0540 C   0  0  2  0  0  0  0  0  0  0  0  0
   45.7040   29.3660   47.0960 C   0  0  0  0  0  0  0  0  0  0  0  0
   46.3570   28.1930   47.4210 C   0  0  0  0  0  0  0  0  0  0  0  0
   45.4770   27.1600   47.2130 C   0  0  0  0  0  0  0  0  0  0  0  0
   44.3120   27.6870   46.7700 N   0  0  0  0  0  0  0  0  0  0  0  0
   44.4570   29.0180   46.7030 N   0  0  0  0  0  0  0  0  0  0  0  0
   45.6540   31.2020   45.7710 O   0  0  0  0  0  0  0  0  0  0  0  0
   46.3780   32.1690   44.9860 C   0  0  0  0  0  0  0  0  0  0  0  0
   47.5090   31.9000   44.5850 O   0  0  0  0  0  0  0  0  0  0  0  0
   44.6670   35.3590   45.4790 C   0  0  0  0  0  0  0  0  0  0  0  0
   44.2730   35.7170   44.1810 C   0  0  0  0  0  0  0  0  0  0  0  0
   44.6030   34.8590   43.1410 C   0  0  0  0  0  0  0  0  0  0  0  0
   45.2940   33.7160   43.4390 N   0  0  0  0  0  0  0  0  0  0  0  0
   45.6480   33.4300   44.7390 C   0  0  0  0  0  0  0  0  0  0  0  0
   45.3390   34.2380   45.7370 N   0  0  0  0  0  0  0  0  0  0  0  0
   44.1980   35.1230   41.4190 S   0  0  0  0  0  0  0  0  0  0  0  0
   47.5925   31.9897   46.7971 H   0  0  0  0  0  0  0  0  0  0  0  0
   47.3129   30.7328   49.4649 H   0  0  0  0  0  0  0  0  0  0  0  0
   48.1197   32.2321   49.0940 H   0  0  0  0  0  0  0  0  0  0  0  0
   45.6200   32.3830   49.9552 H   0  0  0  0  0  0  0  0  0  0  0  0
   45.9638   33.3311   48.5173 H   0  0  0  0  0  0  0  0  0  0  0  0
   44.5907   30.6177   48.7657 H   0  0  0  0  0  0  0  0  0  0  0  0
   44.1222   31.9308   47.7281 H   0  0  0  0  0  0  0  0  0  0  0  0
   47.3926   28.1030   47.7807 H   0  0  0  0  0  0  0  0  0  0  0  0
   45.6827   26.0920   47.3775 H   0  0  0  0  0  0  0  0  0  0  0  0
   43.4624   27.1579   46.5268 H   0  0  0  0  0  0  0  0  0  0  0  0
   44.4118   36.0281   46.3139 H   0  0  0  0  0  0  0  0  0  0  0  0
   43.7196   36.6489   43.9932 H   0  0  0  0  0  0  0  0  0  0  0  0
   43.0528   35.8695   41.3285 H   0  0  0  0  0  0  0  0  0  0  0  0
  1  2  1  0
  2  3  1  0
  4  3  1  0
  5 11  1  6
  5  6  1  0
  5  1  1  0
  5  4  1  0
  6  7  1  0
  8  7  2  0
  9  8  1  0
 10  9  1  0
 10  6  2  0
 12 11  1  0
 13 12  2  0
 14 19  2  0
 15 14  1  0
 16 17  1  0
 16 15  2  0
 17 18  2  0
 18 12  1  0
 18 19  1  0
 20 16  1  0
  1 21  1  0
  2 22  1  0
  2 23  1  0
  3 24  1  0
  3 25  1  0
  4 26  1  0
  4 27  1  0
  7 28  1  0
  8 29  1  0
  9 30  1  0
 14 31  1  0
 15 32  1  0
 20 33  1  0
M  ISO  8  21   5  22  13  23  13  24  13  25  13  26  13  27  13  28  14
M  ISO  5  29  14  30   9  31  14  32  14  33  11
M  END
>  <minimizedAffinity>  (1) 
-4.7926712

>  <minimizedRMSD>  (1) 
0.568076313

$$$$
