
     RDKit          3D

 43 46  0  0  1  0  0  0  0  0999 V2000
   47.2530   31.2420   47.3600 N   0  0  0  0  0  0  0  0  0  0  0  0
   47.2670   31.6360   48.7670 C   0  0  0  0  0  0  0  0  0  0  0  0
   45.9420   32.3270   48.8940 C   0  0  0  0  0  0  0  0  0  0  0  0
   45.0000   31.4490   48.1200 C   0  0  0  0  0  0  0  0  0  0  0  0
   45.9380   30.8730   47.0400 C   0  0  2  0  0  0  0  0  0  0  0  0
   45.6730   29.4100   47.0680 C   0  0  0  0  0  0  0  0  0  0  0  0
   46.3390   28.2360   47.4000 C   0  0  0  0  0  0  0  0  0  0  0  0
   45.4880   27.1980   47.1880 C   0  0  0  0  0  0  0  0  0  0  0  0
   44.3120   27.7190   46.7310 N   0  0  0  0  0  0  0  0  0  0  0  0
   44.4340   29.0470   46.6630 N   0  0  0  0  0  0  0  0  0  0  0  0
   45.6140   31.2420   45.7600 O   0  0  0  0  0  0  0  0  0  0  0  0
   46.3380   32.2080   44.9650 C   0  0  0  0  0  0  0  0  0  0  0  0
   47.4760   31.9520   44.5850 O   0  0  0  0  0  0  0  0  0  0  0  0
   44.6560   35.4300   45.3710 C   0  0  0  0  0  0  0  0  0  0  0  0
   44.1800   35.7060   44.0900 C   0  0  0  0  0  0  0  0  0  0  0  0
   44.4330   34.7840   43.0730 C   0  0  0  0  0  0  0  0  0  0  0  0
   45.1410   33.6550   43.3980 N   0  0  0  0  0  0  0  0  0  0  0  0
   45.5800   33.4510   44.6890 C   0  0  0  0  0  0  0  0  0  0  0  0
   45.3380   34.3260   45.6490 N   0  0  0  0  0  0  0  0  0  0  0  0
   44.0110   34.9570   41.7750 O   0  0  0  0  0  0  0  0  0  0  0  0
   42.7150   34.6090   41.4220 C   0  0  0  0  0  0  0  0  0  0  0  0
   42.1670   33.3560   41.2390 C   0  0  0  0  0  0  0  0  0  0  0  0
   40.8390   33.2430   40.8850 C   0  0  0  0  0  0  0  0  0  0  0  0
   40.0470   34.3690   40.7110 C   0  0  0  0  0  0  0  0  0  0  0  0
   40.5870   35.6360   40.8920 C   0  0  0  0  0  0  0  0  0  0  0  0
   41.9310   35.7530   41.2510 C   0  0  0  0  0  0  0  0  0  0  0  0
   47.5501   32.0324   46.7702 H   0  0  0  0  0  0  0  0  0  0  0  0
   47.3291   30.7601   49.4295 H   0  0  0  0  0  0  0  0  0  0  0  0
   48.1280   32.2589   49.0510 H   0  0  0  0  0  0  0  0  0  0  0  0
   45.6359   32.3954   49.9483 H   0  0  0  0  0  0  0  0  0  0  0  0
   45.9649   33.3601   48.5170 H   0  0  0  0  0  0  0  0  0  0  0  0
   44.5794   30.6539   48.7531 H   0  0  0  0  0  0  0  0  0  0  0  0
   44.1221   31.9760   47.7182 H   0  0  0  0  0  0  0  0  0  0  0  0
   47.3724   28.1605   47.7692 H   0  0  0  0  0  0  0  0  0  0  0  0
   45.7068   26.1329   47.3542 H   0  0  0  0  0  0  0  0  0  0  0  0
   43.4717   27.1786   46.4807 H   0  0  0  0  0  0  0  0  0  0  0  0
   44.4598   36.1512   46.1780 H   0  0  0  0  0  0  0  0  0  0  0  0
   43.6179   36.6292   43.8854 H   0  0  0  0  0  0  0  0  0  0  0  0
   42.7839   32.4553   41.3743 H   0  0  0  0  0  0  0  0  0  0  0  0
   40.4008   32.2448   40.7383 H   0  0  0  0  0  0  0  0  0  0  0  0
   38.9895   34.2581   40.4292 H   0  0  0  0  0  0  0  0  0  0  0  0
   39.9654   36.5330   40.7546 H   0  0  0  0  0  0  0  0  0  0  0  0
   42.3742   36.7487   41.3997 H   0  0  0  0  0  0  0  0  0  0  0  0
  1  2  1  0
  2  3  1  0
  4  3  1  0
  5 11  1  6
  5  6  1  0
  5  1  1  0
  5  4  1  0
  6  7  1  0
  8  7  2  0
  9  8  1  0
 10  9  1  0
 10  6  2  0
 12 11  1  0
 13 12  2  0
 14 19  2  0
 15 14  1  0
 16 17  1  0
 16 15  2  0
 17 18  2  0
 18 12  1  0
 18 19  1  0
 20 16  1  0
 21 20  1  0
 22 21  2  0
 23 22  1  0
 24 23  2  0
 24 25  1  0
 25 26  2  0
 26 21  1  0
  1 27  1  0
  2 28  1  0
  2 29  1  0
  3 30  1  0
  3 31  1  0
  4 32  1  0
  4 33  1  0
  7 34  1  0
  8 35  1  0
  9 36  1  0
 14 37  1  0
 15 38  1  0
 22 39  1  0
 23 40  1  0
 24 41  1  0
 25 42  1  0
 26 43  1  0
M  ISO  8  27   5  28  13  29  13  30  13  31  13  32  13  33  13  34  14
M  ISO  8  35  14  36   9  37  14  38  14  39  14  40  14  41  14  42  14
M  ISO  1  43  14
M  END
>  <minimizedAffinity>  (1) 
-5.72490788

>  <minimizedRMSD>  (1) 
2.20395541

$$$$
