
     RDKit          3D

 36 38  0  0  1  0  0  0  0  0999 V2000
   47.2550   31.1760   47.4000 N   0  0  0  0  0  0  0  0  0  0  0  0
   47.2480   31.5450   48.8230 C   0  0  0  0  0  0  0  0  0  0  0  0
   45.9460   32.2620   48.9370 C   0  0  0  0  0  0  0  0  0  0  0  0
   45.0040   31.4050   48.1510 C   0  0  0  0  0  0  0  0  0  0  0  0
   45.9530   30.8450   47.0720 C   0  0  2  0  0  0  0  0  0  0  0  0
   45.6630   29.3780   47.0660 C   0  0  0  0  0  0  0  0  0  0  0  0
   46.3050   28.1870   47.3830 C   0  0  0  0  0  0  0  0  0  0  0  0
   45.4410   27.1660   47.1380 C   0  0  0  0  0  0  0  0  0  0  0  0
   44.2810   27.7080   46.6750 N   0  0  0  0  0  0  0  0  0  0  0  0
   44.4250   29.0320   46.6370 N   0  0  0  0  0  0  0  0  0  0  0  0
   45.6370   31.2390   45.7930 O   0  0  0  0  0  0  0  0  0  0  0  0
   46.3400   32.2170   45.0200 C   0  0  0  0  0  0  0  0  0  0  0  0
   47.4440   31.9320   44.5510 O   0  0  0  0  0  0  0  0  0  0  0  0
   44.6290   35.3560   45.7420 C   0  0  0  0  0  0  0  0  0  0  0  0
   44.3480   35.8770   44.4720 C   0  0  0  0  0  0  0  0  0  0  0  0
   44.7550   35.1350   43.3650 C   0  0  0  0  0  0  0  0  0  0  0  0
   45.3990   33.9520   43.5860 N   0  0  0  0  0  0  0  0  0  0  0  0
   45.6360   33.5100   44.8630 C   0  0  0  0  0  0  0  0  0  0  0  0
   45.2570   34.2030   45.9130 N   0  0  0  0  0  0  0  0  0  0  0  0
   44.5240   35.5630   42.0800 O   0  0  0  0  0  0  0  0  0  0  0  0
   43.2680   35.4240   41.4770 C   0  0  0  0  0  0  0  0  0  0  0  0
   43.0870   35.2410   40.2420 O   0  0  0  0  0  0  0  0  0  0  0  0
   42.0980   35.4820   42.2230 O   0  0  0  0  0  0  0  0  0  0  0  0
   47.5746   31.9709   46.8282 H   0  0  0  0  0  0  0  0  0  0  0  0
   47.2747   30.6552   49.4691 H   0  0  0  0  0  0  0  0  0  0  0  0
   48.1176   32.1413   49.1362 H   0  0  0  0  0  0  0  0  0  0  0  0
   45.6279   32.3344   49.9875 H   0  0  0  0  0  0  0  0  0  0  0  0
   45.9934   33.2968   48.5669 H   0  0  0  0  0  0  0  0  0  0  0  0
   44.5756   30.6023   48.7692 H   0  0  0  0  0  0  0  0  0  0  0  0
   44.1275   31.9380   47.7539 H   0  0  0  0  0  0  0  0  0  0  0  0
   47.3317   28.0877   47.7650 H   0  0  0  0  0  0  0  0  0  0  0  0
   45.6429   26.0950   47.2870 H   0  0  0  0  0  0  0  0  0  0  0  0
   43.4373   27.1845   46.4012 H   0  0  0  0  0  0  0  0  0  0  0  0
   44.3164   35.9258   46.6295 H   0  0  0  0  0  0  0  0  0  0  0  0
   43.8249   36.8373   44.3531 H   0  0  0  0  0  0  0  0  0  0  0  0
   41.2204   35.3812   41.7760 H   0  0  0  0  0  0  0  0  0  0  0  0
  1  2  1  0
  2  3  1  0
  4  3  1  0
  5 11  1  6
  5  1  1  0
  5  4  1  0
  6  5  1  0
  6  7  1  0
  8  7  2  0
  9  8  1  0
 10  9  1  0
 10  6  2  0
 12 11  1  0
 13 12  2  0
 14 19  2  0
 15 14  1  0
 16 17  1  0
 16 15  2  0
 17 18  2  0
 18 12  1  0
 18 19  1  0
 20 16  1  0
 21 20  1  0
 21 23  1  0
 22 21  2  0
  1 24  1  0
  2 25  1  0
  2 26  1  0
  3 27  1  0
  3 28  1  0
  4 29  1  0
  4 30  1  0
  7 31  1  0
  8 32  1  0
  9 33  1  0
 14 34  1  0
 15 35  1  0
 23 36  1  0
M  ISO  8  24   5  25  13  26  13  27  13  28  13  29  13  30  13  31  14
M  ISO  5  32  14  33   9  34  14  35  14  36   3
M  END
>  <minimizedAffinity>  (1) 
-5.40580225

>  <minimizedRMSD>  (1) 
0.332449943

$$$$
