
     RDKit          3D

 40 43  0  0  1  0  0  0  0  0999 V2000
   47.0320   30.7500   47.5640 N   0  0  0  0  0  0  0  0  0  0  0  0
   47.0410   31.1200   48.9860 C   0  0  0  0  0  0  0  0  0  0  0  0
   45.8920   32.0730   49.0590 C   0  0  0  0  0  0  0  0  0  0  0  0
   44.8400   31.4210   48.2230 C   0  0  0  0  0  0  0  0  0  0  0  0
   45.6960   30.6760   47.1690 C   0  0  2  0  0  0  0  0  0  0  0  0
   45.1220   29.2960   47.1470 C   0  0  0  0  0  0  0  0  0  0  0  0
   45.1900   28.1350   47.9060 C   0  0  0  0  0  0  0  0  0  0  0  0
   44.3910   27.2050   47.3070 C   0  0  0  0  0  0  0  0  0  0  0  0
   43.8450   27.7790   46.2050 N   0  0  0  0  0  0  0  0  0  0  0  0
   44.2930   29.0370   46.1190 N   0  0  0  0  0  0  0  0  0  0  0  0
   45.5230   31.1140   45.8810 O   0  0  0  0  0  0  0  0  0  0  0  0
   46.3330   32.0930   45.2280 C   0  0  0  0  0  0  0  0  0  0  0  0
   47.5160   31.8250   44.9700 O   0  0  0  0  0  0  0  0  0  0  0  0
   44.6680   35.3270   45.5590 C   0  0  0  0  0  0  0  0  0  0  0  0
   44.3830   35.6700   44.2320 C   0  0  0  0  0  0  0  0  0  0  0  0
   44.7530   34.8070   43.2200 C   0  0  0  0  0  0  0  0  0  0  0  0
   45.3870   33.6520   43.6010 N   0  0  0  0  0  0  0  0  0  0  0  0
   45.6410   33.3670   44.9160 C   0  0  0  0  0  0  0  0  0  0  0  0
   45.2870   34.1890   45.8710 N   0  0  0  0  0  0  0  0  0  0  0  0
   44.5260   35.0410   41.8990 O   0  0  0  0  0  0  0  0  0  0  0  0
   43.2930   35.4590   41.4080 C   0  0  0  0  0  0  0  0  0  0  0  0
   42.9000   35.1270   39.9940 C   0  0  0  0  0  0  0  0  0  0  0  0
   42.2910   34.3150   41.0860 C   0  0  0  0  0  0  0  0  0  0  0  0
   47.5255   31.4643   47.0097 H   0  0  0  0  0  0  0  0  0  0  0  0
   46.8761   30.2432   49.6294 H   0  0  0  0  0  0  0  0  0  0  0  0
   47.9955   31.5445   49.3307 H   0  0  0  0  0  0  0  0  0  0  0  0
   45.5488   32.1953   50.0969 H   0  0  0  0  0  0  0  0  0  0  0  0
   46.1516   33.0826   48.7078 H   0  0  0  0  0  0  0  0  0  0  0  0
   44.2337   30.7201   48.8156 H   0  0  0  0  0  0  0  0  0  0  0  0
   44.1120   32.1240   47.7919 H   0  0  0  0  0  0  0  0  0  0  0  0
   45.7804   27.9913   48.8230 H   0  0  0  0  0  0  0  0  0  0  0  0
   44.2202   26.1755   47.6547 H   0  0  0  0  0  0  0  0  0  0  0  0
   43.1963   27.3239   45.5470 H   0  0  0  0  0  0  0  0  0  0  0  0
   44.3732   36.0149   46.3652 H   0  0  0  0  0  0  0  0  0  0  0  0
   43.8708   36.6151   43.9987 H   0  0  0  0  0  0  0  0  0  0  0  0
   43.3075   36.3889   41.9954 H   0  0  0  0  0  0  0  0  0  0  0  0
   43.6365   34.6651   39.3201 H   0  0  0  0  0  0  0  0  0  0  0  0
   42.4885   35.7132   39.1591 H   0  0  0  0  0  0  0  0  0  0  0  0
   41.2247   34.4297   41.3306 H   0  0  0  0  0  0  0  0  0  0  0  0
   42.2262   33.2423   41.3207 H   0  0  0  0  0  0  0  0  0  0  0  0
  1  2  1  0
  2  3  1  0
  4  3  1  0
  5 11  1  6
  5  1  1  0
  5  4  1  0
  6  5  1  0
  6  7  1  0
  8  7  2  0
  9  8  1  0
 10  9  1  0
 10  6  2  0
 12 11  1  0
 13 12  2  0
 14 19  2  0
 15 14  1  0
 16 17  1  0
 16 15  2  0
 17 18  2  0
 18 12  1  0
 18 19  1  0
 20 16  1  0
 21 20  1  0
 22 23  1  0
 22 21  1  0
 23 21  1  0
  1 24  1  0
  2 25  1  0
  2 26  1  0
  3 27  1  0
  3 28  1  0
  4 29  1  0
  4 30  1  0
  7 31  1  0
  8 32  1  0
  9 33  1  0
 14 34  1  0
 15 35  1  0
 21 36  1  0
 22 37  1  0
 22 38  1  0
 23 39  1  0
 23 40  1  0
M  ISO  8  24   5  25  13  26  13  27  13  28  13  29  13  30  13  31  14
M  ISO  8  32  14  33   9  34  14  35  14  36  13  37  13  38  13  39  13
M  ISO  1  40  13
M  END
>  <minimizedAffinity>  (1) 
-5.23645496

>  <minimizedRMSD>  (1) 
0.867434084

$$$$
