
     RDKit          3D

 26 27  0  0  0  0  0  0  0  0999 V2000
   46.5860   34.7530   41.7030 C   0  0  0  0  0  0  0  0  0  0  0  0
   45.1790   36.0240   43.2550 C   0  0  0  0  0  0  0  0  0  0  0  0
   45.9580   34.8870   42.9990 C   0  0  0  0  0  0  0  0  0  0  0  0
   46.0730   33.9510   44.0210 C   0  0  0  0  0  0  0  0  0  0  0  0
   45.4360   34.1780   45.2000 N   0  0  0  0  0  0  0  0  0  0  0  0
   44.6920   35.2890   45.4190 C   0  0  0  0  0  0  0  0  0  0  0  0
   44.5640   36.2100   44.4460 N   0  0  0  0  0  0  0  0  0  0  0  0
   47.9720   35.4150   41.7710 C   0  0  0  0  0  0  0  0  0  0  0  0
   48.9870   34.3340   41.7060 C   0  0  0  0  0  0  0  0  0  0  0  0
   50.1200   34.3240   42.4950 C   0  0  0  0  0  0  0  0  0  0  0  0
   50.9990   33.2640   42.3500 C   0  0  0  0  0  0  0  0  0  0  0  0
   50.7780   32.2230   41.4460 C   0  0  0  0  0  0  0  0  0  0  0  0
   49.6250   32.2650   40.6660 C   0  0  0  0  0  0  0  0  0  0  0  0
   48.7310   33.3270   40.8020 C   0  0  0  0  0  0  0  0  0  0  0  0
   45.9722   35.2515   40.9383 H   0  0  0  0  0  0  0  0  0  0  0  0
   46.6847   33.6904   41.4363 H   0  0  0  0  0  0  0  0  0  0  0  0
   45.0648   36.7840   42.4681 H   0  0  0  0  0  0  0  0  0  0  0  0
   46.6714   33.0393   43.8772 H   0  0  0  0  0  0  0  0  0  0  0  0
   44.1943   35.4377   46.3887 H   0  0  0  0  0  0  0  0  0  0  0  0
   48.1015   36.1031   40.9226 H   0  0  0  0  0  0  0  0  0  0  0  0
   48.0802   35.9923   42.7011 H   0  0  0  0  0  0  0  0  0  0  0  0
   50.3179   35.1316   43.2151 H   0  0  0  0  0  0  0  0  0  0  0  0
   51.9066   33.2411   42.9711 H   0  0  0  0  0  0  0  0  0  0  0  0
   51.4942   31.3934   41.3526 H   0  0  0  0  0  0  0  0  0  0  0  0
   49.4196   31.4615   39.9434 H   0  0  0  0  0  0  0  0  0  0  0  0
   47.8201   33.3603   40.1863 H   0  0  0  0  0  0  0  0  0  0  0  0
  1  8  1  0
  1  3  1  0
  2  7  2  0
  3  2  1  0
  3  4  2  0
  4  5  1  0
  5  6  2  0
  7  6  1  0
  9  8  1  0
  9 10  2  0
 11 10  1  0
 12 11  2  0
 13 14  2  0
 13 12  1  0
 14  9  1  0
  1 15  1  0
  1 16  1  0
  2 17  1  0
  4 18  1  0
  6 19  1  0
  8 20  1  0
  8 21  1  0
 10 22  1  0
 11 23  1  0
 12 24  1  0
 13 25  1  0
 14 26  1  0
M  ISO  8  15   8  16   8  17  14  18  14  19  14  20   8  21   8  22  14
M  ISO  4  23  14  24  14  25  14  26  14
M  END
>  <minimizedAffinity>  (1) 
-4.87566614

>  <minimizedRMSD>  (1) 
2.78282261

$$$$
