
     RDKit          3D

 43 46  0  0  1  0  0  0  0  0999 V2000
   45.3380   28.1580   47.3060 O   0  0  0  0  0  0  0  0  0  0  0  0
   45.5530   26.0670   46.4280 N   0  0  0  0  0  0  0  0  0  0  0  0
   45.2520   24.7280   46.9580 C   0  0  0  0  0  0  0  0  0  0  0  0
   45.0090   25.0340   48.3980 C   0  0  0  0  0  0  0  0  0  0  0  0
   44.1670   26.2740   48.3590 C   0  0  0  0  0  0  0  0  0  0  0  0
   44.7030   26.9660   47.0890 C   0  0  1  0  0  0  0  0  0  0  0  0
   43.4790   27.3380   46.3330 C   0  0  0  0  0  0  0  0  0  0  0  0
   42.2890   26.7610   45.9030 C   0  0  0  0  0  0  0  0  0  0  0  0
   41.5770   27.6890   45.2340 C   0  0  0  0  0  0  0  0  0  0  0  0
   42.3000   28.8390   45.2380 N   0  0  0  0  0  0  0  0  0  0  0  0
   43.4420   28.6240   45.9000 N   0  0  0  0  0  0  0  0  0  0  0  0
   46.7110   28.4500   46.9970 C   0  0  0  0  0  0  0  0  0  0  0  0
   47.5980   27.9200   47.6530 O   0  0  0  0  0  0  0  0  0  0  0  0
   47.2570   29.8570   43.6650 C   0  0  0  0  0  0  0  0  0  0  0  0
   47.2310   31.2300   43.8770 C   0  0  0  0  0  0  0  0  0  0  0  0
   47.0240   31.6830   45.1820 C   0  0  0  0  0  0  0  0  0  0  0  0
   46.8570   30.7470   46.1800 N   0  0  0  0  0  0  0  0  0  0  0  0
   46.8990   29.4010   45.8700 C   0  0  0  0  0  0  0  0  0  0  0  0
   47.0940   28.9660   44.6370 N   0  0  0  0  0  0  0  0  0  0  0  0
   46.9790   33.0200   45.5070 O   0  0  0  0  0  0  0  0  0  0  0  0
   46.4830   33.9080   44.5570 C   0  0  0  0  0  0  0  0  0  0  0  0
   45.2760   34.4500   45.0080 C   0  0  0  0  0  0  0  0  0  0  0  0
   44.5820   35.3750   44.2220 C   0  0  0  0  0  0  0  0  0  0  0  0
   45.0960   35.7600   42.9800 C   0  0  0  0  0  0  0  0  0  0  0  0
   46.2880   35.1980   42.5810 C   0  0  0  0  0  0  0  0  0  0  0  0
   46.9810   34.2940   43.3320 C   0  0  0  0  0  0  0  0  0  0  0  0
   46.5371   26.3084   46.6130 H   0  0  0  0  0  0  0  0  0  0  0  0
   44.3592   24.2971   46.4813 H   0  0  0  0  0  0  0  0  0  0  0  0
   46.0432   23.9844   46.7818 H   0  0  0  0  0  0  0  0  0  0  0  0
   44.4712   24.2096   48.8892 H   0  0  0  0  0  0  0  0  0  0  0  0
   45.9396   25.1677   48.9690 H   0  0  0  0  0  0  0  0  0  0  0  0
   43.0982   26.0318   48.2646 H   0  0  0  0  0  0  0  0  0  0  0  0
   44.2314   26.8901   49.2680 H   0  0  0  0  0  0  0  0  0  0  0  0
   41.9803   25.7201   46.0796 H   0  0  0  0  0  0  0  0  0  0  0  0
   40.5907   27.5422   44.7696 H   0  0  0  0  0  0  0  0  0  0  0  0
   42.0159   29.7286   44.8035 H   0  0  0  0  0  0  0  0  0  0  0  0
   47.4207   29.4894   42.6413 H   0  0  0  0  0  0  0  0  0  0  0  0
   47.3688   31.9364   43.0451 H   0  0  0  0  0  0  0  0  0  0  0  0
   44.8707   34.1477   45.9849 H   0  0  0  0  0  0  0  0  0  0  0  0
   43.6326   35.7994   44.5804 H   0  0  0  0  0  0  0  0  0  0  0  0
   44.5672   36.4857   42.3446 H   0  0  0  0  0  0  0  0  0  0  0  0
   46.7031   35.4932   41.6061 H   0  0  0  0  0  0  0  0  0  0  0  0
   47.9294   33.8769   42.9624 H   0  0  0  0  0  0  0  0  0  0  0  0
  2  3  1  0
  2  6  1  0
  3  4  1  0
  5  4  1  0
  6  1  1  1
  6  5  1  0
  7  6  1  0
  8  7  1  0
  9 10  1  0
  9  8  2  0
 10 11  1  0
 11  7  2  0
 12  1  1  0
 12 13  2  0
 14 15  2  0
 14 19  1  0
 15 16  1  0
 16 20  1  0
 16 17  2  0
 18 17  1  0
 18 12  1  0
 19 18  2  0
 21 22  2  0
 21 20  1  0
 23 22  1  0
 24 23  2  0
 25 24  1  0
 25 26  2  0
 26 21  1  0
  2 27  1  0
  3 28  1  0
  3 29  1  0
  4 30  1  0
  4 31  1  0
  5 32  1  0
  5 33  1  0
  8 34  1  0
  9 35  1  0
 10 36  1  0
 14 37  1  0
 15 38  1  0
 22 39  1  0
 23 40  1  0
 24 41  1  0
 25 42  1  0
 26 43  1  0
M  ISO  8  27   5  28  13  29  13  30  13  31  13  32  13  33  13  34  14
M  ISO  8  35  14  36   9  37  14  38  14  39  14  40  14  41  14  42  14
M  ISO  1  43  14
M  END
>  <minimizedAffinity>  (1) 
-4.75601816

>  <minimizedRMSD>  (1) 
4.76020622

$$$$
