
     RDKit          3D

 23 24  0  0  0  0  0  0  0  0999 V2000
   46.5800   34.6780   41.7700 C   0  0  0  0  0  0  0  0  0  0  0  0
   45.1820   35.9940   43.3010 C   0  0  0  0  0  0  0  0  0  0  0  0
   45.9450   34.8470   43.0510 C   0  0  0  0  0  0  0  0  0  0  0  0
   46.0370   33.9220   44.0850 C   0  0  0  0  0  0  0  0  0  0  0  0
   45.3880   34.1900   45.2540 N   0  0  0  0  0  0  0  0  0  0  0  0
   44.6640   35.3060   45.4510 C   0  0  0  0  0  0  0  0  0  0  0  0
   44.5660   36.2000   44.4730 N   0  0  0  0  0  0  0  0  0  0  0  0
   47.9180   35.3960   41.7880 C   0  0  0  0  0  0  0  0  0  0  0  0
   48.9690   34.3920   41.8160 C   0  0  0  0  0  0  0  0  0  0  0  0
   50.1470   34.3250   42.4870 C   0  0  0  0  0  0  0  0  0  0  0  0
   50.9540   33.2370   42.3170 C   0  0  0  0  0  0  0  0  0  0  0  0
   50.5520   32.2580   41.4810 C   0  0  0  0  0  0  0  0  0  0  0  0
   48.9300   32.8830   40.8790 S   0  0  0  0  0  0  0  0  0  0  0  0
   45.9421   35.1048   40.9821 H   0  0  0  0  0  0  0  0  0  0  0  0
   46.7331   33.6077   41.5673 H   0  0  0  0  0  0  0  0  0  0  0  0
   45.0850   36.7512   42.5090 H   0  0  0  0  0  0  0  0  0  0  0  0
   46.6191   32.9966   43.9630 H   0  0  0  0  0  0  0  0  0  0  0  0
   44.1578   35.4771   46.4125 H   0  0  0  0  0  0  0  0  0  0  0  0
   48.0199   36.0174   40.8860 H   0  0  0  0  0  0  0  0  0  0  0  0
   47.9893   36.0470   42.6718 H   0  0  0  0  0  0  0  0  0  0  0  0
   50.4487   35.1398   43.1616 H   0  0  0  0  0  0  0  0  0  0  0  0
   51.9126   33.1604   42.8510 H   0  0  0  0  0  0  0  0  0  0  0  0
   51.0657   31.3200   41.2235 H   0  0  0  0  0  0  0  0  0  0  0  0
  1  8  1  0
  1  3  1  0
  2  7  2  0
  3  2  1  0
  3  4  2  0
  4  5  1  0
  5  6  2  0
  7  6  1  0
  8  9  1  0
  9 10  2  0
 11 10  1  0
 12 11  2  0
 13 12  1  0
 13  9  1  0
  1 14  1  0
  1 15  1  0
  2 16  1  0
  4 17  1  0
  6 18  1  0
  8 19  1  0
  8 20  1  0
 10 21  1  0
 11 22  1  0
 12 23  1  0
M  ISO  8  14   8  15   8  16  14  17  14  18  14  19   8  20   8  21  14
M  ISO  2  22  14  23  14
M  END
>  <minimizedAffinity>  (1) 
-4.52703571

>  <minimizedRMSD>  (1) 
2.70868611

$$$$
