
     RDKit          3D

 17 17  0  0  0  0  0  0  0  0999 V2000
   45.6530   34.4180   41.0790 C   0  0  0  0  0  0  0  0  0  0  0  0
   46.9460   34.8270   41.4070 C   0  0  0  0  0  0  0  0  0  0  0  0
   48.0180   34.3360   40.6370 C   0  0  0  0  0  0  0  0  0  0  0  0
   47.7280   33.4850   39.6120 N   0  0  0  0  0  0  0  0  0  0  0  0
   46.4520   33.1130   39.3270 C   0  0  0  0  0  0  0  0  0  0  0  0
   45.4540   33.5890   40.0660 N   0  0  0  0  0  0  0  0  0  0  0  0
   44.5510   34.9280   41.8750 C   0  0  0  0  0  0  0  0  0  0  0  0
   43.7410   35.7520   41.3410 O   0  0  0  0  0  0  0  0  0  0  0  0
   44.4240   34.4900   43.2030 O   0  0  0  0  0  0  0  0  0  0  0  0
   45.0130   35.2730   44.2100 C   0  0  0  0  0  0  0  0  0  0  0  0
   44.1550   35.4350   45.3030 F   0  0  0  0  0  0  0  0  0  0  0  0
   46.1720   34.6750   44.6550 F   0  0  0  0  0  0  0  0  0  0  0  0
   45.2620   36.5150   43.6730 F   0  0  0  0  0  0  0  0  0  0  0  0
   46.2850   32.2330   38.2470 O   0  0  0  0  0  0  0  0  0  0  0  0
   47.1236   35.5158   42.2461 H   0  0  0  0  0  0  0  0  0  0  0  0
   49.0554   34.6295   40.8554 H   0  0  0  0  0  0  0  0  0  0  0  0
   45.3782   31.9276   37.9930 H   0  0  0  0  0  0  0  0  0  0  0  0
  1  2  2  0
  1  7  1  0
  3  2  1  0
  4  3  2  0
  5  4  1  0
  5  6  2  0
  6  1  1  0
  7  9  1  0
  8  7  2  0
  9 10  1  0
 10 12  1  0
 10 11  1  0
 13 10  1  0
 14  5  1  0
  2 15  1  0
  3 16  1  0
 14 17  1  0
M  ISO  3  15  14  16  14  17   3
M  END
>  <minimizedAffinity>  (1) 
-3.62042809

>  <minimizedRMSD>  (1) 
0.0843281522

$$$$
