
     RDKit          3D

 39 41  0  0  1  0  0  0  0  0999 V2000
   47.1800   34.4130   40.3000 C   0  0  1  0  0  0  0  0  0  0  0  0
   48.3870   34.2110   39.3630 C   0  0  0  0  0  0  0  0  0  0  0  0
   47.8110   34.0490   37.9710 C   0  0  0  0  0  0  0  0  0  0  0  0
   47.0890   32.7310   37.8960 C   0  0  0  0  0  0  0  0  0  0  0  0
   46.8390   32.1470   39.2720 C   0  0  0  0  0  0  0  0  0  0  0  0
   46.3430   33.1920   40.2740 C   0  0  2  0  0  0  0  0  0  0  0  0
   44.9160   33.3780   39.9410 C   0  0  0  0  0  0  0  0  0  0  0  0
   43.9700   32.3920   39.7610 C   0  0  0  0  0  0  0  0  0  0  0  0
   42.7470   32.8780   39.4700 N   0  0  0  0  0  0  0  0  0  0  0  0
   42.8880   34.2190   39.4590 C   0  0  0  0  0  0  0  0  0  0  0  0
   44.1710   34.5070   39.7380 N   0  0  0  0  0  0  0  0  0  0  0  0
   47.7250   34.6960   41.7130 C   0  0  0  0  0  0  0  0  0  0  0  0
   47.0790   33.6780   42.6130 C   0  0  0  0  0  0  0  0  0  0  0  0
   46.0460   33.7290   44.8190 C   0  0  0  0  0  0  0  0  0  0  0  0
   46.2180   34.3230   43.5550 C   0  0  0  0  0  0  0  0  0  0  0  0
   45.5430   35.4830   43.2670 C   0  0  0  0  0  0  0  0  0  0  0  0
   44.7300   36.0080   44.2310 N   0  0  0  0  0  0  0  0  0  0  0  0
   44.5730   35.4270   45.4440 C   0  0  0  0  0  0  0  0  0  0  0  0
   45.2330   34.2820   45.7410 N   0  0  0  0  0  0  0  0  0  0  0  0
   46.5538   35.2590   39.9804 H   0  0  0  0  0  0  0  0  0  0  0  0
   49.0522   35.0862   39.4021 H   0  0  0  0  0  0  0  0  0  0  0  0
   48.9838   33.3350   39.6571 H   0  0  0  0  0  0  0  0  0  0  0  0
   47.1070   34.8686   37.7644 H   0  0  0  0  0  0  0  0  0  0  0  0
   48.6200   34.0752   37.2261 H   0  0  0  0  0  0  0  0  0  0  0  0
   46.1228   32.8825   37.3926 H   0  0  0  0  0  0  0  0  0  0  0  0
   47.7208   32.0265   37.3352 H   0  0  0  0  0  0  0  0  0  0  0  0
   46.0814   31.3542   39.1858 H   0  0  0  0  0  0  0  0  0  0  0  0
   47.7962   31.7548   39.6462 H   0  0  0  0  0  0  0  0  0  0  0  0
   46.4360   32.8671   41.3208 H   0  0  0  0  0  0  0  0  0  0  0  0
   44.1907   31.3177   39.8462 H   0  0  0  0  0  0  0  0  0  0  0  0
   42.0915   34.9502   39.2568 H   0  0  0  0  0  0  0  0  0  0  0  0
   44.5482   35.4639   39.7924 H   0  0  0  0  0  0  0  0  0  0  0  0
   48.8191   34.5838   41.7311 H   0  0  0  0  0  0  0  0  0  0  0  0
   47.4992   35.7230   42.0358 H   0  0  0  0  0  0  0  0  0  0  0  0
   46.4897   32.9771   42.0036 H   0  0  0  0  0  0  0  0  0  0  0  0
   47.8639   33.1347   43.1596 H   0  0  0  0  0  0  0  0  0  0  0  0
   46.5831   32.7993   45.0583 H   0  0  0  0  0  0  0  0  0  0  0  0
   45.6534   35.9750   42.2894 H   0  0  0  0  0  0  0  0  0  0  0  0
   43.9078   35.8860   46.1901 H   0  0  0  0  0  0  0  0  0  0  0  0
  1 12  1  0
  2  1  1  0
  3  2  1  0
  4  3  1  0
  4  5  1  0
  5  6  1  0
  6  1  1  0
  7  6  1  0
  8  7  2  0
  9  8  1  0
 10  9  2  0
 10 11  1  0
 11  7  1  0
 12 13  1  0
 13 15  1  0
 14 19  2  0
 15 14  1  0
 16 15  2  0
 16 17  1  0
 17 18  2  0
 18 19  1  0
  1 20  1  6
  2 21  1  0
  2 22  1  0
  3 23  1  0
  3 24  1  0
  4 25  1  0
  4 26  1  0
  5 27  1  0
  5 28  1  0
  6 29  1  1
  8 30  1  0
 10 31  1  0
 11 32  1  0
 12 33  1  0
 12 34  1  0
 13 35  1  0
 13 36  1  0
 14 37  1  0
 16 38  1  0
 18 39  1  0
M  ISO  8  20  13  21  13  22  13  23  13  24  13  25  13  26  13  27  13
M  ISO  8  28  13  29  13  30  14  31  14  32   9  33   8  34   8  35   8
M  ISO  4  36   8  37  14  38  14  39  14
M  END
>  <minimizedAffinity>  (1) 
-4.70391846

>  <minimizedRMSD>  (1) 
1.9284867

$$$$
