
     RDKit          3D

 41 43  0  0  1  0  0  0  0  0999 V2000
   47.0210   34.2520   40.3170 C   0  0  1  0  0  0  0  0  0  0  0  0
   48.1490   34.1110   39.2780 C   0  0  0  0  0  0  0  0  0  0  0  0
   47.4560   33.7920   37.9640 C   0  0  0  0  0  0  0  0  0  0  0  0
   46.8600   32.4030   38.0480 C   0  0  0  0  0  0  0  0  0  0  0  0
   46.8570   31.8920   39.4780 C   0  0  0  0  0  0  0  0  0  0  0  0
   46.3300   32.9500   40.4590 C   0  0  2  0  0  0  0  0  0  0  0  0
   44.8650   32.9710   40.1630 C   0  0  0  0  0  0  0  0  0  0  0  0
   44.1010   34.1370   40.0190 C   0  0  0  0  0  0  0  0  0  0  0  0
   42.7670   34.1730   39.7480 C   0  0  0  0  0  0  0  0  0  0  0  0
   42.0930   32.9790   39.6000 C   0  0  0  0  0  0  0  0  0  0  0  0
   42.8750   31.8540   39.7480 C   0  0  0  0  0  0  0  0  0  0  0  0
   44.1900   31.8450   40.0150 N   0  0  0  0  0  0  0  0  0  0  0  0
   47.6540   34.6970   41.6510 C   0  0  0  0  0  0  0  0  0  0  0  0
   47.1670   33.7080   42.6730 C   0  0  0  0  0  0  0  0  0  0  0  0
   46.0880   33.7210   44.8610 C   0  0  0  0  0  0  0  0  0  0  0  0
   46.2770   34.3230   43.6050 C   0  0  0  0  0  0  0  0  0  0  0  0
   45.5900   35.4720   43.3040 C   0  0  0  0  0  0  0  0  0  0  0  0
   44.7460   35.9830   44.2540 N   0  0  0  0  0  0  0  0  0  0  0  0
   44.5670   35.4000   45.4640 C   0  0  0  0  0  0  0  0  0  0  0  0
   45.2470   34.2630   45.7620 N   0  0  0  0  0  0  0  0  0  0  0  0
   46.2789   35.0007   40.0029 H   0  0  0  0  0  0  0  0  0  0  0  0
   48.7149   35.0507   39.1955 H   0  0  0  0  0  0  0  0  0  0  0  0
   48.8671   33.3271   39.5604 H   0  0  0  0  0  0  0  0  0  0  0  0
   48.1864   33.8313   37.1424 H   0  0  0  0  0  0  0  0  0  0  0  0
   46.6606   34.5278   37.7741 H   0  0  0  0  0  0  0  0  0  0  0  0
   45.8254   32.4334   37.6757 H   0  0  0  0  0  0  0  0  0  0  0  0
   47.4724   31.7238   37.4368 H   0  0  0  0  0  0  0  0  0  0  0  0
   46.2151   31.0006   39.5365 H   0  0  0  0  0  0  0  0  0  0  0  0
   47.8932   31.6511   39.7579 H   0  0  0  0  0  0  0  0  0  0  0  0
   46.5232   32.7180   41.5168 H   0  0  0  0  0  0  0  0  0  0  0  0
   44.6203   35.0999   40.1341 H   0  0  0  0  0  0  0  0  0  0  0  0
   42.2389   35.1329   39.6494 H   0  0  0  0  0  0  0  0  0  0  0  0
   41.0162   32.9286   39.3811 H   0  0  0  0  0  0  0  0  0  0  0  0
   42.3782   30.8788   39.6377 H   0  0  0  0  0  0  0  0  0  0  0  0
   48.7516   34.6719   41.5835 H   0  0  0  0  0  0  0  0  0  0  0  0
   47.3738   35.7279   41.9132 H   0  0  0  0  0  0  0  0  0  0  0  0
   46.6394   32.8912   42.1587 H   0  0  0  0  0  0  0  0  0  0  0  0
   48.0364   33.3217   43.2252 H   0  0  0  0  0  0  0  0  0  0  0  0
   46.6324   32.7982   45.1102 H   0  0  0  0  0  0  0  0  0  0  0  0
   45.7133   35.9675   42.3297 H   0  0  0  0  0  0  0  0  0  0  0  0
   43.8777   35.8434   46.1976 H   0  0  0  0  0  0  0  0  0  0  0  0
  1  6  1  0
  1 13  1  0
  2  1  1  0
  3  4  1  0
  3  2  1  0
  4  5  1  0
  5  6  1  0
  7  6  1  0
  8  7  2  0
  9  8  1  0
 10  9  2  0
 10 11  1  0
 11 12  2  0
 12  7  1  0
 13 14  1  0
 14 16  1  0
 15 20  2  0
 16 15  1  0
 17 16  2  0
 17 18  1  0
 18 19  2  0
 19 20  1  0
  1 21  1  6
  2 22  1  0
  2 23  1  0
  3 24  1  0
  3 25  1  0
  4 26  1  0
  4 27  1  0
  5 28  1  0
  5 29  1  0
  6 30  1  1
  8 31  1  0
  9 32  1  0
 10 33  1  0
 11 34  1  0
 13 35  1  0
 13 36  1  0
 14 37  1  0
 14 38  1  0
 15 39  1  0
 17 40  1  0
 19 41  1  0
M  ISO  8  21  13  22  13  23  13  24  13  25  13  26  13  27  13  28  13
M  ISO  8  29  13  30  13  31  14  32  14  33  14  34  14  35   8  36   8
M  ISO  5  37   8  38   8  39  14  40  14  41  14
M  END
>  <minimizedAffinity>  (1) 
-4.57055092

>  <minimizedRMSD>  (1) 
2.02648067

$$$$
