
     RDKit          3D

 38 40  0  0  1  0  0  0  0  0999 V2000
   47.1200   34.2890   40.2790 C   0  0  1  0  0  0  0  0  0  0  0  0
   48.2180   34.1950   39.2260 C   0  0  0  0  0  0  0  0  0  0  0  0
   47.5220   33.8070   37.9290 C   0  0  0  0  0  0  0  0  0  0  0  0
   47.0270   32.3770   38.0410 C   0  0  0  0  0  0  0  0  0  0  0  0
   47.0900   31.8900   39.4750 C   0  0  0  0  0  0  0  0  0  0  0  0
   46.5430   32.9140   40.4610 C   0  0  2  0  0  0  0  0  0  0  0  0
   45.1020   32.8530   40.2770 N   0  0  0  0  0  0  0  0  0  0  0  0
   44.2280   33.8550   40.0670 C   0  0  0  0  0  0  0  0  0  0  0  0
   43.0040   33.2620   39.9610 N   0  0  0  0  0  0  0  0  0  0  0  0
   43.1640   31.9310   40.1060 C   0  0  0  0  0  0  0  0  0  0  0  0
   44.4670   31.6970   40.3010 N   0  0  0  0  0  0  0  0  0  0  0  0
   47.7030   34.7900   41.6130 C   0  0  0  0  0  0  0  0  0  0  0  0
   47.2800   33.7900   42.6560 C   0  0  0  0  0  0  0  0  0  0  0  0
   46.1470   33.7660   44.8220 C   0  0  0  0  0  0  0  0  0  0  0  0
   46.3440   34.3790   43.5690 C   0  0  0  0  0  0  0  0  0  0  0  0
   45.6300   35.5100   43.2600 C   0  0  0  0  0  0  0  0  0  0  0  0
   44.7530   35.9970   44.1850 N   0  0  0  0  0  0  0  0  0  0  0  0
   44.5650   35.4030   45.3900 C   0  0  0  0  0  0  0  0  0  0  0  0
   45.2660   34.2850   45.7030 N   0  0  0  0  0  0  0  0  0  0  0  0
   46.3427   34.9974   39.9564 H   0  0  0  0  0  0  0  0  0  0  0  0
   48.7237   35.1653   39.1132 H   0  0  0  0  0  0  0  0  0  0  0  0
   48.9852   33.4588   39.5079 H   0  0  0  0  0  0  0  0  0  0  0  0
   48.2312   33.8870   37.0919 H   0  0  0  0  0  0  0  0  0  0  0  0
   46.6716   34.4809   37.7482 H   0  0  0  0  0  0  0  0  0  0  0  0
   45.9855   32.3285   37.6903 H   0  0  0  0  0  0  0  0  0  0  0  0
   47.6722   31.7340   37.4243 H   0  0  0  0  0  0  0  0  0  0  0  0
   46.4987   30.9664   39.5606 H   0  0  0  0  0  0  0  0  0  0  0  0
   48.1473   31.7165   39.7239 H   0  0  0  0  0  0  0  0  0  0  0  0
   46.8299   32.6812   41.4971 H   0  0  0  0  0  0  0  0  0  0  0  0
   44.4539   34.9292   39.9957 H   0  0  0  0  0  0  0  0  0  0  0  0
   42.3669   31.1738   40.0704 H   0  0  0  0  0  0  0  0  0  0  0  0
   48.8003   34.8401   41.5551 H   0  0  0  0  0  0  0  0  0  0  0  0
   47.3414   35.8002   41.8552 H   0  0  0  0  0  0  0  0  0  0  0  0
   46.8086   32.9283   42.1607 H   0  0  0  0  0  0  0  0  0  0  0  0
   48.1684   33.4663   43.2182 H   0  0  0  0  0  0  0  0  0  0  0  0
   46.7138   32.8603   45.0836 H   0  0  0  0  0  0  0  0  0  0  0  0
   45.7617   36.0117   42.2900 H   0  0  0  0  0  0  0  0  0  0  0  0
   43.8480   35.8257   46.1092 H   0  0  0  0  0  0  0  0  0  0  0  0
  1  6  1  0
  1 12  1  0
  2  1  1  0
  3  4  1  0
  3  2  1  0
  4  5  1  0
  5  6  1  0
  7 11  1  0
  7  6  1  0
  8  7  1  0
  9  8  2  0
  9 10  1  0
 10 11  2  0
 12 13  1  0
 13 15  1  0
 14 19  2  0
 15 14  1  0
 16 15  2  0
 16 17  1  0
 17 18  2  0
 18 19  1  0
  1 20  1  6
  2 21  1  0
  2 22  1  0
  3 23  1  0
  3 24  1  0
  4 25  1  0
  4 26  1  0
  5 27  1  0
  5 28  1  0
  6 29  1  1
  8 30  1  0
 10 31  1  0
 12 32  1  0
 12 33  1  0
 13 34  1  0
 13 35  1  0
 14 36  1  0
 16 37  1  0
 18 38  1  0
M  ISO  8  20  13  21  13  22  13  23  13  24  13  25  13  26  13  27  13
M  ISO  8  28  13  29  13  30  14  31  14  32   8  33   8  34   8  35   8
M  ISO  3  36  14  37  14  38  14
M  END
>  <minimizedAffinity>  (1) 
-4.36045647

>  <minimizedRMSD>  (1) 
1.626212

$$$$
