
     RDKit          3D

 35 36  0  0  1  0  0  0  0  0999 V2000
   47.5100   34.3780   40.1910 C   0  0  1  0  0  0  0  0  0  0  0  0
   48.6420   34.8690   39.2600 C   0  0  0  0  0  0  0  0  0  0  0  0
   48.2760   34.4070   37.8730 C   0  0  0  0  0  0  0  0  0  0  0  0
   48.4610   32.9250   37.8250 C   0  0  0  0  0  0  0  0  0  0  0  0
   48.4780   32.2930   39.1910 C   0  0  0  0  0  0  0  0  0  0  0  0
   47.4150   32.9110   40.1460 C   0  0  2  0  0  0  0  0  0  0  0  0
   46.1200   32.3390   39.5770 C   0  0  0  0  0  0  0  0  0  0  0  0
   46.2610   31.2690   38.7540 F   0  0  0  0  0  0  0  0  0  0  0  0
   45.4220   33.3850   38.9180 F   0  0  0  0  0  0  0  0  0  0  0  0
   45.2120   31.9540   40.5370 F   0  0  0  0  0  0  0  0  0  0  0  0
   47.8510   34.9040   41.6060 C   0  0  0  0  0  0  0  0  0  0  0  0
   47.3830   33.8920   42.5950 C   0  0  0  0  0  0  0  0  0  0  0  0
   46.1820   33.8450   44.7140 C   0  0  0  0  0  0  0  0  0  0  0  0
   46.3840   34.4900   43.4730 C   0  0  0  0  0  0  0  0  0  0  0  0
   45.6550   35.6040   43.1510 C   0  0  0  0  0  0  0  0  0  0  0  0
   44.7480   36.0480   44.0640 N   0  0  0  0  0  0  0  0  0  0  0  0
   44.5480   35.4350   45.2570 C   0  0  0  0  0  0  0  0  0  0  0  0
   45.2650   34.3340   45.5830 N   0  0  0  0  0  0  0  0  0  0  0  0
   46.5249   34.7550   39.8789 H   0  0  0  0  0  0  0  0  0  0  0  0
   48.7117   35.9664   39.2904 H   0  0  0  0  0  0  0  0  0  0  0  0
   49.6184   34.4692   39.5710 H   0  0  0  0  0  0  0  0  0  0  0  0
   47.2276   34.6610   37.6579 H   0  0  0  0  0  0  0  0  0  0  0  0
   48.9116   34.8994   37.1223 H   0  0  0  0  0  0  0  0  0  0  0  0
   47.6351   32.4866   37.2456 H   0  0  0  0  0  0  0  0  0  0  0  0
   49.4375   32.7289   37.3580 H   0  0  0  0  0  0  0  0  0  0  0  0
   48.2741   31.2173   39.0848 H   0  0  0  0  0  0  0  0  0  0  0  0
   49.4695   32.4746   39.6315 H   0  0  0  0  0  0  0  0  0  0  0  0
   47.5280   32.6596   41.2109 H   0  0  0  0  0  0  0  0  0  0  0  0
   48.9378   35.0447   41.7008 H   0  0  0  0  0  0  0  0  0  0  0  0
   47.3585   35.8712   41.7847 H   0  0  0  0  0  0  0  0  0  0  0  0
   46.9381   33.0385   42.0625 H   0  0  0  0  0  0  0  0  0  0  0  0
   48.2373   33.5470   43.1960 H   0  0  0  0  0  0  0  0  0  0  0  0
   46.7666   32.9500   44.9732 H   0  0  0  0  0  0  0  0  0  0  0  0
   45.7971   36.1207   42.1904 H   0  0  0  0  0  0  0  0  0  0  0  0
   43.8021   35.8330   45.9608 H   0  0  0  0  0  0  0  0  0  0  0  0
  1 11  1  0
  2  1  1  0
  3  2  1  0
  4  3  1  0
  4  5  1  0
  5  6  1  0
  6  1  1  0
  7  6  1  0
  7 10  1  0
  8  7  1  0
  9  7  1  0
 11 12  1  0
 12 14  1  0
 13 18  2  0
 14 13  1  0
 15 14  2  0
 15 16  1  0
 16 17  2  0
 17 18  1  0
  1 19  1  6
  2 20  1  0
  2 21  1  0
  3 22  1  0
  3 23  1  0
  4 24  1  0
  4 25  1  0
  5 26  1  0
  5 27  1  0
  6 28  1  1
 11 29  1  0
 11 30  1  0
 12 31  1  0
 12 32  1  0
 13 33  1  0
 15 34  1  0
 17 35  1  0
M  ISO  8  19  13  20  13  21  13  22  13  23  13  24  13  25  13  26  13
M  ISO  8  27  13  28  13  29   8  30   8  31   8  32   8  33  14  34  14
M  ISO  1  35  14
M  END
>  <minimizedAffinity>  (1) 
-4.30454159

>  <minimizedRMSD>  (1) 
0.561741889

$$$$
