
     RDKit          3D

 33 34  0  0  1  0  0  0  0  0999 V2000
   47.6280   34.3100   40.2080 C   0  0  1  0  0  0  0  0  0  0  0  0
   48.5870   34.9320   39.2090 C   0  0  0  0  0  0  0  0  0  0  0  0
   48.2480   34.3040   37.8550 C   0  0  0  0  0  0  0  0  0  0  0  0
   48.6520   32.8430   37.8810 C   0  0  0  0  0  0  0  0  0  0  0  0
   48.9710   32.3810   39.2750 C   0  0  0  0  0  0  0  0  0  0  0  0
   47.9450   32.8390   40.2950 C   0  0  2  0  0  0  0  0  0  0  0  0
   47.8060   34.9430   41.5970 C   0  0  0  0  0  0  0  0  0  0  0  0
   47.3220   33.8970   42.5780 C   0  0  0  0  0  0  0  0  0  0  0  0
   46.1530   33.8360   44.7300 C   0  0  0  0  0  0  0  0  0  0  0  0
   46.3710   34.4470   43.4870 C   0  0  0  0  0  0  0  0  0  0  0  0
   45.6480   35.5730   43.1750 C   0  0  0  0  0  0  0  0  0  0  0  0
   44.7470   36.0570   44.0780 N   0  0  0  0  0  0  0  0  0  0  0  0
   44.5480   35.4560   45.2770 C   0  0  0  0  0  0  0  0  0  0  0  0
   45.2530   34.3420   45.6010 N   0  0  0  0  0  0  0  0  0  0  0  0
   46.8050   32.0520   40.0050 O   0  0  0  0  0  0  0  0  0  0  0  0
   46.5915   34.4770   39.8796 H   0  0  0  0  0  0  0  0  0  0  0  0
   48.4460   36.0223   39.1711 H   0  0  0  0  0  0  0  0  0  0  0  0
   49.6353   34.7492   39.4878 H   0  0  0  0  0  0  0  0  0  0  0  0
   48.7972   34.8256   37.0573 H   0  0  0  0  0  0  0  0  0  0  0  0
   47.1686   34.3906   37.6619 H   0  0  0  0  0  0  0  0  0  0  0  0
   47.8240   32.2367   37.4849 H   0  0  0  0  0  0  0  0  0  0  0  0
   49.5555   32.7253   37.2648 H   0  0  0  0  0  0  0  0  0  0  0  0
   49.0066   31.2816   39.2815 H   0  0  0  0  0  0  0  0  0  0  0  0
   49.9384   32.8220   39.5571 H   0  0  0  0  0  0  0  0  0  0  0  0
   48.3181   32.7093   41.3216 H   0  0  0  0  0  0  0  0  0  0  0  0
   48.8643   35.1814   41.7790 H   0  0  0  0  0  0  0  0  0  0  0  0
   47.2463   35.8851   41.6929 H   0  0  0  0  0  0  0  0  0  0  0  0
   46.8521   33.0727   42.0215 H   0  0  0  0  0  0  0  0  0  0  0  0
   48.1852   33.5320   43.1538 H   0  0  0  0  0  0  0  0  0  0  0  0
   46.7217   32.9337   44.9991 H   0  0  0  0  0  0  0  0  0  0  0  0
   45.7939   36.0781   42.2088 H   0  0  0  0  0  0  0  0  0  0  0  0
   43.8164   35.8705   45.9862 H   0  0  0  0  0  0  0  0  0  0  0  0
   46.3818   31.7598   40.8510 H   0  0  0  0  0  0  0  0  0  0  0  0
  1  6  1  0
  1  7  1  0
  2  1  1  0
  3  4  1  0
  3  2  1  0
  4  5  1  0
  5  6  1  0
  7  8  1  0
  8 10  1  0
  9 14  2  0
 10  9  1  0
 11 10  2  0
 11 12  1  0
 12 13  2  0
 13 14  1  0
 15  6  1  0
  1 16  1  6
  2 17  1  0
  2 18  1  0
  3 19  1  0
  3 20  1  0
  4 21  1  0
  4 22  1  0
  5 23  1  0
  5 24  1  0
  6 25  1  1
  7 26  1  0
  7 27  1  0
  8 28  1  0
  8 29  1  0
  9 30  1  0
 11 31  1  0
 13 32  1  0
 15 33  1  0
M  ISO  8  16  13  17  13  18  13  19  13  20  13  21  13  22  13  23  13
M  ISO  8  24  13  25  13  26   8  27   8  28   8  29   8  30  14  31  14
M  ISO  2  32  14  33   3
M  END
>  <minimizedAffinity>  (1) 
-4.26494169

>  <minimizedRMSD>  (1) 
0.108920358

$$$$
