
     RDKit          3D

 52 55  0  0  1  0  0  0  0  0999 V2000
   47.6570   34.2740   39.9560 C   0  0  1  0  0  0  0  0  0  0  0  0
   48.6310   34.9730   38.9940 C   0  0  0  0  0  0  0  0  0  0  0  0
   48.3620   34.3450   37.6320 C   0  0  0  0  0  0  0  0  0  0  0  0
   48.8440   32.9250   37.6580 C   0  0  0  0  0  0  0  0  0  0  0  0
   49.0920   32.4700   39.0590 C   0  0  0  0  0  0  0  0  0  0  0  0
   47.9300   32.8530   40.0020 C   0  0  2  0  0  0  0  0  0  0  0  0
   47.8080   34.8920   41.3640 C   0  0  0  0  0  0  0  0  0  0  0  0
   47.2820   33.9160   42.3160 C   0  0  0  0  0  0  0  0  0  0  0  0
   46.1780   33.8570   44.4580 C   0  0  0  0  0  0  0  0  0  0  0  0
   46.3640   34.5310   43.2470 C   0  0  0  0  0  0  0  0  0  0  0  0
   45.6740   35.6540   42.9440 C   0  0  0  0  0  0  0  0  0  0  0  0
   44.7830   36.1130   43.8600 N   0  0  0  0  0  0  0  0  0  0  0  0
   44.5780   35.4870   45.0340 C   0  0  0  0  0  0  0  0  0  0  0  0
   45.2720   34.3580   45.3440 N   0  0  0  0  0  0  0  0  0  0  0  0
   46.7850   32.0430   39.4670 C   0  0  0  0  0  0  0  0  0  0  0  0
   45.5350   32.8880   39.2530 C   0  0  0  0  0  0  0  0  0  0  0  0
   44.6720   31.9970   38.4350 N   0  0  0  0  0  0  0  0  0  0  0  0
   43.8320   31.0570   38.9630 C   0  0  0  0  0  0  0  0  0  0  0  0
   43.1930   30.4180   37.9660 N   0  0  0  0  0  0  0  0  0  0  0  0
   43.6230   30.9500   36.8000 C   0  0  0  0  0  0  0  0  0  0  0  0
   43.3400   30.7150   35.4730 C   0  0  0  0  0  0  0  0  0  0  0  0
   42.4970   29.8140   35.2120 O   0  0  0  0  0  0  0  0  0  0  0  0
   43.9620   31.4430   34.5090 N   0  0  0  0  0  0  0  0  0  0  0  0
   44.8640   32.4040   34.8290 C   0  0  0  0  0  0  0  0  0  0  0  0
   45.3850   33.0330   33.6800 N   0  0  0  0  0  0  0  0  0  0  0  0
   45.1560   32.6500   36.1310 N   0  0  0  0  0  0  0  0  0  0  0  0
   44.5410   31.9280   37.0970 C   0  0  0  0  0  0  0  0  0  0  0  0
   46.6258   34.4161   39.6004 H   0  0  0  0  0  0  0  0  0  0  0  0
   48.4360   36.0552   38.9657 H   0  0  0  0  0  0  0  0  0  0  0  0
   49.6786   34.8490   39.3056 H   0  0  0  0  0  0  0  0  0  0  0  0
   48.8997   34.9050   36.8527 H   0  0  0  0  0  0  0  0  0  0  0  0
   47.2849   34.3729   37.4107 H   0  0  0  0  0  0  0  0  0  0  0  0
   48.0820   32.2779   37.1991 H   0  0  0  0  0  0  0  0  0  0  0  0
   49.7885   32.8649   37.0974 H   0  0  0  0  0  0  0  0  0  0  0  0
   49.2075   31.3761   39.0627 H   0  0  0  0  0  0  0  0  0  0  0  0
   50.0042   32.9657   39.4225 H   0  0  0  0  0  0  0  0  0  0  0  0
   48.1413   32.6471   41.0617 H   0  0  0  0  0  0  0  0  0  0  0  0
   48.8682   35.0939   41.5765 H   0  0  0  0  0  0  0  0  0  0  0  0
   47.2627   35.8446   41.4358 H   0  0  0  0  0  0  0  0  0  0  0  0
   46.7547   33.1247   41.7631 H   0  0  0  0  0  0  0  0  0  0  0  0
   48.1252   33.4980   42.8855 H   0  0  0  0  0  0  0  0  0  0  0  0
   46.7486   32.9455   44.6895 H   0  0  0  0  0  0  0  0  0  0  0  0
   45.8292   36.1772   41.9889 H   0  0  0  0  0  0  0  0  0  0  0  0
   43.8446   35.8907   45.7476 H   0  0  0  0  0  0  0  0  0  0  0  0
   47.0827   31.6003   38.5050 H   0  0  0  0  0  0  0  0  0  0  0  0
   46.5453   31.2655   40.2073 H   0  0  0  0  0  0  0  0  0  0  0  0
   45.0545   33.1346   40.2113 H   0  0  0  0  0  0  0  0  0  0  0  0
   45.7405   33.8562   38.7730 H   0  0  0  0  0  0  0  0  0  0  0  0
   43.6990   30.8544   40.0360 H   0  0  0  0  0  0  0  0  0  0  0  0
   43.7449   31.2620   33.5185 H   0  0  0  0  0  0  0  0  0  0  0  0
   46.0826   33.7847   33.7760 H   0  0  0  0  0  0  0  0  0  0  0  0
   45.0680   32.7409   32.7445 H   0  0  0  0  0  0  0  0  0  0  0  0
  1  6  1  0
  1  7  1  0
  2  1  1  0
  3  4  1  0
  3  2  1  0
  4  5  1  0
  5  6  1  0
  7  8  1  0
  8 10  1  0
  9 14  2  0
 10  9  1  0
 11 10  2  0
 11 12  1  0
 12 13  2  0
 13 14  1  0
 15  6  1  0
 16 15  1  0
 17 18  1  0
 17 16  1  0
 19 18  2  0
 20 27  2  0
 20 19  1  0
 21 20  1  0
 22 21  2  0
 23 24  1  0
 23 21  1  0
 24 26  2  0
 25 24  1  0
 26 27  1  0
 27 17  1  0
  1 28  1  6
  2 29  1  0
  2 30  1  0
  3 31  1  0
  3 32  1  0
  4 33  1  0
  4 34  1  0
  5 35  1  0
  5 36  1  0
  6 37  1  1
  7 38  1  0
  7 39  1  0
  8 40  1  0
  8 41  1  0
  9 42  1  0
 11 43  1  0
 13 44  1  0
 15 45  1  0
 15 46  1  0
 16 47  1  0
 16 48  1  0
 18 49  1  0
 23 50  1  0
 25 51  1  0
 25 52  1  0
M  ISO  8  28  13  29  13  30  13  31  13  32  13  33  13  34  13  35  13
M  ISO  8  36  13  37  13  38   8  39   8  40   8  41   8  42  14  43  14
M  ISO  7  44  14  45   8  46   8  47   8  48   8  49  14  50   9
M  END
>  <minimizedAffinity>  (1) 
-6.08113813

>  <minimizedRMSD>  (1) 
2.3274138

$$$$
