
     RDKit          3D

 53 55  0  0  1  0  0  0  0  0999 V2000
   46.7760   34.3270   40.3160 C   0  0  1  0  0  0  0  0  0  0  0  0
   48.0050   33.8870   39.4960 C   0  0  0  0  0  0  0  0  0  0  0  0
   47.4460   33.5500   38.1160 C   0  0  0  0  0  0  0  0  0  0  0  0
   46.6160   32.3110   38.2150 C   0  0  0  0  0  0  0  0  0  0  0  0
   46.3360   31.9820   39.6540 C   0  0  0  0  0  0  0  0  0  0  0  0
   45.8320   33.2320   40.4190 C   0  0  2  0  0  0  0  0  0  0  0  0
   47.2590   34.7650   41.7210 C   0  0  0  0  0  0  0  0  0  0  0  0
   46.7360   33.7680   42.6610 C   0  0  0  0  0  0  0  0  0  0  0  0
   45.9330   33.6770   44.9310 C   0  0  0  0  0  0  0  0  0  0  0  0
   45.9820   34.3840   43.7280 C   0  0  0  0  0  0  0  0  0  0  0  0
   45.3190   35.5470   43.5520 C   0  0  0  0  0  0  0  0  0  0  0  0
   44.5920   36.0100   44.6060 N   0  0  0  0  0  0  0  0  0  0  0  0
   44.5190   35.3580   45.7830 C   0  0  0  0  0  0  0  0  0  0  0  0
   45.1880   34.1940   45.9460 N   0  0  0  0  0  0  0  0  0  0  0  0
   44.5230   33.5480   39.7490 C   0  0  0  0  0  0  0  0  0  0  0  0
   43.6870   34.5170   40.5750 C   0  0  0  0  0  0  0  0  0  0  0  0
   42.2840   34.5070   40.0940 N   0  0  0  0  0  0  0  0  0  0  0  0
   42.2460   34.8990   38.7250 C   0  0  0  0  0  0  0  0  0  0  0  0
   40.8540   35.2980   38.2820 C   0  0  0  0  0  0  0  0  0  0  0  0
   39.8920   34.9600   39.3990 C   0  0  0  0  0  0  0  0  0  0  0  0
   40.2590   35.8680   40.5510 C   0  0  0  0  0  0  0  0  0  0  0  0
   41.6530   35.5120   40.9680 C   0  0  0  0  0  0  0  0  0  0  0  0
   46.2682   35.1679   39.8210 H   0  0  0  0  0  0  0  0  0  0  0  0
   48.7395   34.7030   39.4288 H   0  0  0  0  0  0  0  0  0  0  0  0
   48.5287   33.0348   39.9536 H   0  0  0  0  0  0  0  0  0  0  0  0
   48.2755   33.3828   37.4131 H   0  0  0  0  0  0  0  0  0  0  0  0
   46.8267   34.3834   37.7529 H   0  0  0  0  0  0  0  0  0  0  0  0
   45.6638   32.4694   37.6875 H   0  0  0  0  0  0  0  0  0  0  0  0
   47.1665   31.4752   37.7584 H   0  0  0  0  0  0  0  0  0  0  0  0
   45.5671   31.1967   39.7009 H   0  0  0  0  0  0  0  0  0  0  0  0
   47.2685   31.6351   40.1231 H   0  0  0  0  0  0  0  0  0  0  0  0
   45.7184   33.0619   41.4998 H   0  0  0  0  0  0  0  0  0  0  0  0
   48.3582   34.7844   41.7578 H   0  0  0  0  0  0  0  0  0  0  0  0
   46.9049   35.7762   41.9701 H   0  0  0  0  0  0  0  0  0  0  0  0
   46.0800   33.0735   42.1157 H   0  0  0  0  0  0  0  0  0  0  0  0
   47.5894   33.2360   43.1068 H   0  0  0  0  0  0  0  0  0  0  0  0
   46.4800   32.7307   45.0547 H   0  0  0  0  0  0  0  0  0  0  0  0
   45.3642   36.0958   42.5998 H   0  0  0  0  0  0  0  0  0  0  0  0
   43.9183   35.7704   46.6071 H   0  0  0  0  0  0  0  0  0  0  0  0
   44.7252   33.9995   38.7665 H   0  0  0  0  0  0  0  0  0  0  0  0
   43.9569   32.6108   39.6430 H   0  0  0  0  0  0  0  0  0  0  0  0
   43.7129   34.2125   41.6317 H   0  0  0  0  0  0  0  0  0  0  0  0
   44.0991   35.5316   40.4713 H   0  0  0  0  0  0  0  0  0  0  0  0
   42.9219   35.7552   38.5829 H   0  0  0  0  0  0  0  0  0  0  0  0
   42.5589   34.0365   38.1182 H   0  0  0  0  0  0  0  0  0  0  0  0
   40.8230   36.3783   38.0770 H   0  0  0  0  0  0  0  0  0  0  0  0
   40.5768   34.7597   37.3636 H   0  0  0  0  0  0  0  0  0  0  0  0
   38.8556   35.1457   39.0806 H   0  0  0  0  0  0  0  0  0  0  0  0
   39.9597   33.8995   39.6832 H   0  0  0  0  0  0  0  0  0  0  0  0
   40.2184   36.9194   40.2301 H   0  0  0  0  0  0  0  0  0  0  0  0
   39.5564   35.7411   41.3878 H   0  0  0  0  0  0  0  0  0  0  0  0
   41.6198   35.1124   41.9923 H   0  0  0  0  0  0  0  0  0  0  0  0
   42.2575   36.4285   40.9002 H   0  0  0  0  0  0  0  0  0  0  0  0
  1  6  1  0
  1  7  1  0
  2  1  1  0
  3  4  1  0
  3  2  1  0
  4  5  1  0
  5  6  1  0
  7  8  1  0
  8 10  1  0
  9 14  2  0
 10  9  1  0
 11 10  2  0
 11 12  1  0
 12 13  2  0
 13 14  1  0
 15  6  1  0
 15 16  1  0
 17 16  1  0
 17 22  1  0
 18 17  1  0
 19 18  1  0
 19 20  1  0
 20 21  1  0
 21 22  1  0
  1 23  1  6
  2 24  1  0
  2 25  1  0
  3 26  1  0
  3 27  1  0
  4 28  1  0
  4 29  1  0
  5 30  1  0
  5 31  1  0
  6 32  1  1
  7 33  1  0
  7 34  1  0
  8 35  1  0
  8 36  1  0
  9 37  1  0
 11 38  1  0
 13 39  1  0
 15 40  1  0
 15 41  1  0
 16 42  1  0
 16 43  1  0
 18 44  1  0
 18 45  1  0
 19 46  1  0
 19 47  1  0
 20 48  1  0
 20 49  1  0
 21 50  1  0
 21 51  1  0
 22 52  1  0
 22 53  1  0
M  ISO  8  23  13  24  13  25  13  26  13  27  13  28  13  29  13  30  13
M  ISO  8  31  13  32  13  33   8  34   8  35   8  36   8  37  14  38  14
M  ISO  8  39  14  40   8  41   8  42   8  43   8  44  13  45  13  46  13
M  ISO  7  47  13  48  13  49  13  50  13  51  13  52  13  53  13
M  END
>  <minimizedAffinity>  (1) 
-5.49879217

>  <minimizedRMSD>  (1) 
1.96534109

$$$$
