
     RDKit          3D

 51 54  0  0  1  0  0  0  0  0999 V2000
   47.2100   34.3110   40.2740 C   0  0  1  0  0  0  0  0  0  0  0  0
   48.3600   34.4030   39.2610 C   0  0  0  0  0  0  0  0  0  0  0  0
   47.7480   33.9720   37.9290 C   0  0  0  0  0  0  0  0  0  0  0  0
   47.4440   32.5070   37.9910 C   0  0  0  0  0  0  0  0  0  0  0  0
   47.5000   32.0100   39.4020 C   0  0  0  0  0  0  0  0  0  0  0  0
   46.7380   32.9450   40.3690 C   0  0  2  0  0  0  0  0  0  0  0  0
   47.7190   34.7930   41.6500 C   0  0  0  0  0  0  0  0  0  0  0  0
   47.2570   33.8170   42.6390 C   0  0  0  0  0  0  0  0  0  0  0  0
   46.1840   33.7310   44.7950 C   0  0  0  0  0  0  0  0  0  0  0  0
   46.3470   34.4090   43.5880 C   0  0  0  0  0  0  0  0  0  0  0  0
   45.6500   35.5300   43.3030 C   0  0  0  0  0  0  0  0  0  0  0  0
   44.7730   35.9870   44.2360 N   0  0  0  0  0  0  0  0  0  0  0  0
   44.5920   35.3490   45.4200 C   0  0  0  0  0  0  0  0  0  0  0  0
   45.2950   34.2250   45.6980 N   0  0  0  0  0  0  0  0  0  0  0  0
   45.3190   32.8010   39.9070 C   0  0  0  0  0  0  0  0  0  0  0  0
   44.4820   34.0310   40.2480 C   0  0  0  0  0  0  0  0  0  0  0  0
   43.1910   33.7690   39.5710 N   0  0  0  0  0  0  0  0  0  0  0  0
   42.8850   32.8930   38.5980 C   0  0  0  0  0  0  0  0  0  0  0  0
   41.5790   33.0220   38.3080 N   0  0  0  0  0  0  0  0  0  0  0  0
   41.0220   33.9600   39.0700 C   0  0  0  0  0  0  0  0  0  0  0  0
   39.7680   34.5310   39.2400 C   0  0  0  0  0  0  0  0  0  0  0  0
   39.5650   35.5020   40.1480 N   0  0  0  0  0  0  0  0  0  0  0  0
   40.5910   35.9400   40.9130 C   0  0  0  0  0  0  0  0  0  0  0  0
   41.8160   35.4020   40.7660 N   0  0  0  0  0  0  0  0  0  0  0  0
   42.0390   34.4370   39.8710 C   0  0  0  0  0  0  0  0  0  0  0  0
   38.7360   34.0110   38.3920 N   0  0  0  0  0  0  0  0  0  0  0  0
   46.3739   34.9453   39.9443 H   0  0  0  0  0  0  0  0  0  0  0  0
   48.7378   35.4341   39.1974 H   0  0  0  0  0  0  0  0  0  0  0  0
   49.2144   33.7720   39.5469 H   0  0  0  0  0  0  0  0  0  0  0  0
   48.4603   34.1679   37.1139 H   0  0  0  0  0  0  0  0  0  0  0  0
   46.8241   34.5385   37.7407 H   0  0  0  0  0  0  0  0  0  0  0  0
   46.4363   32.3307   37.5866 H   0  0  0  0  0  0  0  0  0  0  0  0
   48.1958   31.9662   37.3974 H   0  0  0  0  0  0  0  0  0  0  0  0
   47.0481   31.0080   39.4451 H   0  0  0  0  0  0  0  0  0  0  0  0
   48.5546   31.9810   39.7134 H   0  0  0  0  0  0  0  0  0  0  0  0
   46.8736   32.6878   41.4299 H   0  0  0  0  0  0  0  0  0  0  0  0
   48.8179   34.8418   41.6511 H   0  0  0  0  0  0  0  0  0  0  0  0
   47.3380   35.7987   41.8810 H   0  0  0  0  0  0  0  0  0  0  0  0
   46.7434   32.9963   42.1169 H   0  0  0  0  0  0  0  0  0  0  0  0
   48.1337   33.4462   43.1902 H   0  0  0  0  0  0  0  0  0  0  0  0
   46.7600   32.8192   45.0117 H   0  0  0  0  0  0  0  0  0  0  0  0
   45.7874   36.0563   42.3469 H   0  0  0  0  0  0  0  0  0  0  0  0
   43.8744   35.7446   46.1539 H   0  0  0  0  0  0  0  0  0  0  0  0
   44.8737   31.9214   40.3948 H   0  0  0  0  0  0  0  0  0  0  0  0
   45.3266   32.6863   38.8130 H   0  0  0  0  0  0  0  0  0  0  0  0
   44.3441   34.1236   41.3354 H   0  0  0  0  0  0  0  0  0  0  0  0
   44.9518   34.9719   39.9255 H   0  0  0  0  0  0  0  0  0  0  0  0
   43.5842   32.1906   38.1208 H   0  0  0  0  0  0  0  0  0  0  0  0
   40.4244   36.7352   41.6546 H   0  0  0  0  0  0  0  0  0  0  0  0
   37.7781   34.3838   38.4586 H   0  0  0  0  0  0  0  0  0  0  0  0
   38.9523   33.2646   37.7160 H   0  0  0  0  0  0  0  0  0  0  0  0
  1  6  1  0
  1  7  1  0
  2  1  1  0
  3  4  1  0
  3  2  1  0
  4  5  1  0
  5  6  1  0
  7  8  1  0
  8 10  1  0
  9 14  2  0
 10  9  1  0
 11 10  2  0
 11 12  1  0
 12 13  2  0
 13 14  1  0
 15 16  1  0
 15  6  1  0
 17 25  1  0
 17 16  1  0
 18 17  1  0
 19 18  2  0
 19 20  1  0
 20 21  2  0
 20 25  1  0
 21 22  1  0
 22 23  2  0
 24 23  1  0
 25 24  2  0
 26 21  1  0
  1 27  1  6
  2 28  1  0
  2 29  1  0
  3 30  1  0
  3 31  1  0
  4 32  1  0
  4 33  1  0
  5 34  1  0
  5 35  1  0
  6 36  1  1
  7 37  1  0
  7 38  1  0
  8 39  1  0
  8 40  1  0
  9 41  1  0
 11 42  1  0
 13 43  1  0
 15 44  1  0
 15 45  1  0
 16 46  1  0
 16 47  1  0
 18 48  1  0
 23 49  1  0
 26 50  1  0
 26 51  1  0
M  ISO  8  27  13  28  13  29  13  30  13  31  13  32  13  33  13  34  13
M  ISO  8  35  13  36  13  37   8  38   8  39   8  40   8  41  14  42  14
M  ISO  7  43  14  44   8  45   8  46   8  47   8  48  14  49  14
M  END
>  <minimizedAffinity>  (1) 
-5.86349154

>  <minimizedRMSD>  (1) 
1.4057132

$$$$
