
     RDKit          3D

 49 51  0  0  1  0  0  0  0  0999 V2000
   46.7630   34.2230   40.2770 C   0  0  1  0  0  0  0  0  0  0  0  0
   47.9930   33.9820   39.3830 C   0  0  0  0  0  0  0  0  0  0  0  0
   47.4180   33.5680   38.0310 C   0  0  0  0  0  0  0  0  0  0  0  0
   46.8300   32.1950   38.1770 C   0  0  0  0  0  0  0  0  0  0  0  0
   46.6500   31.8320   39.6150 C   0  0  0  0  0  0  0  0  0  0  0  0
   46.0080   32.9970   40.4170 C   0  0  2  0  0  0  0  0  0  0  0  0
   47.2420   34.7110   41.6620 C   0  0  0  0  0  0  0  0  0  0  0  0
   46.7650   33.7390   42.6450 C   0  0  0  0  0  0  0  0  0  0  0  0
   45.9480   33.6870   44.9090 C   0  0  0  0  0  0  0  0  0  0  0  0
   46.0000   34.3720   43.6930 C   0  0  0  0  0  0  0  0  0  0  0  0
   45.3340   35.5270   43.4910 C   0  0  0  0  0  0  0  0  0  0  0  0
   44.5970   36.0150   44.5240 N   0  0  0  0  0  0  0  0  0  0  0  0
   44.5230   35.3770   45.7200 C   0  0  0  0  0  0  0  0  0  0  0  0
   45.1960   34.2200   45.9090 N   0  0  0  0  0  0  0  0  0  0  0  0
   44.6330   33.0890   39.8160 C   0  0  0  0  0  0  0  0  0  0  0  0
   43.9000   34.3190   40.3020 C   0  0  0  0  0  0  0  0  0  0  0  0
   42.4460   34.0820   40.3640 N   0  0  0  0  0  0  0  0  0  0  0  0
   41.9740   33.1770   41.2760 C   0  0  0  0  0  0  0  0  0  0  0  0
   40.6600   32.8510   41.4500 C   0  0  0  0  0  0  0  0  0  0  0  0
   39.7440   33.4880   40.6380 C   0  0  0  0  0  0  0  0  0  0  0  0
   38.3570   33.1910   40.7700 N   0  0  0  0  0  0  0  0  0  0  0  0
   40.2280   34.3740   39.7490 N   0  0  0  0  0  0  0  0  0  0  0  0
   41.5340   34.6620   39.6130 C   0  0  0  0  0  0  0  0  0  0  0  0
   41.9220   35.4940   38.7690 O   0  0  0  0  0  0  0  0  0  0  0  0
   46.1134   34.9843   39.8204 H   0  0  0  0  0  0  0  0  0  0  0  0
   48.5875   34.9024   39.2857 H   0  0  0  0  0  0  0  0  0  0  0  0
   48.6654   33.2176   39.7996 H   0  0  0  0  0  0  0  0  0  0  0  0
   48.2165   33.5535   37.2746 H   0  0  0  0  0  0  0  0  0  0  0  0
   46.6453   34.2821   37.7099 H   0  0  0  0  0  0  0  0  0  0  0  0
   45.8512   32.1691   37.6756 H   0  0  0  0  0  0  0  0  0  0  0  0
   47.5205   31.4710   37.7198 H   0  0  0  0  0  0  0  0  0  0  0  0
   45.9977   30.9489   39.6823 H   0  0  0  0  0  0  0  0  0  0  0  0
   47.6399   31.6195   40.0452 H   0  0  0  0  0  0  0  0  0  0  0  0
   45.9858   32.8268   41.5035 H   0  0  0  0  0  0  0  0  0  0  0  0
   48.3405   34.7639   41.6850 H   0  0  0  0  0  0  0  0  0  0  0  0
   46.8516   35.7157   41.8813 H   0  0  0  0  0  0  0  0  0  0  0  0
   46.1290   32.9998   42.1360 H   0  0  0  0  0  0  0  0  0  0  0  0
   47.6408   33.2561   43.1031 H   0  0  0  0  0  0  0  0  0  0  0  0
   46.4982   32.7455   45.0534 H   0  0  0  0  0  0  0  0  0  0  0  0
   45.3851   36.0543   42.5270 H   0  0  0  0  0  0  0  0  0  0  0  0
   43.9164   35.8008   46.5339 H   0  0  0  0  0  0  0  0  0  0  0  0
   44.0582   32.1947   40.0987 H   0  0  0  0  0  0  0  0  0  0  0  0
   44.7366   33.1568   38.7230 H   0  0  0  0  0  0  0  0  0  0  0  0
   44.2643   34.5806   41.3064 H   0  0  0  0  0  0  0  0  0  0  0  0
   44.0898   35.1402   39.5952 H   0  0  0  0  0  0  0  0  0  0  0  0
   42.7110   32.6732   41.9187 H   0  0  0  0  0  0  0  0  0  0  0  0
   40.3455   32.1138   42.2034 H   0  0  0  0  0  0  0  0  0  0  0  0
   37.6694   33.6638   40.1663 H   0  0  0  0  0  0  0  0  0  0  0  0
   38.0418   32.5035   41.4692 H   0  0  0  0  0  0  0  0  0  0  0  0
  1  6  1  0
  1  7  1  0
  2  1  1  0
  3  4  1  0
  3  2  1  0
  4  5  1  0
  5  6  1  0
  7  8  1  0
  8 10  1  0
  9 14  2  0
 10  9  1  0
 11 10  2  0
 11 12  1  0
 12 13  2  0
 13 14  1  0
 15 16  1  0
 15  6  1  0
 16 17  1  0
 17 18  1  0
 18 19  2  0
 20 21  1  0
 20 19  1  0
 22 20  2  0
 23 22  1  0
 23 17  1  0
 24 23  2  0
  1 25  1  6
  2 26  1  0
  2 27  1  0
  3 28  1  0
  3 29  1  0
  4 30  1  0
  4 31  1  0
  5 32  1  0
  5 33  1  0
  6 34  1  1
  7 35  1  0
  7 36  1  0
  8 37  1  0
  8 38  1  0
  9 39  1  0
 11 40  1  0
 13 41  1  0
 15 42  1  0
 15 43  1  0
 16 44  1  0
 16 45  1  0
 18 46  1  0
 19 47  1  0
 21 48  1  0
 21 49  1  0
M  ISO  8  25  13  26  13  27  13  28  13  29  13  30  13  31  13  32  13
M  ISO  8  33  13  34  13  35   8  36   8  37   8  38   8  39  14  40  14
M  ISO  7  41  14  42   8  43   8  44   8  45   8  46  14  47  14
M  END
>  <minimizedAffinity>  (1) 
-5.612257

>  <minimizedRMSD>  (1) 
1.95195436

$$$$
