
     RDKit          3D

 46 48  0  0  1  0  0  0  0  0999 V2000
   46.7860   34.3600   40.4730 C   0  0  1  0  0  0  0  0  0  0  0  0
   47.9850   33.9300   39.6070 C   0  0  0  0  0  0  0  0  0  0  0  0
   47.3870   33.6420   38.2320 C   0  0  0  0  0  0  0  0  0  0  0  0
   46.5550   32.3990   38.3250 C   0  0  0  0  0  0  0  0  0  0  0  0
   46.2720   32.0500   39.7490 C   0  0  0  0  0  0  0  0  0  0  0  0
   45.8230   33.2820   40.5680 C   0  0  2  0  0  0  0  0  0  0  0  0
   47.3030   34.7400   41.8790 C   0  0  0  0  0  0  0  0  0  0  0  0
   46.8090   33.7100   42.7980 C   0  0  0  0  0  0  0  0  0  0  0  0
   46.0220   33.5640   45.0660 C   0  0  0  0  0  0  0  0  0  0  0  0
   46.0360   34.2870   43.8720 C   0  0  0  0  0  0  0  0  0  0  0  0
   45.3280   35.4240   43.7130 C   0  0  0  0  0  0  0  0  0  0  0  0
   44.5870   35.8540   44.7670 N   0  0  0  0  0  0  0  0  0  0  0  0
   44.5490   35.1780   45.9420 C   0  0  0  0  0  0  0  0  0  0  0  0
   45.2620   34.0390   46.0910 N   0  0  0  0  0  0  0  0  0  0  0  0
   44.5110   33.6380   39.9330 C   0  0  0  0  0  0  0  0  0  0  0  0
   43.8640   34.8440   40.6040 C   0  0  0  0  0  0  0  0  0  0  0  0
   42.4390   34.8780   40.0760 C   0  0  0  0  0  0  0  0  0  0  0  0
   41.5570   35.4930   40.9420 C   0  0  0  0  0  0  0  0  0  0  0  0
   40.2350   35.5710   40.5470 C   0  0  0  0  0  0  0  0  0  0  0  0
   39.8410   35.0610   39.3580 N   0  0  0  0  0  0  0  0  0  0  0  0
   40.7530   34.4640   38.5410 C   0  0  0  0  0  0  0  0  0  0  0  0
   42.0490   34.3770   38.9080 N   0  0  0  0  0  0  0  0  0  0  0  0
   46.2870   35.2257   40.0130 H   0  0  0  0  0  0  0  0  0  0  0  0
   48.7284   34.7384   39.5450 H   0  0  0  0  0  0  0  0  0  0  0  0
   48.5078   33.0569   40.0245 H   0  0  0  0  0  0  0  0  0  0  0  0
   48.1946   33.4938   37.5000 H   0  0  0  0  0  0  0  0  0  0  0  0
   46.7640   34.4886   37.9076 H   0  0  0  0  0  0  0  0  0  0  0  0
   45.6031   32.5631   37.7988 H   0  0  0  0  0  0  0  0  0  0  0  0
   47.1116   31.5694   37.8647 H   0  0  0  0  0  0  0  0  0  0  0  0
   45.4734   31.2941   39.7776 H   0  0  0  0  0  0  0  0  0  0  0  0
   47.2003   31.6645   40.1957 H   0  0  0  0  0  0  0  0  0  0  0  0
   45.7374   33.0865   41.6471 H   0  0  0  0  0  0  0  0  0  0  0  0
   48.4028   34.7599   41.8867 H   0  0  0  0  0  0  0  0  0  0  0  0
   46.9504   35.7389   42.1753 H   0  0  0  0  0  0  0  0  0  0  0  0
   46.1747   33.0064   42.2389 H   0  0  0  0  0  0  0  0  0  0  0  0
   47.6757   33.1928   43.2353 H   0  0  0  0  0  0  0  0  0  0  0  0
   46.6070   32.6389   45.1754 H   0  0  0  0  0  0  0  0  0  0  0  0
   45.3499   35.9821   42.7653 H   0  0  0  0  0  0  0  0  0  0  0  0
   43.9377   35.5566   46.7744 H   0  0  0  0  0  0  0  0  0  0  0  0
   44.6811   33.8704   38.8714 H   0  0  0  0  0  0  0  0  0  0  0  0
   43.8327   32.7795   40.0471 H   0  0  0  0  0  0  0  0  0  0  0  0
   43.8673   34.7247   41.6975 H   0  0  0  0  0  0  0  0  0  0  0  0
   44.4057   35.7759   40.3846 H   0  0  0  0  0  0  0  0  0  0  0  0
   41.8924   35.9036   41.9058 H   0  0  0  0  0  0  0  0  0  0  0  0
   39.4967   36.0521   41.2054 H   0  0  0  0  0  0  0  0  0  0  0  0
   40.4307   34.0495   37.5744 H   0  0  0  0  0  0  0  0  0  0  0  0
  1  6  1  0
  1  7  1  0
  2  1  1  0
  3  4  1  0
  3  2  1  0
  4  5  1  0
  5  6  1  0
  7  8  1  0
  8 10  1  0
  9 14  2  0
 10  9  1  0
 11 10  2  0
 11 12  1  0
 12 13  2  0
 13 14  1  0
 15  6  1  0
 15 16  1  0
 17 16  1  0
 17 18  2  0
 19 18  1  0
 20 19  2  0
 21 22  2  0
 21 20  1  0
 22 17  1  0
  1 23  1  6
  2 24  1  0
  2 25  1  0
  3 26  1  0
  3 27  1  0
  4 28  1  0
  4 29  1  0
  5 30  1  0
  5 31  1  0
  6 32  1  1
  7 33  1  0
  7 34  1  0
  8 35  1  0
  8 36  1  0
  9 37  1  0
 11 38  1  0
 13 39  1  0
 15 40  1  0
 15 41  1  0
 16 42  1  0
 16 43  1  0
 18 44  1  0
 19 45  1  0
 21 46  1  0
M  ISO  8  23  13  24  13  25  13  26  13  27  13  28  13  29  13  30  13
M  ISO  8  31  13  32  13  33   8  34   8  35   8  36   8  37  14  38  14
M  ISO  8  39  14  40   8  41   8  42   8  43   8  44  14  45  14  46  14
M  END
>  <minimizedAffinity>  (1) 
-5.15566826

>  <minimizedRMSD>  (1) 
2.23841786

$$$$
