
     RDKit          3D

 43 45  0  0  1  0  0  0  0  0999 V2000
   46.8800   34.3350   40.3310 C   0  0  1  0  0  0  0  0  0  0  0  0
   48.1230   34.0320   39.4780 C   0  0  0  0  0  0  0  0  0  0  0  0
   47.5750   33.7110   38.0890 C   0  0  0  0  0  0  0  0  0  0  0  0
   46.8580   32.3970   38.1500 C   0  0  0  0  0  0  0  0  0  0  0  0
   46.5950   32.0010   39.5660 C   0  0  0  0  0  0  0  0  0  0  0  0
   46.0170   33.1720   40.3950 C   0  0  2  0  0  0  0  0  0  0  0  0
   47.3340   34.7440   41.7490 C   0  0  0  0  0  0  0  0  0  0  0  0
   46.7800   33.7500   42.6720 C   0  0  0  0  0  0  0  0  0  0  0  0
   45.9510   33.6790   44.9310 C   0  0  0  0  0  0  0  0  0  0  0  0
   46.0130   34.3760   43.7250 C   0  0  0  0  0  0  0  0  0  0  0  0
   45.3510   35.5340   43.5320 C   0  0  0  0  0  0  0  0  0  0  0  0
   44.6070   36.0090   44.5670 N   0  0  0  0  0  0  0  0  0  0  0  0
   44.5210   35.3620   45.7480 C   0  0  0  0  0  0  0  0  0  0  0  0
   45.1910   34.2000   45.9330 N   0  0  0  0  0  0  0  0  0  0  0  0
   44.6910   33.4120   39.7470 C   0  0  0  0  0  0  0  0  0  0  0  0
   43.9070   34.5160   40.4450 C   0  0  0  0  0  0  0  0  0  0  0  0
   42.5800   34.4950   39.7010 C   0  0  0  0  0  0  0  0  0  0  0  0
   41.4860   33.7750   39.9070 N   0  0  0  0  0  0  0  0  0  0  0  0
   40.6000   34.0850   39.0350 O   0  0  0  0  0  0  0  0  0  0  0  0
   41.0370   35.0070   38.2140 C   0  0  0  0  0  0  0  0  0  0  0  0
   42.2880   35.2740   38.6260 N   0  0  0  0  0  0  0  0  0  0  0  0
   46.3116   35.1583   39.8739 H   0  0  0  0  0  0  0  0  0  0  0  0
   48.7888   34.9068   39.4391 H   0  0  0  0  0  0  0  0  0  0  0  0
   48.7179   33.2040   39.8909 H   0  0  0  0  0  0  0  0  0  0  0  0
   48.4042   33.6476   37.3690 H   0  0  0  0  0  0  0  0  0  0  0  0
   46.8825   34.5023   37.7661 H   0  0  0  0  0  0  0  0  0  0  0  0
   45.9002   32.4838   37.6160 H   0  0  0  0  0  0  0  0  0  0  0  0
   47.4900   31.6286   37.6808 H   0  0  0  0  0  0  0  0  0  0  0  0
   45.8748   31.1696   39.5748 H   0  0  0  0  0  0  0  0  0  0  0  0
   47.5516   31.7021   40.0195 H   0  0  0  0  0  0  0  0  0  0  0  0
   45.9298   32.9539   41.4696 H   0  0  0  0  0  0  0  0  0  0  0  0
   48.4323   34.7466   41.8093 H   0  0  0  0  0  0  0  0  0  0  0  0
   46.9831   35.7558   42.0002 H   0  0  0  0  0  0  0  0  0  0  0  0
   46.1258   33.0665   42.1109 H   0  0  0  0  0  0  0  0  0  0  0  0
   47.6155   33.2020   43.1320 H   0  0  0  0  0  0  0  0  0  0  0  0
   46.5001   32.7358   45.0687 H   0  0  0  0  0  0  0  0  0  0  0  0
   45.4100   36.0737   42.5753 H   0  0  0  0  0  0  0  0  0  0  0  0
   43.9069   35.7784   46.5601 H   0  0  0  0  0  0  0  0  0  0  0  0
   44.8551   33.7013   38.6985 H   0  0  0  0  0  0  0  0  0  0  0  0
   44.1056   32.4833   39.8162 H   0  0  0  0  0  0  0  0  0  0  0  0
   43.7681   34.2913   41.5128 H   0  0  0  0  0  0  0  0  0  0  0  0
   44.4091   35.4944   40.4206 H   0  0  0  0  0  0  0  0  0  0  0  0
   40.4976   35.4634   37.3709 H   0  0  0  0  0  0  0  0  0  0  0  0
  1  6  1  0
  1  7  1  0
  2  1  1  0
  3  4  1  0
  3  2  1  0
  4  5  1  0
  5  6  1  0
  7  8  1  0
  8 10  1  0
  9 14  2  0
 10  9  1  0
 11 10  2  0
 11 12  1  0
 12 13  2  0
 13 14  1  0
 15  6  1  0
 15 16  1  0
 17 18  2  0
 17 16  1  0
 19 18  1  0
 20 21  2  0
 20 19  1  0
 21 17  1  0
  1 22  1  6
  2 23  1  0
  2 24  1  0
  3 25  1  0
  3 26  1  0
  4 27  1  0
  4 28  1  0
  5 29  1  0
  5 30  1  0
  6 31  1  1
  7 32  1  0
  7 33  1  0
  8 34  1  0
  8 35  1  0
  9 36  1  0
 11 37  1  0
 13 38  1  0
 15 39  1  0
 15 40  1  0
 16 41  1  0
 16 42  1  0
 20 43  1  0
M  ISO  8  22  13  23  13  24  13  25  13  26  13  27  13  28  13  29  13
M  ISO  8  30  13  31  13  32   8  33   8  34   8  35   8  36  14  37  14
M  ISO  6  38  14  39   8  40   8  41   8  42   8  43  14
M  END
>  <minimizedAffinity>  (1) 
-4.80511999

>  <minimizedRMSD>  (1) 
1.82353306

$$$$
