
     RDKit          3D

 39 40  0  0  1  0  0  0  0  0999 V2000
   47.4380   34.3330   40.2270 C   0  0  1  0  0  0  0  0  0  0  0  0
   48.5580   34.7780   39.2730 C   0  0  0  0  0  0  0  0  0  0  0  0
   48.1460   34.2400   37.9060 C   0  0  0  0  0  0  0  0  0  0  0  0
   48.2640   32.7450   37.9260 C   0  0  0  0  0  0  0  0  0  0  0  0
   48.3920   32.2380   39.3260 C   0  0  0  0  0  0  0  0  0  0  0  0
   47.3580   32.8870   40.2710 C   0  0  2  0  0  0  0  0  0  0  0  0
   47.7290   34.8980   41.6340 C   0  0  0  0  0  0  0  0  0  0  0  0
   47.2470   33.9040   42.5920 C   0  0  0  0  0  0  0  0  0  0  0  0
   46.1890   33.8020   44.7520 C   0  0  0  0  0  0  0  0  0  0  0  0
   46.3240   34.4810   43.5400 C   0  0  0  0  0  0  0  0  0  0  0  0
   45.5970   35.5780   43.2480 C   0  0  0  0  0  0  0  0  0  0  0  0
   44.7120   36.0120   44.1830 N   0  0  0  0  0  0  0  0  0  0  0  0
   44.5530   35.3780   45.3730 C   0  0  0  0  0  0  0  0  0  0  0  0
   45.2900   34.2790   45.6530 N   0  0  0  0  0  0  0  0  0  0  0  0
   46.0490   32.3850   39.7280 C   0  0  0  0  0  0  0  0  0  0  0  0
   44.9660   33.4540   39.7540 C   0  0  0  0  0  0  0  0  0  0  0  0
   44.6380   33.5850   38.3680 O   0  0  0  0  0  0  0  0  0  0  0  0
   46.4720   34.7169   39.8672 H   0  0  0  0  0  0  0  0  0  0  0  0
   48.6339   35.8751   39.2503 H   0  0  0  0  0  0  0  0  0  0  0  0
   49.5429   34.4016   39.5865 H   0  0  0  0  0  0  0  0  0  0  0  0
   48.8069   34.6538   37.1301 H   0  0  0  0  0  0  0  0  0  0  0  0
   47.1093   34.5327   37.6833 H   0  0  0  0  0  0  0  0  0  0  0  0
   47.3664   32.3069   37.4651 H   0  0  0  0  0  0  0  0  0  0  0  0
   49.1647   32.4564   37.3644 H   0  0  0  0  0  0  0  0  0  0  0  0
   48.2382   31.1488   39.3251 H   0  0  0  0  0  0  0  0  0  0  0  0
   49.3968   32.4968   39.6914 H   0  0  0  0  0  0  0  0  0  0  0  0
   47.5116   32.6300   41.3295 H   0  0  0  0  0  0  0  0  0  0  0  0
   48.8098   35.0565   41.7631 H   0  0  0  0  0  0  0  0  0  0  0  0
   47.2299   35.8669   41.7831 H   0  0  0  0  0  0  0  0  0  0  0  0
   46.7376   33.0979   42.0436 H   0  0  0  0  0  0  0  0  0  0  0  0
   48.1127   33.5157   43.1486 H   0  0  0  0  0  0  0  0  0  0  0  0
   46.7917   32.9083   44.9713 H   0  0  0  0  0  0  0  0  0  0  0  0
   45.7159   36.1023   42.2883 H   0  0  0  0  0  0  0  0  0  0  0  0
   43.8269   35.7570   46.1073 H   0  0  0  0  0  0  0  0  0  0  0  0
   45.7177   31.5307   40.3366 H   0  0  0  0  0  0  0  0  0  0  0  0
   46.2089   32.0928   38.6796 H   0  0  0  0  0  0  0  0  0  0  0  0
   44.0954   33.1256   40.3407 H   0  0  0  0  0  0  0  0  0  0  0  0
   45.2863   34.3960   40.2231 H   0  0  0  0  0  0  0  0  0  0  0  0
   43.7224   33.9507   38.2787 H   0  0  0  0  0  0  0  0  0  0  0  0
  1  6  1  0
  1  7  1  0
  2  1  1  0
  3  4  1  0
  3  2  1  0
  4  5  1  0
  5  6  1  0
  7  8  1  0
  8 10  1  0
  9 14  2  0
 10  9  1  0
 11 10  2  0
 11 12  1  0
 12 13  2  0
 13 14  1  0
 15 16  1  0
 15  6  1  0
 17 16  1  0
  1 18  1  6
  2 19  1  0
  2 20  1  0
  3 21  1  0
  3 22  1  0
  4 23  1  0
  4 24  1  0
  5 25  1  0
  5 26  1  0
  6 27  1  1
  7 28  1  0
  7 29  1  0
  8 30  1  0
  8 31  1  0
  9 32  1  0
 11 33  1  0
 13 34  1  0
 15 35  1  0
 15 36  1  0
 16 37  1  0
 16 38  1  0
 17 39  1  0
M  ISO  8  18  13  19  13  20  13  21  13  22  13  23  13  24  13  25  13
M  ISO  8  26  13  27  13  28   8  29   8  30   8  31   8  32  14  33  14
M  ISO  6  34  14  35   8  36   8  37   8  38   8  39   3
M  END
>  <minimizedAffinity>  (1) 
-4.24198151

>  <minimizedRMSD>  (1) 
0.406376094

$$$$
