
     RDKit          3D

 44 46  0  0  1  0  0  0  0  0999 V2000
   46.7790   34.3900   40.5470 C   0  0  1  0  0  0  0  0  0  0  0  0
   47.9760   33.9480   39.6830 C   0  0  0  0  0  0  0  0  0  0  0  0
   47.3760   33.6840   38.3040 C   0  0  0  0  0  0  0  0  0  0  0  0
   46.5290   32.4500   38.3860 C   0  0  0  0  0  0  0  0  0  0  0  0
   46.2440   32.0910   39.8070 C   0  0  0  0  0  0  0  0  0  0  0  0
   45.8050   33.3210   40.6350 C   0  0  2  0  0  0  0  0  0  0  0  0
   47.2980   34.7640   41.9540 C   0  0  0  0  0  0  0  0  0  0  0  0
   46.8570   33.6980   42.8570 C   0  0  0  0  0  0  0  0  0  0  0  0
   46.1100   33.4780   45.1350 C   0  0  0  0  0  0  0  0  0  0  0  0
   46.0800   34.2230   43.9550 C   0  0  0  0  0  0  0  0  0  0  0  0
   45.3200   35.3310   43.8270 C   0  0  0  0  0  0  0  0  0  0  0  0
   44.5740   35.7070   44.8980 N   0  0  0  0  0  0  0  0  0  0  0  0
   44.5780   35.0100   46.0570 C   0  0  0  0  0  0  0  0  0  0  0  0
   45.3440   33.8960   46.1780 N   0  0  0  0  0  0  0  0  0  0  0  0
   44.4970   33.6990   40.0000 C   0  0  0  0  0  0  0  0  0  0  0  0
   43.8510   34.8870   40.6930 C   0  0  0  0  0  0  0  0  0  0  0  0
   42.4810   35.0340   40.0450 C   0  0  0  0  0  0  0  0  0  0  0  0
   42.4380   34.5980   38.6250 C   0  0  0  0  0  0  0  0  0  0  0  0
   40.6920   34.9040   38.1890 S   0  0  0  0  0  0  0  0  0  0  0  0
   40.3040   35.5510   39.9320 C   0  0  0  0  0  0  0  0  0  0  0  0
   41.3050   35.4750   40.5030 N   0  0  0  0  0  0  0  0  0  0  0  0
   46.2885   35.2620   40.0898 H   0  0  0  0  0  0  0  0  0  0  0  0
   48.7333   34.7442   39.6315 H   0  0  0  0  0  0  0  0  0  0  0  0
   48.4843   33.0633   40.0941 H   0  0  0  0  0  0  0  0  0  0  0  0
   48.1819   33.5336   37.5706 H   0  0  0  0  0  0  0  0  0  0  0  0
   46.7650   34.5419   37.9867 H   0  0  0  0  0  0  0  0  0  0  0  0
   45.5784   32.6306   37.8628 H   0  0  0  0  0  0  0  0  0  0  0  0
   47.0747   31.6181   37.9167 H   0  0  0  0  0  0  0  0  0  0  0  0
   45.4395   31.3412   39.8300 H   0  0  0  0  0  0  0  0  0  0  0  0
   47.1689   31.6936   40.2505 H   0  0  0  0  0  0  0  0  0  0  0  0
   45.7146   33.1159   41.7119 H   0  0  0  0  0  0  0  0  0  0  0  0
   48.3961   34.8280   41.9494 H   0  0  0  0  0  0  0  0  0  0  0  0
   46.9100   35.7423   42.2740 H   0  0  0  0  0  0  0  0  0  0  0  0
   46.2404   32.9833   42.2922 H   0  0  0  0  0  0  0  0  0  0  0  0
   47.7490   33.2043   43.2701 H   0  0  0  0  0  0  0  0  0  0  0  0
   46.7361   32.5775   45.2190 H   0  0  0  0  0  0  0  0  0  0  0  0
   45.3053   35.9079   42.8905 H   0  0  0  0  0  0  0  0  0  0  0  0
   43.9598   35.3462   46.9025 H   0  0  0  0  0  0  0  0  0  0  0  0
   44.6753   33.9566   38.9456 H   0  0  0  0  0  0  0  0  0  0  0  0
   43.8148   32.8407   40.0896 H   0  0  0  0  0  0  0  0  0  0  0  0
   43.7486   34.6951   41.7713 H   0  0  0  0  0  0  0  0  0  0  0  0
   44.4544   35.8008   40.5882 H   0  0  0  0  0  0  0  0  0  0  0  0
   43.2480   34.1954   37.9991 H   0  0  0  0  0  0  0  0  0  0  0  0
   39.3393   35.9171   40.3133 H   0  0  0  0  0  0  0  0  0  0  0  0
  1  6  1  0
  1  7  1  0
  2  1  1  0
  3  4  1  0
  3  2  1  0
  4  5  1  0
  5  6  1  0
  7  8  1  0
  8 10  1  0
  9 14  2  0
 10  9  1  0
 11 10  2  0
 11 12  1  0
 12 13  2  0
 13 14  1  0
 15  6  1  0
 15 16  1  0
 17 21  1  0
 17 16  1  0
 18 17  2  0
 19 18  1  0
 19 20  1  0
 20 21  2  0
  1 22  1  6
  2 23  1  0
  2 24  1  0
  3 25  1  0
  3 26  1  0
  4 27  1  0
  4 28  1  0
  5 29  1  0
  5 30  1  0
  6 31  1  1
  7 32  1  0
  7 33  1  0
  8 34  1  0
  8 35  1  0
  9 36  1  0
 11 37  1  0
 13 38  1  0
 15 39  1  0
 15 40  1  0
 16 41  1  0
 16 42  1  0
 18 43  1  0
 20 44  1  0
M  ISO  8  22  13  23  13  24  13  25  13  26  13  27  13  28  13  29  13
M  ISO  8  30  13  31  13  32   8  33   8  34   8  35   8  36  14  37  14
M  ISO  7  38  14  39   8  40   8  41   8  42   8  43  14  44  14
M  END
>  <minimizedAffinity>  (1) 
-4.87492514

>  <minimizedRMSD>  (1) 
2.15352297

$$$$
