
     RDKit          3D

 44 46  0  0  1  0  0  0  0  0999 V2000
   47.0150   34.3950   40.2920 C   0  0  1  0  0  0  0  0  0  0  0  0
   48.2990   34.2760   39.4570 C   0  0  0  0  0  0  0  0  0  0  0  0
   47.8210   33.9450   38.0480 C   0  0  0  0  0  0  0  0  0  0  0  0
   47.2580   32.5550   38.0430 C   0  0  0  0  0  0  0  0  0  0  0  0
   47.0220   32.0720   39.4390 C   0  0  0  0  0  0  0  0  0  0  0  0
   46.2970   33.1340   40.2980 C   0  0  2  0  0  0  0  0  0  0  0  0
   47.3940   34.7970   41.7350 C   0  0  0  0  0  0  0  0  0  0  0  0
   46.8160   33.7840   42.6190 C   0  0  0  0  0  0  0  0  0  0  0  0
   46.0000   33.6820   44.8800 C   0  0  0  0  0  0  0  0  0  0  0  0
   46.0420   34.3880   43.6780 C   0  0  0  0  0  0  0  0  0  0  0  0
   45.3550   35.5340   43.4940 C   0  0  0  0  0  0  0  0  0  0  0  0
   44.6070   35.9910   44.5340 N   0  0  0  0  0  0  0  0  0  0  0  0
   44.5420   35.3290   45.7170 C   0  0  0  0  0  0  0  0  0  0  0  0
   45.2350   34.1810   45.8890 N   0  0  0  0  0  0  0  0  0  0  0  0
   44.9600   33.2510   39.6260 C   0  0  0  0  0  0  0  0  0  0  0  0
   44.0240   34.1990   40.3660 C   0  0  0  0  0  0  0  0  0  0  0  0
   42.8150   34.1750   39.5030 N   0  0  0  0  0  0  0  0  0  0  0  0
   42.2420   33.1320   38.8710 C   0  0  0  0  0  0  0  0  0  0  0  0
   41.1660   33.5880   38.2080 N   0  0  0  0  0  0  0  0  0  0  0  0
   41.0670   34.9060   38.4250 C   0  0  0  0  0  0  0  0  0  0  0  0
   42.0830   35.2660   39.2220 N   0  0  0  0  0  0  0  0  0  0  0  0
   46.3603   35.1614   39.8515 H   0  0  0  0  0  0  0  0  0  0  0  0
   48.8547   35.2253   39.4642 H   0  0  0  0  0  0  0  0  0  0  0  0
   48.9814   33.5098   39.8535 H   0  0  0  0  0  0  0  0  0  0  0  0
   47.0426   34.6603   37.7440 H   0  0  0  0  0  0  0  0  0  0  0  0
   48.6627   34.0100   37.3428 H   0  0  0  0  0  0  0  0  0  0  0  0
   46.3041   32.5543   37.4951 H   0  0  0  0  0  0  0  0  0  0  0  0
   47.9804   31.8839   37.5553 H   0  0  0  0  0  0  0  0  0  0  0  0
   46.4049   31.1622   39.4017 H   0  0  0  0  0  0  0  0  0  0  0  0
   47.9994   31.8675   39.9004 H   0  0  0  0  0  0  0  0  0  0  0  0
   46.2202   32.8596   41.3604 H   0  0  0  0  0  0  0  0  0  0  0  0
   48.4880   34.8188   41.8476 H   0  0  0  0  0  0  0  0  0  0  0  0
   47.0131   35.7995   41.9796 H   0  0  0  0  0  0  0  0  0  0  0  0
   46.1620   33.1252   42.0288 H   0  0  0  0  0  0  0  0  0  0  0  0
   47.6381   33.2122   43.0742 H   0  0  0  0  0  0  0  0  0  0  0  0
   46.5685   32.7492   45.0088 H   0  0  0  0  0  0  0  0  0  0  0  0
   45.3980   36.0784   42.5391 H   0  0  0  0  0  0  0  0  0  0  0  0
   43.9251   35.7267   46.5363 H   0  0  0  0  0  0  0  0  0  0  0  0
   45.1094   33.6276   38.6033 H   0  0  0  0  0  0  0  0  0  0  0  0
   44.4960   32.2537   39.6220 H   0  0  0  0  0  0  0  0  0  0  0  0
   43.8001   33.8306   41.3780 H   0  0  0  0  0  0  0  0  0  0  0  0
   44.4410   35.2056   40.5175 H   0  0  0  0  0  0  0  0  0  0  0  0
   42.5935   32.0899   38.8938 H   0  0  0  0  0  0  0  0  0  0  0  0
   40.2912   35.5733   38.0216 H   0  0  0  0  0  0  0  0  0  0  0  0
  1  6  1  0
  1  7  1  0
  2  1  1  0
  3  2  1  0
  4  3  1  0
  4  5  1  0
  5  6  1  0
  7  8  1  0
  8 10  1  0
  9 14  2  0
 10  9  1  0
 11 10  2  0
 11 12  1  0
 12 13  2  0
 13 14  1  0
 15  6  1  0
 15 16  1  0
 17 16  1  0
 18 17  1  0
 19 20  1  0
 19 18  2  0
 20 21  2  0
 21 17  1  0
  1 22  1  6
  2 23  1  0
  2 24  1  0
  3 25  1  0
  3 26  1  0
  4 27  1  0
  4 28  1  0
  5 29  1  0
  5 30  1  0
  6 31  1  1
  7 32  1  0
  7 33  1  0
  8 34  1  0
  8 35  1  0
  9 36  1  0
 11 37  1  0
 13 38  1  0
 15 39  1  0
 15 40  1  0
 16 41  1  0
 16 42  1  0
 18 43  1  0
 20 44  1  0
M  ISO  8  22  13  23  13  24  13  25  13  26  13  27  13  28  13  29  13
M  ISO  8  30  13  31  13  32   8  33   8  34   8  35   8  36  14  37  14
M  ISO  7  38  14  39   8  40   8  41   8  42   8  43  14  44  14
M  END
>  <minimizedAffinity>  (1) 
-4.75701952

>  <minimizedRMSD>  (1) 
1.55029905

$$$$
