
     RDKit          3D

 44 48  0  0  0  0  0  0  0  0999 V2000
   46.5780   32.8280   38.9340 C   0  0  0  0  0  0  0  0  0  0  0  0
   45.6960   33.1910   37.9300 C   0  0  0  0  0  0  0  0  0  0  0  0
   45.3540   32.2630   36.9610 C   0  0  0  0  0  0  0  0  0  0  0  0
   45.8840   30.9700   36.9810 C   0  0  0  0  0  0  0  0  0  0  0  0
   46.7540   30.6520   37.9940 C   0  0  0  0  0  0  0  0  0  0  0  0
   47.1410   31.5380   39.0040 C   0  0  0  0  0  0  0  0  0  0  0  0
   48.0470   31.1660   40.0360 N   0  0  0  0  0  0  0  0  0  0  0  0
   47.8790   30.6730   41.2770 C   0  0  0  0  0  0  0  0  0  0  0  0
   49.1080   30.4960   41.8440 N   0  0  0  0  0  0  0  0  0  0  0  0
   50.0360   30.8850   40.9410 C   0  0  0  0  0  0  0  0  0  0  0  0
   51.4230   30.9030   41.0260 C   0  0  0  0  0  0  0  0  0  0  0  0
   52.0260   30.5110   42.0840 O   0  0  0  0  0  0  0  0  0  0  0  0
   52.1810   31.3340   39.9990 N   0  0  0  0  0  0  0  0  0  0  0  0
   51.4810   31.7300   38.9220 C   0  0  0  0  0  0  0  0  0  0  0  0
   52.2050   32.2060   37.7780 N   0  0  0  0  0  0  0  0  0  0  0  0
   50.1540   31.7480   38.7530 N   0  0  0  0  0  0  0  0  0  0  0  0
   49.3810   31.3150   39.7850 C   0  0  0  0  0  0  0  0  0  0  0  0
   46.5890   34.4660   42.1090 N   0  0  0  0  0  0  0  0  0  0  0  0
   47.6660   35.3140   41.9990 C   0  0  0  0  0  0  0  0  0  0  0  0
   48.4210   35.3610   40.8530 C   0  0  0  0  0  0  0  0  0  0  0  0
   48.0560   34.5140   39.8000 C   0  0  0  0  0  0  0  0  0  0  0  0
   48.7250   34.5310   38.7380 O   0  0  0  0  0  0  0  0  0  0  0  0
   46.9930   33.7140   39.9810 N   0  0  0  0  0  0  0  0  0  0  0  0
   46.2740   33.6850   41.1040 C   0  0  0  0  0  0  0  0  0  0  0  0
   45.2980   32.9750   41.3170 O   0  0  0  0  0  0  0  0  0  0  0  0
   44.4990   35.8120   44.8520 C   0  0  0  0  0  0  0  0  0  0  0  0
   45.1080   35.6830   43.5750 C   0  0  0  0  0  0  0  0  0  0  0  0
   45.9700   34.6030   43.3930 C   0  0  0  0  0  0  0  0  0  0  0  0
   46.1970   33.7270   44.4180 N   0  0  0  0  0  0  0  0  0  0  0  0
   45.5820   33.9060   45.6190 C   0  0  0  0  0  0  0  0  0  0  0  0
   44.7530   34.9200   45.8430 N   0  0  0  0  0  0  0  0  0  0  0  0
   45.2717   34.2055   37.9026 H   0  0  0  0  0  0  0  0  0  0  0  0
   44.6536   32.5482   36.1622 H   0  0  0  0  0  0  0  0  0  0  0  0
   45.6132   30.2323   36.2113 H   0  0  0  0  0  0  0  0  0  0  0  0
   47.1735   29.6353   38.0123 H   0  0  0  0  0  0  0  0  0  0  0  0
   46.9133   30.4501   41.7543 H   0  0  0  0  0  0  0  0  0  0  0  0
   53.2101   31.3580   40.0360 H   0  0  0  0  0  0  0  0  0  0  0  0
   51.6953   32.5161   36.9384 H   0  0  0  0  0  0  0  0  0  0  0  0
   53.2343   32.2376   37.7965 H   0  0  0  0  0  0  0  0  0  0  0  0
   47.9275   35.9668   42.8448 H   0  0  0  0  0  0  0  0  0  0  0  0
   49.2820   36.0400   40.7656 H   0  0  0  0  0  0  0  0  0  0  0  0
   43.8102   36.6486   45.0408 H   0  0  0  0  0  0  0  0  0  0  0  0
   44.9084   36.4023   42.7671 H   0  0  0  0  0  0  0  0  0  0  0  0
   45.7774   33.1886   46.4297 H   0  0  0  0  0  0  0  0  0  0  0  0
  1  6  1  0
  1 23  1  0
  2  1  2  0
  3  4  2  0
  3  2  1  0
  4  5  1  0
  5  6  2  0
  6  7  1  0
  7  8  1  0
  8  9  2  0
 10 11  1  0
 10  9  1  0
 11 12  2  0
 13 11  1  0
 14 13  1  0
 15 14  1  0
 16 14  2  0
 16 17  1  0
 17  7  1  0
 17 10  2  0
 18 28  1  0
 19 18  1  0
 20 19  2  0
 21 23  1  0
 21 20  1  0
 22 21  2  0
 23 24  1  0
 24 25  2  0
 24 18  1  0
 26 31  2  0
 27 26  1  0
 28 27  2  0
 28 29  1  0
 29 30  2  0
 30 31  1  0
  2 32  1  0
  3 33  1  0
  4 34  1  0
  5 35  1  0
  8 36  1  0
 13 37  1  0
 15 38  1  0
 15 39  1  0
 19 40  1  0
 20 41  1  0
 26 42  1  0
 27 43  1  0
 30 44  1  0
M  ISO  8  32  14  33  14  34  14  35  14  36  14  37   9  40  14  41  14
M  ISO  3  42  14  43  14  44  14
M  END
>  <minimizedAffinity>  (1) 
-6.49866199

>  <minimizedRMSD>  (1) 
0.445045054

$$$$
