
     RDKit          3D

 41 44  0  0  0  0  0  0  0  0999 V2000
   46.4570   32.8480   38.8280 C   0  0  0  0  0  0  0  0  0  0  0  0
   45.5080   33.2130   37.8860 C   0  0  0  0  0  0  0  0  0  0  0  0
   45.1190   32.3160   36.9100 C   0  0  0  0  0  0  0  0  0  0  0  0
   45.6740   31.0350   36.8590 C   0  0  0  0  0  0  0  0  0  0  0  0
   46.6130   30.6990   37.8050 C   0  0  0  0  0  0  0  0  0  0  0  0
   47.0270   31.5850   38.8050 C   0  0  0  0  0  0  0  0  0  0  0  0
   46.5590   34.4600   42.0090 N   0  0  0  0  0  0  0  0  0  0  0  0
   47.6690   35.2630   41.8920 C   0  0  0  0  0  0  0  0  0  0  0  0
   48.4160   35.2890   40.7460 C   0  0  0  0  0  0  0  0  0  0  0  0
   48.0060   34.4650   39.6910 C   0  0  0  0  0  0  0  0  0  0  0  0
   48.6690   34.4660   38.6270 O   0  0  0  0  0  0  0  0  0  0  0  0
   46.9170   33.7040   39.8650 N   0  0  0  0  0  0  0  0  0  0  0  0
   46.2090   33.7020   40.9970 C   0  0  0  0  0  0  0  0  0  0  0  0
   45.2030   33.0290   41.2180 O   0  0  0  0  0  0  0  0  0  0  0  0
   44.5180   35.8550   44.7600 C   0  0  0  0  0  0  0  0  0  0  0  0
   45.1160   35.7000   43.4860 C   0  0  0  0  0  0  0  0  0  0  0  0
   45.9520   34.6150   43.3070 C   0  0  0  0  0  0  0  0  0  0  0  0
   46.1750   33.7460   44.3300 N   0  0  0  0  0  0  0  0  0  0  0  0
   45.5860   33.9270   45.5350 C   0  0  0  0  0  0  0  0  0  0  0  0
   44.7690   34.9600   45.7580 N   0  0  0  0  0  0  0  0  0  0  0  0
   48.0070   31.0990   39.7150 N   0  0  0  0  0  0  0  0  0  0  0  0
   47.5170   30.5490   40.8600 C   0  0  0  0  0  0  0  0  0  0  0  0
   48.3940   30.0530   41.7990 C   0  0  0  0  0  0  0  0  0  0  0  0
   49.7500   30.1020   41.6010 C   0  0  0  0  0  0  0  0  0  0  0  0
   50.7320   29.6150   42.5150 N   0  0  0  0  0  0  0  0  0  0  0  0
   50.1910   30.6570   40.4490 N   0  0  0  0  0  0  0  0  0  0  0  0
   49.3410   31.1450   39.5270 C   0  0  0  0  0  0  0  0  0  0  0  0
   49.7510   31.6580   38.4620 O   0  0  0  0  0  0  0  0  0  0  0  0
   45.0637   34.2189   37.9156 H   0  0  0  0  0  0  0  0  0  0  0  0
   44.3652   32.6132   36.1661 H   0  0  0  0  0  0  0  0  0  0  0  0
   45.3685   30.3162   36.0844 H   0  0  0  0  0  0  0  0  0  0  0  0
   47.0567   29.6929   37.7743 H   0  0  0  0  0  0  0  0  0  0  0  0
   47.9633   35.8994   42.7396 H   0  0  0  0  0  0  0  0  0  0  0  0
   49.3039   35.9321   40.6570 H   0  0  0  0  0  0  0  0  0  0  0  0
   43.8450   36.7049   44.9465 H   0  0  0  0  0  0  0  0  0  0  0  0
   44.9228   36.4143   42.6721 H   0  0  0  0  0  0  0  0  0  0  0  0
   45.7837   33.2103   46.3457 H   0  0  0  0  0  0  0  0  0  0  0  0
   46.4318   30.5013   41.0334 H   0  0  0  0  0  0  0  0  0  0  0  0
   47.9994   29.6093   42.7250 H   0  0  0  0  0  0  0  0  0  0  0  0
   51.7330   29.6926   42.2850 H   0  0  0  0  0  0  0  0  0  0  0  0
   50.4397   29.1860   43.4046 H   0  0  0  0  0  0  0  0  0  0  0  0
  1 12  1  0
  2  1  2  0
  3  2  1  0
  4  3  2  0
  4  5  1  0
  5  6  2  0
  6  1  1  0
  6 21  1  0
  7 17  1  0
  8  7  1  0
  9  8  2  0
 10 12  1  0
 10  9  1  0
 11 10  2  0
 12 13  1  0
 13 14  2  0
 13  7  1  0
 15 20  2  0
 16 15  1  0
 17 16  2  0
 17 18  1  0
 18 19  2  0
 19 20  1  0
 21 22  1  0
 22 23  2  0
 24 23  1  0
 24 25  1  0
 26 24  2  0
 27 21  1  0
 27 26  1  0
 28 27  2  0
  2 29  1  0
  3 30  1  0
  4 31  1  0
  5 32  1  0
  8 33  1  0
  9 34  1  0
 15 35  1  0
 16 36  1  0
 19 37  1  0
 22 38  1  0
 23 39  1  0
 25 40  1  0
 25 41  1  0
M  ISO  8  29  14  30  14  31  14  32  14  33  14  34  14  35  14  36  14
M  ISO  3  37  14  38  14  39  14
M  END
>  <minimizedAffinity>  (1) 
-5.47320509

>  <minimizedRMSD>  (1) 
0.632394791

$$$$
