
     RDKit          3D

 28 28  0  0  0  0  0  0  0  0999 V2000
   45.7750   34.5160   41.2800 C   0  0  0  0  0  0  0  0  0  0  0  0
   47.0570   34.8840   41.6930 C   0  0  0  0  0  0  0  0  0  0  0  0
   48.1510   34.5030   40.8910 C   0  0  0  0  0  0  0  0  0  0  0  0
   47.8950   33.7970   39.7590 N   0  0  0  0  0  0  0  0  0  0  0  0
   46.6290   33.4590   39.3900 C   0  0  0  0  0  0  0  0  0  0  0  0
   45.6080   33.8210   40.1500 N   0  0  0  0  0  0  0  0  0  0  0  0
   46.3460   32.6920   38.1590 C   0  0  0  0  0  0  0  0  0  0  0  0
   46.6610   31.2370   38.2770 C   0  0  0  0  0  0  0  0  0  0  0  0
   44.9130   32.8860   37.7860 C   0  0  0  0  0  0  0  0  0  0  0  0
   47.1940   33.3100   37.0600 C   0  0  0  0  0  0  0  0  0  0  0  0
   44.6470   34.9070   42.1050 C   0  0  0  0  0  0  0  0  0  0  0  0
   43.8040   35.7290   41.6510 O   0  0  0  0  0  0  0  0  0  0  0  0
   44.5470   34.3410   43.3900 O   0  0  0  0  0  0  0  0  0  0  0  0
   45.0940   35.0410   44.4770 C   0  0  0  0  0  0  0  0  0  0  0  0
   44.2590   35.0680   45.5810 F   0  0  0  0  0  0  0  0  0  0  0  0
   46.2970   34.4770   44.8540 F   0  0  0  0  0  0  0  0  0  0  0  0
   45.2830   36.3530   44.0530 F   0  0  0  0  0  0  0  0  0  0  0  0
   47.2089   35.4563   42.6201 H   0  0  0  0  0  0  0  0  0  0  0  0
   49.1805   34.7690   41.1728 H   0  0  0  0  0  0  0  0  0  0  0  0
   46.7210   30.9599   39.3398 H   0  0  0  0  0  0  0  0  0  0  0  0
   45.8692   30.6497   37.7890 H   0  0  0  0  0  0  0  0  0  0  0  0
   47.6248   31.0297   37.7890 H   0  0  0  0  0  0  0  0  0  0  0  0
   44.3045   32.9684   38.6986 H   0  0  0  0  0  0  0  0  0  0  0  0
   44.8100   33.8063   37.1923 H   0  0  0  0  0  0  0  0  0  0  0  0
   44.5690   32.0262   37.1923 H   0  0  0  0  0  0  0  0  0  0  0  0
   48.0048   33.9009   37.5110 H   0  0  0  0  0  0  0  0  0  0  0  0
   47.6245   32.5124   36.4367 H   0  0  0  0  0  0  0  0  0  0  0  0
   46.5666   33.9641   36.4367 H   0  0  0  0  0  0  0  0  0  0  0  0
  1  2  2  0
  1 11  1  0
  3  2  1  0
  4  3  2  0
  5  4  1  0
  5  6  2  0
  6  1  1  0
  7  8  1  0
  7  5  1  0
  9  7  1  0
 10  7  1  0
 11 13  1  0
 12 11  2  0
 13 14  1  0
 14 16  1  0
 14 15  1  0
 17 14  1  0
  2 18  1  0
  3 19  1  0
  8 20  1  0
  8 21  1  0
  8 22  1  0
  9 23  1  0
  9 24  1  0
  9 25  1  0
 10 26  1  0
 10 27  1  0
 10 28  1  0
M  ISO  8  18  14  19  14  20   8  21   8  22   8  23   8  24   8  25   8
M  ISO  3  26   8  27   8  28   8
M  END
>  <minimizedAffinity>  (1) 
-3.91361642

>  <minimizedRMSD>  (1) 
0.542089403

$$$$
