
     RDKit          3D

 38 41  0  0  0  0  0  0  0  0999 V2000
   46.5430   34.4590   41.9550 N   0  0  0  0  0  0  0  0  0  0  0  0
   47.6720   35.2370   41.8480 C   0  0  0  0  0  0  0  0  0  0  0  0
   48.4250   35.2480   40.6960 C   0  0  0  0  0  0  0  0  0  0  0  0
   48.0020   34.4420   39.6380 C   0  0  0  0  0  0  0  0  0  0  0  0
   48.6630   34.4280   38.5760 O   0  0  0  0  0  0  0  0  0  0  0  0
   46.8910   33.7080   39.8120 N   0  0  0  0  0  0  0  0  0  0  0  0
   46.1740   33.7120   40.9410 C   0  0  0  0  0  0  0  0  0  0  0  0
   45.1560   33.0650   41.1520 O   0  0  0  0  0  0  0  0  0  0  0  0
   46.4180   32.8650   38.7700 C   0  0  0  0  0  0  0  0  0  0  0  0
   45.4590   33.2810   37.8290 C   0  0  0  0  0  0  0  0  0  0  0  0
   45.0310   32.4370   36.8380 C   0  0  0  0  0  0  0  0  0  0  0  0
   45.5450   31.1510   36.7520 C   0  0  0  0  0  0  0  0  0  0  0  0
   46.4810   30.7700   37.6820 C   0  0  0  0  0  0  0  0  0  0  0  0
   46.9550   31.5890   38.7160 C   0  0  0  0  0  0  0  0  0  0  0  0
   47.9330   31.1600   39.6750 C   0  0  0  0  0  0  0  0  0  0  0  0
   49.2870   31.1860   39.4310 C   0  0  0  0  0  0  0  0  0  0  0  0
   50.2590   30.7850   40.3190 C   0  0  0  0  0  0  0  0  0  0  0  0
   49.8440   30.3260   41.5360 N   0  0  0  0  0  0  0  0  0  0  0  0
   48.5200   30.2900   41.8040 C   0  0  0  0  0  0  0  0  0  0  0  0
   47.6360   30.6950   40.8920 N   0  0  0  0  0  0  0  0  0  0  0  0
   44.5320   35.8630   44.7220 C   0  0  0  0  0  0  0  0  0  0  0  0
   45.1190   35.7030   43.4480 C   0  0  0  0  0  0  0  0  0  0  0  0
   45.9470   34.6220   43.2400 C   0  0  0  0  0  0  0  0  0  0  0  0
   46.1750   33.7370   44.2770 N   0  0  0  0  0  0  0  0  0  0  0  0
   45.5950   33.9250   45.4810 C   0  0  0  0  0  0  0  0  0  0  0  0
   44.7800   34.9730   45.7120 N   0  0  0  0  0  0  0  0  0  0  0  0
   47.9790   35.8623   42.6993 H   0  0  0  0  0  0  0  0  0  0  0  0
   49.3283   35.8701   40.6121 H   0  0  0  0  0  0  0  0  0  0  0  0
   45.0465   34.2989   37.8895 H   0  0  0  0  0  0  0  0  0  0  0  0
   44.2800   32.7789   36.1107 H   0  0  0  0  0  0  0  0  0  0  0  0
   45.2134   30.4588   35.9641 H   0  0  0  0  0  0  0  0  0  0  0  0
   46.8873   29.7503   37.6104 H   0  0  0  0  0  0  0  0  0  0  0  0
   49.6184   31.5562   38.4496 H   0  0  0  0  0  0  0  0  0  0  0  0
   51.3267   30.8324   40.0588 H   0  0  0  0  0  0  0  0  0  0  0  0
   48.1696   29.9243   42.7805 H   0  0  0  0  0  0  0  0  0  0  0  0
   43.8671   36.7184   44.9122 H   0  0  0  0  0  0  0  0  0  0  0  0
   44.9200   36.4239   42.6413 H   0  0  0  0  0  0  0  0  0  0  0  0
   45.7918   33.2074   46.2911 H   0  0  0  0  0  0  0  0  0  0  0  0
  1 23  1  0
  2  1  1  0
  3  2  2  0
  4  6  1  0
  4  3  1  0
  5  4  2  0
  6  7  1  0
  7  8  2  0
  7  1  1  0
  9  6  1  0
 10  9  2  0
 11 10  1  0
 12 11  2  0
 12 13  1  0
 13 14  2  0
 14  9  1  0
 14 15  1  0
 15 20  1  0
 16 15  2  0
 16 17  1  0
 17 18  2  0
 18 19  1  0
 20 19  2  0
 21 26  2  0
 22 21  1  0
 23 22  2  0
 23 24  1  0
 24 25  2  0
 25 26  1  0
  2 27  1  0
  3 28  1  0
 10 29  1  0
 11 30  1  0
 12 31  1  0
 13 32  1  0
 16 33  1  0
 17 34  1  0
 19 35  1  0
 21 36  1  0
 22 37  1  0
 25 38  1  0
M  ISO  8  27  14  28  14  29  14  30  14  31  14  32  14  33  14  34  14
M  ISO  4  35  14  36  14  37  14  38  14
M  END
>  <minimizedAffinity>  (1) 
-5.33194399

>  <minimizedRMSD>  (1) 
0.535417616

$$$$
