
     RDKit          3D

 37 40  0  0  0  0  0  0  0  0999 V2000
   46.5310   34.4570   41.9680 N   0  0  0  0  0  0  0  0  0  0  0  0
   47.6640   35.2260   41.8590 C   0  0  0  0  0  0  0  0  0  0  0  0
   48.4260   35.2360   40.7130 C   0  0  0  0  0  0  0  0  0  0  0  0
   47.9970   34.4250   39.6500 C   0  0  0  0  0  0  0  0  0  0  0  0
   48.6620   34.4060   38.5880 O   0  0  0  0  0  0  0  0  0  0  0  0
   46.8800   33.6990   39.8220 N   0  0  0  0  0  0  0  0  0  0  0  0
   46.1640   33.7130   40.9490 C   0  0  0  0  0  0  0  0  0  0  0  0
   45.1360   33.0700   41.1610 O   0  0  0  0  0  0  0  0  0  0  0  0
   46.4040   32.8620   38.7860 C   0  0  0  0  0  0  0  0  0  0  0  0
   45.4430   33.2470   37.8650 C   0  0  0  0  0  0  0  0  0  0  0  0
   44.9920   32.4300   36.8670 C   0  0  0  0  0  0  0  0  0  0  0  0
   45.5150   31.1490   36.7580 C   0  0  0  0  0  0  0  0  0  0  0  0
   46.4660   30.7740   37.6730 C   0  0  0  0  0  0  0  0  0  0  0  0
   46.9370   31.6000   38.7020 C   0  0  0  0  0  0  0  0  0  0  0  0
   47.9280   31.0350   39.5820 C   0  0  0  0  0  0  0  0  0  0  0  0
   49.2820   31.0000   39.4440 C   0  0  0  0  0  0  0  0  0  0  0  0
   50.0030   30.3970   40.4340 C   0  0  0  0  0  0  0  0  0  0  0  0
   49.3250   29.8480   41.5380 C   0  0  0  0  0  0  0  0  0  0  0  0
   47.5710   30.2250   41.1160 S   0  0  0  0  0  0  0  0  0  0  0  0
   44.5270   35.8690   44.7300 C   0  0  0  0  0  0  0  0  0  0  0  0
   45.1110   35.7170   43.4420 C   0  0  0  0  0  0  0  0  0  0  0  0
   45.9370   34.6250   43.2500 C   0  0  0  0  0  0  0  0  0  0  0  0
   46.1650   33.7420   44.2870 N   0  0  0  0  0  0  0  0  0  0  0  0
   45.5830   33.9330   45.4980 C   0  0  0  0  0  0  0  0  0  0  0  0
   44.7720   34.9840   45.7230 N   0  0  0  0  0  0  0  0  0  0  0  0
   47.9706   35.8508   42.7108 H   0  0  0  0  0  0  0  0  0  0  0  0
   49.3329   35.8533   40.6331 H   0  0  0  0  0  0  0  0  0  0  0  0
   45.0224   34.2605   37.9411 H   0  0  0  0  0  0  0  0  0  0  0  0
   44.2259   32.7822   36.1605 H   0  0  0  0  0  0  0  0  0  0  0  0
   45.1798   30.4607   35.9681 H   0  0  0  0  0  0  0  0  0  0  0  0
   46.8854   29.7602   37.5937 H   0  0  0  0  0  0  0  0  0  0  0  0
   49.7771   31.4416   38.5666 H   0  0  0  0  0  0  0  0  0  0  0  0
   51.0997   30.3410   40.3695 H   0  0  0  0  0  0  0  0  0  0  0  0
   49.7334   29.3311   42.4189 H   0  0  0  0  0  0  0  0  0  0  0  0
   43.8623   36.7241   44.9225 H   0  0  0  0  0  0  0  0  0  0  0  0
   44.9141   36.4369   42.6339 H   0  0  0  0  0  0  0  0  0  0  0  0
   45.7772   33.2167   46.3099 H   0  0  0  0  0  0  0  0  0  0  0  0
  1 22  1  0
  2  1  1  0
  3  2  2  0
  4  6  1  0
  4  3  1  0
  5  4  2  0
  6  7  1  0
  7  8  2  0
  7  1  1  0
  9  6  1  0
 10  9  2  0
 11 10  1  0
 12 11  2  0
 12 13  1  0
 13 14  2  0
 14  9  1  0
 14 15  1  0
 15 19  1  0
 16 15  2  0
 16 17  1  0
 17 18  2  0
 19 18  1  0
 20 25  2  0
 21 20  1  0
 22 21  2  0
 22 23  1  0
 23 24  2  0
 24 25  1  0
  2 26  1  0
  3 27  1  0
 10 28  1  0
 11 29  1  0
 12 30  1  0
 13 31  1  0
 16 32  1  0
 17 33  1  0
 18 34  1  0
 20 35  1  0
 21 36  1  0
 24 37  1  0
M  ISO  8  26  14  27  14  28  14  29  14  30  14  31  14  32  14  33  14
M  ISO  4  34  14  35  14  36  14  37  14
M  END
>  <minimizedAffinity>  (1) 
-5.21858358

>  <minimizedRMSD>  (1) 
0.411905199

$$$$
