
     RDKit          3D

 43 46  0  0  0  0  0  0  0  0999 V2000
   46.5540   34.4460   41.9540 N   0  0  0  0  0  0  0  0  0  0  0  0
   47.6880   35.2140   41.8500 C   0  0  0  0  0  0  0  0  0  0  0  0
   48.4340   35.2270   40.6980 C   0  0  0  0  0  0  0  0  0  0  0  0
   47.9940   34.4280   39.6280 C   0  0  0  0  0  0  0  0  0  0  0  0
   48.6490   34.4160   38.5640 O   0  0  0  0  0  0  0  0  0  0  0  0
   46.8760   33.7050   39.8070 N   0  0  0  0  0  0  0  0  0  0  0  0
   46.1700   33.7110   40.9380 C   0  0  0  0  0  0  0  0  0  0  0  0
   45.1460   33.0730   41.1520 O   0  0  0  0  0  0  0  0  0  0  0  0
   46.3850   32.8770   38.7550 C   0  0  0  0  0  0  0  0  0  0  0  0
   45.4290   33.2760   37.8340 C   0  0  0  0  0  0  0  0  0  0  0  0
   45.0090   32.4120   36.8480 C   0  0  0  0  0  0  0  0  0  0  0  0
   45.5380   31.1230   36.7590 C   0  0  0  0  0  0  0  0  0  0  0  0
   46.4850   30.7530   37.6850 C   0  0  0  0  0  0  0  0  0  0  0  0
   46.9420   31.5930   38.7030 C   0  0  0  0  0  0  0  0  0  0  0  0
   47.9690   31.1390   39.6770 C   0  0  0  0  0  0  0  0  0  0  0  0
   49.2870   30.8200   39.0270 C   0  0  0  0  0  0  0  0  0  0  0  0
   49.7540   29.5480   39.7130 C   0  0  0  0  0  0  0  0  0  0  0  0
   48.4400   28.8110   39.9220 C   0  0  0  0  0  0  0  0  0  0  0  0
   47.5660   29.9370   40.4690 C   0  0  0  0  0  0  0  0  0  0  0  0
   44.5290   35.8680   44.7160 C   0  0  0  0  0  0  0  0  0  0  0  0
   45.1220   35.7070   43.4340 C   0  0  0  0  0  0  0  0  0  0  0  0
   45.9570   34.6050   43.2520 C   0  0  0  0  0  0  0  0  0  0  0  0
   46.1780   33.7290   44.2810 N   0  0  0  0  0  0  0  0  0  0  0  0
   45.5880   33.9270   45.4880 C   0  0  0  0  0  0  0  0  0  0  0  0
   44.7740   34.9780   45.7100 N   0  0  0  0  0  0  0  0  0  0  0  0
   48.0039   35.8296   42.7052 H   0  0  0  0  0  0  0  0  0  0  0  0
   49.3433   35.8404   40.6148 H   0  0  0  0  0  0  0  0  0  0  0  0
   45.0035   34.2888   37.8913 H   0  0  0  0  0  0  0  0  0  0  0  0
   44.2494   32.7403   36.1233 H   0  0  0  0  0  0  0  0  0  0  0  0
   45.2082   30.4264   35.9741 H   0  0  0  0  0  0  0  0  0  0  0  0
   46.9061   29.7388   37.6203 H   0  0  0  0  0  0  0  0  0  0  0  0
   48.0709   32.0007   40.3531 H   0  0  0  0  0  0  0  0  0  0  0  0
   49.1575   30.6540   37.9473 H   0  0  0  0  0  0  0  0  0  0  0  0
   50.0126   31.6403   39.1301 H   0  0  0  0  0  0  0  0  0  0  0  0
   50.4381   28.9739   39.0708 H   0  0  0  0  0  0  0  0  0  0  0  0
   50.3208   29.7223   40.6395 H   0  0  0  0  0  0  0  0  0  0  0  0
   48.0436   28.4136   38.9760 H   0  0  0  0  0  0  0  0  0  0  0  0
   48.5106   27.9296   40.5764 H   0  0  0  0  0  0  0  0  0  0  0  0
   47.7592   30.0942   41.5404 H   0  0  0  0  0  0  0  0  0  0  0  0
   46.4923   29.7160   40.3783 H   0  0  0  0  0  0  0  0  0  0  0  0
   43.8641   36.7239   44.9040 H   0  0  0  0  0  0  0  0  0  0  0  0
   44.9303   36.4215   42.6199 H   0  0  0  0  0  0  0  0  0  0  0  0
   45.7788   33.2134   46.3031 H   0  0  0  0  0  0  0  0  0  0  0  0
  1 22  1  0
  2  1  1  0
  3  2  2  0
  4  6  1  0
  4  3  1  0
  5  4  2  0
  6  7  1  0
  7  8  2  0
  7  1  1  0
  9  6  1  0
 10  9  2  0
 11 10  1  0
 12 11  2  0
 12 13  1  0
 13 14  2  0
 14  9  1  0
 14 15  1  0
 15 19  1  0
 16 15  1  0
 16 17  1  0
 17 18  1  0
 18 19  1  0
 20 25  2  0
 21 20  1  0
 22 21  2  0
 22 23  1  0
 23 24  2  0
 24 25  1  0
  2 26  1  0
  3 27  1  0
 10 28  1  0
 11 29  1  0
 12 30  1  0
 13 31  1  0
 15 32  1  0
 16 33  1  0
 16 34  1  0
 17 35  1  0
 17 36  1  0
 18 37  1  0
 18 38  1  0
 19 39  1  0
 19 40  1  0
 20 41  1  0
 21 42  1  0
 24 43  1  0
M  ISO  8  26  14  27  14  28  14  29  14  30  14  31  14  32  13  33  13
M  ISO  8  34  13  35  13  36  13  37  13  38  13  39  13  40  13  41  14
M  ISO  2  42  14  43  14
M  END
>  <minimizedAffinity>  (1) 
-5.12031031

>  <minimizedRMSD>  (1) 
1.03150678

$$$$
