
     RDKit          3D

 33 35  0  0  0  0  0  0  0  0999 V2000
   46.5320   34.4560   41.9480 N   0  0  0  0  0  0  0  0  0  0  0  0
   47.6710   35.2220   41.8530 C   0  0  0  0  0  0  0  0  0  0  0  0
   48.4270   35.2270   40.7020 C   0  0  0  0  0  0  0  0  0  0  0  0
   47.9980   34.4300   39.6380 C   0  0  0  0  0  0  0  0  0  0  0  0
   48.6680   34.4110   38.5710 O   0  0  0  0  0  0  0  0  0  0  0  0
   46.8920   33.7180   39.7990 N   0  0  0  0  0  0  0  0  0  0  0  0
   46.1590   33.7190   40.9300 C   0  0  0  0  0  0  0  0  0  0  0  0
   45.1300   33.0830   41.1380 O   0  0  0  0  0  0  0  0  0  0  0  0
   46.3990   32.8800   38.7510 C   0  0  0  0  0  0  0  0  0  0  0  0
   45.4420   33.2770   37.8310 C   0  0  0  0  0  0  0  0  0  0  0  0
   45.0070   32.4290   36.8470 C   0  0  0  0  0  0  0  0  0  0  0  0
   45.5180   31.1440   36.7450 C   0  0  0  0  0  0  0  0  0  0  0  0
   46.4640   30.7780   37.6690 C   0  0  0  0  0  0  0  0  0  0  0  0
   46.9600   31.5930   38.7090 C   0  0  0  0  0  0  0  0  0  0  0  0
   47.9740   31.0560   39.6210 C   0  0  0  0  0  0  0  0  0  0  0  0
   47.6470   31.3940   40.9420 F   0  0  0  0  0  0  0  0  0  0  0  0
   49.2120   31.6710   39.3950 F   0  0  0  0  0  0  0  0  0  0  0  0
   48.1040   29.7010   39.6060 F   0  0  0  0  0  0  0  0  0  0  0  0
   44.5320   35.8720   44.7230 C   0  0  0  0  0  0  0  0  0  0  0  0
   45.1170   35.7130   43.4340 C   0  0  0  0  0  0  0  0  0  0  0  0
   45.9360   34.6270   43.2420 C   0  0  0  0  0  0  0  0  0  0  0  0
   46.1730   33.7340   44.2660 N   0  0  0  0  0  0  0  0  0  0  0  0
   45.5910   33.9260   45.4840 C   0  0  0  0  0  0  0  0  0  0  0  0
   44.7870   34.9700   45.7130 N   0  0  0  0  0  0  0  0  0  0  0  0
   47.9822   35.8392   42.7087 H   0  0  0  0  0  0  0  0  0  0  0  0
   49.3382   35.8381   40.6231 H   0  0  0  0  0  0  0  0  0  0  0  0
   45.0236   34.2925   37.8919 H   0  0  0  0  0  0  0  0  0  0  0  0
   44.2451   32.7707   36.1310 H   0  0  0  0  0  0  0  0  0  0  0  0
   45.1809   30.4507   35.9603 H   0  0  0  0  0  0  0  0  0  0  0  0
   46.8719   29.7593   37.5924 H   0  0  0  0  0  0  0  0  0  0  0  0
   43.8702   36.7281   44.9209 H   0  0  0  0  0  0  0  0  0  0  0  0
   44.9207   36.4314   42.6244 H   0  0  0  0  0  0  0  0  0  0  0  0
   45.7866   33.2081   46.2942 H   0  0  0  0  0  0  0  0  0  0  0  0
  1 21  1  0
  2  1  1  0
  3  2  2  0
  4  6  1  0
  4  3  1  0
  5  4  2  0
  6  7  1  0
  7  8  2  0
  7  1  1  0
  9  6  1  0
 10  9  2  0
 11 10  1  0
 12 11  2  0
 12 13  1  0
 13 14  2  0
 14  9  1  0
 14 15  1  0
 15 16  1  0
 17 15  1  0
 18 15  1  0
 19 24  2  0
 20 19  1  0
 21 20  2  0
 21 22  1  0
 22 23  2  0
 23 24  1  0
  2 25  1  0
  3 26  1  0
 10 27  1  0
 11 28  1  0
 12 29  1  0
 13 30  1  0
 19 31  1  0
 20 32  1  0
 23 33  1  0
M  ISO  8  25  14  26  14  27  14  28  14  29  14  30  14  31  14  32  14
M  ISO  1  33  14
M  END
>  <minimizedAffinity>  (1) 
-5.16009188

>  <minimizedRMSD>  (1) 
0.42219311

$$$$
