
     RDKit          3D

 32 34  0  0  0  0  0  0  0  0999 V2000
   46.5290   34.4440   41.9690 N   0  0  0  0  0  0  0  0  0  0  0  0
   47.6700   35.2090   41.8630 C   0  0  0  0  0  0  0  0  0  0  0  0
   48.4180   35.2140   40.7140 C   0  0  0  0  0  0  0  0  0  0  0  0
   47.9810   34.4170   39.6520 C   0  0  0  0  0  0  0  0  0  0  0  0
   48.6420   34.3990   38.5860 O   0  0  0  0  0  0  0  0  0  0  0  0
   46.8690   33.7000   39.8200 N   0  0  0  0  0  0  0  0  0  0  0  0
   46.1490   33.7060   40.9490 C   0  0  0  0  0  0  0  0  0  0  0  0
   45.1200   33.0730   41.1700 O   0  0  0  0  0  0  0  0  0  0  0  0
   46.3750   32.8700   38.7740 C   0  0  0  0  0  0  0  0  0  0  0  0
   45.4360   33.2800   37.8360 C   0  0  0  0  0  0  0  0  0  0  0  0
   45.0110   32.4110   36.8550 C   0  0  0  0  0  0  0  0  0  0  0  0
   45.5110   31.1050   36.7840 C   0  0  0  0  0  0  0  0  0  0  0  0
   46.4500   30.7180   37.7360 C   0  0  0  0  0  0  0  0  0  0  0  0
   46.8970   31.5790   38.7400 C   0  0  0  0  0  0  0  0  0  0  0  0
   47.8700   31.1220   39.6950 C   0  0  0  0  0  0  0  0  0  0  0  0
   49.1180   31.0750   39.5170 O   0  0  0  0  0  0  0  0  0  0  0  0
   44.5220   35.8840   44.7260 C   0  0  0  0  0  0  0  0  0  0  0  0
   45.1080   35.7230   43.4360 C   0  0  0  0  0  0  0  0  0  0  0  0
   45.9310   34.6150   43.2690 C   0  0  0  0  0  0  0  0  0  0  0  0
   46.1530   33.7450   44.2920 N   0  0  0  0  0  0  0  0  0  0  0  0
   45.5700   33.9450   45.5030 C   0  0  0  0  0  0  0  0  0  0  0  0
   44.7660   34.9930   45.7300 N   0  0  0  0  0  0  0  0  0  0  0  0
   47.9867   35.8272   42.7160 H   0  0  0  0  0  0  0  0  0  0  0  0
   49.3298   35.8237   40.6308 H   0  0  0  0  0  0  0  0  0  0  0  0
   45.0305   34.3017   37.8766 H   0  0  0  0  0  0  0  0  0  0  0  0
   44.2682   32.7480   36.1169 H   0  0  0  0  0  0  0  0  0  0  0  0
   45.1733   30.4085   36.0025 H   0  0  0  0  0  0  0  0  0  0  0  0
   46.8548   29.6960   37.6957 H   0  0  0  0  0  0  0  0  0  0  0  0
   47.4914   30.7822   40.6703 H   0  0  0  0  0  0  0  0  0  0  0  0
   43.8609   36.7426   44.9152 H   0  0  0  0  0  0  0  0  0  0  0  0
   44.9195   36.4352   42.6192 H   0  0  0  0  0  0  0  0  0  0  0  0
   45.7625   33.2298   46.3163 H   0  0  0  0  0  0  0  0  0  0  0  0
  1 19  1  0
  2  1  1  0
  3  2  2  0
  4  6  1  0
  4  3  1  0
  5  4  2  0
  6  7  1  0
  7  8  2  0
  7  1  1  0
  9  6  1  0
 10  9  2  0
 11 10  1  0
 12 11  2  0
 12 13  1  0
 13 14  2  0
 14  9  1  0
 14 15  1  0
 16 15  2  0
 17 22  2  0
 18 17  1  0
 19 18  2  0
 19 20  1  0
 20 21  2  0
 21 22  1  0
  2 23  1  0
  3 24  1  0
 10 25  1  0
 11 26  1  0
 12 27  1  0
 13 28  1  0
 15 29  1  0
 17 30  1  0
 18 31  1  0
 21 32  1  0
M  ISO  8  23  14  24  14  25  14  26  14  27  14  28  14  29   6  30  14
M  ISO  2  31  14  32  14
M  END
>  <minimizedAffinity>  (1) 
-5.01528597

>  <minimizedRMSD>  (1) 
0.331574708

$$$$
