
     RDKit          3D

 52 55  0  0  0  0  0  0  0  0999 V2000
   46.5680   34.4410   41.9590 N   0  0  0  0  0  0  0  0  0  0  0  0
   47.6960   35.2070   41.8480 C   0  0  0  0  0  0  0  0  0  0  0  0
   48.4290   35.2290   40.6950 C   0  0  0  0  0  0  0  0  0  0  0  0
   47.9850   34.4400   39.6300 C   0  0  0  0  0  0  0  0  0  0  0  0
   48.6340   34.4490   38.5700 O   0  0  0  0  0  0  0  0  0  0  0  0
   46.8710   33.7100   39.8000 N   0  0  0  0  0  0  0  0  0  0  0  0
   46.1700   33.7080   40.9420 C   0  0  0  0  0  0  0  0  0  0  0  0
   45.1590   33.0790   41.1560 O   0  0  0  0  0  0  0  0  0  0  0  0
   44.5270   35.8130   44.7350 C   0  0  0  0  0  0  0  0  0  0  0  0
   45.1130   35.6740   43.4450 C   0  0  0  0  0  0  0  0  0  0  0  0
   45.9780   34.5880   43.2700 C   0  0  0  0  0  0  0  0  0  0  0  0
   46.2310   33.7250   44.2880 N   0  0  0  0  0  0  0  0  0  0  0  0
   45.6340   33.9170   45.5030 C   0  0  0  0  0  0  0  0  0  0  0  0
   44.8080   34.9320   45.7150 N   0  0  0  0  0  0  0  0  0  0  0  0
   45.9100   33.0060   46.5630 N   0  0  0  0  0  0  0  0  0  0  0  0
   47.0180   32.0920   46.5020 C   0  0  0  0  0  0  0  0  0  0  0  0
   46.6470   30.6930   46.9340 C   0  0  0  0  0  0  0  0  0  0  0  0
   45.2760   30.6370   47.2450 O   0  0  0  0  0  0  0  0  0  0  0  0
   45.0850   31.5160   48.3100 C   0  0  0  0  0  0  0  0  0  0  0  0
   45.1140   32.9240   47.7660 C   0  0  0  0  0  0  0  0  0  0  0  0
   46.3850   32.8880   38.7610 C   0  0  0  0  0  0  0  0  0  0  0  0
   45.4420   33.2850   37.8420 C   0  0  0  0  0  0  0  0  0  0  0  0
   45.0120   32.4320   36.8550 C   0  0  0  0  0  0  0  0  0  0  0  0
   45.5220   31.1500   36.7630 C   0  0  0  0  0  0  0  0  0  0  0  0
   46.4510   30.7790   37.6800 C   0  0  0  0  0  0  0  0  0  0  0  0
   46.9300   31.6050   38.7120 C   0  0  0  0  0  0  0  0  0  0  0  0
   47.9540   31.0990   39.6670 C   0  0  0  0  0  0  0  0  0  0  0  0
   49.2630   31.7980   39.6240 C   0  0  0  0  0  0  0  0  0  0  0  0
   47.4940   31.0970   41.0920 C   0  0  0  0  0  0  0  0  0  0  0  0
   48.0194   35.8174   42.7040 H   0  0  0  0  0  0  0  0  0  0  0  0
   49.3359   35.8455   40.6080 H   0  0  0  0  0  0  0  0  0  0  0  0
   43.8383   36.6475   44.9335 H   0  0  0  0  0  0  0  0  0  0  0  0
   44.8977   36.3814   42.6306 H   0  0  0  0  0  0  0  0  0  0  0  0
   47.3857   32.0541   45.4660 H   0  0  0  0  0  0  0  0  0  0  0  0
   47.7889   32.4593   47.1953 H   0  0  0  0  0  0  0  0  0  0  0  0
   46.8651   29.9890   46.1174 H   0  0  0  0  0  0  0  0  0  0  0  0
   47.2324   30.4212   47.8247 H   0  0  0  0  0  0  0  0  0  0  0  0
   44.1128   31.3199   48.7857 H   0  0  0  0  0  0  0  0  0  0  0  0
   45.8762   31.3814   49.0623 H   0  0  0  0  0  0  0  0  0  0  0  0
   45.5436   33.5930   48.5262 H   0  0  0  0  0  0  0  0  0  0  0  0
   44.0840   33.2230   47.5217 H   0  0  0  0  0  0  0  0  0  0  0  0
   45.0256   34.3016   37.8983 H   0  0  0  0  0  0  0  0  0  0  0  0
   44.2558   32.7715   36.1319 H   0  0  0  0  0  0  0  0  0  0  0  0
   45.1875   30.4574   35.9766 H   0  0  0  0  0  0  0  0  0  0  0  0
   46.8582   29.7595   37.6110 H   0  0  0  0  0  0  0  0  0  0  0  0
   48.0981   30.0689   39.3091 H   0  0  0  0  0  0  0  0  0  0  0  0
   49.6128   31.9848   40.6500 H   0  0  0  0  0  0  0  0  0  0  0  0
   49.9961   31.1713   39.0951 H   0  0  0  0  0  0  0  0  0  0  0  0
   49.1500   32.7558   39.0951 H   0  0  0  0  0  0  0  0  0  0  0  0
   48.3683   31.1008   41.7595 H   0  0  0  0  0  0  0  0  0  0  0  0
   46.8840   31.9925   41.2816 H   0  0  0  0  0  0  0  0  0  0  0  0
   46.8918   30.1962   41.2816 H   0  0  0  0  0  0  0  0  0  0  0  0
  1 11  1  0
  2  1  1  0
  3  2  2  0
  4  6  1  0
  4  3  1  0
  5  4  2  0
  6  7  1  0
  7  8  2  0
  7  1  1  0
  9 14  2  0
 10  9  1  0
 11 10  2  0
 11 12  1  0
 12 13  2  0
 13 14  1  0
 13 15  1  0
 15 20  1  0
 16 15  1  0
 16 17  1  0
 17 18  1  0
 18 19  1  0
 20 19  1  0
 21  6  1  0
 22 21  2  0
 23 22  1  0
 24 23  2  0
 24 25  1  0
 25 26  2  0
 26 21  1  0
 26 27  1  0
 27 29  1  0
 28 27  1  0
  2 30  1  0
  3 31  1  0
  9 32  1  0
 10 33  1  0
 16 34  1  0
 16 35  1  0
 17 36  1  0
 17 37  1  0
 19 38  1  0
 19 39  1  0
 20 40  1  0
 20 41  1  0
 22 42  1  0
 23 43  1  0
 24 44  1  0
 25 45  1  0
 27 46  1  0
 28 47  1  0
 28 48  1  0
 28 49  1  0
 29 50  1  0
 29 51  1  0
 29 52  1  0
M  ISO  8  30  14  31  14  32  14  33  14  34  13  35  13  36  13  37  13
M  ISO  8  38  13  39  13  40  13  41  13  42  14  43  14  44  14  45  14
M  ISO  7  46   8  47   8  48   8  49   8  50   8  51   8  52   8
M  END
>  <minimizedAffinity>  (1) 
-6.71133137

>  <minimizedRMSD>  (1) 
0.0579494312

$$$$
