
     RDKit          3D

 52 55  0  0  0  0  0  0  0  0999 V2000
   46.5690   34.4600   41.6080 N   0  0  0  0  0  0  0  0  0  0  0  0
   47.7620   35.1480   41.4580 C   0  0  0  0  0  0  0  0  0  0  0  0
   48.5080   35.0440   40.3130 C   0  0  0  0  0  0  0  0  0  0  0  0
   48.0240   34.2150   39.2970 C   0  0  0  0  0  0  0  0  0  0  0  0
   48.6850   34.1120   38.2520 O   0  0  0  0  0  0  0  0  0  0  0  0
   46.8600   33.5720   39.5040 N   0  0  0  0  0  0  0  0  0  0  0  0
   46.1500   33.6950   40.6340 C   0  0  0  0  0  0  0  0  0  0  0  0
   45.0970   33.1470   40.8750 O   0  0  0  0  0  0  0  0  0  0  0  0
   44.6760   36.1790   44.2730 C   0  0  0  0  0  0  0  0  0  0  0  0
   45.2490   35.9080   43.0050 C   0  0  0  0  0  0  0  0  0  0  0  0
   45.9860   34.7360   42.8900 C   0  0  0  0  0  0  0  0  0  0  0  0
   46.1400   33.8980   43.9580 N   0  0  0  0  0  0  0  0  0  0  0  0
   45.5620   34.2170   45.1540 C   0  0  0  0  0  0  0  0  0  0  0  0
   44.8490   35.3230   45.3170 N   0  0  0  0  0  0  0  0  0  0  0  0
   45.7520   33.3090   46.2390 N   0  0  0  0  0  0  0  0  0  0  0  0
   46.7200   32.3810   45.9910 C   0  0  0  0  0  0  0  0  0  0  0  0
   47.0400   31.4170   46.9340 C   0  0  0  0  0  0  0  0  0  0  0  0
   48.1070   30.3950   46.6600 C   0  0  0  0  0  0  0  0  0  0  0  0
   46.3340   31.4550   48.1160 C   0  0  0  0  0  0  0  0  0  0  0  0
   46.5920   30.5940   49.0090 O   0  0  0  0  0  0  0  0  0  0  0  0
   45.3810   32.3760   48.3480 N   0  0  0  0  0  0  0  0  0  0  0  0
   45.0860   33.3030   47.4180 C   0  0  0  0  0  0  0  0  0  0  0  0
   44.2300   34.2070   47.5070 O   0  0  0  0  0  0  0  0  0  0  0  0
   46.3340   32.7160   38.5130 C   0  0  0  0  0  0  0  0  0  0  0  0
   45.4710   33.1240   37.5210 C   0  0  0  0  0  0  0  0  0  0  0  0
   44.9940   32.2400   36.5870 C   0  0  0  0  0  0  0  0  0  0  0  0
   45.3750   30.9160   36.6220 C   0  0  0  0  0  0  0  0  0  0  0  0
   46.2280   30.5340   37.6080 C   0  0  0  0  0  0  0  0  0  0  0  0
   46.7490   31.3890   38.5930 C   0  0  0  0  0  0  0  0  0  0  0  0
   47.6810   30.8680   39.6260 C   0  0  0  0  0  0  0  0  0  0  0  0
   49.0370   31.4800   39.6290 C   0  0  0  0  0  0  0  0  0  0  0  0
   47.1490   30.9700   41.0200 C   0  0  0  0  0  0  0  0  0  0  0  0
   48.1183   35.7918   42.2757 H   0  0  0  0  0  0  0  0  0  0  0  0
   49.4540   35.5934   40.1977 H   0  0  0  0  0  0  0  0  0  0  0  0
   44.0829   37.0944   44.4153 H   0  0  0  0  0  0  0  0  0  0  0  0
   45.1166   36.5922   42.1539 H   0  0  0  0  0  0  0  0  0  0  0  0
   47.2541   32.3978   45.0295 H   0  0  0  0  0  0  0  0  0  0  0  0
   48.5039   30.0148   47.6128 H   0  0  0  0  0  0  0  0  0  0  0  0
   47.6778   29.5624   46.0833 H   0  0  0  0  0  0  0  0  0  0  0  0
   48.9203   30.8596   46.0833 H   0  0  0  0  0  0  0  0  0  0  0  0
   44.8733   32.3716   49.2442 H   0  0  0  0  0  0  0  0  0  0  0  0
   45.1584   34.1777   37.4766 H   0  0  0  0  0  0  0  0  0  0  0  0
   44.3034   32.5898   35.8055 H   0  0  0  0  0  0  0  0  0  0  0  0
   45.0023   30.1953   35.8792 H   0  0  0  0  0  0  0  0  0  0  0  0
   46.5330   29.4775   37.6370 H   0  0  0  0  0  0  0  0  0  0  0  0
   47.7718   29.8145   39.3230 H   0  0  0  0  0  0  0  0  0  0  0  0
   49.3693   31.6300   40.6668 H   0  0  0  0  0  0  0  0  0  0  0  0
   49.7416   30.8126   39.1112 H   0  0  0  0  0  0  0  0  0  0  0  0
   49.0027   32.4499   39.1112 H   0  0  0  0  0  0  0  0  0  0  0  0
   47.9680   30.8130   41.7374 H   0  0  0  0  0  0  0  0  0  0  0  0
   46.7130   31.9681   41.1740 H   0  0  0  0  0  0  0  0  0  0  0  0
   46.3748   30.2039   41.1740 H   0  0  0  0  0  0  0  0  0  0  0  0
  1 11  1  0
  2  1  1  0
  3  2  2  0
  4  6  1  0
  4  3  1  0
  5  4  2  0
  6  7  1  0
  7  8  2  0
  7  1  1  0
  9 14  2  0
 10  9  1  0
 11 10  2  0
 11 12  1  0
 12 13  2  0
 13 14  1  0
 13 15  1  0
 15 22  1  0
 16 15  1  0
 16 17  2  0
 17 19  1  0
 18 17  1  0
 19 21  1  0
 19 20  2  0
 22 23  2  0
 22 21  1  0
 24 29  1  0
 24  6  1  0
 25 24  2  0
 26 27  2  0
 26 25  1  0
 27 28  1  0
 28 29  2  0
 29 30  1  0
 30 31  1  0
 30 32  1  0
  2 33  1  0
  3 34  1  0
  9 35  1  0
 10 36  1  0
 16 37  1  0
 18 38  1  0
 18 39  1  0
 18 40  1  0
 21 41  1  0
 25 42  1  0
 26 43  1  0
 27 44  1  0
 28 45  1  0
 30 46  1  0
 31 47  1  0
 31 48  1  0
 31 49  1  0
 32 50  1  0
 32 51  1  0
 32 52  1  0
M  ISO  8  33  14  34  14  35  14  36  14  37  14  38   8  39   8  40   8
M  ISO  8  41   9  42  14  43  14  44  14  45  14  46   8  47   8  48   8
M  ISO  4  49   8  50   8  51   8  52   8
M  END
>  <minimizedAffinity>  (1) 
-6.88748837

>  <minimizedRMSD>  (1) 
0.415210813

$$$$
