
     RDKit          3D

 46 49  0  0  0  0  0  0  0  0999 V2000
   46.5350   34.4390   41.9700 N   0  0  0  0  0  0  0  0  0  0  0  0
   47.6820   35.1990   41.8500 C   0  0  0  0  0  0  0  0  0  0  0  0
   48.4190   35.1980   40.6980 C   0  0  0  0  0  0  0  0  0  0  0  0
   47.9740   34.4000   39.6410 C   0  0  0  0  0  0  0  0  0  0  0  0
   48.6270   34.3880   38.5840 O   0  0  0  0  0  0  0  0  0  0  0  0
   46.8500   33.6800   39.8210 N   0  0  0  0  0  0  0  0  0  0  0  0
   46.1470   33.7030   40.9600 C   0  0  0  0  0  0  0  0  0  0  0  0
   45.1280   33.0840   41.1780 O   0  0  0  0  0  0  0  0  0  0  0  0
   46.3640   32.8460   38.7910 C   0  0  0  0  0  0  0  0  0  0  0  0
   45.4430   33.2410   37.8490 C   0  0  0  0  0  0  0  0  0  0  0  0
   45.0100   32.3790   36.8740 C   0  0  0  0  0  0  0  0  0  0  0  0
   45.4910   31.0890   36.8170 C   0  0  0  0  0  0  0  0  0  0  0  0
   46.3990   30.7170   37.7570 C   0  0  0  0  0  0  0  0  0  0  0  0
   46.8780   31.5560   38.7770 C   0  0  0  0  0  0  0  0  0  0  0  0
   47.8770   31.0450   39.7580 C   0  0  0  0  0  0  0  0  0  0  0  0
   49.1980   31.7270   39.7320 C   0  0  0  0  0  0  0  0  0  0  0  0
   47.3960   31.0700   41.1740 C   0  0  0  0  0  0  0  0  0  0  0  0
   44.4680   35.8420   44.6950 C   0  0  0  0  0  0  0  0  0  0  0  0
   45.0490   35.6670   43.4160 C   0  0  0  0  0  0  0  0  0  0  0  0
   45.9470   34.6140   43.2730 C   0  0  0  0  0  0  0  0  0  0  0  0
   46.2320   33.8110   44.3240 N   0  0  0  0  0  0  0  0  0  0  0  0
   45.6550   34.0120   45.5290 C   0  0  0  0  0  0  0  0  0  0  0  0
   44.7820   35.0140   45.7200 N   0  0  0  0  0  0  0  0  0  0  0  0
   46.0120   33.1050   46.6170 C   0  0  0  0  0  0  0  0  0  0  0  0
   45.2420   32.7260   47.7130 C   0  0  0  0  0  0  0  0  0  0  0  0
   45.9470   31.8490   48.5120 C   0  0  0  0  0  0  0  0  0  0  0  0
   47.1530   31.7250   47.8530 C   0  0  0  0  0  0  0  0  0  0  0  0
   47.1460   32.4640   46.7690 O   0  0  0  0  0  0  0  0  0  0  0  0
   48.0094   35.8178   42.6985 H   0  0  0  0  0  0  0  0  0  0  0  0
   49.3317   35.8052   40.6066 H   0  0  0  0  0  0  0  0  0  0  0  0
   45.0465   34.2667   37.8781 H   0  0  0  0  0  0  0  0  0  0  0  0
   44.2731   32.7201   36.1319 H   0  0  0  0  0  0  0  0  0  0  0  0
   45.1529   30.3872   36.0403 H   0  0  0  0  0  0  0  0  0  0  0  0
   46.7857   29.6880   37.7165 H   0  0  0  0  0  0  0  0  0  0  0  0
   48.0080   30.0082   39.4145 H   0  0  0  0  0  0  0  0  0  0  0  0
   49.5399   31.9035   40.7625 H   0  0  0  0  0  0  0  0  0  0  0  0
   49.9277   31.0930   39.2071 H   0  0  0  0  0  0  0  0  0  0  0  0
   49.1037   32.6891   39.2071 H   0  0  0  0  0  0  0  0  0  0  0  0
   48.2586   31.0252   41.8551 H   0  0  0  0  0  0  0  0  0  0  0  0
   46.8344   31.9985   41.3541 H   0  0  0  0  0  0  0  0  0  0  0  0
   46.7412   30.2047   41.3541 H   0  0  0  0  0  0  0  0  0  0  0  0
   43.7522   36.6611   44.8586 H   0  0  0  0  0  0  0  0  0  0  0  0
   44.8022   36.3319   42.5752 H   0  0  0  0  0  0  0  0  0  0  0  0
   44.2184   33.0754   47.9135 H   0  0  0  0  0  0  0  0  0  0  0  0
   45.6257   31.3663   49.4467 H   0  0  0  0  0  0  0  0  0  0  0  0
   47.9944   31.1000   48.1867 H   0  0  0  0  0  0  0  0  0  0  0  0
  1 20  1  0
  2  1  1  0
  3  2  2  0
  4  6  1  0
  4  3  1  0
  5  4  2  0
  6  7  1  0
  7  8  2  0
  7  1  1  0
  9  6  1  0
 10  9  2  0
 11 10  1  0
 12 11  2  0
 12 13  1  0
 13 14  2  0
 14  9  1  0
 14 15  1  0
 15 17  1  0
 16 15  1  0
 18 23  2  0
 19 18  1  0
 20 19  2  0
 20 21  1  0
 21 22  2  0
 22 23  1  0
 22 24  1  0
 24 28  1  0
 24 25  2  0
 25 26  1  0
 27 26  2  0
 28 27  1  0
  2 29  1  0
  3 30  1  0
 10 31  1  0
 11 32  1  0
 12 33  1  0
 13 34  1  0
 15 35  1  0
 16 36  1  0
 16 37  1  0
 16 38  1  0
 17 39  1  0
 17 40  1  0
 17 41  1  0
 18 42  1  0
 19 43  1  0
 25 44  1  0
 26 45  1  0
 27 46  1  0
M  ISO  8  29  14  30  14  31  14  32  14  33  14  34  14  35   8  36   8
M  ISO  8  37   8  38   8  39   8  40   8  41   8  42  14  43  14  44  14
M  ISO  2  45  14  46  14
M  END
>  <minimizedAffinity>  (1) 
-6.36096859

>  <minimizedRMSD>  (1) 
0.460499614

$$$$
