
     RDKit          3D

 47 50  0  0  0  0  0  0  0  0999 V2000
   46.5170   34.4200   42.0150 N   0  0  0  0  0  0  0  0  0  0  0  0
   47.6570   35.1980   41.8970 C   0  0  0  0  0  0  0  0  0  0  0  0
   48.3980   35.2100   40.7440 C   0  0  0  0  0  0  0  0  0  0  0  0
   47.9600   34.4060   39.6870 C   0  0  0  0  0  0  0  0  0  0  0  0
   48.6130   34.4030   38.6290 O   0  0  0  0  0  0  0  0  0  0  0  0
   46.8460   33.6710   39.8630 N   0  0  0  0  0  0  0  0  0  0  0  0
   46.1420   33.6820   41.0030 C   0  0  0  0  0  0  0  0  0  0  0  0
   45.1330   33.0510   41.2180 O   0  0  0  0  0  0  0  0  0  0  0  0
   46.3730   32.8350   38.8310 C   0  0  0  0  0  0  0  0  0  0  0  0
   45.4600   33.2240   37.8790 C   0  0  0  0  0  0  0  0  0  0  0  0
   45.0410   32.3590   36.8990 C   0  0  0  0  0  0  0  0  0  0  0  0
   45.5300   31.0720   36.8500 C   0  0  0  0  0  0  0  0  0  0  0  0
   46.4290   30.7070   37.8000 C   0  0  0  0  0  0  0  0  0  0  0  0
   46.8940   31.5470   38.8240 C   0  0  0  0  0  0  0  0  0  0  0  0
   47.8890   31.0420   39.8130 C   0  0  0  0  0  0  0  0  0  0  0  0
   49.2010   31.7460   39.8090 C   0  0  0  0  0  0  0  0  0  0  0  0
   47.3890   31.0430   41.2210 C   0  0  0  0  0  0  0  0  0  0  0  0
   44.5030   35.8350   44.7700 C   0  0  0  0  0  0  0  0  0  0  0  0
   45.0790   35.6700   43.4890 C   0  0  0  0  0  0  0  0  0  0  0  0
   45.9320   34.5860   43.3140 C   0  0  0  0  0  0  0  0  0  0  0  0
   46.1850   33.7370   44.3440 N   0  0  0  0  0  0  0  0  0  0  0  0
   45.6030   33.9430   45.5590 C   0  0  0  0  0  0  0  0  0  0  0  0
   44.7840   34.9620   45.7720 N   0  0  0  0  0  0  0  0  0  0  0  0
   45.9430   32.9710   46.5980 C   0  0  0  0  0  0  0  0  0  0  0  0
   47.0470   32.1380   46.4280 C   0  0  0  0  0  0  0  0  0  0  0  0
   47.3140   31.2340   47.4600 C   0  0  0  0  0  0  0  0  0  0  0  0
   46.5150   31.1880   48.5670 N   0  0  0  0  0  0  0  0  0  0  0  0
   45.4570   32.0060   48.6970 C   0  0  0  0  0  0  0  0  0  0  0  0
   45.1790   32.8960   47.7040 N   0  0  0  0  0  0  0  0  0  0  0  0
   47.9745   35.8197   42.7471 H   0  0  0  0  0  0  0  0  0  0  0  0
   49.3030   35.8287   40.6535 H   0  0  0  0  0  0  0  0  0  0  0  0
   45.0579   34.2476   37.9033 H   0  0  0  0  0  0  0  0  0  0  0  0
   44.3106   32.6954   36.1485 H   0  0  0  0  0  0  0  0  0  0  0  0
   45.2046   30.3669   36.0710 H   0  0  0  0  0  0  0  0  0  0  0  0
   46.8208   29.6798   37.7646 H   0  0  0  0  0  0  0  0  0  0  0  0
   48.0424   30.0108   39.4621 H   0  0  0  0  0  0  0  0  0  0  0  0
   49.5265   31.9207   40.8451 H   0  0  0  0  0  0  0  0  0  0  0  0
   49.9475   31.1273   39.2895 H   0  0  0  0  0  0  0  0  0  0  0  0
   49.0982   32.7101   39.2895 H   0  0  0  0  0  0  0  0  0  0  0  0
   48.2436   31.0413   41.9136 H   0  0  0  0  0  0  0  0  0  0  0  0
   46.7794   31.9424   41.3930 H   0  0  0  0  0  0  0  0  0  0  0  0
   46.7759   30.1461   41.3930 H   0  0  0  0  0  0  0  0  0  0  0  0
   43.8213   36.6779   44.9566 H   0  0  0  0  0  0  0  0  0  0  0  0
   44.8618   36.3684   42.6674 H   0  0  0  0  0  0  0  0  0  0  0  0
   47.6764   32.1893   45.5273 H   0  0  0  0  0  0  0  0  0  0  0  0
   48.1748   30.5538   47.3801 H   0  0  0  0  0  0  0  0  0  0  0  0
   44.8229   31.9575   49.5946 H   0  0  0  0  0  0  0  0  0  0  0  0
  1 20  1  0
  2  1  1  0
  3  2  2  0
  4  6  1  0
  4  3  1  0
  5  4  2  0
  6  7  1  0
  7  8  2  0
  7  1  1  0
  9  6  1  0
 10  9  2  0
 11 10  1  0
 12 11  2  0
 12 13  1  0
 13 14  2  0
 14  9  1  0
 14 15  1  0
 15 17  1  0
 16 15  1  0
 18 23  2  0
 19 18  1  0
 20 19  2  0
 20 21  1  0
 21 22  2  0
 22 23  1  0
 22 24  1  0
 24 29  1  0
 25 24  2  0
 25 26  1  0
 26 27  2  0
 27 28  1  0
 29 28  2  0
  2 30  1  0
  3 31  1  0
 10 32  1  0
 11 33  1  0
 12 34  1  0
 13 35  1  0
 15 36  1  0
 16 37  1  0
 16 38  1  0
 16 39  1  0
 17 40  1  0
 17 41  1  0
 17 42  1  0
 18 43  1  0
 19 44  1  0
 25 45  1  0
 26 46  1  0
 28 47  1  0
M  ISO  8  30  14  31  14  32  14  33  14  34  14  35  14  36   8  37   8
M  ISO  8  38   8  39   8  40   8  41   8  42   8  43  14  44  14  45  14
M  ISO  2  46  14  47  14
M  END
>  <minimizedAffinity>  (1) 
-6.52266359

>  <minimizedRMSD>  (1) 
0.173386395

$$$$
