
     RDKit          3D

 42 44  0  0  0  0  0  0  0  0999 V2000
   46.0420   32.2110   37.9260 C   0  0  0  0  0  0  0  0  0  0  0  0
   45.6020   34.3300   40.8920 C   0  0  0  0  0  0  0  0  0  0  0  0
   46.9000   34.6340   41.2730 C   0  0  0  0  0  0  0  0  0  0  0  0
   47.9580   34.1100   40.5110 C   0  0  0  0  0  0  0  0  0  0  0  0
   47.6470   33.3330   39.4410 N   0  0  0  0  0  0  0  0  0  0  0  0
   46.3590   33.0520   39.0930 C   0  0  0  0  0  0  0  0  0  0  0  0
   45.3790   33.5610   39.8300 N   0  0  0  0  0  0  0  0  0  0  0  0
   44.5040   34.8690   41.6780 C   0  0  0  0  0  0  0  0  0  0  0  0
   43.6790   35.6590   41.1350 O   0  0  0  0  0  0  0  0  0  0  0  0
   44.4040   34.4880   43.0190 O   0  0  0  0  0  0  0  0  0  0  0  0
   44.9720   35.3090   44.0060 C   0  0  0  0  0  0  0  0  0  0  0  0
   44.0880   35.6020   45.0360 F   0  0  0  0  0  0  0  0  0  0  0  0
   46.0880   34.7080   44.5420 F   0  0  0  0  0  0  0  0  0  0  0  0
   45.2880   36.5050   43.3760 F   0  0  0  0  0  0  0  0  0  0  0  0
   44.9430   31.2510   38.1780 C   0  0  0  0  0  0  0  0  0  0  0  0
   45.6390   33.1290   36.7990 C   0  0  0  0  0  0  0  0  0  0  0  0
   47.3170   31.5380   37.5060 C   0  0  0  0  0  0  0  0  0  0  0  0
   47.7940   31.8640   36.1470 C   0  0  0  0  0  0  0  0  0  0  0  0
   48.5760   33.0020   35.9000 C   0  0  0  0  0  0  0  0  0  0  0  0
   48.8600   33.0860   34.5720 N   0  0  0  0  0  0  0  0  0  0  0  0
   48.2980   32.0480   33.9320 C   0  0  0  0  0  0  0  0  0  0  0  0
   48.2470   31.6080   32.6250 C   0  0  0  0  0  0  0  0  0  0  0  0
   47.5780   30.4540   32.2260 C   0  0  0  0  0  0  0  0  0  0  0  0
   46.9550   29.7610   33.2320 C   0  0  0  0  0  0  0  0  0  0  0  0
   46.9900   30.1780   34.5450 C   0  0  0  0  0  0  0  0  0  0  0  0
   47.6550   31.3130   34.8940 C   0  0  0  0  0  0  0  0  0  0  0  0
   47.0965   35.2691   42.1493 H   0  0  0  0  0  0  0  0  0  0  0  0
   49.0051   34.3223   40.7727 H   0  0  0  0  0  0  0  0  0  0  0  0
   44.8038   31.1294   39.2624 H   0  0  0  0  0  0  0  0  0  0  0  0
   44.0136   31.6317   37.7294 H   0  0  0  0  0  0  0  0  0  0  0  0
   45.1953   30.2788   37.7294 H   0  0  0  0  0  0  0  0  0  0  0  0
   45.2296   34.0617   37.2144 H   0  0  0  0  0  0  0  0  0  0  0  0
   46.5192   33.3584   36.1804 H   0  0  0  0  0  0  0  0  0  0  0  0
   44.8744   32.6364   36.1804 H   0  0  0  0  0  0  0  0  0  0  0  0
   48.1031   31.8276   38.2189 H   0  0  0  0  0  0  0  0  0  0  0  0
   47.0989   30.4599   37.4973 H   0  0  0  0  0  0  0  0  0  0  0  0
   48.9095   33.7187   36.6649 H   0  0  0  0  0  0  0  0  0  0  0  0
   49.4182   33.8289   34.1276 H   0  0  0  0  0  0  0  0  0  0  0  0
   48.7633   32.2016   31.8562 H   0  0  0  0  0  0  0  0  0  0  0  0
   47.5511   30.1216   31.1778 H   0  0  0  0  0  0  0  0  0  0  0  0
   46.4081   28.8399   32.9821 H   0  0  0  0  0  0  0  0  0  0  0  0
   46.4758   29.5881   35.3180 H   0  0  0  0  0  0  0  0  0  0  0  0
  1 15  1  0
  1  6  1  0
  2  3  2  0
  2  8  1  0
  4  3  1  0
  5  4  2  0
  6  5  1  0
  6  7  2  0
  7  2  1  0
  8 10  1  0
  9  8  2  0
 10 11  1  0
 11 13  1  0
 11 12  1  0
 14 11  1  0
 16  1  1  0
 17  1  1  0
 18 17  1  0
 19 18  2  0
 20 19  1  0
 21 20  1  0
 21 26  2  0
 22 21  1  0
 23 22  2  0
 23 24  1  0
 24 25  2  0
 25 26  1  0
 26 18  1  0
  3 27  1  0
  4 28  1  0
 15 29  1  0
 15 30  1  0
 15 31  1  0
 16 32  1  0
 16 33  1  0
 16 34  1  0
 17 35  1  0
 17 36  1  0
 19 37  1  0
 20 38  1  0
 22 39  1  0
 23 40  1  0
 24 41  1  0
 25 42  1  0
M  ISO  8  27  14  28  14  29   8  30   8  31   8  32   8  33   8  34   8
M  ISO  8  35   8  36   8  37  14  38   9  39  14  40  14  41  14  42  14
M  END
>  <minimizedAffinity>  (1) 
-5.2537365

>  <minimizedRMSD>  (1) 
1.4072485

$$$$
