
     RDKit          3D

 52 55  0  0  0  0  0  0  0  0999 V2000
   46.5700   34.3420   41.9620 N   0  0  0  0  0  0  0  0  0  0  0  0
   47.6920   35.1450   41.8640 C   0  0  0  0  0  0  0  0  0  0  0  0
   48.4190   35.2090   40.6980 C   0  0  0  0  0  0  0  0  0  0  0  0
   47.9830   34.4330   39.6200 C   0  0  0  0  0  0  0  0  0  0  0  0
   48.6210   34.4810   38.5580 O   0  0  0  0  0  0  0  0  0  0  0  0
   46.8860   33.6730   39.7820 N   0  0  0  0  0  0  0  0  0  0  0  0
   46.1970   33.6330   40.9300 C   0  0  0  0  0  0  0  0  0  0  0  0
   45.2020   32.9770   41.1380 O   0  0  0  0  0  0  0  0  0  0  0  0
   46.4120   32.8670   38.7270 C   0  0  0  0  0  0  0  0  0  0  0  0
   45.4690   33.2700   37.8100 C   0  0  0  0  0  0  0  0  0  0  0  0
   45.0520   32.4340   36.8050 C   0  0  0  0  0  0  0  0  0  0  0  0
   45.5730   31.1620   36.6930 C   0  0  0  0  0  0  0  0  0  0  0  0
   46.5010   30.7850   37.6070 C   0  0  0  0  0  0  0  0  0  0  0  0
   46.9690   31.5900   38.6570 C   0  0  0  0  0  0  0  0  0  0  0  0
   47.9930   31.0780   39.6040 C   0  0  0  0  0  0  0  0  0  0  0  0
   49.2940   31.7980   39.5890 C   0  0  0  0  0  0  0  0  0  0  0  0
   47.5260   31.0330   41.0270 C   0  0  0  0  0  0  0  0  0  0  0  0
   44.7020   35.7070   44.8460 C   0  0  0  0  0  0  0  0  0  0  0  0
   45.2690   35.6040   43.5510 C   0  0  0  0  0  0  0  0  0  0  0  0
   45.9940   34.4490   43.2720 C   0  0  0  0  0  0  0  0  0  0  0  0
   46.1400   33.4740   44.2200 N   0  0  0  0  0  0  0  0  0  0  0  0
   45.5690   33.6350   45.4490 C   0  0  0  0  0  0  0  0  0  0  0  0
   44.8680   34.7190   45.7570 N   0  0  0  0  0  0  0  0  0  0  0  0
   45.7390   32.5620   46.4650 C   0  0  0  0  0  0  0  0  0  0  0  0
   47.1830   32.1430   46.6420 C   0  0  0  0  0  0  0  0  0  0  0  0
   47.4770   32.3700   48.1310 C   0  0  0  0  0  0  0  0  0  0  0  0
   46.0960   32.0310   48.7060 C   0  0  0  0  0  0  0  0  0  0  0  0
   45.2450   32.9660   47.8370 C   0  0  0  0  0  0  0  0  0  0  0  0
   48.0079   35.7419   42.7323 H   0  0  0  0  0  0  0  0  0  0  0  0
   49.3110   35.8476   40.6168 H   0  0  0  0  0  0  0  0  0  0  0  0
   45.0415   34.2808   37.8838 H   0  0  0  0  0  0  0  0  0  0  0  0
   44.2971   32.7807   36.0839 H   0  0  0  0  0  0  0  0  0  0  0  0
   45.2484   30.4799   35.8934 H   0  0  0  0  0  0  0  0  0  0  0  0
   46.9187   29.7712   37.5188 H   0  0  0  0  0  0  0  0  0  0  0  0
   48.1535   30.0602   39.2189 H   0  0  0  0  0  0  0  0  0  0  0  0
   49.6239   31.9806   40.6223 H   0  0  0  0  0  0  0  0  0  0  0  0
   50.0451   31.1872   39.0668 H   0  0  0  0  0  0  0  0  0  0  0  0
   49.1753   32.7588   39.0668 H   0  0  0  0  0  0  0  0  0  0  0  0
   48.3921   31.1165   41.7000 H   0  0  0  0  0  0  0  0  0  0  0  0
   46.8354   31.8688   41.2129 H   0  0  0  0  0  0  0  0  0  0  0  0
   47.0077   30.0807   41.2129 H   0  0  0  0  0  0  0  0  0  0  0  0
   44.1198   36.6009   45.1143 H   0  0  0  0  0  0  0  0  0  0  0  0
   45.1421   36.3994   42.8018 H   0  0  0  0  0  0  0  0  0  0  0  0
   45.1393   31.7302   46.0669 H   0  0  0  0  0  0  0  0  0  0  0  0
   47.3141   31.0832   46.3783 H   0  0  0  0  0  0  0  0  0  0  0  0
   47.8635   32.7132   45.9926 H   0  0  0  0  0  0  0  0  0  0  0  0
   48.2571   31.6906   48.5051 H   0  0  0  0  0  0  0  0  0  0  0  0
   47.8638   33.3669   48.3890 H   0  0  0  0  0  0  0  0  0  0  0  0
   45.8335   30.9735   48.5551 H   0  0  0  0  0  0  0  0  0  0  0  0
   45.9881   32.1629   49.7927 H   0  0  0  0  0  0  0  0  0  0  0  0
   45.4522   34.0249   48.0511 H   0  0  0  0  0  0  0  0  0  0  0  0
   44.1585   32.8785   47.9850 H   0  0  0  0  0  0  0  0  0  0  0  0
  1 20  1  0
  2  1  1  0
  3  2  2  0
  4  6  1  0
  4  3  1  0
  5  4  2  0
  6  7  1  0
  7  8  2  0
  7  1  1  0
  9  6  1  0
 10  9  2  0
 11 10  1  0
 12 11  2  0
 12 13  1  0
 13 14  2  0
 14  9  1  0
 14 15  1  0
 15 17  1  0
 16 15  1  0
 18 23  2  0
 19 18  1  0
 20 19  2  0
 20 21  1  0
 21 22  2  0
 22 23  1  0
 22 24  1  0
 24 25  1  0
 24 28  1  0
 25 26  1  0
 26 27  1  0
 28 27  1  0
  2 29  1  0
  3 30  1  0
 10 31  1  0
 11 32  1  0
 12 33  1  0
 13 34  1  0
 15 35  1  0
 16 36  1  0
 16 37  1  0
 16 38  1  0
 17 39  1  0
 17 40  1  0
 17 41  1  0
 18 42  1  0
 19 43  1  0
 24 44  1  0
 25 45  1  0
 25 46  1  0
 26 47  1  0
 26 48  1  0
 27 49  1  0
 27 50  1  0
 28 51  1  0
 28 52  1  0
M  ISO  8  29  14  30  14  31  14  32  14  33  14  34  14  35   8  36   8
M  ISO  8  37   8  38   8  39   8  40   8  41   8  42  14  43  14  44  13
M  ISO  8  45  13  46  13  47  13  48  13  49  13  50  13  51  13  52  13
M  END
>  <minimizedAffinity>  (1) 
-6.28978586

>  <minimizedRMSD>  (1) 
0.375159919

$$$$
