
     RDKit          3D

 52 55  0  0  0  0  0  0  0  0999 V2000
   46.8700   33.9740   42.1470 N   0  0  0  0  0  0  0  0  0  0  0  0
   47.8540   34.9360   42.0110 C   0  0  0  0  0  0  0  0  0  0  0  0
   48.4200   35.2130   40.7910 C   0  0  0  0  0  0  0  0  0  0  0  0
   47.9670   34.4830   39.6880 C   0  0  0  0  0  0  0  0  0  0  0  0
   48.4630   34.7200   38.5760 O   0  0  0  0  0  0  0  0  0  0  0  0
   47.0100   33.5600   39.8850 N   0  0  0  0  0  0  0  0  0  0  0  0
   46.4750   33.3140   41.0890 C   0  0  0  0  0  0  0  0  0  0  0  0
   45.6080   32.5020   41.3290 O   0  0  0  0  0  0  0  0  0  0  0  0
   46.5240   32.7910   38.8070 C   0  0  0  0  0  0  0  0  0  0  0  0
   45.4580   33.1540   38.0160 C   0  0  0  0  0  0  0  0  0  0  0  0
   45.0360   32.3590   36.9820 C   0  0  0  0  0  0  0  0  0  0  0  0
   45.6770   31.1710   36.7090 C   0  0  0  0  0  0  0  0  0  0  0  0
   46.7260   30.8320   37.4990 C   0  0  0  0  0  0  0  0  0  0  0  0
   47.2080   31.5960   38.5720 C   0  0  0  0  0  0  0  0  0  0  0  0
   48.3670   31.1340   39.3730 C   0  0  0  0  0  0  0  0  0  0  0  0
   49.5660   32.0140   39.3300 C   0  0  0  0  0  0  0  0  0  0  0  0
   48.0470   30.8940   40.8140 C   0  0  0  0  0  0  0  0  0  0  0  0
   44.9820   34.5900   45.2620 C   0  0  0  0  0  0  0  0  0  0  0  0
   45.3950   34.6820   43.9120 C   0  0  0  0  0  0  0  0  0  0  0  0
   46.4530   33.8770   43.5110 C   0  0  0  0  0  0  0  0  0  0  0  0
   47.0490   33.0390   44.4070 N   0  0  0  0  0  0  0  0  0  0  0  0
   46.6180   32.9850   45.6970 C   0  0  0  0  0  0  0  0  0  0  0  0
   45.6080   33.7410   46.1190 N   0  0  0  0  0  0  0  0  0  0  0  0
   48.5500   30.3900   48.4280 C   0  0  0  0  0  0  0  0  0  0  0  0
   48.3080   29.9540   47.1420 C   0  0  0  0  0  0  0  0  0  0  0  0
   47.6690   30.8070   46.2350 C   0  0  0  0  0  0  0  0  0  0  0  0
   47.2860   32.0740   46.6240 C   0  0  0  0  0  0  0  0  0  0  0  0
   47.5460   32.4820   47.9300 C   0  0  0  0  0  0  0  0  0  0  0  0
   48.1740   31.6540   48.8370 C   0  0  0  0  0  0  0  0  0  0  0  0
   49.3490   29.3120   49.5490 S   0  0  0  0  0  0  0  0  0  0  0  0
   49.7880   30.0400   50.7850 O   0  0  0  0  0  0  0  0  0  0  0  0
   50.5280   28.6100   48.9000 O   0  0  0  0  0  0  0  0  0  0  0  0
   48.1905   35.4911   42.8990 H   0  0  0  0  0  0  0  0  0  0  0  0
   49.2007   35.9807   40.6854 H   0  0  0  0  0  0  0  0  0  0  0  0
   44.9345   34.1003   38.2173 H   0  0  0  0  0  0  0  0  0  0  0  0
   44.1798   32.6720   36.3663 H   0  0  0  0  0  0  0  0  0  0  0  0
   45.3509   30.5224   35.8825 H   0  0  0  0  0  0  0  0  0  0  0  0
   47.2390   29.8836   37.2812 H   0  0  0  0  0  0  0  0  0  0  0  0
   48.6093   30.1864   38.8697 H   0  0  0  0  0  0  0  0  0  0  0  0
   49.8856   32.2486   40.3561 H   0  0  0  0  0  0  0  0  0  0  0  0
   50.3808   31.4979   38.8011 H   0  0  0  0  0  0  0  0  0  0  0  0
   49.3180   32.9461   38.8011 H   0  0  0  0  0  0  0  0  0  0  0  0
   48.7680   31.4347   41.4447 H   0  0  0  0  0  0  0  0  0  0  0  0
   47.0299   31.2539   41.0286 H   0  0  0  0  0  0  0  0  0  0  0  0
   48.1077   29.8168   41.0286 H   0  0  0  0  0  0  0  0  0  0  0  0
   44.1476   35.2105   45.6209 H   0  0  0  0  0  0  0  0  0  0  0  0
   44.8974   35.3646   43.2075 H   0  0  0  0  0  0  0  0  0  0  0  0
   48.6147   28.9442   46.8319 H   0  0  0  0  0  0  0  0  0  0  0  0
   47.4714   30.4659   45.2080 H   0  0  0  0  0  0  0  0  0  0  0  0
   47.2426   33.4909   48.2464 H   0  0  0  0  0  0  0  0  0  0  0  0
   48.3711   31.9936   49.8645 H   0  0  0  0  0  0  0  0  0  0  0  0
   48.4356   28.3584   49.9141 H   0  0  0  0  0  0  0  0  0  0  0  0
  1 20  1  0
  2  1  1  0
  3  2  2  0
  4  6  1  0
  4  3  1  0
  5  4  2  0
  6  7  1  0
  7  8  2  0
  7  1  1  0
  9  6  1  0
 10  9  2  0
 11 10  1  0
 12 11  2  0
 12 13  1  0
 13 14  2  0
 14  9  1  0
 14 15  1  0
 15 17  1  0
 16 15  1  0
 18 23  2  0
 19 18  1  0
 20 19  2  0
 20 21  1  0
 21 22  2  0
 22 23  1  0
 22 27  1  0
 24 29  2  0
 24 30  1  0
 25 24  1  0
 26 27  1  0
 26 25  2  0
 27 28  2  0
 28 29  1  0
 30 31  2  0
 32 30  2  0
  2 33  1  0
  3 34  1  0
 10 35  1  0
 11 36  1  0
 12 37  1  0
 13 38  1  0
 15 39  1  0
 16 40  1  0
 16 41  1  0
 16 42  1  0
 17 43  1  0
 17 44  1  0
 17 45  1  0
 18 46  1  0
 19 47  1  0
 25 48  1  0
 26 49  1  0
 28 50  1  0
 29 51  1  0
 30 52  1  0
M  ISO  8  33  14  34  14  35  14  36  14  37  14  38  14  39   8  40   8
M  ISO  8  41   8  42   8  43   8  44   8  45   8  46  14  47  14  48  14
M  ISO  4  49  14  50  14  51  14  52  11
M  END
>  <minimizedAffinity>  (1) 
-5.90758991

>  <minimizedRMSD>  (1) 
1.44662273

$$$$
