
     RDKit          3D

 48 50  0  0  0  0  0  0  0  0999 V2000
   46.6340   34.3540   41.9690 N   0  0  0  0  0  0  0  0  0  0  0  0
   47.7360   35.1560   41.8410 C   0  0  0  0  0  0  0  0  0  0  0  0
   48.4340   35.2230   40.6680 C   0  0  0  0  0  0  0  0  0  0  0  0
   47.9820   34.4390   39.6020 C   0  0  0  0  0  0  0  0  0  0  0  0
   48.6010   34.4870   38.5220 O   0  0  0  0  0  0  0  0  0  0  0  0
   46.8980   33.6710   39.7880 N   0  0  0  0  0  0  0  0  0  0  0  0
   46.2320   33.6290   40.9510 C   0  0  0  0  0  0  0  0  0  0  0  0
   45.2470   32.9640   41.1820 O   0  0  0  0  0  0  0  0  0  0  0  0
   46.4080   32.8550   38.7480 C   0  0  0  0  0  0  0  0  0  0  0  0
   45.4420   33.2610   37.8460 C   0  0  0  0  0  0  0  0  0  0  0  0
   45.0160   32.4030   36.8530 C   0  0  0  0  0  0  0  0  0  0  0  0
   45.5400   31.1340   36.7410 C   0  0  0  0  0  0  0  0  0  0  0  0
   46.4880   30.7640   37.6430 C   0  0  0  0  0  0  0  0  0  0  0  0
   46.9710   31.5780   38.6790 C   0  0  0  0  0  0  0  0  0  0  0  0
   48.0140   31.0800   39.6130 C   0  0  0  0  0  0  0  0  0  0  0  0
   49.3010   31.8220   39.5850 C   0  0  0  0  0  0  0  0  0  0  0  0
   47.5590   31.0140   41.0380 C   0  0  0  0  0  0  0  0  0  0  0  0
   44.5930   35.5880   44.8080 C   0  0  0  0  0  0  0  0  0  0  0  0
   45.1490   35.4820   43.5060 C   0  0  0  0  0  0  0  0  0  0  0  0
   46.0800   34.4600   43.2970 C   0  0  0  0  0  0  0  0  0  0  0  0
   46.4230   33.6190   44.3070 N   0  0  0  0  0  0  0  0  0  0  0  0
   45.8600   33.7640   45.5410 C   0  0  0  0  0  0  0  0  0  0  0  0
   44.9730   34.7170   45.7830 N   0  0  0  0  0  0  0  0  0  0  0  0
   46.2450   32.8350   46.6420 C   0  0  0  0  0  0  0  0  0  0  0  0
   46.4550   31.4350   46.1650 C   0  0  0  0  0  0  0  0  0  0  0  0
   45.1830   32.8170   47.7180 C   0  0  0  0  0  0  0  0  0  0  0  0
   48.0664   35.7588   42.6998 H   0  0  0  0  0  0  0  0  0  0  0  0
   49.3182   35.8694   40.5662 H   0  0  0  0  0  0  0  0  0  0  0  0
   45.0119   34.2707   37.9202 H   0  0  0  0  0  0  0  0  0  0  0  0
   44.2471   32.7370   36.1408 H   0  0  0  0  0  0  0  0  0  0  0  0
   45.2042   30.4457   35.9514 H   0  0  0  0  0  0  0  0  0  0  0  0
   46.9075   29.7511   37.5539 H   0  0  0  0  0  0  0  0  0  0  0  0
   48.1929   30.0671   39.2230 H   0  0  0  0  0  0  0  0  0  0  0  0
   49.6355   32.0149   40.6150 H   0  0  0  0  0  0  0  0  0  0  0  0
   50.0587   31.2221   39.0596 H   0  0  0  0  0  0  0  0  0  0  0  0
   49.1615   32.7783   39.0596 H   0  0  0  0  0  0  0  0  0  0  0  0
   48.4243   31.1395   41.7054 H   0  0  0  0  0  0  0  0  0  0  0  0
   46.8303   31.8158   41.2277 H   0  0  0  0  0  0  0  0  0  0  0  0
   47.0881   30.0382   41.2277 H   0  0  0  0  0  0  0  0  0  0  0  0
   43.8554   36.3736   45.0290 H   0  0  0  0  0  0  0  0  0  0  0  0
   44.8607   36.1718   42.6991 H   0  0  0  0  0  0  0  0  0  0  0  0
   47.1966   33.2134   47.0435 H   0  0  0  0  0  0  0  0  0  0  0  0
   46.5557   30.7639   47.0307 H   0  0  0  0  0  0  0  0  0  0  0  0
   45.5938   31.1219   45.5565 H   0  0  0  0  0  0  0  0  0  0  0  0
   47.3702   31.3883   45.5565 H   0  0  0  0  0  0  0  0  0  0  0  0
   45.6634   32.8251   48.7075 H   0  0  0  0  0  0  0  0  0  0  0  0
   44.5412   33.7044   47.6147 H   0  0  0  0  0  0  0  0  0  0  0  0
   44.5717   31.9084   47.6147 H   0  0  0  0  0  0  0  0  0  0  0  0
  1 20  1  0
  2  1  1  0
  3  2  2  0
  4  6  1  0
  4  3  1  0
  5  4  2  0
  6  7  1  0
  7  8  2  0
  7  1  1  0
  9  6  1  0
 10  9  2  0
 11 10  1  0
 12 11  2  0
 12 13  1  0
 13 14  2  0
 14  9  1  0
 14 15  1  0
 15 17  1  0
 16 15  1  0
 18 23  2  0
 19 18  1  0
 20 19  2  0
 20 21  1  0
 21 22  2  0
 22 23  1  0
 22 24  1  0
 24 26  1  0
 25 24  1  0
  2 27  1  0
  3 28  1  0
 10 29  1  0
 11 30  1  0
 12 31  1  0
 13 32  1  0
 15 33  1  0
 16 34  1  0
 16 35  1  0
 16 36  1  0
 17 37  1  0
 17 38  1  0
 17 39  1  0
 18 40  1  0
 19 41  1  0
 24 42  1  0
 25 43  1  0
 25 44  1  0
 25 45  1  0
 26 46  1  0
 26 47  1  0
 26 48  1  0
M  ISO  8  27  14  28  14  29  14  30  14  31  14  32  14  33   8  34   8
M  ISO  8  35   8  36   8  37   8  38   8  39   8  40  14  41  14  42   8
M  ISO  6  43   8  44   8  45   8  46   8  47   8  48   8
M  END
>  <minimizedAffinity>  (1) 
-5.74445724

>  <minimizedRMSD>  (1) 
0.227514371

$$$$
