
     RDKit          3D

 51 53  0  0  0  0  0  0  0  0999 V2000
   46.5750   34.2630   42.2710 N   0  0  0  0  0  0  0  0  0  0  0  0
   47.6280   35.1360   42.1560 C   0  0  0  0  0  0  0  0  0  0  0  0
   48.3250   35.2600   40.9860 C   0  0  0  0  0  0  0  0  0  0  0  0
   47.9270   34.4620   39.9100 C   0  0  0  0  0  0  0  0  0  0  0  0
   48.5450   34.5620   38.8350 O   0  0  0  0  0  0  0  0  0  0  0  0
   46.8890   33.6250   40.0850 N   0  0  0  0  0  0  0  0  0  0  0  0
   46.2240   33.5280   41.2450 C   0  0  0  0  0  0  0  0  0  0  0  0
   45.2820   32.8030   41.4630 O   0  0  0  0  0  0  0  0  0  0  0  0
   46.4570   32.7890   39.0330 C   0  0  0  0  0  0  0  0  0  0  0  0
   45.4850   33.1360   38.1230 C   0  0  0  0  0  0  0  0  0  0  0  0
   45.1110   32.2720   37.1220 C   0  0  0  0  0  0  0  0  0  0  0  0
   45.7060   31.0330   37.0080 C   0  0  0  0  0  0  0  0  0  0  0  0
   46.6610   30.7160   37.9160 C   0  0  0  0  0  0  0  0  0  0  0  0
   47.0880   31.5510   38.9610 C   0  0  0  0  0  0  0  0  0  0  0  0
   48.1510   31.0990   39.9010 C   0  0  0  0  0  0  0  0  0  0  0  0
   49.3840   31.9320   39.9110 C   0  0  0  0  0  0  0  0  0  0  0  0
   47.6780   30.9700   41.3150 C   0  0  0  0  0  0  0  0  0  0  0  0
   44.6390   35.4840   45.1850 C   0  0  0  0  0  0  0  0  0  0  0  0
   45.2000   35.4230   43.8830 C   0  0  0  0  0  0  0  0  0  0  0  0
   46.0090   34.3200   43.6000 C   0  0  0  0  0  0  0  0  0  0  0  0
   46.2370   33.3620   44.5360 N   0  0  0  0  0  0  0  0  0  0  0  0
   45.6690   33.4760   45.7730 C   0  0  0  0  0  0  0  0  0  0  0  0
   44.8950   34.5030   46.0880 N   0  0  0  0  0  0  0  0  0  0  0  0
   45.9400   32.4050   46.7810 C   0  0  0  0  0  0  0  0  0  0  0  0
   45.9760   31.0570   46.0710 C   0  0  0  0  0  0  0  0  0  0  0  0
   44.9950   32.4300   47.9420 C   0  0  0  0  0  0  0  0  0  0  0  0
   47.3470   32.6100   47.3380 C   0  0  0  0  0  0  0  0  0  0  0  0
   47.9171   35.7484   43.0228 H   0  0  0  0  0  0  0  0  0  0  0  0
   49.1674   35.9616   40.8952 H   0  0  0  0  0  0  0  0  0  0  0  0
   44.9998   34.1203   38.1980 H   0  0  0  0  0  0  0  0  0  0  0  0
   44.3311   32.5709   36.4062 H   0  0  0  0  0  0  0  0  0  0  0  0
   45.4172   30.3305   36.2123 H   0  0  0  0  0  0  0  0  0  0  0  0
   47.1382   29.7288   37.8275 H   0  0  0  0  0  0  0  0  0  0  0  0
   48.4071   30.1100   39.4933 H   0  0  0  0  0  0  0  0  0  0  0  0
   49.6820   32.1334   40.9505 H   0  0  0  0  0  0  0  0  0  0  0  0
   50.1935   31.3950   39.3949 H   0  0  0  0  0  0  0  0  0  0  0  0
   49.1879   32.8834   39.3949 H   0  0  0  0  0  0  0  0  0  0  0  0
   48.5075   31.1962   42.0012 H   0  0  0  0  0  0  0  0  0  0  0  0
   46.8531   31.6760   41.4916 H   0  0  0  0  0  0  0  0  0  0  0  0
   47.3258   29.9430   41.4916 H   0  0  0  0  0  0  0  0  0  0  0  0
   43.9937   36.3300   45.4640 H   0  0  0  0  0  0  0  0  0  0  0  0
   45.0074   36.2052   43.1340 H   0  0  0  0  0  0  0  0  0  0  0  0
   45.9976   30.2497   46.8178 H   0  0  0  0  0  0  0  0  0  0  0  0
   45.0804   30.9502   45.4413 H   0  0  0  0  0  0  0  0  0  0  0  0
   46.8760   30.9981   45.4413 H   0  0  0  0  0  0  0  0  0  0  0  0
   45.5675   32.4149   48.8812 H   0  0  0  0  0  0  0  0  0  0  0  0
   44.3853   33.3446   47.8989 H   0  0  0  0  0  0  0  0  0  0  0  0
   44.3378   31.5489   47.8989 H   0  0  0  0  0  0  0  0  0  0  0  0
   47.3105   32.6047   48.4374 H   0  0  0  0  0  0  0  0  0  0  0  0
   48.0015   31.7977   46.9889 H   0  0  0  0  0  0  0  0  0  0  0  0
   47.7425   33.5753   46.9889 H   0  0  0  0  0  0  0  0  0  0  0  0
  1 20  1  0
  2  1  1  0
  3  2  2  0
  4  6  1  0
  4  3  1  0
  5  4  2  0
  6  7  1  0
  7  8  2  0
  7  1  1  0
  9  6  1  0
 10  9  2  0
 11 10  1  0
 12 11  2  0
 12 13  1  0
 13 14  2  0
 14  9  1  0
 14 15  1  0
 15 16  1  0
 15 17  1  0
 18 23  2  0
 19 18  1  0
 20 19  2  0
 20 21  1  0
 21 22  2  0
 22 23  1  0
 22 24  1  0
 24 27  1  0
 24 26  1  0
 25 24  1  0
  2 28  1  0
  3 29  1  0
 10 30  1  0
 11 31  1  0
 12 32  1  0
 13 33  1  0
 15 34  1  0
 16 35  1  0
 16 36  1  0
 16 37  1  0
 17 38  1  0
 17 39  1  0
 17 40  1  0
 18 41  1  0
 19 42  1  0
 25 43  1  0
 25 44  1  0
 25 45  1  0
 26 46  1  0
 26 47  1  0
 26 48  1  0
 27 49  1  0
 27 50  1  0
 27 51  1  0
M  ISO  8  28  14  29  14  30  14  31  14  32  14  33  14  34   8  35   8
M  ISO  8  36   8  37   8  38   8  39   8  40   8  41  14  42  14  43   8
M  ISO  8  44   8  45   8  46   8  47   8  48   8  49   8  50   8  51   8
M  END
>  <minimizedAffinity>  (1) 
-5.70693684

>  <minimizedRMSD>  (1) 
0.4444516

$$$$
