
     RDKit          3D

 41 43  0  0  0  0  0  0  0  0999 V2000
   46.4150   34.4720   41.9900 N   0  0  0  0  0  0  0  0  0  0  0  0
   47.5970   35.1760   41.8600 C   0  0  0  0  0  0  0  0  0  0  0  0
   48.3600   35.0880   40.7200 C   0  0  0  0  0  0  0  0  0  0  0  0
   47.8940   34.2570   39.6980 C   0  0  0  0  0  0  0  0  0  0  0  0
   48.5670   34.1690   38.6600 O   0  0  0  0  0  0  0  0  0  0  0  0
   46.7390   33.5970   39.8860 N   0  0  0  0  0  0  0  0  0  0  0  0
   46.0160   33.7050   41.0080 C   0  0  0  0  0  0  0  0  0  0  0  0
   44.9670   33.1440   41.2350 O   0  0  0  0  0  0  0  0  0  0  0  0
   44.4900   36.1590   44.6550 C   0  0  0  0  0  0  0  0  0  0  0  0
   45.0800   35.9060   43.3910 C   0  0  0  0  0  0  0  0  0  0  0  0
   45.8150   34.7320   43.2640 C   0  0  0  0  0  0  0  0  0  0  0  0
   45.9440   33.8830   44.3280 N   0  0  0  0  0  0  0  0  0  0  0  0
   45.3540   34.1800   45.5170 C   0  0  0  0  0  0  0  0  0  0  0  0
   44.6430   35.2900   45.6840 N   0  0  0  0  0  0  0  0  0  0  0  0
   45.4670   33.3300   46.6280 N   0  0  0  0  0  0  0  0  0  0  0  0
   46.2350   32.7390   38.8860 C   0  0  0  0  0  0  0  0  0  0  0  0
   45.3670   33.1350   37.8950 C   0  0  0  0  0  0  0  0  0  0  0  0
   44.9130   32.2460   36.9530 C   0  0  0  0  0  0  0  0  0  0  0  0
   45.3190   30.9290   36.9790 C   0  0  0  0  0  0  0  0  0  0  0  0
   46.1750   30.5590   37.9660 C   0  0  0  0  0  0  0  0  0  0  0  0
   46.6730   31.4200   38.9560 C   0  0  0  0  0  0  0  0  0  0  0  0
   47.6140   30.9110   39.9930 C   0  0  0  0  0  0  0  0  0  0  0  0
   48.9650   31.5320   39.9860 C   0  0  0  0  0  0  0  0  0  0  0  0
   47.0810   31.0120   41.3880 C   0  0  0  0  0  0  0  0  0  0  0  0
   47.9342   35.8199   42.6856 H   0  0  0  0  0  0  0  0  0  0  0  0
   49.3002   35.6495   40.6164 H   0  0  0  0  0  0  0  0  0  0  0  0
   43.8988   37.0748   44.8030 H   0  0  0  0  0  0  0  0  0  0  0  0
   44.9621   36.6053   42.5501 H   0  0  0  0  0  0  0  0  0  0  0  0
   45.0096   33.5800   47.5164 H   0  0  0  0  0  0  0  0  0  0  0  0
   46.0073   32.4561   46.5550 H   0  0  0  0  0  0  0  0  0  0  0  0
   45.0311   34.1818   37.8569 H   0  0  0  0  0  0  0  0  0  0  0  0
   44.2192   32.5874   36.1706 H   0  0  0  0  0  0  0  0  0  0  0  0
   44.9636   30.2063   36.2298 H   0  0  0  0  0  0  0  0  0  0  0  0
   46.5016   29.5089   37.9914 H   0  0  0  0  0  0  0  0  0  0  0  0
   47.7149   29.8561   39.6979 H   0  0  0  0  0  0  0  0  0  0  0  0
   49.3026   31.6872   41.0214 H   0  0  0  0  0  0  0  0  0  0  0  0
   49.6710   30.8681   39.4657 H   0  0  0  0  0  0  0  0  0  0  0  0
   48.9208   32.5002   39.4657 H   0  0  0  0  0  0  0  0  0  0  0  0
   47.9001   30.8568   42.1056 H   0  0  0  0  0  0  0  0  0  0  0  0
   46.6428   32.0092   41.5418 H   0  0  0  0  0  0  0  0  0  0  0  0
   46.3084   30.2443   41.5418 H   0  0  0  0  0  0  0  0  0  0  0  0
  1 11  1  0
  2  1  1  0
  3  2  2  0
  4  6  1  0
  4  3  1  0
  5  4  2  0
  6  7  1  0
  7  8  2  0
  7  1  1  0
  9 14  2  0
 10  9  1  0
 11 10  2  0
 11 12  1  0
 12 13  2  0
 13 14  1  0
 13 15  1  0
 16 21  1  0
 16  6  1  0
 17 16  2  0
 18 19  2  0
 18 17  1  0
 19 20  1  0
 20 21  2  0
 21 22  1  0
 22 24  1  0
 23 22  1  0
  2 25  1  0
  3 26  1  0
  9 27  1  0
 10 28  1  0
 15 29  1  0
 15 30  1  0
 17 31  1  0
 18 32  1  0
 19 33  1  0
 20 34  1  0
 22 35  1  0
 23 36  1  0
 23 37  1  0
 23 38  1  0
 24 39  1  0
 24 40  1  0
 24 41  1  0
M  ISO  8  25  14  26  14  27  14  28  14  31  14  32  14  33  14  34  14
M  ISO  7  35   8  36   8  37   8  38   8  39   8  40   8  41   8
M  END
>  <minimizedAffinity>  (1) 
-5.6335001

>  <minimizedRMSD>  (1) 
0.326304793

$$$$
