
     RDKit          3D

 42 44  0  0  0  0  0  0  0  0999 V2000
   46.5510   34.4480   41.9420 N   0  0  0  0  0  0  0  0  0  0  0  0
   47.6940   35.2160   41.8340 C   0  0  0  0  0  0  0  0  0  0  0  0
   48.4380   35.2330   40.6830 C   0  0  0  0  0  0  0  0  0  0  0  0
   47.9970   34.4410   39.6180 C   0  0  0  0  0  0  0  0  0  0  0  0
   48.6530   34.4450   38.5640 O   0  0  0  0  0  0  0  0  0  0  0  0
   46.8790   33.7150   39.7850 N   0  0  0  0  0  0  0  0  0  0  0  0
   46.1720   33.7210   40.9230 C   0  0  0  0  0  0  0  0  0  0  0  0
   45.1540   33.0940   41.1300 O   0  0  0  0  0  0  0  0  0  0  0  0
   46.3980   32.8920   38.7440 C   0  0  0  0  0  0  0  0  0  0  0  0
   45.4670   33.2900   37.8140 C   0  0  0  0  0  0  0  0  0  0  0  0
   45.0420   32.4390   36.8260 C   0  0  0  0  0  0  0  0  0  0  0  0
   45.5420   31.1570   36.7440 C   0  0  0  0  0  0  0  0  0  0  0  0
   46.4590   30.7840   37.6710 C   0  0  0  0  0  0  0  0  0  0  0  0
   46.9370   31.6050   38.7070 C   0  0  0  0  0  0  0  0  0  0  0  0
   47.9450   31.0990   39.6710 C   0  0  0  0  0  0  0  0  0  0  0  0
   49.2590   31.7890   39.6400 C   0  0  0  0  0  0  0  0  0  0  0  0
   47.4750   31.1030   41.0920 C   0  0  0  0  0  0  0  0  0  0  0  0
   44.5380   35.8490   44.7060 C   0  0  0  0  0  0  0  0  0  0  0  0
   45.1190   35.6970   43.4240 C   0  0  0  0  0  0  0  0  0  0  0  0
   45.9590   34.6040   43.2440 C   0  0  0  0  0  0  0  0  0  0  0  0
   46.1960   33.7370   44.2650 N   0  0  0  0  0  0  0  0  0  0  0  0
   45.6110   33.9330   45.4760 C   0  0  0  0  0  0  0  0  0  0  0  0
   44.7960   34.9670   45.6980 N   0  0  0  0  0  0  0  0  0  0  0  0
   45.8940   32.9600   46.5750 C   0  0  0  0  0  0  0  0  0  0  0  0
   48.0142   35.8274   42.6906 H   0  0  0  0  0  0  0  0  0  0  0  0
   49.3474   35.8463   40.6001 H   0  0  0  0  0  0  0  0  0  0  0  0
   45.0557   34.3090   37.8632 H   0  0  0  0  0  0  0  0  0  0  0  0
   44.2965   32.7820   36.0935 H   0  0  0  0  0  0  0  0  0  0  0  0
   45.2101   30.4635   35.9573 H   0  0  0  0  0  0  0  0  0  0  0  0
   46.8591   29.7613   37.6073 H   0  0  0  0  0  0  0  0  0  0  0  0
   48.0831   30.0673   39.3152 H   0  0  0  0  0  0  0  0  0  0  0  0
   49.6027   31.9695   40.6692 H   0  0  0  0  0  0  0  0  0  0  0  0
   49.9915   31.1592   39.1139 H   0  0  0  0  0  0  0  0  0  0  0  0
   49.1564   32.7496   39.1139 H   0  0  0  0  0  0  0  0  0  0  0  0
   48.3445   31.0956   41.7658 H   0  0  0  0  0  0  0  0  0  0  0  0
   46.8752   32.0063   41.2773 H   0  0  0  0  0  0  0  0  0  0  0  0
   46.8599   30.2101   41.2773 H   0  0  0  0  0  0  0  0  0  0  0  0
   43.8659   36.6983   44.8983 H   0  0  0  0  0  0  0  0  0  0  0  0
   44.9158   36.4088   42.6103 H   0  0  0  0  0  0  0  0  0  0  0  0
   45.7505   33.4535   47.5476 H   0  0  0  0  0  0  0  0  0  0  0  0
   45.2075   32.1044   46.4931 H   0  0  0  0  0  0  0  0  0  0  0  0
   46.9323   32.6061   46.4931 H   0  0  0  0  0  0  0  0  0  0  0  0
  1 20  1  0
  2  1  1  0
  3  2  2  0
  4  6  1  0
  4  3  1  0
  5  4  2  0
  6  7  1  0
  7  8  2  0
  7  1  1  0
  9  6  1  0
 10  9  2  0
 11 10  1  0
 12 11  2  0
 12 13  1  0
 13 14  2  0
 14  9  1  0
 14 15  1  0
 15 17  1  0
 16 15  1  0
 18 23  2  0
 19 18  1  0
 20 19  2  0
 20 21  1  0
 21 22  2  0
 22 23  1  0
 22 24  1  0
  2 25  1  0
  3 26  1  0
 10 27  1  0
 11 28  1  0
 12 29  1  0
 13 30  1  0
 15 31  1  0
 16 32  1  0
 16 33  1  0
 16 34  1  0
 17 35  1  0
 17 36  1  0
 17 37  1  0
 18 38  1  0
 19 39  1  0
 24 40  1  0
 24 41  1  0
 24 42  1  0
M  ISO  8  25  14  26  14  27  14  28  14  29  14  30  14  31   8  32   8
M  ISO  8  33   8  34   8  35   8  36   8  37   8  38  14  39  14  40   8
M  ISO  2  41   8  42   8
M  END
>  <minimizedAffinity>  (1) 
-5.50301743

>  <minimizedRMSD>  (1) 
0.0150865139

$$$$
