
     RDKit          3D

 35 37  0  0  1  0  0  0  0  0999 V2000
   46.3730   33.9810   42.2980 N   0  0  0  0  0  0  0  0  0  0  0  0
   47.7140   34.2310   41.7810 C   0  0  0  0  0  0  0  0  0  0  0  0
   47.4050   34.3500   40.3020 C   0  0  0  0  0  0  0  0  0  0  0  0
   46.5750   33.0980   40.1140 C   0  0  0  0  0  0  0  0  0  0  0  0
   45.7320   33.0760   41.3480 C   0  0  2  0  0  0  0  0  0  0  0  0
   44.3410   33.3100   41.1600 N   0  0  0  0  0  0  0  0  0  0  0  0
   43.7390   34.2150   40.3700 C   0  0  0  0  0  0  0  0  0  0  0  0
   42.3690   34.3250   40.2860 C   0  0  0  0  0  0  0  0  0  0  0  0
   41.7360   35.3310   39.4090 C   0  0  0  0  0  0  0  0  0  0  0  0
   41.5590   33.4910   41.0270 C   0  0  0  0  0  0  0  0  0  0  0  0
   40.2830   33.5540   40.9840 O   0  0  0  0  0  0  0  0  0  0  0  0
   42.1640   32.5850   41.8170 N   0  0  0  0  0  0  0  0  0  0  0  0
   43.4970   32.5050   41.8740 C   0  0  0  0  0  0  0  0  0  0  0  0
   43.9500   31.6190   42.6490 O   0  0  0  0  0  0  0  0  0  0  0  0
   44.5270   36.1290   44.7050 C   0  0  0  0  0  0  0  0  0  0  0  0
   45.1090   35.7090   43.5030 C   0  0  0  0  0  0  0  0  0  0  0  0
   45.7670   34.4730   43.4560 C   0  0  0  0  0  0  0  0  0  0  0  0
   45.7900   33.7590   44.6110 N   0  0  0  0  0  0  0  0  0  0  0  0
   45.2270   34.1670   45.7680 C   0  0  0  0  0  0  0  0  0  0  0  0
   44.5980   35.3550   45.8000 N   0  0  0  0  0  0  0  0  0  0  0  0
   48.1411   35.1606   42.1853 H   0  0  0  0  0  0  0  0  0  0  0  0
   48.4612   33.4661   42.0391 H   0  0  0  0  0  0  0  0  0  0  0  0
   46.8304   35.2602   40.0755 H   0  0  0  0  0  0  0  0  0  0  0  0
   48.2848   34.4292   39.6465 H   0  0  0  0  0  0  0  0  0  0  0  0
   45.9528   33.1664   39.2095 H   0  0  0  0  0  0  0  0  0  0  0  0
   47.1796   32.1886   39.9814 H   0  0  0  0  0  0  0  0  0  0  0  0
   45.6993   32.0497   41.7426 H   0  0  0  0  0  0  0  0  0  0  0  0
   44.3631   34.8924   39.7687 H   0  0  0  0  0  0  0  0  0  0  0  0
   41.2509   36.1019   40.0258 H   0  0  0  0  0  0  0  0  0  0  0  0
   42.5030   35.7985   38.7740 H   0  0  0  0  0  0  0  0  0  0  0  0
   40.9827   34.8418   38.7740 H   0  0  0  0  0  0  0  0  0  0  0  0
   41.5920   31.9444   42.3856 H   0  0  0  0  0  0  0  0  0  0  0  0
   44.0088   37.0981   44.7527 H   0  0  0  0  0  0  0  0  0  0  0  0
   45.0503   36.3423   42.6055 H   0  0  0  0  0  0  0  0  0  0  0  0
   45.2818   33.5385   46.6691 H   0  0  0  0  0  0  0  0  0  0  0  0
  1 17  1  0
  2  1  1  0
  3  2  1  0
  4  3  1  0
  4  5  1  0
  5  1  1  0
  6  5  1  0
  6 13  1  0
  7  6  1  0
  8  7  2  0
  8 10  1  0
  9  8  1  0
 10 12  1  0
 11 10  2  0
 12 13  1  0
 13 14  2  0
 15 20  2  0
 16 15  1  0
 17 16  2  0
 17 18  1  0
 18 19  2  0
 19 20  1  0
  2 21  1  0
  2 22  1  0
  3 23  1  0
  3 24  1  0
  4 25  1  0
  4 26  1  0
  5 27  1  1
  7 28  1  0
  9 29  1  0
  9 30  1  0
  9 31  1  0
 12 32  1  0
 15 33  1  0
 16 34  1  0
 19 35  1  0
M  ISO  8  21  13  22  13  23  13  24  13  25  13  26  13  27  13  28  14
M  ISO  7  29   8  30   8  31   8  32   9  33  14  34  14  35  14
M  END
>  <minimizedAffinity>  (1) 
-5.42416048

>  <minimizedRMSD>  (1) 
1.94915009

$$$$
