
     RDKit          3D

 35 36  0  0  0  0  0  0  0  0999 V2000
   44.1160   34.9780   41.2710 C   0  0  0  0  0  0  0  0  0  0  0  0
   44.0880   35.8070   42.3820 C   0  0  0  0  0  0  0  0  0  0  0  0
   45.2860   36.0020   43.0950 C   0  0  0  0  0  0  0  0  0  0  0  0
   46.3870   35.3670   42.6490 N   0  0  0  0  0  0  0  0  0  0  0  0
   46.3930   34.5670   41.5690 C   0  0  0  0  0  0  0  0  0  0  0  0
   45.2570   34.3860   40.8980 N   0  0  0  0  0  0  0  0  0  0  0  0
   42.8810   34.7740   40.5230 C   0  0  0  0  0  0  0  0  0  0  0  0
   42.8140   35.1600   39.3130 O   0  0  0  0  0  0  0  0  0  0  0  0
   41.8110   34.1570   41.1750 O   0  0  0  0  0  0  0  0  0  0  0  0
   40.5920   34.8480   41.2730 C   0  0  0  0  0  0  0  0  0  0  0  0
   39.8380   34.7900   40.1130 F   0  0  0  0  0  0  0  0  0  0  0  0
   39.8350   34.3230   42.3020 F   0  0  0  0  0  0  0  0  0  0  0  0
   40.9140   36.1760   41.4970 F   0  0  0  0  0  0  0  0  0  0  0  0
   47.5950   33.8930   41.0650 C   0  0  0  0  0  0  0  0  0  0  0  0
   48.7600   33.9880   42.0200 C   0  0  0  0  0  0  0  0  0  0  0  0
   47.3000   32.4480   40.8170 C   0  0  0  0  0  0  0  0  0  0  0  0
   47.9810   34.5190   39.7660 C   0  0  0  0  0  0  0  0  0  0  0  0
   47.7460   33.7600   38.5160 C   0  0  0  0  0  0  0  0  0  0  0  0
   48.9270   33.2670   37.7350 C   0  0  0  0  0  0  0  0  0  0  0  0
   48.2440   34.4940   37.2500 C   0  0  0  0  0  0  0  0  0  0  0  0
   43.1558   36.2985   42.6974 H   0  0  0  0  0  0  0  0  0  0  0  0
   45.3217   36.6492   43.9837 H   0  0  0  0  0  0  0  0  0  0  0  0
   48.3890   33.9577   43.0551 H   0  0  0  0  0  0  0  0  0  0  0  0
   49.4430   33.1426   41.8504 H   0  0  0  0  0  0  0  0  0  0  0  0
   49.2970   34.9329   41.8504 H   0  0  0  0  0  0  0  0  0  0  0  0
   47.1933   31.9252   41.7789 H   0  0  0  0  0  0  0  0  0  0  0  0
   46.3649   32.3576   40.2448 H   0  0  0  0  0  0  0  0  0  0  0  0
   48.1249   31.9983   40.2448 H   0  0  0  0  0  0  0  0  0  0  0  0
   47.4224   35.4629   39.6822 H   0  0  0  0  0  0  0  0  0  0  0  0
   49.0759   34.6063   39.8251 H   0  0  0  0  0  0  0  0  0  0  0  0
   46.8236   33.2812   38.8766 H   0  0  0  0  0  0  0  0  0  0  0  0
   49.9350   33.3418   38.1690 H   0  0  0  0  0  0  0  0  0  0  0  0
   49.1877   32.3042   37.2712 H   0  0  0  0  0  0  0  0  0  0  0  0
   48.7387   35.4726   37.3378 H   0  0  0  0  0  0  0  0  0  0  0  0
   47.7889   34.8126   36.3006 H   0  0  0  0  0  0  0  0  0  0  0  0
  1  2  2  0
  2  3  1  0
  4  3  2  0
  5  4  1  0
  6  1  1  0
  6  5  2  0
  7  9  1  0
  7  1  1  0
  8  7  2  0
  9 10  1  0
 10 13  1  0
 10 12  1  0
 11 10  1  0
 14  5  1  0
 14 15  1  0
 16 14  1  0
 17 14  1  0
 18 17  1  0
 19 18  1  0
 20 19  1  0
 20 18  1  0
  2 21  1  0
  3 22  1  0
 15 23  1  0
 15 24  1  0
 15 25  1  0
 16 26  1  0
 16 27  1  0
 16 28  1  0
 17 29  1  0
 17 30  1  0
 18 31  1  0
 19 32  1  0
 19 33  1  0
 20 34  1  0
 20 35  1  0
M  ISO  8  21  14  22  14  23   8  24   8  25   8  26   8  27   8  28   8
M  ISO  7  29   8  30   8  31  13  32  13  33  13  34  13  35  13
M  END
>  <minimizedAffinity>  (1) 
-5.05416918

>  <minimizedRMSD>  (1) 
3.83813572

$$$$
