
     RDKit          3D

 28 30  0  0  0  0  0  0  0  0999 V2000
   44.1190   31.9940   41.4990 C   0  0  0  0  0  0  0  0  0  0  0  0
   45.2680   31.4520   41.0380 C   0  0  0  0  0  0  0  0  0  0  0  0
   46.3970   31.6710   42.4560 S   0  0  0  0  0  0  0  0  0  0  0  0
   45.0260   32.5020   43.4640 C   0  0  0  0  0  0  0  0  0  0  0  0
   44.1360   32.4720   42.7010 N   0  0  0  0  0  0  0  0  0  0  0  0
   45.3690   32.9290   44.7960 N   0  0  0  0  0  0  0  0  0  0  0  0
   46.6500   33.3120   45.1830 C   0  0  0  0  0  0  0  0  0  0  0  0
   47.4320   33.7270   44.2380 N   0  0  0  0  0  0  0  0  0  0  0  0
   46.9480   33.1990   46.5790 N   0  0  0  0  0  0  0  0  0  0  0  0
   48.4000   33.9980   44.5300 H   0  0  0  0  0  0  0  0  0  0  0  0
   40.8690   31.0760   39.7230 C   0  0  0  0  0  0  0  0  0  0  0  0
   42.0020   30.9760   40.5550 C   0  0  0  0  0  0  0  0  0  0  0  0
   42.9080   32.0280   40.6470 C   0  0  0  0  0  0  0  0  0  0  0  0
   42.5890   33.1080   39.8800 N   0  0  0  0  0  0  0  0  0  0  0  0
   41.5230   33.2150   39.0910 C   0  0  0  0  0  0  0  0  0  0  0  0
   40.6720   32.1920   39.0220 N   0  0  0  0  0  0  0  0  0  0  0  0
   41.3120   34.4390   38.3240 C   0  0  0  0  0  0  0  0  0  0  0  0
   40.2040   34.7200   37.6030 N   0  0  0  0  0  0  0  0  0  0  0  0
   40.3860   35.8820   37.0720 O   0  0  0  0  0  0  0  0  0  0  0  0
   41.5550   36.3740   37.4100 C   0  0  0  0  0  0  0  0  0  0  0  0
   42.1670   35.4730   38.2090 N   0  0  0  0  0  0  0  0  0  0  0  0
   45.4712   30.9953   40.0581 H   0  0  0  0  0  0  0  0  0  0  0  0
   44.6218   32.9524   45.5045 H   0  0  0  0  0  0  0  0  0  0  0  0
   47.8786   33.4664   46.9302 H   0  0  0  0  0  0  0  0  0  0  0  0
   46.2317   32.8503   47.2319 H   0  0  0  0  0  0  0  0  0  0  0  0
   40.1551   30.2420   39.6530 H   0  0  0  0  0  0  0  0  0  0  0  0
   42.1716   30.0581   41.1369 H   0  0  0  0  0  0  0  0  0  0  0  0
   41.9635   37.3466   37.0982 H   0  0  0  0  0  0  0  0  0  0  0  0
  1  5  1  0
  2  1  2  0
  2  3  1  0
  3  4  1  0
  4  6  1  0
  5  4  2  0
  6  7  1  0
  7  9  1  0
  8 10  1  0
  8  7  2  0
 11 12  2  0
 12 13  1  0
 13  1  1  0
 14 13  2  0
 15 14  1  0
 16 15  2  0
 16 11  1  0
 17 15  1  0
 18 17  2  0
 19 20  1  0
 19 18  1  0
 20 21  2  0
 21 17  1  0
  2 22  1  0
  6 23  1  0
  9 24  1  0
  9 25  1  0
 11 26  1  0
 12 27  1  0
 20 28  1  0
M  ISO  4  22  14  26  14  27  14  28  14
M  END
>  <minimizedAffinity>  (1) 
-4.90814209

>  <minimizedRMSD>  (1) 
2.34135652

$$$$
