
     RDKit          3D

 41 44  0  0  1  0  0  0  0  0999 V2000
   46.4120   33.8760   42.3130 N   0  0  0  0  0  0  0  0  0  0  0  0
   47.7330   34.1760   41.7660 C   0  0  0  0  0  0  0  0  0  0  0  0
   47.3860   34.3940   40.3150 C   0  0  0  0  0  0  0  0  0  0  0  0
   46.5420   33.1810   40.0460 C   0  0  0  0  0  0  0  0  0  0  0  0
   45.7420   33.0420   41.3040 C   0  0  2  0  0  0  0  0  0  0  0  0
   44.5370   35.7540   44.9040 C   0  0  0  0  0  0  0  0  0  0  0  0
   45.0750   35.4240   43.6620 C   0  0  0  0  0  0  0  0  0  0  0  0
   45.8440   34.2670   43.5250 C   0  0  0  0  0  0  0  0  0  0  0  0
   46.0220   33.5200   44.6470 N   0  0  0  0  0  0  0  0  0  0  0  0
   45.4940   33.8510   45.8530 C   0  0  0  0  0  0  0  0  0  0  0  0
   44.7590   34.9640   45.9680 N   0  0  0  0  0  0  0  0  0  0  0  0
   45.6990   33.0500   47.0080 N   0  0  0  0  0  0  0  0  0  0  0  0
   46.9310   32.5810   47.2330 C   0  0  0  0  0  0  0  0  0  0  0  0
   46.9110   31.8450   48.3770 N   0  0  0  0  0  0  0  0  0  0  0  0
   45.6440   31.8720   48.8450 C   0  0  0  0  0  0  0  0  0  0  0  0
   44.9140   32.6210   47.9830 N   0  0  0  0  0  0  0  0  0  0  0  0
   44.3490   33.2720   41.1900 N   0  0  0  0  0  0  0  0  0  0  0  0
   43.7290   34.2110   40.4740 C   0  0  0  0  0  0  0  0  0  0  0  0
   42.3540   34.3420   40.4380 C   0  0  0  0  0  0  0  0  0  0  0  0
   41.5630   33.4760   41.1680 C   0  0  0  0  0  0  0  0  0  0  0  0
   40.2870   33.5520   41.1710 O   0  0  0  0  0  0  0  0  0  0  0  0
   42.1870   32.5370   41.8840 N   0  0  0  0  0  0  0  0  0  0  0  0
   43.5130   32.4490   41.8880 C   0  0  0  0  0  0  0  0  0  0  0  0
   44.0070   31.5200   42.6040 O   0  0  0  0  0  0  0  0  0  0  0  0
   41.6860   35.3900   39.6360 C   0  0  0  0  0  0  0  0  0  0  0  0
   48.1652   35.0797   42.2205 H   0  0  0  0  0  0  0  0  0  0  0  0
   48.4906   33.3987   41.9446 H   0  0  0  0  0  0  0  0  0  0  0  0
   46.8171   35.3241   40.1695 H   0  0  0  0  0  0  0  0  0  0  0  0
   48.2546   34.5030   39.6489 H   0  0  0  0  0  0  0  0  0  0  0  0
   45.8872   33.3398   39.1765 H   0  0  0  0  0  0  0  0  0  0  0  0
   47.1340   32.2851   39.8074 H   0  0  0  0  0  0  0  0  0  0  0  0
   45.7337   31.9842   41.6057 H   0  0  0  0  0  0  0  0  0  0  0  0
   43.9287   36.6639   45.0139 H   0  0  0  0  0  0  0  0  0  0  0  0
   44.8945   36.0729   42.7923 H   0  0  0  0  0  0  0  0  0  0  0  0
   47.8123   32.7602   46.5996 H   0  0  0  0  0  0  0  0  0  0  0  0
   45.2739   31.3783   49.7556 H   0  0  0  0  0  0  0  0  0  0  0  0
   44.3394   34.9123   39.8861 H   0  0  0  0  0  0  0  0  0  0  0  0
   41.6325   31.8714   42.4411 H   0  0  0  0  0  0  0  0  0  0  0  0
   41.2182   36.1240   40.3086 H   0  0  0  0  0  0  0  0  0  0  0  0
   42.4289   35.8955   39.0015 H   0  0  0  0  0  0  0  0  0  0  0  0
   40.9142   34.9299   39.0015 H   0  0  0  0  0  0  0  0  0  0  0  0
  1  8  1  0
  2  1  1  0
  3  2  1  0
  4  3  1  0
  4  5  1  0
  5  1  1  0
  6 11  2  0
  7  6  1  0
  8  7  2  0
  8  9  1  0
  9 10  2  0
 10 11  1  0
 10 12  1  0
 12 13  1  0
 12 16  1  0
 13 14  2  0
 14 15  1  0
 16 15  2  0
 17  5  1  0
 17 23  1  0
 18 17  1  0
 19 18  2  0
 19 20  1  0
 20 21  2  0
 20 22  1  0
 22 23  1  0
 23 24  2  0
 25 19  1  0
  2 26  1  0
  2 27  1  0
  3 28  1  0
  3 29  1  0
  4 30  1  0
  4 31  1  0
  5 32  1  1
  6 33  1  0
  7 34  1  0
 13 35  1  0
 15 36  1  0
 18 37  1  0
 22 38  1  0
 25 39  1  0
 25 40  1  0
 25 41  1  0
M  ISO  8  26  13  27  13  28  13  29  13  30  13  31  13  32  13  33  14
M  ISO  8  34  14  35  14  36  14  37  14  38   9  39   8  40   8  41   8
M  END
>  <minimizedAffinity>  (1) 
-6.90005159

>  <minimizedRMSD>  (1) 
0.362591028

$$$$
