
     RDKit          3D

 42 45  0  0  1  0  0  0  0  0999 V2000
   46.6330   34.0350   42.4480 N   0  0  0  0  0  0  0  0  0  0  0  0
   47.9720   34.4030   41.9880 C   0  0  0  0  0  0  0  0  0  0  0  0
   47.6970   34.6390   40.5210 C   0  0  0  0  0  0  0  0  0  0  0  0
   46.9340   33.3830   40.1850 C   0  0  0  0  0  0  0  0  0  0  0  0
   46.0720   33.1880   41.3900 C   0  0  2  0  0  0  0  0  0  0  0  0
   44.6700   33.3490   41.1950 N   0  0  0  0  0  0  0  0  0  0  0  0
   44.0560   34.2470   40.4240 C   0  0  0  0  0  0  0  0  0  0  0  0
   42.6750   34.3140   40.3090 C   0  0  0  0  0  0  0  0  0  0  0  0
   41.8900   33.4250   41.0120 C   0  0  0  0  0  0  0  0  0  0  0  0
   40.6090   33.4410   40.9430 O   0  0  0  0  0  0  0  0  0  0  0  0
   42.5140   32.5190   41.7900 N   0  0  0  0  0  0  0  0  0  0  0  0
   43.8360   32.5040   41.8590 C   0  0  0  0  0  0  0  0  0  0  0  0
   44.3300   31.6120   42.6200 O   0  0  0  0  0  0  0  0  0  0  0  0
   42.0120   35.3180   39.4490 C   0  0  0  0  0  0  0  0  0  0  0  0
   44.5380   35.7920   44.9520 C   0  0  0  0  0  0  0  0  0  0  0  0
   45.1670   35.5110   43.7290 C   0  0  0  0  0  0  0  0  0  0  0  0
   45.9790   34.3800   43.6220 C   0  0  0  0  0  0  0  0  0  0  0  0
   46.1020   33.6120   44.7470 N   0  0  0  0  0  0  0  0  0  0  0  0
   45.4890   33.8950   45.9190 C   0  0  0  0  0  0  0  0  0  0  0  0
   44.7170   34.9810   46.0050 N   0  0  0  0  0  0  0  0  0  0  0  0
   45.6770   33.0210   47.0680 C   0  0  0  0  0  0  0  0  0  0  0  0
   46.8690   32.4500   47.4540 C   0  0  0  0  0  0  0  0  0  0  0  0
   46.6490   31.7070   48.5580 N   0  0  0  0  0  0  0  0  0  0  0  0
   45.3310   31.8530   48.8040 C   0  0  0  0  0  0  0  0  0  0  0  0
   44.7020   32.6390   47.9270 N   0  0  0  0  0  0  0  0  0  0  0  0
   48.3374   35.3135   42.4854 H   0  0  0  0  0  0  0  0  0  0  0  0
   48.7523   33.6561   42.1963 H   0  0  0  0  0  0  0  0  0  0  0  0
   47.0875   35.5406   40.3610 H   0  0  0  0  0  0  0  0  0  0  0  0
   48.5928   34.8121   39.9065 H   0  0  0  0  0  0  0  0  0  0  0  0
   46.3245   33.5197   39.2796 H   0  0  0  0  0  0  0  0  0  0  0  0
   47.5844   32.5222   39.9704 H   0  0  0  0  0  0  0  0  0  0  0  0
   46.1041   32.1266   41.6770 H   0  0  0  0  0  0  0  0  0  0  0  0
   44.6687   34.9631   39.8566 H   0  0  0  0  0  0  0  0  0  0  0  0
   41.9624   31.8380   42.3311 H   0  0  0  0  0  0  0  0  0  0  0  0
   41.5153   36.0702   40.0795 H   0  0  0  0  0  0  0  0  0  0  0  0
   42.7633   35.8102   38.8139 H   0  0  0  0  0  0  0  0  0  0  0  0
   41.2643   34.8204   38.8139 H   0  0  0  0  0  0  0  0  0  0  0  0
   43.8962   36.6803   45.0470 H   0  0  0  0  0  0  0  0  0  0  0  0
   45.0218   36.1748   42.8639 H   0  0  0  0  0  0  0  0  0  0  0  0
   47.8371   32.5781   46.9476 H   0  0  0  0  0  0  0  0  0  0  0  0
   44.8209   31.3688   49.6498 H   0  0  0  0  0  0  0  0  0  0  0  0
   43.7047   32.8958   47.9080 H   0  0  0  0  0  0  0  0  0  0  0  0
  1 17  1  0
  2  1  1  0
  3  2  1  0
  4  3  1  0
  4  5  1  0
  5  1  1  0
  6  5  1  0
  6 12  1  0
  7  6  1  0
  8  7  2  0
  8  9  1  0
  9 11  1  0
 10  9  2  0
 11 12  1  0
 12 13  2  0
 14  8  1  0
 15 20  2  0
 16 15  1  0
 17 16  2  0
 17 18  1  0
 18 19  2  0
 19 20  1  0
 19 21  1  0
 21 22  2  0
 21 25  1  0
 22 23  1  0
 23 24  2  0
 25 24  1  0
  2 26  1  0
  2 27  1  0
  3 28  1  0
  3 29  1  0
  4 30  1  0
  4 31  1  0
  5 32  1  1
  7 33  1  0
 11 34  1  0
 14 35  1  0
 14 36  1  0
 14 37  1  0
 15 38  1  0
 16 39  1  0
 22 40  1  0
 24 41  1  0
 25 42  1  0
M  ISO  8  26  13  27  13  28  13  29  13  30  13  31  13  32  13  33  14
M  ISO  8  34   9  35   8  36   8  37   8  38  14  39  14  40  14  41  14
M  ISO  1  42   9
M  END
>  <minimizedAffinity>  (1) 
-6.96086264

>  <minimizedRMSD>  (1) 
0.552946568

$$$$
