
     RDKit          3D

 42 45  0  0  1  0  0  0  0  0999 V2000
   46.6200   34.0570   42.4560 N   0  0  0  0  0  0  0  0  0  0  0  0
   47.9560   34.4220   41.9950 C   0  0  0  0  0  0  0  0  0  0  0  0
   47.7030   34.6220   40.5270 C   0  0  0  0  0  0  0  0  0  0  0  0
   46.9350   33.3760   40.2030 C   0  0  0  0  0  0  0  0  0  0  0  0
   46.0650   33.1980   41.4040 C   0  0  2  0  0  0  0  0  0  0  0  0
   44.6730   33.3580   41.1980 N   0  0  0  0  0  0  0  0  0  0  0  0
   44.0560   34.2510   40.4230 C   0  0  0  0  0  0  0  0  0  0  0  0
   42.6760   34.3150   40.2980 C   0  0  0  0  0  0  0  0  0  0  0  0
   41.8820   33.4270   40.9940 C   0  0  0  0  0  0  0  0  0  0  0  0
   40.6060   33.4430   40.9150 O   0  0  0  0  0  0  0  0  0  0  0  0
   42.5070   32.5210   41.7810 N   0  0  0  0  0  0  0  0  0  0  0  0
   43.8280   32.5070   41.8610 C   0  0  0  0  0  0  0  0  0  0  0  0
   44.3190   31.6170   42.6270 O   0  0  0  0  0  0  0  0  0  0  0  0
   42.0210   35.3160   39.4310 C   0  0  0  0  0  0  0  0  0  0  0  0
   44.5380   35.8670   44.9350 C   0  0  0  0  0  0  0  0  0  0  0  0
   45.1760   35.5700   43.7320 C   0  0  0  0  0  0  0  0  0  0  0  0
   45.9560   34.4140   43.6280 C   0  0  0  0  0  0  0  0  0  0  0  0
   46.0390   33.6440   44.7400 N   0  0  0  0  0  0  0  0  0  0  0  0
   45.4160   33.9390   45.9080 C   0  0  0  0  0  0  0  0  0  0  0  0
   44.6750   35.0470   45.9860 N   0  0  0  0  0  0  0  0  0  0  0  0
   45.5790   33.0200   47.0620 C   0  0  0  0  0  0  0  0  0  0  0  0
   45.8470   31.5950   46.8570 C   0  0  0  0  0  0  0  0  0  0  0  0
   46.9920   32.5380   47.2370 C   0  0  0  0  0  0  0  0  0  0  0  0
   48.3110   35.3463   42.4741 H   0  0  0  0  0  0  0  0  0  0  0  0
   48.7355   33.6810   42.2258 H   0  0  0  0  0  0  0  0  0  0  0  0
   47.1058   35.5263   40.3385 H   0  0  0  0  0  0  0  0  0  0  0  0
   48.6112   34.7675   39.9236 H   0  0  0  0  0  0  0  0  0  0  0  0
   46.3312   33.5087   39.2932 H   0  0  0  0  0  0  0  0  0  0  0  0
   47.5803   32.5082   40.0018 H   0  0  0  0  0  0  0  0  0  0  0  0
   46.0937   32.1403   41.7048 H   0  0  0  0  0  0  0  0  0  0  0  0
   44.6687   34.9687   39.8578 H   0  0  0  0  0  0  0  0  0  0  0  0
   41.9529   31.8400   42.3196 H   0  0  0  0  0  0  0  0  0  0  0  0
   41.5252   36.0737   40.0556 H   0  0  0  0  0  0  0  0  0  0  0  0
   42.7766   35.8016   38.7960 H   0  0  0  0  0  0  0  0  0  0  0  0
   41.2735   34.8180   38.7960 H   0  0  0  0  0  0  0  0  0  0  0  0
   43.9221   36.7743   45.0217 H   0  0  0  0  0  0  0  0  0  0  0  0
   45.0665   36.2420   42.8681 H   0  0  0  0  0  0  0  0  0  0  0  0
   44.8141   33.5292   47.6667 H   0  0  0  0  0  0  0  0  0  0  0  0
   45.4790   30.8565   47.5844 H   0  0  0  0  0  0  0  0  0  0  0  0
   45.6678   30.8806   46.0399 H   0  0  0  0  0  0  0  0  0  0  0  0
   47.7646   32.8004   46.4993 H   0  0  0  0  0  0  0  0  0  0  0  0
   47.7498   32.5816   48.0331 H   0  0  0  0  0  0  0  0  0  0  0  0
  1 17  1  0
  2  1  1  0
  3  2  1  0
  4  3  1  0
  4  5  1  0
  5  1  1  0
  6  5  1  0
  6 12  1  0
  7  6  1  0
  8  7  2  0
  8  9  1  0
  9 11  1  0
 10  9  2  0
 11 12  1  0
 12 13  2  0
 14  8  1  0
 15 20  2  0
 16 15  1  0
 17 16  2  0
 17 18  1  0
 18 19  2  0
 19 20  1  0
 19 21  1  0
 21 23  1  0
 22 21  1  0
 22 23  1  0
  2 24  1  0
  2 25  1  0
  3 26  1  0
  3 27  1  0
  4 28  1  0
  4 29  1  0
  5 30  1  1
  7 31  1  0
 11 32  1  0
 14 33  1  0
 14 34  1  0
 14 35  1  0
 15 36  1  0
 16 37  1  0
 21 38  1  0
 22 39  1  0
 22 40  1  0
 23 41  1  0
 23 42  1  0
M  ISO  8  24  13  25  13  26  13  27  13  28  13  29  13  30  13  31  14
M  ISO  8  32   9  33   8  34   8  35   8  36  14  37  14  38  13  39  13
M  ISO  3  40  13  41  13  42  13
M  END
>  <minimizedAffinity>  (1) 
-6.04960299

>  <minimizedRMSD>  (1) 
0.580628395

$$$$
