
     RDKit          3D

 38 40  0  0  1  0  0  0  0  0999 V2000
   46.3740   33.9430   42.1060 N   0  0  0  0  0  0  0  0  0  0  0  0
   47.7140   34.1520   41.5640 C   0  0  0  0  0  0  0  0  0  0  0  0
   47.3880   34.2860   40.0950 C   0  0  0  0  0  0  0  0  0  0  0  0
   46.5200   33.0630   39.9050 C   0  0  0  0  0  0  0  0  0  0  0  0
   45.6950   33.0530   41.1510 C   0  0  2  0  0  0  0  0  0  0  0  0
   44.3120   33.3100   40.9990 N   0  0  0  0  0  0  0  0  0  0  0  0
   43.7310   34.2010   40.1960 C   0  0  0  0  0  0  0  0  0  0  0  0
   42.3560   34.3680   40.1280 C   0  0  0  0  0  0  0  0  0  0  0  0
   41.5290   33.5960   40.9110 C   0  0  0  0  0  0  0  0  0  0  0  0
   40.2560   33.7030   40.8950 O   0  0  0  0  0  0  0  0  0  0  0  0
   42.1210   32.6930   41.7260 N   0  0  0  0  0  0  0  0  0  0  0  0
   43.4400   32.5750   41.7500 C   0  0  0  0  0  0  0  0  0  0  0  0
   43.8960   31.6960   42.5510 O   0  0  0  0  0  0  0  0  0  0  0  0
   41.7360   35.3650   39.2270 C   0  0  0  0  0  0  0  0  0  0  0  0
   44.5800   36.1080   44.5240 C   0  0  0  0  0  0  0  0  0  0  0  0
   45.1250   35.6780   43.3120 C   0  0  0  0  0  0  0  0  0  0  0  0
   45.8000   34.4470   43.2690 C   0  0  0  0  0  0  0  0  0  0  0  0
   45.8750   33.7500   44.4340 N   0  0  0  0  0  0  0  0  0  0  0  0
   45.3410   34.1790   45.6030 C   0  0  0  0  0  0  0  0  0  0  0  0
   44.7010   35.3510   45.6350 N   0  0  0  0  0  0  0  0  0  0  0  0
   45.4590   33.3780   46.8170 C   0  0  0  0  0  0  0  0  0  0  0  0
   46.3990   32.5570   46.9410 O   0  0  0  0  0  0  0  0  0  0  0  0
   44.5440   33.5060   47.8510 O   0  0  0  0  0  0  0  0  0  0  0  0
   48.1776   35.0659   41.9638 H   0  0  0  0  0  0  0  0  0  0  0  0
   48.4391   33.3611   41.8063 H   0  0  0  0  0  0  0  0  0  0  0  0
   46.8374   35.2142   39.8822 H   0  0  0  0  0  0  0  0  0  0  0  0
   48.2624   34.3409   39.4299 H   0  0  0  0  0  0  0  0  0  0  0  0
   45.8873   33.1600   39.0104 H   0  0  0  0  0  0  0  0  0  0  0  0
   47.0948   32.1375   39.7530 H   0  0  0  0  0  0  0  0  0  0  0  0
   45.6482   32.0217   41.5309 H   0  0  0  0  0  0  0  0  0  0  0  0
   44.3697   34.8312   39.5597 H   0  0  0  0  0  0  0  0  0  0  0  0
   41.5424   32.0935   42.3316 H   0  0  0  0  0  0  0  0  0  0  0  0
   41.2490   36.1482   39.8265 H   0  0  0  0  0  0  0  0  0  0  0  0
   42.5118   35.8182   38.5924 H   0  0  0  0  0  0  0  0  0  0  0  0
   40.9864   34.8696   38.5924 H   0  0  0  0  0  0  0  0  0  0  0  0
   44.0487   37.0699   44.5735 H   0  0  0  0  0  0  0  0  0  0  0  0
   45.0271   36.2936   42.4056 H   0  0  0  0  0  0  0  0  0  0  0  0
   44.6394   32.9544   48.6675 H   0  0  0  0  0  0  0  0  0  0  0  0
  1 17  1  0
  2  1  1  0
  3  2  1  0
  4  3  1  0
  4  5  1  0
  5  1  1  0
  6  5  1  0
  6 12  1  0
  7  6  1  0
  8  7  2  0
  8  9  1  0
  9 11  1  0
 10  9  2  0
 11 12  1  0
 12 13  2  0
 14  8  1  0
 15 20  2  0
 16 15  1  0
 17 16  2  0
 17 18  1  0
 18 19  2  0
 19 20  1  0
 19 21  1  0
 21 22  2  0
 21 23  1  0
  2 24  1  0
  2 25  1  0
  3 26  1  0
  3 27  1  0
  4 28  1  0
  4 29  1  0
  5 30  1  1
  7 31  1  0
 11 32  1  0
 14 33  1  0
 14 34  1  0
 14 35  1  0
 15 36  1  0
 16 37  1  0
 23 38  1  0
M  ISO  8  24  13  25  13  26  13  27  13  28  13  29  13  30  13  31  14
M  ISO  7  32   9  33   8  34   8  35   8  36  14  37  14  38   3
M  END
>  <minimizedAffinity>  (1) 
-6.35967112

>  <minimizedRMSD>  (1) 
0.195580691

$$$$
