
     RDKit          3D

 41 43  0  0  1  0  0  0  0  0999 V2000
   46.4840   33.9660   42.3360 N   0  0  0  0  0  0  0  0  0  0  0  0
   47.8200   34.2700   41.8280 C   0  0  0  0  0  0  0  0  0  0  0  0
   47.5210   34.4710   40.3650 C   0  0  0  0  0  0  0  0  0  0  0  0
   46.6950   33.2420   40.0840 C   0  0  0  0  0  0  0  0  0  0  0  0
   45.8540   33.1180   41.3130 C   0  0  2  0  0  0  0  0  0  0  0  0
   44.4590   33.3350   41.1550 N   0  0  0  0  0  0  0  0  0  0  0  0
   43.8650   34.2540   40.3840 C   0  0  0  0  0  0  0  0  0  0  0  0
   42.4850   34.3750   40.3050 C   0  0  0  0  0  0  0  0  0  0  0  0
   41.6740   33.5400   41.0310 C   0  0  0  0  0  0  0  0  0  0  0  0
   40.3980   33.6060   40.9980 O   0  0  0  0  0  0  0  0  0  0  0  0
   42.2860   32.6240   41.7990 N   0  0  0  0  0  0  0  0  0  0  0  0
   43.6060   32.5400   41.8470 C   0  0  0  0  0  0  0  0  0  0  0  0
   44.0780   31.6350   42.6070 O   0  0  0  0  0  0  0  0  0  0  0  0
   41.8470   35.4020   39.4440 C   0  0  0  0  0  0  0  0  0  0  0  0
   44.5490   35.8900   44.8540 C   0  0  0  0  0  0  0  0  0  0  0  0
   45.1380   35.5490   43.6220 C   0  0  0  0  0  0  0  0  0  0  0  0
   45.8750   34.3640   43.5260 C   0  0  0  0  0  0  0  0  0  0  0  0
   45.9690   33.6160   44.6470 N   0  0  0  0  0  0  0  0  0  0  0  0
   45.4070   33.9390   45.8270 C   0  0  0  0  0  0  0  0  0  0  0  0
   44.6980   35.0830   45.9140 N   0  0  0  0  0  0  0  0  0  0  0  0
   45.5280   33.1000   47.0420 C   0  0  0  0  0  0  0  0  0  0  0  0
   46.9340   32.5160   47.1830 C   0  0  0  0  0  0  0  0  0  0  0  0
   48.2309   35.1813   42.2870 H   0  0  0  0  0  0  0  0  0  0  0  0
   48.5759   33.4991   42.0387 H   0  0  0  0  0  0  0  0  0  0  0  0
   46.9487   35.3940   40.1902 H   0  0  0  0  0  0  0  0  0  0  0  0
   48.4093   34.5831   39.7260 H   0  0  0  0  0  0  0  0  0  0  0  0
   46.0704   33.3808   39.1892 H   0  0  0  0  0  0  0  0  0  0  0  0
   47.3019   32.3475   39.8804 H   0  0  0  0  0  0  0  0  0  0  0  0
   45.8420   32.0624   41.6222 H   0  0  0  0  0  0  0  0  0  0  0  0
   44.4926   34.9369   39.7926 H   0  0  0  0  0  0  0  0  0  0  0  0
   41.7175   31.9747   42.3612 H   0  0  0  0  0  0  0  0  0  0  0  0
   41.3719   36.1667   40.0761 H   0  0  0  0  0  0  0  0  0  0  0  0
   42.6110   35.8741   38.8089 H   0  0  0  0  0  0  0  0  0  0  0  0
   41.0852   34.9263   38.8089 H   0  0  0  0  0  0  0  0  0  0  0  0
   43.9665   36.8185   44.9470 H   0  0  0  0  0  0  0  0  0  0  0  0
   45.0204   36.2051   42.7470 H   0  0  0  0  0  0  0  0  0  0  0  0
   45.3071   33.7168   47.9256 H   0  0  0  0  0  0  0  0  0  0  0  0
   44.8153   32.2664   46.9577 H   0  0  0  0  0  0  0  0  0  0  0  0
   47.1828   32.4126   48.2495 H   0  0  0  0  0  0  0  0  0  0  0  0
   46.9708   31.5282   46.7005 H   0  0  0  0  0  0  0  0  0  0  0  0
   47.6599   33.1870   46.7005 H   0  0  0  0  0  0  0  0  0  0  0  0
  1 17  1  0
  2  1  1  0
  3  2  1  0
  4  3  1  0
  4  5  1  0
  5  1  1  0
  6  5  1  0
  6 12  1  0
  7  6  1  0
  8  7  2  0
  8  9  1  0
  9 11  1  0
 10  9  2  0
 11 12  1  0
 12 13  2  0
 14  8  1  0
 15 20  2  0
 16 15  1  0
 17 16  2  0
 17 18  1  0
 18 19  2  0
 19 20  1  0
 19 21  1  0
 21 22  1  0
  2 23  1  0
  2 24  1  0
  3 25  1  0
  3 26  1  0
  4 27  1  0
  4 28  1  0
  5 29  1  1
  7 30  1  0
 11 31  1  0
 14 32  1  0
 14 33  1  0
 14 34  1  0
 15 35  1  0
 16 36  1  0
 21 37  1  0
 21 38  1  0
 22 39  1  0
 22 40  1  0
 22 41  1  0
M  ISO  8  23  13  24  13  25  13  26  13  27  13  28  13  29  13  30  14
M  ISO  8  31   9  32   8  33   8  34   8  35  14  36  14  37   8  38   8
M  ISO  3  39   8  40   8  41   8
M  END
>  <minimizedAffinity>  (1) 
-5.80631256

>  <minimizedRMSD>  (1) 
0.364669561

$$$$
