
     RDKit          3D

 37 39  0  0  1  0  0  0  0  0999 V2000
   46.4580   33.9420   42.2820 N   0  0  0  0  0  0  0  0  0  0  0  0
   47.7870   34.2410   41.7610 C   0  0  0  0  0  0  0  0  0  0  0  0
   47.4590   34.4600   40.2970 C   0  0  0  0  0  0  0  0  0  0  0  0
   46.6200   33.2420   40.0190 C   0  0  0  0  0  0  0  0  0  0  0  0
   45.8050   33.1070   41.2610 C   0  0  2  0  0  0  0  0  0  0  0  0
   44.4140   33.3420   41.1270 N   0  0  0  0  0  0  0  0  0  0  0  0
   43.8010   34.2620   40.3850 C   0  0  0  0  0  0  0  0  0  0  0  0
   42.4260   34.4050   40.3280 C   0  0  0  0  0  0  0  0  0  0  0  0
   41.6250   33.5600   41.0730 C   0  0  0  0  0  0  0  0  0  0  0  0
   40.3470   33.6420   41.0630 O   0  0  0  0  0  0  0  0  0  0  0  0
   42.2420   32.6340   41.8200 N   0  0  0  0  0  0  0  0  0  0  0  0
   43.5640   32.5390   41.8400 C   0  0  0  0  0  0  0  0  0  0  0  0
   44.0460   31.6260   42.5830 O   0  0  0  0  0  0  0  0  0  0  0  0
   41.7730   35.4330   39.4970 C   0  0  0  0  0  0  0  0  0  0  0  0
   44.5740   35.8290   44.8580 C   0  0  0  0  0  0  0  0  0  0  0  0
   45.1310   35.5030   43.6150 C   0  0  0  0  0  0  0  0  0  0  0  0
   45.8720   34.3350   43.4840 C   0  0  0  0  0  0  0  0  0  0  0  0
   46.0070   33.5700   44.6030 N   0  0  0  0  0  0  0  0  0  0  0  0
   45.4690   33.8880   45.7950 C   0  0  0  0  0  0  0  0  0  0  0  0
   44.7550   35.0180   45.9120 N   0  0  0  0  0  0  0  0  0  0  0  0
   45.6460   33.0310   46.9620 C   0  0  0  0  0  0  0  0  0  0  0  0
   44.8280   33.0390   47.8980 O   0  0  0  0  0  0  0  0  0  0  0  0
   48.2117   35.1445   42.2228 H   0  0  0  0  0  0  0  0  0  0  0  0
   48.5429   33.4653   41.9532 H   0  0  0  0  0  0  0  0  0  0  0  0
   46.8902   35.3888   40.1428 H   0  0  0  0  0  0  0  0  0  0  0  0
   48.3359   34.5718   39.6424 H   0  0  0  0  0  0  0  0  0  0  0  0
   45.9779   33.3963   39.1393 H   0  0  0  0  0  0  0  0  0  0  0  0
   47.2169   32.3464   39.7921 H   0  0  0  0  0  0  0  0  0  0  0  0
   45.7941   32.0487   41.5610 H   0  0  0  0  0  0  0  0  0  0  0  0
   44.4208   34.9448   39.7853 H   0  0  0  0  0  0  0  0  0  0  0  0
   41.6793   31.9850   42.3883 H   0  0  0  0  0  0  0  0  0  0  0  0
   41.2972   36.1821   40.1470 H   0  0  0  0  0  0  0  0  0  0  0  0
   42.5254   35.9235   38.8620 H   0  0  0  0  0  0  0  0  0  0  0  0
   41.0092   34.9604   38.8620 H   0  0  0  0  0  0  0  0  0  0  0  0
   43.9866   36.7522   44.9707 H   0  0  0  0  0  0  0  0  0  0  0  0
   44.9831   36.1660   42.7498 H   0  0  0  0  0  0  0  0  0  0  0  0
   46.5199   32.3650   47.0148 H   0  0  0  0  0  0  0  0  0  0  0  0
  1 17  1  0
  2  1  1  0
  3  2  1  0
  4  3  1  0
  4  5  1  0
  5  1  1  0
  6  5  1  0
  6 12  1  0
  7  6  1  0
  8  7  2  0
  8  9  1  0
  9 11  1  0
 10  9  2  0
 11 12  1  0
 12 13  2  0
 14  8  1  0
 15 20  2  0
 16 15  1  0
 17 16  2  0
 17 18  1  0
 18 19  2  0
 19 20  1  0
 19 21  1  0
 21 22  2  0
  2 23  1  0
  2 24  1  0
  3 25  1  0
  3 26  1  0
  4 27  1  0
  4 28  1  0
  5 29  1  1
  7 30  1  0
 11 31  1  0
 14 32  1  0
 14 33  1  0
 14 34  1  0
 15 35  1  0
 16 36  1  0
 21 37  1  0
M  ISO  8  23  13  24  13  25  13  26  13  27  13  28  13  29  13  30  14
M  ISO  7  31   9  32   8  33   8  34   8  35  14  36  14  37   6
M  END
>  <minimizedAffinity>  (1) 
-5.69928074

>  <minimizedRMSD>  (1) 
0.258697271

$$$$
