
     RDKit          3D

 50 53  0  0  1  0  0  0  0  0999 V2000
   46.3520   33.9250   42.3350 N   0  0  0  0  0  0  0  0  0  0  0  0
   47.6350   34.2680   41.7120 C   0  0  0  0  0  0  0  0  0  0  0  0
   47.2320   34.2260   40.2620 C   0  0  0  0  0  0  0  0  0  0  0  0
   46.5400   32.8870   40.2040 C   0  0  0  0  0  0  0  0  0  0  0  0
   45.7880   32.8680   41.4980 C   0  0  2  0  0  0  0  0  0  0  0  0
   44.5210   36.1610   44.6780 C   0  0  0  0  0  0  0  0  0  0  0  0
   45.1060   35.6860   43.5020 C   0  0  0  0  0  0  0  0  0  0  0  0
   45.7460   34.4580   43.4830 C   0  0  0  0  0  0  0  0  0  0  0  0
   45.7650   33.7650   44.6560 N   0  0  0  0  0  0  0  0  0  0  0  0
   45.2020   34.2240   45.7870 C   0  0  0  0  0  0  0  0  0  0  0  0
   44.5840   35.4160   45.7900 N   0  0  0  0  0  0  0  0  0  0  0  0
   45.3320   33.3480   46.9070 N   0  0  0  0  0  0  0  0  0  0  0  0
   44.3710   32.8910   41.4110 N   0  0  0  0  0  0  0  0  0  0  0  0
   43.6260   33.6830   40.6270 C   0  0  0  0  0  0  0  0  0  0  0  0
   42.2420   33.6380   40.5990 C   0  0  0  0  0  0  0  0  0  0  0  0
   41.5720   32.7330   41.4160 C   0  0  0  0  0  0  0  0  0  0  0  0
   40.3100   32.6510   41.4340 O   0  0  0  0  0  0  0  0  0  0  0  0
   42.3300   31.9410   42.2000 N   0  0  0  0  0  0  0  0  0  0  0  0
   43.6560   32.0300   42.1840 C   0  0  0  0  0  0  0  0  0  0  0  0
   44.2690   31.2420   42.9590 O   0  0  0  0  0  0  0  0  0  0  0  0
   41.4660   34.5070   39.7040 C   0  0  0  0  0  0  0  0  0  0  0  0
   41.3150   34.0920   38.3030 C   0  0  0  0  0  0  0  0  0  0  0  0
   40.8840   32.7230   37.9730 C   0  0  0  0  0  0  0  0  0  0  0  0
   39.3690   32.7130   37.9810 C   0  0  0  0  0  0  0  0  0  0  0  0
   38.9090   34.1480   38.0760 C   0  0  0  0  0  0  0  0  0  0  0  0
   40.1450   34.9330   37.7330 C   0  0  0  0  0  0  0  0  0  0  0  0
   47.9815   35.2680   42.0119 H   0  0  0  0  0  0  0  0  0  0  0  0
   48.4748   33.6108   41.9818 H   0  0  0  0  0  0  0  0  0  0  0  0
   46.5467   35.0480   40.0076 H   0  0  0  0  0  0  0  0  0  0  0  0
   48.0648   34.3412   39.5527 H   0  0  0  0  0  0  0  0  0  0  0  0
   45.8568   32.8273   39.3440 H   0  0  0  0  0  0  0  0  0  0  0  0
   47.2278   32.0378   40.0787 H   0  0  0  0  0  0  0  0  0  0  0  0
   45.9319   31.8808   41.9614 H   0  0  0  0  0  0  0  0  0  0  0  0
   44.0136   37.1369   44.6912 H   0  0  0  0  0  0  0  0  0  0  0  0
   45.0581   36.2913   42.5848 H   0  0  0  0  0  0  0  0  0  0  0  0
   44.9320   33.6141   47.8181 H   0  0  0  0  0  0  0  0  0  0  0  0
   45.8258   32.4500   46.8038 H   0  0  0  0  0  0  0  0  0  0  0  0
   44.1391   34.4041   39.9738 H   0  0  0  0  0  0  0  0  0  0  0  0
   41.8749   31.2566   42.8208 H   0  0  0  0  0  0  0  0  0  0  0  0
   40.4557   34.5968   40.1297 H   0  0  0  0  0  0  0  0  0  0  0  0
   42.0466   35.4400   39.6541 H   0  0  0  0  0  0  0  0  0  0  0  0
   42.3369   34.2048   37.9117 H   0  0  0  0  0  0  0  0  0  0  0  0
   41.2690   32.0162   38.7228 H   0  0  0  0  0  0  0  0  0  0  0  0
   41.2701   32.4200   36.9886 H   0  0  0  0  0  0  0  0  0  0  0  0
   38.9910   32.2575   37.0538 H   0  0  0  0  0  0  0  0  0  0  0  0
   38.9887   32.1260   38.8300 H   0  0  0  0  0  0  0  0  0  0  0  0
   38.1015   34.3510   37.3571 H   0  0  0  0  0  0  0  0  0  0  0  0
   38.4984   34.4031   39.0641 H   0  0  0  0  0  0  0  0  0  0  0  0
   40.2431   35.0458   36.6432 H   0  0  0  0  0  0  0  0  0  0  0  0
   40.1214   35.9504   38.1505 H   0  0  0  0  0  0  0  0  0  0  0  0
  1  8  1  0
  2  1  1  0
  3  2  1  0
  4  3  1  0
  4  5  1  0
  5  1  1  0
  6 11  2  0
  7  6  1  0
  8  7  2  0
  8  9  1  0
  9 10  2  0
 10 11  1  0
 10 12  1  0
 13  5  1  0
 13 19  1  0
 14 13  1  0
 15 14  2  0
 15 16  1  0
 16 17  2  0
 16 18  1  0
 19 18  1  0
 19 20  2  0
 21 15  1  0
 22 21  1  0
 23 24  1  0
 23 22  1  0
 24 25  1  0
 26 25  1  0
 26 22  1  0
  2 27  1  0
  2 28  1  0
  3 29  1  0
  3 30  1  0
  4 31  1  0
  4 32  1  0
  5 33  1  1
  6 34  1  0
  7 35  1  0
 12 36  1  0
 12 37  1  0
 14 38  1  0
 18 39  1  0
 21 40  1  0
 21 41  1  0
 22 42  1  0
 23 43  1  0
 23 44  1  0
 24 45  1  0
 24 46  1  0
 25 47  1  0
 25 48  1  0
 26 49  1  0
 26 50  1  0
M  ISO  8  27  13  28  13  29  13  30  13  31  13  32  13  33  13  34  14
M  ISO  8  35  14  38  14  39   9  40   8  41   8  42  13  43  13  44  13
M  ISO  6  45  13  46  13  47  13  48  13  49  13  50  13
M  END
>  <minimizedAffinity>  (1) 
-6.87946844

>  <minimizedRMSD>  (1) 
0.64564693

$$$$
