
     RDKit          3D

 44 47  0  0  1  0  0  0  0  0999 V2000
   45.7990   33.6730   42.1890 N   0  0  0  0  0  0  0  0  0  0  0  0
   47.0100   33.8630   41.4050 C   0  0  0  0  0  0  0  0  0  0  0  0
   46.4310   33.7980   40.0050 C   0  0  0  0  0  0  0  0  0  0  0  0
   45.6070   32.5440   40.0990 C   0  0  0  0  0  0  0  0  0  0  0  0
   45.0260   32.6480   41.4720 C   0  0  2  0  0  0  0  0  0  0  0  0
   44.5140   36.1380   44.6400 C   0  0  0  0  0  0  0  0  0  0  0  0
   44.8930   35.5830   43.4150 C   0  0  0  0  0  0  0  0  0  0  0  0
   45.4010   34.2910   43.3680 C   0  0  0  0  0  0  0  0  0  0  0  0
   45.4950   33.6340   44.5670 N   0  0  0  0  0  0  0  0  0  0  0  0
   45.1300   34.1690   45.7400 C   0  0  0  0  0  0  0  0  0  0  0  0
   44.6400   35.4200   45.7720 N   0  0  0  0  0  0  0  0  0  0  0  0
   45.3050   33.3280   46.8760 N   0  0  0  0  0  0  0  0  0  0  0  0
   43.6230   32.8190   41.5520 N   0  0  0  0  0  0  0  0  0  0  0  0
   42.9200   33.8910   41.1990 C   0  0  0  0  0  0  0  0  0  0  0  0
   41.5380   33.9780   41.3110 C   0  0  0  0  0  0  0  0  0  0  0  0
   40.8350   32.8860   41.8200 C   0  0  0  0  0  0  0  0  0  0  0  0
   39.5740   32.9230   41.9400 O   0  0  0  0  0  0  0  0  0  0  0  0
   41.5460   31.8180   42.1690 N   0  0  0  0  0  0  0  0  0  0  0  0
   42.8610   31.7990   42.0390 C   0  0  0  0  0  0  0  0  0  0  0  0
   43.4440   30.7250   42.4050 O   0  0  0  0  0  0  0  0  0  0  0  0
   40.8080   35.1980   40.8970 C   0  0  0  0  0  0  0  0  0  0  0  0
   40.2550   34.9740   39.5380 C   0  0  0  0  0  0  0  0  0  0  0  0
   40.9040   35.3920   38.3900 C   0  0  0  0  0  0  0  0  0  0  0  0
   40.1710   35.0620   37.2950 N   0  0  0  0  0  0  0  0  0  0  0  0
   39.0880   34.4470   37.8010 C   0  0  0  0  0  0  0  0  0  0  0  0
   39.1080   34.3770   39.1670 N   0  0  0  0  0  0  0  0  0  0  0  0
   47.4789   34.8371   41.6079 H   0  0  0  0  0  0  0  0  0  0  0  0
   47.8119   33.1381   41.6086 H   0  0  0  0  0  0  0  0  0  0  0  0
   47.2204   33.7077   39.2442 H   0  0  0  0  0  0  0  0  0  0  0  0
   45.8663   34.6926   39.7037 H   0  0  0  0  0  0  0  0  0  0  0  0
   44.8181   32.5272   39.3326 H   0  0  0  0  0  0  0  0  0  0  0  0
   46.1854   31.6230   39.9337 H   0  0  0  0  0  0  0  0  0  0  0  0
   45.1263   31.6685   41.9624 H   0  0  0  0  0  0  0  0  0  0  0  0
   44.1127   37.1614   44.6796 H   0  0  0  0  0  0  0  0  0  0  0  0
   44.7893   36.1682   42.4894 H   0  0  0  0  0  0  0  0  0  0  0  0
   45.0472   33.6684   47.8133 H   0  0  0  0  0  0  0  0  0  0  0  0
   45.6893   32.3794   46.7602 H   0  0  0  0  0  0  0  0  0  0  0  0
   43.4635   34.7581   40.7954 H   0  0  0  0  0  0  0  0  0  0  0  0
   41.0632   30.9906   42.5475 H   0  0  0  0  0  0  0  0  0  0  0  0
   39.9887   35.3984   41.6032 H   0  0  0  0  0  0  0  0  0  0  0  0
   41.4887   36.0621   40.8906 H   0  0  0  0  0  0  0  0  0  0  0  0
   41.8715   35.9148   38.3672 H   0  0  0  0  0  0  0  0  0  0  0  0
   38.2728   34.0432   37.1826 H   0  0  0  0  0  0  0  0  0  0  0  0
   38.3960   33.9565   39.7811 H   0  0  0  0  0  0  0  0  0  0  0  0
  1  8  1  0
  2  1  1  0
  3  4  1  0
  3  2  1  0
  4  5  1  0
  5 13  1  0
  5  1  1  0
  6 11  2  0
  7  6  1  0
  8  7  2  0
  8  9  1  0
  9 10  2  0
 10 11  1  0
 10 12  1  0
 13 19  1  0
 14 15  2  0
 14 13  1  0
 15 16  1  0
 16 17  2  0
 16 18  1  0
 19 18  1  0
 19 20  2  0
 21 15  1  0
 22 21  1  0
 23 22  2  0
 24 25  2  0
 24 23  1  0
 25 26  1  0
 26 22  1  0
  2 27  1  0
  2 28  1  0
  3 29  1  0
  3 30  1  0
  4 31  1  0
  4 32  1  0
  5 33  1  1
  6 34  1  0
  7 35  1  0
 12 36  1  0
 12 37  1  0
 14 38  1  0
 18 39  1  0
 21 40  1  0
 21 41  1  0
 23 42  1  0
 25 43  1  0
 26 44  1  0
M  ISO  8  27  13  28  13  29  13  30  13  31  13  32  13  33  13  34  14
M  ISO  8  35  14  38  14  39   9  40   8  41   8  42  14  43  14  44   9
M  END
>  <minimizedAffinity>  (1) 
-6.43009424

>  <minimizedRMSD>  (1) 
1.28810978

$$$$
