
     RDKit          3D

 49 52  0  0  1  0  0  0  0  0999 V2000
   45.9670   33.7030   42.2280 N   0  0  0  0  0  0  0  0  0  0  0  0
   47.1130   34.0570   41.3940 C   0  0  0  0  0  0  0  0  0  0  0  0
   46.5110   33.8410   40.0280 C   0  0  0  0  0  0  0  0  0  0  0  0
   45.9050   32.4790   40.1960 C   0  0  0  0  0  0  0  0  0  0  0  0
   45.3530   32.5330   41.5830 C   0  0  2  0  0  0  0  0  0  0  0  0
   44.5030   36.1070   44.6410 C   0  0  0  0  0  0  0  0  0  0  0  0
   44.9400   35.5780   43.4270 C   0  0  0  0  0  0  0  0  0  0  0  0
   45.5050   34.3050   43.3950 C   0  0  0  0  0  0  0  0  0  0  0  0
   45.5900   33.6540   44.5900 N   0  0  0  0  0  0  0  0  0  0  0  0
   45.1670   34.1710   45.7500 C   0  0  0  0  0  0  0  0  0  0  0  0
   44.6190   35.4100   45.7660 N   0  0  0  0  0  0  0  0  0  0  0  0
   45.3420   33.3350   46.8900 N   0  0  0  0  0  0  0  0  0  0  0  0
   43.9370   32.4800   41.7050 N   0  0  0  0  0  0  0  0  0  0  0  0
   43.0590   33.3670   41.2410 C   0  0  0  0  0  0  0  0  0  0  0  0
   41.6980   33.2520   41.3970 C   0  0  0  0  0  0  0  0  0  0  0  0
   41.1900   32.1470   42.0790 C   0  0  0  0  0  0  0  0  0  0  0  0
   39.9410   31.9690   42.2640 O   0  0  0  0  0  0  0  0  0  0  0  0
   42.0820   31.2530   42.5460 N   0  0  0  0  0  0  0  0  0  0  0  0
   43.3730   31.4320   42.3570 C   0  0  0  0  0  0  0  0  0  0  0  0
   44.1350   30.5300   42.8370 O   0  0  0  0  0  0  0  0  0  0  0  0
   40.7360   34.2440   40.8740 C   0  0  0  0  0  0  0  0  0  0  0  0
   40.4720   34.0360   39.4660 N   0  0  0  0  0  0  0  0  0  0  0  0
   40.9020   35.1550   38.6600 C   0  0  0  0  0  0  0  0  0  0  0  0
   40.0610   35.1090   37.3990 C   0  0  0  0  0  0  0  0  0  0  0  0
   38.9360   34.1850   37.7250 C   0  0  0  0  0  0  0  0  0  0  0  0
   39.0990   33.7940   39.1760 C   0  0  0  0  0  0  0  0  0  0  0  0
   47.4217   35.1020   41.5447 H   0  0  0  0  0  0  0  0  0  0  0  0
   48.0301   33.4837   41.5948 H   0  0  0  0  0  0  0  0  0  0  0  0
   47.2802   33.8470   39.2417 H   0  0  0  0  0  0  0  0  0  0  0  0
   45.7988   34.6197   39.7174 H   0  0  0  0  0  0  0  0  0  0  0  0
   45.1075   32.3061   39.4583 H   0  0  0  0  0  0  0  0  0  0  0  0
   46.6236   31.6601   40.0442 H   0  0  0  0  0  0  0  0  0  0  0  0
   45.6217   31.6021   42.1038 H   0  0  0  0  0  0  0  0  0  0  0  0
   44.0574   37.1124   44.6674 H   0  0  0  0  0  0  0  0  0  0  0  0
   44.8392   36.1622   42.5004 H   0  0  0  0  0  0  0  0  0  0  0  0
   45.0415   33.6619   47.8194 H   0  0  0  0  0  0  0  0  0  0  0  0
   45.7691   32.4036   46.7849 H   0  0  0  0  0  0  0  0  0  0  0  0
   43.4456   34.2438   40.7008 H   0  0  0  0  0  0  0  0  0  0  0  0
   41.7516   30.4213   43.0559 H   0  0  0  0  0  0  0  0  0  0  0  0
   39.7920   34.1549   41.4316 H   0  0  0  0  0  0  0  0  0  0  0  0
   41.1716   35.2463   40.9990 H   0  0  0  0  0  0  0  0  0  0  0  0
   40.7340   36.1000   39.1973 H   0  0  0  0  0  0  0  0  0  0  0  0
   41.9762   35.0971   38.4304 H   0  0  0  0  0  0  0  0  0  0  0  0
   40.6494   34.7204   36.5547 H   0  0  0  0  0  0  0  0  0  0  0  0
   39.7060   36.1063   37.0999 H   0  0  0  0  0  0  0  0  0  0  0  0
   37.9724   34.6941   37.5759 H   0  0  0  0  0  0  0  0  0  0  0  0
   38.9512   33.2990   37.0732 H   0  0  0  0  0  0  0  0  0  0  0  0
   38.4528   34.4103   39.8183 H   0  0  0  0  0  0  0  0  0  0  0  0
   38.8144   32.7472   39.3584 H   0  0  0  0  0  0  0  0  0  0  0  0
  1  8  1  0
  2  1  1  0
  3  4  1  0
  3  2  1  0
  4  5  1  0
  5 13  1  0
  5  1  1  0
  6 11  2  0
  7  6  1  0
  8  7  2  0
  8  9  1  0
  9 10  2  0
 10 11  1  0
 10 12  1  0
 13 19  1  0
 14 15  2  0
 14 13  1  0
 15 16  1  0
 16 17  2  0
 16 18  1  0
 19 18  1  0
 19 20  2  0
 21 15  1  0
 22 21  1  0
 23 22  1  0
 24 25  1  0
 24 23  1  0
 25 26  1  0
 26 22  1  0
  2 27  1  0
  2 28  1  0
  3 29  1  0
  3 30  1  0
  4 31  1  0
  4 32  1  0
  5 33  1  1
  6 34  1  0
  7 35  1  0
 12 36  1  0
 12 37  1  0
 14 38  1  0
 18 39  1  0
 21 40  1  0
 21 41  1  0
 23 42  1  0
 23 43  1  0
 24 44  1  0
 24 45  1  0
 25 46  1  0
 25 47  1  0
 26 48  1  0
 26 49  1  0
M  ISO  8  27  13  28  13  29  13  30  13  31  13  32  13  33  13  34  14
M  ISO  8  35  14  38  14  39   9  40   8  41   8  42  13  43  13  44  13
M  ISO  5  45  13  46  13  47  13  48  13  49  13
M  END
>  <minimizedAffinity>  (1) 
-6.41832066

>  <minimizedRMSD>  (1) 
1.57285035

$$$$
