
     RDKit          3D

 51 55  0  0  1  0  0  0  0  0999 V2000
   44.0670   31.7430   41.9350 N   0  0  0  0  0  0  0  0  0  0  0  0
   42.9440   32.4110   41.6620 C   0  0  0  0  0  0  0  0  0  0  0  0
   41.7060   31.9950   42.0870 C   0  0  0  0  0  0  0  0  0  0  0  0
   41.5820   30.8280   42.8390 C   0  0  0  0  0  0  0  0  0  0  0  0
   40.4600   30.3930   43.2590 O   0  0  0  0  0  0  0  0  0  0  0  0
   42.7250   30.1630   43.1060 N   0  0  0  0  0  0  0  0  0  0  0  0
   43.8890   30.6100   42.6730 C   0  0  0  0  0  0  0  0  0  0  0  0
   44.9090   29.9100   42.9790 O   0  0  0  0  0  0  0  0  0  0  0  0
   45.8020   33.4470   41.9360 N   0  0  0  0  0  0  0  0  0  0  0  0
   46.6690   33.9290   40.8650 C   0  0  0  0  0  0  0  0  0  0  0  0
   45.9170   33.3970   39.6680 C   0  0  0  0  0  0  0  0  0  0  0  0
   45.6970   31.9640   40.0860 C   0  0  0  0  0  0  0  0  0  0  0  0
   45.3920   32.0840   41.5470 C   0  0  2  0  0  0  0  0  0  0  0  0
   44.4300   35.9310   44.3390 C   0  0  0  0  0  0  0  0  0  0  0  0
   44.7980   35.3510   43.1240 C   0  0  0  0  0  0  0  0  0  0  0  0
   45.4060   34.0920   43.1090 C   0  0  0  0  0  0  0  0  0  0  0  0
   45.5990   33.5050   44.3240 N   0  0  0  0  0  0  0  0  0  0  0  0
   45.2410   34.0690   45.4990 C   0  0  0  0  0  0  0  0  0  0  0  0
   44.6570   35.2840   45.4940 N   0  0  0  0  0  0  0  0  0  0  0  0
   45.5280   33.2980   46.6580 N   0  0  0  0  0  0  0  0  0  0  0  0
   40.4670   32.7380   41.7890 C   0  0  0  0  0  0  0  0  0  0  0  0
   39.9320   32.5280   40.4390 C   0  0  0  0  0  0  0  0  0  0  0  0
   39.2930   31.4090   40.0430 N   0  0  0  0  0  0  0  0  0  0  0  0
   38.8650   31.3900   38.7500 C   0  0  0  0  0  0  0  0  0  0  0  0
   39.0290   32.3910   37.8480 N   0  0  0  0  0  0  0  0  0  0  0  0
   39.6670   33.4980   38.2610 C   0  0  0  0  0  0  0  0  0  0  0  0
   39.8790   34.5750   37.4080 C   0  0  0  0  0  0  0  0  0  0  0  0
   40.5310   35.7160   37.8190 C   0  0  0  0  0  0  0  0  0  0  0  0
   40.9980   35.8270   39.1050 C   0  0  0  0  0  0  0  0  0  0  0  0
   40.7930   34.7650   39.9590 C   0  0  0  0  0  0  0  0  0  0  0  0
   40.1400   33.6060   39.5680 C   0  0  0  0  0  0  0  0  0  0  0  0
   43.0132   33.3357   41.0703 H   0  0  0  0  0  0  0  0  0  0  0  0
   42.6888   29.2930   43.6562 H   0  0  0  0  0  0  0  0  0  0  0  0
   46.7330   35.0271   40.8532 H   0  0  0  0  0  0  0  0  0  0  0  0
   47.7188   33.6082   40.9357 H   0  0  0  0  0  0  0  0  0  0  0  0
   46.5190   33.4629   38.7497 H   0  0  0  0  0  0  0  0  0  0  0  0
   44.9957   33.9477   39.4275 H   0  0  0  0  0  0  0  0  0  0  0  0
   44.8521   31.5181   39.5408 H   0  0  0  0  0  0  0  0  0  0  0  0
   46.5580   31.3130   39.8743 H   0  0  0  0  0  0  0  0  0  0  0  0
   45.9599   31.3222   42.1012 H   0  0  0  0  0  0  0  0  0  0  0  0
   43.9522   36.9218   44.3507 H   0  0  0  0  0  0  0  0  0  0  0  0
   44.6100   35.8834   42.1800 H   0  0  0  0  0  0  0  0  0  0  0  0
   45.2849   33.6605   47.5909 H   0  0  0  0  0  0  0  0  0  0  0  0
   45.9791   32.3767   46.5650 H   0  0  0  0  0  0  0  0  0  0  0  0
   39.6994   32.4275   42.5132 H   0  0  0  0  0  0  0  0  0  0  0  0
   40.7227   33.8057   41.8576 H   0  0  0  0  0  0  0  0  0  0  0  0
   38.3413   30.4854   38.4072 H   0  0  0  0  0  0  0  0  0  0  0  0
   39.5144   34.5138   36.3720 H   0  0  0  0  0  0  0  0  0  0  0  0
   40.6788   36.5450   37.1113 H   0  0  0  0  0  0  0  0  0  0  0  0
   41.5193   36.7347   39.4431 H   0  0  0  0  0  0  0  0  0  0  0  0
   41.1623   34.8398   40.9925 H   0  0  0  0  0  0  0  0  0  0  0  0
  1  7  1  0
  2  1  1  0
  2  3  2  0
  3  4  1  0
  4  6  1  0
  4  5  2  0
  7  8  2  0
  7  6  1  0
  9 16  1  0
 10  9  1  0
 11 12  1  0
 11 10  1  0
 12 13  1  0
 13  1  1  0
 13  9  1  0
 14 19  2  0
 15 14  1  0
 16 15  2  0
 16 17  1  0
 17 18  2  0
 18 20  1  0
 19 18  1  0
 21  3  1  0
 22 21  1  0
 23 22  2  0
 24 23  1  0
 25 26  1  0
 25 24  2  0
 26 31  2  0
 27 28  2  0
 27 26  1  0
 28 29  1  0
 29 30  2  0
 31 30  1  0
 31 22  1  0
  2 32  1  0
  6 33  1  0
 10 34  1  0
 10 35  1  0
 11 36  1  0
 11 37  1  0
 12 38  1  0
 12 39  1  0
 13 40  1  1
 14 41  1  0
 15 42  1  0
 20 43  1  0
 20 44  1  0
 21 45  1  0
 21 46  1  0
 24 47  1  0
 27 48  1  0
 28 49  1  0
 29 50  1  0
 30 51  1  0
M  ISO  8  32  14  33   9  34  13  35  13  36  13  37  13  38  13  39  13
M  ISO  8  40  13  41  14  42  14  45   8  46   8  47  14  48  14  49  14
M  ISO  2  50  14  51  14
M  END
>  <minimizedAffinity>  (1) 
-6.66165972

>  <minimizedRMSD>  (1) 
2.54025507

$$$$
