
     RDKit          3D

 44 47  0  0  1  0  0  0  0  0999 V2000
   46.6510   33.7540   42.5530 N   0  0  0  0  0  0  0  0  0  0  0  0
   47.8810   34.1810   41.8890 C   0  0  0  0  0  0  0  0  0  0  0  0
   47.5580   33.7770   40.4660 C   0  0  0  0  0  0  0  0  0  0  0  0
   47.0830   32.3610   40.6690 C   0  0  0  0  0  0  0  0  0  0  0  0
   46.2920   32.4710   41.9340 C   0  0  2  0  0  0  0  0  0  0  0  0
   44.5690   36.1690   44.4390 C   0  0  0  0  0  0  0  0  0  0  0  0
   45.2750   35.6010   43.3820 C   0  0  0  0  0  0  0  0  0  0  0  0
   45.9220   34.3860   43.5660 C   0  0  0  0  0  0  0  0  0  0  0  0
   45.8170   33.8230   44.7980 N   0  0  0  0  0  0  0  0  0  0  0  0
   45.1330   34.3830   45.8110 C   0  0  0  0  0  0  0  0  0  0  0  0
   44.5120   35.5530   45.6250 N   0  0  0  0  0  0  0  0  0  0  0  0
   45.1450   33.6290   47.0310 N   0  0  0  0  0  0  0  0  0  0  0  0
   44.8970   32.2490   41.8220 N   0  0  0  0  0  0  0  0  0  0  0  0
   44.0800   32.7320   40.8950 C   0  0  0  0  0  0  0  0  0  0  0  0
   42.7220   32.4560   40.8680 C   0  0  0  0  0  0  0  0  0  0  0  0
   42.1610   31.6410   41.8410 C   0  0  0  0  0  0  0  0  0  0  0  0
   40.9210   31.3650   41.8500 O   0  0  0  0  0  0  0  0  0  0  0  0
   42.9880   31.1620   42.7660 N   0  0  0  0  0  0  0  0  0  0  0  0
   44.2840   31.4540   42.7510 C   0  0  0  0  0  0  0  0  0  0  0  0
   44.9870   30.9440   43.6800 O   0  0  0  0  0  0  0  0  0  0  0  0
   41.8460   33.0140   39.8070 C   0  0  0  0  0  0  0  0  0  0  0  0
   41.2010   34.2500   40.1810 N   0  0  0  0  0  0  0  0  0  0  0  0
   41.7600   35.0130   41.1260 N   0  0  0  0  0  0  0  0  0  0  0  0
   41.0350   36.1000   41.3350 C   0  0  0  0  0  0  0  0  0  0  0  0
   39.9710   35.9950   40.4630 C   0  0  0  0  0  0  0  0  0  0  0  0
   40.0700   34.8270   39.7320 C   0  0  0  0  0  0  0  0  0  0  0  0
   48.0401   35.2656   41.9804 H   0  0  0  0  0  0  0  0  0  0  0  0
   48.8056   33.7473   42.2978 H   0  0  0  0  0  0  0  0  0  0  0  0
   48.4496   33.8156   39.8230 H   0  0  0  0  0  0  0  0  0  0  0  0
   46.8306   34.4313   39.9632 H   0  0  0  0  0  0  0  0  0  0  0  0
   46.4519   32.0282   39.8317 H   0  0  0  0  0  0  0  0  0  0  0  0
   47.8988   31.6249   40.7210 H   0  0  0  0  0  0  0  0  0  0  0  0
   46.5676   31.6323   42.5903 H   0  0  0  0  0  0  0  0  0  0  0  0
   44.0545   37.1310   44.2979 H   0  0  0  0  0  0  0  0  0  0  0  0
   45.3200   36.1108   42.4083 H   0  0  0  0  0  0  0  0  0  0  0  0
   44.6464   33.9827   47.8600 H   0  0  0  0  0  0  0  0  0  0  0  0
   45.6522   32.7338   47.0782 H   0  0  0  0  0  0  0  0  0  0  0  0
   44.4994   33.3811   40.1122 H   0  0  0  0  0  0  0  0  0  0  0  0
   42.6164   30.5527   43.5086 H   0  0  0  0  0  0  0  0  0  0  0  0
   41.0678   32.2726   39.5729 H   0  0  0  0  0  0  0  0  0  0  0  0
   42.4880   33.2342   38.9413 H   0  0  0  0  0  0  0  0  0  0  0  0
   41.2369   36.9117   42.0494 H   0  0  0  0  0  0  0  0  0  0  0  0
   39.1619   36.7336   40.3642 H   0  0  0  0  0  0  0  0  0  0  0  0
   39.3819   34.4534   38.9594 H   0  0  0  0  0  0  0  0  0  0  0  0
  1  8  1  0
  2  1  1  0
  3  4  1  0
  3  2  1  0
  4  5  1  0
  5  1  1  0
  6 11  2  0
  7  8  2  0
  7  6  1  0
  8  9  1  0
  9 10  2  0
 10 12  1  0
 11 10  1  0
 13  5  1  0
 13 19  1  0
 14 13  1  0
 15 14  2  0
 15 16  1  0
 16 17  2  0
 16 18  1  0
 19 18  1  0
 19 20  2  0
 21 22  1  0
 21 15  1  0
 22 23  1  0
 23 24  2  0
 25 24  1  0
 26 22  1  0
 26 25  2  0
  2 27  1  0
  2 28  1  0
  3 29  1  0
  3 30  1  0
  4 31  1  0
  4 32  1  0
  5 33  1  1
  6 34  1  0
  7 35  1  0
 12 36  1  0
 12 37  1  0
 14 38  1  0
 18 39  1  0
 21 40  1  0
 21 41  1  0
 24 42  1  0
 25 43  1  0
 26 44  1  0
M  ISO  8  27  13  28  13  29  13  30  13  31  13  32  13  33  13  34  14
M  ISO  8  35  14  38  14  39   9  40   8  41   8  42  14  43  14  44  14
M  END
>  <minimizedAffinity>  (1) 
-6.34225798

>  <minimizedRMSD>  (1) 
1.51445723

$$$$
