
     RDKit          3D

 50 53  0  0  1  0  0  0  0  0999 V2000
   46.8360   33.8050   42.7040 N   0  0  0  0  0  0  0  0  0  0  0  0
   48.0780   34.2880   42.0920 C   0  0  0  0  0  0  0  0  0  0  0  0
   47.8490   33.8580   40.6650 C   0  0  0  0  0  0  0  0  0  0  0  0
   47.4490   32.4250   40.8650 C   0  0  0  0  0  0  0  0  0  0  0  0
   46.5790   32.4940   42.0880 C   0  0  2  0  0  0  0  0  0  0  0  0
   44.5160   36.1100   44.4520 C   0  0  0  0  0  0  0  0  0  0  0  0
   45.3100   35.5740   43.4340 C   0  0  0  0  0  0  0  0  0  0  0  0
   46.0290   34.3990   43.6610 C   0  0  0  0  0  0  0  0  0  0  0  0
   45.8940   33.8470   44.9070 N   0  0  0  0  0  0  0  0  0  0  0  0
   45.1300   34.3730   45.8660 C   0  0  0  0  0  0  0  0  0  0  0  0
   44.4390   35.5100   45.6380 N   0  0  0  0  0  0  0  0  0  0  0  0
   45.1120   33.6550   47.0980 N   0  0  0  0  0  0  0  0  0  0  0  0
   45.2160   32.1980   41.8950 N   0  0  0  0  0  0  0  0  0  0  0  0
   44.4260   32.6040   40.9110 C   0  0  0  0  0  0  0  0  0  0  0  0
   43.0870   32.2510   40.8110 C   0  0  0  0  0  0  0  0  0  0  0  0
   42.5170   31.4360   41.7720 C   0  0  0  0  0  0  0  0  0  0  0  0
   41.2970   31.0820   41.7310 O   0  0  0  0  0  0  0  0  0  0  0  0
   43.3240   31.0280   42.7680 N   0  0  0  0  0  0  0  0  0  0  0  0
   44.5890   31.3960   42.8090 C   0  0  0  0  0  0  0  0  0  0  0  0
   45.2690   30.9520   43.7980 O   0  0  0  0  0  0  0  0  0  0  0  0
   42.2410   32.7290   39.6910 C   0  0  0  0  0  0  0  0  0  0  0  0
   41.6420   33.9930   40.0030 N   0  0  0  0  0  0  0  0  0  0  0  0
   40.1950   33.9750   39.9800 C   0  0  0  0  0  0  0  0  0  0  0  0
   39.6990   35.3770   40.2490 C   0  0  0  0  0  0  0  0  0  0  0  0
   40.6930   36.2280   40.7280 O   0  0  0  0  0  0  0  0  0  0  0  0
   41.2840   35.5930   41.8240 C   0  0  0  0  0  0  0  0  0  0  0  0
   42.1610   34.4900   41.2570 C   0  0  0  0  0  0  0  0  0  0  0  0
   48.1783   35.3800   42.1785 H   0  0  0  0  0  0  0  0  0  0  0  0
   49.0012   33.9034   42.5501 H   0  0  0  0  0  0  0  0  0  0  0  0
   48.7667   33.9423   40.0644 H   0  0  0  0  0  0  0  0  0  0  0  0
   47.1121   34.4650   40.1186 H   0  0  0  0  0  0  0  0  0  0  0  0
   46.8870   32.0453   39.9990 H   0  0  0  0  0  0  0  0  0  0  0  0
   48.3054   31.7436   40.9757 H   0  0  0  0  0  0  0  0  0  0  0  0
   46.8544   31.6779   42.7722 H   0  0  0  0  0  0  0  0  0  0  0  0
   43.9498   37.0357   44.2716 H   0  0  0  0  0  0  0  0  0  0  0  0
   45.3681   36.0764   42.4572 H   0  0  0  0  0  0  0  0  0  0  0  0
   44.5452   33.9989   47.8863 H   0  0  0  0  0  0  0  0  0  0  0  0
   45.6658   32.7925   47.1996 H   0  0  0  0  0  0  0  0  0  0  0  0
   44.8534   33.2542   40.1335 H   0  0  0  0  0  0  0  0  0  0  0  0
   42.9480   30.4194   43.5091 H   0  0  0  0  0  0  0  0  0  0  0  0
   41.4470   31.9920   39.5000 H   0  0  0  0  0  0  0  0  0  0  0  0
   42.8750   32.8519   38.8006 H   0  0  0  0  0  0  0  0  0  0  0  0
   39.8428   33.6386   38.9937 H   0  0  0  0  0  0  0  0  0  0  0  0
   39.8122   33.2840   40.7455 H   0  0  0  0  0  0  0  0  0  0  0  0
   39.3037   35.7941   39.3110 H   0  0  0  0  0  0  0  0  0  0  0  0
   38.9255   35.3065   41.0279 H   0  0  0  0  0  0  0  0  0  0  0  0
   41.8938   36.3085   42.3952 H   0  0  0  0  0  0  0  0  0  0  0  0
   40.5241   35.1872   42.5080 H   0  0  0  0  0  0  0  0  0  0  0  0
   42.2050   33.6614   41.9792 H   0  0  0  0  0  0  0  0  0  0  0  0
   43.1635   34.9048   41.0756 H   0  0  0  0  0  0  0  0  0  0  0  0
  1  8  1  0
  2  1  1  0
  3  4  1  0
  3  2  1  0
  4  5  1  0
  5  1  1  0
  6 11  2  0
  7  8  2  0
  7  6  1  0
  8  9  1  0
  9 10  2  0
 10 12  1  0
 11 10  1  0
 13  5  1  0
 13 19  1  0
 14 13  1  0
 15 14  2  0
 15 16  1  0
 16 18  1  0
 17 16  2  0
 18 19  1  0
 19 20  2  0
 21 22  1  0
 21 15  1  0
 22 27  1  0
 23 22  1  0
 23 24  1  0
 24 25  1  0
 25 26  1  0
 27 26  1  0
  2 28  1  0
  2 29  1  0
  3 30  1  0
  3 31  1  0
  4 32  1  0
  4 33  1  0
  5 34  1  1
  6 35  1  0
  7 36  1  0
 12 37  1  0
 12 38  1  0
 14 39  1  0
 18 40  1  0
 21 41  1  0
 21 42  1  0
 23 43  1  0
 23 44  1  0
 24 45  1  0
 24 46  1  0
 26 47  1  0
 26 48  1  0
 27 49  1  0
 27 50  1  0
M  ISO  8  28  13  29  13  30  13  31  13  32  13  33  13  34  13  35  14
M  ISO  8  36  14  39  14  40   9  41   8  42   8  43  13  44  13  45  13
M  ISO  5  46  13  47  13  48  13  49  13  50  13
M  END
>  <minimizedAffinity>  (1) 
-6.21692467

>  <minimizedRMSD>  (1) 
1.75114369

$$$$
