
     RDKit          3D

 27 29  0  0  0  0  0  0  0  0999 V2000
   45.5880   34.0520   41.7080 N   0  0  0  0  0  0  0  0  0  0  0  0
   46.7420   33.8380   41.1150 C   0  0  0  0  0  0  0  0  0  0  0  0
   46.5100   33.5210   39.7750 C   0  0  0  0  0  0  0  0  0  0  0  0
   45.1890   33.5510   39.5850 N   0  0  0  0  0  0  0  0  0  0  0  0
   44.6040   33.8780   40.7710 C   0  0  0  0  0  0  0  0  0  0  0  0
   44.7840   35.6920   43.2350 C   0  0  0  0  0  0  0  0  0  0  0  0
   45.3250   34.3810   43.0350 C   0  0  0  0  0  0  0  0  0  0  0  0
   45.5320   33.5600   44.1530 C   0  0  0  0  0  0  0  0  0  0  0  0
   45.2060   34.0620   45.3840 N   0  0  0  0  0  0  0  0  0  0  0  0
   44.6940   35.3180   45.5300 C   0  0  0  0  0  0  0  0  0  0  0  0
   44.4820   36.1340   44.4590 N   0  0  0  0  0  0  0  0  0  0  0  0
   48.1180   33.8860   41.5900 C   0  0  0  0  0  0  0  0  0  0  0  0
   48.8720   32.7100   41.4980 C   0  0  0  0  0  0  0  0  0  0  0  0
   50.1860   32.5530   41.8760 C   0  0  0  0  0  0  0  0  0  0  0  0
   50.8160   33.6650   42.3950 C   0  0  0  0  0  0  0  0  0  0  0  0
   50.1250   34.8340   42.5060 C   0  0  0  0  0  0  0  0  0  0  0  0
   48.8260   34.9700   42.1270 C   0  0  0  0  0  0  0  0  0  0  0  0
   47.2733   33.2897   39.0174 H   0  0  0  0  0  0  0  0  0  0  0  0
   43.5233   33.9844   40.9467 H   0  0  0  0  0  0  0  0  0  0  0  0
   44.6144   36.3456   42.3666 H   0  0  0  0  0  0  0  0  0  0  0  0
   45.9430   32.5455   44.0442 H   0  0  0  0  0  0  0  0  0  0  0  0
   44.4458   35.6816   46.5381 H   0  0  0  0  0  0  0  0  0  0  0  0
   48.3652   31.8260   41.0835 H   0  0  0  0  0  0  0  0  0  0  0  0
   50.7071   31.5901   41.7697 H   0  0  0  0  0  0  0  0  0  0  0  0
   51.8665   33.6085   42.7163 H   0  0  0  0  0  0  0  0  0  0  0  0
   50.6430   35.7105   42.9224 H   0  0  0  0  0  0  0  0  0  0  0  0
   48.3249   35.9423   42.2433 H   0  0  0  0  0  0  0  0  0  0  0  0
  1  7  1  0
  2 12  1  0
  2  1  1  0
  3  2  2  0
  4  3  1  0
  4  5  2  0
  5  1  1  0
  6 11  2  0
  7  6  1  0
  7  8  2  0
  8  9  1  0
  9 10  2  0
 11 10  1  0
 12 17  1  0
 13 12  2  0
 13 14  1  0
 14 15  2  0
 15 16  1  0
 17 16  2  0
  3 18  1  0
  5 19  1  0
  6 20  1  0
  8 21  1  0
 10 22  1  0
 13 23  1  0
 14 24  1  0
 15 25  1  0
 16 26  1  0
 17 27  1  0
M  ISO  8  18  14  19  14  20  14  21  14  22  14  23  14  24  14  25  14
M  ISO  2  26  14  27  14
M  END
>  <minimizedAffinity>  (1) 
-5.03644609

>  <minimizedRMSD>  (1) 
3.137146

$$$$
