
     RDKit          3D

 31 34  0  0  0  0  0  0  0  0999 V2000
   44.8680   33.9880   41.5000 N   0  0  0  0  0  0  0  0  0  0  0  0
   45.7720   33.3280   40.7830 C   0  0  0  0  0  0  0  0  0  0  0  0
   45.1950   33.2150   39.4840 C   0  0  0  0  0  0  0  0  0  0  0  0
   43.9920   33.8080   39.4710 N   0  0  0  0  0  0  0  0  0  0  0  0
   43.7600   34.3010   40.7160 C   0  0  0  0  0  0  0  0  0  0  0  0
   47.0650   32.7760   40.9890 C   0  0  0  0  0  0  0  0  0  0  0  0
   47.6160   31.5850   40.6120 C   0  0  0  0  0  0  0  0  0  0  0  0
   48.9130   31.3970   40.8670 N   0  0  0  0  0  0  0  0  0  0  0  0
   49.2890   32.5400   41.4630 C   0  0  0  0  0  0  0  0  0  0  0  0
   50.5490   32.8670   41.9180 C   0  0  0  0  0  0  0  0  0  0  0  0
   50.7270   34.1010   42.4870 C   0  0  0  0  0  0  0  0  0  0  0  0
   49.6810   34.9920   42.6010 C   0  0  0  0  0  0  0  0  0  0  0  0
   48.4830   34.5660   42.1200 C   0  0  0  0  0  0  0  0  0  0  0  0
   48.1840   33.3600   41.5350 C   0  0  0  0  0  0  0  0  0  0  0  0
   44.4770   35.6400   43.1890 C   0  0  0  0  0  0  0  0  0  0  0  0
   44.8970   34.2910   42.8700 C   0  0  0  0  0  0  0  0  0  0  0  0
   45.2700   33.4270   43.9150 C   0  0  0  0  0  0  0  0  0  0  0  0
   45.2260   33.8930   45.1950 N   0  0  0  0  0  0  0  0  0  0  0  0
   44.8240   35.1790   45.4670 C   0  0  0  0  0  0  0  0  0  0  0  0
   44.4500   36.0440   44.4720 N   0  0  0  0  0  0  0  0  0  0  0  0
   45.6651   32.7171   38.6232 H   0  0  0  0  0  0  0  0  0  0  0  0
   42.8629   34.8465   41.0440 H   0  0  0  0  0  0  0  0  0  0  0  0
   47.0137   30.8092   40.1166 H   0  0  0  0  0  0  0  0  0  0  0  0
   49.4895   30.5699   40.6562 H   0  0  0  0  0  0  0  0  0  0  0  0
   51.3858   32.1589   41.8270 H   0  0  0  0  0  0  0  0  0  0  0  0
   51.7221   34.3857   42.8594 H   0  0  0  0  0  0  0  0  0  0  0  0
   49.8081   35.9866   43.0534 H   0  0  0  0  0  0  0  0  0  0  0  0
   47.6482   35.2766   42.2108 H   0  0  0  0  0  0  0  0  0  0  0  0
   44.1814   36.3311   42.3859 H   0  0  0  0  0  0  0  0  0  0  0  0
   45.5907   32.3962   43.7036 H   0  0  0  0  0  0  0  0  0  0  0  0
   44.8019   35.5231   46.5115 H   0  0  0  0  0  0  0  0  0  0  0  0
  1 16  1  0
  2  6  1  0
  2  1  1  0
  3  2  2  0
  4  3  1  0
  4  5  2  0
  5  1  1  0
  6 14  1  0
  7  8  1  0
  7  6  2  0
  8  9  1  0
  9 14  2  0
  9 10  1  0
 10 11  2  0
 11 12  1  0
 13 12  2  0
 14 13  1  0
 15 20  2  0
 16 15  1  0
 16 17  2  0
 17 18  1  0
 18 19  2  0
 20 19  1  0
  3 21  1  0
  5 22  1  0
  7 23  1  0
  8 24  1  0
 10 25  1  0
 11 26  1  0
 12 27  1  0
 13 28  1  0
 15 29  1  0
 17 30  1  0
 19 31  1  0
M  ISO  8  21  14  22  14  23  14  24   9  25  14  26  14  27  14  28  14
M  ISO  3  29  14  30  14  31  14
M  END
>  <minimizedAffinity>  (1) 
-5.21560383

>  <minimizedRMSD>  (1) 
2.15069366

$$$$
