
     RDKit          3D

 38 40  0  0  1  0  0  0  0  0999 V2000
   46.5100   34.0820   42.2680 N   0  0  0  0  0  0  0  0  0  0  0  0
   47.8740   34.3290   41.7930 C   0  0  0  0  0  0  0  0  0  0  0  0
   47.6120   34.4090   40.3120 C   0  0  0  0  0  0  0  0  0  0  0  0
   46.8020   33.1530   40.1070 C   0  0  0  0  0  0  0  0  0  0  0  0
   45.9270   33.1370   41.3070 C   0  0  2  0  0  0  0  0  0  0  0  0
   44.5650   36.2670   44.5540 C   0  0  0  0  0  0  0  0  0  0  0  0
   45.2030   35.8190   43.3950 C   0  0  0  0  0  0  0  0  0  0  0  0
   45.8500   34.6000   43.3840 C   0  0  0  0  0  0  0  0  0  0  0  0
   45.8110   33.9060   44.5610 N   0  0  0  0  0  0  0  0  0  0  0  0
   45.2060   34.3220   45.6750 C   0  0  0  0  0  0  0  0  0  0  0  0
   44.5770   35.5250   45.6550 N   0  0  0  0  0  0  0  0  0  0  0  0
   45.2920   33.4430   46.7910 N   0  0  0  0  0  0  0  0  0  0  0  0
   44.5330   33.3180   41.0850 N   0  0  0  0  0  0  0  0  0  0  0  0
   43.9570   34.1550   40.2370 C   0  0  0  0  0  0  0  0  0  0  0  0
   42.5910   34.2560   40.0960 C   0  0  0  0  0  0  0  0  0  0  0  0
   41.7520   33.4640   40.8580 C   0  0  0  0  0  0  0  0  0  0  0  0
   40.4880   33.5220   40.7640 O   0  0  0  0  0  0  0  0  0  0  0  0
   42.3490   32.6190   41.7160 N   0  0  0  0  0  0  0  0  0  0  0  0
   43.6610   32.5660   41.8080 C   0  0  0  0  0  0  0  0  0  0  0  0
   44.1260   31.7290   42.6560 O   0  0  0  0  0  0  0  0  0  0  0  0
   41.9830   35.2110   39.1240 C   0  0  0  0  0  0  0  0  0  0  0  0
   41.4520   34.5990   38.0070 O   0  0  0  0  0  0  0  0  0  0  0  0
   48.2819   35.2708   42.1888 H   0  0  0  0  0  0  0  0  0  0  0  0
   48.6182   33.5780   42.0965 H   0  0  0  0  0  0  0  0  0  0  0  0
   47.0378   35.3097   40.0494 H   0  0  0  0  0  0  0  0  0  0  0  0
   48.5166   34.4773   39.6898 H   0  0  0  0  0  0  0  0  0  0  0  0
   46.2084   33.2090   39.1826 H   0  0  0  0  0  0  0  0  0  0  0  0
   47.4164   32.2470   39.9995 H   0  0  0  0  0  0  0  0  0  0  0  0
   45.9183   32.1143   41.7121 H   0  0  0  0  0  0  0  0  0  0  0  0
   44.0502   37.2391   44.5546 H   0  0  0  0  0  0  0  0  0  0  0  0
   45.1897   36.4403   42.4874 H   0  0  0  0  0  0  0  0  0  0  0  0
   44.8479   33.6997   47.6842 H   0  0  0  0  0  0  0  0  0  0  0  0
   45.7983   32.5501   46.7055 H   0  0  0  0  0  0  0  0  0  0  0  0
   44.5982   34.7988   39.6170 H   0  0  0  0  0  0  0  0  0  0  0  0
   41.7725   32.0051   42.3091 H   0  0  0  0  0  0  0  0  0  0  0  0
   41.1790   35.7617   39.6341 H   0  0  0  0  0  0  0  0  0  0  0  0
   42.7888   35.8741   38.7762 H   0  0  0  0  0  0  0  0  0  0  0  0
   40.8299   33.8820   38.2879 H   0  0  0  0  0  0  0  0  0  0  0  0
  1  8  1  0
  2  1  1  0
  3  2  1  0
  4  3  1  0
  4  5  1  0
  5  1  1  0
  6 11  2  0
  7  6  1  0
  8  7  2  0
  8  9  1  0
  9 10  2  0
 10 12  1  0
 11 10  1  0
 13  5  1  0
 13 19  1  0
 14 13  1  0
 15 14  2  0
 15 16  1  0
 16 18  1  0
 17 16  2  0
 18 19  1  0
 19 20  2  0
 21 15  1  0
 22 21  1  0
  2 23  1  0
  2 24  1  0
  3 25  1  0
  3 26  1  0
  4 27  1  0
  4 28  1  0
  5 29  1  1
  6 30  1  0
  7 31  1  0
 12 32  1  0
 12 33  1  0
 14 34  1  0
 18 35  1  0
 21 36  1  0
 21 37  1  0
 22 38  1  0
M  ISO  8  23  13  24  13  25  13  26  13  27  13  28  13  29  13  30  14
M  ISO  6  31  14  34  14  35   9  36   8  37   8  38   3
M  END
>  <minimizedAffinity>  (1) 
-6.05493927

>  <minimizedRMSD>  (1) 
0.218969896

$$$$
