
     RDKit          3D

 30 32  0  0  0  0  0  0  0  0999 V2000
   45.1170   33.9020   41.5700 N   0  0  0  0  0  0  0  0  0  0  0  0
   46.1660   33.4840   40.8730 C   0  0  0  0  0  0  0  0  0  0  0  0
   45.7580   33.2340   39.5530 C   0  0  0  0  0  0  0  0  0  0  0  0
   44.4520   33.5130   39.4870 N   0  0  0  0  0  0  0  0  0  0  0  0
   44.0520   33.9220   40.7150 C   0  0  0  0  0  0  0  0  0  0  0  0
   47.5110   33.2850   41.2650 N   0  0  0  0  0  0  0  0  0  0  0  0
   47.9770   32.0980   41.7530 C   0  0  0  0  0  0  0  0  0  0  0  0
   49.2650   31.8610   42.1490 C   0  0  0  0  0  0  0  0  0  0  0  0
   49.6900   30.5390   42.6690 C   0  0  0  0  0  0  0  0  0  0  0  0
   50.1850   32.8860   42.0580 C   0  0  0  0  0  0  0  0  0  0  0  0
   51.3760   32.7470   42.3990 O   0  0  0  0  0  0  0  0  0  0  0  0
   49.7430   34.0640   41.5790 N   0  0  0  0  0  0  0  0  0  0  0  0
   48.4670   34.2590   41.1990 C   0  0  0  0  0  0  0  0  0  0  0  0
   48.1170   35.3780   40.7610 O   0  0  0  0  0  0  0  0  0  0  0  0
   44.5850   35.6000   43.1680 C   0  0  0  0  0  0  0  0  0  0  0  0
   45.0390   34.2670   42.9120 C   0  0  0  0  0  0  0  0  0  0  0  0
   45.3630   33.4440   44.0040 C   0  0  0  0  0  0  0  0  0  0  0  0
   45.2300   33.9580   45.2660 N   0  0  0  0  0  0  0  0  0  0  0  0
   44.7930   35.2350   45.4610 C   0  0  0  0  0  0  0  0  0  0  0  0
   44.4700   36.0550   44.4230 N   0  0  0  0  0  0  0  0  0  0  0  0
   46.3928   32.8762   38.7289 H   0  0  0  0  0  0  0  0  0  0  0  0
   43.0284   34.2234   40.9821 H   0  0  0  0  0  0  0  0  0  0  0  0
   47.2607   31.2671   41.8341 H   0  0  0  0  0  0  0  0  0  0  0  0
   49.6838   30.5583   43.7688 H   0  0  0  0  0  0  0  0  0  0  0  0
   48.9957   29.7641   42.3120 H   0  0  0  0  0  0  0  0  0  0  0  0
   50.7058   30.3139   42.3120 H   0  0  0  0  0  0  0  0  0  0  0  0
   50.4078   34.8468   41.5003 H   0  0  0  0  0  0  0  0  0  0  0  0
   44.3276   36.2582   42.3251 H   0  0  0  0  0  0  0  0  0  0  0  0
   45.7145   32.4133   43.8488 H   0  0  0  0  0  0  0  0  0  0  0  0
   44.6985   35.6146   46.4891 H   0  0  0  0  0  0  0  0  0  0  0  0
  1 16  1  0
  2  6  1  0
  2  1  1  0
  3  2  2  0
  4  3  1  0
  4  5  2  0
  5  1  1  0
  6  7  1  0
  7  8  2  0
  8  9  1  0
 10  8  1  0
 10 11  2  0
 12 10  1  0
 13  6  1  0
 13 12  1  0
 14 13  2  0
 15 20  2  0
 16 15  1  0
 16 17  2  0
 17 18  1  0
 18 19  2  0
 20 19  1  0
  3 21  1  0
  5 22  1  0
  7 23  1  0
  9 24  1  0
  9 25  1  0
  9 26  1  0
 12 27  1  0
 15 28  1  0
 17 29  1  0
 19 30  1  0
M  ISO  8  21  14  22  14  23  14  24   8  25   8  26   8  27   9  28  14
M  ISO  2  29  14  30  14
M  END
>  <minimizedAffinity>  (1) 
-4.78396702

>  <minimizedRMSD>  (1) 
2.99608517

$$$$
