
     RDKit          3D

 24 26  0  0  0  0  0  0  0  0999 V2000
   45.1470   33.4590   41.8390 N   0  0  0  0  0  0  0  0  0  0  0  0
   46.0910   33.6240   40.9290 C   0  0  0  0  0  0  0  0  0  0  0  0
   45.7350   32.8000   39.8290 C   0  0  0  0  0  0  0  0  0  0  0  0
   44.5950   32.1770   40.1120 N   0  0  0  0  0  0  0  0  0  0  0  0
   44.2050   32.5700   41.3590 C   0  0  0  0  0  0  0  0  0  0  0  0
   44.4010   35.3060   43.1740 C   0  0  0  0  0  0  0  0  0  0  0  0
   45.0420   34.0160   43.1170 C   0  0  0  0  0  0  0  0  0  0  0  0
   45.4980   33.4180   44.3110 C   0  0  0  0  0  0  0  0  0  0  0  0
   45.3040   34.1150   45.4760 N   0  0  0  0  0  0  0  0  0  0  0  0
   44.6930   35.3380   45.4930 C   0  0  0  0  0  0  0  0  0  0  0  0
   44.2410   35.9330   44.3510 N   0  0  0  0  0  0  0  0  0  0  0  0
   47.2770   34.4640   40.8740 C   0  0  0  0  0  0  0  0  0  0  0  0
   47.8510   35.0790   41.9760 C   0  0  0  0  0  0  0  0  0  0  0  0
   48.9610   35.8180   41.6660 C   0  0  0  0  0  0  0  0  0  0  0  0
   49.0730   35.6560   40.3410 N   0  0  0  0  0  0  0  0  0  0  0  0
   48.1060   34.8850   39.9250 N   0  0  0  0  0  0  0  0  0  0  0  0
   46.3081   32.6944   38.8960 H   0  0  0  0  0  0  0  0  0  0  0  0
   43.3001   32.2376   41.8887 H   0  0  0  0  0  0  0  0  0  0  0  0
   44.0410   35.7794   42.2486 H   0  0  0  0  0  0  0  0  0  0  0  0
   45.9887   32.4335   44.3075 H   0  0  0  0  0  0  0  0  0  0  0  0
   44.5621   35.8569   46.4540 H   0  0  0  0  0  0  0  0  0  0  0  0
   47.4542   34.9828   42.9974 H   0  0  0  0  0  0  0  0  0  0  0  0
   49.6041   36.4023   42.3405 H   0  0  0  0  0  0  0  0  0  0  0  0
   49.8040   36.0726   39.7468 H   0  0  0  0  0  0  0  0  0  0  0  0
  1  7  1  0
  2  1  1  0
  3  4  1  0
  3  2  2  0
  4  5  2  0
  5  1  1  0
  6 11  2  0
  7  6  1  0
  7  8  2  0
  8  9  1  0
  9 10  2  0
 11 10  1  0
 12  2  1  0
 12 13  1  0
 14 13  2  0
 15 14  1  0
 16 15  1  0
 16 12  2  0
  3 17  1  0
  5 18  1  0
  6 19  1  0
  8 20  1  0
 10 21  1  0
 13 22  1  0
 14 23  1  0
 15 24  1  0
M  ISO  8  17  14  18  14  19  14  20  14  21  14  22  14  23  14  24   9
M  END
>  <minimizedAffinity>  (1) 
-4.75458765

>  <minimizedRMSD>  (1) 
2.71674657

$$$$
