
     RDKit          3D

 30 32  0  0  0  0  0  0  0  0999 V2000
   45.8060   33.9540   41.1530 N   0  0  0  0  0  0  0  0  0  0  0  0
   46.9810   33.8680   40.5300 C   0  0  0  0  0  0  0  0  0  0  0  0
   46.7330   33.4520   39.2070 C   0  0  0  0  0  0  0  0  0  0  0  0
   45.4280   33.3020   39.0690 N   0  0  0  0  0  0  0  0  0  0  0  0
   44.8310   33.6080   40.2590 C   0  0  0  0  0  0  0  0  0  0  0  0
   45.0780   35.6630   42.6560 C   0  0  0  0  0  0  0  0  0  0  0  0
   45.5320   34.3120   42.4720 C   0  0  0  0  0  0  0  0  0  0  0  0
   45.6600   33.4720   43.5910 C   0  0  0  0  0  0  0  0  0  0  0  0
   45.3400   34.0020   44.8170 N   0  0  0  0  0  0  0  0  0  0  0  0
   44.9130   35.2890   44.9590 C   0  0  0  0  0  0  0  0  0  0  0  0
   44.7820   36.1170   43.8840 N   0  0  0  0  0  0  0  0  0  0  0  0
   48.3680   34.1390   40.9340 C   0  0  0  0  0  0  0  0  0  0  0  0
   48.8110   33.2170   42.0740 C   0  0  0  0  0  0  0  0  0  0  0  0
   50.1360   33.8950   42.4250 C   0  0  0  0  0  0  0  0  0  0  0  0
   49.6860   35.3270   42.5740 C   0  0  0  0  0  0  0  0  0  0  0  0
   48.5300   35.4890   41.5980 C   0  0  0  0  0  0  0  0  0  0  0  0
   47.4909   33.2824   38.4280 H   0  0  0  0  0  0  0  0  0  0  0  0
   43.7505   33.5807   40.4631 H   0  0  0  0  0  0  0  0  0  0  0  0
   44.9726   36.3282   41.7863 H   0  0  0  0  0  0  0  0  0  0  0  0
   46.0027   32.4317   43.4892 H   0  0  0  0  0  0  0  0  0  0  0  0
   44.6689   35.6674   45.9626 H   0  0  0  0  0  0  0  0  0  0  0  0
   48.9330   34.0298   39.9965 H   0  0  0  0  0  0  0  0  0  0  0  0
   48.1035   33.2324   42.9161 H   0  0  0  0  0  0  0  0  0  0  0  0
   48.8775   32.1486   41.8210 H   0  0  0  0  0  0  0  0  0  0  0  0
   50.5563   33.5025   43.3627 H   0  0  0  0  0  0  0  0  0  0  0  0
   50.9369   33.7424   41.6865 H   0  0  0  0  0  0  0  0  0  0  0  0
   49.3507   35.5202   43.6037 H   0  0  0  0  0  0  0  0  0  0  0  0
   50.5006   36.0363   42.3658 H   0  0  0  0  0  0  0  0  0  0  0  0
   48.7645   36.2599   40.8492 H   0  0  0  0  0  0  0  0  0  0  0  0
   47.6080   35.8062   42.1072 H   0  0  0  0  0  0  0  0  0  0  0  0
  1  7  1  0
  2 12  1  0
  2  1  1  0
  3  2  2  0
  4  3  1  0
  4  5  2  0
  5  1  1  0
  6 11  2  0
  7  6  1  0
  7  8  2  0
  8  9  1  0
  9 10  2  0
 11 10  1  0
 12 16  1  0
 12 13  1  0
 13 14  1  0
 14 15  1  0
 16 15  1  0
  3 17  1  0
  5 18  1  0
  6 19  1  0
  8 20  1  0
 10 21  1  0
 12 22  1  0
 13 23  1  0
 13 24  1  0
 14 25  1  0
 14 26  1  0
 15 27  1  0
 15 28  1  0
 16 29  1  0
 16 30  1  0
M  ISO  8  17  14  18  14  19  14  20  14  21  14  22  13  23  13  24  13
M  ISO  6  25  13  26  13  27  13  28  13  29  13  30  13
M  END
>  <minimizedAffinity>  (1) 
-4.83644819

>  <minimizedRMSD>  (1) 
2.88728547

$$$$
