
     RDKit          3D

 29 30  0  0  0  0  0  0  0  0999 V2000
   45.0000   33.8670   41.6870 N   0  0  0  0  0  0  0  0  0  0  0  0
   46.0070   33.8460   40.8130 C   0  0  0  0  0  0  0  0  0  0  0  0
   45.4960   33.4220   39.5920 C   0  0  0  0  0  0  0  0  0  0  0  0
   44.1830   33.1890   39.7330 N   0  0  0  0  0  0  0  0  0  0  0  0
   43.8610   33.4630   41.0320 C   0  0  0  0  0  0  0  0  0  0  0  0
   44.4150   35.4960   43.3520 C   0  0  0  0  0  0  0  0  0  0  0  0
   44.9760   34.2120   43.0300 C   0  0  0  0  0  0  0  0  0  0  0  0
   45.4310   33.4340   44.0640 C   0  0  0  0  0  0  0  0  0  0  0  0
   45.3430   33.8860   45.3420 N   0  0  0  0  0  0  0  0  0  0  0  0
   44.8030   35.1120   45.6090 C   0  0  0  0  0  0  0  0  0  0  0  0
   44.3380   35.9180   44.6120 N   0  0  0  0  0  0  0  0  0  0  0  0
   47.4550   34.1580   40.9160 C   0  0  0  0  0  0  0  0  0  0  0  0
   48.2000   32.9780   41.5870 C   0  0  0  0  0  0  0  0  0  0  0  0
   48.1420   34.4070   39.6120 C   0  0  0  0  0  0  0  0  0  0  0  0
   47.7510   35.3150   41.8580 C   0  0  0  0  0  0  0  0  0  0  0  0
   46.0731   33.2981   38.6637 H   0  0  0  0  0  0  0  0  0  0  0  0
   42.8595   33.3752   41.4784 H   0  0  0  0  0  0  0  0  0  0  0  0
   44.0428   36.1412   42.5426 H   0  0  0  0  0  0  0  0  0  0  0  0
   45.8667   32.4451   43.8585 H   0  0  0  0  0  0  0  0  0  0  0  0
   44.7418   35.4569   46.6517 H   0  0  0  0  0  0  0  0  0  0  0  0
   48.1365   33.0786   42.6805 H   0  0  0  0  0  0  0  0  0  0  0  0
   47.7369   32.0291   41.2786 H   0  0  0  0  0  0  0  0  0  0  0  0
   49.2558   32.9881   41.2786 H   0  0  0  0  0  0  0  0  0  0  0  0
   49.1611   34.7764   39.7991 H   0  0  0  0  0  0  0  0  0  0  0  0
   48.1913   33.4695   39.0386 H   0  0  0  0  0  0  0  0  0  0  0  0
   47.5792   35.1583   39.0386 H   0  0  0  0  0  0  0  0  0  0  0  0
   47.6632   34.9717   42.8993 H   0  0  0  0  0  0  0  0  0  0  0  0
   48.7721   35.6824   41.6779 H   0  0  0  0  0  0  0  0  0  0  0  0
   47.0318   36.1276   41.6779 H   0  0  0  0  0  0  0  0  0  0  0  0
  1  7  1  0
  2 12  1  0
  2  1  1  0
  3  4  1  0
  3  2  2  0
  4  5  2  0
  5  1  1  0
  6 11  2  0
  7  6  1  0
  7  8  2  0
  8  9  1  0
  9 10  2  0
 11 10  1  0
 12 13  1  0
 12 15  1  0
 14 12  1  0
  3 16  1  0
  5 17  1  0
  6 18  1  0
  8 19  1  0
 10 20  1  0
 13 21  1  0
 13 22  1  0
 13 23  1  0
 14 24  1  0
 14 25  1  0
 14 26  1  0
 15 27  1  0
 15 28  1  0
 15 29  1  0
M  ISO  8  16  14  17  14  18  14  19  14  20  14  21   8  22   8  23   8
M  ISO  6  24   8  25   8  26   8  27   8  28   8  29   8
M  END
>  <minimizedAffinity>  (1) 
-4.18952513

>  <minimizedRMSD>  (1) 
2.09198332

$$$$
