
     RDKit          3D

 24 26  0  0  0  0  0  0  0  0999 V2000
   46.0780   34.1850   42.3650 N   0  0  0  0  0  0  0  0  0  0  0  0
   47.1450   34.6800   41.7840 C   0  0  0  0  0  0  0  0  0  0  0  0
   47.1710   34.2740   40.4430 C   0  0  0  0  0  0  0  0  0  0  0  0
   46.0820   33.5200   40.2490 N   0  0  0  0  0  0  0  0  0  0  0  0
   45.4050   33.4590   41.4200 C   0  0  0  0  0  0  0  0  0  0  0  0
   44.8580   35.5080   43.9360 C   0  0  0  0  0  0  0  0  0  0  0  0
   45.6430   34.3340   43.6770 C   0  0  0  0  0  0  0  0  0  0  0  0
   45.8710   33.4980   44.7480 C   0  0  0  0  0  0  0  0  0  0  0  0
   45.3530   33.8280   45.9580 N   0  0  0  0  0  0  0  0  0  0  0  0
   44.6230   34.9350   46.1670 C   0  0  0  0  0  0  0  0  0  0  0  0
   44.3740   35.7790   45.1530 N   0  0  0  0  0  0  0  0  0  0  0  0
   48.2610   35.5260   42.2610 C   0  0  0  0  0  0  0  0  0  0  0  0
   49.2410   36.0540   41.2160 C   0  0  0  0  0  0  0  0  0  0  0  0
   49.6750   35.0080   42.1780 C   0  0  0  0  0  0  0  0  0  0  0  0
   47.9373   34.5259   39.6951 H   0  0  0  0  0  0  0  0  0  0  0  0
   44.4644   32.9132   41.5854 H   0  0  0  0  0  0  0  0  0  0  0  0
   44.6488   36.2041   43.1103 H   0  0  0  0  0  0  0  0  0  0  0  0
   46.4627   32.5790   44.6244 H   0  0  0  0  0  0  0  0  0  0  0  0
   44.2282   35.1510   47.1707 H   0  0  0  0  0  0  0  0  0  0  0  0
   47.6395   35.9550   43.0609 H   0  0  0  0  0  0  0  0  0  0  0  0
   49.6366   37.0769   41.3005 H   0  0  0  0  0  0  0  0  0  0  0  0
   49.2333   36.1472   40.1200 H   0  0  0  0  0  0  0  0  0  0  0  0
   49.8616   33.9835   41.8237 H   0  0  0  0  0  0  0  0  0  0  0  0
   50.5050   34.9171   42.8941 H   0  0  0  0  0  0  0  0  0  0  0  0
  1  7  1  0
  2 12  1  0
  2  1  1  0
  3  2  2  0
  4  3  1  0
  4  5  2  0
  5  1  1  0
  6 11  2  0
  7  6  1  0
  7  8  2  0
  8  9  1  0
  9 10  2  0
 11 10  1  0
 13 14  1  0
 13 12  1  0
 14 12  1  0
  3 15  1  0
  5 16  1  0
  6 17  1  0
  8 18  1  0
 10 19  1  0
 12 20  1  0
 13 21  1  0
 13 22  1  0
 14 23  1  0
 14 24  1  0
M  ISO  8  15  14  16  14  17  14  18  14  19  14  20  13  21  13  22  13
M  ISO  2  23  13  24  13
M  END
>  <minimizedAffinity>  (1) 
-4.29307222

>  <minimizedRMSD>  (1) 
3.29894662

$$$$
