
     RDKit          3D

 27 29  0  0  0  0  0  0  0  0999 V2000
   43.8520   34.2570   41.6040 N   0  0  0  0  0  0  0  0  0  0  0  0
   44.4400   33.9480   40.4700 C   0  0  0  0  0  0  0  0  0  0  0  0
   43.5080   34.0970   39.4320 C   0  0  0  0  0  0  0  0  0  0  0  0
   42.3460   34.5030   39.9780 N   0  0  0  0  0  0  0  0  0  0  0  0
   42.5550   34.6030   41.3080 C   0  0  0  0  0  0  0  0  0  0  0  0
   44.1670   35.5250   43.6180 C   0  0  0  0  0  0  0  0  0  0  0  0
   44.3490   34.2960   42.8960 C   0  0  0  0  0  0  0  0  0  0  0  0
   44.9990   33.2940   43.5630 C   0  0  0  0  0  0  0  0  0  0  0  0
   45.4420   33.4700   44.8320 N   0  0  0  0  0  0  0  0  0  0  0  0
   45.2440   34.6580   45.4750 C   0  0  0  0  0  0  0  0  0  0  0  0
   44.6110   35.6730   44.8670 N   0  0  0  0  0  0  0  0  0  0  0  0
   45.7490   33.5560   40.0160 C   0  0  0  0  0  0  0  0  0  0  0  0
   46.8360   34.3060   40.5100 C   0  0  0  0  0  0  0  0  0  0  0  0
   48.1960   34.1810   40.2080 C   0  0  0  0  0  0  0  0  0  0  0  0
   48.4870   33.1840   39.3050 C   0  0  0  0  0  0  0  0  0  0  0  0
   47.5050   32.3910   38.7580 C   0  0  0  0  0  0  0  0  0  0  0  0
   46.2050   32.6090   39.1310 C   0  0  0  0  0  0  0  0  0  0  0  0
   43.6934   33.9147   38.3632 H   0  0  0  0  0  0  0  0  0  0  0  0
   41.8001   34.9148   42.0448 H   0  0  0  0  0  0  0  0  0  0  0  0
   43.6493   36.3635   43.1291 H   0  0  0  0  0  0  0  0  0  0  0  0
   45.1650   32.3293   43.0612 H   0  0  0  0  0  0  0  0  0  0  0  0
   45.6082   34.7848   46.5052 H   0  0  0  0  0  0  0  0  0  0  0  0
   46.5797   35.0966   41.2306 H   0  0  0  0  0  0  0  0  0  0  0  0
   48.9678   34.8252   40.6545 H   0  0  0  0  0  0  0  0  0  0  0  0
   49.5341   33.0166   39.0125 H   0  0  0  0  0  0  0  0  0  0  0  0
   47.7580   31.5995   38.0372 H   0  0  0  0  0  0  0  0  0  0  0  0
   45.4461   31.9571   38.6737 H   0  0  0  0  0  0  0  0  0  0  0  0
  1  7  1  0
  2  1  1  0
  3  4  1  0
  3  2  2  0
  4  5  2  0
  5  1  1  0
  6 11  2  0
  7  8  2  0
  7  6  1  0
  8  9  1  0
  9 10  2  0
 11 10  1  0
 12  2  1  0
 12 13  2  0
 14 13  1  0
 15 14  2  0
 16 17  2  0
 16 15  1  0
 17 12  1  0
  3 18  1  0
  5 19  1  0
  6 20  1  0
  8 21  1  0
 10 22  1  0
 13 23  1  0
 14 24  1  0
 15 25  1  0
 16 26  1  0
 17 27  1  0
M  ISO  8  18  14  19  14  20  14  21  14  22  14  23  14  24  14  25  14
M  ISO  2  26  14  27  14
M  END
>  <minimizedAffinity>  (1) 
-4.0871911

>  <minimizedRMSD>  (1) 
1.27291477

$$$$
