
     RDKit          3D

 41 42  0  0  0  0  0  0  0  0999 V2000
   46.0240   32.7710   38.8030 C   0  0  0  0  0  0  0  0  0  0  0  0
   46.3320   34.7770   41.8640 C   0  0  0  0  0  0  0  0  0  0  0  0
   47.6260   35.2720   41.8160 C   0  0  0  0  0  0  0  0  0  0  0  0
   48.4350   34.9240   40.7130 C   0  0  0  0  0  0  0  0  0  0  0  0
   47.8950   34.1240   39.7640 N   0  0  0  0  0  0  0  0  0  0  0  0
   46.6070   33.6560   39.8530 C   0  0  0  0  0  0  0  0  0  0  0  0
   45.8730   33.9930   40.8880 N   0  0  0  0  0  0  0  0  0  0  0  0
   45.5100   35.1360   43.0010 C   0  0  0  0  0  0  0  0  0  0  0  0
   45.2870   36.3650   43.2360 O   0  0  0  0  0  0  0  0  0  0  0  0
   44.9930   34.0920   43.7980 O   0  0  0  0  0  0  0  0  0  0  0  0
   45.6530   33.7740   44.9930 C   0  0  0  0  0  0  0  0  0  0  0  0
   45.3840   32.4930   45.4420 F   0  0  0  0  0  0  0  0  0  0  0  0
   47.0140   33.8910   44.8290 F   0  0  0  0  0  0  0  0  0  0  0  0
   45.1760   34.6560   45.9490 F   0  0  0  0  0  0  0  0  0  0  0  0
   46.0850   31.3200   39.1690 C   0  0  0  0  0  0  0  0  0  0  0  0
   44.6070   33.1850   38.6100 C   0  0  0  0  0  0  0  0  0  0  0  0
   46.8020   33.0240   37.5560 C   0  0  0  0  0  0  0  0  0  0  0  0
   46.8720   32.0160   36.5720 N   0  0  0  0  0  0  0  0  0  0  0  0
   48.3010   31.9290   36.2010 C   0  0  0  0  0  0  0  0  0  0  0  0
   48.5850   32.7820   34.9760 C   0  0  0  0  0  0  0  0  0  0  0  0
   48.0040   32.2110   33.8310 O   0  0  0  0  0  0  0  0  0  0  0  0
   46.9880   31.4070   34.2770 C   0  0  0  0  0  0  0  0  0  0  0  0
   46.1950   32.2030   35.3380 C   0  0  0  0  0  0  0  0  0  0  0  0
   48.0124   35.9194   42.6170 H   0  0  0  0  0  0  0  0  0  0  0  0
   49.4687   35.2903   40.6275 H   0  0  0  0  0  0  0  0  0  0  0  0
   46.0893   31.2180   40.2643 H   0  0  0  0  0  0  0  0  0  0  0  0
   45.2079   30.8004   38.7558 H   0  0  0  0  0  0  0  0  0  0  0  0
   47.0026   30.8759   38.7558 H   0  0  0  0  0  0  0  0  0  0  0  0
   44.1290   33.3247   39.5908 H   0  0  0  0  0  0  0  0  0  0  0  0
   44.5744   34.1302   38.0483 H   0  0  0  0  0  0  0  0  0  0  0  0
   44.0707   32.4060   38.0483 H   0  0  0  0  0  0  0  0  0  0  0  0
   46.3616   33.9108   37.0768 H   0  0  0  0  0  0  0  0  0  0  0  0
   47.8395   33.1169   37.9094 H   0  0  0  0  0  0  0  0  0  0  0  0
   48.9155   32.2855   37.0408 H   0  0  0  0  0  0  0  0  0  0  0  0
   48.5458   30.8817   35.9701 H   0  0  0  0  0  0  0  0  0  0  0  0
   48.1667   33.7875   35.1306 H   0  0  0  0  0  0  0  0  0  0  0  0
   49.6736   32.8415   34.8295 H   0  0  0  0  0  0  0  0  0  0  0  0
   46.3279   31.1371   33.4395 H   0  0  0  0  0  0  0  0  0  0  0  0
   47.3906   30.4796   34.7104 H   0  0  0  0  0  0  0  0  0  0  0  0
   46.1736   33.2707   35.0744 H   0  0  0  0  0  0  0  0  0  0  0  0
   45.1532   31.8553   35.3993 H   0  0  0  0  0  0  0  0  0  0  0  0
  1 15  1  0
  1  6  1  0
  2  8  1  0
  3  2  2  0
  4  3  1  0
  5  6  1  0
  5  4  2  0
  6  7  2  0
  7  2  1  0
  8  9  2  0
  8 10  1  0
 10 11  1  0
 11 12  1  0
 11 14  1  0
 13 11  1  0
 16  1  1  0
 17  1  1  0
 18 17  1  0
 19 18  1  0
 20 19  1  0
 21 22  1  0
 21 20  1  0
 22 23  1  0
 23 18  1  0
  3 24  1  0
  4 25  1  0
 15 26  1  0
 15 27  1  0
 15 28  1  0
 16 29  1  0
 16 30  1  0
 16 31  1  0
 17 32  1  0
 17 33  1  0
 19 34  1  0
 19 35  1  0
 20 36  1  0
 20 37  1  0
 22 38  1  0
 22 39  1  0
 23 40  1  0
 23 41  1  0
M  ISO  8  24  14  25  14  26   8  27   8  28   8  29   8  30   8  31   8
M  ISO  8  32   8  33   8  34  13  35  13  36  13  37  13  38  13  39  13
M  ISO  2  40  13  41  13
M  END
>  <minimizedAffinity>  (1) 
-4.59859228

>  <minimizedRMSD>  (1) 
1.66830599

$$$$
