
     RDKit          3D

 18 19  0  0  0  0  0  0  0  0999 V2000
   44.2390   35.4600   43.2730 C   0  0  0  0  0  0  0  0  0  0  0  0
   44.4320   34.1540   42.7170 C   0  0  0  0  0  0  0  0  0  0  0  0
   45.0350   33.1680   43.5140 C   0  0  0  0  0  0  0  0  0  0  0  0
   45.4090   33.4990   44.7830 N   0  0  0  0  0  0  0  0  0  0  0  0
   45.2080   34.7520   45.2750 C   0  0  0  0  0  0  0  0  0  0  0  0
   44.6250   35.7180   44.5120 N   0  0  0  0  0  0  0  0  0  0  0  0
   43.9890   33.9830   41.3980 N   0  0  0  0  0  0  0  0  0  0  0  0
   44.7070   33.7720   40.3040 C   0  0  0  0  0  0  0  0  0  0  0  0
   43.8030   33.6700   39.2320 C   0  0  0  0  0  0  0  0  0  0  0  0
   42.5690   33.8240   39.7270 N   0  0  0  0  0  0  0  0  0  0  0  0
   42.6660   34.0160   41.0470 C   0  0  0  0  0  0  0  0  0  0  0  0
   46.4760   33.6350   40.1170 S   0  0  0  0  0  0  0  0  0  0  0  0
   43.7690   36.2499   42.6687 H   0  0  0  0  0  0  0  0  0  0  0  0
   45.2018   32.1530   43.1243 H   0  0  0  0  0  0  0  0  0  0  0  0
   45.5207   34.9878   46.3029 H   0  0  0  0  0  0  0  0  0  0  0  0
   44.0628   33.4953   38.1775 H   0  0  0  0  0  0  0  0  0  0  0  0
   41.8232   34.1741   41.7360 H   0  0  0  0  0  0  0  0  0  0  0  0
   47.0638   33.5895   41.3537 H   0  0  0  0  0  0  0  0  0  0  0  0
  1  6  2  0
  2  1  1  0
  2  3  2  0
  3  4  1  0
  4  5  2  0
  6  5  1  0
  7  2  1  0
  8  7  1  0
  9 10  1  0
  9  8  2  0
 10 11  2  0
 11  7  1  0
 12  8  1  0
  1 13  1  0
  3 14  1  0
  5 15  1  0
  9 16  1  0
 11 17  1  0
 12 18  1  0
M  ISO  6  13  14  14  14  15  14  16  14  17  14  18  11
M  END
>  <minimizedAffinity>  (1) 
-3.14011836

>  <minimizedRMSD>  (1) 
0.81250459

$$$$
