
     RDKit          3D

 18 19  0  0  0  0  0  0  0  0999 V2000
   44.2190   35.5550   43.7030 C   0  0  0  0  0  0  0  0  0  0  0  0
   44.1170   34.4690   42.7790 C   0  0  0  0  0  0  0  0  0  0  0  0
   44.7460   33.2540   43.0690 C   0  0  0  0  0  0  0  0  0  0  0  0
   45.4320   33.1750   44.2380 N   0  0  0  0  0  0  0  0  0  0  0  0
   45.5210   34.2040   45.0990 C   0  0  0  0  0  0  0  0  0  0  0  0
   44.9130   35.3940   44.8290 N   0  0  0  0  0  0  0  0  0  0  0  0
   43.3590   34.7580   41.6220 N   0  0  0  0  0  0  0  0  0  0  0  0
   43.7210   34.6620   40.3420 C   0  0  0  0  0  0  0  0  0  0  0  0
   42.6310   35.0600   39.5680 C   0  0  0  0  0  0  0  0  0  0  0  0
   41.6450   35.3850   40.3900 N   0  0  0  0  0  0  0  0  0  0  0  0
   42.0730   35.2060   41.6470 C   0  0  0  0  0  0  0  0  0  0  0  0
   44.9570   34.2420   39.8610 O   0  0  0  0  0  0  0  0  0  0  0  0
   43.7287   36.5155   43.4863 H   0  0  0  0  0  0  0  0  0  0  0  0
   44.6874   32.3989   42.3795 H   0  0  0  0  0  0  0  0  0  0  0  0
   46.0910   34.0842   46.0321 H   0  0  0  0  0  0  0  0  0  0  0  0
   42.5966   35.0973   38.4692 H   0  0  0  0  0  0  0  0  0  0  0  0
   41.4801   35.3914   42.5548 H   0  0  0  0  0  0  0  0  0  0  0  0
   45.1228   34.2073   38.8856 H   0  0  0  0  0  0  0  0  0  0  0  0
  1  6  2  0
  2  3  2  0
  2  1  1  0
  3  4  1  0
  4  5  2  0
  6  5  1  0
  7 11  1  0
  7  2  1  0
  8  7  1  0
  9  8  2  0
  9 10  1  0
 10 11  2  0
 12  8  1  0
  1 13  1  0
  3 14  1  0
  5 15  1  0
  9 16  1  0
 11 17  1  0
 12 18  1  0
M  ISO  6  13  14  14  14  15  14  16  14  17  14  18   3
M  END
>  <minimizedAffinity>  (1) 
-3.45490956

>  <minimizedRMSD>  (1) 
0.919035256

$$$$
