
     RDKit          3D

 19 20  0  0  0  0  0  0  0  0999 V2000
   43.3710   34.7500   41.6380 N   0  0  0  0  0  0  0  0  0  0  0  0
   43.7050   34.6460   40.3700 C   0  0  0  0  0  0  0  0  0  0  0  0
   42.6480   35.0330   39.5590 C   0  0  0  0  0  0  0  0  0  0  0  0
   41.6640   35.3740   40.3710 N   0  0  0  0  0  0  0  0  0  0  0  0
   42.0860   35.2080   41.6450 C   0  0  0  0  0  0  0  0  0  0  0  0
   44.2250   35.5520   43.7130 C   0  0  0  0  0  0  0  0  0  0  0  0
   44.1160   34.4700   42.7860 C   0  0  0  0  0  0  0  0  0  0  0  0
   44.7410   33.2730   43.0990 C   0  0  0  0  0  0  0  0  0  0  0  0
   45.4270   33.1880   44.2730 N   0  0  0  0  0  0  0  0  0  0  0  0
   45.5160   34.2180   45.1300 C   0  0  0  0  0  0  0  0  0  0  0  0
   44.9170   35.3950   44.8470 N   0  0  0  0  0  0  0  0  0  0  0  0
   44.9500   34.2090   39.8370 N   0  0  0  0  0  0  0  0  0  0  0  0
   42.6326   35.0520   38.4593 H   0  0  0  0  0  0  0  0  0  0  0  0
   41.4873   35.4104   42.5453 H   0  0  0  0  0  0  0  0  0  0  0  0
   43.7396   36.5145   43.4940 H   0  0  0  0  0  0  0  0  0  0  0  0
   44.6845   32.4126   42.4160 H   0  0  0  0  0  0  0  0  0  0  0  0
   46.0797   34.1025   46.0675 H   0  0  0  0  0  0  0  0  0  0  0  0
   45.0889   34.1716   38.8171 H   0  0  0  0  0  0  0  0  0  0  0  0
   45.7123   33.9301   40.4711 H   0  0  0  0  0  0  0  0  0  0  0  0
  1  5  1  0
  1  7  1  0
  2  1  1  0
  3  2  2  0
  3  4  1  0
  4  5  2  0
  6 11  2  0
  7  8  2  0
  7  6  1  0
  8  9  1  0
  9 10  2  0
 11 10  1  0
 12  2  1  0
  3 13  1  0
  5 14  1  0
  6 15  1  0
  8 16  1  0
 10 17  1  0
 12 18  1  0
 12 19  1  0
M  ISO  5  13  14  14  14  15  14  16  14  17  14
M  END
>  <minimizedAffinity>  (1) 
-3.44731188

>  <minimizedRMSD>  (1) 
0.901501775

$$$$
